
     RDKit          3D

 66 71  0  0  0  0  0  0  0  0999 V2000
   -7.8396   -6.0302  -26.6965 C   0  0  0  0  0  0  0  0  0  0  0  0
   -8.0239   -4.6118  -26.9538 N   0  0  0  0  0  0  0  0  0  0  0  0
   -7.0964   -3.7075  -26.5569 C   0  0  0  0  0  0  0  0  0  0  0  0
   -6.0549   -4.0237  -25.9925 O   0  0  0  0  0  0  0  0  0  0  0  0
   -7.4487   -2.2371  -26.8086 C   0  0  0  0  0  0  0  0  0  0  0  0
   -8.3549   -1.7241  -25.7879 N   0  0  0  0  0  0  0  0  0  0  0  0
   -7.8295   -1.2400  -24.5146 C   0  0  0  0  0  0  0  0  0  0  0  0
   -8.7281   -1.5429  -23.2766 C   0  0  2  0  0  0  0  0  0  0  0  0
   -8.2721   -0.5654  -22.1678 C   0  0  0  0  0  0  0  0  0  0  0  0
   -8.4831    0.6258  -22.1308 O   0  0  0  0  0  0  0  0  0  0  0  0
   -7.5068   -1.2606  -21.2470 N   0  0  0  0  0  0  0  0  0  0  0  0
   -6.7299   -0.6748  -20.2172 C   0  0  0  0  0  0  0  0  0  0  0  0
   -6.9325   -1.0851  -18.9224 C   0  0  0  0  0  0  0  0  0  0  0  0
   -6.2104   -0.6736  -17.8535 N   0  0  0  0  0  0  0  0  0  0  0  0
   -5.2283    0.1657  -18.0796 C   0  0  0  0  0  0  0  0  0  0  0  0
   -4.8974    0.6682  -19.3698 C   0  0  0  0  0  0  0  0  0  0  0  0
   -3.8173    1.5717  -19.5565 C   0  0  0  0  0  0  0  0  0  0  0  0
   -3.5314    2.0669  -20.7987 C   0  0  0  0  0  0  0  0  0  0  0  0
   -4.2986    1.6619  -21.9141 C   0  0  0  0  0  0  0  0  0  0  0  0
   -5.3331    0.7766  -21.7633 C   0  0  0  0  0  0  0  0  0  0  0  0
   -5.6715    0.2585  -20.4794 C   0  0  0  0  0  0  0  0  0  0  0  0
   -5.9272    0.4959  -22.6269 H   0  0  0  0  0  0  0  0  0  0  0  0
   -4.0793    2.0723  -22.8972 H   0  0  0  0  0  0  0  0  0  0  0  0
   -2.7381    2.7983  -20.9294 H   0  0  0  0  0  0  0  0  0  0  0  0
   -3.2309    1.8608  -18.6886 H   0  0  0  0  0  0  0  0  0  0  0  0
   -4.6446    0.4951  -17.2188 H   0  0  0  0  0  0  0  0  0  0  0  0
   -7.7459   -1.7754  -18.7024 H   0  0  0  0  0  0  0  0  0  0  0  0
   -7.3906   -2.6785  -21.5365 C   0  0  0  0  0  0  0  0  0  0  0  0
   -8.4789   -2.9158  -22.5837 C   0  0  2  0  0  0  0  0  0  0  0  0
   -8.1916   -4.0890  -23.5146 C   0  0  0  0  0  0  0  0  0  0  0  0
   -8.1241   -5.3476  -22.8027 N   0  0  0  0  0  0  0  0  0  0  0  0
   -6.9884   -5.9075  -22.3070 C   0  0  0  0  0  0  0  0  0  0  0  0
   -5.7222   -5.7002  -22.8800 C   0  0  0  0  0  0  0  0  0  0  0  0
   -4.6668   -6.3464  -22.2696 C   0  0  0  0  0  0  0  0  0  0  0  0
   -4.8139   -7.1086  -21.1823 N   0  0  0  0  0  0  0  0  0  0  0  0
   -6.0546   -7.2356  -20.7369 C   0  0  0  0  0  0  0  0  0  0  0  0
   -7.1573   -6.7012  -21.2394 N   0  0  0  0  0  0  0  0  0  0  0  0
   -6.1831   -7.8564  -19.8517 H   0  0  0  0  0  0  0  0  0  0  0  0
   -3.6472   -6.2611  -22.6485 H   0  0  0  0  0  0  0  0  0  0  0  0
   -5.6024   -5.0862  -23.7669 H   0  0  0  0  0  0  0  0  0  0  0  0
   -8.9173   -5.5173  -22.2002 H   0  0  0  0  0  0  0  0  0  0  0  0
   -9.0025   -4.1429  -24.2506 H   0  0  0  0  0  0  0  0  0  0  0  0
   -7.2540   -3.9184  -24.0434 H   0  0  0  0  0  0  0  0  0  0  0  0
   -9.4126   -3.1445  -22.0489 H   0  0  0  0  0  0  0  0  0  0  0  0
   -7.5497   -3.2674  -20.6304 H   0  0  0  0  0  0  0  0  0  0  0  0
   -6.3827   -2.9202  -21.9091 H   0  0  0  0  0  0  0  0  0  0  0  0
  -10.1875   -1.3695  -23.6503 C   0  0  0  0  0  0  0  0  0  0  0  0
  -11.1569   -1.2988  -22.6397 C   0  0  0  0  0  0  0  0  0  0  0  0
  -12.4963   -1.1826  -22.9683 C   0  0  0  0  0  0  0  0  0  0  0  0
  -13.7353   -1.1890  -21.7479 Cl  0  0  0  0  0  0  0  0  0  0  0  0
  -12.9075   -1.1119  -24.2987 C   0  0  0  0  0  0  0  0  0  0  0  0
  -11.9593   -1.2115  -25.2996 C   0  0  0  0  0  0  0  0  0  0  0  0
  -10.6167   -1.4003  -24.9788 C   0  0  0  0  0  0  0  0  0  0  0  0
   -9.6861   -1.8171  -26.0665 C   0  0  0  0  0  0  0  0  0  0  0  0
  -10.0926   -2.2771  -27.1303 O   0  0  0  0  0  0  0  0  0  0  0  0
  -12.2369   -1.1723  -26.3480 H   0  0  0  0  0  0  0  0  0  0  0  0
  -13.9663   -1.0582  -24.5194 H   0  0  0  0  0  0  0  0  0  0  0  0
  -10.8468   -1.3505  -21.6027 H   0  0  0  0  0  0  0  0  0  0  0  0
   -7.6990   -0.1492  -24.5599 H   0  0  0  0  0  0  0  0  0  0  0  0
   -6.8431   -1.7029  -24.3825 H   0  0  0  0  0  0  0  0  0  0  0  0
   -6.5214   -1.6596  -26.8214 H   0  0  0  0  0  0  0  0  0  0  0  0
   -7.9632   -2.1345  -27.7660 H   0  0  0  0  0  0  0  0  0  0  0  0
   -8.8935   -4.2764  -27.3362 H   0  0  0  0  0  0  0  0  0  0  0  0
   -7.5837   -6.1940  -25.6404 H   0  0  0  0  0  0  0  0  0  0  0  0
   -8.7704   -6.5560  -26.9217 H   0  0  0  0  0  0  0  0  0  0  0  0
   -7.0456   -6.4509  -27.3241 H   0  0  0  0  0  0  0  0  0  0  0  0
  1  2  1  0
  2  3  1  0
  3  4  2  0
  3  5  1  0
  5  6  1  0
  6  7  1  0
  8  7  1  6
  8  9  1  0
  9 10  2  0
  9 11  1  0
 11 12  1  0
 12 13  2  0
 13 14  1  0
 14 15  2  0
 15 16  1  0
 16 17  2  0
 17 18  1  0
 18 19  2  0
 19 20  1  0
 20 21  2  0
 20 22  1  0
 19 23  1  0
 18 24  1  0
 17 25  1  0
 15 26  1  0
 13 27  1  0
 11 28  1  0
 28 29  1  0
 29 30  1  0
 30 31  1  0
 31 32  1  0
 32 33  2  0
 33 34  1  0
 34 35  2  0
 35 36  1  0
 36 37  2  0
 36 38  1  0
 34 39  1  0
 33 40  1  0
 31 41  1  0
 30 42  1  0
 30 43  1  0
 29 44  1  1
 28 45  1  0
 28 46  1  0
  8 47  1  0
 47 48  2  0
 48 49  1  0
 49 50  1  0
 49 51  2  0
 51 52  1  0
 52 53  2  0
 53 54  1  0
 54 55  2  0
 52 56  1  0
 51 57  1  0
 48 58  1  0
  7 59  1  0
  7 60  1  0
  5 61  1  0
  5 62  1  0
  2 63  1  0
  1 64  1  0
  1 65  1  0
  1 66  1  0
 54  6  1  0
 29  8  1  0
 37 32  1  0
 53 47  1  0
 21 12  1  0
 21 16  1  0
M  END
>  <cnnaffinities>  (1) 
[6.12453, 6.43258]

>  <score>  (1) 
6.12453

>  <index>  (1) 
0

>  <Smiles>  (1) 
C(N(C(=O)C(N1C([C@@]2(C(=O)N(c3c(nc(c4c(c(c(c(c34)[H])[H])[H])[H])[H])[H])C([C@@]2(C(N(c2c(c(nc(n2)[H])[H])[H])[H])([H])[H])[H])([H])[H])c2c(c(Cl)c(c(c2C1=O)[H])[H])[H])([H])[H])([H])[H])[H])([H])([H])[H]

>  <h>  (1) 
<NA>

>  <Training>  (1) 
True

>  <Success>  (1) 
True

>  <enamine_searched>  (1) 
False

>  <enamine_id>  (1) 
nan

$$$$

     RDKit          3D

 68 73  0  0  0  0  0  0  0  0999 V2000
   -7.3354    3.3533  -22.0539 C   0  0  0  0  0  0  0  0  0  0  0  0
   -8.2067    2.7334  -23.0324 N   0  0  0  0  0  0  0  0  0  0  0  0
   -7.6615    2.1879  -24.1499 C   0  0  0  0  0  0  0  0  0  0  0  0
   -6.4726    2.2724  -24.4322 O   0  0  0  0  0  0  0  0  0  0  0  0
   -8.6604    1.4744  -25.0638 C   0  0  0  0  0  0  0  0  0  0  0  0
   -9.3474    0.3844  -24.3848 N   0  0  0  0  0  0  0  0  0  0  0  0
   -8.5961   -0.8436  -24.1553 C   0  0  0  0  0  0  0  0  0  0  0  0
   -9.0391   -1.5835  -22.8603 C   0  0  2  0  0  0  0  0  0  0  0  0
   -8.5578   -0.7887  -21.6196 C   0  0  0  0  0  0  0  0  0  0  0  0
   -9.0667    0.2009  -21.1372 O   0  0  0  0  0  0  0  0  0  0  0  0
   -7.4159   -1.3851  -21.1396 N   0  0  0  0  0  0  0  0  0  0  0  0
   -6.6469   -0.7879  -20.1070 C   0  0  0  0  0  0  0  0  0  0  0  0
   -6.9024   -1.1059  -18.7970 C   0  0  0  0  0  0  0  0  0  0  0  0
   -6.1905   -0.6428  -17.7412 N   0  0  0  0  0  0  0  0  0  0  0  0
   -5.2050    0.1858  -17.9958 C   0  0  0  0  0  0  0  0  0  0  0  0
   -4.8479    0.6208  -19.3055 C   0  0  0  0  0  0  0  0  0  0  0  0
   -3.8055    1.5603  -19.5283 C   0  0  0  0  0  0  0  0  0  0  0  0
   -3.5256    2.0011  -20.7938 C   0  0  0  0  0  0  0  0  0  0  0  0
   -4.2716    1.5286  -21.8958 C   0  0  0  0  0  0  0  0  0  0  0  0
   -5.2645    0.5933  -21.7092 C   0  0  0  0  0  0  0  0  0  0  0  0
   -5.5905    0.1288  -20.4030 C   0  0  0  0  0  0  0  0  0  0  0  0
   -5.8478    0.2535  -22.5593 H   0  0  0  0  0  0  0  0  0  0  0  0
   -4.0817    1.9127  -22.8940 H   0  0  0  0  0  0  0  0  0  0  0  0
   -2.7398    2.7350  -20.9463 H   0  0  0  0  0  0  0  0  0  0  0  0
   -3.2595    1.9312  -18.6660 H   0  0  0  0  0  0  0  0  0  0  0  0
   -4.6409    0.5709  -17.1461 H   0  0  0  0  0  0  0  0  0  0  0  0
   -7.7261   -1.7758  -18.5590 H   0  0  0  0  0  0  0  0  0  0  0  0
   -6.9925   -2.5524  -21.8853 C   0  0  0  0  0  0  0  0  0  0  0  0
   -8.2582   -2.9342  -22.6758 C   0  0  2  0  0  0  0  0  0  0  0  0
   -7.9632   -3.7089  -23.9661 C   0  0  0  0  0  0  0  0  0  0  0  0
   -7.3608   -5.0072  -23.7652 N   0  0  0  0  0  0  0  0  0  0  0  0
   -6.9261   -5.7344  -24.8598 C   0  0  0  0  0  0  0  0  0  0  0  0
   -7.1166   -5.4281  -26.2306 C   0  0  0  0  0  0  0  0  0  0  0  0
   -6.4835   -6.2898  -27.0105 N   0  0  0  0  0  0  0  0  0  0  0  0
   -5.8936   -7.1501  -26.1804 N   0  0  0  0  0  0  0  0  0  0  0  0
   -5.0199   -8.1332  -26.7804 C   0  0  0  0  0  0  0  0  0  0  0  0
   -4.3403   -8.5443  -26.0265 H   0  0  0  0  0  0  0  0  0  0  0  0
   -5.6255   -8.9254  -27.2280 H   0  0  0  0  0  0  0  0  0  0  0  0
   -4.4427   -7.6364  -27.5679 H   0  0  0  0  0  0  0  0  0  0  0  0
   -6.1488   -6.8821  -24.8697 C   0  0  0  0  0  0  0  0  0  0  0  0
   -5.8343   -7.5660  -24.0820 H   0  0  0  0  0  0  0  0  0  0  0  0
   -7.6446   -4.6082  -26.7042 H   0  0  0  0  0  0  0  0  0  0  0  0
   -7.0424   -5.3319  -22.8700 H   0  0  0  0  0  0  0  0  0  0  0  0
   -7.3025   -3.1035  -24.6089 H   0  0  0  0  0  0  0  0  0  0  0  0
   -8.8964   -3.8650  -24.5259 H   0  0  0  0  0  0  0  0  0  0  0  0
   -8.8582   -3.5802  -22.0279 H   0  0  0  0  0  0  0  0  0  0  0  0
   -6.1420   -2.3147  -22.5467 H   0  0  0  0  0  0  0  0  0  0  0  0
   -6.6611   -3.3360  -21.1953 H   0  0  0  0  0  0  0  0  0  0  0  0
  -10.5571   -1.6610  -22.8547 C   0  0  0  0  0  0  0  0  0  0  0  0
  -11.2244   -2.5673  -22.0210 C   0  0  0  0  0  0  0  0  0  0  0  0
  -12.6071   -2.5814  -21.9671 C   0  0  0  0  0  0  0  0  0  0  0  0
  -13.4090   -3.7247  -20.9286 Cl  0  0  0  0  0  0  0  0  0  0  0  0
  -13.3802   -1.6956  -22.7157 C   0  0  0  0  0  0  0  0  0  0  0  0
  -12.7315   -0.7712  -23.5080 C   0  0  0  0  0  0  0  0  0  0  0  0
  -11.3383   -0.7356  -23.5669 C   0  0  0  0  0  0  0  0  0  0  0  0
  -10.7193    0.3688  -24.3728 C   0  0  0  0  0  0  0  0  0  0  0  0
  -11.3971    1.2112  -24.9453 O   0  0  0  0  0  0  0  0  0  0  0  0
  -13.2836   -0.0415  -24.0893 H   0  0  0  0  0  0  0  0  0  0  0  0
  -14.4627   -1.7330  -22.6587 H   0  0  0  0  0  0  0  0  0  0  0  0
  -10.6820   -3.2609  -21.3887 H   0  0  0  0  0  0  0  0  0  0  0  0
   -8.7223   -1.5168  -25.0162 H   0  0  0  0  0  0  0  0  0  0  0  0
   -7.5368   -0.5736  -24.0938 H   0  0  0  0  0  0  0  0  0  0  0  0
   -8.1028    1.1220  -25.9374 H   0  0  0  0  0  0  0  0  0  0  0  0
   -9.4391    2.1686  -25.4023 H   0  0  0  0  0  0  0  0  0  0  0  0
   -9.0845    2.3445  -22.7042 H   0  0  0  0  0  0  0  0  0  0  0  0
   -6.8563    2.5930  -21.4215 H   0  0  0  0  0  0  0  0  0  0  0  0
   -7.9022    4.0570  -21.4384 H   0  0  0  0  0  0  0  0  0  0  0  0
   -6.5499    3.8944  -22.5896 H   0  0  0  0  0  0  0  0  0  0  0  0
  1  2  1  0
  2  3  1  0
  3  4  2  0
  3  5  1  0
  5  6  1  0
  6  7  1  0
  8  7  1  6
  8  9  1  0
  9 10  2  0
  9 11  1  0
 11 12  1  0
 12 13  2  0
 13 14  1  0
 14 15  2  0
 15 16  1  0
 16 17  2  0
 17 18  1  0
 18 19  2  0
 19 20  1  0
 20 21  2  0
 20 22  1  0
 19 23  1  0
 18 24  1  0
 17 25  1  0
 15 26  1  0
 13 27  1  0
 11 28  1  0
 28 29  1  0
 29 30  1  0
 30 31  1  0
 31 32  1  0
 32 33  1  0
 33 34  2  0
 34 35  1  0
 35 36  1  0
 36 37  1  0
 36 38  1  0
 36 39  1  0
 35 40  1  0
 40 41  1  0
 33 42  1  0
 31 43  1  0
 30 44  1  0
 30 45  1  0
 29 46  1  1
 28 47  1  0
 28 48  1  0
  8 49  1  0
 49 50  2  0
 50 51  1  0
 51 52  1  0
 51 53  2  0
 53 54  1  0
 54 55  2  0
 55 56  1  0
 56 57  2  0
 54 58  1  0
 53 59  1  0
 50 60  1  0
  7 61  1  0
  7 62  1  0
  5 63  1  0
  5 64  1  0
  2 65  1  0
  1 66  1  0
  1 67  1  0
  1 68  1  0
 56  6  1  0
 29  8  1  0
 40 32  2  0
 55 49  1  0
 21 12  1  0
 21 16  1  0
M  END
>  <cnnaffinities>  (2) 
[6.51231, 6.42695, 6.48861]

>  <score>  (2) 
6.51231

>  <index>  (2) 
1

>  <Smiles>  (2) 
C(N(C(=O)C(N1C([C@@]2(C(=O)N(c3c(nc(c4c(c(c(c(c34)[H])[H])[H])[H])[H])[H])C([C@@]2(C(N(c2c(nn(C([H])([H])[H])c2[H])[H])[H])([H])[H])[H])([H])[H])c2c(c(Cl)c(c(c2C1=O)[H])[H])[H])([H])[H])([H])[H])[H])([H])([H])[H]

>  <h>  (2) 
<NA>

>  <Training>  (2) 
True

>  <Success>  (2) 
True

>  <enamine_searched>  (2) 
False

>  <enamine_id>  (2) 
nan

$$$$

     RDKit          3D

 60 65  0  0  0  0  0  0  0  0999 V2000
   -5.9971   -7.5398  -26.6563 C   0  0  0  0  0  0  0  0  0  0  0  0
   -6.4992   -6.1258  -26.7162 C   0  0  0  0  0  0  0  0  0  0  0  0
   -5.6678   -5.0650  -26.3590 C   0  0  0  0  0  0  0  0  0  0  0  0
   -6.0692   -3.8002  -26.3736 N   0  0  0  0  0  0  0  0  0  0  0  0
   -7.3105   -3.5652  -26.7942 C   0  0  0  0  0  0  0  0  0  0  0  0
   -7.7366   -2.1291  -26.8461 C   0  0  0  0  0  0  0  0  0  0  0  0
   -8.5632   -1.7956  -25.6980 N   0  0  0  0  0  0  0  0  0  0  0  0
   -7.9258   -1.2913  -24.4818 C   0  0  0  0  0  0  0  0  0  0  0  0
   -8.7377   -1.5823  -23.1894 C   0  0  2  0  0  0  0  0  0  0  0  0
   -8.1669   -0.6469  -22.1114 C   0  0  0  0  0  0  0  0  0  0  0  0
   -8.2893    0.5615  -22.0748 O   0  0  0  0  0  0  0  0  0  0  0  0
   -7.4456   -1.3877  -21.2003 N   0  0  0  0  0  0  0  0  0  0  0  0
   -6.6647   -0.7890  -20.1841 C   0  0  0  0  0  0  0  0  0  0  0  0
   -6.9194   -1.0991  -18.8710 C   0  0  0  0  0  0  0  0  0  0  0  0
   -6.2305   -0.6126  -17.8125 N   0  0  0  0  0  0  0  0  0  0  0  0
   -5.2159    0.1763  -18.0748 C   0  0  0  0  0  0  0  0  0  0  0  0
   -4.8363    0.5752  -19.3886 C   0  0  0  0  0  0  0  0  0  0  0  0
   -3.7264    1.4373  -19.6023 C   0  0  0  0  0  0  0  0  0  0  0  0
   -3.4450    1.9017  -20.8552 C   0  0  0  0  0  0  0  0  0  0  0  0
   -4.2298    1.4910  -21.9552 C   0  0  0  0  0  0  0  0  0  0  0  0
   -5.2337    0.5701  -21.7925 C   0  0  0  0  0  0  0  0  0  0  0  0
   -5.5906    0.1100  -20.4882 C   0  0  0  0  0  0  0  0  0  0  0  0
   -5.7818    0.2295  -22.6648 H   0  0  0  0  0  0  0  0  0  0  0  0
   -4.0300    1.9105  -22.9352 H   0  0  0  0  0  0  0  0  0  0  0  0
   -2.6504    2.6263  -21.0048 H   0  0  0  0  0  0  0  0  0  0  0  0
   -3.1243    1.7240  -18.7425 H   0  0  0  0  0  0  0  0  0  0  0  0
   -4.6482    0.5580  -17.2264 H   0  0  0  0  0  0  0  0  0  0  0  0
   -7.7470   -1.7649  -18.6362 H   0  0  0  0  0  0  0  0  0  0  0  0
   -7.3934   -2.8083  -21.5075 C   0  0  0  0  0  0  0  0  0  0  0  0
   -8.5244   -2.9944  -22.5285 C   0  0  2  0  0  0  0  0  0  0  0  0
   -8.3017   -4.1446  -23.4956 C   0  0  0  0  0  0  0  0  0  0  0  0
   -9.1122   -4.1813  -24.2313 H   0  0  0  0  0  0  0  0  0  0  0  0
   -8.2690   -5.0945  -22.9539 H   0  0  0  0  0  0  0  0  0  0  0  0
   -7.3563   -4.0176  -24.0324 H   0  0  0  0  0  0  0  0  0  0  0  0
   -9.4400   -3.1888  -21.9486 H   0  0  0  0  0  0  0  0  0  0  0  0
   -6.4105   -3.0857  -21.9173 H   0  0  0  0  0  0  0  0  0  0  0  0
   -7.5545   -3.4042  -20.6035 H   0  0  0  0  0  0  0  0  0  0  0  0
  -10.2030   -1.3065  -23.4752 C   0  0  0  0  0  0  0  0  0  0  0  0
  -11.0697   -1.0105  -22.4243 C   0  0  0  0  0  0  0  0  0  0  0  0
  -12.4177   -0.8421  -22.6777 C   0  0  0  0  0  0  0  0  0  0  0  0
  -13.2492   -0.5876  -21.6621 F   0  0  0  0  0  0  0  0  0  0  0  0
  -12.9654   -0.9526  -23.9492 C   0  0  0  0  0  0  0  0  0  0  0  0
  -12.1168   -1.2761  -24.9852 C   0  0  0  0  0  0  0  0  0  0  0  0
  -10.7548   -1.4492  -24.7496 C   0  0  0  0  0  0  0  0  0  0  0  0
   -9.9137   -1.8368  -25.9041 C   0  0  0  0  0  0  0  0  0  0  0  0
  -10.4045   -2.1689  -26.9771 O   0  0  0  0  0  0  0  0  0  0  0  0
  -12.4707   -1.4149  -26.0013 H   0  0  0  0  0  0  0  0  0  0  0  0
  -14.0260   -0.8001  -24.1095 H   0  0  0  0  0  0  0  0  0  0  0  0
  -10.6768   -0.9182  -21.4213 H   0  0  0  0  0  0  0  0  0  0  0  0
   -6.9172   -1.7249  -24.3996 H   0  0  0  0  0  0  0  0  0  0  0  0
   -7.8040   -0.1983  -24.5630 H   0  0  0  0  0  0  0  0  0  0  0  0
   -8.3300   -1.9233  -27.7426 H   0  0  0  0  0  0  0  0  0  0  0  0
   -6.8414   -1.5024  -26.8410 H   0  0  0  0  0  0  0  0  0  0  0  0
   -8.1566   -4.6181  -27.1357 C   0  0  0  0  0  0  0  0  0  0  0  0
   -7.7506   -5.8893  -27.1102 N   0  0  0  0  0  0  0  0  0  0  0  0
   -9.1859   -4.4324  -27.4370 H   0  0  0  0  0  0  0  0  0  0  0  0
   -4.6371   -5.2445  -26.0707 H   0  0  0  0  0  0  0  0  0  0  0  0
   -5.1625   -7.6755  -27.3556 H   0  0  0  0  0  0  0  0  0  0  0  0
   -5.6086   -7.7532  -25.6505 H   0  0  0  0  0  0  0  0  0  0  0  0
   -6.8045   -8.2342  -26.9119 H   0  0  0  0  0  0  0  0  0  0  0  0
  1  2  1  0
  2  3  2  0
  3  4  1  0
  4  5  2  0
  5  6  1  0
  6  7  1  0
  7  8  1  0
  9  8  1  6
  9 10  1  0
 10 11  2  0
 10 12  1  0
 12 13  1  0
 13 14  2  0
 14 15  1  0
 15 16  2  0
 16 17  1  0
 17 18  2  0
 18 19  1  0
 19 20  2  0
 20 21  1  0
 21 22  2  0
 21 23  1  0
 20 24  1  0
 19 25  1  0
 18 26  1  0
 16 27  1  0
 14 28  1  0
 12 29  1  0
 29 30  1  0
 30 31  1  0
 31 32  1  0
 31 33  1  0
 31 34  1  0
 30 35  1  1
 29 36  1  0
 29 37  1  0
  9 38  1  0
 38 39  2  0
 39 40  1  0
 40 41  1  0
 40 42  2  0
 42 43  1  0
 43 44  2  0
 44 45  1  0
 45 46  2  0
 43 47  1  0
 42 48  1  0
 39 49  1  0
  8 50  1  0
  8 51  1  0
  6 52  1  0
  6 53  1  0
  5 54  1  0
 54 55  2  0
 54 56  1  0
  3 57  1  0
  1 58  1  0
  1 59  1  0
  1 60  1  0
 55  2  1  0
 45  7  1  0
 30  9  1  0
 44 38  1  0
 22 13  1  0
 22 17  1  0
M  END
>  <cnnaffinities>  (3) 
[6.09117]

>  <score>  (3) 
6.09117

>  <index>  (3) 
2

>  <Smiles>  (3) 
C(c1c(nc(C(N2C([C@@]3(C(=O)N(c4c(nc(c5c(c(c(c(c45)[H])[H])[H])[H])[H])[H])C([C@@]3(C([H])([H])[H])[H])([H])[H])c3c(c(F)c(c(c3C2=O)[H])[H])[H])([H])[H])([H])[H])c(n1)[H])[H])([H])([H])[H]

>  <h>  (3) 
<NA>

>  <Training>  (3) 
True

>  <Success>  (3) 
True

>  <enamine_searched>  (3) 
False

>  <enamine_id>  (3) 
nan

$$$$

     RDKit          3D

 66 70  0  0  0  0  0  0  0  0999 V2000
   -7.6394    3.0590  -21.9702 C   0  0  0  0  0  0  0  0  0  0  0  0
   -8.8056    2.5856  -22.6982 N   0  0  0  0  0  0  0  0  0  0  0  0
   -8.5314    1.7686  -23.7588 C   0  0  0  0  0  0  0  0  0  0  0  0
   -7.3785    1.5055  -24.0863 O   0  0  0  0  0  0  0  0  0  0  0  0
   -9.6987    1.1712  -24.5366 C   0  0  0  0  0  0  0  0  0  0  0  0
  -10.1313   -0.0506  -23.8920 N   0  0  0  0  0  0  0  0  0  0  0  0
   -9.2358   -1.2001  -23.8857 C   0  0  0  0  0  0  0  0  0  0  0  0
   -9.3013   -1.9438  -22.5269 C   0  0  2  0  0  0  0  0  0  0  0  0
   -8.7072   -1.0084  -21.4396 C   0  0  0  0  0  0  0  0  0  0  0  0
   -9.2405   -0.0291  -20.9502 O   0  0  0  0  0  0  0  0  0  0  0  0
   -7.4230   -1.4301  -21.1574 N   0  0  0  0  0  0  0  0  0  0  0  0
   -6.6425   -0.8168  -20.1465 C   0  0  0  0  0  0  0  0  0  0  0  0
   -6.9343   -1.0619  -18.8252 C   0  0  0  0  0  0  0  0  0  0  0  0
   -6.2228   -0.5784  -17.7810 N   0  0  0  0  0  0  0  0  0  0  0  0
   -5.1958    0.1899  -18.0575 C   0  0  0  0  0  0  0  0  0  0  0  0
   -4.7976    0.5463  -19.3782 C   0  0  0  0  0  0  0  0  0  0  0  0
   -3.7004    1.4162  -19.6191 C   0  0  0  0  0  0  0  0  0  0  0  0
   -3.4288    1.8567  -20.8853 C   0  0  0  0  0  0  0  0  0  0  0  0
   -4.2220    1.4315  -21.9717 C   0  0  0  0  0  0  0  0  0  0  0  0
   -5.2337    0.5136  -21.7783 C   0  0  0  0  0  0  0  0  0  0  0  0
   -5.5581    0.0588  -20.4681 C   0  0  0  0  0  0  0  0  0  0  0  0
   -5.8160    0.1879  -22.6339 H   0  0  0  0  0  0  0  0  0  0  0  0
   -4.0462    1.8471  -22.9591 H   0  0  0  0  0  0  0  0  0  0  0  0
   -2.6046    2.5434  -21.0579 H   0  0  0  0  0  0  0  0  0  0  0  0
   -3.1058    1.7399  -18.7695 H   0  0  0  0  0  0  0  0  0  0  0  0
   -4.6208    0.5732  -17.2145 H   0  0  0  0  0  0  0  0  0  0  0  0
   -7.7827   -1.6951  -18.5797 H   0  0  0  0  0  0  0  0  0  0  0  0
   -6.9899   -2.5574  -21.9651 C   0  0  0  0  0  0  0  0  0  0  0  0
   -8.3222   -3.1459  -22.4546 C   0  0  2  0  0  0  0  0  0  0  0  0
   -8.2008   -3.9848  -23.7270 C   0  0  0  0  0  0  0  0  0  0  0  0
   -7.4539   -5.1538  -23.4804 O   0  0  0  0  0  0  0  0  0  0  0  0
   -6.1665   -5.2223  -24.0847 C   0  0  0  0  0  0  0  0  0  0  0  0
   -5.3405   -6.1395  -23.2007 C   0  0  0  0  0  0  0  0  0  0  0  0
   -4.3070   -6.2202  -23.5573 H   0  0  0  0  0  0  0  0  0  0  0  0
   -5.7925   -7.1365  -23.1908 H   0  0  0  0  0  0  0  0  0  0  0  0
   -5.3311   -5.7536  -22.1774 H   0  0  0  0  0  0  0  0  0  0  0  0
   -6.2574   -5.7354  -25.5202 C   0  0  0  0  0  0  0  0  0  0  0  0
   -6.8569   -5.0704  -26.1532 H   0  0  0  0  0  0  0  0  0  0  0  0
   -6.7179   -6.7301  -25.5376 H   0  0  0  0  0  0  0  0  0  0  0  0
   -5.2536   -5.8071  -25.9570 H   0  0  0  0  0  0  0  0  0  0  0  0
   -5.7100   -4.2166  -24.0950 H   0  0  0  0  0  0  0  0  0  0  0  0
   -9.2027   -4.2871  -24.0613 H   0  0  0  0  0  0  0  0  0  0  0  0
   -7.7475   -3.3814  -24.5340 H   0  0  0  0  0  0  0  0  0  0  0  0
   -8.6625   -3.8076  -21.6546 H   0  0  0  0  0  0  0  0  0  0  0  0
   -6.3677   -2.2283  -22.8138 H   0  0  0  0  0  0  0  0  0  0  0  0
   -6.4104   -3.2732  -21.3706 H   0  0  0  0  0  0  0  0  0  0  0  0
  -10.7699   -2.2716  -22.2947 C   0  0  0  0  0  0  0  0  0  0  0  0
  -11.1941   -3.4122  -21.6070 C   0  0  0  0  0  0  0  0  0  0  0  0
  -12.5263   -3.5696  -21.2651 C   0  0  0  0  0  0  0  0  0  0  0  0
  -12.9756   -4.8941  -20.2312 Cl  0  0  0  0  0  0  0  0  0  0  0  0
  -13.5058   -2.6650  -21.6599 C   0  0  0  0  0  0  0  0  0  0  0  0
  -13.1105   -1.5715  -22.3999 C   0  0  0  0  0  0  0  0  0  0  0  0
  -11.7666   -1.3753  -22.7083 C   0  0  0  0  0  0  0  0  0  0  0  0
  -11.4265   -0.1374  -23.4721 C   0  0  0  0  0  0  0  0  0  0  0  0
  -12.2544    0.7340  -23.6978 O   0  0  0  0  0  0  0  0  0  0  0  0
  -13.8198   -0.8274  -22.7423 H   0  0  0  0  0  0  0  0  0  0  0  0
  -14.5412   -2.8125  -21.3772 H   0  0  0  0  0  0  0  0  0  0  0  0
  -10.5046   -4.1790  -21.2851 H   0  0  0  0  0  0  0  0  0  0  0  0
   -9.5208   -1.8966  -24.6863 H   0  0  0  0  0  0  0  0  0  0  0  0
   -8.2200   -0.8446  -24.0868 H   0  0  0  0  0  0  0  0  0  0  0  0
   -9.3429    0.9416  -25.5465 H   0  0  0  0  0  0  0  0  0  0  0  0
  -10.5663    1.8349  -24.6105 H   0  0  0  0  0  0  0  0  0  0  0  0
   -9.6425    2.4421  -22.1395 H   0  0  0  0  0  0  0  0  0  0  0  0
   -7.1272    2.2189  -21.4790 H   0  0  0  0  0  0  0  0  0  0  0  0
   -7.9209    3.8166  -21.2379 H   0  0  0  0  0  0  0  0  0  0  0  0
   -6.9597    3.5284  -22.6869 H   0  0  0  0  0  0  0  0  0  0  0  0
  1  2  1  0
  2  3  1  0
  3  4  2  0
  3  5  1  0
  5  6  1  0
  6  7  1  0
  8  7  1  6
  8  9  1  0
  9 10  2  0
  9 11  1  0
 11 12  1  0
 12 13  2  0
 13 14  1  0
 14 15  2  0
 15 16  1  0
 16 17  2  0
 17 18  1  0
 18 19  2  0
 19 20  1  0
 20 21  2  0
 20 22  1  0
 19 23  1  0
 18 24  1  0
 17 25  1  0
 15 26  1  0
 13 27  1  0
 11 28  1  0
 28 29  1  0
 29 30  1  0
 30 31  1  0
 31 32  1  0
 32 33  1  0
 33 34  1  0
 33 35  1  0
 33 36  1  0
 32 37  1  0
 37 38  1  0
 37 39  1  0
 37 40  1  0
 32 41  1  0
 30 42  1  0
 30 43  1  0
 29 44  1  1
 28 45  1  0
 28 46  1  0
  8 47  1  0
 47 48  2  0
 48 49  1  0
 49 50  1  0
 49 51  2  0
 51 52  1  0
 52 53  2  0
 53 54  1  0
 54 55  2  0
 52 56  1  0
 51 57  1  0
 48 58  1  0
  7 59  1  0
  7 60  1  0
  5 61  1  0
  5 62  1  0
  2 63  1  0
  1 64  1  0
  1 65  1  0
  1 66  1  0
 54  6  1  0
 29  8  1  0
 53 47  1  0
 21 12  1  0
 21 16  1  0
M  END
>  <cnnaffinities>  (4) 
[6.60589, 5.8898]

>  <score>  (4) 
6.60589

>  <index>  (4) 
3

>  <Smiles>  (4) 
C(N(C(=O)C(N1C([C@@]2(C(=O)N(c3c(nc(c4c(c(c(c(c34)[H])[H])[H])[H])[H])[H])C([C@@]2(C(OC(C([H])([H])[H])(C([H])([H])[H])[H])([H])[H])[H])([H])[H])c2c(c(Cl)c(c(c2C1=O)[H])[H])[H])([H])[H])([H])[H])[H])([H])([H])[H]

>  <h>  (4) 
<NA>

>  <Training>  (4) 
True

>  <Success>  (4) 
True

>  <enamine_searched>  (4) 
False

>  <enamine_id>  (4) 
nan

$$$$

     RDKit          3D

 59 64  0  0  0  0  0  0  0  0999 V2000
   -8.2744   -4.1371  -23.4973 C   0  0  0  0  0  0  0  0  0  0  0  0
   -8.5153   -2.9914  -22.5294 C   0  0  1  0  0  0  0  0  0  0  0  0
   -7.3794   -2.8000  -21.5152 C   0  0  0  0  0  0  0  0  0  0  0  0
   -7.4471   -1.3826  -21.2000 N   0  0  0  0  0  0  0  0  0  0  0  0
   -6.6646   -0.7858  -20.1842 C   0  0  0  0  0  0  0  0  0  0  0  0
   -6.9193   -1.0983  -18.8723 C   0  0  0  0  0  0  0  0  0  0  0  0
   -6.2303   -0.6110  -17.8143 N   0  0  0  0  0  0  0  0  0  0  0  0
   -5.2154    0.1756  -18.0764 C   0  0  0  0  0  0  0  0  0  0  0  0
   -4.8336    0.5741  -19.3879 C   0  0  0  0  0  0  0  0  0  0  0  0
   -3.7256    1.4388  -19.6039 C   0  0  0  0  0  0  0  0  0  0  0  0
   -3.4446    1.8997  -20.8559 C   0  0  0  0  0  0  0  0  0  0  0  0
   -4.2272    1.4901  -21.9575 C   0  0  0  0  0  0  0  0  0  0  0  0
   -5.2322    0.5705  -21.7935 C   0  0  0  0  0  0  0  0  0  0  0  0
   -5.5907    0.1131  -20.4885 C   0  0  0  0  0  0  0  0  0  0  0  0
   -5.7810    0.2299  -22.6659 H   0  0  0  0  0  0  0  0  0  0  0  0
   -4.0257    1.9087  -22.9403 H   0  0  0  0  0  0  0  0  0  0  0  0
   -2.6490    2.6264  -21.0071 H   0  0  0  0  0  0  0  0  0  0  0  0
   -3.1217    1.7222  -18.7417 H   0  0  0  0  0  0  0  0  0  0  0  0
   -4.6489    0.5570  -17.2266 H   0  0  0  0  0  0  0  0  0  0  0  0
   -7.7466   -1.7646  -18.6372 H   0  0  0  0  0  0  0  0  0  0  0  0
   -8.1703   -0.6425  -22.1116 C   0  0  0  0  0  0  0  0  0  0  0  0
   -8.2933    0.5652  -22.0742 O   0  0  0  0  0  0  0  0  0  0  0  0
   -8.7397   -1.5809  -23.1905 C   0  0  1  0  0  0  0  0  0  0  0  0
   -7.9406   -1.2907  -24.4879 C   0  0  0  0  0  0  0  0  0  0  0  0
   -8.5657   -1.8514  -25.6899 N   0  0  0  0  0  0  0  0  0  0  0  0
   -7.7065   -2.0651  -26.8414 C   0  0  0  0  0  0  0  0  0  0  0  0
   -6.9382   -3.3338  -26.6869 C   0  0  0  0  0  0  0  0  0  0  0  0
   -5.7225   -3.3920  -26.1899 N   0  0  0  0  0  0  0  0  0  0  0  0
   -5.3809   -4.7208  -26.2366 C   0  0  0  0  0  0  0  0  0  0  0  0
   -6.4210   -5.4593  -26.7213 C   0  0  0  0  0  0  0  0  0  0  0  0
   -7.4322   -4.5660  -27.0110 N   0  0  0  0  0  0  0  0  0  0  0  0
   -8.7756   -4.8853  -27.4731 C   0  0  0  0  0  0  0  0  0  0  0  0
   -9.0296   -4.2830  -28.3520 H   0  0  0  0  0  0  0  0  0  0  0  0
   -9.5160   -4.7089  -26.6835 H   0  0  0  0  0  0  0  0  0  0  0  0
   -8.8133   -5.9430  -27.7541 H   0  0  0  0  0  0  0  0  0  0  0  0
   -6.5301   -6.5204  -26.8885 H   0  0  0  0  0  0  0  0  0  0  0  0
   -4.3954   -5.0608  -25.9429 H   0  0  0  0  0  0  0  0  0  0  0  0
   -8.3420   -2.0757  -27.7285 H   0  0  0  0  0  0  0  0  0  0  0  0
   -7.0015   -1.2333  -26.9230 H   0  0  0  0  0  0  0  0  0  0  0  0
   -9.9114   -1.7825  -25.9228 C   0  0  0  0  0  0  0  0  0  0  0  0
  -10.4117   -2.0052  -27.0212 O   0  0  0  0  0  0  0  0  0  0  0  0
  -10.7546   -1.4349  -24.7530 C   0  0  0  0  0  0  0  0  0  0  0  0
  -12.1193   -1.2711  -24.9798 C   0  0  0  0  0  0  0  0  0  0  0  0
  -12.9736   -0.9740  -23.9401 C   0  0  0  0  0  0  0  0  0  0  0  0
  -12.4247   -0.8700  -22.6684 C   0  0  0  0  0  0  0  0  0  0  0  0
  -13.2580   -0.6300  -21.6512 F   0  0  0  0  0  0  0  0  0  0  0  0
  -11.0746   -1.0321  -22.4174 C   0  0  0  0  0  0  0  0  0  0  0  0
  -10.2062   -1.3120  -23.4738 C   0  0  0  0  0  0  0  0  0  0  0  0
  -10.6841   -0.9481  -21.4124 H   0  0  0  0  0  0  0  0  0  0  0  0
  -14.0387   -0.8314  -24.0938 H   0  0  0  0  0  0  0  0  0  0  0  0
  -12.4792   -1.3999  -25.9944 H   0  0  0  0  0  0  0  0  0  0  0  0
   -6.9170   -1.6817  -24.4050 H   0  0  0  0  0  0  0  0  0  0  0  0
   -7.8619   -0.1961  -24.5932 H   0  0  0  0  0  0  0  0  0  0  0  0
   -6.3964   -3.0682  -21.9353 H   0  0  0  0  0  0  0  0  0  0  0  0
   -7.5261   -3.4030  -20.6135 H   0  0  0  0  0  0  0  0  0  0  0  0
   -9.4288   -3.1912  -21.9467 H   0  0  0  0  0  0  0  0  0  0  0  0
   -7.3336   -3.9780  -24.0341 H   0  0  0  0  0  0  0  0  0  0  0  0
   -8.2133   -5.0858  -22.9558 H   0  0  0  0  0  0  0  0  0  0  0  0
   -9.0910   -4.1952  -24.2229 H   0  0  0  0  0  0  0  0  0  0  0  0
  1  2  1  0
  2  3  1  0
  3  4  1  0
  4  5  1  0
  5  6  2  0
  6  7  1  0
  7  8  2  0
  8  9  1  0
  9 10  2  0
 10 11  1  0
 11 12  2  0
 12 13  1  0
 13 14  2  0
 13 15  1  0
 12 16  1  0
 11 17  1  0
 10 18  1  0
  8 19  1  0
  6 20  1  0
  4 21  1  0
 21 22  2  0
 21 23  1  0
 23 24  1  6
 24 25  1  0
 25 26  1  0
 26 27  1  0
 27 28  2  0
 28 29  1  0
 29 30  2  0
 30 31  1  0
 31 32  1  0
 32 33  1  0
 32 34  1  0
 32 35  1  0
 30 36  1  0
 29 37  1  0
 26 38  1  0
 26 39  1  0
 25 40  1  0
 40 41  2  0
 40 42  1  0
 42 43  2  0
 43 44  1  0
 44 45  2  0
 45 46  1  0
 45 47  1  0
 47 48  2  0
 47 49  1  0
 44 50  1  0
 43 51  1  0
 24 52  1  0
 24 53  1  0
  3 54  1  0
  3 55  1  0
  2 56  1  1
  1 57  1  0
  1 58  1  0
  1 59  1  0
 23  2  1  0
 31 27  1  0
 48 42  1  0
 14  5  1  0
 48 23  1  0
 14  9  1  0
M  END
>  <cnnaffinities>  (5) 
[5.90077]

>  <score>  (5) 
5.90077

>  <index>  (5) 
4

>  <Smiles>  (5) 
C([C@]1(C(N(c2c(nc(c3c(c(c(c(c23)[H])[H])[H])[H])[H])[H])C(=O)[C@]21C(N(C(c1nc(c(n1C([H])([H])[H])[H])[H])([H])[H])C(=O)c1c(c(c(F)c(c21)[H])[H])[H])([H])[H])([H])[H])[H])([H])([H])[H]

>  <h>  (5) 
<NA>

>  <Training>  (5) 
True

>  <Success>  (5) 
True

>  <enamine_searched>  (5) 
False

>  <enamine_id>  (5) 
nan

$$$$

     RDKit          3D

 58 61  0  0  0  0  0  0  0  0999 V2000
   -5.7479   -4.0740  -20.3254 C   0  0  0  0  0  0  0  0  0  0  0  0
   -6.2585   -3.3141  -21.2894 C   0  0  0  0  0  0  0  0  0  0  0  0
   -7.6587   -2.7922  -21.3220 C   0  0  0  0  0  0  0  0  0  0  0  0
   -7.5904   -1.3459  -21.1012 N   0  0  0  0  0  0  0  0  0  0  0  0
   -8.3904   -0.3970  -21.7576 C   0  0  0  0  0  0  0  0  0  0  0  0
   -8.7941    0.5756  -21.1579 O   0  0  0  0  0  0  0  0  0  0  0  0
   -8.6477   -0.5984  -23.2425 C   0  0  2  0  0  0  0  0  0  0  0  0
   -8.4713    0.7492  -23.9606 C   0  0  0  0  0  0  0  0  0  0  0  0
   -8.7155    0.5770  -25.3820 N   0  0  0  0  0  0  0  0  0  0  0  0
   -7.8006    1.1280  -26.3673 C   0  0  0  0  0  0  0  0  0  0  0  0
   -6.8022    0.1001  -26.9276 C   0  0  0  0  0  0  0  0  0  0  0  0
   -6.8963   -0.3625  -28.0506 O   0  0  0  0  0  0  0  0  0  0  0  0
   -5.7775   -0.2288  -26.0864 N   0  0  0  0  0  0  0  0  0  0  0  0
   -4.8330   -1.2672  -26.4633 C   0  0  0  0  0  0  0  0  0  0  0  0
   -5.3396   -2.2254  -26.6302 H   0  0  0  0  0  0  0  0  0  0  0  0
   -4.3020   -0.9931  -27.3802 H   0  0  0  0  0  0  0  0  0  0  0  0
   -4.1047   -1.3935  -25.6584 H   0  0  0  0  0  0  0  0  0  0  0  0
   -5.7652    0.0803  -25.1231 H   0  0  0  0  0  0  0  0  0  0  0  0
   -8.3955    1.4949  -27.2025 H   0  0  0  0  0  0  0  0  0  0  0  0
   -7.2631    1.9697  -25.9125 H   0  0  0  0  0  0  0  0  0  0  0  0
   -9.8402   -0.0675  -25.8389 C   0  0  0  0  0  0  0  0  0  0  0  0
  -10.2301    0.0318  -26.9965 O   0  0  0  0  0  0  0  0  0  0  0  0
  -10.5553   -0.9184  -24.8401 C   0  0  0  0  0  0  0  0  0  0  0  0
  -11.7672   -1.4901  -25.2265 C   0  0  0  0  0  0  0  0  0  0  0  0
  -12.4628   -2.3062  -24.3509 C   0  0  0  0  0  0  0  0  0  0  0  0
  -11.9212   -2.5428  -23.0901 C   0  0  0  0  0  0  0  0  0  0  0  0
  -12.7714   -3.5737  -21.9800 Cl  0  0  0  0  0  0  0  0  0  0  0  0
  -10.7142   -1.9832  -22.6977 C   0  0  0  0  0  0  0  0  0  0  0  0
  -10.0121   -1.1636  -23.5767 C   0  0  0  0  0  0  0  0  0  0  0  0
  -10.3204   -2.1934  -21.7110 H   0  0  0  0  0  0  0  0  0  0  0  0
  -13.4049   -2.7609  -24.6352 H   0  0  0  0  0  0  0  0  0  0  0  0
  -12.1345   -1.2830  -26.2284 H   0  0  0  0  0  0  0  0  0  0  0  0
   -9.1517    1.4908  -23.5216 H   0  0  0  0  0  0  0  0  0  0  0  0
   -7.4493    1.1206  -23.8248 H   0  0  0  0  0  0  0  0  0  0  0  0
   -7.8726   -1.2758  -23.6194 H   0  0  0  0  0  0  0  0  0  0  0  0
   -6.7474   -0.8384  -20.0881 C   0  0  0  0  0  0  0  0  0  0  0  0
   -6.9473   -1.1727  -18.7714 C   0  0  0  0  0  0  0  0  0  0  0  0
   -6.2028   -0.7075  -17.7414 N   0  0  0  0  0  0  0  0  0  0  0  0
   -5.2474    0.1453  -18.0272 C   0  0  0  0  0  0  0  0  0  0  0  0
   -4.9451    0.5867  -19.3485 C   0  0  0  0  0  0  0  0  0  0  0  0
   -3.9572    1.5780  -19.5908 C   0  0  0  0  0  0  0  0  0  0  0  0
   -3.7146    2.0108  -20.8642 C   0  0  0  0  0  0  0  0  0  0  0  0
   -4.3966    1.4266  -21.9580 C   0  0  0  0  0  0  0  0  0  0  0  0
   -5.2925    0.3967  -21.7589 C   0  0  0  0  0  0  0  0  0  0  0  0
   -5.6691    0.0414  -20.4264 C   0  0  0  0  0  0  0  0  0  0  0  0
   -5.6591   -0.2022  -22.6000 H   0  0  0  0  0  0  0  0  0  0  0  0
   -4.1709    1.7809  -22.9616 H   0  0  0  0  0  0  0  0  0  0  0  0
   -2.9770    2.7904  -21.0439 H   0  0  0  0  0  0  0  0  0  0  0  0
   -3.4253    1.9939  -18.7370 H   0  0  0  0  0  0  0  0  0  0  0  0
   -4.6463    0.5299  -17.2024 H   0  0  0  0  0  0  0  0  0  0  0  0
   -7.7657   -1.8346  -18.4974 H   0  0  0  0  0  0  0  0  0  0  0  0
   -8.2589   -3.2887  -20.5414 H   0  0  0  0  0  0  0  0  0  0  0  0
   -8.1300   -2.9742  -22.2922 H   0  0  0  0  0  0  0  0  0  0  0  0
   -5.3348   -2.6655  -22.3232 C   0  0  0  0  0  0  0  0  0  0  0  0
   -4.1202   -2.8119  -22.0797 O   0  0  0  0  0  0  0  0  0  0  0  0
   -5.8318   -2.1141  -23.3372 O   0  0  0  0  0  1  0  0  0  0  0  0
   -6.3760   -4.4768  -19.5301 H   0  0  0  0  0  0  0  0  0  0  0  0
   -4.6891   -4.2879  -20.2850 H   0  0  0  0  0  0  0  0  0  0  0  0
  1  2  2  0
  2  3  1  0
  3  4  1  0
  4  5  1  0
  5  6  2  0
  5  7  1  0
  7  8  1  0
  8  9  1  0
  9 10  1  0
 10 11  1  0
 11 12  2  0
 11 13  1  0
 13 14  1  0
 14 15  1  0
 14 16  1  0
 14 17  1  0
 13 18  1  0
 10 19  1  0
 10 20  1  0
  9 21  1  0
 21 22  2  0
 21 23  1  0
 23 24  2  0
 24 25  1  0
 25 26  2  0
 26 27  1  0
 26 28  1  0
 28 29  2  0
 28 30  1  0
 25 31  1  0
 24 32  1  0
  8 33  1  0
  8 34  1  0
  7 35  1  6
  4 36  1  0
 36 37  2  0
 37 38  1  0
 38 39  2  0
 39 40  1  0
 40 41  2  0
 41 42  1  0
 42 43  2  0
 43 44  1  0
 44 45  2  0
 44 46  1  0
 43 47  1  0
 42 48  1  0
 41 49  1  0
 39 50  1  0
 37 51  1  0
  3 52  1  0
  3 53  1  0
  2 54  1  0
 54 55  2  0
 54 56  1  0
  1 57  1  0
  1 58  1  0
 29  7  1  0
 45 36  1  0
 29 23  1  0
 45 40  1  0
M  CHG  1  56  -1
M  END
>  <cnnaffinities>  (6) 
[6.00247, 5.81335]

>  <score>  (6) 
6.00247

>  <index>  (6) 
5

>  <Smiles>  (6) 
C(=C(C(N(C(=O)[C@@]1(C(N(C(C(=O)N(C([H])([H])[H])[H])([H])[H])C(=O)c2c(c(c(Cl)c(c12)[H])[H])[H])([H])[H])[H])c1c(nc(c2c(c(c(c(c12)[H])[H])[H])[H])[H])[H])([H])[H])C(=O)[O-])([H])[H]

>  <h>  (6) 
<NA>

>  <Training>  (6) 
True

>  <Success>  (6) 
True

>  <enamine_searched>  (6) 
False

>  <enamine_id>  (6) 
nan

$$$$

     RDKit          3D

 43 45  0  0  0  0  0  0  0  0999 V2000
  -14.4806   -2.7017  -22.6901 C   0  0  0  0  0  0  0  0  0  0  0  0
  -13.0358   -3.0859  -23.0116 C   0  0  0  0  0  0  0  0  0  0  0  0
  -12.1866   -1.9588  -23.6233 C   0  0  0  0  0  0  0  0  0  0  0  0
  -12.0490   -0.7799  -22.6453 C   0  0  0  0  0  0  0  0  0  0  0  0
  -10.7207   -0.0470  -22.7466 C   0  0  0  0  0  0  0  0  0  0  0  0
   -9.6266   -0.9566  -22.4349 N   0  0  0  0  0  0  0  0  0  0  0  0
   -8.5611   -0.4270  -21.7586 C   0  0  0  0  0  0  0  0  0  0  0  0
   -8.4686    0.7674  -21.5330 O   0  0  0  0  0  0  0  0  0  0  0  0
   -7.4938   -1.4041  -21.2575 C   0  0  0  0  0  0  0  0  0  0  0  0
   -6.6454   -0.7999  -20.1698 C   0  0  0  0  0  0  0  0  0  0  0  0
   -6.9178   -1.0630  -18.8529 C   0  0  0  0  0  0  0  0  0  0  0  0
   -6.2148   -0.5928  -17.7866 N   0  0  0  0  0  0  0  0  0  0  0  0
   -5.2107    0.2103  -18.0516 C   0  0  0  0  0  0  0  0  0  0  0  0
   -4.8247    0.5894  -19.3668 C   0  0  0  0  0  0  0  0  0  0  0  0
   -3.6926    1.4140  -19.6070 C   0  0  0  0  0  0  0  0  0  0  0  0
   -3.4087    1.8555  -20.8701 C   0  0  0  0  0  0  0  0  0  0  0  0
   -4.2174    1.4500  -21.9556 C   0  0  0  0  0  0  0  0  0  0  0  0
   -5.2205    0.5264  -21.7717 C   0  0  0  0  0  0  0  0  0  0  0  0
   -5.5673    0.0898  -20.4612 C   0  0  0  0  0  0  0  0  0  0  0  0
   -5.7737    0.1462  -22.6237 H   0  0  0  0  0  0  0  0  0  0  0  0
   -4.0391    1.8703  -22.9475 H   0  0  0  0  0  0  0  0  0  0  0  0
   -2.5637    2.5221  -21.0453 H   0  0  0  0  0  0  0  0  0  0  0  0
   -3.0894    1.7100  -18.7523 H   0  0  0  0  0  0  0  0  0  0  0  0
   -4.6304    0.5879  -17.2048 H   0  0  0  0  0  0  0  0  0  0  0  0
   -7.7552   -1.7090  -18.5827 H   0  0  0  0  0  0  0  0  0  0  0  0
   -6.8847   -1.7375  -22.1107 H   0  0  0  0  0  0  0  0  0  0  0  0
   -8.0068   -2.2950  -20.8747 H   0  0  0  0  0  0  0  0  0  0  0  0
   -9.7519   -2.3431  -22.8813 C   0  0  0  0  0  0  0  0  0  0  0  0
  -10.7796   -2.4481  -24.0106 C   0  0  0  0  0  0  0  0  0  0  0  0
  -10.4104   -1.8375  -24.8395 H   0  0  0  0  0  0  0  0  0  0  0  0
  -10.8251   -3.4804  -24.3751 H   0  0  0  0  0  0  0  0  0  0  0  0
   -8.7819   -2.6860  -23.2566 H   0  0  0  0  0  0  0  0  0  0  0  0
  -10.0232   -3.0058  -22.0469 H   0  0  0  0  0  0  0  0  0  0  0  0
  -10.5715    0.3797  -23.7439 H   0  0  0  0  0  0  0  0  0  0  0  0
  -10.6439    0.7799  -22.0406 H   0  0  0  0  0  0  0  0  0  0  0  0
  -12.8836   -0.0723  -22.7013 H   0  0  0  0  0  0  0  0  0  0  0  0
  -12.0783   -1.2251  -21.6535 H   0  0  0  0  0  0  0  0  0  0  0  0
  -12.6910   -1.6355  -24.5437 H   0  0  0  0  0  0  0  0  0  0  0  0
  -12.5377   -3.4368  -22.0977 H   0  0  0  0  0  0  0  0  0  0  0  0
  -13.0405   -3.9390  -23.7011 H   0  0  0  0  0  0  0  0  0  0  0  0
  -15.0408   -3.5668  -22.3213 H   0  0  0  0  0  0  0  0  0  0  0  0
  -14.5430   -1.9253  -21.9196 H   0  0  0  0  0  0  0  0  0  0  0  0
  -15.0002   -2.3257  -23.5790 H   0  0  0  0  0  0  0  0  0  0  0  0
  1  2  1  0
  2  3  1  0
  3  4  1  0
  4  5  1  0
  5  6  1  0
  6  7  1  0
  7  8  2  0
  7  9  1  0
  9 10  1  0
 10 11  2  0
 11 12  1  0
 12 13  2  0
 13 14  1  0
 14 15  2  0
 15 16  1  0
 16 17  2  0
 17 18  1  0
 18 19  2  0
 18 20  1  0
 17 21  1  0
 16 22  1  0
 15 23  1  0
 13 24  1  0
 11 25  1  0
  9 26  1  0
  9 27  1  0
  6 28  1  0
 28 29  1  0
 29 30  1  0
 29 31  1  0
 28 32  1  0
 28 33  1  0
  5 34  1  0
  5 35  1  0
  4 36  1  0
  4 37  1  0
  3 38  1  0
  2 39  1  0
  2 40  1  0
  1 41  1  0
  1 42  1  0
  1 43  1  0
 29  3  1  0
 19 10  1  0
 19 14  1  0
M  END
>  <cnnaffinities>  (7) 
[4.46387, 4.55358, 4.56032, 4.56019, 4.72137, 4.72139, 4.57651]

>  <score>  (7) 
4.46387

>  <index>  (7) 
6

>  <Smiles>  (7) 
C(C(C1(C(C(N(C(=O)C(c2c(nc(c3c(c(c(c(c23)[H])[H])[H])[H])[H])[H])([H])[H])C(C1([H])[H])([H])[H])([H])[H])([H])[H])[H])([H])[H])([H])([H])[H]

>  <h>  (7) 
<NA>

>  <Training>  (7) 
True

>  <Success>  (7) 
True

>  <enamine_searched>  (7) 
False

>  <enamine_id>  (7) 
nan

$$$$

     RDKit          3D

 44 47  0  0  0  0  0  0  0  0999 V2000
  -13.9815   -0.8745  -23.5802 C   0  0  0  0  0  0  0  0  0  0  0  0
  -13.4125   -1.1029  -24.9713 C   0  0  0  0  0  0  0  0  0  0  0  0
  -11.8762   -2.0338  -24.9963 S   0  0  0  0  0  0  0  0  0  0  0  0
  -12.0949   -3.2761  -24.2629 O   0  0  0  0  0  0  0  0  0  0  0  0
  -11.4090   -2.0863  -26.3673 O   0  0  0  0  0  0  0  0  0  0  0  0
  -10.7922   -1.0248  -24.1672 N   0  0  0  0  0  0  0  0  0  0  0  0
   -9.3433   -1.3863  -24.2733 C   0  0  0  0  0  0  0  0  0  0  0  0
   -9.2424   -1.4889  -22.7366 C   0  0  0  0  0  0  0  0  0  0  0  0
  -10.7271   -1.0648  -22.6860 C   0  0  0  0  0  0  0  0  0  0  0  0
  -11.3915   -1.7810  -22.1987 H   0  0  0  0  0  0  0  0  0  0  0  0
  -10.8497   -0.0588  -22.2788 H   0  0  0  0  0  0  0  0  0  0  0  0
   -8.2938   -0.5263  -22.0537 C   0  0  0  0  0  0  0  0  0  0  0  0
   -8.2276    0.6696  -22.2150 O   0  0  0  0  0  0  0  0  0  0  0  0
   -7.5181   -1.2871  -21.1789 N   0  0  0  0  0  0  0  0  0  0  0  0
   -6.6731   -0.7737  -20.1659 C   0  0  0  0  0  0  0  0  0  0  0  0
   -6.9226   -1.0996  -18.8551 C   0  0  0  0  0  0  0  0  0  0  0  0
   -6.2210   -0.6185  -17.8034 N   0  0  0  0  0  0  0  0  0  0  0  0
   -5.2136    0.1736  -18.0775 C   0  0  0  0  0  0  0  0  0  0  0  0
   -4.8223    0.5443  -19.3937 C   0  0  0  0  0  0  0  0  0  0  0  0
   -3.7153    1.3984  -19.6153 C   0  0  0  0  0  0  0  0  0  0  0  0
   -3.4336    1.8483  -20.8723 C   0  0  0  0  0  0  0  0  0  0  0  0
   -4.2190    1.4289  -21.9695 C   0  0  0  0  0  0  0  0  0  0  0  0
   -5.2173    0.5048  -21.8000 C   0  0  0  0  0  0  0  0  0  0  0  0
   -5.5815    0.0838  -20.4883 C   0  0  0  0  0  0  0  0  0  0  0  0
   -5.7326    0.1148  -22.6731 H   0  0  0  0  0  0  0  0  0  0  0  0
   -4.0115    1.8282  -22.9579 H   0  0  0  0  0  0  0  0  0  0  0  0
   -2.6167    2.5435  -21.0328 H   0  0  0  0  0  0  0  0  0  0  0  0
   -3.1280    1.6989  -18.7539 H   0  0  0  0  0  0  0  0  0  0  0  0
   -4.6517    0.5736  -17.2340 H   0  0  0  0  0  0  0  0  0  0  0  0
   -7.7412   -1.7727  -18.6132 H   0  0  0  0  0  0  0  0  0  0  0  0
   -7.8800   -2.6420  -21.2232 C   0  0  0  0  0  0  0  0  0  0  0  0
   -7.3965   -3.5208  -20.5412 O   0  0  0  0  0  0  0  0  0  0  0  0
   -8.8536   -2.7598  -22.1741 N   0  0  0  0  0  0  0  0  0  0  0  0
   -9.5222   -4.0147  -22.4315 C   0  0  0  0  0  0  0  0  0  0  0  0
   -9.6569   -4.1703  -23.5043 H   0  0  0  0  0  0  0  0  0  0  0  0
  -10.4969   -4.0722  -21.9260 H   0  0  0  0  0  0  0  0  0  0  0  0
   -8.8639   -4.7976  -22.0537 H   0  0  0  0  0  0  0  0  0  0  0  0
   -8.7706   -0.5654  -24.7090 H   0  0  0  0  0  0  0  0  0  0  0  0
   -9.1468   -2.3244  -24.7980 H   0  0  0  0  0  0  0  0  0  0  0  0
  -14.0871   -1.7214  -25.5727 H   0  0  0  0  0  0  0  0  0  0  0  0
  -13.2219   -0.1705  -25.5093 H   0  0  0  0  0  0  0  0  0  0  0  0
  -14.0582   -1.8224  -23.0434 H   0  0  0  0  0  0  0  0  0  0  0  0
  -13.3724   -0.1779  -22.9944 H   0  0  0  0  0  0  0  0  0  0  0  0
  -14.9829   -0.4447  -23.6652 H   0  0  0  0  0  0  0  0  0  0  0  0
  1  2  1  0
  2  3  1  0
  3  4  2  0
  3  5  2  0
  3  6  1  0
  6  7  1  0
  7  8  1  0
  8  9  1  0
  9 10  1  0
  9 11  1  0
  8 12  1  0
 12 13  2  0
 12 14  1  0
 14 15  1  0
 15 16  2  0
 16 17  1  0
 17 18  2  0
 18 19  1  0
 19 20  2  0
 20 21  1  0
 21 22  2  0
 22 23  1  0
 23 24  2  0
 23 25  1  0
 22 26  1  0
 21 27  1  0
 20 28  1  0
 18 29  1  0
 16 30  1  0
 14 31  1  0
 31 32  2  0
 31 33  1  0
 33 34  1  0
 34 35  1  0
 34 36  1  0
 34 37  1  0
  7 38  1  0
  7 39  1  0
  2 40  1  0
  2 41  1  0
  1 42  1  0
  1 43  1  0
  1 44  1  0
  9  6  1  0
 24 15  1  0
 33  8  1  0
 24 19  1  0
M  END
>  <cnnaffinities>  (8) 
[4.99151, 4.86577, 4.86587]

>  <score>  (8) 
4.99151

>  <index>  (8) 
7

>  <Smiles>  (8) 
C(C(S(=O)(=O)N1C(C2(C1([H])[H])C(=O)N(c1c(nc(c3c(c(c(c(c13)[H])[H])[H])[H])[H])[H])C(=O)N2C([H])([H])[H])([H])[H])([H])[H])([H])([H])[H]

>  <h>  (8) 
<NA>

>  <Training>  (8) 
True

>  <Success>  (8) 
True

>  <enamine_searched>  (8) 
False

>  <enamine_id>  (8) 
nan

$$$$

     RDKit          3D

 60 64  0  0  0  0  0  0  0  0999 V2000
   -7.3952    3.4042  -21.8474 C   0  0  0  0  0  0  0  0  0  0  0  0
   -8.2792    2.9558  -22.9028 N   0  0  0  0  0  0  0  0  0  0  0  0
   -7.7242    2.2232  -23.9046 C   0  0  0  0  0  0  0  0  0  0  0  0
   -6.5155    2.0803  -24.0117 O   0  0  0  0  0  0  0  0  0  0  0  0
   -8.6835    1.6002  -24.9099 C   0  0  0  0  0  0  0  0  0  0  0  0
   -9.3868    0.4585  -24.3718 N   0  0  0  0  0  0  0  0  0  0  0  0
   -8.6623   -0.7875  -24.1968 C   0  0  0  0  0  0  0  0  0  0  0  0
   -9.0501   -1.4999  -22.8846 C   0  0  2  0  0  0  0  0  0  0  0  0
   -8.5087   -0.7247  -21.6642 C   0  0  0  0  0  0  0  0  0  0  0  0
   -8.9454    0.2998  -21.1810 O   0  0  0  0  0  0  0  0  0  0  0  0
   -7.4077   -1.3855  -21.1792 N   0  0  0  0  0  0  0  0  0  0  0  0
   -6.6229   -0.8001  -20.1551 C   0  0  0  0  0  0  0  0  0  0  0  0
   -6.9260   -1.0568  -18.8422 C   0  0  0  0  0  0  0  0  0  0  0  0
   -6.2149   -0.5838  -17.7894 N   0  0  0  0  0  0  0  0  0  0  0  0
   -5.2007    0.2062  -18.0565 C   0  0  0  0  0  0  0  0  0  0  0  0
   -4.7987    0.5801  -19.3739 C   0  0  0  0  0  0  0  0  0  0  0  0
   -3.6682    1.4052  -19.6234 C   0  0  0  0  0  0  0  0  0  0  0  0
   -3.3681    1.8190  -20.8952 C   0  0  0  0  0  0  0  0  0  0  0  0
   -4.1742    1.4049  -21.9829 C   0  0  0  0  0  0  0  0  0  0  0  0
   -5.1691    0.4760  -21.7866 C   0  0  0  0  0  0  0  0  0  0  0  0
   -5.5319    0.0660  -20.4698 C   0  0  0  0  0  0  0  0  0  0  0  0
   -5.7064    0.0724  -22.6410 H   0  0  0  0  0  0  0  0  0  0  0  0
   -3.9842    1.7859  -22.9860 H   0  0  0  0  0  0  0  0  0  0  0  0
   -2.5078    2.4630  -21.0720 H   0  0  0  0  0  0  0  0  0  0  0  0
   -3.0787    1.7292  -18.7703 H   0  0  0  0  0  0  0  0  0  0  0  0
   -4.6217    0.5796  -17.2088 H   0  0  0  0  0  0  0  0  0  0  0  0
   -7.7887   -1.6760  -18.5999 H   0  0  0  0  0  0  0  0  0  0  0  0
   -7.0694   -2.5888  -21.9063 C   0  0  0  0  0  0  0  0  0  0  0  0
   -8.3257   -2.8720  -22.7390 C   0  0  2  0  0  0  0  0  0  0  0  0
   -7.9640   -3.6361  -24.0054 C   0  0  0  0  0  0  0  0  0  0  0  0
   -9.1270   -3.9278  -24.7344 O   0  0  0  0  0  0  0  0  0  0  0  0
   -8.8363   -4.5640  -25.9546 C   0  0  0  0  0  0  0  0  0  0  0  0
   -8.2334   -3.9254  -26.6216 H   0  0  0  0  0  0  0  0  0  0  0  0
   -8.3009   -5.5169  -25.8086 H   0  0  0  0  0  0  0  0  0  0  0  0
   -9.7877   -4.7648  -26.4399 H   0  0  0  0  0  0  0  0  0  0  0  0
   -7.2628   -3.0402  -24.6155 H   0  0  0  0  0  0  0  0  0  0  0  0
   -7.4412   -4.5728  -23.7409 H   0  0  0  0  0  0  0  0  0  0  0  0
   -9.0014   -3.5098  -22.1721 H   0  0  0  0  0  0  0  0  0  0  0  0
   -6.2071   -2.4290  -22.5723 H   0  0  0  0  0  0  0  0  0  0  0  0
   -6.8214   -3.4080  -21.2233 H   0  0  0  0  0  0  0  0  0  0  0  0
  -10.5648   -1.5506  -22.8282 C   0  0  0  0  0  0  0  0  0  0  0  0
  -11.2058   -2.4447  -21.9662 C   0  0  0  0  0  0  0  0  0  0  0  0
  -12.5857   -2.4547  -21.8788 C   0  0  0  0  0  0  0  0  0  0  0  0
  -13.3470   -3.5675  -20.7752 Cl  0  0  0  0  0  0  0  0  0  0  0  0
  -13.3775   -1.5821  -22.6290 C   0  0  0  0  0  0  0  0  0  0  0  0
  -12.7522   -0.6602  -23.4451 C   0  0  0  0  0  0  0  0  0  0  0  0
  -11.3612   -0.6253  -23.5197 C   0  0  0  0  0  0  0  0  0  0  0  0
  -10.7519    0.4978  -24.2940 C   0  0  0  0  0  0  0  0  0  0  0  0
  -11.4249    1.3924  -24.7867 O   0  0  0  0  0  0  0  0  0  0  0  0
  -13.3086    0.0735  -24.0223 H   0  0  0  0  0  0  0  0  0  0  0  0
  -14.4569   -1.6225  -22.5353 H   0  0  0  0  0  0  0  0  0  0  0  0
  -10.6336   -3.1217  -21.3406 H   0  0  0  0  0  0  0  0  0  0  0  0
   -8.8897   -1.4666  -25.0263 H   0  0  0  0  0  0  0  0  0  0  0  0
   -7.5931   -0.5583  -24.2036 H   0  0  0  0  0  0  0  0  0  0  0  0
   -9.4584    2.3106  -25.2045 H   0  0  0  0  0  0  0  0  0  0  0  0
   -8.0712    1.3093  -25.7691 H   0  0  0  0  0  0  0  0  0  0  0  0
   -9.2394    2.7868  -22.6560 H   0  0  0  0  0  0  0  0  0  0  0  0
   -6.6842    4.1291  -22.2377 H   0  0  0  0  0  0  0  0  0  0  0  0
   -6.8195    2.5632  -21.4556 H   0  0  0  0  0  0  0  0  0  0  0  0
   -7.9635    3.8582  -21.0383 H   0  0  0  0  0  0  0  0  0  0  0  0
  1  2  1  0
  2  3  1  0
  3  4  2  0
  3  5  1  0
  5  6  1  0
  6  7  1  0
  8  7  1  6
  8  9  1  0
  9 10  2  0
  9 11  1  0
 11 12  1  0
 12 13  2  0
 13 14  1  0
 14 15  2  0
 15 16  1  0
 16 17  2  0
 17 18  1  0
 18 19  2  0
 19 20  1  0
 20 21  2  0
 20 22  1  0
 19 23  1  0
 18 24  1  0
 17 25  1  0
 15 26  1  0
 13 27  1  0
 11 28  1  0
 28 29  1  0
 29 30  1  0
 30 31  1  0
 31 32  1  0
 32 33  1  0
 32 34  1  0
 32 35  1  0
 30 36  1  0
 30 37  1  0
 29 38  1  1
 28 39  1  0
 28 40  1  0
  8 41  1  0
 41 42  2  0
 42 43  1  0
 43 44  1  0
 43 45  2  0
 45 46  1  0
 46 47  2  0
 47 48  1  0
 48 49  2  0
 46 50  1  0
 45 51  1  0
 42 52  1  0
  7 53  1  0
  7 54  1  0
  5 55  1  0
  5 56  1  0
  2 57  1  0
  1 58  1  0
  1 59  1  0
  1 60  1  0
 48  6  1  0
 29  8  1  0
 47 41  1  0
 21 12  1  0
 21 16  1  0
M  END
>  <cnnaffinities>  (9) 
[5.69606, 5.91731, 5.68845, 5.79336, 5.92835]

>  <score>  (9) 
5.69606

>  <index>  (9) 
8

>  <Smiles>  (9) 
C(N(C(=O)C(N1C([C@@]2(C(=O)N(c3c(nc(c4c(c(c(c(c34)[H])[H])[H])[H])[H])[H])C([C@@]2(C(OC([H])([H])[H])([H])[H])[H])([H])[H])c2c(c(Cl)c(c(c2C1=O)[H])[H])[H])([H])[H])([H])[H])[H])([H])([H])[H]

>  <h>  (9) 
<NA>

>  <Training>  (9) 
True

>  <Success>  (9) 
True

>  <enamine_searched>  (9) 
False

>  <enamine_id>  (9) 
nan

$$$$

     RDKit          3D

 41 43  0  0  0  0  0  0  0  0999 V2000
  -13.1800   -2.9345  -22.8916 C   0  0  0  0  0  0  0  0  0  0  0  0
  -11.9722   -2.0508  -23.2125 C   0  0  1  0  0  0  0  0  0  0  0  0
  -12.1581   -0.6650  -22.6341 C   0  0  0  0  0  0  0  0  0  0  0  0
  -11.3095    0.3417  -22.8167 C   0  0  0  0  0  0  0  0  0  0  0  0
   -9.9999    0.2058  -23.5658 C   0  0  0  0  0  0  0  0  0  0  0  0
   -9.0907   -0.7840  -23.0018 N   0  0  0  0  0  0  0  0  0  0  0  0
   -8.3800   -0.3875  -21.8934 C   0  0  0  0  0  0  0  0  0  0  0  0
   -8.4732    0.7417  -21.4346 O   0  0  0  0  0  0  0  0  0  0  0  0
   -7.4335   -1.4150  -21.2755 C   0  0  0  0  0  0  0  0  0  0  0  0
   -6.6047   -0.8190  -20.1748 C   0  0  0  0  0  0  0  0  0  0  0  0
   -6.9037   -1.0551  -18.8570 C   0  0  0  0  0  0  0  0  0  0  0  0
   -6.2126   -0.5748  -17.7895 N   0  0  0  0  0  0  0  0  0  0  0  0
   -5.1928    0.2101  -18.0519 C   0  0  0  0  0  0  0  0  0  0  0  0
   -4.7976    0.5862  -19.3669 C   0  0  0  0  0  0  0  0  0  0  0  0
   -3.6715    1.4181  -19.6031 C   0  0  0  0  0  0  0  0  0  0  0  0
   -3.3640    1.8220  -20.8777 C   0  0  0  0  0  0  0  0  0  0  0  0
   -4.1745    1.4182  -21.9662 C   0  0  0  0  0  0  0  0  0  0  0  0
   -5.1611    0.4790  -21.7739 C   0  0  0  0  0  0  0  0  0  0  0  0
   -5.5299    0.0745  -20.4600 C   0  0  0  0  0  0  0  0  0  0  0  0
   -5.6935    0.0623  -22.6241 H   0  0  0  0  0  0  0  0  0  0  0  0
   -3.9549    1.7821  -22.9698 H   0  0  0  0  0  0  0  0  0  0  0  0
   -2.5033    2.4626  -21.0570 H   0  0  0  0  0  0  0  0  0  0  0  0
   -3.0710    1.7169  -18.7468 H   0  0  0  0  0  0  0  0  0  0  0  0
   -4.6277    0.5971  -17.2034 H   0  0  0  0  0  0  0  0  0  0  0  0
   -7.7549   -1.6834  -18.5948 H   0  0  0  0  0  0  0  0  0  0  0  0
   -6.8135   -1.8748  -22.0601 H   0  0  0  0  0  0  0  0  0  0  0  0
   -8.0650   -2.2159  -20.8748 H   0  0  0  0  0  0  0  0  0  0  0  0
   -9.3793   -2.1642  -23.3636 C   0  0  0  0  0  0  0  0  0  0  0  0
  -10.6652   -2.7241  -22.7418 C   0  0  0  0  0  0  0  0  0  0  0  0
  -10.6096   -2.6627  -21.6453 H   0  0  0  0  0  0  0  0  0  0  0  0
  -10.7251   -3.7859  -23.0047 H   0  0  0  0  0  0  0  0  0  0  0  0
   -8.5174   -2.7929  -23.1219 H   0  0  0  0  0  0  0  0  0  0  0  0
   -9.4724   -2.1935  -24.4583 H   0  0  0  0  0  0  0  0  0  0  0  0
  -10.1786   -0.1084  -24.6035 H   0  0  0  0  0  0  0  0  0  0  0  0
   -9.4702    1.1609  -23.5689 H   0  0  0  0  0  0  0  0  0  0  0  0
  -11.5370    1.3276  -22.4108 H   0  0  0  0  0  0  0  0  0  0  0  0
  -13.0640   -0.4899  -22.0486 H   0  0  0  0  0  0  0  0  0  0  0  0
  -11.9005   -1.9520  -24.3098 H   0  0  0  0  0  0  0  0  0  0  0  0
  -13.0978   -3.9175  -23.3662 H   0  0  0  0  0  0  0  0  0  0  0  0
  -13.2649   -3.0948  -21.8111 H   0  0  0  0  0  0  0  0  0  0  0  0
  -14.1129   -2.4754  -23.2346 H   0  0  0  0  0  0  0  0  0  0  0  0
  1  2  1  0
  2  3  1  0
  3  4  2  0
  4  5  1  0
  5  6  1  0
  6  7  1  0
  7  8  2  0
  7  9  1  0
  9 10  1  0
 10 11  2  0
 11 12  1  0
 12 13  2  0
 13 14  1  0
 14 15  2  0
 15 16  1  0
 16 17  2  0
 17 18  1  0
 18 19  2  0
 18 20  1  0
 17 21  1  0
 16 22  1  0
 15 23  1  0
 13 24  1  0
 11 25  1  0
  9 26  1  0
  9 27  1  0
  6 28  1  0
 28 29  1  0
 29 30  1  0
 29 31  1  0
 28 32  1  0
 28 33  1  0
  5 34  1  0
  5 35  1  0
  4 36  1  0
  3 37  1  0
  2 38  1  6
  1 39  1  0
  1 40  1  0
  1 41  1  0
 29  2  1  0
 19 10  1  0
 19 14  1  0
M  END
>  <cnnaffinities>  (10) 
[4.50817]

>  <score>  (10) 
4.50817

>  <index>  (10) 
9

>  <Smiles>  (10) 
C([C@]1(C(=C(C(N(C(=O)C(c2c(nc(c3c(c(c(c(c23)[H])[H])[H])[H])[H])[H])([H])[H])C(C1([H])[H])([H])[H])([H])[H])[H])[H])[H])([H])([H])[H]

>  <h>  (10) 
<NA>

>  <Training>  (10) 
True

>  <Success>  (10) 
True

>  <enamine_searched>  (10) 
False

>  <enamine_id>  (10) 
nan

$$$$

     RDKit          3D

 57 62  0  0  0  0  0  0  0  0999 V2000
   -8.2927   -4.1366  -23.4869 C   0  0  0  0  0  0  0  0  0  0  0  0
   -8.5201   -2.9877  -22.5211 C   0  0  1  0  0  0  0  0  0  0  0  0
   -7.3891   -2.8003  -21.5018 C   0  0  0  0  0  0  0  0  0  0  0  0
   -7.4462   -1.3813  -21.1939 N   0  0  0  0  0  0  0  0  0  0  0  0
   -6.6618   -0.7852  -20.1792 C   0  0  0  0  0  0  0  0  0  0  0  0
   -6.9156   -1.0953  -18.8672 C   0  0  0  0  0  0  0  0  0  0  0  0
   -6.2264   -0.6072  -17.8093 N   0  0  0  0  0  0  0  0  0  0  0  0
   -5.2144    0.1854  -18.0719 C   0  0  0  0  0  0  0  0  0  0  0  0
   -4.8308    0.5764  -19.3852 C   0  0  0  0  0  0  0  0  0  0  0  0
   -3.7227    1.4385  -19.6021 C   0  0  0  0  0  0  0  0  0  0  0  0
   -3.4411    1.8984  -20.8557 C   0  0  0  0  0  0  0  0  0  0  0  0
   -4.2278    1.4861  -21.9541 C   0  0  0  0  0  0  0  0  0  0  0  0
   -5.2277    0.5636  -21.7904 C   0  0  0  0  0  0  0  0  0  0  0  0
   -5.5867    0.1109  -20.4850 C   0  0  0  0  0  0  0  0  0  0  0  0
   -5.7763    0.2209  -22.6624 H   0  0  0  0  0  0  0  0  0  0  0  0
   -4.0248    1.9015  -22.9353 H   0  0  0  0  0  0  0  0  0  0  0  0
   -2.6470    2.6230  -21.0079 H   0  0  0  0  0  0  0  0  0  0  0  0
   -3.1209    1.7300  -18.7440 H   0  0  0  0  0  0  0  0  0  0  0  0
   -4.6436    0.5655  -17.2241 H   0  0  0  0  0  0  0  0  0  0  0  0
   -7.7435   -1.7609  -18.6311 H   0  0  0  0  0  0  0  0  0  0  0  0
   -8.1738   -0.6420  -22.1018 C   0  0  0  0  0  0  0  0  0  0  0  0
   -8.3003    0.5651  -22.0633 O   0  0  0  0  0  0  0  0  0  0  0  0
   -8.7375   -1.5784  -23.1817 C   0  0  1  0  0  0  0  0  0  0  0  0
   -7.9239   -1.2837  -24.4723 C   0  0  0  0  0  0  0  0  0  0  0  0
   -8.5387   -1.8093  -25.6869 N   0  0  0  0  0  0  0  0  0  0  0  0
   -7.6974   -2.1796  -26.8174 C   0  0  0  0  0  0  0  0  0  0  0  0
   -7.3972   -3.6430  -26.8496 C   0  0  0  0  0  0  0  0  0  0  0  0
   -6.2466   -4.3130  -26.6019 C   0  0  0  0  0  0  0  0  0  0  0  0
   -6.5087   -5.6561  -26.7855 N   0  0  0  0  0  4  0  0  0  0  0  0
   -7.7930   -5.7889  -27.1475 C   0  0  0  0  0  0  0  0  0  0  0  0
   -8.3650   -4.5762  -27.1843 N   0  0  0  0  0  0  0  0  0  0  0  0
   -9.3273   -4.3354  -27.4351 H   0  0  0  0  0  0  0  0  0  0  0  0
   -8.2741   -6.7193  -27.3818 H   0  0  0  0  0  0  0  0  0  0  0  0
   -5.8295   -6.4029  -26.6819 H   0  0  0  0  0  0  0  0  0  0  0  0
   -5.2721   -3.9436  -26.3023 H   0  0  0  0  0  0  0  0  0  0  0  0
   -6.7785   -1.5860  -26.7936 H   0  0  0  0  0  0  0  0  0  0  0  0
   -8.2455   -1.9107  -27.7273 H   0  0  0  0  0  0  0  0  0  0  0  0
   -9.8859   -1.9015  -25.8807 C   0  0  0  0  0  0  0  0  0  0  0  0
  -10.3607   -2.3424  -26.9248 O   0  0  0  0  0  0  0  0  0  0  0  0
  -10.7428   -1.4662  -24.7493 C   0  0  0  0  0  0  0  0  0  0  0  0
  -12.1051   -1.2832  -24.9883 C   0  0  0  0  0  0  0  0  0  0  0  0
  -12.9645   -0.9549  -23.9603 C   0  0  0  0  0  0  0  0  0  0  0  0
  -12.4214   -0.8453  -22.6858 C   0  0  0  0  0  0  0  0  0  0  0  0
  -13.2557   -0.5965  -21.6718 F   0  0  0  0  0  0  0  0  0  0  0  0
  -11.0740   -1.0135  -22.4242 C   0  0  0  0  0  0  0  0  0  0  0  0
  -10.2019   -1.3105  -23.4709 C   0  0  0  0  0  0  0  0  0  0  0  0
  -10.6886   -0.9294  -21.4166 H   0  0  0  0  0  0  0  0  0  0  0  0
  -14.0285   -0.8037  -24.1233 H   0  0  0  0  0  0  0  0  0  0  0  0
  -12.4700   -1.4172  -25.9999 H   0  0  0  0  0  0  0  0  0  0  0  0
   -7.8280   -0.1921  -24.5622 H   0  0  0  0  0  0  0  0  0  0  0  0
   -6.9043   -1.6834  -24.3732 H   0  0  0  0  0  0  0  0  0  0  0  0
   -7.5514   -3.3965  -20.5983 H   0  0  0  0  0  0  0  0  0  0  0  0
   -6.4048   -3.0790  -21.9088 H   0  0  0  0  0  0  0  0  0  0  0  0
   -9.4343   -3.1891  -21.9407 H   0  0  0  0  0  0  0  0  0  0  0  0
   -8.2172   -5.0824  -22.9428 H   0  0  0  0  0  0  0  0  0  0  0  0
   -7.3656   -3.9843  -24.0505 H   0  0  0  0  0  0  0  0  0  0  0  0
   -9.1257   -4.2006  -24.1929 H   0  0  0  0  0  0  0  0  0  0  0  0
  1  2  1  0
  2  3  1  0
  3  4  1  0
  4  5  1  0
  5  6  2  0
  6  7  1  0
  7  8  2  0
  8  9  1  0
  9 10  2  0
 10 11  1  0
 11 12  2  0
 12 13  1  0
 13 14  2  0
 13 15  1  0
 12 16  1  0
 11 17  1  0
 10 18  1  0
  8 19  1  0
  6 20  1  0
  4 21  1  0
 21 22  2  0
 21 23  1  0
 23 24  1  6
 24 25  1  0
 25 26  1  0
 26 27  1  0
 27 28  2  0
 28 29  1  0
 29 30  2  0
 30 31  1  0
 31 32  1  0
 30 33  1  0
 29 34  1  0
 28 35  1  0
 26 36  1  0
 26 37  1  0
 25 38  1  0
 38 39  2  0
 38 40  1  0
 40 41  2  0
 41 42  1  0
 42 43  2  0
 43 44  1  0
 43 45  1  0
 45 46  2  0
 45 47  1  0
 42 48  1  0
 41 49  1  0
 24 50  1  0
 24 51  1  0
  3 52  1  0
  3 53  1  0
  2 54  1  1
  1 55  1  0
  1 56  1  0
  1 57  1  0
 23  2  1  0
 31 27  1  0
 46 40  1  0
 14  5  1  0
 46 23  1  0
 14  9  1  0
M  CHG  1  29   1
M  END
>  <cnnaffinities>  (11) 
[5.85644]

>  <score>  (11) 
5.85644

>  <index>  (11) 
10

>  <Smiles>  (11) 
C([C@]1(C(N(c2c(nc(c3c(c(c(c(c23)[H])[H])[H])[H])[H])[H])C(=O)[C@]21C(N(C(c1c([n+](c(n1[H])[H])[H])[H])([H])[H])C(=O)c1c(c(c(F)c(c21)[H])[H])[H])([H])[H])([H])[H])[H])([H])([H])[H]

>  <h>  (11) 
<NA>

>  <Training>  (11) 
True

>  <Success>  (11) 
True

>  <enamine_searched>  (11) 
False

>  <enamine_id>  (11) 
nan

$$$$

     RDKit          3D

 48 52  0  0  0  0  0  0  0  0999 V2000
   -9.3995   -4.0296  -22.4667 C   0  0  0  0  0  0  0  0  0  0  0  0
   -8.7959   -2.7598  -22.1414 N   0  0  0  0  0  0  0  0  0  0  0  0
   -7.8384   -2.6414  -21.1788 C   0  0  0  0  0  0  0  0  0  0  0  0
   -7.3584   -3.5201  -20.4936 O   0  0  0  0  0  0  0  0  0  0  0  0
   -7.4936   -1.2814  -21.1249 N   0  0  0  0  0  0  0  0  0  0  0  0
   -6.6468   -0.7640  -20.1249 C   0  0  0  0  0  0  0  0  0  0  0  0
   -6.8921   -1.0997  -18.8186 C   0  0  0  0  0  0  0  0  0  0  0  0
   -6.1870   -0.6227  -17.7715 N   0  0  0  0  0  0  0  0  0  0  0  0
   -5.1867    0.1805  -18.0416 C   0  0  0  0  0  0  0  0  0  0  0  0
   -4.8099    0.5742  -19.3566 C   0  0  0  0  0  0  0  0  0  0  0  0
   -3.7270    1.4633  -19.5854 C   0  0  0  0  0  0  0  0  0  0  0  0
   -3.4763    1.9371  -20.8426 C   0  0  0  0  0  0  0  0  0  0  0  0
   -4.2509    1.4935  -21.9402 C   0  0  0  0  0  0  0  0  0  0  0  0
   -5.2564    0.5783  -21.7565 C   0  0  0  0  0  0  0  0  0  0  0  0
   -5.5770    0.1180  -20.4461 C   0  0  0  0  0  0  0  0  0  0  0  0
   -5.8197    0.2172  -22.6111 H   0  0  0  0  0  0  0  0  0  0  0  0
   -4.0264    1.8428  -22.9455 H   0  0  0  0  0  0  0  0  0  0  0  0
   -2.6742    2.6515  -21.0148 H   0  0  0  0  0  0  0  0  0  0  0  0
   -3.1304    1.7713  -18.7314 H   0  0  0  0  0  0  0  0  0  0  0  0
   -4.6212    0.5666  -17.1948 H   0  0  0  0  0  0  0  0  0  0  0  0
   -7.6972   -1.7902  -18.5843 H   0  0  0  0  0  0  0  0  0  0  0  0
   -8.2705   -0.5178  -21.9903 C   0  0  0  0  0  0  0  0  0  0  0  0
   -8.2284    0.6827  -22.1335 O   0  0  0  0  0  0  0  0  0  0  0  0
   -9.1674   -1.4914  -22.7068 C   0  0  0  0  0  0  0  0  0  0  0  0
  -10.6489   -1.0812  -22.7258 C   0  0  0  0  0  0  0  0  0  0  0  0
  -10.5938   -1.0046  -24.2129 N   0  0  0  0  0  0  0  0  0  0  0  0
  -11.6580   -2.0012  -25.0495 S   0  0  0  0  0  0  0  0  0  0  0  0
  -11.4870   -3.3629  -24.5685 O   0  0  0  0  0  0  0  0  0  0  0  0
  -12.9596   -1.3602  -25.0106 O   0  0  0  0  0  0  0  0  0  0  0  0
  -11.0076   -1.8885  -26.7001 C   0  0  0  0  0  0  0  0  0  0  0  0
  -10.0566   -2.7761  -27.1990 C   0  0  0  0  0  0  0  0  0  0  0  0
   -9.7667   -2.7589  -28.5614 C   0  0  0  0  0  0  0  0  0  0  0  0
  -10.4254   -1.8581  -29.3986 C   0  0  0  0  0  0  0  0  0  0  0  0
  -11.3040   -0.9210  -28.8636 C   0  0  0  0  0  0  0  0  0  0  0  0
  -11.5275   -0.8821  -27.4937 C   0  0  0  0  0  0  0  0  0  0  0  0
  -12.1090   -0.1114  -27.0034 H   0  0  0  0  0  0  0  0  0  0  0  0
  -11.7992   -0.2211  -29.5228 H   0  0  0  0  0  0  0  0  0  0  0  0
  -10.2862   -1.8993  -30.4747 H   0  0  0  0  0  0  0  0  0  0  0  0
   -9.0409   -3.4656  -28.9570 H   0  0  0  0  0  0  0  0  0  0  0  0
   -9.5353   -3.4687  -26.5456 H   0  0  0  0  0  0  0  0  0  0  0  0
   -9.1629   -1.3732  -24.2329 C   0  0  0  0  0  0  0  0  0  0  0  0
   -8.9050   -2.3053  -24.7414 H   0  0  0  0  0  0  0  0  0  0  0  0
   -8.5447   -0.5572  -24.6055 H   0  0  0  0  0  0  0  0  0  0  0  0
  -11.3396   -1.8169  -22.3080 H   0  0  0  0  0  0  0  0  0  0  0  0
  -10.8080   -0.0963  -22.2831 H   0  0  0  0  0  0  0  0  0  0  0  0
  -10.4217   -4.0941  -22.0834 H   0  0  0  0  0  0  0  0  0  0  0  0
   -9.4375   -4.1989  -23.5442 H   0  0  0  0  0  0  0  0  0  0  0  0
   -8.7732   -4.7815  -21.9905 H   0  0  0  0  0  0  0  0  0  0  0  0
  1  2  1  0
  2  3  1  0
  3  4  2  0
  3  5  1  0
  5  6  1  0
  6  7  2  0
  7  8  1  0
  8  9  2  0
  9 10  1  0
 10 11  2  0
 11 12  1  0
 12 13  2  0
 13 14  1  0
 14 15  2  0
 14 16  1  0
 13 17  1  0
 12 18  1  0
 11 19  1  0
  9 20  1  0
  7 21  1  0
  5 22  1  0
 22 23  2  0
 22 24  1  0
 24 25  1  0
 25 26  1  0
 26 27  1  0
 27 28  2  0
 27 29  2  0
 27 30  1  0
 30 31  2  0
 31 32  1  0
 32 33  2  0
 33 34  1  0
 34 35  2  0
 35 36  1  0
 34 37  1  0
 33 38  1  0
 32 39  1  0
 31 40  1  0
 26 41  1  0
 41 42  1  0
 41 43  1  0
 25 44  1  0
 25 45  1  0
  1 46  1  0
  1 47  1  0
  1 48  1  0
 24  2  1  0
 35 30  1  0
 15  6  1  0
 41 24  1  0
 15 10  1  0
M  END
>  <cnnaffinities>  (12) 
[5.24355, 5.22753, 4.84153, 4.68623, 5.23953, 5.45597]

>  <score>  (12) 
5.24355

>  <index>  (12) 
11

>  <Smiles>  (12) 
C(N1C(=O)N(c2c(nc(c3c(c(c(c(c23)[H])[H])[H])[H])[H])[H])C(=O)C21C(N(S(=O)(=O)c1c(c(c(c(c1[H])[H])[H])[H])[H])C2([H])[H])([H])[H])([H])([H])[H]

>  <h>  (12) 
<NA>

>  <Training>  (12) 
True

>  <Success>  (12) 
True

>  <enamine_searched>  (12) 
False

>  <enamine_id>  (12) 
nan

$$$$

     RDKit          3D

 76 82  0  0  0  0  0  0  0  0999 V2000
  -12.9229   -0.2673  -23.1822 O   0  0  0  0  0  0  0  0  0  0  0  0
  -11.9584   -1.0253  -23.1342 C   0  0  0  0  0  0  0  0  0  0  0  0
  -11.9737   -2.2641  -22.3164 C   0  0  0  0  0  0  0  0  0  0  0  0
  -13.2137   -2.7015  -21.8574 C   0  0  0  0  0  0  0  0  0  0  0  0
  -13.3075   -3.8278  -21.0675 C   0  0  0  0  0  0  0  0  0  0  0  0
  -12.1250   -4.4665  -20.7233 C   0  0  0  0  0  0  0  0  0  0  0  0
  -12.1951   -5.7175  -19.5068 Cl  0  0  0  0  0  0  0  0  0  0  0  0
  -10.8819   -4.0519  -21.2017 C   0  0  0  0  0  0  0  0  0  0  0  0
  -10.7699   -2.9140  -21.9931 C   0  0  0  0  0  0  0  0  0  0  0  0
   -9.4262   -2.3054  -22.4069 C   0  0  1  0  0  0  0  0  0  0  0  0
   -9.6844   -1.7061  -23.8177 C   0  0  0  0  0  0  0  0  0  0  0  0
  -10.8150   -0.7947  -23.8368 N   0  0  0  0  0  0  0  0  0  0  0  0
  -10.8479    0.3463  -24.7348 C   0  0  0  0  0  0  0  0  0  0  0  0
  -10.5876    1.6435  -23.9780 C   0  0  0  0  0  0  0  0  0  0  0  0
   -9.1327    1.8013  -23.6729 N   0  0  0  0  0  4  0  0  0  0  0  0
   -8.9623    2.6740  -22.4536 C   0  0  0  0  0  0  0  0  0  0  0  0
   -7.5507    3.2181  -22.2857 C   0  0  0  0  0  0  0  0  0  0  0  0
   -7.0022    3.7490  -23.4744 O   0  0  0  0  0  0  0  0  0  0  0  0
   -6.9787    2.7743  -24.4987 C   0  0  0  0  0  0  0  0  0  0  0  0
   -8.3873    2.3441  -24.8742 C   0  0  0  0  0  0  0  0  0  0  0  0
   -8.9375    3.2203  -25.2325 H   0  0  0  0  0  0  0  0  0  0  0  0
   -8.3563    1.5968  -25.6750 H   0  0  0  0  0  0  0  0  0  0  0  0
   -6.3906    1.8926  -24.1914 H   0  0  0  0  0  0  0  0  0  0  0  0
   -6.4942    3.2502  -25.3566 H   0  0  0  0  0  0  0  0  0  0  0  0
   -6.9086    2.4444  -21.8519 H   0  0  0  0  0  0  0  0  0  0  0  0
   -7.5874    4.0417  -21.5718 H   0  0  0  0  0  0  0  0  0  0  0  0
   -9.6706    3.5062  -22.5366 H   0  0  0  0  0  0  0  0  0  0  0  0
   -9.2444    2.0700  -21.5838 H   0  0  0  0  0  0  0  0  0  0  0  0
   -8.7685    0.8577  -23.4373 H   0  0  0  0  0  0  0  0  0  0  0  0
  -11.1440    1.6435  -23.0361 H   0  0  0  0  0  0  0  0  0  0  0  0
  -10.9191    2.5129  -24.5569 H   0  0  0  0  0  0  0  0  0  0  0  0
  -11.8273    0.3752  -25.2132 H   0  0  0  0  0  0  0  0  0  0  0  0
  -10.0895    0.2066  -25.5092 H   0  0  0  0  0  0  0  0  0  0  0  0
   -8.8029   -1.1617  -24.1704 H   0  0  0  0  0  0  0  0  0  0  0  0
   -9.8676   -2.5373  -24.5126 H   0  0  0  0  0  0  0  0  0  0  0  0
   -8.9627   -1.1628  -21.4426 C   0  0  0  0  0  0  0  0  0  0  0  0
   -9.6375   -0.2448  -21.0279 O   0  0  0  0  0  0  0  0  0  0  0  0
   -7.6075   -1.2928  -21.2173 N   0  0  0  0  0  0  0  0  0  0  0  0
   -6.8740   -0.6795  -20.1655 C   0  0  0  0  0  0  0  0  0  0  0  0
   -7.1082   -1.0134  -18.8535 C   0  0  0  0  0  0  0  0  0  0  0  0
   -6.3435   -0.6078  -17.8088 N   0  0  0  0  0  0  0  0  0  0  0  0
   -5.3215    0.1734  -18.0650 C   0  0  0  0  0  0  0  0  0  0  0  0
   -4.9749    0.6200  -19.3722 C   0  0  0  0  0  0  0  0  0  0  0  0
   -3.8959    1.5167  -19.6037 C   0  0  0  0  0  0  0  0  0  0  0  0
   -3.6198    1.9636  -20.8682 C   0  0  0  0  0  0  0  0  0  0  0  0
   -4.3781    1.4984  -21.9651 C   0  0  0  0  0  0  0  0  0  0  0  0
   -5.3906    0.5870  -21.7680 C   0  0  0  0  0  0  0  0  0  0  0  0
   -5.7551    0.1634  -20.4616 C   0  0  0  0  0  0  0  0  0  0  0  0
   -5.9818    0.2396  -22.6106 H   0  0  0  0  0  0  0  0  0  0  0  0
   -4.1692    1.8818  -22.9619 H   0  0  0  0  0  0  0  0  0  0  0  0
   -2.8316    2.6934  -21.0302 H   0  0  0  0  0  0  0  0  0  0  0  0
   -3.3112    1.8555  -18.7521 H   0  0  0  0  0  0  0  0  0  0  0  0
   -4.7076    0.4873  -17.2179 H   0  0  0  0  0  0  0  0  0  0  0  0
   -7.9402   -1.6640  -18.5959 H   0  0  0  0  0  0  0  0  0  0  0  0
   -6.9924   -2.3346  -22.0024 C   0  0  0  0  0  0  0  0  0  0  0  0
   -8.1675   -3.2430  -22.3900 C   0  0  2  0  0  0  0  0  0  0  0  0
   -7.8389   -3.9993  -23.6861 C   0  0  0  0  0  0  0  0  0  0  0  0
   -6.6203   -4.7971  -23.5925 N   0  0  0  0  0  0  0  0  0  0  0  0
   -6.6811   -6.1220  -23.2658 C   0  0  0  0  0  0  0  0  0  0  0  0
   -5.6122   -6.8838  -23.5759 N   0  0  0  0  0  0  0  0  0  0  0  0
   -5.6807   -8.1548  -23.2041 C   0  0  0  0  0  0  0  0  0  0  0  0
   -6.7727   -8.6951  -22.5288 C   0  0  0  0  0  0  0  0  0  0  0  0
   -7.8124   -7.8202  -22.2739 C   0  0  0  0  0  0  0  0  0  0  0  0
   -7.7886   -6.5429  -22.6345 N   0  0  0  0  0  0  0  0  0  0  0  0
   -8.7181   -8.1359  -21.7616 H   0  0  0  0  0  0  0  0  0  0  0  0
   -6.8297   -9.7379  -22.2505 H   0  0  0  0  0  0  0  0  0  0  0  0
   -4.8312   -8.7879  -23.4645 H   0  0  0  0  0  0  0  0  0  0  0  0
   -5.8579   -4.5637  -24.2124 H   0  0  0  0  0  0  0  0  0  0  0  0
   -7.6955   -3.2767  -24.4969 H   0  0  0  0  0  0  0  0  0  0  0  0
   -8.6722   -4.6610  -23.9354 H   0  0  0  0  0  0  0  0  0  0  0  0
   -8.2962   -3.9799  -21.5923 H   0  0  0  0  0  0  0  0  0  0  0  0
   -6.2210   -2.8331  -21.4097 H   0  0  0  0  0  0  0  0  0  0  0  0
   -6.5043   -1.9370  -22.9051 H   0  0  0  0  0  0  0  0  0  0  0  0
   -9.9944   -4.4897  -20.7644 H   0  0  0  0  0  0  0  0  0  0  0  0
  -14.2523   -4.1838  -20.6728 H   0  0  0  0  0  0  0  0  0  0  0  0
  -14.0850   -2.1015  -22.0974 H   0  0  0  0  0  0  0  0  0  0  0  0
  1  2  2  0
  2  3  1  0
  3  4  2  0
  4  5  1  0
  5  6  2  0
  6  7  1  0
  6  8  1  0
  8  9  2  0
  9 10  1  0
 10 11  1  6
 11 12  1  0
 12 13  1  0
 13 14  1  0
 14 15  1  0
 15 16  1  0
 16 17  1  0
 17 18  1  0
 18 19  1  0
 19 20  1  0
 20 21  1  0
 20 22  1  0
 19 23  1  0
 19 24  1  0
 17 25  1  0
 17 26  1  0
 16 27  1  0
 16 28  1  0
 15 29  1  0
 14 30  1  0
 14 31  1  0
 13 32  1  0
 13 33  1  0
 11 34  1  0
 11 35  1  0
 10 36  1  0
 36 37  2  0
 36 38  1  0
 38 39  1  0
 39 40  2  0
 40 41  1  0
 41 42  2  0
 42 43  1  0
 43 44  2  0
 44 45  1  0
 45 46  2  0
 46 47  1  0
 47 48  2  0
 47 49  1  0
 46 50  1  0
 45 51  1  0
 44 52  1  0
 42 53  1  0
 40 54  1  0
 38 55  1  0
 55 56  1  0
 56 57  1  0
 57 58  1  0
 58 59  1  0
 59 60  2  0
 60 61  1  0
 61 62  2  0
 62 63  1  0
 63 64  2  0
 63 65  1  0
 62 66  1  0
 61 67  1  0
 58 68  1  0
 57 69  1  0
 57 70  1  0
 56 71  1  1
 55 72  1  0
 55 73  1  0
  8 74  1  0
  5 75  1  0
  4 76  1  0
 12  2  1  0
 20 15  1  0
 48 39  1  0
 64 59  1  0
  9  3  1  0
 56 10  1  0
 48 43  1  0
M  CHG  1  15   1
M  END
>  <cnnaffinities>  (13) 
[6.80115, 6.6808]

>  <score>  (13) 
6.80115

>  <index>  (13) 
12

>  <Smiles>  (13) 
O=C1c2c(c(c(Cl)c(c2[C@@]2(C(N1C(C([N+]1(C(C(OC(C1([H])[H])([H])[H])([H])[H])([H])[H])[H])([H])[H])([H])[H])([H])[H])C(=O)N(c1c(nc(c3c(c(c(c(c13)[H])[H])[H])[H])[H])[H])C([C@@]2(C(N(c1nc(c(c(n1)[H])[H])[H])[H])([H])[H])[H])([H])[H])[H])[H])[H]

>  <h>  (13) 
<NA>

>  <Training>  (13) 
True

>  <Success>  (13) 
True

>  <enamine_searched>  (13) 
False

>  <enamine_id>  (13) 
nan

$$$$

     RDKit          3D

 69 74  0  0  0  0  0  0  0  0999 V2000
   -7.3720    3.4022  -21.9057 C   0  0  0  0  0  0  0  0  0  0  0  0
   -8.2895    2.9006  -22.9096 N   0  0  0  0  0  0  0  0  0  0  0  0
   -7.7644    2.1891  -23.9429 C   0  0  0  0  0  0  0  0  0  0  0  0
   -6.5600    2.0325  -24.0773 O   0  0  0  0  0  0  0  0  0  0  0  0
   -8.7459    1.5687  -24.9333 C   0  0  0  0  0  0  0  0  0  0  0  0
   -9.4067    0.4241  -24.3371 N   0  0  0  0  0  0  0  0  0  0  0  0
   -8.6615   -0.8165  -24.1680 C   0  0  0  0  0  0  0  0  0  0  0  0
   -9.0580   -1.5489  -22.8589 C   0  0  2  0  0  0  0  0  0  0  0  0
   -8.5459   -0.7522  -21.6371 C   0  0  0  0  0  0  0  0  0  0  0  0
   -9.0185    0.2568  -21.1544 O   0  0  0  0  0  0  0  0  0  0  0  0
   -7.4138   -1.3755  -21.1721 N   0  0  0  0  0  0  0  0  0  0  0  0
   -6.6331   -0.7912  -20.1505 C   0  0  0  0  0  0  0  0  0  0  0  0
   -6.9334   -1.0547  -18.8400 C   0  0  0  0  0  0  0  0  0  0  0  0
   -6.2352   -0.5729  -17.7867 N   0  0  0  0  0  0  0  0  0  0  0  0
   -5.1915    0.1780  -18.0516 C   0  0  0  0  0  0  0  0  0  0  0  0
   -4.7915    0.5589  -19.3661 C   0  0  0  0  0  0  0  0  0  0  0  0
   -3.7035    1.4413  -19.6058 C   0  0  0  0  0  0  0  0  0  0  0  0
   -3.4364    1.8837  -20.8708 C   0  0  0  0  0  0  0  0  0  0  0  0
   -4.2461    1.4867  -21.9574 C   0  0  0  0  0  0  0  0  0  0  0  0
   -5.2376    0.5508  -21.7666 C   0  0  0  0  0  0  0  0  0  0  0  0
   -5.5582    0.0943  -20.4582 C   0  0  0  0  0  0  0  0  0  0  0  0
   -5.8250    0.2205  -22.6173 H   0  0  0  0  0  0  0  0  0  0  0  0
   -4.0889    1.9163  -22.9438 H   0  0  0  0  0  0  0  0  0  0  0  0
   -2.6203    2.5836  -21.0392 H   0  0  0  0  0  0  0  0  0  0  0  0
   -3.0957    1.7487  -18.7589 H   0  0  0  0  0  0  0  0  0  0  0  0
   -4.6307    0.5620  -17.2010 H   0  0  0  0  0  0  0  0  0  0  0  0
   -7.7865   -1.6880  -18.6087 H   0  0  0  0  0  0  0  0  0  0  0  0
   -7.0209   -2.5522  -21.9129 C   0  0  0  0  0  0  0  0  0  0  0  0
   -8.2943   -2.9012  -22.6990 C   0  0  2  0  0  0  0  0  0  0  0  0
   -8.0215   -3.6811  -24.0013 C   0  0  0  0  0  0  0  0  0  0  0  0
   -7.4937   -5.0211  -23.7965 N   0  0  0  0  0  0  0  0  0  0  0  0
   -6.1818   -5.2882  -23.5075 C   0  0  0  0  0  0  0  0  0  0  0  0
   -5.0889   -4.5161  -23.9501 C   0  0  0  0  0  0  0  0  0  0  0  0
   -3.8432   -4.9508  -23.5407 C   0  0  0  0  0  0  0  0  0  0  0  0
   -3.6481   -6.0100  -22.7493 N   0  0  0  0  0  0  0  0  0  0  0  0
   -4.7489   -6.6834  -22.4055 C   0  0  0  0  0  0  0  0  0  0  0  0
   -4.5984   -7.8659  -21.4928 C   0  0  0  0  0  0  0  0  0  0  0  0
   -3.5974   -8.2974  -21.5815 H   0  0  0  0  0  0  0  0  0  0  0  0
   -5.3861   -8.5916  -21.7145 H   0  0  0  0  0  0  0  0  0  0  0  0
   -4.7441   -7.5444  -20.4580 H   0  0  0  0  0  0  0  0  0  0  0  0
   -5.9956   -6.3838  -22.7628 N   0  0  0  0  0  0  0  0  0  0  0  0
   -2.9450   -4.4178  -23.8678 H   0  0  0  0  0  0  0  0  0  0  0  0
   -5.1931   -3.6363  -24.5798 H   0  0  0  0  0  0  0  0  0  0  0  0
   -8.0882   -5.6598  -23.2829 H   0  0  0  0  0  0  0  0  0  0  0  0
   -7.3059   -3.1305  -24.6242 H   0  0  0  0  0  0  0  0  0  0  0  0
   -8.9530   -3.7640  -24.5779 H   0  0  0  0  0  0  0  0  0  0  0  0
   -8.8978   -3.5417  -22.0450 H   0  0  0  0  0  0  0  0  0  0  0  0
   -6.1715   -2.3410  -22.5817 H   0  0  0  0  0  0  0  0  0  0  0  0
   -6.7081   -3.3459  -21.2289 H   0  0  0  0  0  0  0  0  0  0  0  0
  -10.5692   -1.6342  -22.8103 C   0  0  0  0  0  0  0  0  0  0  0  0
  -11.2066   -2.5620  -21.9804 C   0  0  0  0  0  0  0  0  0  0  0  0
  -12.5856   -2.5869  -21.8927 C   0  0  0  0  0  0  0  0  0  0  0  0
  -13.3339   -3.7423  -20.8288 Cl  0  0  0  0  0  0  0  0  0  0  0  0
  -13.3826   -1.7022  -22.6181 C   0  0  0  0  0  0  0  0  0  0  0  0
  -12.7600   -0.7583  -23.4077 C   0  0  0  0  0  0  0  0  0  0  0  0
  -11.3704   -0.7011  -23.4826 C   0  0  0  0  0  0  0  0  0  0  0  0
  -10.7715    0.4353  -24.2509 C   0  0  0  0  0  0  0  0  0  0  0  0
  -11.4601    1.3202  -24.7434 O   0  0  0  0  0  0  0  0  0  0  0  0
  -13.3248   -0.0253  -23.9721 H   0  0  0  0  0  0  0  0  0  0  0  0
  -14.4629   -1.7436  -22.5414 H   0  0  0  0  0  0  0  0  0  0  0  0
  -10.6471   -3.2632  -21.3729 H   0  0  0  0  0  0  0  0  0  0  0  0
   -7.5911   -0.5833  -24.1657 H   0  0  0  0  0  0  0  0  0  0  0  0
   -8.8606   -1.4820  -25.0195 H   0  0  0  0  0  0  0  0  0  0  0  0
   -8.1970    1.2697  -25.8340 H   0  0  0  0  0  0  0  0  0  0  0  0
   -9.5291    2.2725  -25.2277 H   0  0  0  0  0  0  0  0  0  0  0  0
   -9.2280    2.6775  -22.6034 H   0  0  0  0  0  0  0  0  0  0  0  0
   -6.6619    4.0960  -22.3619 H   0  0  0  0  0  0  0  0  0  0  0  0
   -7.9202    3.9438  -21.1359 H   0  0  0  0  0  0  0  0  0  0  0  0
   -6.8165    2.5675  -21.4623 H   0  0  0  0  0  0  0  0  0  0  0  0
  1  2  1  0
  2  3  1  0
  3  4  2  0
  3  5  1  0
  5  6  1  0
  6  7  1  0
  8  7  1  6
  8  9  1  0
  9 10  2  0
  9 11  1  0
 11 12  1  0
 12 13  2  0
 13 14  1  0
 14 15  2  0
 15 16  1  0
 16 17  2  0
 17 18  1  0
 18 19  2  0
 19 20  1  0
 20 21  2  0
 20 22  1  0
 19 23  1  0
 18 24  1  0
 17 25  1  0
 15 26  1  0
 13 27  1  0
 11 28  1  0
 28 29  1  0
 29 30  1  0
 30 31  1  0
 31 32  1  0
 32 33  2  0
 33 34  1  0
 34 35  2  0
 35 36  1  0
 36 37  1  0
 37 38  1  0
 37 39  1  0
 37 40  1  0
 36 41  2  0
 34 42  1  0
 33 43  1  0
 31 44  1  0
 30 45  1  0
 30 46  1  0
 29 47  1  1
 28 48  1  0
 28 49  1  0
  8 50  1  0
 50 51  2  0
 51 52  1  0
 52 53  1  0
 52 54  2  0
 54 55  1  0
 55 56  2  0
 56 57  1  0
 57 58  2  0
 55 59  1  0
 54 60  1  0
 51 61  1  0
  7 62  1  0
  7 63  1  0
  5 64  1  0
  5 65  1  0
  2 66  1  0
  1 67  1  0
  1 68  1  0
  1 69  1  0
 57  6  1  0
 29  8  1  0
 41 32  1  0
 56 50  1  0
 21 12  1  0
 21 16  1  0
M  END
>  <cnnaffinities>  (14) 
[6.20006, 6.57917]

>  <score>  (14) 
6.20006

>  <index>  (14) 
13

>  <Smiles>  (14) 
C(N(C(=O)C(N1C([C@@]2(C(=O)N(c3c(nc(c4c(c(c(c(c34)[H])[H])[H])[H])[H])[H])C([C@@]2(C(N(c2c(c(nc(C([H])([H])[H])n2)[H])[H])[H])([H])[H])[H])([H])[H])c2c(c(Cl)c(c(c2C1=O)[H])[H])[H])([H])[H])([H])[H])[H])([H])([H])[H]

>  <h>  (14) 
<NA>

>  <Training>  (14) 
True

>  <Success>  (14) 
True

>  <enamine_searched>  (14) 
False

>  <enamine_id>  (14) 
nan

$$$$

     RDKit          3D

 73 78  0  0  0  0  0  0  0  0999 V2000
   -8.0048   -3.8914  -23.8655 C   0  0  0  0  0  0  0  0  0  0  0  0
   -8.3992   -2.9303  -22.7501 C   0  0  1  0  0  0  0  0  0  0  0  0
   -7.2408   -2.5976  -21.8024 C   0  0  0  0  0  0  0  0  0  0  0  0
   -7.6117   -1.3086  -21.2490 N   0  0  0  0  0  0  0  0  0  0  0  0
   -6.8552   -0.6981  -20.2070 C   0  0  0  0  0  0  0  0  0  0  0  0
   -7.0096   -1.1507  -18.9217 C   0  0  0  0  0  0  0  0  0  0  0  0
   -6.2598   -0.7609  -17.8601 N   0  0  0  0  0  0  0  0  0  0  0  0
   -5.3145    0.1202  -18.0806 C   0  0  0  0  0  0  0  0  0  0  0  0
   -5.0418    0.6859  -19.3571 C   0  0  0  0  0  0  0  0  0  0  0  0
   -3.9905    1.6223  -19.5388 C   0  0  0  0  0  0  0  0  0  0  0  0
   -3.7431    2.1558  -20.7728 C   0  0  0  0  0  0  0  0  0  0  0  0
   -4.5396    1.7822  -21.8778 C   0  0  0  0  0  0  0  0  0  0  0  0
   -5.5669    0.8829  -21.7252 C   0  0  0  0  0  0  0  0  0  0  0  0
   -5.8389    0.2905  -20.4599 C   0  0  0  0  0  0  0  0  0  0  0  0
   -6.1792    0.6161  -22.5815 H   0  0  0  0  0  0  0  0  0  0  0  0
   -4.3429    2.2196  -22.8520 H   0  0  0  0  0  0  0  0  0  0  0  0
   -2.9336    2.8664  -20.9106 H   0  0  0  0  0  0  0  0  0  0  0  0
   -3.4104    1.9223  -18.6695 H   0  0  0  0  0  0  0  0  0  0  0  0
   -4.7003    0.4167  -17.2284 H   0  0  0  0  0  0  0  0  0  0  0  0
   -7.7730   -1.8970  -18.7043 H   0  0  0  0  0  0  0  0  0  0  0  0
   -8.6650   -0.7029  -21.9098 C   0  0  0  0  0  0  0  0  0  0  0  0
   -9.1882    0.3285  -21.5514 O   0  0  0  0  0  0  0  0  0  0  0  0
   -8.9757   -1.5401  -23.1782 C   0  0  1  0  0  0  0  0  0  0  0  0
   -8.2173   -0.8535  -24.3470 C   0  0  0  0  0  0  0  0  0  0  0  0
   -8.6931   -1.2292  -25.6668 N   0  0  0  0  0  0  0  0  0  0  0  0
   -7.7922   -1.1333  -26.8035 C   0  0  0  0  0  0  0  0  0  0  0  0
   -7.5768   -2.4943  -27.4520 C   0  0  0  0  0  0  0  0  0  0  0  0
   -6.7096   -2.4279  -28.6508 N   0  0  0  0  0  4  0  0  0  0  0  0
   -7.3900   -1.7959  -29.8416 C   0  0  0  0  0  0  0  0  0  0  0  0
   -6.3579   -1.5763  -30.9301 C   0  0  0  0  0  0  0  0  0  0  0  0
   -5.7827   -2.8751  -31.3404 N   0  0  0  0  0  0  0  0  0  0  0  0
   -4.6985   -2.8153  -32.6233 S   0  0  0  0  0  0  0  0  0  0  0  0
   -4.5913   -1.4458  -33.1025 O   0  0  0  0  0  0  0  0  0  0  0  0
   -3.5062   -3.5536  -32.2502 O   0  0  0  0  0  0  0  0  0  0  0  0
   -5.5683   -3.7774  -33.8449 C   0  0  0  0  0  0  0  0  0  0  0  0
   -5.7779   -4.7644  -33.4240 H   0  0  0  0  0  0  0  0  0  0  0  0
   -4.9141   -3.8691  -34.7138 H   0  0  0  0  0  0  0  0  0  0  0  0
   -6.4933   -3.2659  -34.1171 H   0  0  0  0  0  0  0  0  0  0  0  0
   -5.3416   -3.7983  -30.2738 C   0  0  0  0  0  0  0  0  0  0  0  0
   -6.2452   -3.7968  -29.0469 C   0  0  0  0  0  0  0  0  0  0  0  0
   -7.1400   -4.4062  -29.2167 H   0  0  0  0  0  0  0  0  0  0  0  0
   -5.6903   -4.2334  -28.2133 H   0  0  0  0  0  0  0  0  0  0  0  0
   -4.3062   -3.5820  -29.9830 H   0  0  0  0  0  0  0  0  0  0  0  0
   -5.3556   -4.8070  -30.7002 H   0  0  0  0  0  0  0  0  0  0  0  0
   -5.5777   -0.9008  -30.5589 H   0  0  0  0  0  0  0  0  0  0  0  0
   -6.8164   -1.1088  -31.8014 H   0  0  0  0  0  0  0  0  0  0  0  0
   -8.1610   -2.4862  -30.1821 H   0  0  0  0  0  0  0  0  0  0  0  0
   -7.8866   -0.8714  -29.5418 H   0  0  0  0  0  0  0  0  0  0  0  0
   -5.8691   -1.8596  -28.4137 H   0  0  0  0  0  0  0  0  0  0  0  0
   -8.5401   -2.9126  -27.7477 H   0  0  0  0  0  0  0  0  0  0  0  0
   -7.1206   -3.1790  -26.7306 H   0  0  0  0  0  0  0  0  0  0  0  0
   -6.8396   -0.7183  -26.4673 H   0  0  0  0  0  0  0  0  0  0  0  0
   -8.2215   -0.4357  -27.5256 H   0  0  0  0  0  0  0  0  0  0  0  0
  -10.0256   -1.2960  -25.9623 C   0  0  0  0  0  0  0  0  0  0  0  0
  -10.4331   -1.2633  -27.1193 O   0  0  0  0  0  0  0  0  0  0  0  0
  -10.9448   -1.4529  -24.7913 C   0  0  0  0  0  0  0  0  0  0  0  0
  -12.3158   -1.4785  -25.0436 C   0  0  0  0  0  0  0  0  0  0  0  0
  -13.2167   -1.7163  -24.0227 C   0  0  0  0  0  0  0  0  0  0  0  0
  -12.7167   -1.9035  -22.7350 C   0  0  0  0  0  0  0  0  0  0  0  0
  -13.8554   -2.1932  -21.4526 Cl  0  0  0  0  0  0  0  0  0  0  0  0
  -11.3616   -1.8638  -22.4548 C   0  0  0  0  0  0  0  0  0  0  0  0
  -10.4521   -1.6032  -23.4903 C   0  0  0  0  0  0  0  0  0  0  0  0
  -11.0283   -2.0049  -21.4280 H   0  0  0  0  0  0  0  0  0  0  0  0
  -14.2905   -1.7715  -24.1877 H   0  0  0  0  0  0  0  0  0  0  0  0
  -12.6325   -1.3089  -26.0650 H   0  0  0  0  0  0  0  0  0  0  0  0
   -7.1495   -1.1015  -24.2929 H   0  0  0  0  0  0  0  0  0  0  0  0
   -8.3070    0.2346  -24.2133 H   0  0  0  0  0  0  0  0  0  0  0  0
   -6.2852   -2.5442  -22.3472 H   0  0  0  0  0  0  0  0  0  0  0  0
   -7.1143   -3.3370  -21.0049 H   0  0  0  0  0  0  0  0  0  0  0  0
   -9.1979   -3.3946  -22.1535 H   0  0  0  0  0  0  0  0  0  0  0  0
   -7.6904   -4.8537  -23.4456 H   0  0  0  0  0  0  0  0  0  0  0  0
   -8.8401   -4.0711  -24.5496 H   0  0  0  0  0  0  0  0  0  0  0  0
   -7.1645   -3.4967  -24.4502 H   0  0  0  0  0  0  0  0  0  0  0  0
  1  2  1  0
  2  3  1  0
  3  4  1  0
  4  5  1  0
  5  6  2  0
  6  7  1  0
  7  8  2  0
  8  9  1  0
  9 10  2  0
 10 11  1  0
 11 12  2  0
 12 13  1  0
 13 14  2  0
 13 15  1  0
 12 16  1  0
 11 17  1  0
 10 18  1  0
  8 19  1  0
  6 20  1  0
  4 21  1  0
 21 22  2  0
 21 23  1  0
 23 24  1  6
 24 25  1  0
 25 26  1  0
 26 27  1  0
 27 28  1  0
 28 29  1  0
 29 30  1  0
 30 31  1  0
 31 32  1  0
 32 33  2  0
 32 34  2  0
 32 35  1  0
 35 36  1  0
 35 37  1  0
 35 38  1  0
 31 39  1  0
 39 40  1  0
 40 41  1  0
 40 42  1  0
 39 43  1  0
 39 44  1  0
 30 45  1  0
 30 46  1  0
 29 47  1  0
 29 48  1  0
 28 49  1  0
 27 50  1  0
 27 51  1  0
 26 52  1  0
 26 53  1  0
 25 54  1  0
 54 55  2  0
 54 56  1  0
 56 57  2  0
 57 58  1  0
 58 59  2  0
 59 60  1  0
 59 61  1  0
 61 62  2  0
 61 63  1  0
 58 64  1  0
 57 65  1  0
 24 66  1  0
 24 67  1  0
  3 68  1  0
  3 69  1  0
  2 70  1  1
  1 71  1  0
  1 72  1  0
  1 73  1  0
 23  2  1  0
 40 28  1  0
 62 56  1  0
 14  5  1  0
 62 23  1  0
 14  9  1  0
M  CHG  1  28   1
M  END
>  <cnnaffinities>  (15) 
[5.79828, 6.41747, 5.89465, 5.71739]

>  <score>  (15) 
5.79828

>  <index>  (15) 
14

>  <Smiles>  (15) 
C([C@]1(C(N(c2c(nc(c3c(c(c(c(c23)[H])[H])[H])[H])[H])[H])C(=O)[C@]21C(N(C(C([N+]1(C(C(N(S(=O)(=O)C([H])([H])[H])C(C1([H])[H])([H])[H])([H])[H])([H])[H])[H])([H])[H])([H])[H])C(=O)c1c(c(c(Cl)c(c21)[H])[H])[H])([H])[H])([H])[H])[H])([H])([H])[H]

>  <h>  (15) 
<NA>

>  <Training>  (15) 
True

>  <Success>  (15) 
True

>  <enamine_searched>  (15) 
False

>  <enamine_id>  (15) 
nan

$$$$

     RDKit          3D

 63 68  0  0  0  0  0  0  0  0999 V2000
   -7.4946    3.3000  -21.9702 C   0  0  0  0  0  0  0  0  0  0  0  0
   -8.5882    2.7479  -22.7569 N   0  0  0  0  0  0  0  0  0  0  0  0
   -8.2855    1.9667  -23.8311 C   0  0  0  0  0  0  0  0  0  0  0  0
   -7.1278    1.7344  -24.1478 O   0  0  0  0  0  0  0  0  0  0  0  0
   -9.4402    1.3735  -24.6527 C   0  0  0  0  0  0  0  0  0  0  0  0
   -9.9390    0.1571  -24.0367 N   0  0  0  0  0  0  0  0  0  0  0  0
   -9.0781   -1.0173  -23.9856 C   0  0  0  0  0  0  0  0  0  0  0  0
   -9.2435   -1.7845  -22.6455 C   0  0  2  0  0  0  0  0  0  0  0  0
   -8.6803   -0.8921  -21.5042 C   0  0  0  0  0  0  0  0  0  0  0  0
   -9.1964    0.0896  -21.0114 O   0  0  0  0  0  0  0  0  0  0  0  0
   -7.4373   -1.3743  -21.1530 N   0  0  0  0  0  0  0  0  0  0  0  0
   -6.6591   -0.7758  -20.1363 C   0  0  0  0  0  0  0  0  0  0  0  0
   -6.9413   -1.0491  -18.8199 C   0  0  0  0  0  0  0  0  0  0  0  0
   -6.2217   -0.5800  -17.7745 N   0  0  0  0  0  0  0  0  0  0  0  0
   -5.1843    0.1766  -18.0449 C   0  0  0  0  0  0  0  0  0  0  0  0
   -4.7935    0.5573  -19.3622 C   0  0  0  0  0  0  0  0  0  0  0  0
   -3.7107    1.4475  -19.6014 C   0  0  0  0  0  0  0  0  0  0  0  0
   -3.4554    1.9031  -20.8668 C   0  0  0  0  0  0  0  0  0  0  0  0
   -4.2554    1.4845  -21.9521 C   0  0  0  0  0  0  0  0  0  0  0  0
   -5.2700    0.5720  -21.7562 C   0  0  0  0  0  0  0  0  0  0  0  0
   -5.5696    0.0952  -20.4492 C   0  0  0  0  0  0  0  0  0  0  0  0
   -5.8878    0.2777  -22.5975 H   0  0  0  0  0  0  0  0  0  0  0  0
   -4.0753    1.8772  -22.9500 H   0  0  0  0  0  0  0  0  0  0  0  0
   -2.6505    2.6121  -21.0406 H   0  0  0  0  0  0  0  0  0  0  0  0
   -3.1183    1.7762  -18.7525 H   0  0  0  0  0  0  0  0  0  0  0  0
   -4.6167    0.5639  -17.1991 H   0  0  0  0  0  0  0  0  0  0  0  0
   -7.7793   -1.6969  -18.5735 H   0  0  0  0  0  0  0  0  0  0  0  0
   -6.9966   -2.5114  -21.9266 C   0  0  0  0  0  0  0  0  0  0  0  0
   -8.3027   -3.0233  -22.5472 C   0  0  2  0  0  0  0  0  0  0  0  0
   -8.0485   -3.8014  -23.8425 C   0  0  0  0  0  0  0  0  0  0  0  0
   -7.2374   -4.9907  -23.6216 N   0  0  0  0  0  0  0  0  0  0  0  0
   -5.9100   -5.1665  -23.8362 C   0  0  0  0  0  0  0  0  0  0  0  0
   -5.6071   -6.4606  -23.4778 C   0  0  0  0  0  0  0  0  0  0  0  0
   -6.8379   -6.9836  -23.0305 C   0  0  0  0  0  0  0  0  0  0  0  0
   -7.8078   -6.0822  -23.1035 N   0  0  0  0  0  0  0  0  0  0  0  0
   -7.0795   -7.9763  -22.6681 H   0  0  0  0  0  0  0  0  0  0  0  0
   -4.6530   -6.9740  -23.5610 H   0  0  0  0  0  0  0  0  0  0  0  0
   -5.2825   -4.3638  -24.2090 H   0  0  0  0  0  0  0  0  0  0  0  0
   -7.5147   -3.1681  -24.5569 H   0  0  0  0  0  0  0  0  0  0  0  0
   -8.9995   -4.1092  -24.2877 H   0  0  0  0  0  0  0  0  0  0  0  0
   -8.7451   -3.7131  -21.8253 H   0  0  0  0  0  0  0  0  0  0  0  0
   -6.5160   -3.2627  -21.2939 H   0  0  0  0  0  0  0  0  0  0  0  0
   -6.2615   -2.2169  -22.6936 H   0  0  0  0  0  0  0  0  0  0  0  0
  -10.7332   -2.0510  -22.4599 C   0  0  0  0  0  0  0  0  0  0  0  0
  -11.2259   -3.1365  -21.7202 C   0  0  0  0  0  0  0  0  0  0  0  0
  -12.5827   -3.2573  -21.4611 C   0  0  0  0  0  0  0  0  0  0  0  0
  -13.1457   -4.5756  -20.4631 Cl  0  0  0  0  0  0  0  0  0  0  0  0
  -13.5045   -2.3320  -21.9478 C   0  0  0  0  0  0  0  0  0  0  0  0
  -13.0354   -1.2739  -22.6973 C   0  0  0  0  0  0  0  0  0  0  0  0
  -11.6741   -1.1285  -22.9476 C   0  0  0  0  0  0  0  0  0  0  0  0
  -11.2660    0.0832  -23.7247 C   0  0  0  0  0  0  0  0  0  0  0  0
  -12.0719    0.9477  -24.0489 O   0  0  0  0  0  0  0  0  0  0  0  0
  -13.7047   -0.5233  -23.1046 H   0  0  0  0  0  0  0  0  0  0  0  0
  -14.5608   -2.4384  -21.7313 H   0  0  0  0  0  0  0  0  0  0  0  0
  -10.5701   -3.8838  -21.2883 H   0  0  0  0  0  0  0  0  0  0  0  0
   -8.0460   -0.6737  -24.1020 H   0  0  0  0  0  0  0  0  0  0  0  0
   -9.3215   -1.6867  -24.8231 H   0  0  0  0  0  0  0  0  0  0  0  0
  -10.2930    2.0539  -24.7327 H   0  0  0  0  0  0  0  0  0  0  0  0
   -9.0685    1.1780  -25.6727 H   0  0  0  0  0  0  0  0  0  0  0  0
   -9.4810    2.6265  -22.2951 H   0  0  0  0  0  0  0  0  0  0  0  0
   -7.8843    4.0515  -21.2822 H   0  0  0  0  0  0  0  0  0  0  0  0
   -6.7472    3.7575  -22.6265 H   0  0  0  0  0  0  0  0  0  0  0  0
   -6.9922    2.5158  -21.3939 H   0  0  0  0  0  0  0  0  0  0  0  0
  1  2  1  0
  2  3  1  0
  3  4  2  0
  3  5  1  0
  5  6  1  0
  6  7  1  0
  8  7  1  6
  8  9  1  0
  9 10  2  0
  9 11  1  0
 11 12  1  0
 12 13  2  0
 13 14  1  0
 14 15  2  0
 15 16  1  0
 16 17  2  0
 17 18  1  0
 18 19  2  0
 19 20  1  0
 20 21  2  0
 20 22  1  0
 19 23  1  0
 18 24  1  0
 17 25  1  0
 15 26  1  0
 13 27  1  0
 11 28  1  0
 28 29  1  0
 29 30  1  0
 30 31  1  0
 31 32  1  0
 32 33  2  0
 33 34  1  0
 34 35  2  0
 34 36  1  0
 33 37  1  0
 32 38  1  0
 30 39  1  0
 30 40  1  0
 29 41  1  1
 28 42  1  0
 28 43  1  0
  8 44  1  0
 44 45  2  0
 45 46  1  0
 46 47  1  0
 46 48  2  0
 48 49  1  0
 49 50  2  0
 50 51  1  0
 51 52  2  0
 49 53  1  0
 48 54  1  0
 45 55  1  0
  7 56  1  0
  7 57  1  0
  5 58  1  0
  5 59  1  0
  2 60  1  0
  1 61  1  0
  1 62  1  0
  1 63  1  0
 51  6  1  0
 29  8  1  0
 35 31  1  0
 50 44  1  0
 21 12  1  0
 21 16  1  0
M  END
>  <cnnaffinities>  (16) 
[6.4007]

>  <score>  (16) 
6.4007

>  <index>  (16) 
15

>  <Smiles>  (16) 
C(N(C(=O)C(N1C([C@@]2(C(=O)N(c3c(nc(c4c(c(c(c(c34)[H])[H])[H])[H])[H])[H])C([C@@]2(C(n2c(c(c(n2)[H])[H])[H])([H])[H])[H])([H])[H])c2c(c(Cl)c(c(c2C1=O)[H])[H])[H])([H])[H])([H])[H])[H])([H])([H])[H]

>  <h>  (16) 
<NA>

>  <Training>  (16) 
True

>  <Success>  (16) 
True

>  <enamine_searched>  (16) 
False

>  <enamine_id>  (16) 
nan

$$$$

     RDKit          3D

 61 66  0  0  0  0  0  0  0  0999 V2000
   -7.3354    3.4312  -21.9123 C   0  0  0  0  0  0  0  0  0  0  0  0
   -8.2207    2.9477  -22.9552 N   0  0  0  0  0  0  0  0  0  0  0  0
   -7.6709    2.2297  -23.9722 C   0  0  0  0  0  0  0  0  0  0  0  0
   -6.4665    2.0508  -24.0709 O   0  0  0  0  0  0  0  0  0  0  0  0
   -8.6432    1.6282  -24.9850 C   0  0  0  0  0  0  0  0  0  0  0  0
   -9.3296    0.4927  -24.3988 N   0  0  0  0  0  0  0  0  0  0  0  0
   -8.6010   -0.7541  -24.2127 C   0  0  0  0  0  0  0  0  0  0  0  0
   -9.0092   -1.4713  -22.9028 C   0  0  2  0  0  0  0  0  0  0  0  0
   -8.4981   -0.6852  -21.6742 C   0  0  0  0  0  0  0  0  0  0  0  0
   -8.9306    0.3533  -21.2175 O   0  0  0  0  0  0  0  0  0  0  0  0
   -7.4247   -1.3630  -21.1505 N   0  0  0  0  0  0  0  0  0  0  0  0
   -6.6315   -0.7846  -20.1366 C   0  0  0  0  0  0  0  0  0  0  0  0
   -6.9271   -1.0501  -18.8267 C   0  0  0  0  0  0  0  0  0  0  0  0
   -6.2278   -0.5669  -17.7747 N   0  0  0  0  0  0  0  0  0  0  0  0
   -5.1866    0.1847  -18.0443 C   0  0  0  0  0  0  0  0  0  0  0  0
   -4.7869    0.5602  -19.3611 C   0  0  0  0  0  0  0  0  0  0  0  0
   -3.7006    1.4425  -19.6042 C   0  0  0  0  0  0  0  0  0  0  0  0
   -3.4419    1.8902  -20.8689 C   0  0  0  0  0  0  0  0  0  0  0  0
   -4.2467    1.4843  -21.9575 C   0  0  0  0  0  0  0  0  0  0  0  0
   -5.2395    0.5488  -21.7617 C   0  0  0  0  0  0  0  0  0  0  0  0
   -5.5561    0.0953  -20.4513 C   0  0  0  0  0  0  0  0  0  0  0  0
   -5.8160    0.2045  -22.6137 H   0  0  0  0  0  0  0  0  0  0  0  0
   -4.0880    1.9113  -22.9424 H   0  0  0  0  0  0  0  0  0  0  0  0
   -2.6244    2.5860  -21.0406 H   0  0  0  0  0  0  0  0  0  0  0  0
   -3.0942    1.7570  -18.7595 H   0  0  0  0  0  0  0  0  0  0  0  0
   -4.6248    0.5696  -17.1945 H   0  0  0  0  0  0  0  0  0  0  0  0
   -7.7777   -1.6874  -18.5998 H   0  0  0  0  0  0  0  0  0  0  0  0
   -7.0446   -2.5555  -21.8644 C   0  0  0  0  0  0  0  0  0  0  0  0
   -8.2624   -2.8366  -22.7568 C   0  0  2  0  0  0  0  0  0  0  0  0
   -7.8122   -3.5398  -24.0467 C   0  0  0  0  0  0  0  0  0  0  0  0
   -7.1788   -4.8155  -23.7425 N   0  0  0  0  0  0  0  0  0  0  0  0
   -7.8440   -5.8814  -23.3443 N   0  0  0  0  0  0  0  0  0  0  0  0
   -6.8721   -6.7728  -23.2115 C   0  0  0  0  0  0  0  0  0  0  0  0
   -5.6607   -6.2490  -23.4959 N   0  0  0  0  0  0  0  0  0  0  0  0
   -5.8807   -5.0056  -23.8277 N   0  0  0  0  0  0  0  0  0  0  0  0
   -7.0467   -7.8045  -22.9287 H   0  0  0  0  0  0  0  0  0  0  0  0
   -8.6475   -3.7239  -24.7271 H   0  0  0  0  0  0  0  0  0  0  0  0
   -7.0564   -2.9473  -24.5687 H   0  0  0  0  0  0  0  0  0  0  0  0
   -8.9221   -3.5366  -22.2375 H   0  0  0  0  0  0  0  0  0  0  0  0
   -6.8392   -3.3804  -21.1782 H   0  0  0  0  0  0  0  0  0  0  0  0
   -6.1246   -2.3968  -22.4510 H   0  0  0  0  0  0  0  0  0  0  0  0
  -10.5245   -1.5258  -22.8516 C   0  0  0  0  0  0  0  0  0  0  0  0
  -11.1767   -2.4158  -21.9920 C   0  0  0  0  0  0  0  0  0  0  0  0
  -12.5579   -2.4202  -21.9075 C   0  0  0  0  0  0  0  0  0  0  0  0
  -13.3356   -3.5305  -20.8170 Cl  0  0  0  0  0  0  0  0  0  0  0  0
  -13.3412   -1.5449  -22.6588 C   0  0  0  0  0  0  0  0  0  0  0  0
  -12.7028   -0.6327  -23.4716 C   0  0  0  0  0  0  0  0  0  0  0  0
  -11.3122   -0.5964  -23.5449 C   0  0  0  0  0  0  0  0  0  0  0  0
  -10.6961    0.5177  -24.3337 C   0  0  0  0  0  0  0  0  0  0  0  0
  -11.3686    1.3957  -24.8545 O   0  0  0  0  0  0  0  0  0  0  0  0
  -13.2589    0.0910  -24.0547 H   0  0  0  0  0  0  0  0  0  0  0  0
  -14.4230   -1.5651  -22.5829 H   0  0  0  0  0  0  0  0  0  0  0  0
  -10.6230   -3.1030  -21.3628 H   0  0  0  0  0  0  0  0  0  0  0  0
   -7.5272   -0.5390  -24.2060 H   0  0  0  0  0  0  0  0  0  0  0  0
   -8.8069   -1.4342  -25.0510 H   0  0  0  0  0  0  0  0  0  0  0  0
   -8.0862    1.3177  -25.8761 H   0  0  0  0  0  0  0  0  0  0  0  0
   -9.4059    2.3477  -25.2946 H   0  0  0  0  0  0  0  0  0  0  0  0
   -9.1738    2.7440  -22.6915 H   0  0  0  0  0  0  0  0  0  0  0  0
   -6.6163    4.1402  -22.3295 H   0  0  0  0  0  0  0  0  0  0  0  0
   -7.9142    3.9475  -21.1468 H   0  0  0  0  0  0  0  0  0  0  0  0
   -6.7856    2.5926  -21.4689 H   0  0  0  0  0  0  0  0  0  0  0  0
  1  2  1  0
  2  3  1  0
  3  4  2  0
  3  5  1  0
  5  6  1  0
  6  7  1  0
  8  7  1  6
  8  9  1  0
  9 10  2  0
  9 11  1  0
 11 12  1  0
 12 13  2  0
 13 14  1  0
 14 15  2  0
 15 16  1  0
 16 17  2  0
 17 18  1  0
 18 19  2  0
 19 20  1  0
 20 21  2  0
 20 22  1  0
 19 23  1  0
 18 24  1  0
 17 25  1  0
 15 26  1  0
 13 27  1  0
 11 28  1  0
 28 29  1  0
 29 30  1  0
 30 31  1  0
 31 32  1  0
 32 33  2  0
 33 34  1  0
 34 35  2  0
 33 36  1  0
 30 37  1  0
 30 38  1  0
 29 39  1  1
 28 40  1  0
 28 41  1  0
  8 42  1  0
 42 43  2  0
 43 44  1  0
 44 45  1  0
 44 46  2  0
 46 47  1  0
 47 48  2  0
 48 49  1  0
 49 50  2  0
 47 51  1  0
 46 52  1  0
 43 53  1  0
  7 54  1  0
  7 55  1  0
  5 56  1  0
  5 57  1  0
  2 58  1  0
  1 59  1  0
  1 60  1  0
  1 61  1  0
 49  6  1  0
 29  8  1  0
 35 31  1  0
 48 42  1  0
 21 12  1  0
 21 16  1  0
M  END
>  <cnnaffinities>  (17) 
[5.98203, 6.04348]

>  <score>  (17) 
5.98203

>  <index>  (17) 
16

>  <Smiles>  (17) 
C(N(C(=O)C(N1C([C@@]2(C(=O)N(c3c(nc(c4c(c(c(c(c34)[H])[H])[H])[H])[H])[H])C([C@@]2(C(n2nc(nn2)[H])([H])[H])[H])([H])[H])c2c(c(Cl)c(c(c2C1=O)[H])[H])[H])([H])[H])([H])[H])[H])([H])([H])[H]

>  <h>  (17) 
<NA>

>  <Training>  (17) 
True

>  <Success>  (17) 
True

>  <enamine_searched>  (17) 
False

>  <enamine_id>  (17) 
nan

$$$$

     RDKit          3D

 38 41  0  0  0  0  0  0  0  0999 V2000
   -9.1109   -4.9614  -25.5960 C   0  0  0  0  0  0  0  0  0  0  0  0
   -9.2123   -4.0965  -24.3452 C   0  0  2  0  0  0  0  0  0  0  0  0
  -10.2439   -2.9652  -24.4306 C   0  0  0  0  0  0  0  0  0  0  0  0
  -10.3795   -2.2875  -23.0578 C   0  0  0  0  0  0  0  0  0  0  0  0
   -9.0522   -1.9538  -22.5238 C   0  0  0  0  0  0  0  0  0  0  0  0
   -8.6758   -1.0282  -21.4918 C   0  0  0  0  0  0  0  0  0  0  0  0
   -9.2796   -0.1058  -20.9838 O   0  0  0  0  0  1  0  0  0  0  0  0
   -7.3404   -1.3938  -21.1894 N   0  0  0  0  0  0  0  0  0  0  0  0
   -6.5793   -0.8076  -20.1646 C   0  0  0  0  0  0  0  0  0  0  0  0
   -6.8998   -1.0713  -18.8605 C   0  0  0  0  0  0  0  0  0  0  0  0
   -6.2129   -0.5805  -17.8037 N   0  0  0  0  0  0  0  0  0  0  0  0
   -5.1804    0.1826  -18.0634 C   0  0  0  0  0  0  0  0  0  0  0  0
   -4.7638    0.5467  -19.3759 C   0  0  0  0  0  0  0  0  0  0  0  0
   -3.6766    1.4275  -19.6023 C   0  0  0  0  0  0  0  0  0  0  0  0
   -3.4111    1.8812  -20.8614 C   0  0  0  0  0  0  0  0  0  0  0  0
   -4.2082    1.4756  -21.9557 C   0  0  0  0  0  0  0  0  0  0  0  0
   -5.2194    0.5632  -21.7807 C   0  0  0  0  0  0  0  0  0  0  0  0
   -5.5179    0.0861  -20.4730 C   0  0  0  0  0  0  0  0  0  0  0  0
   -5.7891    0.2191  -22.6403 H   0  0  0  0  0  0  0  0  0  0  0  0
   -4.0137    1.8903  -22.9375 H   0  0  0  0  0  0  0  0  0  0  0  0
   -2.5964    2.5798  -21.0280 H   0  0  0  0  0  0  0  0  0  0  0  0
   -3.0854    1.7457  -18.7508 H   0  0  0  0  0  0  0  0  0  0  0  0
   -4.6237    0.5673  -17.2080 H   0  0  0  0  0  0  0  0  0  0  0  0
   -7.7487   -1.7120  -18.6391 H   0  0  0  0  0  0  0  0  0  0  0  0
   -6.8712   -2.4040  -22.0278 C   0  0  0  0  0  0  0  0  0  0  0  0
   -5.7592   -2.8798  -22.0714 O   0  0  0  0  0  0  0  0  0  0  0  0
   -7.9549   -2.7001  -22.8295 N   0  0  0  0  0  0  0  0  0  0  0  0
   -7.8314   -3.5492  -23.9982 C   0  0  0  0  0  0  0  0  0  0  0  0
   -7.1359   -4.3548  -23.7433 H   0  0  0  0  0  0  0  0  0  0  0  0
   -7.3796   -2.9858  -24.8298 H   0  0  0  0  0  0  0  0  0  0  0  0
  -10.9934   -1.3810  -23.0938 H   0  0  0  0  0  0  0  0  0  0  0  0
  -10.8875   -2.9888  -22.3732 H   0  0  0  0  0  0  0  0  0  0  0  0
   -9.9245   -2.2220  -25.1759 H   0  0  0  0  0  0  0  0  0  0  0  0
  -11.2178   -3.3671  -24.7399 H   0  0  0  0  0  0  0  0  0  0  0  0
   -9.4917   -4.7149  -23.4855 H   0  0  0  0  0  0  0  0  0  0  0  0
   -9.9544   -5.6454  -25.6960 H   0  0  0  0  0  0  0  0  0  0  0  0
   -8.2298   -5.6062  -25.5081 H   0  0  0  0  0  0  0  0  0  0  0  0
   -9.0437   -4.3424  -26.5050 H   0  0  0  0  0  0  0  0  0  0  0  0
  1  2  1  0
  2  3  1  0
  3  4  1  0
  4  5  1  0
  5  6  2  0
  6  7  1  0
  6  8  1  0
  8  9  1  0
  9 10  2  0
 10 11  1  0
 11 12  2  0
 12 13  1  0
 13 14  2  0
 14 15  1  0
 15 16  2  0
 16 17  1  0
 17 18  2  0
 17 19  1  0
 16 20  1  0
 15 21  1  0
 14 22  1  0
 12 23  1  0
 10 24  1  0
  8 25  1  0
 25 26  2  0
 25 27  1  0
 27 28  1  0
 28 29  1  0
 28 30  1  0
  4 31  1  0
  4 32  1  0
  3 33  1  0
  3 34  1  0
  2 35  1  1
  1 36  1  0
  1 37  1  0
  1 38  1  0
 28  2  1  0
 27  5  1  0
 18  9  1  0
 18 13  1  0
M  CHG  1   7  -1
M  END
>  <cnnaffinities>  (18) 
[4.46416, 4.43168, 4.58701]

>  <score>  (18) 
4.46416

>  <index>  (18) 
17

>  <Smiles>  (18) 
C([C@@]1(C(C(c2c([O-])n(c3c(nc(c4c(c(c(c(c34)[H])[H])[H])[H])[H])[H])c(=O)n2C1([H])[H])([H])[H])([H])[H])[H])([H])([H])[H]

>  <h>  (18) 
<NA>

>  <Training>  (18) 
True

>  <Success>  (18) 
True

>  <enamine_searched>  (18) 
False

>  <enamine_id>  (18) 
nan

$$$$

     RDKit          3D

 56 61  0  0  0  0  0  0  0  0999 V2000
   -7.9196   -3.5586  -24.0834 C   0  0  0  0  0  0  0  0  0  0  0  0
   -8.2842   -2.8362  -22.7898 C   0  0  1  0  0  0  0  0  0  0  0  0
   -7.0542   -2.5790  -21.9070 C   0  0  0  0  0  0  0  0  0  0  0  0
   -7.4018   -1.3798  -21.1749 N   0  0  0  0  0  0  0  0  0  0  0  0
   -6.6101   -0.8173  -20.1452 C   0  0  0  0  0  0  0  0  0  0  0  0
   -6.9203   -1.0656  -18.8333 C   0  0  0  0  0  0  0  0  0  0  0  0
   -6.2264   -0.5723  -17.7811 N   0  0  0  0  0  0  0  0  0  0  0  0
   -5.1943    0.1923  -18.0433 C   0  0  0  0  0  0  0  0  0  0  0  0
   -4.7805    0.5537  -19.3586 C   0  0  0  0  0  0  0  0  0  0  0  0
   -3.6989    1.4426  -19.6019 C   0  0  0  0  0  0  0  0  0  0  0  0
   -3.4218    1.8685  -20.8696 C   0  0  0  0  0  0  0  0  0  0  0  0
   -4.2076    1.4318  -21.9588 C   0  0  0  0  0  0  0  0  0  0  0  0
   -5.1775    0.4734  -21.7592 C   0  0  0  0  0  0  0  0  0  0  0  0
   -5.5264    0.0554  -20.4482 C   0  0  0  0  0  0  0  0  0  0  0  0
   -5.7225    0.0851  -22.6139 H   0  0  0  0  0  0  0  0  0  0  0  0
   -4.0282    1.8433  -22.9458 H   0  0  0  0  0  0  0  0  0  0  0  0
   -2.5999    2.5570  -21.0448 H   0  0  0  0  0  0  0  0  0  0  0  0
   -3.0986    1.7678  -18.7573 H   0  0  0  0  0  0  0  0  0  0  0  0
   -4.6331    0.5787  -17.1918 H   0  0  0  0  0  0  0  0  0  0  0  0
   -7.7812   -1.6862  -18.6009 H   0  0  0  0  0  0  0  0  0  0  0  0
   -8.4771   -0.6870  -21.6855 C   0  0  0  0  0  0  0  0  0  0  0  0
   -8.9201    0.3349  -21.2069 O   0  0  0  0  0  0  0  0  0  0  0  0
   -8.9930   -1.4518  -22.9297 C   0  0  1  0  0  0  0  0  0  0  0  0
   -8.5450   -0.7509  -24.2370 C   0  0  0  0  0  0  0  0  0  0  0  0
   -9.2654    0.4834  -24.4871 N   0  0  0  0  0  0  0  0  0  0  0  0
   -8.5489    1.6984  -24.8512 C   0  0  0  0  0  0  0  0  0  0  0  0
   -8.1713    2.5379  -23.6575 C   0  0  0  0  0  0  0  0  0  0  0  0
   -8.8913    3.5417  -22.9734 C   0  0  0  0  0  0  0  0  0  0  0  0
   -8.0304    3.9991  -22.0063 C   0  0  0  0  0  0  0  0  0  0  0  0
   -6.8982    3.2769  -22.1303 N   0  0  0  0  0  0  0  0  0  0  0  0
   -6.9565    2.3901  -23.1354 N   0  0  0  0  0  0  0  0  0  0  0  0
   -6.0732    3.2881  -21.5475 H   0  0  0  0  0  0  0  0  0  0  0  0
   -8.1626    4.8231  -21.3211 H   0  0  0  0  0  0  0  0  0  0  0  0
   -9.9054    3.8741  -23.1365 H   0  0  0  0  0  0  0  0  0  0  0  0
   -7.6306    1.4145  -25.3809 H   0  0  0  0  0  0  0  0  0  0  0  0
   -9.1927    2.2653  -25.5317 H   0  0  0  0  0  0  0  0  0  0  0  0
  -10.6299    0.5655  -24.3695 C   0  0  0  0  0  0  0  0  0  0  0  0
  -11.2711    1.4969  -24.8352 O   0  0  0  0  0  0  0  0  0  0  0  0
  -11.2781   -0.5424  -23.6076 C   0  0  0  0  0  0  0  0  0  0  0  0
  -12.6712   -0.5530  -23.5465 C   0  0  0  0  0  0  0  0  0  0  0  0
  -13.3326   -1.4611  -22.7511 C   0  0  0  0  0  0  0  0  0  0  0  0
  -12.5582   -2.3403  -22.0051 C   0  0  0  0  0  0  0  0  0  0  0  0
  -13.1830   -3.2072  -21.1958 F   0  0  0  0  0  0  0  0  0  0  0  0
  -11.1801   -2.3604  -22.0562 C   0  0  0  0  0  0  0  0  0  0  0  0
  -10.5090   -1.4786  -22.9048 C   0  0  0  0  0  0  0  0  0  0  0  0
  -10.6487   -3.0580  -21.4212 H   0  0  0  0  0  0  0  0  0  0  0  0
  -14.4137   -1.4815  -22.6785 H   0  0  0  0  0  0  0  0  0  0  0  0
  -13.2061    0.1877  -24.1259 H   0  0  0  0  0  0  0  0  0  0  0  0
   -7.4711   -0.5286  -24.1963 H   0  0  0  0  0  0  0  0  0  0  0  0
   -8.7121   -1.4479  -25.0689 H   0  0  0  0  0  0  0  0  0  0  0  0
   -6.8652   -3.4114  -21.2218 H   0  0  0  0  0  0  0  0  0  0  0  0
   -6.1461   -2.4430  -22.5166 H   0  0  0  0  0  0  0  0  0  0  0  0
   -8.9589   -3.4868  -22.2288 H   0  0  0  0  0  0  0  0  0  0  0  0
   -8.7940   -3.7019  -24.7261 H   0  0  0  0  0  0  0  0  0  0  0  0
   -7.1681   -2.9959  -24.6498 H   0  0  0  0  0  0  0  0  0  0  0  0
   -7.4967   -4.5406  -23.8566 H   0  0  0  0  0  0  0  0  0  0  0  0
  1  2  1  0
  2  3  1  0
  3  4  1  0
  4  5  1  0
  5  6  2  0
  6  7  1  0
  7  8  2  0
  8  9  1  0
  9 10  2  0
 10 11  1  0
 11 12  2  0
 12 13  1  0
 13 14  2  0
 13 15  1  0
 12 16  1  0
 11 17  1  0
 10 18  1  0
  8 19  1  0
  6 20  1  0
  4 21  1  0
 21 22  2  0
 21 23  1  0
 23 24  1  6
 24 25  1  0
 25 26  1  0
 26 27  1  0
 27 28  1  0
 28 29  2  0
 29 30  1  0
 30 31  1  0
 30 32  1  0
 29 33  1  0
 28 34  1  0
 26 35  1  0
 26 36  1  0
 25 37  1  0
 37 38  2  0
 37 39  1  0
 39 40  2  0
 40 41  1  0
 41 42  2  0
 42 43  1  0
 42 44  1  0
 44 45  2  0
 44 46  1  0
 41 47  1  0
 40 48  1  0
 24 49  1  0
 24 50  1  0
  3 51  1  0
  3 52  1  0
  2 53  1  1
  1 54  1  0
  1 55  1  0
  1 56  1  0
 23  2  1  0
 31 27  2  0
 45 39  1  0
 14  5  1  0
 45 23  1  0
 14  9  1  0
M  END
>  <cnnaffinities>  (19) 
[5.73264]

>  <score>  (19) 
5.73264

>  <index>  (19) 
18

>  <Smiles>  (19) 
C([C@]1(C(N(c2c(nc(c3c(c(c(c(c23)[H])[H])[H])[H])[H])[H])C(=O)[C@]21C(N(C(c1c(c(n(n1)[H])[H])[H])([H])[H])C(=O)c1c(c(c(F)c(c21)[H])[H])[H])([H])[H])([H])[H])[H])([H])([H])[H]

>  <h>  (19) 
<NA>

>  <Training>  (19) 
True

>  <Success>  (19) 
True

>  <enamine_searched>  (19) 
False

>  <enamine_id>  (19) 
nan

$$$$

     RDKit          3D

 42 45  0  0  0  0  0  0  0  0999 V2000
   -8.4350    0.6096  -21.4933 O   0  0  0  0  0  0  0  0  0  0  0  0
   -8.3046   -0.5429  -21.8600 C   0  0  0  0  0  0  0  0  0  0  0  0
   -9.1624   -1.1448  -22.9756 C   0  0  1  0  0  0  0  0  0  0  0  0
   -9.3508   -0.1712  -24.1253 C   0  0  0  0  0  0  0  0  0  0  0  0
  -10.6292    0.1601  -24.5745 C   0  0  0  0  0  0  0  0  0  0  0  0
  -10.8053    1.0025  -25.6662 C   0  0  0  0  0  0  0  0  0  0  0  0
   -9.6989    1.5273  -26.3281 C   0  0  0  0  0  0  0  0  0  0  0  0
   -9.9595    2.5908  -27.6685 Cl  0  0  0  0  0  0  0  0  0  0  0  0
   -8.4138    1.1929  -25.8977 C   0  0  0  0  0  0  0  0  0  0  0  0
   -7.0072    1.8214  -26.6927 Cl  0  0  0  0  0  0  0  0  0  0  0  0
   -8.2499    0.3420  -24.8092 C   0  0  0  0  0  0  0  0  0  0  0  0
   -7.2359    0.0875  -24.5053 H   0  0  0  0  0  0  0  0  0  0  0  0
  -11.8009    1.2679  -26.0105 H   0  0  0  0  0  0  0  0  0  0  0  0
  -11.5033   -0.2483  -24.0707 H   0  0  0  0  0  0  0  0  0  0  0  0
   -8.6717   -2.5020  -23.4837 C   0  0  0  0  0  0  0  0  0  0  0  0
   -8.2267   -3.4178  -22.3521 C   0  0  2  0  0  0  0  0  0  0  0  0
   -9.2816   -3.7704  -21.4820 O   0  0  0  0  0  0  0  0  0  0  0  0
   -9.5134   -2.9930  -20.9556 H   0  0  0  0  0  0  0  0  0  0  0  0
   -7.0756   -2.7432  -21.6283 C   0  0  0  0  0  0  0  0  0  0  0  0
   -7.4251   -1.3894  -21.2109 N   0  0  0  0  0  0  0  0  0  0  0  0
   -6.6482   -0.8014  -20.1772 C   0  0  0  0  0  0  0  0  0  0  0  0
   -6.9300   -1.0901  -18.8638 C   0  0  0  0  0  0  0  0  0  0  0  0
   -6.2244   -0.6145  -17.8073 N   0  0  0  0  0  0  0  0  0  0  0  0
   -5.2263    0.1937  -18.0725 C   0  0  0  0  0  0  0  0  0  0  0  0
   -4.8369    0.5856  -19.3894 C   0  0  0  0  0  0  0  0  0  0  0  0
   -3.7042    1.4082  -19.6281 C   0  0  0  0  0  0  0  0  0  0  0  0
   -3.4046    1.8476  -20.8883 C   0  0  0  0  0  0  0  0  0  0  0  0
   -4.2093    1.4456  -21.9847 C   0  0  0  0  0  0  0  0  0  0  0  0
   -5.1901    0.4985  -21.7993 C   0  0  0  0  0  0  0  0  0  0  0  0
   -5.5672    0.0816  -20.4873 C   0  0  0  0  0  0  0  0  0  0  0  0
   -5.6978    0.0658  -22.6600 H   0  0  0  0  0  0  0  0  0  0  0  0
   -4.0113    1.8477  -22.9748 H   0  0  0  0  0  0  0  0  0  0  0  0
   -2.5490    2.4987  -21.0590 H   0  0  0  0  0  0  0  0  0  0  0  0
   -3.1023    1.6944  -18.7690 H   0  0  0  0  0  0  0  0  0  0  0  0
   -4.6457    0.5676  -17.2267 H   0  0  0  0  0  0  0  0  0  0  0  0
   -7.7800   -1.7250  -18.6105 H   0  0  0  0  0  0  0  0  0  0  0  0
   -6.1933   -2.7256  -22.2842 H   0  0  0  0  0  0  0  0  0  0  0  0
   -6.8155   -3.3033  -20.7257 H   0  0  0  0  0  0  0  0  0  0  0  0
   -7.8843   -4.3691  -22.7749 H   0  0  0  0  0  0  0  0  0  0  0  0
   -9.4784   -2.9749  -24.0496 H   0  0  0  0  0  0  0  0  0  0  0  0
   -7.8372   -2.3608  -24.1815 H   0  0  0  0  0  0  0  0  0  0  0  0
  -10.1335   -1.2957  -22.4875 H   0  0  0  0  0  0  0  0  0  0  0  0
  1  2  2  0
  2  3  1  0
  3  4  1  0
  4  5  2  0
  5  6  1  0
  6  7  2  0
  7  8  1  0
  7  9  1  0
  9 10  1  0
  9 11  2  0
 11 12  1  0
  6 13  1  0
  5 14  1  0
  3 15  1  0
 15 16  1  0
 16 17  1  0
 17 18  1  0
 16 19  1  0
 19 20  1  0
 20 21  1  0
 21 22  2  0
 22 23  1  0
 23 24  2  0
 24 25  1  0
 25 26  2  0
 26 27  1  0
 27 28  2  0
 28 29  1  0
 29 30  2  0
 29 31  1  0
 28 32  1  0
 27 33  1  0
 26 34  1  0
 24 35  1  0
 22 36  1  0
 19 37  1  0
 19 38  1  0
 16 39  1  6
 15 40  1  0
 15 41  1  0
  3 42  1  1
 20  2  1  0
 30 21  1  0
 11  4  1  0
 30 25  1  0
M  END
>  <cnnaffinities>  (20) 
[5.06374, 5.46172]

>  <score>  (20) 
5.06374

>  <index>  (20) 
19

>  <Smiles>  (20) 
O=C1[C@@](c2c(c(c(Cl)c(Cl)c2[H])[H])[H])(C([C@](O[H])(C(N1c1c(nc(c2c(c(c(c(c12)[H])[H])[H])[H])[H])[H])([H])[H])[H])([H])[H])[H]

>  <h>  (20) 
<NA>

>  <Training>  (20) 
True

>  <Success>  (20) 
True

>  <enamine_searched>  (20) 
False

>  <enamine_id>  (20) 
nan

$$$$

     RDKit          3D

 66 71  0  0  0  0  0  0  0  0999 V2000
   -6.9134    3.5386  -23.1492 C   0  0  0  0  0  0  0  0  0  0  0  0
   -7.8644    2.9497  -24.0714 N   0  0  0  0  0  0  0  0  0  0  0  0
   -7.4959    1.8566  -24.7823 C   0  0  0  0  0  0  0  0  0  0  0  0
   -6.3537    1.4063  -24.7713 O   0  0  0  0  0  0  0  0  0  0  0  0
   -8.6291    1.2044  -25.5794 C   0  0  0  0  0  0  0  0  0  0  0  0
   -9.3640    0.2827  -24.7321 N   0  0  0  0  0  0  0  0  0  0  0  0
   -8.7922   -1.0201  -24.4617 C   0  0  0  0  0  0  0  0  0  0  0  0
   -8.9739   -1.4886  -22.9975 C   0  0  2  0  0  0  0  0  0  0  0  0
   -8.2233   -0.5479  -22.0272 C   0  0  0  0  0  0  0  0  0  0  0  0
   -8.2920    0.6650  -21.9979 O   0  0  0  0  0  0  0  0  0  0  0  0
   -7.4518   -1.3100  -21.1784 N   0  0  0  0  0  0  0  0  0  0  0  0
   -6.6499   -0.7675  -20.1528 C   0  0  0  0  0  0  0  0  0  0  0  0
   -6.8846   -1.0996  -18.8424 C   0  0  0  0  0  0  0  0  0  0  0  0
   -6.1750   -0.6287  -17.7908 N   0  0  0  0  0  0  0  0  0  0  0  0
   -5.1765    0.1826  -18.0496 C   0  0  0  0  0  0  0  0  0  0  0  0
   -4.7999    0.5801  -19.3643 C   0  0  0  0  0  0  0  0  0  0  0  0
   -3.7194    1.4774  -19.5940 C   0  0  0  0  0  0  0  0  0  0  0  0
   -3.4766    1.9627  -20.8498 C   0  0  0  0  0  0  0  0  0  0  0  0
   -4.2634    1.5263  -21.9422 C   0  0  0  0  0  0  0  0  0  0  0  0
   -5.2571    0.5993  -21.7565 C   0  0  0  0  0  0  0  0  0  0  0  0
   -5.5720    0.1207  -20.4535 C   0  0  0  0  0  0  0  0  0  0  0  0
   -5.8368    0.2719  -22.6124 H   0  0  0  0  0  0  0  0  0  0  0  0
   -4.1071    1.9302  -22.9402 H   0  0  0  0  0  0  0  0  0  0  0  0
   -2.6832    2.6856  -21.0163 H   0  0  0  0  0  0  0  0  0  0  0  0
   -3.1259    1.8014  -18.7418 H   0  0  0  0  0  0  0  0  0  0  0  0
   -4.6119    0.5717  -17.2009 H   0  0  0  0  0  0  0  0  0  0  0  0
   -7.7005   -1.7764  -18.5956 H   0  0  0  0  0  0  0  0  0  0  0  0
   -7.7088   -2.7312  -21.3023 C   0  0  0  0  0  0  0  0  0  0  0  0
   -8.3167   -2.8776  -22.7149 C   0  0  2  0  0  0  0  0  0  0  0  0
   -7.2613   -3.3693  -23.7418 C   0  0  0  0  0  0  0  0  0  0  0  0
   -7.8159   -3.8853  -25.0598 C   0  0  0  0  0  0  0  0  0  0  0  0
   -7.3954   -3.4618  -26.3241 C   0  0  0  0  0  0  0  0  0  0  0  0
   -7.8108   -4.1434  -27.4686 C   0  0  0  0  0  0  0  0  0  0  0  0
   -8.6474   -5.2531  -27.3708 C   0  0  0  0  0  0  0  0  0  0  0  0
   -9.1594   -5.6150  -26.1233 C   0  0  0  0  0  0  0  0  0  0  0  0
   -8.7791   -4.8884  -25.0026 C   0  0  0  0  0  0  0  0  0  0  0  0
   -9.2191   -5.0702  -24.0333 H   0  0  0  0  0  0  0  0  0  0  0  0
   -9.8462   -6.4550  -26.0059 H   0  0  0  0  0  0  0  0  0  0  0  0
   -8.8994   -5.8050  -28.2743 H   0  0  0  0  0  0  0  0  0  0  0  0
   -7.4653   -3.8207  -28.4467 H   0  0  0  0  0  0  0  0  0  0  0  0
   -6.7808   -2.5672  -26.4161 H   0  0  0  0  0  0  0  0  0  0  0  0
   -6.7187   -4.2044  -23.2780 H   0  0  0  0  0  0  0  0  0  0  0  0
   -6.5097   -2.5959  -23.9228 H   0  0  0  0  0  0  0  0  0  0  0  0
   -9.0923   -3.6421  -22.6949 H   0  0  0  0  0  0  0  0  0  0  0  0
   -6.7687   -3.2713  -21.1688 H   0  0  0  0  0  0  0  0  0  0  0  0
   -8.4092   -3.0747  -20.5281 H   0  0  0  0  0  0  0  0  0  0  0  0
  -10.4812   -1.4165  -22.7392 C   0  0  0  0  0  0  0  0  0  0  0  0
  -11.1805   -2.3789  -21.9959 C   0  0  0  0  0  0  0  0  0  0  0  0
  -12.5495   -2.2700  -21.8157 C   0  0  0  0  0  0  0  0  0  0  0  0
  -13.4042   -3.5207  -20.9504 Cl  0  0  0  0  0  0  0  0  0  0  0  0
  -13.2584   -1.1788  -22.3160 C   0  0  0  0  0  0  0  0  0  0  0  0
  -12.5722   -0.2056  -23.0237 C   0  0  0  0  0  0  0  0  0  0  0  0
  -11.2027   -0.3310  -23.2689 C   0  0  0  0  0  0  0  0  0  0  0  0
  -10.5571    0.6636  -24.2018 C   0  0  0  0  0  0  0  0  0  0  0  0
  -11.0672    1.7461  -24.4673 O   0  0  0  0  0  0  0  0  0  0  0  0
  -13.1024    0.6512  -23.4328 H   0  0  0  0  0  0  0  0  0  0  0  0
  -14.3342   -1.1166  -22.1731 H   0  0  0  0  0  0  0  0  0  0  0  0
  -10.6830   -3.2403  -21.5678 H   0  0  0  0  0  0  0  0  0  0  0  0
   -7.7354   -0.9728  -24.7085 H   0  0  0  0  0  0  0  0  0  0  0  0
   -9.2746   -1.7586  -25.1097 H   0  0  0  0  0  0  0  0  0  0  0  0
   -9.3307    1.9450  -25.9697 H   0  0  0  0  0  0  0  0  0  0  0  0
   -8.2013    0.6632  -26.4276 H   0  0  0  0  0  0  0  0  0  0  0  0
   -8.8478    3.0545  -23.8595 H   0  0  0  0  0  0  0  0  0  0  0  0
   -7.3693    4.4027  -22.6618 H   0  0  0  0  0  0  0  0  0  0  0  0
   -6.0203    3.8591  -23.6949 H   0  0  0  0  0  0  0  0  0  0  0  0
   -6.6004    2.8157  -22.3848 H   0  0  0  0  0  0  0  0  0  0  0  0
  1  2  1  0
  2  3  1  0
  3  4  2  0
  3  5  1  0
  5  6  1  0
  6  7  1  0
  8  7  1  6
  8  9  1  0
  9 10  2  0
  9 11  1  0
 11 12  1  0
 12 13  2  0
 13 14  1  0
 14 15  2  0
 15 16  1  0
 16 17  2  0
 17 18  1  0
 18 19  2  0
 19 20  1  0
 20 21  2  0
 20 22  1  0
 19 23  1  0
 18 24  1  0
 17 25  1  0
 15 26  1  0
 13 27  1  0
 11 28  1  0
 28 29  1  0
 29 30  1  0
 30 31  1  0
 31 32  2  0
 32 33  1  0
 33 34  2  0
 34 35  1  0
 35 36  2  0
 36 37  1  0
 35 38  1  0
 34 39  1  0
 33 40  1  0
 32 41  1  0
 30 42  1  0
 30 43  1  0
 29 44  1  1
 28 45  1  0
 28 46  1  0
  8 47  1  0
 47 48  2  0
 48 49  1  0
 49 50  1  0
 49 51  2  0
 51 52  1  0
 52 53  2  0
 53 54  1  0
 54 55  2  0
 52 56  1  0
 51 57  1  0
 48 58  1  0
  7 59  1  0
  7 60  1  0
  5 61  1  0
  5 62  1  0
  2 63  1  0
  1 64  1  0
  1 65  1  0
  1 66  1  0
 54  6  1  0
 29  8  1  0
 36 31  1  0
 53 47  1  0
 21 12  1  0
 21 16  1  0
M  END
>  <cnnaffinities>  (21) 
[5.8014, 6.64025, 6.58428]

>  <score>  (21) 
5.8014

>  <index>  (21) 
20

>  <Smiles>  (21) 
C(N(C(=O)C(N1C([C@@]2(C(=O)N(c3c(nc(c4c(c(c(c(c34)[H])[H])[H])[H])[H])[H])C([C@@]2(C(c2c(c(c(c(c2[H])[H])[H])[H])[H])([H])[H])[H])([H])[H])c2c(c(Cl)c(c(c2C1=O)[H])[H])[H])([H])[H])([H])[H])[H])([H])([H])[H]

>  <h>  (21) 
<NA>

>  <Training>  (21) 
True

>  <Success>  (21) 
True

>  <enamine_searched>  (21) 
False

>  <enamine_id>  (21) 
nan

$$$$

     RDKit          3D

 63 68  0  0  0  0  0  0  0  0999 V2000
   -8.3375   -4.1723  -23.4561 C   0  0  0  0  0  0  0  0  0  0  0  0
   -8.5459   -2.9971  -22.5189 C   0  0  1  0  0  0  0  0  0  0  0  0
   -7.4073   -2.7980  -21.5109 C   0  0  0  0  0  0  0  0  0  0  0  0
   -7.4604   -1.3743  -21.2229 N   0  0  0  0  0  0  0  0  0  0  0  0
   -6.6779   -0.7797  -20.2026 C   0  0  0  0  0  0  0  0  0  0  0  0
   -6.9296   -1.1003  -18.8911 C   0  0  0  0  0  0  0  0  0  0  0  0
   -6.2358   -0.6251  -17.8302 N   0  0  0  0  0  0  0  0  0  0  0  0
   -5.2215    0.1651  -18.0830 C   0  0  0  0  0  0  0  0  0  0  0  0
   -4.8321    0.5621  -19.3914 C   0  0  0  0  0  0  0  0  0  0  0  0
   -3.7470    1.4575  -19.5912 C   0  0  0  0  0  0  0  0  0  0  0  0
   -3.4889    1.9554  -20.8365 C   0  0  0  0  0  0  0  0  0  0  0  0
   -4.2608    1.5347  -21.9432 C   0  0  0  0  0  0  0  0  0  0  0  0
   -5.2739    0.6250  -21.7843 C   0  0  0  0  0  0  0  0  0  0  0  0
   -5.6009    0.1218  -20.4924 C   0  0  0  0  0  0  0  0  0  0  0  0
   -5.8280    0.2860  -22.6526 H   0  0  0  0  0  0  0  0  0  0  0  0
   -4.0438    1.9280  -22.9318 H   0  0  0  0  0  0  0  0  0  0  0  0
   -2.6807    2.6655  -20.9885 H   0  0  0  0  0  0  0  0  0  0  0  0
   -3.1539    1.7546  -18.7287 H   0  0  0  0  0  0  0  0  0  0  0  0
   -4.6610    0.5478  -17.2302 H   0  0  0  0  0  0  0  0  0  0  0  0
   -7.7449   -1.7802  -18.6499 H   0  0  0  0  0  0  0  0  0  0  0  0
   -8.1956   -0.6509  -22.1404 C   0  0  0  0  0  0  0  0  0  0  0  0
   -8.3260    0.5576  -22.1225 O   0  0  0  0  0  0  0  0  0  0  0  0
   -8.7646   -1.6019  -23.2060 C   0  0  1  0  0  0  0  0  0  0  0  0
   -7.9483   -1.3319  -24.5015 C   0  0  0  0  0  0  0  0  0  0  0  0
   -8.5745   -1.8466  -25.7172 N   0  0  0  0  0  0  0  0  0  0  0  0
   -7.7547   -2.1988  -26.8690 C   0  0  0  0  0  0  0  0  0  0  0  0
   -7.7060   -3.7216  -27.0068 C   0  0  0  0  0  0  0  0  0  0  0  0
   -6.8811   -4.4057  -26.4196 O   0  0  0  0  0  0  0  0  0  0  0  0
   -8.6670   -4.2480  -27.8157 N   0  0  0  0  0  0  0  0  0  0  0  0
   -8.7663   -5.6905  -27.9083 C   0  0  0  0  0  0  0  0  0  0  0  0
   -9.1311   -6.3425  -26.5896 C   0  0  0  0  0  0  0  0  0  0  0  0
   -9.3953   -7.8150  -26.5926 C   0  0  0  0  0  0  0  0  0  0  0  0
   -8.2131   -7.2731  -25.8501 C   0  0  0  0  0  0  0  0  0  0  0  0
   -8.2414   -7.2320  -24.7641 H   0  0  0  0  0  0  0  0  0  0  0  0
   -7.2347   -7.4763  -26.2735 H   0  0  0  0  0  0  0  0  0  0  0  0
   -9.1989   -8.3594  -27.5128 H   0  0  0  0  0  0  0  0  0  0  0  0
  -10.2463   -8.1923  -26.0434 H   0  0  0  0  0  0  0  0  0  0  0  0
   -9.7837   -5.7425  -25.9501 H   0  0  0  0  0  0  0  0  0  0  0  0
   -9.5322   -5.9103  -28.6638 H   0  0  0  0  0  0  0  0  0  0  0  0
   -7.8131   -6.0990  -28.2732 H   0  0  0  0  0  0  0  0  0  0  0  0
   -9.5123   -3.6958  -27.9315 H   0  0  0  0  0  0  0  0  0  0  0  0
   -6.7467   -1.8081  -26.7275 H   0  0  0  0  0  0  0  0  0  0  0  0
   -8.1805   -1.7488  -27.7739 H   0  0  0  0  0  0  0  0  0  0  0  0
   -9.9164   -1.7984  -25.9358 C   0  0  0  0  0  0  0  0  0  0  0  0
  -10.4004   -2.0604  -27.0409 O   0  0  0  0  0  0  0  0  0  0  0  0
  -10.7673   -1.4379  -24.7734 C   0  0  0  0  0  0  0  0  0  0  0  0
  -12.1295   -1.2490  -25.0000 C   0  0  0  0  0  0  0  0  0  0  0  0
  -12.9850   -0.9508  -23.9622 C   0  0  0  0  0  0  0  0  0  0  0  0
  -12.4512   -0.8692  -22.6849 C   0  0  0  0  0  0  0  0  0  0  0  0
  -13.2978   -0.6234  -21.6784 F   0  0  0  0  0  0  0  0  0  0  0  0
  -11.1040   -1.0472  -22.4298 C   0  0  0  0  0  0  0  0  0  0  0  0
  -10.2305   -1.3304  -23.4866 C   0  0  0  0  0  0  0  0  0  0  0  0
  -10.7333   -0.9586  -21.4170 H   0  0  0  0  0  0  0  0  0  0  0  0
  -14.0468   -0.7935  -24.1158 H   0  0  0  0  0  0  0  0  0  0  0  0
  -12.5103   -1.3496  -26.0082 H   0  0  0  0  0  0  0  0  0  0  0  0
   -7.8299   -0.2419  -24.5901 H   0  0  0  0  0  0  0  0  0  0  0  0
   -6.9459   -1.7712  -24.4081 H   0  0  0  0  0  0  0  0  0  0  0  0
   -7.5558   -3.3861  -20.5985 H   0  0  0  0  0  0  0  0  0  0  0  0
   -6.4283   -3.0878  -21.9226 H   0  0  0  0  0  0  0  0  0  0  0  0
   -9.4563   -3.1727  -21.9267 H   0  0  0  0  0  0  0  0  0  0  0  0
   -9.1754   -4.2468  -24.1569 H   0  0  0  0  0  0  0  0  0  0  0  0
   -8.2728   -5.1214  -22.9085 H   0  0  0  0  0  0  0  0  0  0  0  0
   -7.4246   -4.0534  -24.0480 H   0  0  0  0  0  0  0  0  0  0  0  0
  1  2  1  0
  2  3  1  0
  3  4  1  0
  4  5  1  0
  5  6  2  0
  6  7  1  0
  7  8  2  0
  8  9  1  0
  9 10  2  0
 10 11  1  0
 11 12  2  0
 12 13  1  0
 13 14  2  0
 13 15  1  0
 12 16  1  0
 11 17  1  0
 10 18  1  0
  8 19  1  0
  6 20  1  0
  4 21  1  0
 21 22  2  0
 21 23  1  0
 23 24  1  6
 24 25  1  0
 25 26  1  0
 26 27  1  0
 27 28  2  0
 27 29  1  0
 29 30  1  0
 30 31  1  0
 31 32  1  0
 32 33  1  0
 33 34  1  0
 33 35  1  0
 32 36  1  0
 32 37  1  0
 31 38  1  0
 30 39  1  0
 30 40  1  0
 29 41  1  0
 26 42  1  0
 26 43  1  0
 25 44  1  0
 44 45  2  0
 44 46  1  0
 46 47  2  0
 47 48  1  0
 48 49  2  0
 49 50  1  0
 49 51  1  0
 51 52  2  0
 51 53  1  0
 48 54  1  0
 47 55  1  0
 24 56  1  0
 24 57  1  0
  3 58  1  0
  3 59  1  0
  2 60  1  1
  1 61  1  0
  1 62  1  0
  1 63  1  0
 23  2  1  0
 33 31  1  0
 52 46  1  0
 14  5  1  0
 52 23  1  0
 14  9  1  0
M  END
>  <cnnaffinities>  (22) 
[5.71049, 6.51827]

>  <score>  (22) 
5.71049

>  <index>  (22) 
21

>  <Smiles>  (22) 
C([C@]1(C(N(c2c(nc(c3c(c(c(c(c23)[H])[H])[H])[H])[H])[H])C(=O)[C@]21C(N(C(C(=O)N(C(C1(C(C1([H])[H])([H])[H])[H])([H])[H])[H])([H])[H])C(=O)c1c(c(c(F)c(c21)[H])[H])[H])([H])[H])([H])[H])[H])([H])([H])[H]

>  <h>  (22) 
<NA>

>  <Training>  (22) 
True

>  <Success>  (22) 
True

>  <enamine_searched>  (22) 
False

>  <enamine_id>  (22) 
nan

$$$$

     RDKit          3D

 68 73  0  0  0  0  0  0  0  0999 V2000
   -7.5689    3.1453  -22.0206 C   0  0  0  0  0  0  0  0  0  0  0  0
   -8.7073    2.5978  -22.7486 N   0  0  0  0  0  0  0  0  0  0  0  0
   -8.4546    1.7943  -23.8240 C   0  0  0  0  0  0  0  0  0  0  0  0
   -7.3150    1.5385  -24.1837 O   0  0  0  0  0  0  0  0  0  0  0  0
   -9.6416    1.1903  -24.5836 C   0  0  0  0  0  0  0  0  0  0  0  0
  -10.0936   -0.0225  -23.9305 N   0  0  0  0  0  0  0  0  0  0  0  0
   -9.2176   -1.1851  -23.9101 C   0  0  0  0  0  0  0  0  0  0  0  0
   -9.3034   -1.9250  -22.5481 C   0  0  2  0  0  0  0  0  0  0  0  0
   -8.7172   -0.9859  -21.4586 C   0  0  0  0  0  0  0  0  0  0  0  0
   -9.2463   -0.0026  -20.9743 O   0  0  0  0  0  0  0  0  0  0  0  0
   -7.4406   -1.4155  -21.1550 N   0  0  0  0  0  0  0  0  0  0  0  0
   -6.6604   -0.8020  -20.1428 C   0  0  0  0  0  0  0  0  0  0  0  0
   -6.9459   -1.0570  -18.8225 C   0  0  0  0  0  0  0  0  0  0  0  0
   -6.2313   -0.5765  -17.7777 N   0  0  0  0  0  0  0  0  0  0  0  0
   -5.1858    0.1679  -18.0525 C   0  0  0  0  0  0  0  0  0  0  0  0
   -4.7942    0.5414  -19.3696 C   0  0  0  0  0  0  0  0  0  0  0  0
   -3.7124    1.4324  -19.6054 C   0  0  0  0  0  0  0  0  0  0  0  0
   -3.4522    1.8845  -20.8715 C   0  0  0  0  0  0  0  0  0  0  0  0
   -4.2550    1.4680  -21.9553 C   0  0  0  0  0  0  0  0  0  0  0  0
   -5.2643    0.5500  -21.7635 C   0  0  0  0  0  0  0  0  0  0  0  0
   -5.5701    0.0725  -20.4586 C   0  0  0  0  0  0  0  0  0  0  0  0
   -5.8739    0.2489  -22.6094 H   0  0  0  0  0  0  0  0  0  0  0  0
   -4.0638    1.8601  -22.9510 H   0  0  0  0  0  0  0  0  0  0  0  0
   -2.6463    2.5901  -21.0447 H   0  0  0  0  0  0  0  0  0  0  0  0
   -3.1186    1.7589  -18.7559 H   0  0  0  0  0  0  0  0  0  0  0  0
   -4.6219    0.5655  -17.2088 H   0  0  0  0  0  0  0  0  0  0  0  0
   -7.7869   -1.6986  -18.5681 H   0  0  0  0  0  0  0  0  0  0  0  0
   -6.9946   -2.5313  -21.9649 C   0  0  0  0  0  0  0  0  0  0  0  0
   -8.3219   -3.1263  -22.4531 C   0  0  2  0  0  0  0  0  0  0  0  0
   -8.1999   -3.9831  -23.7265 C   0  0  0  0  0  0  0  0  0  0  0  0
   -7.5451   -5.2721  -23.5636 N   0  0  0  0  0  0  0  0  0  0  0  0
   -6.1637   -5.4060  -23.3950 C   0  0  0  0  0  0  0  0  0  0  0  0
   -5.6859   -6.4854  -22.6343 C   0  0  0  0  0  0  0  0  0  0  0  0
   -4.3268   -6.6801  -22.4440 C   0  0  0  0  0  0  0  0  0  0  0  0
   -3.4006   -5.8131  -23.0134 C   0  0  0  0  0  0  0  0  0  0  0  0
   -3.8607   -4.7565  -23.7893 C   0  0  0  0  0  0  0  0  0  0  0  0
   -5.2227   -4.5487  -23.9890 C   0  0  0  0  0  0  0  0  0  0  0  0
   -5.5386   -3.7213  -24.6214 H   0  0  0  0  0  0  0  0  0  0  0  0
   -3.1481   -4.0803  -24.2548 H   0  0  0  0  0  0  0  0  0  0  0  0
   -2.3374   -5.9658  -22.8605 H   0  0  0  0  0  0  0  0  0  0  0  0
   -3.9973   -7.5287  -21.8497 H   0  0  0  0  0  0  0  0  0  0  0  0
   -6.4032   -7.1803  -22.1981 H   0  0  0  0  0  0  0  0  0  0  0  0
   -8.0618   -5.9074  -22.9695 H   0  0  0  0  0  0  0  0  0  0  0  0
   -9.2109   -4.1757  -24.1090 H   0  0  0  0  0  0  0  0  0  0  0  0
   -7.6652   -3.4164  -24.5004 H   0  0  0  0  0  0  0  0  0  0  0  0
   -8.6710   -3.7614  -21.6307 H   0  0  0  0  0  0  0  0  0  0  0  0
   -6.3662   -2.1955  -22.8060 H   0  0  0  0  0  0  0  0  0  0  0  0
   -6.3940   -3.2391  -21.3856 H   0  0  0  0  0  0  0  0  0  0  0  0
  -10.7744   -2.2410  -22.3175 C   0  0  0  0  0  0  0  0  0  0  0  0
  -11.2255   -3.3841  -21.6413 C   0  0  0  0  0  0  0  0  0  0  0  0
  -12.5649   -3.5222  -21.3077 C   0  0  0  0  0  0  0  0  0  0  0  0
  -13.0719   -4.8629  -20.3084 Cl  0  0  0  0  0  0  0  0  0  0  0  0
  -13.5179   -2.5842  -21.7002 C   0  0  0  0  0  0  0  0  0  0  0  0
  -13.0926   -1.4833  -22.4152 C   0  0  0  0  0  0  0  0  0  0  0  0
  -11.7444   -1.3102  -22.7190 C   0  0  0  0  0  0  0  0  0  0  0  0
  -11.3835   -0.0773  -23.4856 C   0  0  0  0  0  0  0  0  0  0  0  0
  -12.1956    0.8141  -23.6941 O   0  0  0  0  0  0  0  0  0  0  0  0
  -13.7918   -0.7321  -22.7645 H   0  0  0  0  0  0  0  0  0  0  0  0
  -14.5640   -2.7227  -21.4464 H   0  0  0  0  0  0  0  0  0  0  0  0
  -10.5430   -4.1562  -21.3126 H   0  0  0  0  0  0  0  0  0  0  0  0
   -9.4942   -1.8663  -24.7268 H   0  0  0  0  0  0  0  0  0  0  0  0
   -8.1993   -0.8297  -24.0900 H   0  0  0  0  0  0  0  0  0  0  0  0
   -9.3228    0.9775  -25.6174 H   0  0  0  0  0  0  0  0  0  0  0  0
  -10.5018    1.8630  -24.6198 H   0  0  0  0  0  0  0  0  0  0  0  0
   -9.5620    2.4536  -22.2264 H   0  0  0  0  0  0  0  0  0  0  0  0
   -7.8911    3.9538  -21.3628 H   0  0  0  0  0  0  0  0  0  0  0  0
   -6.8302    3.5275  -22.7335 H   0  0  0  0  0  0  0  0  0  0  0  0
   -7.0879    2.3737  -21.4105 H   0  0  0  0  0  0  0  0  0  0  0  0
  1  2  1  0
  2  3  1  0
  3  4  2  0
  3  5  1  0
  5  6  1  0
  6  7  1  0
  8  7  1  6
  8  9  1  0
  9 10  2  0
  9 11  1  0
 11 12  1  0
 12 13  2  0
 13 14  1  0
 14 15  2  0
 15 16  1  0
 16 17  2  0
 17 18  1  0
 18 19  2  0
 19 20  1  0
 20 21  2  0
 20 22  1  0
 19 23  1  0
 18 24  1  0
 17 25  1  0
 15 26  1  0
 13 27  1  0
 11 28  1  0
 28 29  1  0
 29 30  1  0
 30 31  1  0
 31 32  1  0
 32 33  2  0
 33 34  1  0
 34 35  2  0
 35 36  1  0
 36 37  2  0
 37 38  1  0
 36 39  1  0
 35 40  1  0
 34 41  1  0
 33 42  1  0
 31 43  1  0
 30 44  1  0
 30 45  1  0
 29 46  1  1
 28 47  1  0
 28 48  1  0
  8 49  1  0
 49 50  2  0
 50 51  1  0
 51 52  1  0
 51 53  2  0
 53 54  1  0
 54 55  2  0
 55 56  1  0
 56 57  2  0
 54 58  1  0
 53 59  1  0
 50 60  1  0
  7 61  1  0
  7 62  1  0
  5 63  1  0
  5 64  1  0
  2 65  1  0
  1 66  1  0
  1 67  1  0
  1 68  1  0
 56  6  1  0
 29  8  1  0
 37 32  1  0
 55 49  1  0
 21 12  1  0
 21 16  1  0
M  END
>  <cnnaffinities>  (23) 
[6.93082]

>  <score>  (23) 
6.93082

>  <index>  (23) 
23

>  <Smiles>  (23) 
C(N(C(=O)C(N1C([C@@]2(C(=O)N(c3c(nc(c4c(c(c(c(c34)[H])[H])[H])[H])[H])[H])C([C@@]2(C(N(c2c(c(c(c(c2[H])[H])[H])[H])[H])[H])([H])[H])[H])([H])[H])c2c(c(Cl)c(c(c2C1=O)[H])[H])[H])([H])[H])([H])[H])[H])([H])([H])[H]

>  <h>  (23) 
<NA>

>  <Training>  (23) 
True

>  <Success>  (23) 
True

>  <enamine_searched>  (23) 
False

>  <enamine_id>  (23) 
nan

$$$$

     RDKit          3D

 65 70  0  0  0  0  0  0  0  0999 V2000
   -4.7794   -7.1731  -23.6105 O   0  0  0  0  0  0  0  0  0  0  0  0
   -5.8319   -7.0360  -24.2118 C   0  0  0  0  0  0  0  0  0  0  0  0
   -7.0807   -6.4207  -23.5657 C   0  0  0  0  0  0  0  0  0  0  0  0
   -7.1565   -4.9643  -23.8084 N   0  0  1  0  0  4  0  0  0  0  0  0
   -7.2901   -4.6402  -25.2752 C   0  0  0  0  0  0  0  0  0  0  0  0
   -7.2417   -3.1643  -25.5224 C   0  0  0  0  0  0  0  0  0  0  0  0
   -6.8706   -2.6754  -26.7717 C   0  0  0  0  0  0  0  0  0  0  0  0
   -6.8133   -1.3130  -27.0157 C   0  0  0  0  0  0  0  0  0  0  0  0
   -7.1185   -0.4362  -25.9809 C   0  0  0  0  0  0  0  0  0  0  0  0
   -7.0089    1.2790  -26.2674 Cl  0  0  0  0  0  0  0  0  0  0  0  0
   -7.5131   -0.9054  -24.7376 C   0  0  0  0  0  0  0  0  0  0  0  0
   -7.6156   -2.2835  -24.5121 C   0  0  0  0  0  0  0  0  0  0  0  0
   -8.0666   -2.8006  -23.1575 C   0  0  2  0  0  0  0  0  0  0  0  0
   -9.2486   -2.0321  -22.5598 C   0  0  0  0  0  0  0  0  0  0  0  0
   -8.6676   -1.1371  -21.4613 C   0  0  0  0  0  0  0  0  0  0  0  0
   -7.2864   -1.5523  -21.3158 N   0  0  0  0  0  0  0  0  0  0  0  0
   -6.5137   -0.9704  -20.2790 C   0  0  0  0  0  0  0  0  0  0  0  0
   -6.8792   -1.1897  -18.9751 C   0  0  0  0  0  0  0  0  0  0  0  0
   -6.2426   -0.6795  -17.8957 N   0  0  0  0  0  0  0  0  0  0  0  0
   -5.2382    0.1368  -18.1210 C   0  0  0  0  0  0  0  0  0  0  0  0
   -4.8127    0.5265  -19.4230 C   0  0  0  0  0  0  0  0  0  0  0  0
   -3.7746    1.4777  -19.6097 C   0  0  0  0  0  0  0  0  0  0  0  0
   -3.5412    2.0108  -20.8505 C   0  0  0  0  0  0  0  0  0  0  0  0
   -4.3024    1.5784  -21.9607 C   0  0  0  0  0  0  0  0  0  0  0  0
   -5.2499    0.5952  -21.8220 C   0  0  0  0  0  0  0  0  0  0  0  0
   -5.5129    0.0222  -20.5437 C   0  0  0  0  0  0  0  0  0  0  0  0
   -5.8268    0.2720  -22.6846 H   0  0  0  0  0  0  0  0  0  0  0  0
   -4.1305    2.0244  -22.9374 H   0  0  0  0  0  0  0  0  0  0  0  0
   -2.7760    2.7702  -20.9871 H   0  0  0  0  0  0  0  0  0  0  0  0
   -3.2035    1.7993  -18.7428 H   0  0  0  0  0  0  0  0  0  0  0  0
   -4.7232    0.5505  -17.2536 H   0  0  0  0  0  0  0  0  0  0  0  0
   -7.7393   -1.8222  -18.7543 H   0  0  0  0  0  0  0  0  0  0  0  0
   -6.9244   -2.5647  -22.1628 C   0  0  0  0  0  0  0  0  0  0  0  0
   -5.9072   -3.2387  -22.1382 O   0  0  0  0  0  0  0  0  0  0  0  0
   -8.7274   -0.0677  -21.6948 H   0  0  0  0  0  0  0  0  0  0  0  0
   -9.1899   -1.3001  -20.5272 H   0  0  0  0  0  0  0  0  0  0  0  0
   -9.7852   -1.4581  -23.3174 H   0  0  0  0  0  0  0  0  0  0  0  0
   -9.9709   -2.7363  -22.1291 H   0  0  0  0  0  0  0  0  0  0  0  0
   -8.3148   -4.3132  -23.1352 C   0  0  0  0  0  0  0  0  0  0  0  0
   -9.2515   -4.5876  -23.6398 H   0  0  0  0  0  0  0  0  0  0  0  0
   -8.3813   -4.6506  -22.0960 H   0  0  0  0  0  0  0  0  0  0  0  0
   -7.7502   -0.1867  -23.9590 H   0  0  0  0  0  0  0  0  0  0  0  0
   -6.5300   -0.9265  -27.9873 H   0  0  0  0  0  0  0  0  0  0  0  0
   -6.6288   -3.3756  -27.5701 H   0  0  0  0  0  0  0  0  0  0  0  0
   -8.2534   -5.0497  -25.6146 H   0  0  0  0  0  0  0  0  0  0  0  0
   -6.5022   -5.1376  -25.8335 H   0  0  0  0  0  0  0  0  0  0  0  0
   -6.3044   -4.5084  -23.4003 H   0  0  0  0  0  0  0  0  0  0  0  0
   -7.0291   -6.6204  -22.4952 H   0  0  0  0  0  0  0  0  0  0  0  0
   -7.9898   -6.8974  -23.9585 H   0  0  0  0  0  0  0  0  0  0  0  0
   -5.9900   -7.3689  -25.5334 N   0  0  0  0  0  0  0  0  0  0  0  0
   -4.9791   -8.1059  -26.2703 C   0  0  0  0  0  0  0  0  0  0  0  0
   -3.9899   -7.1798  -26.9520 C   0  0  1  0  0  0  0  0  0  0  0  0
   -3.0091   -7.8841  -27.9230 C   0  0  0  0  0  0  0  0  0  0  0  0
   -3.5542   -7.0169  -29.0796 C   0  0  1  0  0  0  0  0  0  0  0  0
   -4.1496   -7.7505  -30.0983 F   0  0  0  0  0  0  0  0  0  0  0  0
   -4.5783   -6.3623  -28.1327 C   0  0  0  0  0  0  0  0  0  0  0  0
   -5.5960   -6.6627  -28.4049 H   0  0  0  0  0  0  0  0  0  0  0  0
   -4.5720   -5.2669  -28.0324 H   0  0  0  0  0  0  0  0  0  0  0  0
   -2.8292   -6.3453  -29.5493 H   0  0  0  0  0  0  0  0  0  0  0  0
   -1.9430   -7.7780  -27.6855 H   0  0  0  0  0  0  0  0  0  0  0  0
   -3.2197   -8.9497  -28.0666 H   0  0  0  0  0  0  0  0  0  0  0  0
   -3.4943   -6.5692  -26.1931 H   0  0  0  0  0  0  0  0  0  0  0  0
   -5.4727   -8.7114  -27.0418 H   0  0  0  0  0  0  0  0  0  0  0  0
   -4.4507   -8.7948  -25.6050 H   0  0  0  0  0  0  0  0  0  0  0  0
   -6.9090   -7.3376  -25.9436 H   0  0  0  0  0  0  0  0  0  0  0  0
  1  2  2  0
  2  3  1  0
  3  4  1  0
  4  5  1  0
  5  6  1  0
  6  7  2  0
  7  8  1  0
  8  9  2  0
  9 10  1  0
  9 11  1  0
 11 12  2  0
 12 13  1  0
 13 14  1  1
 14 15  1  0
 15 16  1  0
 16 17  1  0
 17 18  2  0
 18 19  1  0
 19 20  2  0
 20 21  1  0
 21 22  2  0
 22 23  1  0
 23 24  2  0
 24 25  1  0
 25 26  2  0
 25 27  1  0
 24 28  1  0
 23 29  1  0
 22 30  1  0
 20 31  1  0
 18 32  1  0
 16 33  1  0
 33 34  2  0
 15 35  1  0
 15 36  1  0
 14 37  1  0
 14 38  1  0
 13 39  1  0
 39 40  1  0
 39 41  1  0
 11 42  1  0
  8 43  1  0
  7 44  1  0
  5 45  1  0
  5 46  1  0
  4 47  1  1
  3 48  1  0
  3 49  1  0
  2 50  1  0
 50 51  1  0
 51 52  1  0
 52 53  1  0
 53 54  1  0
 54 55  1  0
 54 56  1  0
 56 57  1  0
 56 58  1  0
 54 59  1  6
 53 60  1  0
 53 61  1  0
 52 62  1  1
 51 63  1  0
 51 64  1  0
 50 65  1  0
 39  4  1  0
 56 52  1  0
 12  6  1  0
 33 13  1  0
 26 17  1  0
 26 21  1  0
M  CHG  1   4   1
M  END
>  <cnnaffinities>  (24) 
[5.93881, 5.8147]

>  <score>  (24) 
5.93881

>  <index>  (24) 
24

>  <Smiles>  (24) 
O=C(C([N@+]1(C(c2c(c(c(Cl)c(c2[C@@]2(C(C(N(c3c(nc(c4c(c(c(c(c34)[H])[H])[H])[H])[H])[H])C2=O)([H])[H])([H])[H])C1([H])[H])[H])[H])[H])([H])[H])[H])([H])[H])N(C([C@]1(C([C@@](F)(C1([H])[H])[H])([H])[H])[H])([H])[H])[H]

>  <h>  (24) 
<NA>

>  <Training>  (24) 
True

>  <Success>  (24) 
True

>  <enamine_searched>  (24) 
False

>  <enamine_id>  (24) 
nan

$$$$

     RDKit          3D

 70 75  0  0  0  0  0  0  0  0999 V2000
   -5.5926   -7.3983  -25.7072 O   0  0  0  0  0  0  0  0  0  0  0  0
   -5.5800   -7.0182  -24.5490 C   0  0  0  0  0  0  0  0  0  0  0  0
   -6.7987   -6.3749  -23.8723 C   0  0  0  0  0  0  0  0  0  0  0  0
   -6.8024   -4.8776  -23.9569 N   0  0  1  0  0  4  0  0  0  0  0  0
   -6.7656   -4.5036  -25.4316 C   0  0  0  0  0  0  0  0  0  0  0  0
   -6.7829   -3.0170  -25.6349 C   0  0  0  0  0  0  0  0  0  0  0  0
   -6.2875   -2.4727  -26.8196 C   0  0  0  0  0  0  0  0  0  0  0  0
   -6.3043   -1.1034  -27.0373 C   0  0  0  0  0  0  0  0  0  0  0  0
   -6.8201   -0.2735  -26.0483 C   0  0  0  0  0  0  0  0  0  0  0  0
   -6.8408    1.4473  -26.2989 Cl  0  0  0  0  0  0  0  0  0  0  0  0
   -7.3101   -0.7994  -24.8638 C   0  0  0  0  0  0  0  0  0  0  0  0
   -7.3046   -2.1788  -24.6532 C   0  0  0  0  0  0  0  0  0  0  0  0
   -7.8150   -2.7046  -23.3271 C   0  0  2  0  0  0  0  0  0  0  0  0
   -6.8173   -2.3704  -22.2197 C   0  0  0  0  0  0  0  0  0  0  0  0
   -5.7228   -2.9067  -22.2012 O   0  0  0  0  0  0  0  0  0  0  0  0
   -7.2822   -1.4724  -21.2780 N   0  0  0  0  0  0  0  0  0  0  0  0
   -6.5554   -0.8634  -20.2216 C   0  0  0  0  0  0  0  0  0  0  0  0
   -6.9057   -1.0805  -18.9092 C   0  0  0  0  0  0  0  0  0  0  0  0
   -6.2225   -0.5954  -17.8401 N   0  0  0  0  0  0  0  0  0  0  0  0
   -5.1995    0.1897  -18.0783 C   0  0  0  0  0  0  0  0  0  0  0  0
   -4.7888    0.5669  -19.3870 C   0  0  0  0  0  0  0  0  0  0  0  0
   -3.6732    1.4152  -19.6131 C   0  0  0  0  0  0  0  0  0  0  0  0
   -3.3743    1.8471  -20.8754 C   0  0  0  0  0  0  0  0  0  0  0  0
   -4.1729    1.4470  -21.9752 C   0  0  0  0  0  0  0  0  0  0  0  0
   -5.1635    0.5112  -21.8036 C   0  0  0  0  0  0  0  0  0  0  0  0
   -5.4992    0.0571  -20.4967 C   0  0  0  0  0  0  0  0  0  0  0  0
   -5.7028    0.1136  -22.6593 H   0  0  0  0  0  0  0  0  0  0  0  0
   -3.9481    1.8172  -22.9726 H   0  0  0  0  0  0  0  0  0  0  0  0
   -2.5145    2.4914  -21.0486 H   0  0  0  0  0  0  0  0  0  0  0  0
   -3.0856    1.7214  -18.7516 H   0  0  0  0  0  0  0  0  0  0  0  0
   -4.6415    0.5745  -17.2204 H   0  0  0  0  0  0  0  0  0  0  0  0
   -7.7654   -1.7026  -18.6509 H   0  0  0  0  0  0  0  0  0  0  0  0
   -8.2872   -1.3978  -21.2061 H   0  0  0  0  0  0  0  0  0  0  0  0
   -8.0110   -4.2217  -23.3182 C   0  0  0  0  0  0  0  0  0  0  0  0
   -8.9093   -4.4940  -23.8784 H   0  0  0  0  0  0  0  0  0  0  0  0
   -8.1187   -4.5678  -22.2868 H   0  0  0  0  0  0  0  0  0  0  0  0
   -8.7511   -2.1985  -23.0808 H   0  0  0  0  0  0  0  0  0  0  0  0
   -7.6896   -0.1329  -24.0956 H   0  0  0  0  0  0  0  0  0  0  0  0
   -5.9225   -0.6800  -27.9593 H   0  0  0  0  0  0  0  0  0  0  0  0
   -5.8810   -3.1338  -27.5837 H   0  0  0  0  0  0  0  0  0  0  0  0
   -7.6384   -4.9788  -25.8979 H   0  0  0  0  0  0  0  0  0  0  0  0
   -5.8900   -4.9599  -25.8933 H   0  0  0  0  0  0  0  0  0  0  0  0
   -5.9794   -4.4524  -23.4668 H   0  0  0  0  0  0  0  0  0  0  0  0
   -7.6576   -6.7822  -24.4164 H   0  0  0  0  0  0  0  0  0  0  0  0
   -6.8525   -6.7147  -22.8348 H   0  0  0  0  0  0  0  0  0  0  0  0
   -4.4769   -7.1340  -23.7490 N   0  0  0  0  0  0  0  0  0  0  0  0
   -3.2715   -7.7492  -24.1678 C   0  0  0  0  0  0  0  0  0  0  0  0
   -2.0514   -7.1102  -23.9509 C   0  0  0  0  0  0  0  0  0  0  0  0
   -0.8769   -7.7108  -24.3814 C   0  0  0  0  0  0  0  0  0  0  0  0
   -0.9093   -8.9485  -25.0240 C   0  0  0  0  0  0  0  0  0  0  0  0
    0.3057   -9.5485  -25.4706 N   0  0  0  0  0  0  0  0  0  0  0  0
    1.3183   -9.8685  -24.4706 C   0  0  0  0  0  0  0  0  0  0  0  0
    2.6375  -10.2261  -25.1337 C   0  0  0  0  0  0  0  0  0  0  0  0
    2.4080  -11.1806  -26.1413 O   0  0  0  0  0  0  0  0  0  0  0  0
    1.6825  -10.6195  -27.2001 C   0  0  0  0  0  0  0  0  0  0  0  0
    0.3883   -9.9380  -26.7828 C   0  0  0  0  0  0  0  0  0  0  0  0
   -0.4842   -9.7106  -27.6026 O   0  0  0  0  0  0  0  0  0  0  0  0
    2.2783   -9.8663  -27.7380 H   0  0  0  0  0  0  0  0  0  0  0  0
    1.4290  -11.4201  -27.8940 H   0  0  0  0  0  0  0  0  0  0  0  0
    3.1343   -9.3385  -25.5531 H   0  0  0  0  0  0  0  0  0  0  0  0
    3.3210  -10.6841  -24.4131 H   0  0  0  0  0  0  0  0  0  0  0  0
    1.4532   -9.0133  -23.8025 H   0  0  0  0  0  0  0  0  0  0  0  0
    0.9717  -10.7159  -23.8681 H   0  0  0  0  0  0  0  0  0  0  0  0
   -2.1305   -9.5998  -25.2043 C   0  0  0  0  0  0  0  0  0  0  0  0
   -3.3060   -8.9990  -24.7838 C   0  0  0  0  0  0  0  0  0  0  0  0
   -4.2666   -9.4710  -24.9562 H   0  0  0  0  0  0  0  0  0  0  0  0
   -2.1677  -10.5677  -25.6976 H   0  0  0  0  0  0  0  0  0  0  0  0
    0.0747   -7.2029  -24.2445 H   0  0  0  0  0  0  0  0  0  0  0  0
   -2.0234   -6.1363  -23.4669 H   0  0  0  0  0  0  0  0  0  0  0  0
   -4.4578   -6.5759  -22.9098 H   0  0  0  0  0  0  0  0  0  0  0  0
  1  2  2  0
  2  3  1  0
  3  4  1  0
  4  5  1  0
  5  6  1  0
  6  7  2  0
  7  8  1  0
  8  9  2  0
  9 10  1  0
  9 11  1  0
 11 12  2  0
 12 13  1  0
 13 14  1  0
 14 15  2  0
 14 16  1  0
 16 17  1  0
 17 18  2  0
 18 19  1  0
 19 20  2  0
 20 21  1  0
 21 22  2  0
 22 23  1  0
 23 24  2  0
 24 25  1  0
 25 26  2  0
 25 27  1  0
 24 28  1  0
 23 29  1  0
 22 30  1  0
 20 31  1  0
 18 32  1  0
 16 33  1  0
 13 34  1  0
 34 35  1  0
 34 36  1  0
 13 37  1  1
 11 38  1  0
  8 39  1  0
  7 40  1  0
  5 41  1  0
  5 42  1  0
  4 43  1  1
  3 44  1  0
  3 45  1  0
  2 46  1  0
 46 47  1  0
 47 48  2  0
 48 49  1  0
 49 50  2  0
 50 51  1  0
 51 52  1  0
 52 53  1  0
 53 54  1  0
 54 55  1  0
 55 56  1  0
 56 57  2  0
 55 58  1  0
 55 59  1  0
 53 60  1  0
 53 61  1  0
 52 62  1  0
 52 63  1  0
 50 64  1  0
 64 65  2  0
 65 66  1  0
 64 67  1  0
 49 68  1  0
 48 69  1  0
 46 70  1  0
 34  4  1  0
 65 47  1  0
 12  6  1  0
 26 17  1  0
 56 51  1  0
 26 21  1  0
M  CHG  1   4   1
M  END
>  <cnnaffinities>  (25) 
[5.76686]

>  <score>  (25) 
5.76686

>  <index>  (25) 
25

>  <Smiles>  (25) 
O=C(C([N@+]1(C(c2c(c(c(Cl)c(c2[C@](C(=O)N(c2c(nc(c3c(c(c(c(c23)[H])[H])[H])[H])[H])[H])[H])(C1([H])[H])[H])[H])[H])[H])([H])[H])[H])([H])[H])N(c1c(c(c(N2C(C(OC(C2=O)([H])[H])([H])[H])([H])[H])c(c1[H])[H])[H])[H])[H]

>  <h>  (25) 
<NA>

>  <Training>  (25) 
True

>  <Success>  (25) 
True

>  <enamine_searched>  (25) 
False

>  <enamine_id>  (25) 
nan

$$$$

     RDKit          3D

 55 60  0  0  0  0  0  0  0  0999 V2000
   -8.3102   -4.1402  -23.4886 C   0  0  0  0  0  0  0  0  0  0  0  0
   -8.5392   -2.9893  -22.5225 C   0  0  1  0  0  0  0  0  0  0  0  0
   -7.4018   -2.8048  -21.5079 C   0  0  0  0  0  0  0  0  0  0  0  0
   -7.4479   -1.3855  -21.2002 N   0  0  0  0  0  0  0  0  0  0  0  0
   -6.6627   -0.7903  -20.1834 C   0  0  0  0  0  0  0  0  0  0  0  0
   -6.9164   -1.0983  -18.8701 C   0  0  0  0  0  0  0  0  0  0  0  0
   -6.2260   -0.6110  -17.8113 N   0  0  0  0  0  0  0  0  0  0  0  0
   -5.2167    0.1858  -18.0714 C   0  0  0  0  0  0  0  0  0  0  0  0
   -4.8313    0.5744  -19.3862 C   0  0  0  0  0  0  0  0  0  0  0  0
   -3.7178    1.4292  -19.6034 C   0  0  0  0  0  0  0  0  0  0  0  0
   -3.4318    1.8884  -20.8585 C   0  0  0  0  0  0  0  0  0  0  0  0
   -4.2182    1.4732  -21.9577 C   0  0  0  0  0  0  0  0  0  0  0  0
   -5.2208    0.5525  -21.7932 C   0  0  0  0  0  0  0  0  0  0  0  0
   -5.5849    0.1050  -20.4868 C   0  0  0  0  0  0  0  0  0  0  0  0
   -5.7676    0.2059  -22.6662 H   0  0  0  0  0  0  0  0  0  0  0  0
   -4.0162    1.8900  -22.9398 H   0  0  0  0  0  0  0  0  0  0  0  0
   -2.6341    2.6095  -21.0122 H   0  0  0  0  0  0  0  0  0  0  0  0
   -3.1160    1.7220  -18.7464 H   0  0  0  0  0  0  0  0  0  0  0  0
   -4.6404    0.5609  -17.2239 H   0  0  0  0  0  0  0  0  0  0  0  0
   -7.7481   -1.7588  -18.6306 H   0  0  0  0  0  0  0  0  0  0  0  0
   -8.1728   -0.6458  -22.1081 C   0  0  0  0  0  0  0  0  0  0  0  0
   -8.2915    0.5646  -22.0700 O   0  0  0  0  0  0  0  0  0  0  0  0
   -8.7556   -1.5794  -23.1809 C   0  0  1  0  0  0  0  0  0  0  0  0
   -7.9611   -1.3001  -24.4829 C   0  0  0  0  0  0  0  0  0  0  0  0
   -8.5947   -1.8519  -25.6757 N   0  0  0  0  0  0  0  0  0  0  0  0
   -7.7823   -2.2855  -26.8045 C   0  0  0  0  0  0  0  0  0  0  0  0
   -7.7241   -3.7835  -26.9218 C   0  0  0  0  0  0  0  0  0  0  0  0
   -6.6484   -4.6659  -26.7441 C   0  0  0  0  0  0  0  0  0  0  0  0
   -7.0607   -5.9088  -26.9992 N   0  0  0  0  0  0  0  0  0  0  0  0
   -8.3315   -5.7381  -27.3052 N   0  0  0  0  0  0  0  0  0  0  0  0
   -8.7915   -4.4991  -27.2799 N   0  0  0  0  0  0  0  0  0  0  0  0
   -8.9152   -6.5097  -27.6054 H   0  0  0  0  0  0  0  0  0  0  0  0
   -5.6348   -4.4390  -26.4242 H   0  0  0  0  0  0  0  0  0  0  0  0
   -6.7877   -1.8269  -26.7351 H   0  0  0  0  0  0  0  0  0  0  0  0
   -8.2633   -1.9023  -27.7095 H   0  0  0  0  0  0  0  0  0  0  0  0
   -9.9381   -1.7283  -25.9136 C   0  0  0  0  0  0  0  0  0  0  0  0
  -10.4310   -1.9155  -27.0197 O   0  0  0  0  0  0  0  0  0  0  0  0
  -10.7708   -1.3848  -24.7358 C   0  0  0  0  0  0  0  0  0  0  0  0
  -12.1352   -1.2117  -24.9582 C   0  0  0  0  0  0  0  0  0  0  0  0
  -12.9908   -0.9159  -23.9199 C   0  0  0  0  0  0  0  0  0  0  0  0
  -12.4328   -0.8342  -22.6501 C   0  0  0  0  0  0  0  0  0  0  0  0
  -13.2628   -0.6052  -21.6296 F   0  0  0  0  0  0  0  0  0  0  0  0
  -11.0834   -1.0105  -22.3985 C   0  0  0  0  0  0  0  0  0  0  0  0
  -10.2188   -1.2915  -23.4568 C   0  0  0  0  0  0  0  0  0  0  0  0
  -10.6906   -0.9418  -21.3921 H   0  0  0  0  0  0  0  0  0  0  0  0
  -14.0557   -0.7575  -24.0740 H   0  0  0  0  0  0  0  0  0  0  0  0
  -12.4961   -1.3308  -25.9716 H   0  0  0  0  0  0  0  0  0  0  0  0
   -6.9430   -1.6990  -24.3976 H   0  0  0  0  0  0  0  0  0  0  0  0
   -7.8666   -0.2091  -24.5903 H   0  0  0  0  0  0  0  0  0  0  0  0
   -7.5596   -3.3988  -20.6024 H   0  0  0  0  0  0  0  0  0  0  0  0
   -6.4209   -3.0884  -21.9199 H   0  0  0  0  0  0  0  0  0  0  0  0
   -9.4524   -3.1902  -21.9421 H   0  0  0  0  0  0  0  0  0  0  0  0
   -8.2453   -5.0861  -22.9438 H   0  0  0  0  0  0  0  0  0  0  0  0
   -9.1267   -4.2019  -24.2133 H   0  0  0  0  0  0  0  0  0  0  0  0
   -7.3738   -3.9934  -24.0355 H   0  0  0  0  0  0  0  0  0  0  0  0
  1  2  1  0
  2  3  1  0
  3  4  1  0
  4  5  1  0
  5  6  2  0
  6  7  1  0
  7  8  2  0
  8  9  1  0
  9 10  2  0
 10 11  1  0
 11 12  2  0
 12 13  1  0
 13 14  2  0
 13 15  1  0
 12 16  1  0
 11 17  1  0
 10 18  1  0
  8 19  1  0
  6 20  1  0
  4 21  1  0
 21 22  2  0
 21 23  1  0
 23 24  1  6
 24 25  1  0
 25 26  1  0
 26 27  1  0
 27 28  1  0
 28 29  2  0
 29 30  1  0
 30 31  1  0
 30 32  1  0
 28 33  1  0
 26 34  1  0
 26 35  1  0
 25 36  1  0
 36 37  2  0
 36 38  1  0
 38 39  2  0
 39 40  1  0
 40 41  2  0
 41 42  1  0
 41 43  1  0
 43 44  2  0
 43 45  1  0
 40 46  1  0
 39 47  1  0
 24 48  1  0
 24 49  1  0
  3 50  1  0
  3 51  1  0
  2 52  1  1
  1 53  1  0
  1 54  1  0
  1 55  1  0
 23  2  1  0
 31 27  2  0
 44 38  1  0
 14  5  1  0
 44 23  1  0
 14  9  1  0
M  END
>  <cnnaffinities>  (26) 
[5.86985, 5.80335]

>  <score>  (26) 
5.86985

>  <index>  (26) 
26

>  <Smiles>  (26) 
C([C@]1(C(N(c2c(nc(c3c(c(c(c(c23)[H])[H])[H])[H])[H])[H])C(=O)[C@]21C(N(C(c1c(nn(n1)[H])[H])([H])[H])C(=O)c1c(c(c(F)c(c21)[H])[H])[H])([H])[H])([H])[H])[H])([H])([H])[H]

>  <h>  (26) 
<NA>

>  <Training>  (26) 
True

>  <Success>  (26) 
True

>  <enamine_searched>  (26) 
False

>  <enamine_id>  (26) 
nan

$$$$

     RDKit          3D

 58 62  0  0  0  0  0  0  0  0999 V2000
  -15.0128   -3.3067  -23.3200 C   0  0  0  0  0  0  0  0  0  0  0  0
  -13.7294   -2.6123  -23.1150 N   0  0  0  0  0  4  0  0  0  0  0  0
  -13.2245   -2.7316  -21.7186 C   0  0  0  0  0  0  0  0  0  0  0  0
  -12.3247   -3.9627  -21.6030 C   0  0  0  0  0  0  0  0  0  0  0  0
  -11.0314   -3.7671  -22.2688 N   0  0  0  0  0  0  0  0  0  0  0  0
   -9.9398   -3.1993  -21.4950 C   0  0  0  0  0  0  0  0  0  0  0  0
   -8.7386   -2.7028  -22.3364 C   0  0  2  0  0  0  0  0  0  0  0  0
   -7.6019   -2.5232  -21.3329 C   0  0  0  0  0  0  0  0  0  0  0  0
   -7.0033   -3.4089  -20.7484 O   0  0  0  0  0  0  0  0  0  0  0  0
   -7.3737   -1.1776  -21.1474 N   0  0  0  0  0  0  0  0  0  0  0  0
   -6.5629   -0.7223  -20.0918 C   0  0  0  0  0  0  0  0  0  0  0  0
   -6.7513   -1.1504  -18.8027 C   0  0  0  0  0  0  0  0  0  0  0  0
   -6.0510   -0.6833  -17.7404 N   0  0  0  0  0  0  0  0  0  0  0  0
   -5.1264    0.2178  -17.9741 C   0  0  0  0  0  0  0  0  0  0  0  0
   -4.8128    0.7248  -19.2705 C   0  0  0  0  0  0  0  0  0  0  0  0
   -3.7838    1.6792  -19.4974 C   0  0  0  0  0  0  0  0  0  0  0  0
   -3.5415    2.1497  -20.7591 C   0  0  0  0  0  0  0  0  0  0  0  0
   -4.2982    1.6846  -21.8605 C   0  0  0  0  0  0  0  0  0  0  0  0
   -5.2702    0.7365  -21.6705 C   0  0  0  0  0  0  0  0  0  0  0  0
   -5.5626    0.2540  -20.3669 C   0  0  0  0  0  0  0  0  0  0  0  0
   -5.8267    0.3491  -22.5168 H   0  0  0  0  0  0  0  0  0  0  0  0
   -4.1130    2.0784  -22.8584 H   0  0  0  0  0  0  0  0  0  0  0  0
   -2.7708    2.8996  -20.9268 H   0  0  0  0  0  0  0  0  0  0  0  0
   -3.2022    2.0304  -18.6460 H   0  0  0  0  0  0  0  0  0  0  0  0
   -4.5859    0.6006  -17.1082 H   0  0  0  0  0  0  0  0  0  0  0  0
   -7.5049   -1.9024  -18.5839 H   0  0  0  0  0  0  0  0  0  0  0  0
   -8.4056   -0.3517  -21.7600 C   0  0  0  0  0  0  0  0  0  0  0  0
   -8.9356   -1.2400  -22.8873 C   0  0  2  0  0  0  0  0  0  0  0  0
  -10.3173   -0.8002  -23.3647 C   0  0  0  0  0  0  0  0  0  0  0  0
  -11.0449   -0.8015  -22.5473 H   0  0  0  0  0  0  0  0  0  0  0  0
  -10.7074   -1.4420  -24.1621 H   0  0  0  0  0  0  0  0  0  0  0  0
  -10.2686    0.2274  -23.7425 H   0  0  0  0  0  0  0  0  0  0  0  0
   -8.2478   -1.1537  -23.7353 H   0  0  0  0  0  0  0  0  0  0  0  0
   -8.0033    0.6000  -22.1152 H   0  0  0  0  0  0  0  0  0  0  0  0
   -9.2015   -0.1158  -21.0366 H   0  0  0  0  0  0  0  0  0  0  0  0
   -8.4325   -3.7207  -23.4125 C   0  0  0  0  0  0  0  0  0  0  0  0
   -7.1395   -4.1160  -23.7858 C   0  0  0  0  0  0  0  0  0  0  0  0
   -6.9772   -4.8999  -24.9145 C   0  0  0  0  0  0  0  0  0  0  0  0
   -5.7377   -5.2776  -25.2649 F   0  0  0  0  0  0  0  0  0  0  0  0
   -8.0446   -5.3173  -25.6982 C   0  0  0  0  0  0  0  0  0  0  0  0
   -9.3212   -5.0451  -25.2384 C   0  0  0  0  0  0  0  0  0  0  0  0
   -9.5254   -4.2516  -24.1061 C   0  0  0  0  0  0  0  0  0  0  0  0
  -10.9173   -4.0420  -23.5882 C   0  0  0  0  0  0  0  0  0  0  0  0
  -11.9148   -4.1057  -24.3150 O   0  0  0  0  0  0  0  0  0  0  0  0
  -10.1553   -5.5125  -25.7224 H   0  0  0  0  0  0  0  0  0  0  0  0
   -7.8489   -5.8938  -26.5992 H   0  0  0  0  0  0  0  0  0  0  0  0
   -6.2814   -3.8803  -23.1655 H   0  0  0  0  0  0  0  0  0  0  0  0
  -10.3016   -2.3435  -20.9148 H   0  0  0  0  0  0  0  0  0  0  0  0
   -9.5625   -3.9373  -20.7805 H   0  0  0  0  0  0  0  0  0  0  0  0
  -12.8576   -4.7863  -22.0820 H   0  0  0  0  0  0  0  0  0  0  0  0
  -12.1519   -4.2698  -20.5690 H   0  0  0  0  0  0  0  0  0  0  0  0
  -12.6345   -1.8435  -21.4805 H   0  0  0  0  0  0  0  0  0  0  0  0
  -14.0721   -2.7830  -21.0213 H   0  0  0  0  0  0  0  0  0  0  0  0
  -13.8247   -1.6198  -23.3767 H   0  0  0  0  0  0  0  0  0  0  0  0
  -13.0400   -3.0644  -23.7622 H   0  0  0  0  0  0  0  0  0  0  0  0
  -15.4213   -3.0962  -24.3093 H   0  0  0  0  0  0  0  0  0  0  0  0
  -15.7352   -2.9983  -22.5657 H   0  0  0  0  0  0  0  0  0  0  0  0
  -14.8873   -4.3896  -23.2276 H   0  0  0  0  0  0  0  0  0  0  0  0
  1  2  1  0
  2  3  1  0
  3  4  1  0
  4  5  1  0
  5  6  1  0
  7  6  1  1
  7  8  1  0
  8  9  2  0
  8 10  1  0
 10 11  1  0
 11 12  2  0
 12 13  1  0
 13 14  2  0
 14 15  1  0
 15 16  2  0
 16 17  1  0
 17 18  2  0
 18 19  1  0
 19 20  2  0
 19 21  1  0
 18 22  1  0
 17 23  1  0
 16 24  1  0
 14 25  1  0
 12 26  1  0
 10 27  1  0
 27 28  1  0
 28 29  1  0
 29 30  1  0
 29 31  1  0
 29 32  1  0
 28 33  1  6
 27 34  1  0
 27 35  1  0
  7 36  1  0
 36 37  2  0
 37 38  1  0
 38 39  1  0
 38 40  2  0
 40 41  1  0
 41 42  2  0
 42 43  1  0
 43 44  2  0
 41 45  1  0
 40 46  1  0
 37 47  1  0
  6 48  1  0
  6 49  1  0
  4 50  1  0
  4 51  1  0
  3 52  1  0
  3 53  1  0
  2 54  1  0
  2 55  1  0
  1 56  1  0
  1 57  1  0
  1 58  1  0
 43  5  1  0
 28  7  1  0
 42 36  1  0
 20 11  1  0
 20 15  1  0
M  CHG  1   2   1
M  END
>  <cnnaffinities>  (27) 
[5.9125, 5.89372]

>  <score>  (27) 
5.9125

>  <index>  (27) 
27

>  <Smiles>  (27) 
C([N+](C(C(N1C([C@@]2(C(=O)N(c3c(nc(c4c(c(c(c(c34)[H])[H])[H])[H])[H])[H])C([C@@]2(C([H])([H])[H])[H])([H])[H])c2c(c(F)c(c(c2C1=O)[H])[H])[H])([H])[H])([H])[H])([H])[H])([H])[H])([H])([H])[H]

>  <h>  (27) 
<NA>

>  <Training>  (27) 
True

>  <Success>  (27) 
True

>  <enamine_searched>  (27) 
False

>  <enamine_id>  (27) 
nan

$$$$

     RDKit          3D

 64 68  0  0  0  0  0  0  0  0999 V2000
   -7.5762    3.2135  -21.9297 C   0  0  0  0  0  0  0  0  0  0  0  0
   -8.6968    2.7242  -22.7142 N   0  0  0  0  0  0  0  0  0  0  0  0
   -8.3688    1.9310  -23.7762 C   0  0  0  0  0  0  0  0  0  0  0  0
   -7.2011    1.6970  -24.0594 O   0  0  0  0  0  0  0  0  0  0  0  0
   -9.4926    1.3289  -24.6113 C   0  0  0  0  0  0  0  0  0  0  0  0
   -9.9697    0.1110  -23.9867 N   0  0  0  0  0  0  0  0  0  0  0  0
   -9.1084   -1.0668  -23.9584 C   0  0  0  0  0  0  0  0  0  0  0  0
   -9.2566   -1.8325  -22.6168 C   0  0  2  0  0  0  0  0  0  0  0  0
   -8.6804   -0.9543  -21.4797 C   0  0  0  0  0  0  0  0  0  0  0  0
   -9.2060    0.0125  -20.9656 O   0  0  0  0  0  0  0  0  0  0  0  0
   -7.4205   -1.4220  -21.1654 N   0  0  0  0  0  0  0  0  0  0  0  0
   -6.6409   -0.8144  -20.1520 C   0  0  0  0  0  0  0  0  0  0  0  0
   -6.9345   -1.0639  -18.8342 C   0  0  0  0  0  0  0  0  0  0  0  0
   -6.2252   -0.5822  -17.7872 N   0  0  0  0  0  0  0  0  0  0  0  0
   -5.2015    0.1921  -18.0584 C   0  0  0  0  0  0  0  0  0  0  0  0
   -4.8003    0.5510  -19.3779 C   0  0  0  0  0  0  0  0  0  0  0  0
   -3.7000    1.4177  -19.6186 C   0  0  0  0  0  0  0  0  0  0  0  0
   -3.4232    1.8556  -20.8834 C   0  0  0  0  0  0  0  0  0  0  0  0
   -4.2146    1.4298  -21.9731 C   0  0  0  0  0  0  0  0  0  0  0  0
   -5.2272    0.5143  -21.7814 C   0  0  0  0  0  0  0  0  0  0  0  0
   -5.5574    0.0629  -20.4715 C   0  0  0  0  0  0  0  0  0  0  0  0
   -5.8072    0.1823  -22.6384 H   0  0  0  0  0  0  0  0  0  0  0  0
   -4.0315    1.8364  -22.9640 H   0  0  0  0  0  0  0  0  0  0  0  0
   -2.5972    2.5415  -21.0557 H   0  0  0  0  0  0  0  0  0  0  0  0
   -3.1084    1.7420  -18.7663 H   0  0  0  0  0  0  0  0  0  0  0  0
   -4.6242    0.5692  -17.2132 H   0  0  0  0  0  0  0  0  0  0  0  0
   -7.7838   -1.6971  -18.5914 H   0  0  0  0  0  0  0  0  0  0  0  0
   -6.9959   -2.5622  -21.9498 C   0  0  0  0  0  0  0  0  0  0  0  0
   -8.3235   -3.0760  -22.5344 C   0  0  2  0  0  0  0  0  0  0  0  0
   -8.1457   -3.8717  -23.8241 C   0  0  0  0  0  0  0  0  0  0  0  0
   -7.1474   -5.3283  -23.5572 S   0  0  0  0  0  0  0  0  0  0  0  0
   -5.7607   -4.9133  -23.3638 O   0  0  0  0  0  0  0  0  0  0  0  0
   -7.7710   -6.1870  -22.5589 O   0  0  0  0  0  0  0  0  0  0  0  0
   -7.3803   -6.1122  -25.0115 N   0  0  0  0  0  0  0  0  0  0  0  0
   -6.6842   -5.6248  -26.1985 C   0  0  0  0  0  0  0  0  0  0  0  0
   -7.1679   -4.7175  -26.5795 H   0  0  0  0  0  0  0  0  0  0  0  0
   -6.7783   -6.3848  -26.9770 H   0  0  0  0  0  0  0  0  0  0  0  0
   -5.6231   -5.4254  -26.0139 H   0  0  0  0  0  0  0  0  0  0  0  0
   -7.3117   -7.1136  -24.8558 H   0  0  0  0  0  0  0  0  0  0  0  0
   -7.6368   -3.2823  -24.5923 H   0  0  0  0  0  0  0  0  0  0  0  0
   -9.1013   -4.2109  -24.2316 H   0  0  0  0  0  0  0  0  0  0  0  0
   -8.7401   -3.7660  -21.7980 H   0  0  0  0  0  0  0  0  0  0  0  0
   -6.5095   -3.3188  -21.3286 H   0  0  0  0  0  0  0  0  0  0  0  0
   -6.2897   -2.2746  -22.7443 H   0  0  0  0  0  0  0  0  0  0  0  0
  -10.7416   -2.0961  -22.4221 C   0  0  0  0  0  0  0  0  0  0  0  0
  -11.2169   -3.1792  -21.6805 C   0  0  0  0  0  0  0  0  0  0  0  0
  -12.5658   -3.2963  -21.3979 C   0  0  0  0  0  0  0  0  0  0  0  0
  -13.0817   -4.5960  -20.3686 Cl  0  0  0  0  0  0  0  0  0  0  0  0
  -13.5088   -2.3888  -21.8700 C   0  0  0  0  0  0  0  0  0  0  0  0
  -13.0554   -1.3350  -22.6324 C   0  0  0  0  0  0  0  0  0  0  0  0
  -11.6957   -1.1806  -22.8916 C   0  0  0  0  0  0  0  0  0  0  0  0
  -11.2924    0.0355  -23.6601 C   0  0  0  0  0  0  0  0  0  0  0  0
  -12.0966    0.9080  -23.9642 O   0  0  0  0  0  0  0  0  0  0  0  0
  -13.7306   -0.5871  -23.0304 H   0  0  0  0  0  0  0  0  0  0  0  0
  -14.5587   -2.4978  -21.6246 H   0  0  0  0  0  0  0  0  0  0  0  0
  -10.5594   -3.9360  -21.2723 H   0  0  0  0  0  0  0  0  0  0  0  0
   -8.0721   -0.7444  -24.1096 H   0  0  0  0  0  0  0  0  0  0  0  0
   -9.3763   -1.7440  -24.7824 H   0  0  0  0  0  0  0  0  0  0  0  0
  -10.3551    1.9908  -24.7463 H   0  0  0  0  0  0  0  0  0  0  0  0
   -9.0833    1.0905  -25.5983 H   0  0  0  0  0  0  0  0  0  0  0  0
   -9.5612    2.5863  -22.2015 H   0  0  0  0  0  0  0  0  0  0  0  0
   -6.8742    3.7081  -22.6043 H   0  0  0  0  0  0  0  0  0  0  0  0
   -7.9138    3.9618  -21.2064 H   0  0  0  0  0  0  0  0  0  0  0  0
   -7.0562    2.3707  -21.4411 H   0  0  0  0  0  0  0  0  0  0  0  0
  1  2  1  0
  2  3  1  0
  3  4  2  0
  3  5  1  0
  5  6  1  0
  6  7  1  0
  8  7  1  6
  8  9  1  0
  9 10  2  0
  9 11  1  0
 11 12  1  0
 12 13  2  0
 13 14  1  0
 14 15  2  0
 15 16  1  0
 16 17  2  0
 17 18  1  0
 18 19  2  0
 19 20  1  0
 20 21  2  0
 20 22  1  0
 19 23  1  0
 18 24  1  0
 17 25  1  0
 15 26  1  0
 13 27  1  0
 11 28  1  0
 28 29  1  0
 29 30  1  0
 30 31  1  0
 31 32  2  0
 31 33  2  0
 31 34  1  0
 34 35  1  0
 35 36  1  0
 35 37  1  0
 35 38  1  0
 34 39  1  0
 30 40  1  0
 30 41  1  0
 29 42  1  1
 28 43  1  0
 28 44  1  0
  8 45  1  0
 45 46  2  0
 46 47  1  0
 47 48  1  0
 47 49  2  0
 49 50  1  0
 50 51  2  0
 51 52  1  0
 52 53  2  0
 50 54  1  0
 49 55  1  0
 46 56  1  0
  7 57  1  0
  7 58  1  0
  5 59  1  0
  5 60  1  0
  2 61  1  0
  1 62  1  0
  1 63  1  0
  1 64  1  0
 52  6  1  0
 29  8  1  0
 51 45  1  0
 21 12  1  0
 21 16  1  0
M  END
>  <cnnaffinities>  (28) 
[6.42482, 6.49035, 6.08749]

>  <score>  (28) 
6.42482

>  <index>  (28) 
28

>  <Smiles>  (28) 
C(N(C(=O)C(N1C([C@@]2(C(=O)N(c3c(nc(c4c(c(c(c(c34)[H])[H])[H])[H])[H])[H])C([C@@]2(C(S(=O)(=O)N(C([H])([H])[H])[H])([H])[H])[H])([H])[H])c2c(c(Cl)c(c(c2C1=O)[H])[H])[H])([H])[H])([H])[H])[H])([H])([H])[H]

>  <h>  (28) 
<NA>

>  <Training>  (28) 
True

>  <Success>  (28) 
True

>  <enamine_searched>  (28) 
False

>  <enamine_id>  (28) 
nan

$$$$

     RDKit          3D

 55 60  0  0  0  0  0  0  0  0999 V2000
   -8.3102   -4.1402  -23.4886 C   0  0  0  0  0  0  0  0  0  0  0  0
   -8.5392   -2.9893  -22.5226 C   0  0  1  0  0  0  0  0  0  0  0  0
   -7.4018   -2.8048  -21.5079 C   0  0  0  0  0  0  0  0  0  0  0  0
   -7.4478   -1.3855  -21.2002 N   0  0  0  0  0  0  0  0  0  0  0  0
   -6.6627   -0.7903  -20.1834 C   0  0  0  0  0  0  0  0  0  0  0  0
   -6.9164   -1.0983  -18.8701 C   0  0  0  0  0  0  0  0  0  0  0  0
   -6.2260   -0.6110  -17.8113 N   0  0  0  0  0  0  0  0  0  0  0  0
   -5.2167    0.1858  -18.0714 C   0  0  0  0  0  0  0  0  0  0  0  0
   -4.8313    0.5744  -19.3862 C   0  0  0  0  0  0  0  0  0  0  0  0
   -3.7177    1.4292  -19.6034 C   0  0  0  0  0  0  0  0  0  0  0  0
   -3.4317    1.8884  -20.8585 C   0  0  0  0  0  0  0  0  0  0  0  0
   -4.2181    1.4731  -21.9577 C   0  0  0  0  0  0  0  0  0  0  0  0
   -5.2208    0.5525  -21.7932 C   0  0  0  0  0  0  0  0  0  0  0  0
   -5.5849    0.1050  -20.4868 C   0  0  0  0  0  0  0  0  0  0  0  0
   -5.7675    0.2057  -22.6663 H   0  0  0  0  0  0  0  0  0  0  0  0
   -4.0162    1.8899  -22.9398 H   0  0  0  0  0  0  0  0  0  0  0  0
   -2.6340    2.6094  -21.0122 H   0  0  0  0  0  0  0  0  0  0  0  0
   -3.1160    1.7220  -18.7465 H   0  0  0  0  0  0  0  0  0  0  0  0
   -4.6403    0.5609  -17.2239 H   0  0  0  0  0  0  0  0  0  0  0  0
   -7.7481   -1.7587  -18.6306 H   0  0  0  0  0  0  0  0  0  0  0  0
   -8.1727   -0.6458  -22.1081 C   0  0  0  0  0  0  0  0  0  0  0  0
   -8.2914    0.5646  -22.0700 O   0  0  0  0  0  0  0  0  0  0  0  0
   -8.7556   -1.5793  -23.1809 C   0  0  1  0  0  0  0  0  0  0  0  0
   -7.9612   -1.3001  -24.4829 C   0  0  0  0  0  0  0  0  0  0  0  0
   -8.5947   -1.8519  -25.6757 N   0  0  0  0  0  0  0  0  0  0  0  0
   -7.7823   -2.2854  -26.8045 C   0  0  0  0  0  0  0  0  0  0  0  0
   -7.7241   -3.7835  -26.9218 C   0  0  0  0  0  0  0  0  0  0  0  0
   -6.6484   -4.6659  -26.7441 C   0  0  0  0  0  0  0  0  0  0  0  0
   -7.0607   -5.9088  -26.9992 N   0  0  0  0  0  0  0  0  0  0  0  0
   -8.3315   -5.7381  -27.3053 N   0  0  0  0  0  0  0  0  0  0  0  0
   -8.7915   -4.4991  -27.2799 N   0  0  0  0  0  0  0  0  0  0  0  0
   -8.9152   -6.5097  -27.6054 H   0  0  0  0  0  0  0  0  0  0  0  0
   -5.6349   -4.4390  -26.4242 H   0  0  0  0  0  0  0  0  0  0  0  0
   -6.7877   -1.8269  -26.7350 H   0  0  0  0  0  0  0  0  0  0  0  0
   -8.2633   -1.9023  -27.7095 H   0  0  0  0  0  0  0  0  0  0  0  0
   -9.9381   -1.7283  -25.9136 C   0  0  0  0  0  0  0  0  0  0  0  0
  -10.4310   -1.9156  -27.0197 O   0  0  0  0  0  0  0  0  0  0  0  0
  -10.7708   -1.3848  -24.7358 C   0  0  0  0  0  0  0  0  0  0  0  0
  -12.1352   -1.2117  -24.9581 C   0  0  0  0  0  0  0  0  0  0  0  0
  -12.9908   -0.9159  -23.9199 C   0  0  0  0  0  0  0  0  0  0  0  0
  -12.4328   -0.8341  -22.6501 C   0  0  0  0  0  0  0  0  0  0  0  0
  -13.2627   -0.6052  -21.6296 F   0  0  0  0  0  0  0  0  0  0  0  0
  -11.0834   -1.0105  -22.3985 C   0  0  0  0  0  0  0  0  0  0  0  0
  -10.2188   -1.2915  -23.4568 C   0  0  0  0  0  0  0  0  0  0  0  0
  -10.6906   -0.9418  -21.3920 H   0  0  0  0  0  0  0  0  0  0  0  0
  -14.0557   -0.7574  -24.0739 H   0  0  0  0  0  0  0  0  0  0  0  0
  -12.4961   -1.3308  -25.9716 H   0  0  0  0  0  0  0  0  0  0  0  0
   -6.9430   -1.6990  -24.3976 H   0  0  0  0  0  0  0  0  0  0  0  0
   -7.8666   -0.2091  -24.5903 H   0  0  0  0  0  0  0  0  0  0  0  0
   -7.5596   -3.3988  -20.6024 H   0  0  0  0  0  0  0  0  0  0  0  0
   -6.4209   -3.0884  -21.9199 H   0  0  0  0  0  0  0  0  0  0  0  0
   -9.4524   -3.1902  -21.9421 H   0  0  0  0  0  0  0  0  0  0  0  0
   -8.2453   -5.0861  -22.9438 H   0  0  0  0  0  0  0  0  0  0  0  0
   -9.1267   -4.2019  -24.2133 H   0  0  0  0  0  0  0  0  0  0  0  0
   -7.3738   -3.9934  -24.0355 H   0  0  0  0  0  0  0  0  0  0  0  0
  1  2  1  0
  2  3  1  0
  3  4  1  0
  4  5  1  0
  5  6  2  0
  6  7  1  0
  7  8  2  0
  8  9  1  0
  9 10  2  0
 10 11  1  0
 11 12  2  0
 12 13  1  0
 13 14  2  0
 13 15  1  0
 12 16  1  0
 11 17  1  0
 10 18  1  0
  8 19  1  0
  6 20  1  0
  4 21  1  0
 21 22  2  0
 21 23  1  0
 23 24  1  6
 24 25  1  0
 25 26  1  0
 26 27  1  0
 27 28  1  0
 28 29  2  0
 29 30  1  0
 30 31  1  0
 30 32  1  0
 28 33  1  0
 26 34  1  0
 26 35  1  0
 25 36  1  0
 36 37  2  0
 36 38  1  0
 38 39  2  0
 39 40  1  0
 40 41  2  0
 41 42  1  0
 41 43  1  0
 43 44  2  0
 43 45  1  0
 40 46  1  0
 39 47  1  0
 24 48  1  0
 24 49  1  0
  3 50  1  0
  3 51  1  0
  2 52  1  1
  1 53  1  0
  1 54  1  0
  1 55  1  0
 23  2  1  0
 31 27  2  0
 44 38  1  0
 14  5  1  0
 44 23  1  0
 14  9  1  0
M  END
>  <cnnaffinities>  (29) 
[5.86986, 5.80336]

>  <score>  (29) 
5.86986

>  <index>  (29) 
29

>  <Smiles>  (29) 
C([C@]1(C(N(c2c(nc(c3c(c(c(c(c23)[H])[H])[H])[H])[H])[H])C(=O)[C@]21C(N(C(c1c(nn(n1)[H])[H])([H])[H])C(=O)c1c(c(c(F)c(c21)[H])[H])[H])([H])[H])([H])[H])[H])([H])([H])[H]

>  <h>  (29) 
<NA>

>  <Training>  (29) 
True

>  <Success>  (29) 
True

>  <enamine_searched>  (29) 
False

>  <enamine_id>  (29) 
nan

$$$$

     RDKit          3D

 58 63  0  0  0  0  0  0  0  0999 V2000
   -8.2795   -4.1311  -23.5128 C   0  0  0  0  0  0  0  0  0  0  0  0
   -8.5144   -2.9904  -22.5360 C   0  0  1  0  0  0  0  0  0  0  0  0
   -7.3871   -2.8076  -21.5084 C   0  0  0  0  0  0  0  0  0  0  0  0
   -7.4381   -1.3898  -21.1957 N   0  0  0  0  0  0  0  0  0  0  0  0
   -6.6530   -0.7935  -20.1797 C   0  0  0  0  0  0  0  0  0  0  0  0
   -6.9137   -1.0927  -18.8661 C   0  0  0  0  0  0  0  0  0  0  0  0
   -6.2219   -0.6046  -17.8090 N   0  0  0  0  0  0  0  0  0  0  0  0
   -5.2120    0.1915  -18.0713 C   0  0  0  0  0  0  0  0  0  0  0  0
   -4.8213    0.5720  -19.3869 C   0  0  0  0  0  0  0  0  0  0  0  0
   -3.7054    1.4217  -19.6071 C   0  0  0  0  0  0  0  0  0  0  0  0
   -3.4131    1.8695  -20.8648 C   0  0  0  0  0  0  0  0  0  0  0  0
   -4.2017    1.4541  -21.9625 C   0  0  0  0  0  0  0  0  0  0  0  0
   -5.2023    0.5315  -21.7931 C   0  0  0  0  0  0  0  0  0  0  0  0
   -5.5726    0.0968  -20.4855 C   0  0  0  0  0  0  0  0  0  0  0  0
   -5.7270    0.1544  -22.6671 H   0  0  0  0  0  0  0  0  0  0  0  0
   -3.9879    1.8507  -22.9501 H   0  0  0  0  0  0  0  0  0  0  0  0
   -2.5917    2.5619  -21.0254 H   0  0  0  0  0  0  0  0  0  0  0  0
   -3.1060    1.7188  -18.7510 H   0  0  0  0  0  0  0  0  0  0  0  0
   -4.6385    0.5691  -17.2233 H   0  0  0  0  0  0  0  0  0  0  0  0
   -7.7507   -1.7468  -18.6262 H   0  0  0  0  0  0  0  0  0  0  0  0
   -8.1570   -0.6440  -22.1048 C   0  0  0  0  0  0  0  0  0  0  0  0
   -8.2727    0.5625  -22.0582 O   0  0  0  0  0  0  0  0  0  0  0  0
   -8.7304   -1.5765  -23.1875 C   0  0  1  0  0  0  0  0  0  0  0  0
   -7.9303   -1.2875  -24.4820 C   0  0  0  0  0  0  0  0  0  0  0  0
   -8.5604   -1.8066  -25.6921 N   0  0  0  0  0  0  0  0  0  0  0  0
   -7.7215   -2.1502  -26.8276 C   0  0  0  0  0  0  0  0  0  0  0  0
   -7.3185   -3.5974  -26.7828 C   0  0  0  0  0  0  0  0  0  0  0  0
   -8.1768   -4.5952  -27.1368 C   0  0  0  0  0  0  0  0  0  0  0  0
   -7.7597   -5.9754  -27.0972 C   0  0  0  0  0  0  0  0  0  0  0  0
   -8.4261   -6.9550  -27.3659 O   0  0  0  0  0  0  0  0  0  0  0  0
   -6.4153   -6.1152  -26.6998 N   0  0  0  0  0  0  0  0  0  0  0  0
   -5.6357   -5.0551  -26.3470 C   0  0  0  0  0  0  0  0  0  0  0  0
   -6.0351   -3.8294  -26.3396 N   0  0  0  0  0  0  0  0  0  0  0  0
   -4.6059   -5.2820  -26.0709 H   0  0  0  0  0  0  0  0  0  0  0  0
   -6.0597   -7.0620  -26.6635 H   0  0  0  0  0  0  0  0  0  0  0  0
   -9.1847   -4.3927  -27.4733 H   0  0  0  0  0  0  0  0  0  0  0  0
   -8.3010   -1.9301  -27.7299 H   0  0  0  0  0  0  0  0  0  0  0  0
   -6.8221   -1.5324  -26.8055 H   0  0  0  0  0  0  0  0  0  0  0  0
   -9.9100   -1.8272  -25.9026 C   0  0  0  0  0  0  0  0  0  0  0  0
  -10.4061   -2.1442  -26.9759 O   0  0  0  0  0  0  0  0  0  0  0  0
  -10.7486   -1.4468  -24.7409 C   0  0  0  0  0  0  0  0  0  0  0  0
  -12.1137   -1.2829  -24.9684 C   0  0  0  0  0  0  0  0  0  0  0  0
  -12.9611   -0.9602  -23.9314 C   0  0  0  0  0  0  0  0  0  0  0  0
  -12.4006   -0.8412  -22.6658 C   0  0  0  0  0  0  0  0  0  0  0  0
  -13.2325   -0.5846  -21.6534 F   0  0  0  0  0  0  0  0  0  0  0  0
  -11.0514   -1.0040  -22.4113 C   0  0  0  0  0  0  0  0  0  0  0  0
  -10.1932   -1.3023  -23.4681 C   0  0  0  0  0  0  0  0  0  0  0  0
  -10.6510   -0.9152  -21.4088 H   0  0  0  0  0  0  0  0  0  0  0  0
  -14.0281   -0.8107  -24.0718 H   0  0  0  0  0  0  0  0  0  0  0  0
  -12.4760   -1.4289  -25.9792 H   0  0  0  0  0  0  0  0  0  0  0  0
   -7.8157   -0.1971  -24.5648 H   0  0  0  0  0  0  0  0  0  0  0  0
   -6.9199   -1.7091  -24.4027 H   0  0  0  0  0  0  0  0  0  0  0  0
   -7.5519   -3.4049  -20.6062 H   0  0  0  0  0  0  0  0  0  0  0  0
   -6.4025   -3.0861  -21.9150 H   0  0  0  0  0  0  0  0  0  0  0  0
   -9.4328   -3.1969  -21.9646 H   0  0  0  0  0  0  0  0  0  0  0  0
   -8.2318   -5.0873  -22.9840 H   0  0  0  0  0  0  0  0  0  0  0  0
   -9.0928   -4.1732  -24.2455 H   0  0  0  0  0  0  0  0  0  0  0  0
   -7.3377   -3.9886  -24.0527 H   0  0  0  0  0  0  0  0  0  0  0  0
  1  2  1  0
  2  3  1  0
  3  4  1  0
  4  5  1  0
  5  6  2  0
  6  7  1  0
  7  8  2  0
  8  9  1  0
  9 10  2  0
 10 11  1  0
 11 12  2  0
 12 13  1  0
 13 14  2  0
 13 15  1  0
 12 16  1  0
 11 17  1  0
 10 18  1  0
  8 19  1  0
  6 20  1  0
  4 21  1  0
 21 22  2  0
 21 23  1  0
 23 24  1  6
 24 25  1  0
 25 26  1  0
 26 27  1  0
 27 28  2  0
 28 29  1  0
 29 30  2  0
 29 31  1  0
 31 32  1  0
 32 33  2  0
 32 34  1  0
 31 35  1  0
 28 36  1  0
 26 37  1  0
 26 38  1  0
 25 39  1  0
 39 40  2  0
 39 41  1  0
 41 42  2  0
 42 43  1  0
 43 44  2  0
 44 45  1  0
 44 46  1  0
 46 47  2  0
 46 48  1  0
 43 49  1  0
 42 50  1  0
 24 51  1  0
 24 52  1  0
  3 53  1  0
  3 54  1  0
  2 55  1  1
  1 56  1  0
  1 57  1  0
  1 58  1  0
 23  2  1  0
 33 27  1  0
 47 41  1  0
 14  5  1  0
 47 23  1  0
 14  9  1  0
M  END
>  <cnnaffinities>  (30) 
[5.96342, 5.9723, 5.95225]

>  <score>  (30) 
5.96342

>  <index>  (30) 
30

>  <Smiles>  (30) 
C([C@]1(C(N(c2c(nc(c3c(c(c(c(c23)[H])[H])[H])[H])[H])[H])C(=O)[C@]21C(N(C(c1c(c(=O)n(c(n1)[H])[H])[H])([H])[H])C(=O)c1c(c(c(F)c(c21)[H])[H])[H])([H])[H])([H])[H])[H])([H])([H])[H]

>  <h>  (30) 
<NA>

>  <Training>  (30) 
True

>  <Success>  (30) 
True

>  <enamine_searched>  (30) 
False

>  <enamine_id>  (30) 
nan

$$$$

     RDKit          3D

 66 71  0  0  0  0  0  0  0  0999 V2000
   -7.8386   -6.0307  -26.6977 C   0  0  0  0  0  0  0  0  0  0  0  0
   -8.0246   -4.6132  -26.9519 N   0  0  0  0  0  0  0  0  0  0  0  0
   -7.1012   -3.7074  -26.5618 C   0  0  0  0  0  0  0  0  0  0  0  0
   -6.0581   -4.0225  -25.9942 O   0  0  0  0  0  0  0  0  0  0  0  0
   -7.4523   -2.2391  -26.8094 C   0  0  0  0  0  0  0  0  0  0  0  0
   -8.3550   -1.7236  -25.7879 N   0  0  0  0  0  0  0  0  0  0  0  0
   -7.8280   -1.2404  -24.5140 C   0  0  0  0  0  0  0  0  0  0  0  0
   -8.7279   -1.5404  -23.2752 C   0  0  2  0  0  0  0  0  0  0  0  0
   -8.2695   -0.5679  -22.1668 C   0  0  0  0  0  0  0  0  0  0  0  0
   -8.4720    0.6298  -22.1351 O   0  0  0  0  0  0  0  0  0  0  0  0
   -7.5036   -1.2619  -21.2474 N   0  0  0  0  0  0  0  0  0  0  0  0
   -6.7287   -0.6772  -20.2158 C   0  0  0  0  0  0  0  0  0  0  0  0
   -6.9308   -1.0874  -18.9200 C   0  0  0  0  0  0  0  0  0  0  0  0
   -6.2106   -0.6708  -17.8512 N   0  0  0  0  0  0  0  0  0  0  0  0
   -5.2265    0.1640  -18.0806 C   0  0  0  0  0  0  0  0  0  0  0  0
   -4.8941    0.6639  -19.3712 C   0  0  0  0  0  0  0  0  0  0  0  0
   -3.8144    1.5688  -19.5588 C   0  0  0  0  0  0  0  0  0  0  0  0
   -3.5290    2.0625  -20.8003 C   0  0  0  0  0  0  0  0  0  0  0  0
   -4.2975    1.6594  -21.9170 C   0  0  0  0  0  0  0  0  0  0  0  0
   -5.3310    0.7697  -21.7632 C   0  0  0  0  0  0  0  0  0  0  0  0
   -5.6693    0.2545  -20.4798 C   0  0  0  0  0  0  0  0  0  0  0  0
   -5.9238    0.4907  -22.6273 H   0  0  0  0  0  0  0  0  0  0  0  0
   -4.0799    2.0694  -22.8982 H   0  0  0  0  0  0  0  0  0  0  0  0
   -2.7392    2.7968  -20.9308 H   0  0  0  0  0  0  0  0  0  0  0  0
   -3.2251    1.8539  -18.6912 H   0  0  0  0  0  0  0  0  0  0  0  0
   -4.6464    0.4972  -17.2196 H   0  0  0  0  0  0  0  0  0  0  0  0
   -7.7468   -1.7743  -18.7027 H   0  0  0  0  0  0  0  0  0  0  0  0
   -7.3912   -2.6802  -21.5361 C   0  0  0  0  0  0  0  0  0  0  0  0
   -8.4799   -2.9132  -22.5838 C   0  0  2  0  0  0  0  0  0  0  0  0
   -8.1913   -4.0855  -23.5157 C   0  0  0  0  0  0  0  0  0  0  0  0
   -8.1272   -5.3447  -22.8022 N   0  0  0  0  0  0  0  0  0  0  0  0
   -6.9919   -5.9104  -22.3103 C   0  0  0  0  0  0  0  0  0  0  0  0
   -5.7231   -5.7020  -22.8775 C   0  0  0  0  0  0  0  0  0  0  0  0
   -4.6696   -6.3524  -22.2656 C   0  0  0  0  0  0  0  0  0  0  0  0
   -4.8207   -7.1162  -21.1784 N   0  0  0  0  0  0  0  0  0  0  0  0
   -6.0628   -7.2391  -20.7380 C   0  0  0  0  0  0  0  0  0  0  0  0
   -7.1643   -6.7048  -21.2422 N   0  0  0  0  0  0  0  0  0  0  0  0
   -6.1941   -7.8609  -19.8532 H   0  0  0  0  0  0  0  0  0  0  0  0
   -3.6489   -6.2657  -22.6424 H   0  0  0  0  0  0  0  0  0  0  0  0
   -5.6016   -5.0847  -23.7636 H   0  0  0  0  0  0  0  0  0  0  0  0
   -8.9181   -5.5119  -22.1963 H   0  0  0  0  0  0  0  0  0  0  0  0
   -9.0057   -4.1408  -24.2477 H   0  0  0  0  0  0  0  0  0  0  0  0
   -7.2531   -3.9167  -24.0463 H   0  0  0  0  0  0  0  0  0  0  0  0
   -9.4139   -3.1417  -22.0487 H   0  0  0  0  0  0  0  0  0  0  0  0
   -7.5527   -3.2679  -20.6289 H   0  0  0  0  0  0  0  0  0  0  0  0
   -6.3825   -2.9225  -21.9066 H   0  0  0  0  0  0  0  0  0  0  0  0
  -10.1863   -1.3665  -23.6485 C   0  0  0  0  0  0  0  0  0  0  0  0
  -11.1561   -1.2948  -22.6374 C   0  0  0  0  0  0  0  0  0  0  0  0
  -12.4958   -1.1786  -22.9653 C   0  0  0  0  0  0  0  0  0  0  0  0
  -13.7384   -1.1960  -21.7459 Cl  0  0  0  0  0  0  0  0  0  0  0  0
  -12.9059   -1.1084  -24.2970 C   0  0  0  0  0  0  0  0  0  0  0  0
  -11.9574   -1.2061  -25.2967 C   0  0  0  0  0  0  0  0  0  0  0  0
  -10.6165   -1.4005  -24.9771 C   0  0  0  0  0  0  0  0  0  0  0  0
   -9.6848   -1.8185  -26.0630 C   0  0  0  0  0  0  0  0  0  0  0  0
  -10.0958   -2.2822  -27.1263 O   0  0  0  0  0  0  0  0  0  0  0  0
  -12.2338   -1.1638  -26.3473 H   0  0  0  0  0  0  0  0  0  0  0  0
  -13.9659   -1.0571  -24.5157 H   0  0  0  0  0  0  0  0  0  0  0  0
  -10.8493   -1.3411  -21.5994 H   0  0  0  0  0  0  0  0  0  0  0  0
   -7.6986   -0.1499  -24.5608 H   0  0  0  0  0  0  0  0  0  0  0  0
   -6.8424   -1.7062  -24.3841 H   0  0  0  0  0  0  0  0  0  0  0  0
   -6.5271   -1.6620  -26.8294 H   0  0  0  0  0  0  0  0  0  0  0  0
   -7.9707   -2.1404  -27.7637 H   0  0  0  0  0  0  0  0  0  0  0  0
   -8.8976   -4.2781  -27.3311 H   0  0  0  0  0  0  0  0  0  0  0  0
   -7.5803   -6.1943  -25.6424 H   0  0  0  0  0  0  0  0  0  0  0  0
   -8.7676   -6.5598  -26.9215 H   0  0  0  0  0  0  0  0  0  0  0  0
   -7.0437   -6.4488  -27.3262 H   0  0  0  0  0  0  0  0  0  0  0  0
  1  2  1  0
  2  3  1  0
  3  4  2  0
  3  5  1  0
  5  6  1  0
  6  7  1  0
  8  7  1  6
  8  9  1  0
  9 10  2  0
  9 11  1  0
 11 12  1  0
 12 13  2  0
 13 14  1  0
 14 15  2  0
 15 16  1  0
 16 17  2  0
 17 18  1  0
 18 19  2  0
 19 20  1  0
 20 21  2  0
 20 22  1  0
 19 23  1  0
 18 24  1  0
 17 25  1  0
 15 26  1  0
 13 27  1  0
 11 28  1  0
 28 29  1  0
 29 30  1  0
 30 31  1  0
 31 32  1  0
 32 33  2  0
 33 34  1  0
 34 35  2  0
 35 36  1  0
 36 37  2  0
 36 38  1  0
 34 39  1  0
 33 40  1  0
 31 41  1  0
 30 42  1  0
 30 43  1  0
 29 44  1  1
 28 45  1  0
 28 46  1  0
  8 47  1  0
 47 48  2  0
 48 49  1  0
 49 50  1  0
 49 51  2  0
 51 52  1  0
 52 53  2  0
 53 54  1  0
 54 55  2  0
 52 56  1  0
 51 57  1  0
 48 58  1  0
  7 59  1  0
  7 60  1  0
  5 61  1  0
  5 62  1  0
  2 63  1  0
  1 64  1  0
  1 65  1  0
  1 66  1  0
 54  6  1  0
 29  8  1  0
 37 32  1  0
 53 47  1  0
 21 12  1  0
 21 16  1  0
M  END
>  <cnnaffinities>  (31) 
[6.12769, 6.43261]

>  <score>  (31) 
6.12769

>  <index>  (31) 
31

>  <Smiles>  (31) 
C(N(C(=O)C(N1C([C@@]2(C(=O)N(c3c(nc(c4c(c(c(c(c34)[H])[H])[H])[H])[H])[H])C([C@@]2(C(N(c2c(c(nc(n2)[H])[H])[H])[H])([H])[H])[H])([H])[H])c2c(c(Cl)c(c(c2C1=O)[H])[H])[H])([H])[H])([H])[H])[H])([H])([H])[H]

>  <h>  (31) 
<NA>

>  <Training>  (31) 
True

>  <Success>  (31) 
True

>  <enamine_searched>  (31) 
False

>  <enamine_id>  (31) 
nan

$$$$

     RDKit          3D

 57 62  0  0  0  0  0  0  0  0999 V2000
   -8.0637   -4.0269  -23.7513 C   0  0  0  0  0  0  0  0  0  0  0  0
   -8.2773   -3.1602  -22.5121 C   0  0  1  0  0  0  0  0  0  0  0  0
   -7.0121   -2.4006  -22.0712 C   0  0  0  0  0  0  0  0  0  0  0  0
   -7.5408   -1.3248  -21.2568 N   0  0  0  0  0  0  0  0  0  0  0  0
   -6.8149   -0.7405  -20.1837 C   0  0  0  0  0  0  0  0  0  0  0  0
   -7.0786   -1.0883  -18.8792 C   0  0  0  0  0  0  0  0  0  0  0  0
   -6.3182   -0.7120  -17.8193 N   0  0  0  0  0  0  0  0  0  0  0  0
   -5.2945    0.0765  -18.0463 C   0  0  0  0  0  0  0  0  0  0  0  0
   -4.9433    0.5623  -19.3384 C   0  0  0  0  0  0  0  0  0  0  0  0
   -3.8792    1.4829  -19.5425 C   0  0  0  0  0  0  0  0  0  0  0  0
   -3.6077    1.9585  -20.7950 C   0  0  0  0  0  0  0  0  0  0  0  0
   -4.3483    1.5067  -21.9084 C   0  0  0  0  0  0  0  0  0  0  0  0
   -5.3861    0.6205  -21.7350 C   0  0  0  0  0  0  0  0  0  0  0  0
   -5.7152    0.1380  -20.4446 C   0  0  0  0  0  0  0  0  0  0  0  0
   -6.0034    0.3459  -22.5871 H   0  0  0  0  0  0  0  0  0  0  0  0
   -4.1296    1.8845  -22.9043 H   0  0  0  0  0  0  0  0  0  0  0  0
   -2.8263    2.6989  -20.9440 H   0  0  0  0  0  0  0  0  0  0  0  0
   -3.3099    1.8207  -18.6794 H   0  0  0  0  0  0  0  0  0  0  0  0
   -4.6789    0.3659  -17.1908 H   0  0  0  0  0  0  0  0  0  0  0  0
   -7.9261   -1.7291  -18.6453 H   0  0  0  0  0  0  0  0  0  0  0  0
   -8.8609   -1.0353  -21.5390 C   0  0  0  0  0  0  0  0  0  0  0  0
   -9.4893   -0.1397  -21.0197 O   0  0  0  0  0  0  0  0  0  0  0  0
   -9.3684   -2.0439  -22.6259 C   0  0  1  0  0  0  0  0  0  0  0  0
   -9.3142   -1.4122  -24.0417 C   0  0  0  0  0  0  0  0  0  0  0  0
  -10.3823   -0.4635  -24.3144 N   0  0  0  0  0  0  0  0  0  0  0  0
  -10.0119    0.7235  -25.0672 C   0  0  0  0  0  0  0  0  0  0  0  0
   -9.1972    1.6068  -24.1678 C   0  0  0  0  0  0  0  0  0  0  0  0
   -7.8913    1.7602  -24.1921 N   0  0  0  0  0  0  0  0  0  0  0  0
   -7.5850    2.4612  -23.0797 N   0  0  0  0  0  0  0  0  0  0  0  0
   -8.6374    2.7168  -22.3863 N   0  0  0  0  0  0  0  0  0  0  0  0
   -9.6719    2.1864  -23.0478 N   0  0  0  0  0  0  0  0  0  0  0  0
  -11.0198    2.3791  -22.5402 C   0  0  0  0  0  0  0  0  0  0  0  0
  -11.1996    1.6943  -21.7039 H   0  0  0  0  0  0  0  0  0  0  0  0
  -11.7190    2.1918  -23.3584 H   0  0  0  0  0  0  0  0  0  0  0  0
  -11.1168    3.4163  -22.1995 H   0  0  0  0  0  0  0  0  0  0  0  0
  -10.9296    1.1805  -25.4476 H   0  0  0  0  0  0  0  0  0  0  0  0
   -9.4028    0.4250  -25.9240 H   0  0  0  0  0  0  0  0  0  0  0  0
  -11.6577   -0.6042  -23.8643 C   0  0  0  0  0  0  0  0  0  0  0  0
  -12.5813    0.1166  -24.2373 O   0  0  0  0  0  0  0  0  0  0  0  0
  -11.8754   -1.6911  -22.8704 C   0  0  0  0  0  0  0  0  0  0  0  0
  -13.1882   -1.9025  -22.4516 C   0  0  0  0  0  0  0  0  0  0  0  0
  -13.4994   -2.9964  -21.6699 C   0  0  0  0  0  0  0  0  0  0  0  0
  -12.4549   -3.8056  -21.2423 C   0  0  0  0  0  0  0  0  0  0  0  0
  -12.7248   -4.8387  -20.4234 F   0  0  0  0  0  0  0  0  0  0  0  0
  -11.1380   -3.5606  -21.5755 C   0  0  0  0  0  0  0  0  0  0  0  0
  -10.8101   -2.4683  -22.3844 C   0  0  0  0  0  0  0  0  0  0  0  0
  -10.3880   -4.1857  -21.1072 H   0  0  0  0  0  0  0  0  0  0  0  0
  -14.5158   -3.2359  -21.3885 H   0  0  0  0  0  0  0  0  0  0  0  0
  -13.9350   -1.1728  -22.7485 H   0  0  0  0  0  0  0  0  0  0  0  0
   -8.3597   -0.8895  -24.1657 H   0  0  0  0  0  0  0  0  0  0  0  0
   -9.3734   -2.2233  -24.7752 H   0  0  0  0  0  0  0  0  0  0  0  0
   -6.4756   -2.0092  -22.9503 H   0  0  0  0  0  0  0  0  0  0  0  0
   -6.3074   -3.0059  -21.4936 H   0  0  0  0  0  0  0  0  0  0  0  0
   -8.5407   -3.8125  -21.6728 H   0  0  0  0  0  0  0  0  0  0  0  0
   -7.3851   -4.8604  -23.5491 H   0  0  0  0  0  0  0  0  0  0  0  0
   -9.0067   -4.4434  -24.1207 H   0  0  0  0  0  0  0  0  0  0  0  0
   -7.6251   -3.4410  -24.5668 H   0  0  0  0  0  0  0  0  0  0  0  0
  1  2  1  0
  2  3  1  0
  3  4  1  0
  4  5  1  0
  5  6  2  0
  6  7  1  0
  7  8  2  0
  8  9  1  0
  9 10  2  0
 10 11  1  0
 11 12  2  0
 12 13  1  0
 13 14  2  0
 13 15  1  0
 12 16  1  0
 11 17  1  0
 10 18  1  0
  8 19  1  0
  6 20  1  0
  4 21  1  0
 21 22  2  0
 21 23  1  0
 23 24  1  6
 24 25  1  0
 25 26  1  0
 26 27  1  0
 27 28  2  0
 28 29  1  0
 29 30  2  0
 30 31  1  0
 31 32  1  0
 32 33  1  0
 32 34  1  0
 32 35  1  0
 26 36  1  0
 26 37  1  0
 25 38  1  0
 38 39  2  0
 38 40  1  0
 40 41  2  0
 41 42  1  0
 42 43  2  0
 43 44  1  0
 43 45  1  0
 45 46  2  0
 45 47  1  0
 42 48  1  0
 41 49  1  0
 24 50  1  0
 24 51  1  0
  3 52  1  0
  3 53  1  0
  2 54  1  1
  1 55  1  0
  1 56  1  0
  1 57  1  0
 23  2  1  0
 31 27  1  0
 46 40  1  0
 14  5  1  0
 46 23  1  0
 14  9  1  0
M  END
>  <cnnaffinities>  (32) 
[6.45662, 5.83795, 5.69571]

>  <score>  (32) 
6.45662

>  <index>  (32) 
32

>  <Smiles>  (32) 
C([C@]1(C(N(c2c(nc(c3c(c(c(c(c23)[H])[H])[H])[H])[H])[H])C(=O)[C@]21C(N(C(c1nnnn1C([H])([H])[H])([H])[H])C(=O)c1c(c(c(F)c(c21)[H])[H])[H])([H])[H])([H])[H])[H])([H])([H])[H]

>  <h>  (32) 
<NA>

>  <Training>  (32) 
True

>  <Success>  (32) 
True

>  <enamine_searched>  (32) 
False

>  <enamine_id>  (32) 
nan

$$$$

     RDKit          3D

 66 70  0  0  0  0  0  0  0  0999 V2000
   -7.6393    3.0591  -21.9703 C   0  0  0  0  0  0  0  0  0  0  0  0
   -8.8055    2.5856  -22.6983 N   0  0  0  0  0  0  0  0  0  0  0  0
   -8.5314    1.7686  -23.7589 C   0  0  0  0  0  0  0  0  0  0  0  0
   -7.3785    1.5055  -24.0864 O   0  0  0  0  0  0  0  0  0  0  0  0
   -9.6987    1.1712  -24.5366 C   0  0  0  0  0  0  0  0  0  0  0  0
  -10.1313   -0.0506  -23.8920 N   0  0  0  0  0  0  0  0  0  0  0  0
   -9.2358   -1.2001  -23.8857 C   0  0  0  0  0  0  0  0  0  0  0  0
   -9.3013   -1.9438  -22.5269 C   0  0  2  0  0  0  0  0  0  0  0  0
   -8.7072   -1.0084  -21.4396 C   0  0  0  0  0  0  0  0  0  0  0  0
   -9.2405   -0.0291  -20.9502 O   0  0  0  0  0  0  0  0  0  0  0  0
   -7.4231   -1.4301  -21.1574 N   0  0  0  0  0  0  0  0  0  0  0  0
   -6.6425   -0.8168  -20.1465 C   0  0  0  0  0  0  0  0  0  0  0  0
   -6.9343   -1.0619  -18.8252 C   0  0  0  0  0  0  0  0  0  0  0  0
   -6.2228   -0.5784  -17.7810 N   0  0  0  0  0  0  0  0  0  0  0  0
   -5.1958    0.1898  -18.0576 C   0  0  0  0  0  0  0  0  0  0  0  0
   -4.7976    0.5463  -19.3782 C   0  0  0  0  0  0  0  0  0  0  0  0
   -3.7004    1.4162  -19.6191 C   0  0  0  0  0  0  0  0  0  0  0  0
   -3.4288    1.8568  -20.8853 C   0  0  0  0  0  0  0  0  0  0  0  0
   -4.2221    1.4315  -21.9717 C   0  0  0  0  0  0  0  0  0  0  0  0
   -5.2337    0.5136  -21.7783 C   0  0  0  0  0  0  0  0  0  0  0  0
   -5.5581    0.0588  -20.4681 C   0  0  0  0  0  0  0  0  0  0  0  0
   -5.8160    0.1880  -22.6339 H   0  0  0  0  0  0  0  0  0  0  0  0
   -4.0463    1.8471  -22.9591 H   0  0  0  0  0  0  0  0  0  0  0  0
   -2.6046    2.5434  -21.0579 H   0  0  0  0  0  0  0  0  0  0  0  0
   -3.1058    1.7399  -18.7695 H   0  0  0  0  0  0  0  0  0  0  0  0
   -4.6208    0.5732  -17.2145 H   0  0  0  0  0  0  0  0  0  0  0  0
   -7.7827   -1.6951  -18.5797 H   0  0  0  0  0  0  0  0  0  0  0  0
   -6.9899   -2.5574  -21.9651 C   0  0  0  0  0  0  0  0  0  0  0  0
   -8.3222   -3.1459  -22.4546 C   0  0  2  0  0  0  0  0  0  0  0  0
   -8.2008   -3.9848  -23.7270 C   0  0  0  0  0  0  0  0  0  0  0  0
   -7.4539   -5.1538  -23.4804 O   0  0  0  0  0  0  0  0  0  0  0  0
   -6.1665   -5.2223  -24.0847 C   0  0  0  0  0  0  0  0  0  0  0  0
   -5.3405   -6.1395  -23.2007 C   0  0  0  0  0  0  0  0  0  0  0  0
   -4.3070   -6.2202  -23.5573 H   0  0  0  0  0  0  0  0  0  0  0  0
   -5.7925   -7.1365  -23.1908 H   0  0  0  0  0  0  0  0  0  0  0  0
   -5.3311   -5.7536  -22.1774 H   0  0  0  0  0  0  0  0  0  0  0  0
   -6.2574   -5.7354  -25.5202 C   0  0  0  0  0  0  0  0  0  0  0  0
   -6.8569   -5.0704  -26.1532 H   0  0  0  0  0  0  0  0  0  0  0  0
   -6.7179   -6.7301  -25.5376 H   0  0  0  0  0  0  0  0  0  0  0  0
   -5.2536   -5.8072  -25.9570 H   0  0  0  0  0  0  0  0  0  0  0  0
   -5.7100   -4.2166  -24.0950 H   0  0  0  0  0  0  0  0  0  0  0  0
   -9.2027   -4.2871  -24.0613 H   0  0  0  0  0  0  0  0  0  0  0  0
   -7.7475   -3.3814  -24.5340 H   0  0  0  0  0  0  0  0  0  0  0  0
   -8.6625   -3.8076  -21.6546 H   0  0  0  0  0  0  0  0  0  0  0  0
   -6.3677   -2.2283  -22.8138 H   0  0  0  0  0  0  0  0  0  0  0  0
   -6.4104   -3.2732  -21.3706 H   0  0  0  0  0  0  0  0  0  0  0  0
  -10.7699   -2.2716  -22.2947 C   0  0  0  0  0  0  0  0  0  0  0  0
  -11.1941   -3.4122  -21.6070 C   0  0  0  0  0  0  0  0  0  0  0  0
  -12.5263   -3.5697  -21.2651 C   0  0  0  0  0  0  0  0  0  0  0  0
  -12.9756   -4.8941  -20.2312 Cl  0  0  0  0  0  0  0  0  0  0  0  0
  -13.5058   -2.6650  -21.6600 C   0  0  0  0  0  0  0  0  0  0  0  0
  -13.1105   -1.5714  -22.3999 C   0  0  0  0  0  0  0  0  0  0  0  0
  -11.7666   -1.3752  -22.7083 C   0  0  0  0  0  0  0  0  0  0  0  0
  -11.4265   -0.1374  -23.4721 C   0  0  0  0  0  0  0  0  0  0  0  0
  -12.2544    0.7340  -23.6978 O   0  0  0  0  0  0  0  0  0  0  0  0
  -13.8197   -0.8274  -22.7423 H   0  0  0  0  0  0  0  0  0  0  0  0
  -14.5412   -2.8125  -21.3772 H   0  0  0  0  0  0  0  0  0  0  0  0
  -10.5046   -4.1790  -21.2851 H   0  0  0  0  0  0  0  0  0  0  0  0
   -9.5208   -1.8967  -24.6863 H   0  0  0  0  0  0  0  0  0  0  0  0
   -8.2201   -0.8446  -24.0868 H   0  0  0  0  0  0  0  0  0  0  0  0
   -9.3429    0.9416  -25.5466 H   0  0  0  0  0  0  0  0  0  0  0  0
  -10.5663    1.8349  -24.6105 H   0  0  0  0  0  0  0  0  0  0  0  0
   -9.6425    2.4420  -22.1395 H   0  0  0  0  0  0  0  0  0  0  0  0
   -7.1272    2.2189  -21.4791 H   0  0  0  0  0  0  0  0  0  0  0  0
   -7.9208    3.8166  -21.2379 H   0  0  0  0  0  0  0  0  0  0  0  0
   -6.9596    3.5284  -22.6870 H   0  0  0  0  0  0  0  0  0  0  0  0
  1  2  1  0
  2  3  1  0
  3  4  2  0
  3  5  1  0
  5  6  1  0
  6  7  1  0
  8  7  1  6
  8  9  1  0
  9 10  2  0
  9 11  1  0
 11 12  1  0
 12 13  2  0
 13 14  1  0
 14 15  2  0
 15 16  1  0
 16 17  2  0
 17 18  1  0
 18 19  2  0
 19 20  1  0
 20 21  2  0
 20 22  1  0
 19 23  1  0
 18 24  1  0
 17 25  1  0
 15 26  1  0
 13 27  1  0
 11 28  1  0
 28 29  1  0
 29 30  1  0
 30 31  1  0
 31 32  1  0
 32 33  1  0
 33 34  1  0
 33 35  1  0
 33 36  1  0
 32 37  1  0
 37 38  1  0
 37 39  1  0
 37 40  1  0
 32 41  1  0
 30 42  1  0
 30 43  1  0
 29 44  1  1
 28 45  1  0
 28 46  1  0
  8 47  1  0
 47 48  2  0
 48 49  1  0
 49 50  1  0
 49 51  2  0
 51 52  1  0
 52 53  2  0
 53 54  1  0
 54 55  2  0
 52 56  1  0
 51 57  1  0
 48 58  1  0
  7 59  1  0
  7 60  1  0
  5 61  1  0
  5 62  1  0
  2 63  1  0
  1 64  1  0
  1 65  1  0
  1 66  1  0
 54  6  1  0
 29  8  1  0
 53 47  1  0
 21 12  1  0
 21 16  1  0
M  END
>  <cnnaffinities>  (33) 
[6.60589, 5.88982]

>  <score>  (33) 
6.60589

>  <index>  (33) 
34

>  <Smiles>  (33) 
C(N(C(=O)C(N1C([C@@]2(C(=O)N(c3c(nc(c4c(c(c(c(c34)[H])[H])[H])[H])[H])[H])C([C@@]2(C(OC(C([H])([H])[H])(C([H])([H])[H])[H])([H])[H])[H])([H])[H])c2c(c(Cl)c(c(c2C1=O)[H])[H])[H])([H])[H])([H])[H])[H])([H])([H])[H]

>  <h>  (33) 
<NA>

>  <Training>  (33) 
True

>  <Success>  (33) 
True

>  <enamine_searched>  (33) 
False

>  <enamine_id>  (33) 
nan

$$$$

     RDKit          3D

 40 42  0  0  0  0  0  0  0  0999 V2000
   -9.1344   -1.8186  -22.6404 O   0  0  0  0  0  0  0  0  0  0  0  0
   -8.2811   -0.9809  -22.3736 C   0  0  0  0  0  0  0  0  0  0  0  0
   -6.8672   -1.3934  -21.9670 C   0  0  0  0  0  0  0  0  0  0  0  0
   -6.3542   -0.7431  -20.6927 C   0  0  0  0  0  0  0  0  0  0  0  0
   -6.9214   -1.0626  -19.4806 C   0  0  0  0  0  0  0  0  0  0  0  0
   -6.5436   -0.5652  -18.2754 N   0  0  0  0  0  0  0  0  0  0  0  0
   -5.5606    0.3043  -18.2686 C   0  0  0  0  0  0  0  0  0  0  0  0
   -4.8832    0.7518  -19.4407 C   0  0  0  0  0  0  0  0  0  0  0  0
   -3.8729    1.7481  -19.3926 C   0  0  0  0  0  0  0  0  0  0  0  0
   -3.3497    2.2604  -20.5476 C   0  0  0  0  0  0  0  0  0  0  0  0
   -3.7786    1.7691  -21.7936 C   0  0  0  0  0  0  0  0  0  0  0  0
   -4.6738    0.7250  -21.8603 C   0  0  0  0  0  0  0  0  0  0  0  0
   -5.2924    0.2162  -20.6888 C   0  0  0  0  0  0  0  0  0  0  0  0
   -4.9007    0.2905  -22.8293 H   0  0  0  0  0  0  0  0  0  0  0  0
   -3.3713    2.1937  -22.7048 H   0  0  0  0  0  0  0  0  0  0  0  0
   -2.6097    3.0496  -20.5081 H   0  0  0  0  0  0  0  0  0  0  0  0
   -3.5414    2.1071  -18.4229 H   0  0  0  0  0  0  0  0  0  0  0  0
   -5.2664    0.7102  -17.2982 H   0  0  0  0  0  0  0  0  0  0  0  0
   -7.7410   -1.7761  -19.4435 H   0  0  0  0  0  0  0  0  0  0  0  0
   -6.9328   -2.4776  -21.8532 H   0  0  0  0  0  0  0  0  0  0  0  0
   -6.1854   -1.2161  -22.8031 H   0  0  0  0  0  0  0  0  0  0  0  0
   -8.4696    0.3760  -22.3903 N   0  0  0  0  0  0  0  0  0  0  0  0
   -7.5426    1.2780  -23.1123 C   0  0  0  0  0  0  0  0  0  0  0  0
   -8.1383    2.5341  -23.6715 C   0  0  0  0  0  0  0  0  0  0  0  0
   -9.4137    2.8919  -23.6159 C   0  0  0  0  0  0  0  0  0  0  0  0
   -8.5043    5.4121  -22.8597 C   0  0  0  0  0  0  0  0  0  0  0  0
   -7.8582    5.0580  -21.7640 F   0  0  0  0  0  0  0  0  0  0  0  0
   -9.4674    6.2661  -22.5824 F   0  0  0  0  0  0  0  0  0  0  0  0
   -7.6818    5.9131  -23.7612 F   0  0  0  0  0  0  0  0  0  0  0  0
   -9.6731    1.0967  -21.9159 C   0  0  0  0  0  0  0  0  0  0  0  0
   -9.6799    0.9405  -21.7393 C   0  0  0  0  0  0  0  0  0  0  0  0
  -10.4345    0.5627  -22.7023 H   0  0  0  0  0  0  0  0  0  0  0  0
   -9.8854    0.0522  -20.4750 H   0  0  0  0  0  0  0  0  0  0  0  0
  -10.6097    1.8257  -21.6208 H   0  0  0  0  0  0  0  0  0  0  0  0
   -8.9856    1.9680  -21.4000 H   0  0  0  0  0  0  0  0  0  0  0  0
   -9.6215    3.9532  -23.6656 H   0  0  0  0  0  0  0  0  0  0  0  0
   -7.3943    3.1638  -24.1548 H   0  0  0  0  0  0  0  0  0  0  0  0
  -10.1926    2.1531  -23.5600 H   0  0  0  0  0  0  0  0  0  0  0  0
   -7.0605    0.7157  -23.9129 H   0  0  0  0  0  0  0  0  0  0  0  0
   -6.7474    1.5746  -22.4235 H   0  0  0  0  0  0  0  0  0  0  0  0
  1  2  2  0
  2  3  1  0
  3  4  1  0
  4  5  2  0
  5  6  1  0
  6  7  2  0
  7  8  1  0
  8  9  2  0
  9 10  1  0
 10 11  2  0
 11 12  1  0
 12 13  2  0
 12 14  1  0
 11 15  1  0
 10 16  1  0
  9 17  1  0
  7 18  1  0
  5 19  1  0
  3 20  1  0
  3 21  1  0
  2 22  1  0
 22 23  1  0
 23 24  1  0
 24 25  1  0
 25 26  1  0
 26 27  1  0
 26 28  1  0
 26 29  1  0
 25 30  1  0
 30 31  1  0
 31 32  1  0
 31 33  1  0
 30 34  1  0
 30 35  1  0
 25 36  1  0
 24 37  1  0
 24 38  1  0
 23 39  1  0
 23 40  1  0
 13  4  1  0
 31 22  1  0
 13  8  1  0
M  END
>  <cnnaffinities>  (34) 
[4.52753]

>  <score>  (34) 
4.52753

>  <index>  (34) 
35

>  <Smiles>  (34) 
O=C(C(c1c(nc(c2c(c(c(c(c12)[H])[H])[H])[H])[H])[H])([H])[H])N1C(C(C(C(F)(F)F)(C(C1([H])[H])([H])[H])[H])([H])[H])([H])[H]

>  <h>  (34) 
<NA>

>  <Training>  (34) 
True

>  <Success>  (34) 
True

>  <enamine_searched>  (34) 
False

>  <enamine_id>  (34) 
nan

$$$$

     RDKit          3D

 47 50  0  0  0  0  0  0  0  0999 V2000
   -8.7588    0.5832  -21.2727 O   0  0  0  0  0  0  0  0  0  0  0  0
   -8.4654   -0.4292  -21.8908 C   0  0  0  0  0  0  0  0  0  0  0  0
   -7.4553   -1.4124  -21.2962 C   0  0  0  0  0  0  0  0  0  0  0  0
   -6.6387   -0.7955  -20.1961 C   0  0  0  0  0  0  0  0  0  0  0  0
   -6.9216   -1.0467  -18.8779 C   0  0  0  0  0  0  0  0  0  0  0  0
   -6.2205   -0.5832  -17.8083 N   0  0  0  0  0  0  0  0  0  0  0  0
   -5.2091    0.2101  -18.0686 C   0  0  0  0  0  0  0  0  0  0  0  0
   -4.8164    0.5946  -19.3832 C   0  0  0  0  0  0  0  0  0  0  0  0
   -3.6830    1.4133  -19.6138 C   0  0  0  0  0  0  0  0  0  0  0  0
   -3.3792    1.8396  -20.8788 C   0  0  0  0  0  0  0  0  0  0  0  0
   -4.1925    1.4376  -21.9743 C   0  0  0  0  0  0  0  0  0  0  0  0
   -5.1841    0.5051  -21.7923 C   0  0  0  0  0  0  0  0  0  0  0  0
   -5.5527    0.0897  -20.4829 C   0  0  0  0  0  0  0  0  0  0  0  0
   -5.7132    0.1017  -22.6594 H   0  0  0  0  0  0  0  0  0  0  0  0
   -3.9884    1.8367  -22.9640 H   0  0  0  0  0  0  0  0  0  0  0  0
   -2.5307    2.4951  -21.0570 H   0  0  0  0  0  0  0  0  0  0  0  0
   -3.0822    1.7079  -18.7556 H   0  0  0  0  0  0  0  0  0  0  0  0
   -4.6338    0.5836  -17.2175 H   0  0  0  0  0  0  0  0  0  0  0  0
   -7.7641   -1.6868  -18.6199 H   0  0  0  0  0  0  0  0  0  0  0  0
   -6.8107   -1.8288  -22.0757 H   0  0  0  0  0  0  0  0  0  0  0  0
   -8.0418   -2.2527  -20.8967 H   0  0  0  0  0  0  0  0  0  0  0  0
   -9.0758   -0.7547  -23.0810 N   0  0  0  0  0  0  0  0  0  0  0  0
  -10.0634    0.2313  -23.5154 C   0  0  0  0  0  0  0  0  0  0  0  0
  -11.0469   -0.3017  -24.5401 C   0  0  0  0  0  0  0  0  0  0  0  0
  -10.3140   -0.9930  -25.6848 C   0  0  0  0  0  0  0  0  0  0  0  0
   -9.5151   -2.1563  -25.0984 C   0  0  0  0  0  0  0  0  0  0  0  0
   -8.5069   -1.7310  -24.0182 C   0  0  1  0  0  0  0  0  0  0  0  0
   -7.1754   -1.2918  -24.6355 C   0  0  0  0  0  0  0  0  0  0  0  0
   -6.9618   -0.0027  -25.1226 C   0  0  0  0  0  0  0  0  0  0  0  0
   -5.7465    0.3403  -25.7103 C   0  0  0  0  0  0  0  0  0  0  0  0
   -4.7236   -0.6009  -25.8125 C   0  0  0  0  0  0  0  0  0  0  0  0
   -4.9314   -1.8954  -25.3446 C   0  0  0  0  0  0  0  0  0  0  0  0
   -6.1527   -2.2344  -24.7713 C   0  0  0  0  0  0  0  0  0  0  0  0
   -6.3108   -3.2536  -24.4181 H   0  0  0  0  0  0  0  0  0  0  0  0
   -4.1439   -2.6418  -25.4228 H   0  0  0  0  0  0  0  0  0  0  0  0
   -3.7691   -0.3318  -26.2571 H   0  0  0  0  0  0  0  0  0  0  0  0
   -5.6017    1.3479  -26.0946 H   0  0  0  0  0  0  0  0  0  0  0  0
   -7.7438    0.7526  -25.0577 H   0  0  0  0  0  0  0  0  0  0  0  0
   -8.2873   -2.6363  -23.4351 H   0  0  0  0  0  0  0  0  0  0  0  0
  -10.2229   -2.8575  -24.6427 H   0  0  0  0  0  0  0  0  0  0  0  0
   -8.9652   -2.7099  -25.8689 H   0  0  0  0  0  0  0  0  0  0  0  0
   -9.6492   -0.2926  -26.2076 H   0  0  0  0  0  0  0  0  0  0  0  0
  -11.0239   -1.3622  -26.4330 H   0  0  0  0  0  0  0  0  0  0  0  0
  -11.6799    0.5293  -24.8771 H   0  0  0  0  0  0  0  0  0  0  0  0
  -11.7160   -1.0271  -24.0626 H   0  0  0  0  0  0  0  0  0  0  0  0
  -10.5811    0.5562  -22.6108 H   0  0  0  0  0  0  0  0  0  0  0  0
   -9.5470    1.1166  -23.9118 H   0  0  0  0  0  0  0  0  0  0  0  0
  1  2  2  0
  2  3  1  0
  3  4  1  0
  4  5  2  0
  5  6  1  0
  6  7  2  0
  7  8  1  0
  8  9  2  0
  9 10  1  0
 10 11  2  0
 11 12  1  0
 12 13  2  0
 12 14  1  0
 11 15  1  0
 10 16  1  0
  9 17  1  0
  7 18  1  0
  5 19  1  0
  3 20  1  0
  3 21  1  0
  2 22  1  0
 22 23  1  0
 23 24  1  0
 24 25  1  0
 25 26  1  0
 26 27  1  0
 27 28  1  0
 28 29  2  0
 29 30  1  0
 30 31  2  0
 31 32  1  0
 32 33  2  0
 33 34  1  0
 32 35  1  0
 31 36  1  0
 30 37  1  0
 29 38  1  0
 27 39  1  1
 26 40  1  0
 26 41  1  0
 25 42  1  0
 25 43  1  0
 24 44  1  0
 24 45  1  0
 23 46  1  0
 23 47  1  0
 13  4  1  0
 27 22  1  0
 33 28  1  0
 13  8  1  0
M  END
>  <cnnaffinities>  (35) 
[4.86302, 4.86303]

>  <score>  (35) 
4.86302

>  <index>  (35) 
36

>  <Smiles>  (35) 
O=C(C(c1c(nc(c2c(c(c(c(c12)[H])[H])[H])[H])[H])[H])([H])[H])N1C(C(C(C([C@]1(c1c(c(c(c(c1[H])[H])[H])[H])[H])[H])([H])[H])([H])[H])([H])[H])([H])[H]

>  <h>  (35) 
<NA>

>  <Training>  (35) 
True

>  <Success>  (35) 
True

>  <enamine_searched>  (35) 
False

>  <enamine_id>  (35) 
nan

$$$$

     RDKit          3D

 56 60  0  0  0  0  0  0  0  0999 V2000
   -7.9837   -5.9997  -26.9853 C   0  0  0  0  0  0  0  0  0  0  0  0
   -8.2890   -4.5909  -27.0905 N   0  0  0  0  0  0  0  0  0  0  0  0
   -7.3497   -3.6780  -26.7488 C   0  0  0  0  0  0  0  0  0  0  0  0
   -6.2279   -3.9996  -26.3848 O   0  0  0  0  0  0  0  0  0  0  0  0
   -7.7986   -2.2183  -26.7947 C   0  0  0  0  0  0  0  0  0  0  0  0
   -8.6323   -1.8580  -25.6653 N   0  0  0  0  0  0  0  0  0  0  0  0
   -7.9820   -1.3097  -24.4854 C   0  0  0  0  0  0  0  0  0  0  0  0
   -8.7390   -1.5708  -23.1731 C   0  0  2  0  0  0  0  0  0  0  0  0
   -8.1322   -0.6383  -22.1064 C   0  0  0  0  0  0  0  0  0  0  0  0
   -8.2251    0.5711  -22.0547 O   0  0  0  0  0  0  0  0  0  0  0  0
   -7.4268   -1.3859  -21.1942 N   0  0  0  0  0  0  0  0  0  0  0  0
   -6.6469   -0.7893  -20.1756 C   0  0  0  0  0  0  0  0  0  0  0  0
   -6.9142   -1.0859  -18.8603 C   0  0  0  0  0  0  0  0  0  0  0  0
   -6.2101   -0.6078  -17.8043 N   0  0  0  0  0  0  0  0  0  0  0  0
   -5.2123    0.2026  -18.0676 C   0  0  0  0  0  0  0  0  0  0  0  0
   -4.8196    0.5794  -19.3865 C   0  0  0  0  0  0  0  0  0  0  0  0
   -3.6847    1.4046  -19.6158 C   0  0  0  0  0  0  0  0  0  0  0  0
   -3.3812    1.8406  -20.8744 C   0  0  0  0  0  0  0  0  0  0  0  0
   -4.1679    1.4200  -21.9749 C   0  0  0  0  0  0  0  0  0  0  0  0
   -5.1691    0.4963  -21.7967 C   0  0  0  0  0  0  0  0  0  0  0  0
   -5.5571    0.0883  -20.4853 C   0  0  0  0  0  0  0  0  0  0  0  0
   -5.6554    0.0664  -22.6668 H   0  0  0  0  0  0  0  0  0  0  0  0
   -3.9681    1.8198  -22.9687 H   0  0  0  0  0  0  0  0  0  0  0  0
   -2.5239    2.4920  -21.0496 H   0  0  0  0  0  0  0  0  0  0  0  0
   -3.0867    1.6995  -18.7587 H   0  0  0  0  0  0  0  0  0  0  0  0
   -4.6340    0.5792  -17.2186 H   0  0  0  0  0  0  0  0  0  0  0  0
   -7.7620   -1.7269  -18.6128 H   0  0  0  0  0  0  0  0  0  0  0  0
   -7.4055   -2.8045  -21.4923 C   0  0  0  0  0  0  0  0  0  0  0  0
   -8.5352   -2.9787  -22.5173 C   0  0  2  0  0  0  0  0  0  0  0  0
   -8.3066   -4.1317  -23.4823 C   0  0  0  0  0  0  0  0  0  0  0  0
   -8.2604   -5.0863  -22.9519 H   0  0  0  0  0  0  0  0  0  0  0  0
   -9.1176   -4.1925  -24.2147 H   0  0  0  0  0  0  0  0  0  0  0  0
   -7.3630   -4.0181  -24.0263 H   0  0  0  0  0  0  0  0  0  0  0  0
   -9.4607   -3.1699  -21.9554 H   0  0  0  0  0  0  0  0  0  0  0  0
   -6.4308   -3.0982  -21.9077 H   0  0  0  0  0  0  0  0  0  0  0  0
   -7.5733   -3.3894  -20.5830 H   0  0  0  0  0  0  0  0  0  0  0  0
  -10.1989   -1.2752  -23.4312 C   0  0  0  0  0  0  0  0  0  0  0  0
  -11.0179   -0.9458  -22.3554 C   0  0  0  0  0  0  0  0  0  0  0  0
  -12.3755   -0.7322  -22.5368 C   0  0  0  0  0  0  0  0  0  0  0  0
  -12.9509   -0.8782  -23.8023 C   0  0  0  0  0  0  0  0  0  0  0  0
  -12.1592   -1.2411  -24.8780 C   0  0  0  0  0  0  0  0  0  0  0  0
  -10.7909   -1.4277  -24.6877 C   0  0  0  0  0  0  0  0  0  0  0  0
   -9.9824   -1.8633  -25.8558 C   0  0  0  0  0  0  0  0  0  0  0  0
  -10.4943   -2.2272  -26.9099 O   0  0  0  0  0  0  0  0  0  0  0  0
  -12.5645   -1.3963  -25.8760 H   0  0  0  0  0  0  0  0  0  0  0  0
  -14.0195   -0.7228  -23.9255 H   0  0  0  0  0  0  0  0  0  0  0  0
  -12.9982   -0.4610  -21.6895 H   0  0  0  0  0  0  0  0  0  0  0  0
  -10.5553   -0.8772  -21.3754 H   0  0  0  0  0  0  0  0  0  0  0  0
   -7.8776   -0.2218  -24.5776 H   0  0  0  0  0  0  0  0  0  0  0  0
   -6.9829   -1.7474  -24.4453 H   0  0  0  0  0  0  0  0  0  0  0  0
   -6.8977   -1.6024  -26.7975 H   0  0  0  0  0  0  0  0  0  0  0  0
   -8.3947   -2.0498  -27.6928 H   0  0  0  0  0  0  0  0  0  0  0  0
   -9.2064   -4.2911  -27.3750 H   0  0  0  0  0  0  0  0  0  0  0  0
   -8.8552   -6.6006  -27.2454 H   0  0  0  0  0  0  0  0  0  0  0  0
   -7.1561   -6.2660  -27.6425 H   0  0  0  0  0  0  0  0  0  0  0  0
   -7.6704   -6.2408  -25.9679 H   0  0  0  0  0  0  0  0  0  0  0  0
  1  2  1  0
  2  3  1  0
  3  4  2  0
  3  5  1  0
  5  6  1  0
  6  7  1  0
  8  7  1  6
  8  9  1  0
  9 10  2  0
  9 11  1  0
 11 12  1  0
 12 13  2  0
 13 14  1  0
 14 15  2  0
 15 16  1  0
 16 17  2  0
 17 18  1  0
 18 19  2  0
 19 20  1  0
 20 21  2  0
 20 22  1  0
 19 23  1  0
 18 24  1  0
 17 25  1  0
 15 26  1  0
 13 27  1  0
 11 28  1  0
 28 29  1  0
 29 30  1  0
 30 31  1  0
 30 32  1  0
 30 33  1  0
 29 34  1  1
 28 35  1  0
 28 36  1  0
  8 37  1  0
 37 38  2  0
 38 39  1  0
 39 40  2  0
 40 41  1  0
 41 42  2  0
 42 43  1  0
 43 44  2  0
 41 45  1  0
 40 46  1  0
 39 47  1  0
 38 48  1  0
  7 49  1  0
  7 50  1  0
  5 51  1  0
  5 52  1  0
  2 53  1  0
  1 54  1  0
  1 55  1  0
  1 56  1  0
 43  6  1  0
 29  8  1  0
 42 37  1  0
 21 12  1  0
 21 16  1  0
M  END
>  <cnnaffinities>  (36) 
[5.50434, 5.51928, 5.77913]

>  <score>  (36) 
5.50434

>  <index>  (36) 
37

>  <Smiles>  (36) 
C(N(C(=O)C(N1C([C@@]2(C(=O)N(c3c(nc(c4c(c(c(c(c34)[H])[H])[H])[H])[H])[H])C([C@@]2(C([H])([H])[H])[H])([H])[H])c2c(c(c(c(c2C1=O)[H])[H])[H])[H])([H])[H])([H])[H])[H])([H])([H])[H]

>  <h>  (36) 
<NA>

>  <Training>  (36) 
True

>  <Success>  (36) 
True

>  <enamine_searched>  (36) 
False

>  <enamine_id>  (36) 
nan

$$$$

     RDKit          3D

 46 48  0  0  0  0  0  0  0  0999 V2000
   -8.1364   -4.6672  -26.5130 C   0  0  0  0  0  0  0  0  0  0  0  0
   -8.6358   -4.9377  -25.0907 C   0  0  1  0  0  0  0  0  0  0  0  0
   -7.5619   -5.5034  -24.1564 C   0  0  0  0  0  0  0  0  0  0  0  0
   -6.5929   -4.4900  -23.5438 C   0  0  1  0  0  0  0  0  0  0  0  0
   -5.4165   -4.1164  -24.4450 C   0  0  0  0  0  0  0  0  0  0  0  0
   -4.6198   -3.6670  -23.8469 H   0  0  0  0  0  0  0  0  0  0  0  0
   -5.6874   -3.3990  -25.2232 H   0  0  0  0  0  0  0  0  0  0  0  0
   -5.0321   -5.0260  -24.9204 H   0  0  0  0  0  0  0  0  0  0  0  0
   -7.2986   -3.3202  -22.9992 N   0  0  0  0  0  0  0  0  0  0  0  0
   -6.6885   -2.7195  -21.9149 C   0  0  0  0  0  0  0  0  0  0  0  0
   -5.6515   -3.1483  -21.4378 O   0  0  0  0  0  0  0  0  0  0  0  0
   -7.3935   -1.5078  -21.2822 C   0  0  0  0  0  0  0  0  0  0  0  0
   -6.6070   -0.8454  -20.1868 C   0  0  0  0  0  0  0  0  0  0  0  0
   -6.8952   -1.0970  -18.8703 C   0  0  0  0  0  0  0  0  0  0  0  0
   -6.2098   -0.6115  -17.7996 N   0  0  0  0  0  0  0  0  0  0  0  0
   -5.2057    0.1934  -18.0575 C   0  0  0  0  0  0  0  0  0  0  0  0
   -4.7976    0.5591  -19.3725 C   0  0  0  0  0  0  0  0  0  0  0  0
   -3.6806    1.4044  -19.6081 C   0  0  0  0  0  0  0  0  0  0  0  0
   -3.3955    1.8491  -20.8701 C   0  0  0  0  0  0  0  0  0  0  0  0
   -4.1881    1.4208  -21.9624 C   0  0  0  0  0  0  0  0  0  0  0  0
   -5.1825    0.4884  -21.7773 C   0  0  0  0  0  0  0  0  0  0  0  0
   -5.5306    0.0493  -20.4712 C   0  0  0  0  0  0  0  0  0  0  0  0
   -5.7113    0.0835  -22.6361 H   0  0  0  0  0  0  0  0  0  0  0  0
   -4.0225    1.8570  -22.9466 H   0  0  0  0  0  0  0  0  0  0  0  0
   -2.5601    2.5250  -21.0469 H   0  0  0  0  0  0  0  0  0  0  0  0
   -3.0807    1.7153  -18.7545 H   0  0  0  0  0  0  0  0  0  0  0  0
   -4.6448    0.5820  -17.2048 H   0  0  0  0  0  0  0  0  0  0  0  0
   -7.7430   -1.7331  -18.6182 H   0  0  0  0  0  0  0  0  0  0  0  0
   -7.6272   -0.7895  -22.0743 H   0  0  0  0  0  0  0  0  0  0  0  0
   -8.3527   -1.8658  -20.8821 H   0  0  0  0  0  0  0  0  0  0  0  0
   -8.3981   -2.7009  -23.7644 C   0  0  1  0  0  0  0  0  0  0  0  0
   -7.9325   -1.6658  -24.7917 C   0  0  0  0  0  0  0  0  0  0  0  0
   -7.4469   -2.1295  -25.6534 H   0  0  0  0  0  0  0  0  0  0  0  0
   -8.8032   -1.1130  -25.1647 H   0  0  0  0  0  0  0  0  0  0  0  0
   -7.2245   -0.9514  -24.3616 H   0  0  0  0  0  0  0  0  0  0  0  0
   -9.3242   -3.7572  -24.3931 C   0  0  0  0  0  0  0  0  0  0  0  0
   -9.9597   -4.1577  -23.5967 H   0  0  0  0  0  0  0  0  0  0  0  0
  -10.0060   -3.2485  -25.0908 H   0  0  0  0  0  0  0  0  0  0  0  0
   -9.0175   -2.1681  -23.0339 H   0  0  0  0  0  0  0  0  0  0  0  0
   -6.1585   -4.9799  -22.6696 H   0  0  0  0  0  0  0  0  0  0  0  0
   -8.0439   -6.0129  -23.3175 H   0  0  0  0  0  0  0  0  0  0  0  0
   -6.9689   -6.2698  -24.6744 H   0  0  0  0  0  0  0  0  0  0  0  0
   -9.4049   -5.7149  -25.2011 H   0  0  0  0  0  0  0  0  0  0  0  0
   -7.8969   -5.6117  -27.0154 H   0  0  0  0  0  0  0  0  0  0  0  0
   -8.9074   -4.1683  -27.1111 H   0  0  0  0  0  0  0  0  0  0  0  0
   -7.2322   -4.0549  -26.5531 H   0  0  0  0  0  0  0  0  0  0  0  0
  1  2  1  0
  2  3  1  0
  3  4  1  0
  4  5  1  0
  5  6  1  0
  5  7  1  0
  5  8  1  0
  4  9  1  0
  9 10  1  0
 10 11  2  0
 10 12  1  0
 12 13  1  0
 13 14  2  0
 14 15  1  0
 15 16  2  0
 16 17  1  0
 17 18  2  0
 18 19  1  0
 19 20  2  0
 20 21  1  0
 21 22  2  0
 21 23  1  0
 20 24  1  0
 19 25  1  0
 18 26  1  0
 16 27  1  0
 14 28  1  0
 12 29  1  0
 12 30  1  0
  9 31  1  0
 31 32  1  0
 32 33  1  0
 32 34  1  0
 32 35  1  0
 31 36  1  0
 36 37  1  0
 36 38  1  0
 31 39  1  1
  4 40  1  1
  3 41  1  0
  3 42  1  0
  2 43  1  6
  1 44  1  0
  1 45  1  0
  1 46  1  0
 36  2  1  0
 22 13  1  0
 22 17  1  0
M  END
>  <cnnaffinities>  (37) 
[4.84032, 4.91064]

>  <score>  (37) 
4.84032

>  <index>  (37) 
38

>  <Smiles>  (37) 
C([C@]1(C([C@@](C([H])([H])[H])(N(C(=O)C(c2c(nc(c3c(c(c(c(c23)[H])[H])[H])[H])[H])[H])([H])[H])[C@@](C([H])([H])[H])(C1([H])[H])[H])[H])([H])[H])[H])([H])([H])[H]

>  <h>  (37) 
<NA>

>  <Training>  (37) 
True

>  <Success>  (37) 
True

>  <enamine_searched>  (37) 
False

>  <enamine_id>  (37) 
nan

$$$$

     RDKit          3D

 40 44  0  0  0  0  0  0  0  0999 V2000
  -10.6068   -0.6393  -25.9962 C   0  0  0  0  0  0  0  0  0  0  0  0
  -10.5939   -2.1013  -25.6094 C   0  0  0  0  0  0  0  0  0  0  0  0
  -10.5957   -3.0081  -26.4246 O   0  0  0  0  0  0  0  0  0  0  0  0
  -10.5696   -2.3652  -24.2761 N   0  0  0  0  0  0  0  0  0  0  0  0
  -10.3459   -3.7365  -23.7859 C   0  0  0  0  0  0  0  0  0  0  0  0
  -10.0194   -3.4653  -22.3083 C   0  0  2  0  0  0  0  0  0  0  0  0
  -11.0089   -2.3170  -22.0077 C   0  0  0  0  0  0  0  0  0  0  0  0
  -10.4274   -1.4368  -23.1485 C   0  0  1  0  0  0  0  0  0  0  0  0
   -9.0207   -1.4354  -22.7165 C   0  0  0  0  0  0  0  0  0  0  0  0
   -8.1737   -0.5155  -22.0343 C   0  0  0  0  0  0  0  0  0  0  0  0
   -8.0953    0.6925  -22.0488 O   0  0  0  0  0  1  0  0  0  0  0  0
   -7.3778   -1.3599  -21.1921 N   0  0  0  0  0  0  0  0  0  0  0  0
   -6.5859   -0.8319  -20.1506 C   0  0  0  0  0  0  0  0  0  0  0  0
   -6.8879   -1.0952  -18.8342 C   0  0  0  0  0  0  0  0  0  0  0  0
   -6.1985   -0.5897  -17.7806 N   0  0  0  0  0  0  0  0  0  0  0  0
   -5.1898    0.2049  -18.0520 C   0  0  0  0  0  0  0  0  0  0  0  0
   -4.7857    0.5667  -19.3719 C   0  0  0  0  0  0  0  0  0  0  0  0
   -3.6630    1.4051  -19.6090 C   0  0  0  0  0  0  0  0  0  0  0  0
   -3.3735    1.8397  -20.8737 C   0  0  0  0  0  0  0  0  0  0  0  0
   -4.1758    1.4292  -21.9675 C   0  0  0  0  0  0  0  0  0  0  0  0
   -5.1433    0.4657  -21.7797 C   0  0  0  0  0  0  0  0  0  0  0  0
   -5.5081    0.0516  -20.4653 C   0  0  0  0  0  0  0  0  0  0  0  0
   -5.6310    0.0238  -22.6423 H   0  0  0  0  0  0  0  0  0  0  0  0
   -3.9857    1.8226  -22.9610 H   0  0  0  0  0  0  0  0  0  0  0  0
   -2.5105    2.4785  -21.0570 H   0  0  0  0  0  0  0  0  0  0  0  0
   -3.0671    1.7066  -18.7537 H   0  0  0  0  0  0  0  0  0  0  0  0
   -4.6301    0.6012  -17.2029 H   0  0  0  0  0  0  0  0  0  0  0  0
   -7.7406   -1.7231  -18.5803 H   0  0  0  0  0  0  0  0  0  0  0  0
   -7.8042   -2.7010  -21.2483 C   0  0  0  0  0  0  0  0  0  0  0  0
   -7.4296   -3.6159  -20.5512 O   0  0  0  0  0  0  0  0  0  0  0  0
   -8.7374   -2.7180  -22.2749 N   0  0  0  0  0  0  0  0  0  0  0  0
  -10.8576   -0.4558  -23.3436 H   0  0  0  0  0  0  0  0  0  0  0  0
  -10.8116   -1.8864  -21.0282 H   0  0  0  0  0  0  0  0  0  0  0  0
  -12.0637   -2.5667  -22.1384 H   0  0  0  0  0  0  0  0  0  0  0  0
   -9.9708   -4.3035  -21.6275 H   0  0  0  0  0  0  0  0  0  0  0  0
   -9.5384   -4.2034  -24.3524 H   0  0  0  0  0  0  0  0  0  0  0  0
  -11.2520   -4.3403  -23.9168 H   0  0  0  0  0  0  0  0  0  0  0  0
  -11.4889   -0.1267  -25.6015 H   0  0  0  0  0  0  0  0  0  0  0  0
   -9.7297   -0.1276  -25.5910 H   0  0  0  0  0  0  0  0  0  0  0  0
  -10.5937   -0.5876  -27.0820 H   0  0  0  0  0  0  0  0  0  0  0  0
  1  2  1  0
  2  3  2  0
  2  4  1  0
  4  5  1  0
  5  6  1  0
  6  7  1  0
  7  8  1  0
  8  9  1  0
  9 10  2  0
 10 11  1  0
 10 12  1  0
 12 13  1  0
 13 14  2  0
 14 15  1  0
 15 16  2  0
 16 17  1  0
 17 18  2  0
 18 19  1  0
 19 20  2  0
 20 21  1  0
 21 22  2  0
 21 23  1  0
 20 24  1  0
 19 25  1  0
 18 26  1  0
 16 27  1  0
 14 28  1  0
 12 29  1  0
 29 30  2  0
 29 31  1  0
  8 32  1  6
  7 33  1  0
  7 34  1  0
  6 35  1  1
  5 36  1  0
  5 37  1  0
  1 38  1  0
  1 39  1  0
  1 40  1  0
  8  4  1  0
 31  9  1  0
 31  6  1  0
 22 13  1  0
 22 17  1  0
M  CHG  1  11  -1
M  END
>  <cnnaffinities>  (38) 
[4.94415, 4.98757, 5.00113, 5.063]

>  <score>  (38) 
4.94415

>  <index>  (38) 
39

>  <Smiles>  (38) 
C(C(=O)N1C([C@@]2(C([C@]1(c1c([O-])n(c3c(nc(c4c(c(c(c(c34)[H])[H])[H])[H])[H])[H])c(=O)n21)[H])([H])[H])[H])([H])[H])([H])([H])[H]

>  <h>  (38) 
<NA>

>  <Training>  (38) 
True

>  <Success>  (38) 
True

>  <enamine_searched>  (38) 
False

>  <enamine_id>  (38) 
nan

$$$$

     RDKit          3D

 40 42  0  0  0  0  0  0  0  0999 V2000
  -12.8795   -1.7664  -25.2540 C   0  0  0  0  0  0  0  0  0  0  0  0
  -11.9790   -1.7098  -24.0241 C   0  0  0  0  0  0  0  0  0  0  0  0
  -10.6513   -2.4583  -24.1907 C   0  0  0  0  0  0  0  0  0  0  0  0
   -9.7759   -2.3445  -22.9325 C   0  0  0  0  0  0  0  0  0  0  0  0
   -9.5525   -0.9381  -22.5743 N   0  0  0  0  0  0  0  0  0  0  0  0
   -8.5567   -0.4760  -21.7343 C   0  0  0  0  0  0  0  0  0  0  0  0
   -8.5696    0.6774  -21.3308 O   0  0  0  0  0  0  0  0  0  0  0  0
   -7.4619   -1.4427  -21.2726 C   0  0  0  0  0  0  0  0  0  0  0  0
   -6.6327   -0.8259  -20.1858 C   0  0  0  0  0  0  0  0  0  0  0  0
   -6.9251   -1.0887  -18.8746 C   0  0  0  0  0  0  0  0  0  0  0  0
   -6.2464   -0.6024  -17.8053 N   0  0  0  0  0  0  0  0  0  0  0  0
   -5.2251    0.1791  -18.0588 C   0  0  0  0  0  0  0  0  0  0  0  0
   -4.8236    0.5668  -19.3690 C   0  0  0  0  0  0  0  0  0  0  0  0
   -3.7367    1.4509  -19.5952 C   0  0  0  0  0  0  0  0  0  0  0  0
   -3.4960    1.9499  -20.8447 C   0  0  0  0  0  0  0  0  0  0  0  0
   -4.3017    1.5441  -21.9357 C   0  0  0  0  0  0  0  0  0  0  0  0
   -5.3152    0.6350  -21.7584 C   0  0  0  0  0  0  0  0  0  0  0  0
   -5.5935    0.1095  -20.4648 C   0  0  0  0  0  0  0  0  0  0  0  0
   -5.9164    0.3321  -22.6095 H   0  0  0  0  0  0  0  0  0  0  0  0
   -4.1180    1.9691  -22.9186 H   0  0  0  0  0  0  0  0  0  0  0  0
   -2.7020    2.6717  -21.0089 H   0  0  0  0  0  0  0  0  0  0  0  0
   -3.1297    1.7634  -18.7451 H   0  0  0  0  0  0  0  0  0  0  0  0
   -4.6655    0.5558  -17.2003 H   0  0  0  0  0  0  0  0  0  0  0  0
   -7.7538   -1.7532  -18.6286 H   0  0  0  0  0  0  0  0  0  0  0  0
   -6.8350   -1.7447  -22.1205 H   0  0  0  0  0  0  0  0  0  0  0  0
   -7.9596   -2.3425  -20.8854 H   0  0  0  0  0  0  0  0  0  0  0  0
  -10.8271   -0.2523  -22.3748 C   0  0  0  0  0  0  0  0  0  0  0  0
  -11.6728   -0.2673  -23.6241 C   0  0  0  0  0  0  0  0  0  0  0  0
  -12.6007    0.2958  -23.4471 H   0  0  0  0  0  0  0  0  0  0  0  0
  -11.1197    0.2434  -24.4241 H   0  0  0  0  0  0  0  0  0  0  0  0
  -11.3593   -0.8257  -21.5965 H   0  0  0  0  0  0  0  0  0  0  0  0
  -10.6224    0.7630  -22.0360 H   0  0  0  0  0  0  0  0  0  0  0  0
   -8.8293   -2.8586  -23.1078 H   0  0  0  0  0  0  0  0  0  0  0  0
  -10.2856   -2.8642  -22.0987 H   0  0  0  0  0  0  0  0  0  0  0  0
  -10.1005   -2.0490  -25.0497 H   0  0  0  0  0  0  0  0  0  0  0  0
  -10.8449   -3.5172  -24.4152 H   0  0  0  0  0  0  0  0  0  0  0  0
  -12.5271   -2.1888  -23.1935 H   0  0  0  0  0  0  0  0  0  0  0  0
  -12.4082   -1.2777  -26.1151 H   0  0  0  0  0  0  0  0  0  0  0  0
  -13.8253   -1.2486  -25.0558 H   0  0  0  0  0  0  0  0  0  0  0  0
  -13.1086   -2.8005  -25.5311 H   0  0  0  0  0  0  0  0  0  0  0  0
  1  2  1  0
  2  3  1  0
  3  4  1  0
  4  5  1  0
  5  6  1  0
  6  7  2  0
  6  8  1  0
  8  9  1  0
  9 10  2  0
 10 11  1  0
 11 12  2  0
 12 13  1  0
 13 14  2  0
 14 15  1  0
 15 16  2  0
 16 17  1  0
 17 18  2  0
 17 19  1  0
 16 20  1  0
 15 21  1  0
 14 22  1  0
 12 23  1  0
 10 24  1  0
  8 25  1  0
  8 26  1  0
  5 27  1  0
 27 28  1  0
 28 29  1  0
 28 30  1  0
 27 31  1  0
 27 32  1  0
  4 33  1  0
  4 34  1  0
  3 35  1  0
  3 36  1  0
  2 37  1  0
  1 38  1  0
  1 39  1  0
  1 40  1  0
 28  2  1  0
 18  9  1  0
 18 13  1  0
M  END
>  <cnnaffinities>  (39) 
[4.66976, 4.71093, 4.71084]

>  <score>  (39) 
4.66976

>  <index>  (39) 
40

>  <Smiles>  (39) 
C(C1(C(C(N(C(=O)C(c2c(nc(c3c(c(c(c(c23)[H])[H])[H])[H])[H])[H])([H])[H])C(C1([H])[H])([H])[H])([H])[H])([H])[H])[H])([H])([H])[H]

>  <h>  (39) 
<NA>

>  <Training>  (39) 
True

>  <Success>  (39) 
True

>  <enamine_searched>  (39) 
False

>  <enamine_id>  (39) 
nan

$$$$

     RDKit          3D

 67 71  0  0  0  0  0  0  0  0999 V2000
   -7.6730    2.9893  -21.9719 C   0  0  0  0  0  0  0  0  0  0  0  0
   -8.8342    2.5186  -22.7107 N   0  0  0  0  0  0  0  0  0  0  0  0
   -8.5628    1.7169  -23.7810 C   0  0  0  0  0  0  0  0  0  0  0  0
   -7.4131    1.4680  -24.1274 O   0  0  0  0  0  0  0  0  0  0  0  0
   -9.7413    1.1145  -24.5404 C   0  0  0  0  0  0  0  0  0  0  0  0
  -10.1551   -0.1074  -23.8860 N   0  0  0  0  0  0  0  0  0  0  0  0
   -9.2431   -1.2442  -23.8795 C   0  0  0  0  0  0  0  0  0  0  0  0
   -9.2888   -1.9850  -22.5161 C   0  0  2  0  0  0  0  0  0  0  0  0
   -8.6963   -1.0395  -21.4402 C   0  0  0  0  0  0  0  0  0  0  0  0
   -9.2324   -0.0615  -20.9599 O   0  0  0  0  0  0  0  0  0  0  0  0
   -7.4095   -1.4544  -21.1552 N   0  0  0  0  0  0  0  0  0  0  0  0
   -6.6367   -0.8307  -20.1452 C   0  0  0  0  0  0  0  0  0  0  0  0
   -6.9342   -1.0662  -18.8250 C   0  0  0  0  0  0  0  0  0  0  0  0
   -6.2260   -0.5767  -17.7813 N   0  0  0  0  0  0  0  0  0  0  0  0
   -5.1987    0.1909  -18.0579 C   0  0  0  0  0  0  0  0  0  0  0  0
   -4.7987    0.5422  -19.3792 C   0  0  0  0  0  0  0  0  0  0  0  0
   -3.7027    1.4131  -19.6212 C   0  0  0  0  0  0  0  0  0  0  0  0
   -3.4284    1.8508  -20.8880 C   0  0  0  0  0  0  0  0  0  0  0  0
   -4.2229    1.4245  -21.9739 C   0  0  0  0  0  0  0  0  0  0  0  0
   -5.2283    0.5013  -21.7800 C   0  0  0  0  0  0  0  0  0  0  0  0
   -5.5564    0.0485  -20.4692 C   0  0  0  0  0  0  0  0  0  0  0  0
   -5.8090    0.1722  -22.6366 H   0  0  0  0  0  0  0  0  0  0  0  0
   -4.0448    1.8369  -22.9633 H   0  0  0  0  0  0  0  0  0  0  0  0
   -2.6045    2.5383  -21.0611 H   0  0  0  0  0  0  0  0  0  0  0  0
   -3.1076    1.7377  -18.7714 H   0  0  0  0  0  0  0  0  0  0  0  0
   -4.6228    0.5764  -17.2151 H   0  0  0  0  0  0  0  0  0  0  0  0
   -7.7836   -1.6971  -18.5770 H   0  0  0  0  0  0  0  0  0  0  0  0
   -6.9627   -2.5755  -21.9590 C   0  0  0  0  0  0  0  0  0  0  0  0
   -8.2918   -3.1791  -22.4480 C   0  0  2  0  0  0  0  0  0  0  0  0
   -8.1861   -3.9816  -23.7443 C   0  0  0  0  0  0  0  0  0  0  0  0
   -7.2080   -5.4720  -23.5555 S   0  0  0  0  0  0  0  0  0  0  0  0
   -5.8147   -5.0847  -23.4099 O   0  0  0  0  0  0  0  0  0  0  0  0
   -7.8201   -6.3124  -22.5379 O   0  0  0  0  0  0  0  0  0  0  0  0
   -7.3889   -6.2269  -25.0297 N   0  0  0  0  0  0  0  0  0  0  0  0
   -8.5977   -6.9918  -25.3128 C   0  0  0  0  0  0  0  0  0  0  0  0
   -9.4926   -6.3739  -25.4979 H   0  0  0  0  0  0  0  0  0  0  0  0
   -8.4166   -7.5818  -26.2154 H   0  0  0  0  0  0  0  0  0  0  0  0
   -8.7878   -7.6835  -24.4892 H   0  0  0  0  0  0  0  0  0  0  0  0
   -6.7271   -5.6246  -26.1796 C   0  0  0  0  0  0  0  0  0  0  0  0
   -7.2785   -4.7770  -26.6189 H   0  0  0  0  0  0  0  0  0  0  0  0
   -6.6247   -6.3916  -26.9536 H   0  0  0  0  0  0  0  0  0  0  0  0
   -5.7287   -5.2991  -25.8803 H   0  0  0  0  0  0  0  0  0  0  0  0
   -9.1816   -4.2766  -24.0919 H   0  0  0  0  0  0  0  0  0  0  0  0
   -7.7085   -3.3887  -24.5316 H   0  0  0  0  0  0  0  0  0  0  0  0
   -8.6253   -3.8599  -21.6588 H   0  0  0  0  0  0  0  0  0  0  0  0
   -6.3409   -2.2473  -22.8064 H   0  0  0  0  0  0  0  0  0  0  0  0
   -6.3824   -3.2928  -21.3731 H   0  0  0  0  0  0  0  0  0  0  0  0
  -10.7537   -2.3253  -22.2688 C   0  0  0  0  0  0  0  0  0  0  0  0
  -11.1654   -3.4727  -21.5855 C   0  0  0  0  0  0  0  0  0  0  0  0
  -12.4979   -3.6369  -21.2572 C   0  0  0  0  0  0  0  0  0  0  0  0
  -12.8524   -4.6943  -20.5088 F   0  0  0  0  0  0  0  0  0  0  0  0
  -13.4899   -2.7419  -21.6287 C   0  0  0  0  0  0  0  0  0  0  0  0
  -13.1024   -1.6387  -22.3558 C   0  0  0  0  0  0  0  0  0  0  0  0
  -11.7613   -1.4336  -22.6698 C   0  0  0  0  0  0  0  0  0  0  0  0
  -11.4335   -0.1914  -23.4240 C   0  0  0  0  0  0  0  0  0  0  0  0
  -12.2642    0.6928  -23.6123 O   0  0  0  0  0  0  0  0  0  0  0  0
  -13.8153   -0.8952  -22.6911 H   0  0  0  0  0  0  0  0  0  0  0  0
  -14.5184   -2.9107  -21.3353 H   0  0  0  0  0  0  0  0  0  0  0  0
  -10.4706   -4.2284  -21.2486 H   0  0  0  0  0  0  0  0  0  0  0  0
   -9.5213   -1.9402  -24.6821 H   0  0  0  0  0  0  0  0  0  0  0  0
   -8.2335   -0.8731  -24.0847 H   0  0  0  0  0  0  0  0  0  0  0  0
   -9.4111    0.8884  -25.5607 H   0  0  0  0  0  0  0  0  0  0  0  0
  -10.6153    1.7727  -24.5872 H   0  0  0  0  0  0  0  0  0  0  0  0
   -9.6738    2.3660  -22.1606 H   0  0  0  0  0  0  0  0  0  0  0  0
   -7.9644    3.7011  -21.1984 H   0  0  0  0  0  0  0  0  0  0  0  0
   -7.1449    2.1372  -21.5204 H   0  0  0  0  0  0  0  0  0  0  0  0
   -7.0057    3.5129  -22.6620 H   0  0  0  0  0  0  0  0  0  0  0  0
  1  2  1  0
  2  3  1  0
  3  4  2  0
  3  5  1  0
  5  6  1  0
  6  7  1  0
  8  7  1  6
  8  9  1  0
  9 10  2  0
  9 11  1  0
 11 12  1  0
 12 13  2  0
 13 14  1  0
 14 15  2  0
 15 16  1  0
 16 17  2  0
 17 18  1  0
 18 19  2  0
 19 20  1  0
 20 21  2  0
 20 22  1  0
 19 23  1  0
 18 24  1  0
 17 25  1  0
 15 26  1  0
 13 27  1  0
 11 28  1  0
 28 29  1  0
 29 30  1  0
 30 31  1  0
 31 32  2  0
 31 33  2  0
 31 34  1  0
 34 35  1  0
 35 36  1  0
 35 37  1  0
 35 38  1  0
 34 39  1  0
 39 40  1  0
 39 41  1  0
 39 42  1  0
 30 43  1  0
 30 44  1  0
 29 45  1  1
 28 46  1  0
 28 47  1  0
  8 48  1  0
 48 49  2  0
 49 50  1  0
 50 51  1  0
 50 52  2  0
 52 53  1  0
 53 54  2  0
 54 55  1  0
 55 56  2  0
 53 57  1  0
 52 58  1  0
 49 59  1  0
  7 60  1  0
  7 61  1  0
  5 62  1  0
  5 63  1  0
  2 64  1  0
  1 65  1  0
  1 66  1  0
  1 67  1  0
 55  6  1  0
 29  8  1  0
 54 48  1  0
 21 12  1  0
 21 16  1  0
M  END
>  <cnnaffinities>  (40) 
[6.6622, 6.80699]

>  <score>  (40) 
6.6622

>  <index>  (40) 
41

>  <Smiles>  (40) 
C(N(C(=O)C(N1C([C@@]2(C(=O)N(c3c(nc(c4c(c(c(c(c34)[H])[H])[H])[H])[H])[H])C([C@@]2(C(S(=O)(=O)N(C([H])([H])[H])C([H])([H])[H])([H])[H])[H])([H])[H])c2c(c(F)c(c(c2C1=O)[H])[H])[H])([H])[H])([H])[H])[H])([H])([H])[H]

>  <h>  (40) 
<NA>

>  <Training>  (40) 
True

>  <Success>  (40) 
True

>  <enamine_searched>  (40) 
False

>  <enamine_id>  (40) 
nan

$$$$

     RDKit          3D

 67 72  0  0  0  0  0  0  0  0999 V2000
   -7.5571    3.1798  -21.9914 C   0  0  0  0  0  0  0  0  0  0  0  0
   -8.6864    2.6527  -22.7438 N   0  0  0  0  0  0  0  0  0  0  0  0
   -8.3941    1.8838  -23.8319 C   0  0  0  0  0  0  0  0  0  0  0  0
   -7.2414    1.6531  -24.1636 O   0  0  0  0  0  0  0  0  0  0  0  0
   -9.5468    1.2781  -24.6348 C   0  0  0  0  0  0  0  0  0  0  0  0
   -9.9887    0.0485  -24.0063 N   0  0  0  0  0  0  0  0  0  0  0  0
   -9.0867   -1.0943  -23.9763 C   0  0  0  0  0  0  0  0  0  0  0  0
   -9.2191   -1.8840  -22.6452 C   0  0  2  0  0  0  0  0  0  0  0  0
   -8.6672   -1.0013  -21.4989 C   0  0  0  0  0  0  0  0  0  0  0  0
   -9.2084   -0.0376  -20.9916 O   0  0  0  0  0  0  0  0  0  0  0  0
   -7.4058   -1.4506  -21.1718 N   0  0  0  0  0  0  0  0  0  0  0  0
   -6.6397   -0.8246  -20.1568 C   0  0  0  0  0  0  0  0  0  0  0  0
   -6.9393   -1.0667  -18.8384 C   0  0  0  0  0  0  0  0  0  0  0  0
   -6.2369   -0.5753  -17.7898 N   0  0  0  0  0  0  0  0  0  0  0  0
   -5.1944    0.1722  -18.0614 C   0  0  0  0  0  0  0  0  0  0  0  0
   -4.7945    0.5396  -19.3780 C   0  0  0  0  0  0  0  0  0  0  0  0
   -3.7140    1.4314  -19.6120 C   0  0  0  0  0  0  0  0  0  0  0  0
   -3.4406    1.8709  -20.8785 C   0  0  0  0  0  0  0  0  0  0  0  0
   -4.2416    1.4551  -21.9658 C   0  0  0  0  0  0  0  0  0  0  0  0
   -5.2443    0.5299  -21.7763 C   0  0  0  0  0  0  0  0  0  0  0  0
   -5.5614    0.0627  -20.4704 C   0  0  0  0  0  0  0  0  0  0  0  0
   -5.8473    0.2242  -22.6264 H   0  0  0  0  0  0  0  0  0  0  0  0
   -4.0540    1.8572  -22.9594 H   0  0  0  0  0  0  0  0  0  0  0  0
   -2.6348    2.5787  -21.0487 H   0  0  0  0  0  0  0  0  0  0  0  0
   -3.1209    1.7562  -18.7599 H   0  0  0  0  0  0  0  0  0  0  0  0
   -4.6346    0.5724  -17.2149 H   0  0  0  0  0  0  0  0  0  0  0  0
   -7.7856   -1.7020  -18.5894 H   0  0  0  0  0  0  0  0  0  0  0  0
   -6.9499   -2.5701  -21.9740 C   0  0  0  0  0  0  0  0  0  0  0  0
   -8.2550   -3.1022  -22.5943 C   0  0  2  0  0  0  0  0  0  0  0  0
   -8.0746   -3.8312  -23.9287 C   0  0  0  0  0  0  0  0  0  0  0  0
   -7.3763   -5.0769  -23.7473 N   0  0  0  0  0  0  0  0  0  0  0  0
   -6.9265   -5.8292  -24.8007 C   0  0  0  0  0  0  0  0  0  0  0  0
   -7.4275   -5.5107  -26.4342 S   0  0  0  0  0  0  0  0  0  0  0  0
   -6.4208   -6.8314  -26.9507 C   0  0  0  0  0  0  0  0  0  0  0  0
   -5.7925   -7.4465  -26.0064 N   0  0  0  0  0  0  0  0  0  0  0  0
   -6.0887   -6.9085  -24.7697 C   0  0  0  0  0  0  0  0  0  0  0  0
   -5.5380   -7.5610  -23.5383 C   0  0  0  0  0  0  0  0  0  0  0  0
   -5.0127   -8.4763  -23.8259 H   0  0  0  0  0  0  0  0  0  0  0  0
   -6.3436   -7.8309  -22.8434 H   0  0  0  0  0  0  0  0  0  0  0  0
   -4.8337   -6.9143  -22.9996 H   0  0  0  0  0  0  0  0  0  0  0  0
   -6.3569   -7.1049  -27.9977 H   0  0  0  0  0  0  0  0  0  0  0  0
   -6.9857   -5.2759  -22.8397 H   0  0  0  0  0  0  0  0  0  0  0  0
   -7.5157   -3.1932  -24.6323 H   0  0  0  0  0  0  0  0  0  0  0  0
   -9.0635   -4.0199  -24.3693 H   0  0  0  0  0  0  0  0  0  0  0  0
   -8.6620   -3.8210  -21.8762 H   0  0  0  0  0  0  0  0  0  0  0  0
   -6.4498   -3.3151  -21.3461 H   0  0  0  0  0  0  0  0  0  0  0  0
   -6.2296   -2.2474  -22.7432 H   0  0  0  0  0  0  0  0  0  0  0  0
  -10.6954   -2.1986  -22.4521 C   0  0  0  0  0  0  0  0  0  0  0  0
  -11.1381   -3.2865  -21.6878 C   0  0  0  0  0  0  0  0  0  0  0  0
  -12.4862   -3.4527  -21.4132 C   0  0  0  0  0  0  0  0  0  0  0  0
  -12.9862   -4.7386  -20.3474 Cl  0  0  0  0  0  0  0  0  0  0  0  0
  -13.4538   -2.5910  -21.9262 C   0  0  0  0  0  0  0  0  0  0  0  0
  -13.0293   -1.5304  -22.6983 C   0  0  0  0  0  0  0  0  0  0  0  0
  -11.6744   -1.3218  -22.9449 C   0  0  0  0  0  0  0  0  0  0  0  0
  -11.3130   -0.0880  -23.7093 C   0  0  0  0  0  0  0  0  0  0  0  0
  -12.1558    0.7428  -24.0346 O   0  0  0  0  0  0  0  0  0  0  0  0
  -13.7323   -0.8208  -23.1192 H   0  0  0  0  0  0  0  0  0  0  0  0
  -14.5055   -2.7426  -21.7053 H   0  0  0  0  0  0  0  0  0  0  0  0
  -10.4511   -3.9968  -21.2428 H   0  0  0  0  0  0  0  0  0  0  0  0
   -8.0654   -0.7219  -24.0965 H   0  0  0  0  0  0  0  0  0  0  0  0
   -9.3079   -1.7603  -24.8232 H   0  0  0  0  0  0  0  0  0  0  0  0
  -10.4129    1.9398  -24.6900 H   0  0  0  0  0  0  0  0  0  0  0  0
   -9.1991    1.0869  -25.6636 H   0  0  0  0  0  0  0  0  0  0  0  0
   -9.5454    2.4871  -22.2387 H   0  0  0  0  0  0  0  0  0  0  0  0
   -7.8917    3.9459  -21.2894 H   0  0  0  0  0  0  0  0  0  0  0  0
   -6.8391    3.6222  -22.6888 H   0  0  0  0  0  0  0  0  0  0  0  0
   -7.0631    2.3809  -21.4266 H   0  0  0  0  0  0  0  0  0  0  0  0
  1  2  1  0
  2  3  1  0
  3  4  2  0
  3  5  1  0
  5  6  1  0
  6  7  1  0
  8  7  1  6
  8  9  1  0
  9 10  2  0
  9 11  1  0
 11 12  1  0
 12 13  2  0
 13 14  1  0
 14 15  2  0
 15 16  1  0
 16 17  2  0
 17 18  1  0
 18 19  2  0
 19 20  1  0
 20 21  2  0
 20 22  1  0
 19 23  1  0
 18 24  1  0
 17 25  1  0
 15 26  1  0
 13 27  1  0
 11 28  1  0
 28 29  1  0
 29 30  1  0
 30 31  1  0
 31 32  1  0
 32 33  1  0
 33 34  1  0
 34 35  2  0
 35 36  1  0
 36 37  1  0
 37 38  1  0
 37 39  1  0
 37 40  1  0
 34 41  1  0
 31 42  1  0
 30 43  1  0
 30 44  1  0
 29 45  1  1
 28 46  1  0
 28 47  1  0
  8 48  1  0
 48 49  2  0
 49 50  1  0
 50 51  1  0
 50 52  2  0
 52 53  1  0
 53 54  2  0
 54 55  1  0
 55 56  2  0
 53 57  1  0
 52 58  1  0
 49 59  1  0
  7 60  1  0
  7 61  1  0
  5 62  1  0
  5 63  1  0
  2 64  1  0
  1 65  1  0
  1 66  1  0
  1 67  1  0
 55  6  1  0
 29  8  1  0
 36 32  2  0
 54 48  1  0
 21 12  1  0
 21 16  1  0
M  END
>  <cnnaffinities>  (41) 
[6.92258]

>  <score>  (41) 
6.92258

>  <index>  (41) 
43

>  <Smiles>  (41) 
C(N(C(=O)C(N1C([C@@]2(C(=O)N(c3c(nc(c4c(c(c(c(c34)[H])[H])[H])[H])[H])[H])C([C@@]2(C(N(c2sc(nc2C([H])([H])[H])[H])[H])([H])[H])[H])([H])[H])c2c(c(Cl)c(c(c2C1=O)[H])[H])[H])([H])[H])([H])[H])[H])([H])([H])[H]

>  <h>  (41) 
<NA>

>  <Training>  (41) 
True

>  <Success>  (41) 
True

>  <enamine_searched>  (41) 
False

>  <enamine_id>  (41) 
nan

$$$$

     RDKit          3D

 60 64  0  0  0  0  0  0  0  0999 V2000
   -7.3952    3.4042  -21.8474 C   0  0  0  0  0  0  0  0  0  0  0  0
   -8.2792    2.9558  -22.9028 N   0  0  0  0  0  0  0  0  0  0  0  0
   -7.7242    2.2232  -23.9046 C   0  0  0  0  0  0  0  0  0  0  0  0
   -6.5155    2.0803  -24.0117 O   0  0  0  0  0  0  0  0  0  0  0  0
   -8.6835    1.6002  -24.9099 C   0  0  0  0  0  0  0  0  0  0  0  0
   -9.3868    0.4585  -24.3718 N   0  0  0  0  0  0  0  0  0  0  0  0
   -8.6623   -0.7875  -24.1968 C   0  0  0  0  0  0  0  0  0  0  0  0
   -9.0501   -1.4999  -22.8846 C   0  0  2  0  0  0  0  0  0  0  0  0
   -8.5087   -0.7247  -21.6642 C   0  0  0  0  0  0  0  0  0  0  0  0
   -8.9454    0.2998  -21.1810 O   0  0  0  0  0  0  0  0  0  0  0  0
   -7.4077   -1.3855  -21.1792 N   0  0  0  0  0  0  0  0  0  0  0  0
   -6.6229   -0.8001  -20.1551 C   0  0  0  0  0  0  0  0  0  0  0  0
   -6.9260   -1.0568  -18.8422 C   0  0  0  0  0  0  0  0  0  0  0  0
   -6.2149   -0.5838  -17.7894 N   0  0  0  0  0  0  0  0  0  0  0  0
   -5.2007    0.2062  -18.0565 C   0  0  0  0  0  0  0  0  0  0  0  0
   -4.7987    0.5801  -19.3739 C   0  0  0  0  0  0  0  0  0  0  0  0
   -3.6682    1.4052  -19.6234 C   0  0  0  0  0  0  0  0  0  0  0  0
   -3.3681    1.8190  -20.8952 C   0  0  0  0  0  0  0  0  0  0  0  0
   -4.1742    1.4049  -21.9829 C   0  0  0  0  0  0  0  0  0  0  0  0
   -5.1691    0.4760  -21.7866 C   0  0  0  0  0  0  0  0  0  0  0  0
   -5.5319    0.0660  -20.4698 C   0  0  0  0  0  0  0  0  0  0  0  0
   -5.7064    0.0724  -22.6410 H   0  0  0  0  0  0  0  0  0  0  0  0
   -3.9842    1.7859  -22.9860 H   0  0  0  0  0  0  0  0  0  0  0  0
   -2.5078    2.4630  -21.0720 H   0  0  0  0  0  0  0  0  0  0  0  0
   -3.0787    1.7292  -18.7703 H   0  0  0  0  0  0  0  0  0  0  0  0
   -4.6217    0.5796  -17.2088 H   0  0  0  0  0  0  0  0  0  0  0  0
   -7.7887   -1.6760  -18.5999 H   0  0  0  0  0  0  0  0  0  0  0  0
   -7.0694   -2.5888  -21.9063 C   0  0  0  0  0  0  0  0  0  0  0  0
   -8.3257   -2.8720  -22.7390 C   0  0  2  0  0  0  0  0  0  0  0  0
   -7.9640   -3.6361  -24.0054 C   0  0  0  0  0  0  0  0  0  0  0  0
   -9.1270   -3.9278  -24.7344 O   0  0  0  0  0  0  0  0  0  0  0  0
   -8.8363   -4.5640  -25.9546 C   0  0  0  0  0  0  0  0  0  0  0  0
   -8.2334   -3.9254  -26.6216 H   0  0  0  0  0  0  0  0  0  0  0  0
   -8.3009   -5.5169  -25.8086 H   0  0  0  0  0  0  0  0  0  0  0  0
   -9.7877   -4.7648  -26.4399 H   0  0  0  0  0  0  0  0  0  0  0  0
   -7.2628   -3.0402  -24.6155 H   0  0  0  0  0  0  0  0  0  0  0  0
   -7.4412   -4.5728  -23.7409 H   0  0  0  0  0  0  0  0  0  0  0  0
   -9.0014   -3.5098  -22.1721 H   0  0  0  0  0  0  0  0  0  0  0  0
   -6.2071   -2.4290  -22.5723 H   0  0  0  0  0  0  0  0  0  0  0  0
   -6.8214   -3.4080  -21.2233 H   0  0  0  0  0  0  0  0  0  0  0  0
  -10.5648   -1.5506  -22.8282 C   0  0  0  0  0  0  0  0  0  0  0  0
  -11.2058   -2.4447  -21.9662 C   0  0  0  0  0  0  0  0  0  0  0  0
  -12.5857   -2.4547  -21.8788 C   0  0  0  0  0  0  0  0  0  0  0  0
  -13.3470   -3.5675  -20.7752 Cl  0  0  0  0  0  0  0  0  0  0  0  0
  -13.3775   -1.5821  -22.6290 C   0  0  0  0  0  0  0  0  0  0  0  0
  -12.7522   -0.6602  -23.4451 C   0  0  0  0  0  0  0  0  0  0  0  0
  -11.3612   -0.6253  -23.5197 C   0  0  0  0  0  0  0  0  0  0  0  0
  -10.7519    0.4978  -24.2940 C   0  0  0  0  0  0  0  0  0  0  0  0
  -11.4249    1.3924  -24.7867 O   0  0  0  0  0  0  0  0  0  0  0  0
  -13.3086    0.0735  -24.0223 H   0  0  0  0  0  0  0  0  0  0  0  0
  -14.4569   -1.6225  -22.5353 H   0  0  0  0  0  0  0  0  0  0  0  0
  -10.6336   -3.1217  -21.3406 H   0  0  0  0  0  0  0  0  0  0  0  0
   -8.8897   -1.4666  -25.0263 H   0  0  0  0  0  0  0  0  0  0  0  0
   -7.5931   -0.5583  -24.2036 H   0  0  0  0  0  0  0  0  0  0  0  0
   -9.4584    2.3106  -25.2045 H   0  0  0  0  0  0  0  0  0  0  0  0
   -8.0712    1.3093  -25.7691 H   0  0  0  0  0  0  0  0  0  0  0  0
   -9.2394    2.7868  -22.6560 H   0  0  0  0  0  0  0  0  0  0  0  0
   -6.6842    4.1291  -22.2377 H   0  0  0  0  0  0  0  0  0  0  0  0
   -6.8195    2.5632  -21.4556 H   0  0  0  0  0  0  0  0  0  0  0  0
   -7.9635    3.8582  -21.0383 H   0  0  0  0  0  0  0  0  0  0  0  0
  1  2  1  0
  2  3  1  0
  3  4  2  0
  3  5  1  0
  5  6  1  0
  6  7  1  0
  8  7  1  6
  8  9  1  0
  9 10  2  0
  9 11  1  0
 11 12  1  0
 12 13  2  0
 13 14  1  0
 14 15  2  0
 15 16  1  0
 16 17  2  0
 17 18  1  0
 18 19  2  0
 19 20  1  0
 20 21  2  0
 20 22  1  0
 19 23  1  0
 18 24  1  0
 17 25  1  0
 15 26  1  0
 13 27  1  0
 11 28  1  0
 28 29  1  0
 29 30  1  0
 30 31  1  0
 31 32  1  0
 32 33  1  0
 32 34  1  0
 32 35  1  0
 30 36  1  0
 30 37  1  0
 29 38  1  1
 28 39  1  0
 28 40  1  0
  8 41  1  0
 41 42  2  0
 42 43  1  0
 43 44  1  0
 43 45  2  0
 45 46  1  0
 46 47  2  0
 47 48  1  0
 48 49  2  0
 46 50  1  0
 45 51  1  0
 42 52  1  0
  7 53  1  0
  7 54  1  0
  5 55  1  0
  5 56  1  0
  2 57  1  0
  1 58  1  0
  1 59  1  0
  1 60  1  0
 48  6  1  0
 29  8  1  0
 47 41  1  0
 21 12  1  0
 21 16  1  0
M  END
>  <cnnaffinities>  (42) 
[5.69606, 5.91728, 5.68841, 5.79335, 5.92835]

>  <score>  (42) 
5.69606

>  <index>  (42) 
44

>  <Smiles>  (42) 
C(N(C(=O)C(N1C([C@@]2(C(=O)N(c3c(nc(c4c(c(c(c(c34)[H])[H])[H])[H])[H])[H])C([C@@]2(C(OC([H])([H])[H])([H])[H])[H])([H])[H])c2c(c(Cl)c(c(c2C1=O)[H])[H])[H])([H])[H])([H])[H])[H])([H])([H])[H]

>  <h>  (42) 
<NA>

>  <Training>  (42) 
True

>  <Success>  (42) 
True

>  <enamine_searched>  (42) 
False

>  <enamine_id>  (42) 
nan

$$$$

     RDKit          3D

 66 71  0  0  0  0  0  0  0  0999 V2000
   -6.9135    3.5386  -23.1491 C   0  0  0  0  0  0  0  0  0  0  0  0
   -7.8644    2.9497  -24.0714 N   0  0  0  0  0  0  0  0  0  0  0  0
   -7.4960    1.8566  -24.7823 C   0  0  0  0  0  0  0  0  0  0  0  0
   -6.3537    1.4064  -24.7715 O   0  0  0  0  0  0  0  0  0  0  0  0
   -8.6291    1.2045  -25.5794 C   0  0  0  0  0  0  0  0  0  0  0  0
   -9.3641    0.2827  -24.7323 N   0  0  0  0  0  0  0  0  0  0  0  0
   -8.7922   -1.0201  -24.4617 C   0  0  0  0  0  0  0  0  0  0  0  0
   -8.9740   -1.4886  -22.9976 C   0  0  2  0  0  0  0  0  0  0  0  0
   -8.2234   -0.5479  -22.0272 C   0  0  0  0  0  0  0  0  0  0  0  0
   -8.2923    0.6651  -21.9979 O   0  0  0  0  0  0  0  0  0  0  0  0
   -7.4518   -1.3099  -21.1784 N   0  0  0  0  0  0  0  0  0  0  0  0
   -6.6499   -0.7675  -20.1527 C   0  0  0  0  0  0  0  0  0  0  0  0
   -6.8846   -1.0997  -18.8424 C   0  0  0  0  0  0  0  0  0  0  0  0
   -6.1749   -0.6288  -17.7908 N   0  0  0  0  0  0  0  0  0  0  0  0
   -5.1765    0.1825  -18.0495 C   0  0  0  0  0  0  0  0  0  0  0  0
   -4.7999    0.5802  -19.3642 C   0  0  0  0  0  0  0  0  0  0  0  0
   -3.7195    1.4776  -19.5939 C   0  0  0  0  0  0  0  0  0  0  0  0
   -3.4768    1.9630  -20.8497 C   0  0  0  0  0  0  0  0  0  0  0  0
   -4.2635    1.5265  -21.9421 C   0  0  0  0  0  0  0  0  0  0  0  0
   -5.2572    0.5995  -21.7565 C   0  0  0  0  0  0  0  0  0  0  0  0
   -5.5721    0.1208  -20.4535 C   0  0  0  0  0  0  0  0  0  0  0  0
   -5.8372    0.2723  -22.6122 H   0  0  0  0  0  0  0  0  0  0  0  0
   -4.1073    1.9303  -22.9402 H   0  0  0  0  0  0  0  0  0  0  0  0
   -2.6835    2.6859  -21.0162 H   0  0  0  0  0  0  0  0  0  0  0  0
   -3.1261    1.8016  -18.7418 H   0  0  0  0  0  0  0  0  0  0  0  0
   -4.6119    0.5717  -17.2008 H   0  0  0  0  0  0  0  0  0  0  0  0
   -7.7005   -1.7765  -18.5955 H   0  0  0  0  0  0  0  0  0  0  0  0
   -7.7089   -2.7311  -21.3023 C   0  0  0  0  0  0  0  0  0  0  0  0
   -8.3166   -2.8776  -22.7149 C   0  0  2  0  0  0  0  0  0  0  0  0
   -7.2613   -3.3691  -23.7419 C   0  0  0  0  0  0  0  0  0  0  0  0
   -7.8157   -3.8853  -25.0599 C   0  0  0  0  0  0  0  0  0  0  0  0
   -7.3950   -3.4618  -26.3241 C   0  0  0  0  0  0  0  0  0  0  0  0
   -7.8104   -4.1435  -27.4686 C   0  0  0  0  0  0  0  0  0  0  0  0
   -8.6470   -5.2530  -27.3709 C   0  0  0  0  0  0  0  0  0  0  0  0
   -9.1592   -5.6150  -26.1234 C   0  0  0  0  0  0  0  0  0  0  0  0
   -8.7788   -4.8885  -25.0027 C   0  0  0  0  0  0  0  0  0  0  0  0
   -9.2187   -5.0705  -24.0333 H   0  0  0  0  0  0  0  0  0  0  0  0
   -9.8462   -6.4548  -26.0062 H   0  0  0  0  0  0  0  0  0  0  0  0
   -8.8989   -5.8049  -28.2743 H   0  0  0  0  0  0  0  0  0  0  0  0
   -7.4648   -3.8209  -28.4467 H   0  0  0  0  0  0  0  0  0  0  0  0
   -6.7807   -2.5670  -26.4159 H   0  0  0  0  0  0  0  0  0  0  0  0
   -6.7184   -4.2040  -23.2781 H   0  0  0  0  0  0  0  0  0  0  0  0
   -6.5098   -2.5956  -23.9231 H   0  0  0  0  0  0  0  0  0  0  0  0
   -9.0922   -3.6421  -22.6950 H   0  0  0  0  0  0  0  0  0  0  0  0
   -6.7688   -3.2712  -21.1686 H   0  0  0  0  0  0  0  0  0  0  0  0
   -8.4094   -3.0746  -20.5281 H   0  0  0  0  0  0  0  0  0  0  0  0
  -10.4814   -1.4167  -22.7393 C   0  0  0  0  0  0  0  0  0  0  0  0
  -11.1807   -2.3791  -21.9962 C   0  0  0  0  0  0  0  0  0  0  0  0
  -12.5496   -2.2701  -21.8159 C   0  0  0  0  0  0  0  0  0  0  0  0
  -13.4045   -3.5207  -20.9508 Cl  0  0  0  0  0  0  0  0  0  0  0  0
  -13.2584   -1.1790  -22.3162 C   0  0  0  0  0  0  0  0  0  0  0  0
  -12.5722   -0.2057  -23.0239 C   0  0  0  0  0  0  0  0  0  0  0  0
  -11.2027   -0.3311  -23.2690 C   0  0  0  0  0  0  0  0  0  0  0  0
  -10.5570    0.6637  -24.2017 C   0  0  0  0  0  0  0  0  0  0  0  0
  -11.0670    1.7463  -24.4668 O   0  0  0  0  0  0  0  0  0  0  0  0
  -13.1025    0.6512  -23.4329 H   0  0  0  0  0  0  0  0  0  0  0  0
  -14.3342   -1.1169  -22.1734 H   0  0  0  0  0  0  0  0  0  0  0  0
  -10.6831   -3.2405  -21.5683 H   0  0  0  0  0  0  0  0  0  0  0  0
   -7.7354   -0.9726  -24.7085 H   0  0  0  0  0  0  0  0  0  0  0  0
   -9.2746   -1.7585  -25.1098 H   0  0  0  0  0  0  0  0  0  0  0  0
   -9.3307    1.9450  -25.9697 H   0  0  0  0  0  0  0  0  0  0  0  0
   -8.2012    0.6633  -26.4276 H   0  0  0  0  0  0  0  0  0  0  0  0
   -8.8478    3.0545  -23.8595 H   0  0  0  0  0  0  0  0  0  0  0  0
   -7.3694    4.4028  -22.6619 H   0  0  0  0  0  0  0  0  0  0  0  0
   -6.0203    3.8590  -23.6948 H   0  0  0  0  0  0  0  0  0  0  0  0
   -6.6005    2.8158  -22.3846 H   0  0  0  0  0  0  0  0  0  0  0  0
  1  2  1  0
  2  3  1  0
  3  4  2  0
  3  5  1  0
  5  6  1  0
  6  7  1  0
  8  7  1  6
  8  9  1  0
  9 10  2  0
  9 11  1  0
 11 12  1  0
 12 13  2  0
 13 14  1  0
 14 15  2  0
 15 16  1  0
 16 17  2  0
 17 18  1  0
 18 19  2  0
 19 20  1  0
 20 21  2  0
 20 22  1  0
 19 23  1  0
 18 24  1  0
 17 25  1  0
 15 26  1  0
 13 27  1  0
 11 28  1  0
 28 29  1  0
 29 30  1  0
 30 31  1  0
 31 32  2  0
 32 33  1  0
 33 34  2  0
 34 35  1  0
 35 36  2  0
 36 37  1  0
 35 38  1  0
 34 39  1  0
 33 40  1  0
 32 41  1  0
 30 42  1  0
 30 43  1  0
 29 44  1  1
 28 45  1  0
 28 46  1  0
  8 47  1  0
 47 48  2  0
 48 49  1  0
 49 50  1  0
 49 51  2  0
 51 52  1  0
 52 53  2  0
 53 54  1  0
 54 55  2  0
 52 56  1  0
 51 57  1  0
 48 58  1  0
  7 59  1  0
  7 60  1  0
  5 61  1  0
  5 62  1  0
  2 63  1  0
  1 64  1  0
  1 65  1  0
  1 66  1  0
 54  6  1  0
 29  8  1  0
 36 31  1  0
 53 47  1  0
 21 12  1  0
 21 16  1  0
M  END
>  <cnnaffinities>  (43) 
[5.80175, 6.58435]

>  <score>  (43) 
5.80175

>  <index>  (43) 
45

>  <Smiles>  (43) 
C(N(C(=O)C(N1C([C@@]2(C(=O)N(c3c(nc(c4c(c(c(c(c34)[H])[H])[H])[H])[H])[H])C([C@@]2(C(c2c(c(c(c(c2[H])[H])[H])[H])[H])([H])[H])[H])([H])[H])c2c(c(Cl)c(c(c2C1=O)[H])[H])[H])([H])[H])([H])[H])[H])([H])([H])[H]

>  <h>  (43) 
<NA>

>  <Training>  (43) 
True

>  <Success>  (43) 
True

>  <enamine_searched>  (43) 
False

>  <enamine_id>  (43) 
nan

$$$$

     RDKit          3D

 50 54  0  0  0  0  0  0  0  0999 V2000
   -8.3537   -4.1607  -23.4468 C   0  0  0  0  0  0  0  0  0  0  0  0
   -8.5501   -2.9956  -22.4933 C   0  0  1  0  0  0  0  0  0  0  0  0
   -7.4035   -2.8083  -21.4931 C   0  0  0  0  0  0  0  0  0  0  0  0
   -7.4536   -1.3845  -21.1973 N   0  0  0  0  0  0  0  0  0  0  0  0
   -6.6713   -0.7848  -20.1839 C   0  0  0  0  0  0  0  0  0  0  0  0
   -6.9207   -1.1043  -18.8719 C   0  0  0  0  0  0  0  0  0  0  0  0
   -6.2341   -0.6198  -17.8115 N   0  0  0  0  0  0  0  0  0  0  0  0
   -5.2186    0.1702  -18.0767 C   0  0  0  0  0  0  0  0  0  0  0  0
   -4.8406    0.5731  -19.3914 C   0  0  0  0  0  0  0  0  0  0  0  0
   -3.7437    1.4500  -19.5939 C   0  0  0  0  0  0  0  0  0  0  0  0
   -3.4841    1.9478  -20.8421 C   0  0  0  0  0  0  0  0  0  0  0  0
   -4.2599    1.5246  -21.9457 C   0  0  0  0  0  0  0  0  0  0  0  0
   -5.2728    0.6153  -21.7884 C   0  0  0  0  0  0  0  0  0  0  0  0
   -5.6035    0.1208  -20.4902 C   0  0  0  0  0  0  0  0  0  0  0  0
   -5.8449    0.3092  -22.6573 H   0  0  0  0  0  0  0  0  0  0  0  0
   -4.0641    1.9573  -22.9242 H   0  0  0  0  0  0  0  0  0  0  0  0
   -2.7158    2.6994  -20.9849 H   0  0  0  0  0  0  0  0  0  0  0  0
   -3.1445    1.7363  -18.7350 H   0  0  0  0  0  0  0  0  0  0  0  0
   -4.6524    0.5485  -17.2249 H   0  0  0  0  0  0  0  0  0  0  0  0
   -7.7390   -1.7837  -18.6361 H   0  0  0  0  0  0  0  0  0  0  0  0
   -8.1851   -0.6505  -22.1079 C   0  0  0  0  0  0  0  0  0  0  0  0
   -8.3112    0.5573  -22.0810 O   0  0  0  0  0  0  0  0  0  0  0  0
   -8.7533   -1.5956  -23.1747 C   0  0  1  0  0  0  0  0  0  0  0  0
   -7.9343   -1.3339  -24.4687 C   0  0  0  0  0  0  0  0  0  0  0  0
   -8.5510   -1.9409  -25.6472 N   0  0  0  0  0  0  0  0  0  0  0  0
   -7.7667   -2.4228  -26.7712 C   0  0  0  0  0  0  0  0  0  0  0  0
   -7.9137   -3.8804  -26.9290 C   0  0  0  0  0  0  0  0  0  0  0  0
   -8.0841   -5.0195  -27.0444 N   0  0  0  0  0  0  0  0  0  0  0  0
   -8.1588   -1.9568  -27.6798 H   0  0  0  0  0  0  0  0  0  0  0  0
   -6.7135   -2.1585  -26.6515 H   0  0  0  0  0  0  0  0  0  0  0  0
   -9.8890   -1.7751  -25.9157 C   0  0  0  0  0  0  0  0  0  0  0  0
  -10.3590   -1.9390  -27.0351 O   0  0  0  0  0  0  0  0  0  0  0  0
  -10.7403   -1.3975  -24.7618 C   0  0  0  0  0  0  0  0  0  0  0  0
  -12.0965   -1.1971  -25.0093 C   0  0  0  0  0  0  0  0  0  0  0  0
  -12.9656   -0.8951  -23.9830 C   0  0  0  0  0  0  0  0  0  0  0  0
  -12.4378   -0.8280  -22.6988 C   0  0  0  0  0  0  0  0  0  0  0  0
  -13.2779   -0.5880  -21.6856 F   0  0  0  0  0  0  0  0  0  0  0  0
  -11.0942   -1.0188  -22.4303 C   0  0  0  0  0  0  0  0  0  0  0  0
  -10.2116   -1.3058  -23.4736 C   0  0  0  0  0  0  0  0  0  0  0  0
  -10.7209   -0.9398  -21.4179 H   0  0  0  0  0  0  0  0  0  0  0  0
  -14.0216   -0.7239  -24.1639 H   0  0  0  0  0  0  0  0  0  0  0  0
  -12.4434   -1.3009  -26.0302 H   0  0  0  0  0  0  0  0  0  0  0  0
   -6.9110   -1.7170  -24.3584 H   0  0  0  0  0  0  0  0  0  0  0  0
   -7.8624   -0.2398  -24.6006 H   0  0  0  0  0  0  0  0  0  0  0  0
   -7.5500   -3.3987  -20.5826 H   0  0  0  0  0  0  0  0  0  0  0  0
   -6.4270   -3.0958  -21.9127 H   0  0  0  0  0  0  0  0  0  0  0  0
   -9.4587   -3.1715  -21.8987 H   0  0  0  0  0  0  0  0  0  0  0  0
   -7.4497   -4.0099  -24.0468 H   0  0  0  0  0  0  0  0  0  0  0  0
   -8.2546   -5.1003  -22.8943 H   0  0  0  0  0  0  0  0  0  0  0  0
   -9.2057   -4.2342  -24.1284 H   0  0  0  0  0  0  0  0  0  0  0  0
  1  2  1  0
  2  3  1  0
  3  4  1  0
  4  5  1  0
  5  6  2  0
  6  7  1  0
  7  8  2  0
  8  9  1  0
  9 10  2  0
 10 11  1  0
 11 12  2  0
 12 13  1  0
 13 14  2  0
 13 15  1  0
 12 16  1  0
 11 17  1  0
 10 18  1  0
  8 19  1  0
  6 20  1  0
  4 21  1  0
 21 22  2  0
 21 23  1  0
 23 24  1  6
 24 25  1  0
 25 26  1  0
 26 27  1  0
 27 28  3  0
 26 29  1  0
 26 30  1  0
 25 31  1  0
 31 32  2  0
 31 33  1  0
 33 34  2  0
 34 35  1  0
 35 36  2  0
 36 37  1  0
 36 38  1  0
 38 39  2  0
 38 40  1  0
 35 41  1  0
 34 42  1  0
 24 43  1  0
 24 44  1  0
  3 45  1  0
  3 46  1  0
  2 47  1  1
  1 48  1  0
  1 49  1  0
  1 50  1  0
 23  2  1  0
 39 33  1  0
 14  5  1  0
 39 23  1  0
 14  9  1  0
M  END
>  <cnnaffinities>  (44) 
[5.65745, 5.33903, 6.13762, 5.61895]

>  <score>  (44) 
5.65745

>  <index>  (44) 
46

>  <Smiles>  (44) 
C([C@]1(C(N(c2c(nc(c3c(c(c(c(c23)[H])[H])[H])[H])[H])[H])C(=O)[C@]21C(N(C(C#N)([H])[H])C(=O)c1c(c(c(F)c(c21)[H])[H])[H])([H])[H])([H])[H])[H])([H])([H])[H]

>  <h>  (44) 
<NA>

>  <Training>  (44) 
True

>  <Success>  (44) 
True

>  <enamine_searched>  (44) 
False

>  <enamine_id>  (44) 
nan

$$$$

     RDKit          3D

 58 63  0  0  0  0  0  0  0  0999 V2000
   -8.5959    0.7232  -21.3449 O   0  0  0  0  0  0  0  0  0  0  0  0
   -8.5110   -0.3956  -21.8231 C   0  0  0  0  0  0  0  0  0  0  0  0
   -7.4939   -1.3948  -21.2657 C   0  0  0  0  0  0  0  0  0  0  0  0
   -6.6415   -0.7990  -20.1802 C   0  0  0  0  0  0  0  0  0  0  0  0
   -6.9189   -1.0607  -18.8633 C   0  0  0  0  0  0  0  0  0  0  0  0
   -6.2177   -0.5919  -17.7951 N   0  0  0  0  0  0  0  0  0  0  0  0
   -5.2147    0.2100  -18.0541 C   0  0  0  0  0  0  0  0  0  0  0  0
   -4.8262    0.5924  -19.3714 C   0  0  0  0  0  0  0  0  0  0  0  0
   -3.6986    1.4223  -19.6089 C   0  0  0  0  0  0  0  0  0  0  0  0
   -3.4132    1.8702  -20.8711 C   0  0  0  0  0  0  0  0  0  0  0  0
   -4.2211    1.4640  -21.9617 C   0  0  0  0  0  0  0  0  0  0  0  0
   -5.2183    0.5370  -21.7769 C   0  0  0  0  0  0  0  0  0  0  0  0
   -5.5661    0.0946  -20.4673 C   0  0  0  0  0  0  0  0  0  0  0  0
   -5.7735    0.1547  -22.6311 H   0  0  0  0  0  0  0  0  0  0  0  0
   -4.0433    1.8896  -22.9480 H   0  0  0  0  0  0  0  0  0  0  0  0
   -2.5732    2.5401  -21.0428 H   0  0  0  0  0  0  0  0  0  0  0  0
   -3.0957    1.7161  -18.7527 H   0  0  0  0  0  0  0  0  0  0  0  0
   -4.6375    0.5844  -17.2055 H   0  0  0  0  0  0  0  0  0  0  0  0
   -7.7603   -1.7022  -18.6007 H   0  0  0  0  0  0  0  0  0  0  0  0
   -6.8990   -1.7806  -22.1039 H   0  0  0  0  0  0  0  0  0  0  0  0
   -8.0463   -2.2500  -20.8559 H   0  0  0  0  0  0  0  0  0  0  0  0
   -9.3077   -0.8128  -22.8727 N   0  0  0  0  0  0  0  0  0  0  0  0
   -9.2582   -2.1278  -23.5078 C   0  0  0  0  0  0  0  0  0  0  0  0
   -8.5131   -2.1662  -24.8337 C   0  0  0  0  0  0  0  0  0  0  0  0
   -7.4178   -1.3392  -25.0937 C   0  0  0  0  0  0  0  0  0  0  0  0
   -6.7596   -1.4031  -26.3183 C   0  0  0  0  0  0  0  0  0  0  0  0
   -7.1818   -2.2836  -27.3091 C   0  0  0  0  0  0  0  0  0  0  0  0
   -8.2768   -3.0971  -27.0495 C   0  0  0  0  0  0  0  0  0  0  0  0
   -8.8367   -4.1990  -28.2807 Cl  0  0  0  0  0  0  0  0  0  0  0  0
   -8.9385   -3.0507  -25.8280 C   0  0  0  0  0  0  0  0  0  0  0  0
   -9.8029   -3.6925  -25.6713 H   0  0  0  0  0  0  0  0  0  0  0  0
   -6.6744   -2.3526  -28.2655 H   0  0  0  0  0  0  0  0  0  0  0  0
   -5.9062   -0.7549  -26.5001 H   0  0  0  0  0  0  0  0  0  0  0  0
   -7.0695   -0.6243  -24.3504 H   0  0  0  0  0  0  0  0  0  0  0  0
  -10.2837   -2.4708  -23.6773 H   0  0  0  0  0  0  0  0  0  0  0  0
   -8.8355   -2.8441  -22.8006 H   0  0  0  0  0  0  0  0  0  0  0  0
  -10.2242    0.1654  -23.4090 C   0  0  2  0  0  0  0  0  0  0  0  0
  -11.3489    0.6593  -22.4913 C   0  0  0  0  0  0  0  0  0  0  0  0
  -12.0473    1.6056  -23.4311 N   0  0  1  0  0  4  0  0  0  0  0  0
  -12.2649    2.9530  -22.9013 C   0  0  0  0  0  0  0  0  0  0  0  0
  -13.5455    3.2514  -22.1951 C   0  0  0  0  0  0  0  0  0  0  0  0
  -13.2771    3.8265  -23.5623 C   0  0  0  0  0  0  0  0  0  0  0  0
  -13.0603    4.8825  -23.6556 H   0  0  0  0  0  0  0  0  0  0  0  0
  -13.8072    3.3957  -24.4066 H   0  0  0  0  0  0  0  0  0  0  0  0
  -13.5094    3.9006  -21.3317 H   0  0  0  0  0  0  0  0  0  0  0  0
  -14.2517    2.4323  -22.1091 H   0  0  0  0  0  0  0  0  0  0  0  0
  -11.3735    3.4327  -22.5180 H   0  0  0  0  0  0  0  0  0  0  0  0
  -11.1229    1.4999  -24.6367 C   0  0  2  0  0  0  0  0  0  0  0  0
  -10.9921   -0.0277  -24.7335 C   0  0  0  0  0  0  0  0  0  0  0  0
  -10.3549   -0.3939  -25.5309 H   0  0  0  0  0  0  0  0  0  0  0  0
  -11.9287   -0.5972  -24.6760 H   0  0  0  0  0  0  0  0  0  0  0  0
   -9.7282    1.5118  -23.9946 C   0  0  0  0  0  0  0  0  0  0  0  0
   -8.9147    1.3775  -24.7029 H   0  0  0  0  0  0  0  0  0  0  0  0
   -9.4823    2.2851  -23.2594 H   0  0  0  0  0  0  0  0  0  0  0  0
  -11.4114    2.1568  -25.4551 H   0  0  0  0  0  0  0  0  0  0  0  0
  -12.9815    1.2200  -23.6761 H   0  0  0  0  0  0  0  0  0  0  0  0
  -10.9570    1.2130  -21.6447 H   0  0  0  0  0  0  0  0  0  0  0  0
  -12.0308   -0.1185  -22.1492 H   0  0  0  0  0  0  0  0  0  0  0  0
  1  2  2  0
  2  3  1  0
  3  4  1  0
  4  5  2  0
  5  6  1  0
  6  7  2  0
  7  8  1  0
  8  9  2  0
  9 10  1  0
 10 11  2  0
 11 12  1  0
 12 13  2  0
 12 14  1  0
 11 15  1  0
 10 16  1  0
  9 17  1  0
  7 18  1  0
  5 19  1  0
  3 20  1  0
  3 21  1  0
  2 22  1  0
 22 23  1  0
 23 24  1  0
 24 25  2  0
 25 26  1  0
 26 27  2  0
 27 28  1  0
 28 29  1  0
 28 30  2  0
 30 31  1  0
 27 32  1  0
 26 33  1  0
 25 34  1  0
 23 35  1  0
 23 36  1  0
 37 22  1  1
 37 38  1  0
 38 39  1  0
 39 40  1  0
 40 41  1  0
 41 42  1  0
 42 43  1  0
 42 44  1  0
 41 45  1  0
 41 46  1  0
 40 47  1  0
 39 48  1  0
 48 49  1  0
 49 50  1  0
 49 51  1  0
 48 52  1  0
 52 53  1  0
 52 54  1  0
 48 55  1  6
 39 56  1  6
 38 57  1  0
 38 58  1  0
 13  4  1  0
 30 24  1  0
 49 37  1  0
 13  8  1  0
 52 37  1  0
 42 40  1  0
M  CHG  1  39   1
M  END
>  <cnnaffinities>  (45) 
[5.61293]

>  <score>  (45) 
5.61293

>  <index>  (45) 
47

>  <Smiles>  (45) 
O=C(C(c1c(nc(c2c(c(c(c(c12)[H])[H])[H])[H])[H])[H])([H])[H])N(C(c1c(c(c(c(Cl)c1[H])[H])[H])[H])([H])[H])[C@]12C([N@@+](C3(C(C3([H])[H])([H])[H])[H])([C@](C1([H])[H])(C2([H])[H])[H])[H])([H])[H]

>  <h>  (45) 
<NA>

>  <Training>  (45) 
True

>  <Success>  (45) 
True

>  <enamine_searched>  (45) 
False

>  <enamine_id>  (45) 
nan

$$$$

     RDKit          3D

 46 48  0  0  0  0  0  0  0  0999 V2000
  -13.2393   -3.7469  -22.7320 C   0  0  0  0  0  0  0  0  0  0  0  0
  -13.2827   -2.7213  -23.8679 C   0  0  0  0  0  0  0  0  0  0  0  0
  -14.6550   -2.0466  -23.9184 C   0  0  0  0  0  0  0  0  0  0  0  0
  -15.4317   -2.8014  -24.0822 H   0  0  0  0  0  0  0  0  0  0  0  0
  -14.8847   -1.5289  -22.9785 H   0  0  0  0  0  0  0  0  0  0  0  0
  -14.7237   -1.3141  -24.7309 H   0  0  0  0  0  0  0  0  0  0  0  0
  -12.1255   -1.6992  -23.8611 C   0  0  0  0  0  0  0  0  0  0  0  0
  -10.7396   -2.3727  -24.0485 C   0  0  0  0  0  0  0  0  0  0  0  0
   -9.8467   -2.3393  -22.7967 C   0  0  0  0  0  0  0  0  0  0  0  0
   -9.6472   -0.9525  -22.3678 N   0  0  0  0  0  0  0  0  0  0  0  0
   -8.5435   -0.4411  -21.7481 C   0  0  0  0  0  0  0  0  0  0  0  0
   -8.4124    0.7596  -21.5658 O   0  0  0  0  0  0  0  0  0  0  0  0
   -7.4766   -1.4236  -21.2493 C   0  0  0  0  0  0  0  0  0  0  0  0
   -6.6241   -0.8136  -20.1676 C   0  0  0  0  0  0  0  0  0  0  0  0
   -6.9082   -1.0646  -18.8473 C   0  0  0  0  0  0  0  0  0  0  0  0
   -6.2115   -0.5809  -17.7851 N   0  0  0  0  0  0  0  0  0  0  0  0
   -5.1987    0.2077  -18.0509 C   0  0  0  0  0  0  0  0  0  0  0  0
   -4.8076    0.5826  -19.3658 C   0  0  0  0  0  0  0  0  0  0  0  0
   -3.6868    1.4191  -19.6040 C   0  0  0  0  0  0  0  0  0  0  0  0
   -3.3871    1.8382  -20.8721 C   0  0  0  0  0  0  0  0  0  0  0  0
   -4.1971    1.4293  -21.9596 C   0  0  0  0  0  0  0  0  0  0  0  0
   -5.1989    0.5076  -21.7679 C   0  0  0  0  0  0  0  0  0  0  0  0
   -5.5545    0.0845  -20.4587 C   0  0  0  0  0  0  0  0  0  0  0  0
   -5.7467    0.1225  -22.6232 H   0  0  0  0  0  0  0  0  0  0  0  0
   -4.0032    1.8286  -22.9534 H   0  0  0  0  0  0  0  0  0  0  0  0
   -2.5389    2.4940  -21.0510 H   0  0  0  0  0  0  0  0  0  0  0  0
   -3.0782    1.7130  -18.7516 H   0  0  0  0  0  0  0  0  0  0  0  0
   -4.6259    0.5973  -17.2069 H   0  0  0  0  0  0  0  0  0  0  0  0
   -7.7514   -1.7015  -18.5811 H   0  0  0  0  0  0  0  0  0  0  0  0
   -7.9881   -2.3116  -20.8636 H   0  0  0  0  0  0  0  0  0  0  0  0
   -6.8753   -1.7612  -22.1069 H   0  0  0  0  0  0  0  0  0  0  0  0
  -10.7234   -0.0202  -22.6941 C   0  0  0  0  0  0  0  0  0  0  0  0
  -12.0554   -0.7559  -22.6517 C   0  0  0  0  0  0  0  0  0  0  0  0
  -12.0925   -1.3440  -21.7276 H   0  0  0  0  0  0  0  0  0  0  0  0
  -12.8840   -0.0362  -22.6324 H   0  0  0  0  0  0  0  0  0  0  0  0
  -10.6826    0.8092  -21.9869 H   0  0  0  0  0  0  0  0  0  0  0  0
  -10.5450    0.4026  -23.6975 H   0  0  0  0  0  0  0  0  0  0  0  0
  -10.3052   -2.9300  -21.9878 H   0  0  0  0  0  0  0  0  0  0  0  0
   -8.8770   -2.7958  -23.0303 H   0  0  0  0  0  0  0  0  0  0  0  0
  -10.8623   -3.4110  -24.3816 H   0  0  0  0  0  0  0  0  0  0  0  0
  -10.2004   -1.8510  -24.8490 H   0  0  0  0  0  0  0  0  0  0  0  0
  -12.2954   -1.0622  -24.7439 H   0  0  0  0  0  0  0  0  0  0  0  0
  -13.1536   -3.2770  -24.8098 H   0  0  0  0  0  0  0  0  0  0  0  0
  -13.4489   -3.2902  -21.7563 H   0  0  0  0  0  0  0  0  0  0  0  0
  -13.9995   -4.5188  -22.8992 H   0  0  0  0  0  0  0  0  0  0  0  0
  -12.2720   -4.2575  -22.6643 H   0  0  0  0  0  0  0  0  0  0  0  0
  1  2  1  0
  2  3  1  0
  3  4  1  0
  3  5  1  0
  3  6  1  0
  2  7  1  0
  7  8  1  0
  8  9  1  0
  9 10  1  0
 10 11  1  0
 11 12  2  0
 11 13  1  0
 13 14  1  0
 14 15  2  0
 15 16  1  0
 16 17  2  0
 17 18  1  0
 18 19  2  0
 19 20  1  0
 20 21  2  0
 21 22  1  0
 22 23  2  0
 22 24  1  0
 21 25  1  0
 20 26  1  0
 19 27  1  0
 17 28  1  0
 15 29  1  0
 13 30  1  0
 13 31  1  0
 10 32  1  0
 32 33  1  0
 33 34  1  0
 33 35  1  0
 32 36  1  0
 32 37  1  0
  9 38  1  0
  9 39  1  0
  8 40  1  0
  8 41  1  0
  7 42  1  0
  2 43  1  0
  1 44  1  0
  1 45  1  0
  1 46  1  0
 33  7  1  0
 23 14  1  0
 23 18  1  0
M  END
>  <cnnaffinities>  (46) 
[4.48114, 4.48091, 4.48091, 5.20642, 4.6427, 4.72526, 4.72537]

>  <score>  (46) 
4.48114

>  <index>  (46) 
48

>  <Smiles>  (46) 
C(C(C([H])([H])[H])(C1(C(C(N(C(=O)C(c2c(nc(c3c(c(c(c(c23)[H])[H])[H])[H])[H])[H])([H])[H])C(C1([H])[H])([H])[H])([H])[H])([H])[H])[H])[H])([H])([H])[H]

>  <h>  (46) 
<NA>

>  <Training>  (46) 
True

>  <Success>  (46) 
True

>  <enamine_searched>  (46) 
False

>  <enamine_id>  (46) 
nan

$$$$

     RDKit          3D

 67 72  0  0  0  0  0  0  0  0999 V2000
   -7.4339    3.3465  -21.9268 C   0  0  0  0  0  0  0  0  0  0  0  0
   -8.4485    2.8554  -22.8440 N   0  0  0  0  0  0  0  0  0  0  0  0
   -8.0042    2.1031  -23.8921 C   0  0  0  0  0  0  0  0  0  0  0  0
   -6.8151    1.8929  -24.0863 O   0  0  0  0  0  0  0  0  0  0  0  0
   -9.0491    1.4978  -24.8228 C   0  0  0  0  0  0  0  0  0  0  0  0
   -9.6128    0.3103  -24.2111 N   0  0  0  0  0  0  0  0  0  0  0  0
   -8.7906   -0.8876  -24.1057 C   0  0  0  0  0  0  0  0  0  0  0  0
   -9.0885   -1.6691  -22.8009 C   0  0  2  0  0  0  0  0  0  0  0  0
   -8.5702   -0.8653  -21.5872 C   0  0  0  0  0  0  0  0  0  0  0  0
   -9.0729    0.1159  -21.0791 O   0  0  0  0  0  0  0  0  0  0  0  0
   -7.3887   -1.4360  -21.1768 N   0  0  0  0  0  0  0  0  0  0  0  0
   -6.6211   -0.8257  -20.1569 C   0  0  0  0  0  0  0  0  0  0  0  0
   -6.9326   -1.0679  -18.8438 C   0  0  0  0  0  0  0  0  0  0  0  0
   -6.2386   -0.5766  -17.7916 N   0  0  0  0  0  0  0  0  0  0  0  0
   -5.2039    0.1840  -18.0595 C   0  0  0  0  0  0  0  0  0  0  0  0
   -4.7971    0.5510  -19.3760 C   0  0  0  0  0  0  0  0  0  0  0  0
   -3.7105    1.4313  -19.6152 C   0  0  0  0  0  0  0  0  0  0  0  0
   -3.4421    1.8808  -20.8787 C   0  0  0  0  0  0  0  0  0  0  0  0
   -4.2498    1.4727  -21.9667 C   0  0  0  0  0  0  0  0  0  0  0  0
   -5.2383    0.5350  -21.7778 C   0  0  0  0  0  0  0  0  0  0  0  0
   -5.5579    0.0733  -20.4699 C   0  0  0  0  0  0  0  0  0  0  0  0
   -5.8196    0.1993  -22.6330 H   0  0  0  0  0  0  0  0  0  0  0  0
   -4.1031    1.9180  -22.9479 H   0  0  0  0  0  0  0  0  0  0  0  0
   -2.6272    2.5801  -21.0449 H   0  0  0  0  0  0  0  0  0  0  0  0
   -3.1078    1.7418  -18.7661 H   0  0  0  0  0  0  0  0  0  0  0  0
   -4.6383    0.5641  -17.2089 H   0  0  0  0  0  0  0  0  0  0  0  0
   -7.7897   -1.6943  -18.6097 H   0  0  0  0  0  0  0  0  0  0  0  0
   -6.9731   -2.5915  -21.9481 C   0  0  0  0  0  0  0  0  0  0  0  0
   -8.2470   -2.9794  -22.7185 C   0  0  2  0  0  0  0  0  0  0  0  0
   -7.9721   -3.6749  -24.0605 C   0  0  0  0  0  0  0  0  0  0  0  0
   -7.4058   -4.9860  -23.8514 N   0  0  0  0  0  0  0  0  0  0  0  0
   -6.8866   -5.7565  -24.8731 C   0  0  0  0  0  0  0  0  0  0  0  0
   -6.1226   -6.8823  -24.7801 C   0  0  0  0  0  0  0  0  0  0  0  0
   -5.7478   -7.4625  -25.9751 N   0  0  0  0  0  0  0  0  0  0  0  0
   -6.2343   -6.8157  -26.9858 C   0  0  0  0  0  0  0  0  0  0  0  0
   -6.0859   -7.2799  -28.3997 C   0  0  0  0  0  0  0  0  0  0  0  0
   -5.8915   -6.4645  -29.1028 H   0  0  0  0  0  0  0  0  0  0  0  0
   -7.0041   -7.7926  -28.7167 H   0  0  0  0  0  0  0  0  0  0  0  0
   -5.2632   -7.9986  -28.4318 H   0  0  0  0  0  0  0  0  0  0  0  0
   -7.1782   -5.3976  -26.5556 S   0  0  0  0  0  0  0  0  0  0  0  0
   -5.8319   -7.3679  -23.8529 H   0  0  0  0  0  0  0  0  0  0  0  0
   -7.1015   -5.2276  -22.9227 H   0  0  0  0  0  0  0  0  0  0  0  0
   -8.9143   -3.7674  -24.6175 H   0  0  0  0  0  0  0  0  0  0  0  0
   -7.2848   -3.0622  -24.6674 H   0  0  0  0  0  0  0  0  0  0  0  0
   -8.8001   -3.6915  -22.0983 H   0  0  0  0  0  0  0  0  0  0  0  0
   -6.1472   -2.3427  -22.6343 H   0  0  0  0  0  0  0  0  0  0  0  0
   -6.6270   -3.3891  -21.2828 H   0  0  0  0  0  0  0  0  0  0  0  0
  -10.5904   -1.8417  -22.6970 C   0  0  0  0  0  0  0  0  0  0  0  0
  -11.1423   -2.8260  -21.8741 C   0  0  0  0  0  0  0  0  0  0  0  0
  -12.5129   -2.9209  -21.7270 C   0  0  0  0  0  0  0  0  0  0  0  0
  -13.1572   -4.1355  -20.6669 Cl  0  0  0  0  0  0  0  0  0  0  0  0
  -13.3900   -2.0634  -22.3890 C   0  0  0  0  0  0  0  0  0  0  0  0
  -12.8515   -1.0720  -23.1798 C   0  0  0  0  0  0  0  0  0  0  0  0
  -11.4718   -0.9407  -23.3092 C   0  0  0  0  0  0  0  0  0  0  0  0
  -10.9695    0.2419  -24.0713 C   0  0  0  0  0  0  0  0  0  0  0  0
  -11.7257    1.0979  -24.5173 O   0  0  0  0  0  0  0  0  0  0  0  0
  -13.4711   -0.3541  -23.7041 H   0  0  0  0  0  0  0  0  0  0  0  0
  -14.4618   -2.1595  -22.2632 H   0  0  0  0  0  0  0  0  0  0  0  0
  -10.5210   -3.5163  -21.3166 H   0  0  0  0  0  0  0  0  0  0  0  0
   -7.7353   -0.5978  -24.1454 H   0  0  0  0  0  0  0  0  0  0  0  0
   -8.9931   -1.5464  -24.9616 H   0  0  0  0  0  0  0  0  0  0  0  0
   -9.8780    2.1825  -25.0198 H   0  0  0  0  0  0  0  0  0  0  0  0
   -8.5740    1.2403  -25.7787 H   0  0  0  0  0  0  0  0  0  0  0  0
   -9.3579    2.6454  -22.4530 H   0  0  0  0  0  0  0  0  0  0  0  0
   -6.7275    3.9708  -22.4796 H   0  0  0  0  0  0  0  0  0  0  0  0
   -7.8841    3.9650  -21.1501 H   0  0  0  0  0  0  0  0  0  0  0  0
   -6.9030    2.4929  -21.4854 H   0  0  0  0  0  0  0  0  0  0  0  0
  1  2  1  0
  2  3  1  0
  3  4  2  0
  3  5  1  0
  5  6  1  0
  6  7  1  0
  8  7  1  6
  8  9  1  0
  9 10  2  0
  9 11  1  0
 11 12  1  0
 12 13  2  0
 13 14  1  0
 14 15  2  0
 15 16  1  0
 16 17  2  0
 17 18  1  0
 18 19  2  0
 19 20  1  0
 20 21  2  0
 20 22  1  0
 19 23  1  0
 18 24  1  0
 17 25  1  0
 15 26  1  0
 13 27  1  0
 11 28  1  0
 28 29  1  0
 29 30  1  0
 30 31  1  0
 31 32  1  0
 32 33  2  0
 33 34  1  0
 34 35  2  0
 35 36  1  0
 36 37  1  0
 36 38  1  0
 36 39  1  0
 35 40  1  0
 33 41  1  0
 31 42  1  0
 30 43  1  0
 30 44  1  0
 29 45  1  1
 28 46  1  0
 28 47  1  0
  8 48  1  0
 48 49  2  0
 49 50  1  0
 50 51  1  0
 50 52  2  0
 52 53  1  0
 53 54  2  0
 54 55  1  0
 55 56  2  0
 53 57  1  0
 52 58  1  0
 49 59  1  0
  7 60  1  0
  7 61  1  0
  5 62  1  0
  5 63  1  0
  2 64  1  0
  1 65  1  0
  1 66  1  0
  1 67  1  0
 55  6  1  0
 29  8  1  0
 40 32  1  0
 54 48  1  0
 21 12  1  0
 21 16  1  0
M  END
>  <cnnaffinities>  (47) 
[6.37843, 6.38129, 6.57153]

>  <score>  (47) 
6.37843

>  <index>  (47) 
49

>  <Smiles>  (47) 
C(N(C(=O)C(N1C([C@@]2(C(=O)N(c3c(nc(c4c(c(c(c(c34)[H])[H])[H])[H])[H])[H])C([C@@]2(C(N(c2c(nc(C([H])([H])[H])s2)[H])[H])([H])[H])[H])([H])[H])c2c(c(Cl)c(c(c2C1=O)[H])[H])[H])([H])[H])([H])[H])[H])([H])([H])[H]

>  <h>  (47) 
<NA>

>  <Training>  (47) 
True

>  <Success>  (47) 
True

>  <enamine_searched>  (47) 
False

>  <enamine_id>  (47) 
nan

$$$$

     RDKit          3D

 66 70  0  0  0  0  0  0  0  0999 V2000
   -7.6148    3.0664  -22.0214 C   0  0  0  0  0  0  0  0  0  0  0  0
   -8.7780    2.5633  -22.7370 N   0  0  0  0  0  0  0  0  0  0  0  0
   -8.5333    1.7484  -23.8033 C   0  0  0  0  0  0  0  0  0  0  0  0
   -7.3920    1.4714  -24.1526 O   0  0  0  0  0  0  0  0  0  0  0  0
   -9.7196    1.1489  -24.5558 C   0  0  0  0  0  0  0  0  0  0  0  0
  -10.1526   -0.0659  -23.8965 N   0  0  0  0  0  0  0  0  0  0  0  0
   -9.2573   -1.2146  -23.8890 C   0  0  0  0  0  0  0  0  0  0  0  0
   -9.3127   -1.9518  -22.5248 C   0  0  2  0  0  0  0  0  0  0  0  0
   -8.7162   -1.0039  -21.4466 C   0  0  0  0  0  0  0  0  0  0  0  0
   -9.2449   -0.0213  -20.9649 O   0  0  0  0  0  0  0  0  0  0  0  0
   -7.4329   -1.4284  -21.1578 N   0  0  0  0  0  0  0  0  0  0  0  0
   -6.6507   -0.8149  -20.1474 C   0  0  0  0  0  0  0  0  0  0  0  0
   -6.9397   -1.0636  -18.8260 C   0  0  0  0  0  0  0  0  0  0  0  0
   -6.2303   -0.5739  -17.7814 N   0  0  0  0  0  0  0  0  0  0  0  0
   -5.1886    0.1711  -18.0578 C   0  0  0  0  0  0  0  0  0  0  0  0
   -4.7934    0.5371  -19.3763 C   0  0  0  0  0  0  0  0  0  0  0  0
   -3.7135    1.4303  -19.6128 C   0  0  0  0  0  0  0  0  0  0  0  0
   -3.4457    1.8708  -20.8785 C   0  0  0  0  0  0  0  0  0  0  0  0
   -4.2452    1.4528  -21.9651 C   0  0  0  0  0  0  0  0  0  0  0  0
   -5.2539    0.5304  -21.7712 C   0  0  0  0  0  0  0  0  0  0  0  0
   -5.5688    0.0659  -20.4648 C   0  0  0  0  0  0  0  0  0  0  0  0
   -5.8491    0.2174  -22.6222 H   0  0  0  0  0  0  0  0  0  0  0  0
   -4.0708    1.8661  -22.9553 H   0  0  0  0  0  0  0  0  0  0  0  0
   -2.6365    2.5747  -21.0521 H   0  0  0  0  0  0  0  0  0  0  0  0
   -3.1133    1.7502  -18.7641 H   0  0  0  0  0  0  0  0  0  0  0  0
   -4.6236    0.5716  -17.2143 H   0  0  0  0  0  0  0  0  0  0  0  0
   -7.7842   -1.6996  -18.5763 H   0  0  0  0  0  0  0  0  0  0  0  0
   -6.9924   -2.5478  -21.9698 C   0  0  0  0  0  0  0  0  0  0  0  0
   -8.3253   -3.1479  -22.4475 C   0  0  2  0  0  0  0  0  0  0  0  0
   -8.2118   -3.9963  -23.7132 C   0  0  0  0  0  0  0  0  0  0  0  0
   -7.4502   -5.1554  -23.4729 O   0  0  0  0  0  0  0  0  0  0  0  0
   -6.1692   -5.2230  -24.0868 C   0  0  0  0  0  0  0  0  0  0  0  0
   -6.2699   -5.7360  -25.5164 C   0  0  0  0  0  0  0  0  0  0  0  0
   -6.8739   -5.0760  -26.1456 H   0  0  0  0  0  0  0  0  0  0  0  0
   -5.2741   -5.8078  -25.9621 H   0  0  0  0  0  0  0  0  0  0  0  0
   -6.7256   -6.7293  -25.5286 H   0  0  0  0  0  0  0  0  0  0  0  0
   -5.3385   -6.1349  -23.2030 C   0  0  0  0  0  0  0  0  0  0  0  0
   -5.7857   -7.1338  -23.1874 H   0  0  0  0  0  0  0  0  0  0  0  0
   -5.3242   -5.7470  -22.1797 H   0  0  0  0  0  0  0  0  0  0  0  0
   -4.3082   -6.2149  -23.5656 H   0  0  0  0  0  0  0  0  0  0  0  0
   -5.7215   -4.2169  -24.0974 H   0  0  0  0  0  0  0  0  0  0  0  0
   -7.7699   -3.3948  -24.5245 H   0  0  0  0  0  0  0  0  0  0  0  0
   -9.2193   -4.3031  -24.0326 H   0  0  0  0  0  0  0  0  0  0  0  0
   -8.6531   -3.8083  -21.6401 H   0  0  0  0  0  0  0  0  0  0  0  0
   -6.3720   -2.2133  -22.8184 H   0  0  0  0  0  0  0  0  0  0  0  0
   -6.3989   -3.2548  -21.3797 H   0  0  0  0  0  0  0  0  0  0  0  0
  -10.7786   -2.2850  -22.2772 C   0  0  0  0  0  0  0  0  0  0  0  0
  -11.2028   -3.4426  -21.6117 C   0  0  0  0  0  0  0  0  0  0  0  0
  -12.5353   -3.6006  -21.2760 C   0  0  0  0  0  0  0  0  0  0  0  0
  -12.9051   -4.6736  -20.5529 F   0  0  0  0  0  0  0  0  0  0  0  0
  -13.5128   -2.6793  -21.6313 C   0  0  0  0  0  0  0  0  0  0  0  0
  -13.1141   -1.5663  -22.3414 C   0  0  0  0  0  0  0  0  0  0  0  0
  -11.7718   -1.3713  -22.6638 C   0  0  0  0  0  0  0  0  0  0  0  0
  -11.4360   -0.1356  -23.4340 C   0  0  0  0  0  0  0  0  0  0  0  0
  -12.2640    0.7430  -23.6347 O   0  0  0  0  0  0  0  0  0  0  0  0
  -13.8309   -0.8279  -22.6840 H   0  0  0  0  0  0  0  0  0  0  0  0
  -14.5450   -2.8405  -21.3408 H   0  0  0  0  0  0  0  0  0  0  0  0
  -10.5177   -4.2158  -21.2916 H   0  0  0  0  0  0  0  0  0  0  0  0
   -9.5414   -1.9114  -24.6911 H   0  0  0  0  0  0  0  0  0  0  0  0
   -8.2441   -0.8510  -24.0874 H   0  0  0  0  0  0  0  0  0  0  0  0
  -10.5781    1.8215  -24.5918 H   0  0  0  0  0  0  0  0  0  0  0  0
   -9.4093    0.9298  -25.5890 H   0  0  0  0  0  0  0  0  0  0  0  0
   -9.6185    2.4170  -22.1884 H   0  0  0  0  0  0  0  0  0  0  0  0
   -7.1108    2.2592  -21.4738 H   0  0  0  0  0  0  0  0  0  0  0  0
   -7.8967    3.8438  -21.3089 H   0  0  0  0  0  0  0  0  0  0  0  0
   -6.9131    3.4955  -22.7447 H   0  0  0  0  0  0  0  0  0  0  0  0
  1  2  1  0
  2  3  1  0
  3  4  2  0
  3  5  1  0
  5  6  1  0
  6  7  1  0
  8  7  1  6
  8  9  1  0
  9 10  2  0
  9 11  1  0
 11 12  1  0
 12 13  2  0
 13 14  1  0
 14 15  2  0
 15 16  1  0
 16 17  2  0
 17 18  1  0
 18 19  2  0
 19 20  1  0
 20 21  2  0
 20 22  1  0
 19 23  1  0
 18 24  1  0
 17 25  1  0
 15 26  1  0
 13 27  1  0
 11 28  1  0
 28 29  1  0
 29 30  1  0
 30 31  1  0
 31 32  1  0
 32 33  1  0
 33 34  1  0
 33 35  1  0
 33 36  1  0
 32 37  1  0
 37 38  1  0
 37 39  1  0
 37 40  1  0
 32 41  1  0
 30 42  1  0
 30 43  1  0
 29 44  1  1
 28 45  1  0
 28 46  1  0
  8 47  1  0
 47 48  2  0
 48 49  1  0
 49 50  1  0
 49 51  2  0
 51 52  1  0
 52 53  2  0
 53 54  1  0
 54 55  2  0
 52 56  1  0
 51 57  1  0
 48 58  1  0
  7 59  1  0
  7 60  1  0
  5 61  1  0
  5 62  1  0
  2 63  1  0
  1 64  1  0
  1 65  1  0
  1 66  1  0
 54  6  1  0
 29  8  1  0
 53 47  1  0
 21 12  1  0
 21 16  1  0
M  END
>  <cnnaffinities>  (48) 
[6.54608]

>  <score>  (48) 
6.54608

>  <index>  (48) 
50

>  <Smiles>  (48) 
C(N(C(=O)C(N1C([C@@]2(C(=O)N(c3c(nc(c4c(c(c(c(c34)[H])[H])[H])[H])[H])[H])C([C@@]2(C(OC(C([H])([H])[H])(C([H])([H])[H])[H])([H])[H])[H])([H])[H])c2c(c(F)c(c(c2C1=O)[H])[H])[H])([H])[H])([H])[H])[H])([H])([H])[H]

>  <h>  (48) 
<NA>

>  <Training>  (48) 
True

>  <Success>  (48) 
True

>  <enamine_searched>  (48) 
False

>  <enamine_id>  (48) 
nan

$$$$

     RDKit          3D

 50 52  0  0  0  0  0  0  0  0999 V2000
  -11.5814   -0.2650  -25.0492 C   0  0  0  0  0  0  0  0  0  0  0  0
  -10.7914   -0.0098  -24.0108 C   0  0  0  0  0  0  0  0  0  0  0  0
  -10.6822   -0.9498  -22.8229 C   0  0  0  0  0  0  0  0  0  0  0  0
   -9.3315   -1.4387  -22.5671 N   0  0  0  0  0  0  0  0  0  0  0  0
   -8.6437   -0.8365  -21.5280 C   0  0  0  0  0  0  0  0  0  0  0  0
   -9.1419    0.0460  -20.8298 O   0  0  0  0  0  0  0  0  0  0  0  0
   -7.4038   -1.3389  -21.2522 N   0  0  0  0  0  0  0  0  0  0  0  0
   -6.6322   -0.7973  -20.1941 C   0  0  0  0  0  0  0  0  0  0  0  0
   -6.9442   -1.0618  -18.8814 C   0  0  0  0  0  0  0  0  0  0  0  0
   -6.2337   -0.6002  -17.8262 N   0  0  0  0  0  0  0  0  0  0  0  0
   -5.2160    0.1899  -18.0838 C   0  0  0  0  0  0  0  0  0  0  0  0
   -4.8035    0.5650  -19.3967 C   0  0  0  0  0  0  0  0  0  0  0  0
   -3.6835    1.4070  -19.6353 C   0  0  0  0  0  0  0  0  0  0  0  0
   -3.3765    1.8123  -20.9078 C   0  0  0  0  0  0  0  0  0  0  0  0
   -4.1660    1.3892  -22.0006 C   0  0  0  0  0  0  0  0  0  0  0  0
   -5.1705    0.4664  -21.8086 C   0  0  0  0  0  0  0  0  0  0  0  0
   -5.5303    0.0542  -20.4950 C   0  0  0  0  0  0  0  0  0  0  0  0
   -5.7053    0.0700  -22.6680 H   0  0  0  0  0  0  0  0  0  0  0  0
   -3.9312    1.7352  -23.0073 H   0  0  0  0  0  0  0  0  0  0  0  0
   -2.5161    2.4500  -21.0883 H   0  0  0  0  0  0  0  0  0  0  0  0
   -3.0990    1.7320  -18.7796 H   0  0  0  0  0  0  0  0  0  0  0  0
   -4.6508    0.5726  -17.2340 H   0  0  0  0  0  0  0  0  0  0  0  0
   -7.8043   -1.6858  -18.6470 H   0  0  0  0  0  0  0  0  0  0  0  0
   -6.9676   -1.9340  -21.9434 H   0  0  0  0  0  0  0  0  0  0  0  0
   -8.7347   -2.2223  -23.6066 C   0  0  0  0  0  0  0  0  0  0  0  0
   -9.1750   -3.5223  -23.8635 C   0  0  0  0  0  0  0  0  0  0  0  0
   -8.5799   -4.2555  -24.8861 C   0  0  0  0  0  0  0  0  0  0  0  0
   -7.5859   -3.6980  -25.6823 C   0  0  0  0  0  0  0  0  0  0  0  0
   -7.2006   -2.3878  -25.4444 C   0  0  0  0  0  0  0  0  0  0  0  0
   -5.9713   -1.6627  -26.4348 Cl  0  0  0  0  0  0  0  0  0  0  0  0
   -7.7659   -1.6411  -24.4219 C   0  0  0  0  0  0  0  0  0  0  0  0
   -7.4822   -0.6013  -24.2732 H   0  0  0  0  0  0  0  0  0  0  0  0
   -7.1094   -4.2645  -26.4750 H   0  0  0  0  0  0  0  0  0  0  0  0
   -8.9062   -5.2730  -25.0754 H   0  0  0  0  0  0  0  0  0  0  0  0
   -9.9821   -3.9488  -23.2680 H   0  0  0  0  0  0  0  0  0  0  0  0
  -11.3261   -1.8122  -23.0150 H   0  0  0  0  0  0  0  0  0  0  0  0
  -11.0059   -0.4814  -21.8947 H   0  0  0  0  0  0  0  0  0  0  0  0
   -9.9014    1.1967  -24.1443 C   0  0  0  0  0  0  0  0  0  0  0  0
   -9.6281    1.6644  -25.2455 O   0  0  0  0  0  0  0  0  0  0  0  0
   -9.3890    1.7392  -23.0161 N   0  0  0  0  0  0  0  0  0  0  0  0
   -8.1611    2.4963  -23.1446 C   0  0  0  0  0  0  0  0  0  0  0  0
   -7.5469    2.7972  -21.7948 C   0  0  0  0  0  0  0  0  0  0  0  0
   -7.5741    1.9061  -21.1611 H   0  0  0  0  0  0  0  0  0  0  0  0
   -6.4968    3.0922  -21.8938 H   0  0  0  0  0  0  0  0  0  0  0  0
   -8.0624    3.5956  -21.2682 H   0  0  0  0  0  0  0  0  0  0  0  0
   -7.4340    1.9077  -23.7194 H   0  0  0  0  0  0  0  0  0  0  0  0
   -8.3709    3.3940  -23.7348 H   0  0  0  0  0  0  0  0  0  0  0  0
   -9.5954    1.3473  -22.1004 H   0  0  0  0  0  0  0  0  0  0  0  0
  -11.5883    0.3943  -25.9129 H   0  0  0  0  0  0  0  0  0  0  0  0
  -12.2455   -1.1231  -25.0514 H   0  0  0  0  0  0  0  0  0  0  0  0
  1  2  2  0
  2  3  1  0
  3  4  1  0
  4  5  1  0
  5  6  2  0
  5  7  1  0
  7  8  1  0
  8  9  2  0
  9 10  1  0
 10 11  2  0
 11 12  1  0
 12 13  2  0
 13 14  1  0
 14 15  2  0
 15 16  1  0
 16 17  2  0
 16 18  1  0
 15 19  1  0
 14 20  1  0
 13 21  1  0
 11 22  1  0
  9 23  1  0
  7 24  1  0
  4 25  1  0
 25 26  2  0
 26 27  1  0
 27 28  2  0
 28 29  1  0
 29 30  1  0
 29 31  2  0
 31 32  1  0
 28 33  1  0
 27 34  1  0
 26 35  1  0
  3 36  1  0
  3 37  1  0
  2 38  1  0
 38 39  2  0
 38 40  1  0
 40 41  1  0
 41 42  1  0
 42 43  1  0
 42 44  1  0
 42 45  1  0
 41 46  1  0
 41 47  1  0
 40 48  1  0
  1 49  1  0
  1 50  1  0
 17  8  1  0
 31 25  1  0
 17 12  1  0
M  END
>  <cnnaffinities>  (49) 
[5.83699, 5.34257]

>  <score>  (49) 
5.83699

>  <index>  (49) 
51

>  <Smiles>  (49) 
C(=C(C(N(C(=O)N(c1c(nc(c2c(c(c(c(c12)[H])[H])[H])[H])[H])[H])[H])c1c(c(c(c(Cl)c1[H])[H])[H])[H])([H])[H])C(=O)N(C(C([H])([H])[H])([H])[H])[H])([H])[H]

>  <h>  (49) 
<NA>

>  <Training>  (49) 
True

>  <Success>  (49) 
True

>  <enamine_searched>  (49) 
False

>  <enamine_id>  (49) 
nan

$$$$

     RDKit          3D

 57 60  0  0  0  0  0  0  0  0999 V2000
  -13.9414   -1.4177  -24.1846 C   0  0  0  0  0  0  0  0  0  0  0  0
  -13.2206   -1.4994  -25.5342 C   0  0  0  0  0  0  0  0  0  0  0  0
  -11.8046   -0.9609  -25.4878 C   0  0  0  0  0  0  0  0  0  0  0  0
  -11.5399    0.1990  -25.7468 O   0  0  0  0  0  0  0  0  0  0  0  0
  -10.8582   -1.8821  -25.1028 N   0  0  0  0  0  0  0  0  0  0  0  0
   -9.4642   -1.6524  -25.1199 C   0  0  0  0  0  0  0  0  0  0  0  0
   -8.8963   -0.8251  -26.0871 C   0  0  0  0  0  0  0  0  0  0  0  0
   -7.5198   -0.6506  -26.0924 C   0  0  0  0  0  0  0  0  0  0  0  0
   -6.7081   -1.2586  -25.1425 C   0  0  0  0  0  0  0  0  0  0  0  0
   -7.2757   -2.0652  -24.1540 C   0  0  0  0  0  0  0  0  0  0  0  0
   -6.4080   -2.6751  -23.1924 N   0  0  0  0  0  0  0  0  0  0  0  0
   -5.3675   -3.5880  -23.6906 C   0  0  0  0  0  0  0  0  0  0  0  0
   -5.9635   -4.9258  -24.0661 C   0  0  0  0  0  0  0  0  0  0  0  0
   -5.9821   -5.9773  -23.1467 C   0  0  0  0  0  0  0  0  0  0  0  0
   -6.7570   -7.1027  -23.4007 C   0  0  0  0  0  0  0  0  0  0  0  0
   -7.4907   -7.1901  -24.5816 C   0  0  0  0  0  0  0  0  0  0  0  0
   -7.3820   -6.2010  -25.5557 C   0  0  0  0  0  0  0  0  0  0  0  0
   -6.5994   -5.0828  -25.3011 C   0  0  0  0  0  0  0  0  0  0  0  0
   -6.4900   -4.3272  -26.0784 H   0  0  0  0  0  0  0  0  0  0  0  0
   -7.9110   -6.2967  -26.5040 H   0  0  0  0  0  0  0  0  0  0  0  0
   -8.1478   -8.0344  -24.7469 H   0  0  0  0  0  0  0  0  0  0  0  0
   -6.8029   -7.9142  -22.6766 H   0  0  0  0  0  0  0  0  0  0  0  0
   -5.3999   -5.9263  -22.2262 H   0  0  0  0  0  0  0  0  0  0  0  0
   -4.8742   -3.1248  -24.5517 H   0  0  0  0  0  0  0  0  0  0  0  0
   -4.6147   -3.6785  -22.9062 H   0  0  0  0  0  0  0  0  0  0  0  0
   -6.6190   -2.6574  -21.8234 C   0  0  0  0  0  0  0  0  0  0  0  0
   -6.1387   -3.5107  -21.0954 O   0  0  0  0  0  0  0  0  0  0  0  0
   -7.4046   -1.4831  -21.2413 C   0  0  0  0  0  0  0  0  0  0  0  0
   -6.6229   -0.8101  -20.1474 C   0  0  0  0  0  0  0  0  0  0  0  0
   -6.8905   -1.0814  -18.8334 C   0  0  0  0  0  0  0  0  0  0  0  0
   -6.2075   -0.5777  -17.7733 N   0  0  0  0  0  0  0  0  0  0  0  0
   -5.1867    0.2006  -18.0417 C   0  0  0  0  0  0  0  0  0  0  0  0
   -4.7897    0.5722  -19.3577 C   0  0  0  0  0  0  0  0  0  0  0  0
   -3.6904    1.4405  -19.5917 C   0  0  0  0  0  0  0  0  0  0  0  0
   -3.4292    1.9018  -20.8516 C   0  0  0  0  0  0  0  0  0  0  0  0
   -4.2409    1.4907  -21.9320 C   0  0  0  0  0  0  0  0  0  0  0  0
   -5.2387    0.5592  -21.7540 C   0  0  0  0  0  0  0  0  0  0  0  0
   -5.5553    0.0915  -20.4458 C   0  0  0  0  0  0  0  0  0  0  0  0
   -5.7891    0.2000  -22.6243 H   0  0  0  0  0  0  0  0  0  0  0  0
   -4.0479    1.8992  -22.9184 H   0  0  0  0  0  0  0  0  0  0  0  0
   -2.6221    2.6112  -21.0238 H   0  0  0  0  0  0  0  0  0  0  0  0
   -3.0830    1.7562  -18.7481 H   0  0  0  0  0  0  0  0  0  0  0  0
   -4.6268    0.5925  -17.1917 H   0  0  0  0  0  0  0  0  0  0  0  0
   -7.7208   -1.7409  -18.5801 H   0  0  0  0  0  0  0  0  0  0  0  0
   -7.6555   -0.7718  -22.0305 H   0  0  0  0  0  0  0  0  0  0  0  0
   -8.3434   -1.8893  -20.8441 H   0  0  0  0  0  0  0  0  0  0  0  0
   -8.6563   -2.2849  -24.1686 C   0  0  0  0  0  0  0  0  0  0  0  0
   -9.1150   -2.9260  -23.4203 H   0  0  0  0  0  0  0  0  0  0  0  0
   -5.6326   -1.0980  -25.1545 H   0  0  0  0  0  0  0  0  0  0  0  0
   -7.0716   -0.0218  -26.8580 H   0  0  0  0  0  0  0  0  0  0  0  0
   -9.5204   -0.3320  -26.8245 H   0  0  0  0  0  0  0  0  0  0  0  0
  -11.1657   -2.7988  -24.8117 H   0  0  0  0  0  0  0  0  0  0  0  0
  -13.2045   -2.5352  -25.8968 H   0  0  0  0  0  0  0  0  0  0  0  0
  -13.7710   -0.8942  -26.2541 H   0  0  0  0  0  0  0  0  0  0  0  0
  -14.9818   -1.7403  -24.3162 H   0  0  0  0  0  0  0  0  0  0  0  0
  -13.9419   -0.3928  -23.7915 H   0  0  0  0  0  0  0  0  0  0  0  0
  -13.4695   -2.0675  -23.4390 H   0  0  0  0  0  0  0  0  0  0  0  0
  1  2  1  0
  2  3  1  0
  3  4  2  0
  3  5  1  0
  5  6  1  0
  6  7  2  0
  7  8  1  0
  8  9  2  0
  9 10  1  0
 10 11  1  0
 11 12  1  0
 12 13  1  0
 13 14  2  0
 14 15  1  0
 15 16  2  0
 16 17  1  0
 17 18  2  0
 18 19  1  0
 17 20  1  0
 16 21  1  0
 15 22  1  0
 14 23  1  0
 12 24  1  0
 12 25  1  0
 11 26  1  0
 26 27  2  0
 26 28  1  0
 28 29  1  0
 29 30  2  0
 30 31  1  0
 31 32  2  0
 32 33  1  0
 33 34  2  0
 34 35  1  0
 35 36  2  0
 36 37  1  0
 37 38  2  0
 37 39  1  0
 36 40  1  0
 35 41  1  0
 34 42  1  0
 32 43  1  0
 30 44  1  0
 28 45  1  0
 28 46  1  0
 10 47  2  0
 47 48  1  0
  9 49  1  0
  8 50  1  0
  7 51  1  0
  5 52  1  0
  2 53  1  0
  2 54  1  0
  1 55  1  0
  1 56  1  0
  1 57  1  0
 47  6  1  0
 18 13  1  0
 38 29  1  0
 38 33  1  0
M  END
>  <cnnaffinities>  (50) 
[6.02673, 6.0276, 6.08542, 5.8826, 5.04639, 5.04179, 5.88139, 5.88448, 5.87812]

>  <score>  (50) 
6.02673

>  <index>  (50) 
52

>  <Smiles>  (50) 
C(C(C(=O)N(c1c(c(c(c(N(C(c2c(c(c(c(c2[H])[H])[H])[H])[H])([H])[H])C(=O)C(c2c(nc(c3c(c(c(c(c23)[H])[H])[H])[H])[H])[H])([H])[H])c1[H])[H])[H])[H])[H])([H])[H])([H])([H])[H]

>  <h>  (50) 
<NA>

>  <Training>  (50) 
True

>  <Success>  (50) 
True

>  <enamine_searched>  (50) 
False

>  <enamine_id>  (50) 
nan

$$$$

     RDKit          3D

 59 63  0  0  0  0  0  0  0  0999 V2000
   -8.5023   -6.5852  -26.2486 C   0  0  0  0  0  0  0  0  0  0  0  0
   -8.2842   -5.8766  -27.5789 C   0  0  0  0  0  0  0  0  0  0  0  0
   -8.4055   -4.4327  -27.4668 N   0  0  0  0  0  0  0  0  0  0  0  0
   -7.4239   -3.7076  -26.8797 C   0  0  0  0  0  0  0  0  0  0  0  0
   -6.4321   -4.2180  -26.3757 O   0  0  0  0  0  0  0  0  0  0  0  0
   -7.6539   -2.1988  -26.8675 C   0  0  0  0  0  0  0  0  0  0  0  0
   -8.4980   -1.8233  -25.7393 N   0  0  0  0  0  0  0  0  0  0  0  0
   -7.9169   -1.3154  -24.4938 C   0  0  0  0  0  0  0  0  0  0  0  0
   -8.7749   -1.5931  -23.2165 C   0  0  2  0  0  0  0  0  0  0  0  0
   -8.2353   -0.6407  -22.1356 C   0  0  0  0  0  0  0  0  0  0  0  0
   -8.3712    0.5656  -22.1104 O   0  0  0  0  0  0  0  0  0  0  0  0
   -7.4821   -1.3617  -21.2295 N   0  0  0  0  0  0  0  0  0  0  0  0
   -6.6936   -0.7703  -20.2119 C   0  0  0  0  0  0  0  0  0  0  0  0
   -6.9388   -1.1028  -18.9019 C   0  0  0  0  0  0  0  0  0  0  0  0
   -6.2429   -0.6360  -17.8375 N   0  0  0  0  0  0  0  0  0  0  0  0
   -5.2292    0.1583  -18.0873 C   0  0  0  0  0  0  0  0  0  0  0  0
   -4.8475    0.5687  -19.3966 C   0  0  0  0  0  0  0  0  0  0  0  0
   -3.7530    1.4520  -19.5972 C   0  0  0  0  0  0  0  0  0  0  0  0
   -3.4745    1.9392  -20.8446 C   0  0  0  0  0  0  0  0  0  0  0  0
   -4.2477    1.5241  -21.9544 C   0  0  0  0  0  0  0  0  0  0  0  0
   -5.2613    0.6133  -21.7978 C   0  0  0  0  0  0  0  0  0  0  0  0
   -5.6116    0.1277  -20.5023 C   0  0  0  0  0  0  0  0  0  0  0  0
   -5.8162    0.2802  -22.6701 H   0  0  0  0  0  0  0  0  0  0  0  0
   -4.0266    1.9226  -22.9417 H   0  0  0  0  0  0  0  0  0  0  0  0
   -2.6762    2.6618  -20.9899 H   0  0  0  0  0  0  0  0  0  0  0  0
   -3.1589    1.7392  -18.7328 H   0  0  0  0  0  0  0  0  0  0  0  0
   -4.6665    0.5429  -17.2345 H   0  0  0  0  0  0  0  0  0  0  0  0
   -7.7538   -1.7857  -18.6643 H   0  0  0  0  0  0  0  0  0  0  0  0
   -7.4110   -2.7798  -21.5297 C   0  0  0  0  0  0  0  0  0  0  0  0
   -8.5388   -2.9862  -22.5418 C   0  0  2  0  0  0  0  0  0  0  0  0
   -8.3054   -4.1553  -23.4810 C   0  0  0  0  0  0  0  0  0  0  0  0
   -9.1262   -4.2454  -24.2005 H   0  0  0  0  0  0  0  0  0  0  0  0
   -7.3719   -4.0390  -24.0425 H   0  0  0  0  0  0  0  0  0  0  0  0
   -8.2509   -5.0926  -22.9201 H   0  0  0  0  0  0  0  0  0  0  0  0
   -9.4513   -3.1751  -21.9611 H   0  0  0  0  0  0  0  0  0  0  0  0
   -6.4279   -3.0461  -21.9431 H   0  0  0  0  0  0  0  0  0  0  0  0
   -7.5577   -3.3771  -20.6242 H   0  0  0  0  0  0  0  0  0  0  0  0
  -10.2468   -1.3741  -23.5294 C   0  0  0  0  0  0  0  0  0  0  0  0
  -11.1958   -1.2514  -22.5000 C   0  0  0  0  0  0  0  0  0  0  0  0
  -12.5467   -1.2090  -22.8146 C   0  0  0  0  0  0  0  0  0  0  0  0
  -13.7524   -1.3332  -21.5522 Cl  0  0  0  0  0  0  0  0  0  0  0  0
  -12.9938   -1.1213  -24.1338 C   0  0  0  0  0  0  0  0  0  0  0  0
  -12.0679   -1.2314  -25.1514 C   0  0  0  0  0  0  0  0  0  0  0  0
  -10.7235   -1.4469  -24.8444 C   0  0  0  0  0  0  0  0  0  0  0  0
   -9.8367   -1.8585  -25.9665 C   0  0  0  0  0  0  0  0  0  0  0  0
  -10.3065   -2.2349  -27.0481 O   0  0  0  0  0  0  0  0  0  0  0  0
  -12.3498   -1.1762  -26.2024 H   0  0  0  0  0  0  0  0  0  0  0  0
  -14.0495   -1.0020  -24.3433 H   0  0  0  0  0  0  0  0  0  0  0  0
  -10.9168   -1.1930  -21.4546 H   0  0  0  0  0  0  0  0  0  0  0  0
   -7.7769   -0.2278  -24.5714 H   0  0  0  0  0  0  0  0  0  0  0  0
   -6.9192   -1.7549  -24.3719 H   0  0  0  0  0  0  0  0  0  0  0  0
   -8.1745   -1.9072  -27.7837 H   0  0  0  0  0  0  0  0  0  0  0  0
   -6.7000   -1.6744  -26.8095 H   0  0  0  0  0  0  0  0  0  0  0  0
   -9.2828   -3.9735  -27.6627 H   0  0  0  0  0  0  0  0  0  0  0  0
   -8.9996   -6.2197  -28.3362 H   0  0  0  0  0  0  0  0  0  0  0  0
   -7.2751   -6.0930  -27.9443 H   0  0  0  0  0  0  0  0  0  0  0  0
   -7.7486   -6.2551  -25.5289 H   0  0  0  0  0  0  0  0  0  0  0  0
   -9.4926   -6.3628  -25.8415 H   0  0  0  0  0  0  0  0  0  0  0  0
   -8.4152   -7.6681  -26.3672 H   0  0  0  0  0  0  0  0  0  0  0  0
  1  2  1  0
  2  3  1  0
  3  4  1  0
  4  5  2  0
  4  6  1  0
  6  7  1  0
  7  8  1  0
  9  8  1  6
  9 10  1  0
 10 11  2  0
 10 12  1  0
 12 13  1  0
 13 14  2  0
 14 15  1  0
 15 16  2  0
 16 17  1  0
 17 18  2  0
 18 19  1  0
 19 20  2  0
 20 21  1  0
 21 22  2  0
 21 23  1  0
 20 24  1  0
 19 25  1  0
 18 26  1  0
 16 27  1  0
 14 28  1  0
 12 29  1  0
 29 30  1  0
 30 31  1  0
 31 32  1  0
 31 33  1  0
 31 34  1  0
 30 35  1  1
 29 36  1  0
 29 37  1  0
  9 38  1  0
 38 39  2  0
 39 40  1  0
 40 41  1  0
 40 42  2  0
 42 43  1  0
 43 44  2  0
 44 45  1  0
 45 46  2  0
 43 47  1  0
 42 48  1  0
 39 49  1  0
  8 50  1  0
  8 51  1  0
  6 52  1  0
  6 53  1  0
  3 54  1  0
  2 55  1  0
  2 56  1  0
  1 57  1  0
  1 58  1  0
  1 59  1  0
 45  7  1  0
 30  9  1  0
 44 38  1  0
 22 13  1  0
 22 17  1  0
M  END
>  <cnnaffinities>  (51) 
[5.98622, 5.94258, 6.04436]

>  <score>  (51) 
5.98622

>  <index>  (51) 
53

>  <Smiles>  (51) 
C(C(N(C(=O)C(N1C([C@@]2(C(=O)N(c3c(nc(c4c(c(c(c(c34)[H])[H])[H])[H])[H])[H])C([C@@]2(C([H])([H])[H])[H])([H])[H])c2c(c(Cl)c(c(c2C1=O)[H])[H])[H])([H])[H])([H])[H])[H])([H])[H])([H])([H])[H]

>  <h>  (51) 
<NA>

>  <Training>  (51) 
True

>  <Success>  (51) 
True

>  <enamine_searched>  (51) 
False

>  <enamine_id>  (51) 
nan

$$$$

     RDKit          3D

 40 43  0  0  0  0  0  0  0  0999 V2000
   -9.4111   -3.8825  -22.7387 C   0  0  0  0  0  0  0  0  0  0  0  0
   -8.6758   -2.7069  -22.3343 N   0  0  0  0  0  0  0  0  0  0  0  0
   -8.6773   -1.4533  -22.8681 C   0  0  0  0  0  0  0  0  0  0  0  0
   -9.5467   -1.0736  -24.0138 C   0  0  0  0  0  0  0  0  0  0  0  0
  -10.9810   -0.8519  -23.5728 C   0  0  0  0  0  0  0  0  0  0  0  0
  -11.2931    0.2944  -22.8454 C   0  0  0  0  0  0  0  0  0  0  0  0
  -12.5941    0.5258  -22.4084 C   0  0  0  0  0  0  0  0  0  0  0  0
  -13.6002   -0.3998  -22.6780 C   0  0  0  0  0  0  0  0  0  0  0  0
  -13.2982   -1.5511  -23.4015 C   0  0  0  0  0  0  0  0  0  0  0  0
  -11.9937   -1.7717  -23.8461 C   0  0  0  0  0  0  0  0  0  0  0  0
  -11.7604   -2.6769  -24.4067 H   0  0  0  0  0  0  0  0  0  0  0  0
  -14.0785   -2.2799  -23.6135 H   0  0  0  0  0  0  0  0  0  0  0  0
  -14.6133   -0.2235  -22.3175 H   0  0  0  0  0  0  0  0  0  0  0  0
  -12.8156    1.4260  -21.8379 H   0  0  0  0  0  0  0  0  0  0  0  0
  -10.4978    1.0011  -22.6142 H   0  0  0  0  0  0  0  0  0  0  0  0
   -9.1187   -0.1611  -24.4350 H   0  0  0  0  0  0  0  0  0  0  0  0
   -9.5184   -1.8341  -24.8040 H   0  0  0  0  0  0  0  0  0  0  0  0
   -7.9191   -0.6351  -22.1943 N   0  0  0  0  0  0  0  0  0  0  0  0
   -7.3954   -1.3963  -21.1808 N   0  0  0  0  0  0  0  0  0  0  0  0
   -6.6148   -0.8251  -20.1543 C   0  0  0  0  0  0  0  0  0  0  0  0
   -6.9133   -1.0829  -18.8349 C   0  0  0  0  0  0  0  0  0  0  0  0
   -6.2231   -0.5701  -17.7904 N   0  0  0  0  0  0  0  0  0  0  0  0
   -5.1994    0.1969  -18.0776 C   0  0  0  0  0  0  0  0  0  0  0  0
   -4.8023    0.5645  -19.3914 C   0  0  0  0  0  0  0  0  0  0  0  0
   -3.6814    1.4025  -19.6199 C   0  0  0  0  0  0  0  0  0  0  0  0
   -3.3643    1.8084  -20.8862 C   0  0  0  0  0  0  0  0  0  0  0  0
   -4.1665    1.4012  -21.9803 C   0  0  0  0  0  0  0  0  0  0  0  0
   -5.1545    0.4653  -21.7997 C   0  0  0  0  0  0  0  0  0  0  0  0
   -5.5428    0.0634  -20.4851 C   0  0  0  0  0  0  0  0  0  0  0  0
   -5.6432    0.0069  -22.6551 H   0  0  0  0  0  0  0  0  0  0  0  0
   -3.9566    1.7895  -22.9785 H   0  0  0  0  0  0  0  0  0  0  0  0
   -2.4839    2.4228  -21.0634 H   0  0  0  0  0  0  0  0  0  0  0  0
   -3.0863    1.6859  -18.7558 H   0  0  0  0  0  0  0  0  0  0  0  0
   -4.6404    0.5976  -17.2357 H   0  0  0  0  0  0  0  0  0  0  0  0
   -7.7565   -1.7230  -18.5843 H   0  0  0  0  0  0  0  0  0  0  0  0
   -7.8405   -2.7072  -21.2303 C   0  0  0  0  0  0  0  0  0  0  0  0
   -7.5586   -3.6407  -20.5051 O   0  0  0  0  0  0  0  0  0  0  0  0
   -9.4335   -3.9483  -23.8330 H   0  0  0  0  0  0  0  0  0  0  0  0
  -10.4342   -3.8457  -22.3414 H   0  0  0  0  0  0  0  0  0  0  0  0
   -8.8610   -4.7263  -22.3106 H   0  0  0  0  0  0  0  0  0  0  0  0
  1  2  1  0
  2  3  1  0
  3  4  1  0
  4  5  1  0
  5  6  2  0
  6  7  1  0
  7  8  2  0
  8  9  1  0
  9 10  2  0
 10 11  1  0
  9 12  1  0
  8 13  1  0
  7 14  1  0
  6 15  1  0
  4 16  1  0
  4 17  1  0
  3 18  2  0
 18 19  1  0
 19 20  1  0
 20 21  2  0
 21 22  1  0
 22 23  2  0
 23 24  1  0
 24 25  2  0
 25 26  1  0
 26 27  2  0
 27 28  1  0
 28 29  2  0
 28 30  1  0
 27 31  1  0
 26 32  1  0
 25 33  1  0
 23 34  1  0
 21 35  1  0
 19 36  1  0
 36 37  2  0
  1 38  1  0
  1 39  1  0
  1 40  1  0
 36  2  1  0
 10  5  1  0
 29 20  1  0
 29 24  1  0
M  END
>  <cnnaffinities>  (52) 
[5.23089, 5.22527]

>  <score>  (52) 
5.23089

>  <index>  (52) 
54

>  <Smiles>  (52) 
C(n1c(C(c2c(c(c(c(c2[H])[H])[H])[H])[H])([H])[H])nn(c2c(nc(c3c(c(c(c(c23)[H])[H])[H])[H])[H])[H])c1=O)([H])([H])[H]

>  <h>  (52) 
<NA>

>  <Training>  (52) 
True

>  <Success>  (52) 
True

>  <enamine_searched>  (52) 
False

>  <enamine_id>  (52) 
nan

$$$$

     RDKit          3D

 61 66  0  0  0  0  0  0  0  0999 V2000
   -7.0132   -5.4644  -25.0479 C   0  0  0  0  0  0  0  0  0  0  0  0
   -7.3596   -4.8122  -23.8512 O   0  0  0  0  0  0  0  0  0  0  0  0
   -7.9944   -3.5783  -24.0818 C   0  0  0  0  0  0  0  0  0  0  0  0
   -8.2907   -2.9176  -22.7372 C   0  0  1  0  0  0  0  0  0  0  0  0
   -7.0114   -2.5564  -21.9579 C   0  0  0  0  0  0  0  0  0  0  0  0
   -7.3986   -1.3841  -21.1930 N   0  0  0  0  0  0  0  0  0  0  0  0
   -6.6203   -0.8017  -20.1618 C   0  0  0  0  0  0  0  0  0  0  0  0
   -6.9218   -1.0577  -18.8490 C   0  0  0  0  0  0  0  0  0  0  0  0
   -6.2155   -0.5775  -17.7960 N   0  0  0  0  0  0  0  0  0  0  0  0
   -5.2005    0.2110  -18.0598 C   0  0  0  0  0  0  0  0  0  0  0  0
   -4.7928    0.5774  -19.3753 C   0  0  0  0  0  0  0  0  0  0  0  0
   -3.6792    1.4259  -19.6165 C   0  0  0  0  0  0  0  0  0  0  0  0
   -3.3815    1.8366  -20.8861 C   0  0  0  0  0  0  0  0  0  0  0  0
   -4.1573    1.3869  -21.9750 C   0  0  0  0  0  0  0  0  0  0  0  0
   -5.1421    0.4468  -21.7825 C   0  0  0  0  0  0  0  0  0  0  0  0
   -5.5221    0.0578  -20.4692 C   0  0  0  0  0  0  0  0  0  0  0  0
   -5.6828    0.0484  -22.6372 H   0  0  0  0  0  0  0  0  0  0  0  0
   -3.9599    1.7905  -22.9686 H   0  0  0  0  0  0  0  0  0  0  0  0
   -2.5379    2.5013  -21.0644 H   0  0  0  0  0  0  0  0  0  0  0  0
   -3.0923    1.7581  -18.7661 H   0  0  0  0  0  0  0  0  0  0  0  0
   -4.6240    0.5870  -17.2120 H   0  0  0  0  0  0  0  0  0  0  0  0
   -7.7761   -1.6864  -18.6062 H   0  0  0  0  0  0  0  0  0  0  0  0
   -8.5928   -0.8177  -21.5753 C   0  0  0  0  0  0  0  0  0  0  0  0
   -9.0949    0.1523  -21.0468 O   0  0  0  0  0  0  0  0  0  0  0  0
   -9.1358   -1.6124  -22.7846 C   0  0  1  0  0  0  0  0  0  0  0  0
   -8.8659   -0.8299  -24.0914 C   0  0  0  0  0  0  0  0  0  0  0  0
   -9.6868    0.3587  -24.1931 N   0  0  0  0  0  0  0  0  0  0  0  0
   -9.0615    1.5863  -24.6538 C   0  0  0  0  0  0  0  0  0  0  0  0
   -8.2629    2.2807  -23.5927 C   0  0  0  0  0  0  0  0  0  0  0  0
   -6.9238    2.4025  -23.4288 C   0  0  0  0  0  0  0  0  0  0  0  0
   -6.7129    3.1653  -22.3000 N   0  0  0  0  0  4  0  0  0  0  0  0
   -7.8888    3.5203  -21.7832 C   0  0  0  0  0  0  0  0  0  0  0  0
   -8.8515    2.9874  -22.5547 N   0  0  0  0  0  0  0  0  0  0  0  0
   -9.8233    2.9213  -22.2697 H   0  0  0  0  0  0  0  0  0  0  0  0
   -8.0162    4.1790  -20.9346 H   0  0  0  0  0  0  0  0  0  0  0  0
   -5.8201    3.2324  -21.8355 H   0  0  0  0  0  0  0  0  0  0  0  0
   -6.0818    2.0009  -23.9767 H   0  0  0  0  0  0  0  0  0  0  0  0
   -9.8657    2.2269  -25.0312 H   0  0  0  0  0  0  0  0  0  0  0  0
   -8.4128    1.3420  -25.5016 H   0  0  0  0  0  0  0  0  0  0  0  0
  -11.0383    0.3098  -24.0025 C   0  0  0  0  0  0  0  0  0  0  0  0
  -11.7938    1.1864  -24.3996 O   0  0  0  0  0  0  0  0  0  0  0  0
  -11.5293   -0.8882  -23.2472 C   0  0  0  0  0  0  0  0  0  0  0  0
  -12.9067   -1.0368  -23.0967 C   0  0  0  0  0  0  0  0  0  0  0  0
  -13.4209   -2.0405  -22.3028 C   0  0  0  0  0  0  0  0  0  0  0  0
  -12.5274   -2.8916  -21.6547 C   0  0  0  0  0  0  0  0  0  0  0  0
  -13.1439   -4.1209  -20.5914 Cl  0  0  0  0  0  0  0  0  0  0  0  0
  -11.1602   -2.7781  -21.8204 C   0  0  0  0  0  0  0  0  0  0  0  0
  -10.6339   -1.7891  -22.6539 C   0  0  0  0  0  0  0  0  0  0  0  0
  -10.5137   -3.4534  -21.2717 H   0  0  0  0  0  0  0  0  0  0  0  0
  -14.4884   -2.1595  -22.1532 H   0  0  0  0  0  0  0  0  0  0  0  0
  -13.5531   -0.3286  -23.6011 H   0  0  0  0  0  0  0  0  0  0  0  0
   -9.0736   -1.4907  -24.9424 H   0  0  0  0  0  0  0  0  0  0  0  0
   -7.8146   -0.5289  -24.1418 H   0  0  0  0  0  0  0  0  0  0  0  0
   -6.1758   -2.3402  -22.6392 H   0  0  0  0  0  0  0  0  0  0  0  0
   -6.6947   -3.3648  -21.2939 H   0  0  0  0  0  0  0  0  0  0  0  0
   -8.8382   -3.6570  -22.1532 H   0  0  0  0  0  0  0  0  0  0  0  0
   -8.9277   -3.7317  -24.6515 H   0  0  0  0  0  0  0  0  0  0  0  0
   -7.3438   -2.9240  -24.6900 H   0  0  0  0  0  0  0  0  0  0  0  0
   -6.5437   -6.4148  -24.7831 H   0  0  0  0  0  0  0  0  0  0  0  0
   -7.8951   -5.6727  -25.6753 H   0  0  0  0  0  0  0  0  0  0  0  0
   -6.2979   -4.8763  -25.6457 H   0  0  0  0  0  0  0  0  0  0  0  0
  1  2  1  0
  2  3  1  0
  3  4  1  0
  4  5  1  0
  5  6  1  0
  6  7  1  0
  7  8  2  0
  8  9  1  0
  9 10  2  0
 10 11  1  0
 11 12  2  0
 12 13  1  0
 13 14  2  0
 14 15  1  0
 15 16  2  0
 15 17  1  0
 14 18  1  0
 13 19  1  0
 12 20  1  0
 10 21  1  0
  8 22  1  0
  6 23  1  0
 23 24  2  0
 23 25  1  0
 25 26  1  6
 26 27  1  0
 27 28  1  0
 28 29  1  0
 29 30  2  0
 30 31  1  0
 31 32  2  0
 32 33  1  0
 33 34  1  0
 32 35  1  0
 31 36  1  0
 30 37  1  0
 28 38  1  0
 28 39  1  0
 27 40  1  0
 40 41  2  0
 40 42  1  0
 42 43  2  0
 43 44  1  0
 44 45  2  0
 45 46  1  0
 45 47  1  0
 47 48  2  0
 47 49  1  0
 44 50  1  0
 43 51  1  0
 26 52  1  0
 26 53  1  0
  5 54  1  0
  5 55  1  0
  4 56  1  1
  3 57  1  0
  3 58  1  0
  1 59  1  0
  1 60  1  0
  1 61  1  0
 25  4  1  0
 33 29  1  0
 48 42  1  0
 16  7  1  0
 48 25  1  0
 16 11  1  0
M  CHG  1  31   1
M  END
>  <cnnaffinities>  (53) 
[5.99767]

>  <score>  (53) 
5.99767

>  <index>  (53) 
55

>  <Smiles>  (53) 
C(OC([C@]1(C(N(c2c(nc(c3c(c(c(c(c23)[H])[H])[H])[H])[H])[H])C(=O)[C@]21C(N(C(c1c([n+](c(n1[H])[H])[H])[H])([H])[H])C(=O)c1c(c(c(Cl)c(c21)[H])[H])[H])([H])[H])([H])[H])[H])([H])[H])([H])([H])[H]

>  <h>  (53) 
<NA>

>  <Training>  (53) 
True

>  <Success>  (53) 
True

>  <enamine_searched>  (53) 
False

>  <enamine_id>  (53) 
nan

$$$$

     RDKit          3D

 57 62  0  0  0  0  0  0  0  0999 V2000
   -8.2782   -4.1532  -23.4800 C   0  0  0  0  0  0  0  0  0  0  0  0
   -8.5217   -2.9995  -22.5230 C   0  0  1  0  0  0  0  0  0  0  0  0
   -7.3897   -2.8072  -21.5031 C   0  0  0  0  0  0  0  0  0  0  0  0
   -7.4443   -1.3877  -21.2008 N   0  0  0  0  0  0  0  0  0  0  0  0
   -6.6620   -0.7883  -20.1839 C   0  0  0  0  0  0  0  0  0  0  0  0
   -6.9167   -1.0978  -18.8719 C   0  0  0  0  0  0  0  0  0  0  0  0
   -6.2275   -0.6108  -17.8124 N   0  0  0  0  0  0  0  0  0  0  0  0
   -5.2170    0.1838  -18.0729 C   0  0  0  0  0  0  0  0  0  0  0  0
   -4.8310    0.5756  -19.3862 C   0  0  0  0  0  0  0  0  0  0  0  0
   -3.7206    1.4337  -19.6043 C   0  0  0  0  0  0  0  0  0  0  0  0
   -3.4311    1.8886  -20.8594 C   0  0  0  0  0  0  0  0  0  0  0  0
   -4.2230    1.4824  -21.9578 C   0  0  0  0  0  0  0  0  0  0  0  0
   -5.2190    0.5557  -21.7941 C   0  0  0  0  0  0  0  0  0  0  0  0
   -5.5873    0.1104  -20.4880 C   0  0  0  0  0  0  0  0  0  0  0  0
   -5.7657    0.2087  -22.6677 H   0  0  0  0  0  0  0  0  0  0  0  0
   -4.0205    1.8984  -22.9391 H   0  0  0  0  0  0  0  0  0  0  0  0
   -2.6355    2.6116  -21.0113 H   0  0  0  0  0  0  0  0  0  0  0  0
   -3.1155    1.7180  -18.7462 H   0  0  0  0  0  0  0  0  0  0  0  0
   -4.6435    0.5597  -17.2243 H   0  0  0  0  0  0  0  0  0  0  0  0
   -7.7488   -1.7592  -18.6335 H   0  0  0  0  0  0  0  0  0  0  0  0
   -8.1621   -0.6528  -22.1187 C   0  0  0  0  0  0  0  0  0  0  0  0
   -8.2846    0.5568  -22.0830 O   0  0  0  0  0  0  0  0  0  0  0  0
   -8.7398   -1.5932  -23.1894 C   0  0  1  0  0  0  0  0  0  0  0  0
   -7.9515   -1.3202  -24.4936 C   0  0  0  0  0  0  0  0  0  0  0  0
   -8.5923   -1.8872  -25.6773 N   0  0  0  0  0  0  0  0  0  0  0  0
   -7.7814   -2.3047  -26.8095 C   0  0  0  0  0  0  0  0  0  0  0  0
   -7.6818   -3.8114  -26.8630 C   0  0  0  0  0  0  0  0  0  0  0  0
   -8.7733   -4.4933  -27.2408 N   0  0  0  0  0  0  0  0  0  0  0  0
   -8.6291   -5.8119  -27.3606 C   0  0  0  0  0  0  0  0  0  0  0  0
   -7.4369   -6.4617  -27.0695 C   0  0  0  0  0  0  0  0  0  0  0  0
   -6.3930   -5.6575  -26.6489 C   0  0  0  0  0  0  0  0  0  0  0  0
   -6.5058   -4.3321  -26.5130 N   0  0  0  0  0  0  0  0  0  0  0  0
   -5.4159   -6.0856  -26.4290 H   0  0  0  0  0  0  0  0  0  0  0  0
   -7.3320   -7.5410  -27.1625 H   0  0  0  0  0  0  0  0  0  0  0  0
   -9.4910   -6.3810  -27.7145 H   0  0  0  0  0  0  0  0  0  0  0  0
   -6.7785   -1.8745  -26.7236 H   0  0  0  0  0  0  0  0  0  0  0  0
   -8.2773   -1.9338  -27.7155 H   0  0  0  0  0  0  0  0  0  0  0  0
   -9.9293   -1.7392  -25.9299 C   0  0  0  0  0  0  0  0  0  0  0  0
  -10.4129   -1.8899  -27.0412 O   0  0  0  0  0  0  0  0  0  0  0  0
  -10.7562   -1.4057  -24.7491 C   0  0  0  0  0  0  0  0  0  0  0  0
  -12.1179   -1.2364  -24.9764 C   0  0  0  0  0  0  0  0  0  0  0  0
  -12.9724   -0.9403  -23.9386 C   0  0  0  0  0  0  0  0  0  0  0  0
  -12.4169   -0.8495  -22.6676 C   0  0  0  0  0  0  0  0  0  0  0  0
  -13.2477   -0.6096  -21.6491 F   0  0  0  0  0  0  0  0  0  0  0  0
  -11.0677   -1.0254  -22.4138 C   0  0  0  0  0  0  0  0  0  0  0  0
  -10.2034   -1.3112  -23.4702 C   0  0  0  0  0  0  0  0  0  0  0  0
  -10.6746   -0.9464  -21.4075 H   0  0  0  0  0  0  0  0  0  0  0  0
  -14.0358   -0.7823  -24.0934 H   0  0  0  0  0  0  0  0  0  0  0  0
  -12.4705   -1.3584  -25.9927 H   0  0  0  0  0  0  0  0  0  0  0  0
   -7.8644   -0.2288  -24.6106 H   0  0  0  0  0  0  0  0  0  0  0  0
   -6.9329   -1.7228  -24.4175 H   0  0  0  0  0  0  0  0  0  0  0  0
   -7.5459   -3.3997  -20.5958 H   0  0  0  0  0  0  0  0  0  0  0  0
   -6.4061   -3.0872  -21.9122 H   0  0  0  0  0  0  0  0  0  0  0  0
   -9.4371   -3.1998  -21.9437 H   0  0  0  0  0  0  0  0  0  0  0  0
   -7.3257   -4.0168  -24.0032 H   0  0  0  0  0  0  0  0  0  0  0  0
   -8.2363   -5.0999  -22.9325 H   0  0  0  0  0  0  0  0  0  0  0  0
   -9.0817   -4.2080  -24.2214 H   0  0  0  0  0  0  0  0  0  0  0  0
  1  2  1  0
  2  3  1  0
  3  4  1  0
  4  5  1  0
  5  6  2  0
  6  7  1  0
  7  8  2  0
  8  9  1  0
  9 10  2  0
 10 11  1  0
 11 12  2  0
 12 13  1  0
 13 14  2  0
 13 15  1  0
 12 16  1  0
 11 17  1  0
 10 18  1  0
  8 19  1  0
  6 20  1  0
  4 21  1  0
 21 22  2  0
 21 23  1  0
 23 24  1  6
 24 25  1  0
 25 26  1  0
 26 27  1  0
 27 28  2  0
 28 29  1  0
 29 30  2  0
 30 31  1  0
 31 32  2  0
 31 33  1  0
 30 34  1  0
 29 35  1  0
 26 36  1  0
 26 37  1  0
 25 38  1  0
 38 39  2  0
 38 40  1  0
 40 41  2  0
 41 42  1  0
 42 43  2  0
 43 44  1  0
 43 45  1  0
 45 46  2  0
 45 47  1  0
 42 48  1  0
 41 49  1  0
 24 50  1  0
 24 51  1  0
  3 52  1  0
  3 53  1  0
  2 54  1  1
  1 55  1  0
  1 56  1  0
  1 57  1  0
 23  2  1  0
 32 27  1  0
 46 40  1  0
 14  5  1  0
 46 23  1  0
 14  9  1  0
M  END
>  <cnnaffinities>  (54) 
[5.93272, 5.91968]

>  <score>  (54) 
5.93272

>  <index>  (54) 
56

>  <Smiles>  (54) 
C([C@]1(C(N(c2c(nc(c3c(c(c(c(c23)[H])[H])[H])[H])[H])[H])C(=O)[C@]21C(N(C(c1nc(c(c(n1)[H])[H])[H])([H])[H])C(=O)c1c(c(c(F)c(c21)[H])[H])[H])([H])[H])([H])[H])[H])([H])([H])[H]

>  <h>  (54) 
<NA>

>  <Training>  (54) 
True

>  <Success>  (54) 
True

>  <enamine_searched>  (54) 
False

>  <enamine_id>  (54) 
nan

$$$$

     RDKit          3D

 59 63  0  0  0  0  0  0  0  0999 V2000
   -7.4916   -6.0261  -26.9685 C   0  0  0  0  0  0  0  0  0  0  0  0
   -7.7293   -4.6150  -27.1657 N   0  0  0  0  0  0  0  0  0  0  0  0
   -6.8148   -3.7140  -26.7342 C   0  0  0  0  0  0  0  0  0  0  0  0
   -5.7502   -4.0153  -26.2170 O   0  0  0  0  0  0  0  0  0  0  0  0
   -7.2523   -2.2560  -26.8857 C   0  0  0  0  0  0  0  0  0  0  0  0
   -8.2083   -1.8966  -25.8444 N   0  0  0  0  0  0  0  0  0  0  0  0
   -7.7199   -1.4055  -24.5579 C   0  0  0  0  0  0  0  0  0  0  0  0
   -8.6720   -1.6532  -23.3397 C   0  0  2  0  0  0  0  0  0  0  0  0
   -8.1870   -0.6802  -22.2393 C   0  0  0  0  0  0  0  0  0  0  0  0
   -8.3888    0.5203  -22.2104 O   0  0  0  0  0  0  0  0  0  0  0  0
   -7.4438   -1.3730  -21.3045 N   0  0  0  0  0  0  0  0  0  0  0  0
   -6.6904   -0.7717  -20.2576 C   0  0  0  0  0  0  0  0  0  0  0  0
   -6.9328   -1.1432  -18.9573 C   0  0  0  0  0  0  0  0  0  0  0  0
   -6.2418   -0.6930  -17.8810 N   0  0  0  0  0  0  0  0  0  0  0  0
   -5.2522    0.1364  -18.1061 C   0  0  0  0  0  0  0  0  0  0  0  0
   -4.8817    0.5996  -19.3989 C   0  0  0  0  0  0  0  0  0  0  0  0
   -3.8115    1.5163  -19.5806 C   0  0  0  0  0  0  0  0  0  0  0  0
   -3.5522    2.0375  -20.8153 C   0  0  0  0  0  0  0  0  0  0  0  0
   -4.3197    1.6363  -21.9305 C   0  0  0  0  0  0  0  0  0  0  0  0
   -5.3340    0.7281  -21.7842 C   0  0  0  0  0  0  0  0  0  0  0  0
   -5.6450    0.1796  -20.5102 C   0  0  0  0  0  0  0  0  0  0  0  0
   -5.9233    0.4365  -22.6436 H   0  0  0  0  0  0  0  0  0  0  0  0
   -4.1202    2.0604  -22.9100 H   0  0  0  0  0  0  0  0  0  0  0  0
   -2.7531    2.7597  -20.9466 H   0  0  0  0  0  0  0  0  0  0  0  0
   -3.2180    1.7975  -18.7133 H   0  0  0  0  0  0  0  0  0  0  0  0
   -4.6886    0.4962  -17.2446 H   0  0  0  0  0  0  0  0  0  0  0  0
   -7.7604   -1.8213  -18.7478 H   0  0  0  0  0  0  0  0  0  0  0  0
   -7.2971   -2.7798  -21.6425 C   0  0  0  0  0  0  0  0  0  0  0  0
   -8.4839   -3.0567  -22.5945 C   0  0  0  0  0  0  0  0  0  0  0  0
   -8.1959   -4.2594  -23.4965 C   0  0  0  0  0  0  0  0  0  0  0  0
   -9.0231   -4.4320  -24.1936 H   0  0  0  0  0  0  0  0  0  0  0  0
   -7.2709   -4.1423  -24.0737 H   0  0  0  0  0  0  0  0  0  0  0  0
   -8.0794   -5.1600  -22.8827 H   0  0  0  0  0  0  0  0  0  0  0  0
   -9.7095   -3.3500  -21.7148 C   0  0  0  0  0  0  0  0  0  0  0  0
   -9.5099   -4.2083  -21.0701 H   0  0  0  0  0  0  0  0  0  0  0  0
  -10.5892   -3.5691  -22.3246 H   0  0  0  0  0  0  0  0  0  0  0  0
   -9.9440   -2.4985  -21.0692 H   0  0  0  0  0  0  0  0  0  0  0  0
   -6.3207   -2.9707  -22.1208 H   0  0  0  0  0  0  0  0  0  0  0  0
   -7.3451   -3.3861  -20.7324 H   0  0  0  0  0  0  0  0  0  0  0  0
  -10.0827   -1.3257  -23.8123 C   0  0  0  0  0  0  0  0  0  0  0  0
  -11.0295   -0.6854  -22.9966 C   0  0  0  0  0  0  0  0  0  0  0  0
  -12.3167   -0.4794  -23.4646 C   0  0  0  0  0  0  0  0  0  0  0  0
  -13.4546    0.4492  -22.5420 Cl  0  0  0  0  0  0  0  0  0  0  0  0
  -12.7413   -0.9636  -24.6990 C   0  0  0  0  0  0  0  0  0  0  0  0
  -11.8176   -1.5822  -25.5150 C   0  0  0  0  0  0  0  0  0  0  0  0
  -10.4924   -1.6945  -25.1004 C   0  0  0  0  0  0  0  0  0  0  0  0
   -9.5117   -2.1693  -26.1011 C   0  0  0  0  0  0  0  0  0  0  0  0
   -9.8670   -2.7634  -27.1269 O   0  0  0  0  0  0  0  0  0  0  0  0
  -12.0845   -1.9573  -26.5003 H   0  0  0  0  0  0  0  0  0  0  0  0
  -13.7695   -0.8101  -25.0108 H   0  0  0  0  0  0  0  0  0  0  0  0
  -10.7449   -0.3304  -22.0139 H   0  0  0  0  0  0  0  0  0  0  0  0
   -6.7458   -1.8663  -24.3663 H   0  0  0  0  0  0  0  0  0  0  0  0
   -7.5578   -0.3206  -24.6075 H   0  0  0  0  0  0  0  0  0  0  0  0
   -7.7486   -2.1124  -27.8496 H   0  0  0  0  0  0  0  0  0  0  0  0
   -6.3635   -1.6247  -26.8422 H   0  0  0  0  0  0  0  0  0  0  0  0
   -8.6472   -4.2695  -27.4259 H   0  0  0  0  0  0  0  0  0  0  0  0
   -8.3802   -6.5849  -27.2640 H   0  0  0  0  0  0  0  0  0  0  0  0
   -7.2608   -6.2412  -25.9190 H   0  0  0  0  0  0  0  0  0  0  0  0
   -6.6428   -6.3615  -27.5686 H   0  0  0  0  0  0  0  0  0  0  0  0
  1  2  1  0
  2  3  1  0
  3  4  2  0
  3  5  1  0
  5  6  1  0
  6  7  1  0
  8  7  1  6
  8  9  1  0
  9 10  2  0
  9 11  1  0
 11 12  1  0
 12 13  2  0
 13 14  1  0
 14 15  2  0
 15 16  1  0
 16 17  2  0
 17 18  1  0
 18 19  2  0
 19 20  1  0
 20 21  2  0
 20 22  1  0
 19 23  1  0
 18 24  1  0
 17 25  1  0
 15 26  1  0
 13 27  1  0
 11 28  1  0
 28 29  1  0
 29 30  1  0
 30 31  1  0
 30 32  1  0
 30 33  1  0
 29 34  1  0
 34 35  1  0
 34 36  1  0
 34 37  1  0
 28 38  1  0
 28 39  1  0
  8 40  1  0
 40 41  2  0
 41 42  1  0
 42 43  1  0
 42 44  2  0
 44 45  1  0
 45 46  2  0
 46 47  1  0
 47 48  2  0
 45 49  1  0
 44 50  1  0
 41 51  1  0
  7 52  1  0
  7 53  1  0
  5 54  1  0
  5 55  1  0
  2 56  1  0
  1 57  1  0
  1 58  1  0
  1 59  1  0
 47  6  1  0
 29  8  1  0
 46 40  1  0
 21 12  1  0
 21 16  1  0
M  END
>  <cnnaffinities>  (55) 
[5.86185, 5.83583]

>  <score>  (55) 
5.86185

>  <index>  (55) 
57

>  <Smiles>  (55) 
C(N(C(=O)C(N1C([C@@]2(C(=O)N(c3c(nc(c4c(c(c(c(c34)[H])[H])[H])[H])[H])[H])C(C2(C([H])([H])[H])C([H])([H])[H])([H])[H])c2c(c(Cl)c(c(c2C1=O)[H])[H])[H])([H])[H])([H])[H])[H])([H])([H])[H]

>  <h>  (55) 
<NA>

>  <Training>  (55) 
True

>  <Success>  (55) 
True

>  <enamine_searched>  (55) 
False

>  <enamine_id>  (55) 
nan

$$$$

     RDKit          3D

 42 45  0  0  0  0  0  0  0  0999 V2000
   -7.3454   -5.2432  -21.5604 C   0  0  0  0  0  0  0  0  0  0  0  0
   -8.0249   -4.2287  -22.3577 N   0  0  0  0  0  0  0  0  0  0  0  0
   -9.2925   -3.6493  -21.9328 C   0  0  0  0  0  0  0  0  0  0  0  0
   -9.4161   -2.1649  -22.2854 C   0  0  1  0  0  0  0  0  0  0  0  0
   -8.6834   -1.1813  -21.3761 C   0  0  0  0  0  0  0  0  0  0  0  0
   -9.2427   -0.2111  -20.8916 O   0  0  0  0  0  0  0  0  0  0  0  0
   -7.3482   -1.4201  -21.1981 N   0  0  0  0  0  0  0  0  0  0  0  0
   -6.6198   -0.8160  -20.1590 C   0  0  0  0  0  0  0  0  0  0  0  0
   -6.9298   -1.0695  -18.8497 C   0  0  0  0  0  0  0  0  0  0  0  0
   -6.2371   -0.5799  -17.7958 N   0  0  0  0  0  0  0  0  0  0  0  0
   -5.1980    0.1745  -18.0613 C   0  0  0  0  0  0  0  0  0  0  0  0
   -4.7890    0.5294  -19.3789 C   0  0  0  0  0  0  0  0  0  0  0  0
   -3.7118    1.4167  -19.6152 C   0  0  0  0  0  0  0  0  0  0  0  0
   -3.4686    1.8836  -20.8775 C   0  0  0  0  0  0  0  0  0  0  0  0
   -4.2596    1.4575  -21.9705 C   0  0  0  0  0  0  0  0  0  0  0  0
   -5.2757    0.5528  -21.7805 C   0  0  0  0  0  0  0  0  0  0  0  0
   -5.5540    0.0712  -20.4713 C   0  0  0  0  0  0  0  0  0  0  0  0
   -5.8735    0.2136  -22.6247 H   0  0  0  0  0  0  0  0  0  0  0  0
   -4.0968    1.9048  -22.9468 H   0  0  0  0  0  0  0  0  0  0  0  0
   -2.6852    2.6186  -21.0431 H   0  0  0  0  0  0  0  0  0  0  0  0
   -3.1209    1.7431  -18.7664 H   0  0  0  0  0  0  0  0  0  0  0  0
   -4.6485    0.5704  -17.2070 H   0  0  0  0  0  0  0  0  0  0  0  0
   -7.7768   -1.7114  -18.6183 H   0  0  0  0  0  0  0  0  0  0  0  0
   -6.8759   -2.1404  -21.7266 H   0  0  0  0  0  0  0  0  0  0  0  0
   -9.0075   -1.9602  -23.7157 C   0  0  0  0  0  0  0  0  0  0  0  0
   -9.5116   -0.8632  -24.4043 C   0  0  0  0  0  0  0  0  0  0  0  0
   -9.0782   -0.6143  -25.6948 C   0  0  0  0  0  0  0  0  0  0  0  0
   -9.6949    0.7783  -26.5270 Cl  0  0  0  0  0  0  0  0  0  0  0  0
   -8.1515   -1.4453  -26.3238 C   0  0  0  0  0  0  0  0  0  0  0  0
   -7.6686   -2.5467  -25.6399 C   0  0  0  0  0  0  0  0  0  0  0  0
   -8.0997   -2.8074  -24.3387 C   0  0  0  0  0  0  0  0  0  0  0  0
   -7.5215   -3.9763  -23.6036 C   0  0  0  0  0  0  0  0  0  0  0  0
   -6.6132   -4.6465  -24.0805 O   0  0  0  0  0  0  0  0  0  0  0  0
   -6.9447   -3.2171  -26.0898 H   0  0  0  0  0  0  0  0  0  0  0  0
   -7.7996   -1.2206  -27.3250 H   0  0  0  0  0  0  0  0  0  0  0  0
  -10.2187   -0.2082  -23.9069 H   0  0  0  0  0  0  0  0  0  0  0  0
  -10.4561   -1.8689  -22.1514 H   0  0  0  0  0  0  0  0  0  0  0  0
  -10.1442   -4.1445  -22.4203 H   0  0  0  0  0  0  0  0  0  0  0  0
   -9.3960   -3.8016  -20.8556 H   0  0  0  0  0  0  0  0  0  0  0  0
   -7.9752   -5.5155  -20.7140 H   0  0  0  0  0  0  0  0  0  0  0  0
   -7.1622   -6.1510  -22.1462 H   0  0  0  0  0  0  0  0  0  0  0  0
   -6.3830   -4.8666  -21.1858 H   0  0  0  0  0  0  0  0  0  0  0  0
  1  2  1  0
  2  3  1  0
  3  4  1  0
  4  5  1  0
  5  6  2  0
  5  7  1  0
  7  8  1  0
  8  9  2  0
  9 10  1  0
 10 11  2  0
 11 12  1  0
 12 13  2  0
 13 14  1  0
 14 15  2  0
 15 16  1  0
 16 17  2  0
 16 18  1  0
 15 19  1  0
 14 20  1  0
 13 21  1  0
 11 22  1  0
  9 23  1  0
  7 24  1  0
  4 25  1  0
 25 26  2  0
 26 27  1  0
 27 28  1  0
 27 29  2  0
 29 30  1  0
 30 31  2  0
 31 32  1  0
 32 33  2  0
 30 34  1  0
 29 35  1  0
 26 36  1  0
  4 37  1  6
  3 38  1  0
  3 39  1  0
  1 40  1  0
  1 41  1  0
  1 42  1  0
 32  2  1  0
 17  8  1  0
 31 25  1  0
 17 12  1  0
M  END
>  <cnnaffinities>  (56) 
[5.04196]

>  <score>  (56) 
5.04196

>  <index>  (56) 
58

>  <Smiles>  (56) 
C(N1C([C@@](C(=O)N(c2c(nc(c3c(c(c(c(c23)[H])[H])[H])[H])[H])[H])[H])(c2c(c(Cl)c(c(c2C1=O)[H])[H])[H])[H])([H])[H])([H])([H])[H]

>  <h>  (56) 
<NA>

>  <Training>  (56) 
True

>  <Success>  (56) 
True

>  <enamine_searched>  (56) 
False

>  <enamine_id>  (56) 
nan

$$$$

     RDKit          3D

 60 65  0  0  0  0  0  0  0  0999 V2000
   -7.3575    3.4198  -21.8906 C   0  0  0  0  0  0  0  0  0  0  0  0
   -8.2578    2.9574  -22.9333 N   0  0  0  0  0  0  0  0  0  0  0  0
   -7.7043    2.2260  -23.9445 C   0  0  0  0  0  0  0  0  0  0  0  0
   -6.5002    2.0477  -24.0495 O   0  0  0  0  0  0  0  0  0  0  0  0
   -8.6856    1.6266  -24.9492 C   0  0  0  0  0  0  0  0  0  0  0  0
   -9.3683    0.4902  -24.3644 N   0  0  0  0  0  0  0  0  0  0  0  0
   -8.6326   -0.7495  -24.1892 C   0  0  0  0  0  0  0  0  0  0  0  0
   -9.0263   -1.4814  -22.8870 C   0  0  2  0  0  0  0  0  0  0  0  0
   -8.5025   -0.7142  -21.6512 C   0  0  0  0  0  0  0  0  0  0  0  0
   -8.9330    0.3164  -21.1706 O   0  0  0  0  0  0  0  0  0  0  0  0
   -7.4138   -1.3900  -21.1586 N   0  0  0  0  0  0  0  0  0  0  0  0
   -6.6230   -0.8032  -20.1436 C   0  0  0  0  0  0  0  0  0  0  0  0
   -6.9270   -1.0559  -18.8327 C   0  0  0  0  0  0  0  0  0  0  0  0
   -6.2227   -0.5785  -17.7805 N   0  0  0  0  0  0  0  0  0  0  0  0
   -5.1998    0.1994  -18.0474 C   0  0  0  0  0  0  0  0  0  0  0  0
   -4.7935    0.5642  -19.3662 C   0  0  0  0  0  0  0  0  0  0  0  0
   -3.6878    1.4205  -19.6155 C   0  0  0  0  0  0  0  0  0  0  0  0
   -3.4220    1.8684  -20.8808 C   0  0  0  0  0  0  0  0  0  0  0  0
   -4.2188    1.4507  -21.9714 C   0  0  0  0  0  0  0  0  0  0  0  0
   -5.2205    0.5279  -21.7743 C   0  0  0  0  0  0  0  0  0  0  0  0
   -5.5481    0.0800  -20.4609 C   0  0  0  0  0  0  0  0  0  0  0  0
   -5.7846    0.1575  -22.6277 H   0  0  0  0  0  0  0  0  0  0  0  0
   -4.0699    1.8886  -22.9534 H   0  0  0  0  0  0  0  0  0  0  0  0
   -2.5863    2.5435  -21.0522 H   0  0  0  0  0  0  0  0  0  0  0  0
   -3.0873    1.7374  -18.7675 H   0  0  0  0  0  0  0  0  0  0  0  0
   -4.6231    0.5637  -17.1967 H   0  0  0  0  0  0  0  0  0  0  0  0
   -7.7853   -1.6833  -18.6026 H   0  0  0  0  0  0  0  0  0  0  0  0
   -7.0489   -2.5786  -21.8945 C   0  0  0  0  0  0  0  0  0  0  0  0
   -8.2791   -2.8508  -22.7799 C   0  0  2  0  0  0  0  0  0  0  0  0
   -7.8579   -3.5606  -24.0832 C   0  0  0  0  0  0  0  0  0  0  0  0
   -7.1385   -4.8341  -23.7737 C   0  0  0  0  0  0  0  0  0  0  0  0
   -5.8233   -4.9987  -23.8386 N   0  0  0  0  0  0  0  0  0  0  0  0
   -5.6159   -6.2522  -23.4408 N   0  0  0  0  0  0  0  0  0  0  0  0
   -6.7612   -6.8093  -23.1506 N   0  0  0  0  0  2  0  0  0  0  0  0
   -7.7449   -5.9352  -23.3455 N   0  0  0  0  0  0  0  0  0  0  0  0
   -7.1572   -2.9384  -24.6431 H   0  0  0  0  0  0  0  0  0  0  0  0
   -8.7154   -3.7978  -24.7220 H   0  0  0  0  0  0  0  0  0  0  0  0
   -8.9338   -3.5573  -22.2627 H   0  0  0  0  0  0  0  0  0  0  0  0
   -6.8362   -3.4177  -21.2259 H   0  0  0  0  0  0  0  0  0  0  0  0
   -6.1377   -2.4180  -22.4945 H   0  0  0  0  0  0  0  0  0  0  0  0
  -10.5390   -1.5358  -22.8298 C   0  0  0  0  0  0  0  0  0  0  0  0
  -11.1798   -2.4337  -21.9757 C   0  0  0  0  0  0  0  0  0  0  0  0
  -12.5599   -2.4436  -21.8899 C   0  0  0  0  0  0  0  0  0  0  0  0
  -13.3233   -3.5582  -20.8025 Cl  0  0  0  0  0  0  0  0  0  0  0  0
  -13.3580   -1.5756  -22.6331 C   0  0  0  0  0  0  0  0  0  0  0  0
  -12.7268   -0.6579  -23.4429 C   0  0  0  0  0  0  0  0  0  0  0  0
  -11.3376   -0.6116  -23.5158 C   0  0  0  0  0  0  0  0  0  0  0  0
  -10.7327    0.5063  -24.3014 C   0  0  0  0  0  0  0  0  0  0  0  0
  -11.4065    1.3872  -24.8181 O   0  0  0  0  0  0  0  0  0  0  0  0
  -13.2850    0.0640  -24.0238 H   0  0  0  0  0  0  0  0  0  0  0  0
  -14.4401   -1.6086  -22.5516 H   0  0  0  0  0  0  0  0  0  0  0  0
  -10.6135   -3.1234  -21.3605 H   0  0  0  0  0  0  0  0  0  0  0  0
   -7.5614   -0.5259  -24.1934 H   0  0  0  0  0  0  0  0  0  0  0  0
   -8.8416   -1.4302  -25.0252 H   0  0  0  0  0  0  0  0  0  0  0  0
   -8.1197    1.3124  -25.8319 H   0  0  0  0  0  0  0  0  0  0  0  0
   -9.4529    2.3451  -25.2560 H   0  0  0  0  0  0  0  0  0  0  0  0
   -9.2116    2.7550  -22.6545 H   0  0  0  0  0  0  0  0  0  0  0  0
   -6.7971    2.5730  -21.4705 H   0  0  0  0  0  0  0  0  0  0  0  0
   -6.6451    4.1395  -22.3030 H   0  0  0  0  0  0  0  0  0  0  0  0
   -7.9207    3.9202  -21.1022 H   0  0  0  0  0  0  0  0  0  0  0  0
  1  2  1  0
  2  3  1  0
  3  4  2  0
  3  5  1  0
  5  6  1  0
  6  7  1  0
  8  7  1  6
  8  9  1  0
  9 10  2  0
  9 11  1  0
 11 12  1  0
 12 13  2  0
 13 14  1  0
 14 15  2  0
 15 16  1  0
 16 17  2  0
 17 18  1  0
 18 19  2  0
 19 20  1  0
 20 21  2  0
 20 22  1  0
 19 23  1  0
 18 24  1  0
 17 25  1  0
 15 26  1  0
 13 27  1  0
 11 28  1  0
 28 29  1  0
 29 30  1  0
 30 31  1  0
 31 32  1  0
 32 33  2  0
 33 34  1  0
 34 35  1  0
 30 36  1  0
 30 37  1  0
 29 38  1  1
 28 39  1  0
 28 40  1  0
  8 41  1  0
 41 42  2  0
 42 43  1  0
 43 44  1  0
 43 45  2  0
 45 46  1  0
 46 47  2  0
 47 48  1  0
 48 49  2  0
 46 50  1  0
 45 51  1  0
 42 52  1  0
  7 53  1  0
  7 54  1  0
  5 55  1  0
  5 56  1  0
  2 57  1  0
  1 58  1  0
  1 59  1  0
  1 60  1  0
 48  6  1  0
 29  8  1  0
 35 31  2  0
 47 41  1  0
 21 12  1  0
 21 16  1  0
M  CHG  1  34  -1
M  END
>  <cnnaffinities>  (57) 
[6.08735, 6.07881]

>  <score>  (57) 
6.08735

>  <index>  (57) 
59

>  <Smiles>  (57) 
C(N(C(=O)C(N1C([C@@]2(C(=O)N(c3c(nc(c4c(c(c(c(c34)[H])[H])[H])[H])[H])[H])C([C@@]2(C(c2nn[n-]n2)([H])[H])[H])([H])[H])c2c(c(Cl)c(c(c2C1=O)[H])[H])[H])([H])[H])([H])[H])[H])([H])([H])[H]

>  <h>  (57) 
<NA>

>  <Training>  (57) 
True

>  <Success>  (57) 
True

>  <enamine_searched>  (57) 
False

>  <enamine_id>  (57) 
nan

$$$$

     RDKit          3D

 62 67  0  0  0  0  0  0  0  0999 V2000
  -11.3179    4.3030  -25.2277 C   0  0  0  0  0  0  0  0  0  0  0  0
   -9.8241    4.1697  -25.5257 C   0  0  0  0  0  0  0  0  0  0  0  0
   -9.0680    3.5851  -24.4239 N   0  0  0  0  0  0  0  0  0  0  0  0
   -8.4836    4.4133  -23.5419 N   0  0  0  0  0  0  0  0  0  0  0  0
   -7.9005    3.6227  -22.6519 C   0  0  0  0  0  0  0  0  0  0  0  0
   -8.1128    2.2643  -22.9688 C   0  0  0  0  0  0  0  0  0  0  0  0
   -8.8883    2.2709  -24.1038 C   0  0  0  0  0  0  0  0  0  0  0  0
   -9.3941    1.0982  -24.9053 C   0  0  0  0  0  0  0  0  0  0  0  0
   -9.8578   -0.0001  -24.0802 N   0  0  0  0  0  0  0  0  0  0  0  0
   -9.0381   -1.1936  -23.9753 C   0  0  0  0  0  0  0  0  0  0  0  0
   -9.2205   -1.9100  -22.6127 C   0  0  2  0  0  0  0  0  0  0  0  0
   -8.6578   -1.0265  -21.4631 C   0  0  0  0  0  0  0  0  0  0  0  0
   -9.2195   -0.1075  -20.9036 O   0  0  0  0  0  0  0  0  0  0  0  0
   -7.3762   -1.4427  -21.1841 N   0  0  0  0  0  0  0  0  0  0  0  0
   -6.6079   -0.8321  -20.1566 C   0  0  0  0  0  0  0  0  0  0  0  0
   -6.9112   -1.0610  -18.8372 C   0  0  0  0  0  0  0  0  0  0  0  0
   -6.2048   -0.5615  -17.7946 N   0  0  0  0  0  0  0  0  0  0  0  0
   -5.1702    0.1950  -18.0676 C   0  0  0  0  0  0  0  0  0  0  0  0
   -4.7621    0.5454  -19.3853 C   0  0  0  0  0  0  0  0  0  0  0  0
   -3.6578    1.4096  -19.6248 C   0  0  0  0  0  0  0  0  0  0  0  0
   -3.3439    1.7882  -20.8997 C   0  0  0  0  0  0  0  0  0  0  0  0
   -4.1331    1.3506  -21.9870 C   0  0  0  0  0  0  0  0  0  0  0  0
   -5.1535    0.4496  -21.7829 C   0  0  0  0  0  0  0  0  0  0  0  0
   -5.5163    0.0443  -20.4690 C   0  0  0  0  0  0  0  0  0  0  0  0
   -5.6410   -0.0055  -22.6391 H   0  0  0  0  0  0  0  0  0  0  0  0
   -3.8669    1.6387  -22.9994 H   0  0  0  0  0  0  0  0  0  0  0  0
   -2.4531    2.3830  -21.0939 H   0  0  0  0  0  0  0  0  0  0  0  0
   -3.0632    1.7325  -18.7723 H   0  0  0  0  0  0  0  0  0  0  0  0
   -4.6196    0.6085  -17.2234 H   0  0  0  0  0  0  0  0  0  0  0  0
   -7.7655   -1.6790  -18.5725 H   0  0  0  0  0  0  0  0  0  0  0  0
   -6.9632   -2.6157  -21.9349 C   0  0  0  0  0  0  0  0  0  0  0  0
   -8.2920   -3.1595  -22.5093 C   0  0  2  0  0  0  0  0  0  0  0  0
   -8.0982   -3.9869  -23.7830 C   0  0  0  0  0  0  0  0  0  0  0  0
   -7.5584   -3.4105  -24.5452 H   0  0  0  0  0  0  0  0  0  0  0  0
   -7.5082   -4.8875  -23.5799 H   0  0  0  0  0  0  0  0  0  0  0  0
   -9.0537   -4.3011  -24.2190 H   0  0  0  0  0  0  0  0  0  0  0  0
   -8.7330   -3.7919  -21.7323 H   0  0  0  0  0  0  0  0  0  0  0  0
   -6.4574   -3.3276  -21.2731 H   0  0  0  0  0  0  0  0  0  0  0  0
   -6.2601   -2.3554  -22.7426 H   0  0  0  0  0  0  0  0  0  0  0  0
  -10.7098   -2.1408  -22.4258 C   0  0  0  0  0  0  0  0  0  0  0  0
  -11.2175   -3.2320  -21.7107 C   0  0  0  0  0  0  0  0  0  0  0  0
  -12.5744   -3.3214  -21.4783 C   0  0  0  0  0  0  0  0  0  0  0  0
  -13.0445   -4.3501  -20.7525 F   0  0  0  0  0  0  0  0  0  0  0  0
  -13.4754   -2.3693  -21.9353 C   0  0  0  0  0  0  0  0  0  0  0  0
  -12.9827   -1.2854  -22.6334 C   0  0  0  0  0  0  0  0  0  0  0  0
  -11.6158   -1.1680  -22.8816 C   0  0  0  0  0  0  0  0  0  0  0  0
  -11.1471    0.0373  -23.6431 C   0  0  0  0  0  0  0  0  0  0  0  0
  -11.8876    0.9852  -23.8731 O   0  0  0  0  0  0  0  0  0  0  0  0
  -13.6268   -0.4943  -23.0040 H   0  0  0  0  0  0  0  0  0  0  0  0
  -14.5292   -2.4918  -21.7210 H   0  0  0  0  0  0  0  0  0  0  0  0
  -10.5873   -3.9930  -21.2659 H   0  0  0  0  0  0  0  0  0  0  0  0
   -9.2956   -1.9119  -24.7719 H   0  0  0  0  0  0  0  0  0  0  0  0
   -7.9917   -0.8907  -24.0867 H   0  0  0  0  0  0  0  0  0  0  0  0
  -10.2135    1.4044  -25.5638 H   0  0  0  0  0  0  0  0  0  0  0  0
   -8.5838    0.6942  -25.5220 H   0  0  0  0  0  0  0  0  0  0  0  0
   -7.7868    1.3719  -22.4535 H   0  0  0  0  0  0  0  0  0  0  0  0
   -7.3675    4.0798  -21.8214 H   0  0  0  0  0  0  0  0  0  0  0  0
   -9.3639    5.1499  -25.6975 H   0  0  0  0  0  0  0  0  0  0  0  0
   -9.6502    3.5491  -26.4147 H   0  0  0  0  0  0  0  0  0  0  0  0
  -11.7715    3.3228  -25.0384 H   0  0  0  0  0  0  0  0  0  0  0  0
  -11.4876    4.9451  -24.3568 H   0  0  0  0  0  0  0  0  0  0  0  0
  -11.8165    4.7584  -26.0880 H   0  0  0  0  0  0  0  0  0  0  0  0
  1  2  1  0
  2  3  1  0
  3  4  1  0
  4  5  2  0
  5  6  1  0
  6  7  2  0
  7  8  1  0
  8  9  1  0
  9 10  1  0
 11 10  1  6
 11 12  1  0
 12 13  2  0
 12 14  1  0
 14 15  1  0
 15 16  2  0
 16 17  1  0
 17 18  2  0
 18 19  1  0
 19 20  2  0
 20 21  1  0
 21 22  2  0
 22 23  1  0
 23 24  2  0
 23 25  1  0
 22 26  1  0
 21 27  1  0
 20 28  1  0
 18 29  1  0
 16 30  1  0
 14 31  1  0
 31 32  1  0
 32 33  1  0
 33 34  1  0
 33 35  1  0
 33 36  1  0
 32 37  1  1
 31 38  1  0
 31 39  1  0
 11 40  1  0
 40 41  2  0
 41 42  1  0
 42 43  1  0
 42 44  2  0
 44 45  1  0
 45 46  2  0
 46 47  1  0
 47 48  2  0
 45 49  1  0
 44 50  1  0
 41 51  1  0
 10 52  1  0
 10 53  1  0
  8 54  1  0
  8 55  1  0
  6 56  1  0
  5 57  1  0
  2 58  1  0
  2 59  1  0
  1 60  1  0
  1 61  1  0
  1 62  1  0
  7  3  1  0
 47  9  1  0
 32 11  1  0
 46 40  1  0
 24 15  1  0
 24 19  1  0
M  END
>  <cnnaffinities>  (58) 
[6.45409, 6.01529, 6.05103, 5.97107]

>  <score>  (58) 
6.45409

>  <index>  (58) 
60

>  <Smiles>  (58) 
C(C(n1nc(c(c1C(N1C([C@@]2(C(=O)N(c3c(nc(c4c(c(c(c(c34)[H])[H])[H])[H])[H])[H])C([C@@]2(C([H])([H])[H])[H])([H])[H])c2c(c(F)c(c(c2C1=O)[H])[H])[H])([H])[H])([H])[H])[H])[H])([H])[H])([H])([H])[H]

>  <h>  (58) 
<NA>

>  <Training>  (58) 
True

>  <Success>  (58) 
True

>  <enamine_searched>  (58) 
False

>  <enamine_id>  (58) 
nan

$$$$

     RDKit          3D

 44 47  0  0  0  0  0  0  0  0999 V2000
   -8.4458    0.7717  -21.5310 O   0  0  0  0  0  0  0  0  0  0  0  0
   -8.5482   -0.4272  -21.7535 C   0  0  0  0  0  0  0  0  0  0  0  0
   -7.4850   -1.4074  -21.2545 C   0  0  0  0  0  0  0  0  0  0  0  0
   -6.6375   -0.8042  -20.1675 C   0  0  0  0  0  0  0  0  0  0  0  0
   -6.9134   -1.0645  -18.8492 C   0  0  0  0  0  0  0  0  0  0  0  0
   -6.2125   -0.5896  -17.7842 N   0  0  0  0  0  0  0  0  0  0  0  0
   -5.2079    0.2110  -18.0495 C   0  0  0  0  0  0  0  0  0  0  0  0
   -4.8178    0.5871  -19.3653 C   0  0  0  0  0  0  0  0  0  0  0  0
   -3.6882    1.4115  -19.6062 C   0  0  0  0  0  0  0  0  0  0  0  0
   -3.3979    1.8469  -20.8706 C   0  0  0  0  0  0  0  0  0  0  0  0
   -4.2032    1.4341  -21.9607 C   0  0  0  0  0  0  0  0  0  0  0  0
   -5.2092    0.5160  -21.7710 C   0  0  0  0  0  0  0  0  0  0  0  0
   -5.5593    0.0837  -20.4607 C   0  0  0  0  0  0  0  0  0  0  0  0
   -5.7702    0.1429  -22.6235 H   0  0  0  0  0  0  0  0  0  0  0  0
   -4.0167    1.8453  -22.9535 H   0  0  0  0  0  0  0  0  0  0  0  0
   -2.5572    2.5171  -21.0466 H   0  0  0  0  0  0  0  0  0  0  0  0
   -3.0876    1.7143  -18.7509 H   0  0  0  0  0  0  0  0  0  0  0  0
   -4.6283    0.5906  -17.2031 H   0  0  0  0  0  0  0  0  0  0  0  0
   -7.7521   -1.7078  -18.5804 H   0  0  0  0  0  0  0  0  0  0  0  0
   -6.8753   -1.7392  -22.1082 H   0  0  0  0  0  0  0  0  0  0  0  0
   -8.0017   -2.2969  -20.8733 H   0  0  0  0  0  0  0  0  0  0  0  0
   -9.6198   -0.9494  -22.4222 N   0  0  0  0  0  0  0  0  0  0  0  0
   -9.7675   -2.3380  -22.8667 C   0  0  0  0  0  0  0  0  0  0  0  0
  -10.8144   -2.4380  -23.9849 C   0  0  0  0  0  0  0  0  0  0  0  0
  -12.2072   -1.9484  -23.5754 C   0  0  0  0  0  0  0  0  0  0  0  0
  -13.1601   -3.0577  -23.0509 C   0  0  0  0  0  0  0  0  0  0  0  0
  -14.1416   -2.8162  -24.2200 C   0  0  0  0  0  0  0  0  0  0  0  0
  -13.2064   -1.6978  -24.7403 C   0  0  0  0  0  0  0  0  0  0  0  0
  -13.6405   -0.6935  -24.7295 H   0  0  0  0  0  0  0  0  0  0  0  0
  -12.7943   -1.8716  -25.7363 H   0  0  0  0  0  0  0  0  0  0  0  0
  -14.2742   -3.6640  -24.9002 H   0  0  0  0  0  0  0  0  0  0  0  0
  -15.1407   -2.4863  -23.9192 H   0  0  0  0  0  0  0  0  0  0  0  0
  -12.7025   -4.0506  -23.0124 H   0  0  0  0  0  0  0  0  0  0  0  0
  -13.5736   -2.8308  -22.0645 H   0  0  0  0  0  0  0  0  0  0  0  0
  -12.0356   -0.7870  -22.5920 C   0  0  0  0  0  0  0  0  0  0  0  0
  -10.7167   -0.0401  -22.7209 C   0  0  0  0  0  0  0  0  0  0  0  0
  -10.6445    0.7839  -22.0099 H   0  0  0  0  0  0  0  0  0  0  0  0
  -10.5731    0.3874  -23.7188 H   0  0  0  0  0  0  0  0  0  0  0  0
  -12.8886   -0.1008  -22.6148 H   0  0  0  0  0  0  0  0  0  0  0  0
  -12.0130   -1.2328  -21.6005 H   0  0  0  0  0  0  0  0  0  0  0  0
  -10.8609   -3.4650  -24.3653 H   0  0  0  0  0  0  0  0  0  0  0  0
  -10.4663   -1.8129  -24.8134 H   0  0  0  0  0  0  0  0  0  0  0  0
   -8.8039   -2.6909  -23.2500 H   0  0  0  0  0  0  0  0  0  0  0  0
  -10.0397   -2.9903  -22.0236 H   0  0  0  0  0  0  0  0  0  0  0  0
  1  2  2  0
  2  3  1  0
  3  4  1  0
  4  5  2  0
  5  6  1  0
  6  7  2  0
  7  8  1  0
  8  9  2  0
  9 10  1  0
 10 11  2  0
 11 12  1  0
 12 13  2  0
 12 14  1  0
 11 15  1  0
 10 16  1  0
  9 17  1  0
  7 18  1  0
  5 19  1  0
  3 20  1  0
  3 21  1  0
  2 22  1  0
 22 23  1  0
 23 24  1  0
 24 25  1  0
 25 26  1  0
 26 27  1  0
 27 28  1  0
 28 29  1  0
 28 30  1  0
 27 31  1  0
 27 32  1  0
 26 33  1  0
 26 34  1  0
 25 35  1  0
 35 36  1  0
 36 37  1  0
 36 38  1  0
 35 39  1  0
 35 40  1  0
 24 41  1  0
 24 42  1  0
 23 43  1  0
 23 44  1  0
 13  4  1  0
 36 22  1  0
 13  8  1  0
 28 25  1  0
M  END
>  <cnnaffinities>  (59) 
[4.91697, 4.91701, 4.91952, 5.01359, 4.84674, 4.84628, 4.84603, 4.92449, 4.92464, 4.92452, 4.92456]

>  <score>  (59) 
4.91697

>  <index>  (59) 
61

>  <Smiles>  (59) 
O=C(C(c1c(nc(c2c(c(c(c(c12)[H])[H])[H])[H])[H])[H])([H])[H])N1C(C(C2(C(C(C2([H])[H])([H])[H])([H])[H])C(C1([H])[H])([H])[H])([H])[H])([H])[H]

>  <h>  (59) 
<NA>

>  <Training>  (59) 
True

>  <Success>  (59) 
True

>  <enamine_searched>  (59) 
False

>  <enamine_id>  (59) 
nan

$$$$

     RDKit          3D

 44 47  0  0  0  0  0  0  0  0999 V2000
   -8.5037    0.7562  -21.4506 O   0  0  0  0  0  0  0  0  0  0  0  0
   -8.5221   -0.4164  -21.7904 C   0  0  0  0  0  0  0  0  0  0  0  0
   -7.4771   -1.4019  -21.2648 C   0  0  0  0  0  0  0  0  0  0  0  0
   -6.6374   -0.8016  -20.1742 C   0  0  0  0  0  0  0  0  0  0  0  0
   -6.9196   -1.0629  -18.8582 C   0  0  0  0  0  0  0  0  0  0  0  0
   -6.2207   -0.5905  -17.7912 N   0  0  0  0  0  0  0  0  0  0  0  0
   -5.2142    0.2083  -18.0532 C   0  0  0  0  0  0  0  0  0  0  0  0
   -4.8206    0.5880  -19.3681 C   0  0  0  0  0  0  0  0  0  0  0  0
   -3.6943    1.4153  -19.6072 C   0  0  0  0  0  0  0  0  0  0  0  0
   -3.4066    1.8576  -20.8714 C   0  0  0  0  0  0  0  0  0  0  0  0
   -4.2106    1.4438  -21.9627 C   0  0  0  0  0  0  0  0  0  0  0  0
   -5.2153    0.5255  -21.7747 C   0  0  0  0  0  0  0  0  0  0  0  0
   -5.5630    0.0901  -20.4652 C   0  0  0  0  0  0  0  0  0  0  0  0
   -5.7703    0.1428  -22.6286 H   0  0  0  0  0  0  0  0  0  0  0  0
   -4.0274    1.8615  -22.9516 H   0  0  0  0  0  0  0  0  0  0  0  0
   -2.5680    2.5273  -21.0456 H   0  0  0  0  0  0  0  0  0  0  0  0
   -3.0906    1.7149  -18.7536 H   0  0  0  0  0  0  0  0  0  0  0  0
   -4.6359    0.5829  -17.2051 H   0  0  0  0  0  0  0  0  0  0  0  0
   -7.7601   -1.7071  -18.5988 H   0  0  0  0  0  0  0  0  0  0  0  0
   -8.0196   -2.2726  -20.8770 H   0  0  0  0  0  0  0  0  0  0  0  0
   -6.8551   -1.7594  -22.0976 H   0  0  0  0  0  0  0  0  0  0  0  0
   -9.4840   -0.9243  -22.6179 N   0  0  0  0  0  0  0  0  0  0  0  0
   -9.4672   -2.2697  -23.1965 C   0  0  0  0  0  0  0  0  0  0  0  0
  -10.5103   -2.3907  -24.3055 C   0  0  0  0  0  0  0  0  0  0  0  0
  -11.9219   -2.0422  -23.8083 C   0  0  0  0  0  0  0  0  0  0  0  0
  -12.9254   -1.9619  -24.9481 C   0  0  0  0  0  0  0  0  0  0  0  0
  -14.3846   -2.2114  -24.6893 C   0  0  0  0  0  0  0  0  0  0  0  0
  -13.5742   -3.2052  -25.4736 C   0  0  0  0  0  0  0  0  0  0  0  0
  -13.3113   -4.1525  -25.0117 H   0  0  0  0  0  0  0  0  0  0  0  0
  -13.7782   -3.2620  -26.5356 H   0  0  0  0  0  0  0  0  0  0  0  0
  -15.1216   -1.6364  -25.2437 H   0  0  0  0  0  0  0  0  0  0  0  0
  -14.6789   -2.4646  -23.6747 H   0  0  0  0  0  0  0  0  0  0  0  0
  -12.7075   -1.1977  -25.6912 H   0  0  0  0  0  0  0  0  0  0  0  0
  -11.9034   -0.7438  -22.9628 C   0  0  0  0  0  0  0  0  0  0  0  0
  -10.5609   -0.0243  -23.0017 C   0  0  0  0  0  0  0  0  0  0  0  0
  -10.3537    0.3964  -23.9940 H   0  0  0  0  0  0  0  0  0  0  0  0
  -10.5261    0.8067  -22.2978 H   0  0  0  0  0  0  0  0  0  0  0  0
  -12.1215   -0.9984  -21.9221 H   0  0  0  0  0  0  0  0  0  0  0  0
  -12.6928   -0.0534  -23.2825 H   0  0  0  0  0  0  0  0  0  0  0  0
  -12.2451   -2.8636  -23.1509 H   0  0  0  0  0  0  0  0  0  0  0  0
  -10.2337   -1.7120  -25.1179 H   0  0  0  0  0  0  0  0  0  0  0  0
  -10.4866   -3.4050  -24.7230 H   0  0  0  0  0  0  0  0  0  0  0  0
   -9.6670   -3.0319  -22.4298 H   0  0  0  0  0  0  0  0  0  0  0  0
   -8.4717   -2.4808  -23.6064 H   0  0  0  0  0  0  0  0  0  0  0  0
  1  2  2  0
  2  3  1  0
  3  4  1  0
  4  5  2  0
  5  6  1  0
  6  7  2  0
  7  8  1  0
  8  9  2  0
  9 10  1  0
 10 11  2  0
 11 12  1  0
 12 13  2  0
 12 14  1  0
 11 15  1  0
 10 16  1  0
  9 17  1  0
  7 18  1  0
  5 19  1  0
  3 20  1  0
  3 21  1  0
  2 22  1  0
 22 23  1  0
 23 24  1  0
 24 25  1  0
 25 26  1  0
 26 27  1  0
 27 28  1  0
 28 29  1  0
 28 30  1  0
 27 31  1  0
 27 32  1  0
 26 33  1  0
 25 34  1  0
 34 35  1  0
 35 36  1  0
 35 37  1  0
 34 38  1  0
 34 39  1  0
 25 40  1  0
 24 41  1  0
 24 42  1  0
 23 43  1  0
 23 44  1  0
 13  4  1  0
 35 22  1  0
 13  8  1  0
 28 26  1  0
M  END
>  <cnnaffinities>  (60) 
[4.64443, 4.7412, 5.0923]

>  <score>  (60) 
4.64443

>  <index>  (60) 
62

>  <Smiles>  (60) 
O=C(C(c1c(nc(c2c(c(c(c(c12)[H])[H])[H])[H])[H])[H])([H])[H])N1C(C(C(C2(C(C2([H])[H])([H])[H])[H])(C(C1([H])[H])([H])[H])[H])([H])[H])([H])[H]

>  <h>  (60) 
<NA>

>  <Training>  (60) 
True

>  <Success>  (60) 
True

>  <enamine_searched>  (60) 
False

>  <enamine_id>  (60) 
nan

$$$$

     RDKit          3D

 57 61  0  0  0  0  0  0  0  0999 V2000
   -8.1710   -5.6919  -27.6222 C   0  0  0  0  0  0  0  0  0  0  0  0
   -8.3851   -4.2633  -27.4563 N   0  0  0  0  0  0  0  0  0  0  0  0
   -7.4027   -3.4817  -26.9742 C   0  0  0  0  0  0  0  0  0  0  0  0
   -6.3259   -3.9484  -26.6069 O   0  0  0  0  0  0  0  0  0  0  0  0
   -7.7093   -1.9907  -26.8499 C   0  0  0  0  0  0  0  0  0  0  0  0
   -8.5959   -1.7261  -25.7254 N   0  0  0  0  0  0  0  0  0  0  0  0
   -8.0361   -1.2733  -24.4509 C   0  0  0  0  0  0  0  0  0  0  0  0
   -8.8838   -1.6371  -23.1919 C   0  0  2  0  0  0  0  0  0  0  0  0
   -8.4376   -0.6573  -22.0813 C   0  0  0  0  0  0  0  0  0  0  0  0
   -8.7212    0.5193  -22.0065 O   0  0  0  0  0  0  0  0  0  0  0  0
   -7.5764   -1.3183  -21.2224 N   0  0  0  0  0  0  0  0  0  0  0  0
   -6.7827   -0.7121  -20.2104 C   0  0  0  0  0  0  0  0  0  0  0  0
   -6.9646   -1.1183  -18.9102 C   0  0  0  0  0  0  0  0  0  0  0  0
   -6.2312   -0.7048  -17.8497 N   0  0  0  0  0  0  0  0  0  0  0  0
   -5.2550    0.1363  -18.0861 C   0  0  0  0  0  0  0  0  0  0  0  0
   -4.9390    0.6376  -19.3787 C   0  0  0  0  0  0  0  0  0  0  0  0
   -3.8620    1.5462  -19.5670 C   0  0  0  0  0  0  0  0  0  0  0  0
   -3.5734    2.0339  -20.8099 C   0  0  0  0  0  0  0  0  0  0  0  0
   -4.3434    1.6256  -21.9236 C   0  0  0  0  0  0  0  0  0  0  0  0
   -5.3871    0.7431  -21.7666 C   0  0  0  0  0  0  0  0  0  0  0  0
   -5.7220    0.2223  -20.4838 C   0  0  0  0  0  0  0  0  0  0  0  0
   -5.9823    0.4574  -22.6286 H   0  0  0  0  0  0  0  0  0  0  0  0
   -4.1171    2.0249  -22.9086 H   0  0  0  0  0  0  0  0  0  0  0  0
   -2.7722    2.7594  -20.9448 H   0  0  0  0  0  0  0  0  0  0  0  0
   -3.2795    1.8401  -18.6956 H   0  0  0  0  0  0  0  0  0  0  0  0
   -4.6650    0.4736  -17.2327 H   0  0  0  0  0  0  0  0  0  0  0  0
   -7.7668   -1.8158  -18.6763 H   0  0  0  0  0  0  0  0  0  0  0  0
   -7.4368   -2.7343  -21.5199 C   0  0  0  0  0  0  0  0  0  0  0  0
   -8.5503   -3.0125  -22.5307 C   0  0  2  0  0  0  0  0  0  0  0  0
   -8.2460   -4.1716  -23.4735 C   0  0  0  0  0  0  0  0  0  0  0  0
   -6.8891   -4.1299  -23.8512 O   0  0  0  0  0  0  0  0  0  0  0  0
   -6.7813   -4.2042  -24.8099 H   0  0  0  0  0  0  0  0  0  0  0  0
   -8.4330   -5.1158  -22.9473 H   0  0  0  0  0  0  0  0  0  0  0  0
   -8.9331   -4.1396  -24.3333 H   0  0  0  0  0  0  0  0  0  0  0  0
   -9.4548   -3.2814  -21.9733 H   0  0  0  0  0  0  0  0  0  0  0  0
   -6.4519   -2.9446  -21.9495 H   0  0  0  0  0  0  0  0  0  0  0  0
   -7.5480   -3.3318  -20.6086 H   0  0  0  0  0  0  0  0  0  0  0  0
  -10.3604   -1.5148  -23.5180 C   0  0  0  0  0  0  0  0  0  0  0  0
  -11.3064   -1.5263  -22.4827 C   0  0  0  0  0  0  0  0  0  0  0  0
  -12.6568   -1.4026  -22.7689 C   0  0  0  0  0  0  0  0  0  0  0  0
  -13.8698   -1.4637  -21.5285 Cl  0  0  0  0  0  0  0  0  0  0  0  0
  -13.1036   -1.2473  -24.0824 C   0  0  0  0  0  0  0  0  0  0  0  0
  -12.1823   -1.2828  -25.1090 C   0  0  0  0  0  0  0  0  0  0  0  0
  -10.8288   -1.4687  -24.8315 C   0  0  0  0  0  0  0  0  0  0  0  0
   -9.9326   -1.7761  -25.9766 C   0  0  0  0  0  0  0  0  0  0  0  0
  -10.3878   -2.1078  -27.0706 O   0  0  0  0  0  0  0  0  0  0  0  0
  -12.4842   -1.1788  -26.1498 H   0  0  0  0  0  0  0  0  0  0  0  0
  -14.1637   -1.1679  -24.3003 H   0  0  0  0  0  0  0  0  0  0  0  0
  -10.9698   -1.6362  -21.4594 H   0  0  0  0  0  0  0  0  0  0  0  0
   -7.0460   -1.7351  -24.3663 H   0  0  0  0  0  0  0  0  0  0  0  0
   -7.9388   -0.1774  -24.4675 H   0  0  0  0  0  0  0  0  0  0  0  0
   -6.7661   -1.4541  -26.7258 H   0  0  0  0  0  0  0  0  0  0  0  0
   -8.2093   -1.6438  -27.7584 H   0  0  0  0  0  0  0  0  0  0  0  0
   -9.2916   -3.8538  -27.6142 H   0  0  0  0  0  0  0  0  0  0  0  0
   -7.7619   -6.1187  -26.6990 H   0  0  0  0  0  0  0  0  0  0  0  0
   -9.1262   -6.1734  -27.8453 H   0  0  0  0  0  0  0  0  0  0  0  0
   -7.4693   -5.8958  -28.4398 H   0  0  0  0  0  0  0  0  0  0  0  0
  1  2  1  0
  2  3  1  0
  3  4  2  0
  3  5  1  0
  5  6  1  0
  6  7  1  0
  8  7  1  6
  8  9  1  0
  9 10  2  0
  9 11  1  0
 11 12  1  0
 12 13  2  0
 13 14  1  0
 14 15  2  0
 15 16  1  0
 16 17  2  0
 17 18  1  0
 18 19  2  0
 19 20  1  0
 20 21  2  0
 20 22  1  0
 19 23  1  0
 18 24  1  0
 17 25  1  0
 15 26  1  0
 13 27  1  0
 11 28  1  0
 28 29  1  0
 29 30  1  0
 30 31  1  0
 31 32  1  0
 30 33  1  0
 30 34  1  0
 29 35  1  1
 28 36  1  0
 28 37  1  0
  8 38  1  0
 38 39  2  0
 39 40  1  0
 40 41  1  0
 40 42  2  0
 42 43  1  0
 43 44  2  0
 44 45  1  0
 45 46  2  0
 43 47  1  0
 42 48  1  0
 39 49  1  0
  7 50  1  0
  7 51  1  0
  5 52  1  0
  5 53  1  0
  2 54  1  0
  1 55  1  0
  1 56  1  0
  1 57  1  0
 45  6  1  0
 29  8  1  0
 44 38  1  0
 21 12  1  0
 21 16  1  0
M  END
>  <cnnaffinities>  (61) 
[5.61506]

>  <score>  (61) 
5.61506

>  <index>  (61) 
63

>  <Smiles>  (61) 
C(N(C(=O)C(N1C([C@@]2(C(=O)N(c3c(nc(c4c(c(c(c(c34)[H])[H])[H])[H])[H])[H])C([C@@]2(C(O[H])([H])[H])[H])([H])[H])c2c(c(Cl)c(c(c2C1=O)[H])[H])[H])([H])[H])([H])[H])[H])([H])([H])[H]

>  <h>  (61) 
<NA>

>  <Training>  (61) 
True

>  <Success>  (61) 
True

>  <enamine_searched>  (61) 
False

>  <enamine_id>  (61) 
nan

$$$$

     RDKit          3D

 55 60  0  0  0  0  0  0  0  0999 V2000
   -8.3169   -4.1555  -23.4698 C   0  0  0  0  0  0  0  0  0  0  0  0
   -8.5389   -2.9952  -22.5140 C   0  0  1  0  0  0  0  0  0  0  0  0
   -7.4030   -2.8079  -21.4989 C   0  0  0  0  0  0  0  0  0  0  0  0
   -7.4477   -1.3853  -21.2003 N   0  0  0  0  0  0  0  0  0  0  0  0
   -6.6653   -0.7875  -20.1841 C   0  0  0  0  0  0  0  0  0  0  0  0
   -6.9188   -1.0997  -18.8716 C   0  0  0  0  0  0  0  0  0  0  0  0
   -6.2300   -0.6123  -17.8127 N   0  0  0  0  0  0  0  0  0  0  0  0
   -5.2154    0.1759  -18.0747 C   0  0  0  0  0  0  0  0  0  0  0  0
   -4.8339    0.5740  -19.3874 C   0  0  0  0  0  0  0  0  0  0  0  0
   -3.7278    1.4397  -19.6007 C   0  0  0  0  0  0  0  0  0  0  0  0
   -3.4504    1.9086  -20.8526 C   0  0  0  0  0  0  0  0  0  0  0  0
   -4.2346    1.4956  -21.9531 C   0  0  0  0  0  0  0  0  0  0  0  0
   -5.2382    0.5759  -21.7908 C   0  0  0  0  0  0  0  0  0  0  0  0
   -5.5916    0.1122  -20.4880 C   0  0  0  0  0  0  0  0  0  0  0  0
   -5.7920    0.2415  -22.6622 H   0  0  0  0  0  0  0  0  0  0  0  0
   -4.0336    1.9141  -22.9335 H   0  0  0  0  0  0  0  0  0  0  0  0
   -2.6614    2.6384  -21.0021 H   0  0  0  0  0  0  0  0  0  0  0  0
   -3.1251    1.7262  -18.7409 H   0  0  0  0  0  0  0  0  0  0  0  0
   -4.6472    0.5570  -17.2253 H   0  0  0  0  0  0  0  0  0  0  0  0
   -7.7444   -1.7673  -18.6338 H   0  0  0  0  0  0  0  0  0  0  0  0
   -8.1699   -0.6466  -22.1134 C   0  0  0  0  0  0  0  0  0  0  0  0
   -8.2901    0.5609  -22.0856 O   0  0  0  0  0  0  0  0  0  0  0  0
   -8.7480   -1.5876  -23.1826 C   0  0  1  0  0  0  0  0  0  0  0  0
   -7.9398   -1.3146  -24.4809 C   0  0  0  0  0  0  0  0  0  0  0  0
   -8.5755   -1.8634  -25.6770 N   0  0  0  0  0  0  0  0  0  0  0  0
   -7.7812   -2.3508  -26.7928 C   0  0  0  0  0  0  0  0  0  0  0  0
   -7.7897   -3.8507  -26.8634 C   0  0  0  0  0  0  0  0  0  0  0  0
   -6.6850   -4.5970  -26.5879 N   0  0  0  0  0  0  0  0  0  0  0  0
   -7.0923   -5.8192  -26.8594 C   0  0  0  0  0  0  0  0  0  0  0  0
   -8.3743   -5.8119  -27.2405 N   0  0  0  0  0  0  0  0  0  0  0  0
   -8.8482   -4.5441  -27.2485 N   0  0  0  0  0  0  0  0  0  0  0  0
   -8.9450   -6.5784  -27.5710 H   0  0  0  0  0  0  0  0  0  0  0  0
   -6.4874   -6.7084  -26.8159 H   0  0  0  0  0  0  0  0  0  0  0  0
   -8.2237   -1.9447  -27.7097 H   0  0  0  0  0  0  0  0  0  0  0  0
   -6.7577   -1.9813  -26.7030 H   0  0  0  0  0  0  0  0  0  0  0  0
   -9.9171   -1.7426  -25.9214 C   0  0  0  0  0  0  0  0  0  0  0  0
  -10.3981   -1.9341  -27.0312 O   0  0  0  0  0  0  0  0  0  0  0  0
  -10.7558   -1.3910  -24.7514 C   0  0  0  0  0  0  0  0  0  0  0  0
  -12.1166   -1.2093  -24.9841 C   0  0  0  0  0  0  0  0  0  0  0  0
  -12.9717   -0.9076  -23.9475 C   0  0  0  0  0  0  0  0  0  0  0  0
  -12.4263   -0.8248  -22.6732 C   0  0  0  0  0  0  0  0  0  0  0  0
  -13.2601   -0.5831  -21.6575 F   0  0  0  0  0  0  0  0  0  0  0  0
  -11.0799   -1.0090  -22.4174 C   0  0  0  0  0  0  0  0  0  0  0  0
  -10.2100   -1.2961  -23.4698 C   0  0  0  0  0  0  0  0  0  0  0  0
  -10.6935   -0.9318  -21.4109 H   0  0  0  0  0  0  0  0  0  0  0  0
  -14.0310   -0.7450  -24.1119 H   0  0  0  0  0  0  0  0  0  0  0  0
  -12.4720   -1.3274  -26.0010 H   0  0  0  0  0  0  0  0  0  0  0  0
   -7.8399   -0.2220  -24.5894 H   0  0  0  0  0  0  0  0  0  0  0  0
   -6.9257   -1.7291  -24.3873 H   0  0  0  0  0  0  0  0  0  0  0  0
   -7.5638   -3.3965  -20.5903 H   0  0  0  0  0  0  0  0  0  0  0  0
   -6.4220   -3.0965  -21.9072 H   0  0  0  0  0  0  0  0  0  0  0  0
   -9.4544   -3.1823  -21.9317 H   0  0  0  0  0  0  0  0  0  0  0  0
   -9.1318   -4.2113  -24.1987 H   0  0  0  0  0  0  0  0  0  0  0  0
   -8.2691   -5.0984  -22.9159 H   0  0  0  0  0  0  0  0  0  0  0  0
   -7.3784   -4.0268  -24.0195 H   0  0  0  0  0  0  0  0  0  0  0  0
  1  2  1  0
  2  3  1  0
  3  4  1  0
  4  5  1  0
  5  6  2  0
  6  7  1  0
  7  8  2  0
  8  9  1  0
  9 10  2  0
 10 11  1  0
 11 12  2  0
 12 13  1  0
 13 14  2  0
 13 15  1  0
 12 16  1  0
 11 17  1  0
 10 18  1  0
  8 19  1  0
  6 20  1  0
  4 21  1  0
 21 22  2  0
 21 23  1  0
 23 24  1  6
 24 25  1  0
 25 26  1  0
 26 27  1  0
 27 28  1  0
 28 29  2  0
 29 30  1  0
 30 31  1  0
 30 32  1  0
 29 33  1  0
 26 34  1  0
 26 35  1  0
 25 36  1  0
 36 37  2  0
 36 38  1  0
 38 39  2  0
 39 40  1  0
 40 41  2  0
 41 42  1  0
 41 43  1  0
 43 44  2  0
 43 45  1  0
 40 46  1  0
 39 47  1  0
 24 48  1  0
 24 49  1  0
  3 50  1  0
  3 51  1  0
  2 52  1  1
  1 53  1  0
  1 54  1  0
  1 55  1  0
 23  2  1  0
 31 27  2  0
 44 38  1  0
 14  5  1  0
 44 23  1  0
 14  9  1  0
M  END
>  <cnnaffinities>  (62) 
[5.90125]

>  <score>  (62) 
5.90125

>  <index>  (62) 
64

>  <Smiles>  (62) 
C([C@]1(C(N(c2c(nc(c3c(c(c(c(c23)[H])[H])[H])[H])[H])[H])C(=O)[C@]21C(N(C(c1nc(n(n1)[H])[H])([H])[H])C(=O)c1c(c(c(F)c(c21)[H])[H])[H])([H])[H])([H])[H])[H])([H])([H])[H]

>  <h>  (62) 
<NA>

>  <Training>  (62) 
True

>  <Success>  (62) 
True

>  <enamine_searched>  (62) 
False

>  <enamine_id>  (62) 
nan

$$$$

     RDKit          3D

 55 60  0  0  0  0  0  0  0  0999 V2000
   -8.0393   -4.0053  -23.8247 C   0  0  0  0  0  0  0  0  0  0  0  0
   -8.3748   -3.1237  -22.6189 C   0  0  1  0  0  0  0  0  0  0  0  0
   -7.1030   -2.5259  -21.9968 C   0  0  0  0  0  0  0  0  0  0  0  0
   -7.5679   -1.3360  -21.3178 N   0  0  0  0  0  0  0  0  0  0  0  0
   -6.8313   -0.7386  -20.2544 C   0  0  0  0  0  0  0  0  0  0  0  0
   -7.0865   -1.0898  -18.9523 C   0  0  0  0  0  0  0  0  0  0  0  0
   -6.3431   -0.6928  -17.8864 N   0  0  0  0  0  0  0  0  0  0  0  0
   -5.3219    0.0933  -18.1253 C   0  0  0  0  0  0  0  0  0  0  0  0
   -4.9615    0.5701  -19.4180 C   0  0  0  0  0  0  0  0  0  0  0  0
   -3.8761    1.4627  -19.6145 C   0  0  0  0  0  0  0  0  0  0  0  0
   -3.5936    1.9463  -20.8621 C   0  0  0  0  0  0  0  0  0  0  0  0
   -4.3677    1.5417  -21.9715 C   0  0  0  0  0  0  0  0  0  0  0  0
   -5.4248    0.6792  -21.8054 C   0  0  0  0  0  0  0  0  0  0  0  0
   -5.7453    0.1616  -20.5217 C   0  0  0  0  0  0  0  0  0  0  0  0
   -6.0485    0.4044  -22.6509 H   0  0  0  0  0  0  0  0  0  0  0  0
   -4.1342    1.9319  -22.9579 H   0  0  0  0  0  0  0  0  0  0  0  0
   -2.7913    2.6658  -21.0002 H   0  0  0  0  0  0  0  0  0  0  0  0
   -3.2903    1.7581  -18.7488 H   0  0  0  0  0  0  0  0  0  0  0  0
   -4.7333    0.4105  -17.2651 H   0  0  0  0  0  0  0  0  0  0  0  0
   -7.9333   -1.7348  -18.7258 H   0  0  0  0  0  0  0  0  0  0  0  0
   -8.8415   -0.9478  -21.6824 C   0  0  0  0  0  0  0  0  0  0  0  0
   -9.4275   -0.0096  -21.1823 O   0  0  0  0  0  0  0  0  0  0  0  0
   -9.3219   -1.8845  -22.8315 C   0  0  1  0  0  0  0  0  0  0  0  0
   -9.0949   -1.1833  -24.1899 C   0  0  0  0  0  0  0  0  0  0  0  0
   -9.5928   -1.9924  -25.3052 N   0  0  0  0  0  0  0  0  0  0  0  0
   -9.1077   -1.6443  -26.6478 C   0  0  0  0  0  0  0  0  0  0  0  0
   -9.6460   -0.3296  -27.1291 C   0  0  0  0  0  0  0  0  0  0  0  0
  -10.8847   -0.0106  -27.5676 C   0  0  0  0  0  0  0  0  0  0  0  0
  -10.9571    1.3449  -27.6835 O   0  0  0  0  0  0  0  0  0  0  0  0
   -9.7335    1.7780  -27.3243 C   0  0  0  0  0  0  0  0  0  0  0  0
   -8.9067    0.8430  -26.9967 N   0  0  0  0  0  0  0  0  0  0  0  0
   -9.5801    2.8475  -27.2875 H   0  0  0  0  0  0  0  0  0  0  0  0
  -11.7577   -0.5860  -27.8355 H   0  0  0  0  0  0  0  0  0  0  0  0
   -8.0140   -1.5971  -26.6407 H   0  0  0  0  0  0  0  0  0  0  0  0
   -9.4239   -2.4554  -27.3079 H   0  0  0  0  0  0  0  0  0  0  0  0
  -10.8890   -2.4591  -25.2651 C   0  0  0  0  0  0  0  0  0  0  0  0
  -11.5009   -2.7579  -26.2825 O   0  0  0  0  0  0  0  0  0  0  0  0
  -11.5153   -2.5686  -23.9171 C   0  0  0  0  0  0  0  0  0  0  0  0
  -12.8453   -2.9929  -23.8392 C   0  0  0  0  0  0  0  0  0  0  0  0
  -13.4824   -3.0734  -22.6138 C   0  0  0  0  0  0  0  0  0  0  0  0
  -12.7653   -2.7453  -21.4754 C   0  0  0  0  0  0  0  0  0  0  0  0
  -13.3930   -2.8689  -20.2921 F   0  0  0  0  0  0  0  0  0  0  0  0
  -11.4612   -2.2910  -21.5417 C   0  0  0  0  0  0  0  0  0  0  0  0
  -10.7992   -2.2300  -22.7638 C   0  0  0  0  0  0  0  0  0  0  0  0
  -10.9435   -1.9208  -20.6733 H   0  0  0  0  0  0  0  0  0  0  0  0
  -14.5145   -3.3766  -22.4904 H   0  0  0  0  0  0  0  0  0  0  0  0
  -13.3500   -3.2530  -24.7640 H   0  0  0  0  0  0  0  0  0  0  0  0
   -8.0201   -1.0155  -24.3355 H   0  0  0  0  0  0  0  0  0  0  0  0
   -9.6220   -0.2182  -24.1640 H   0  0  0  0  0  0  0  0  0  0  0  0
   -6.6231   -3.2051  -21.2810 H   0  0  0  0  0  0  0  0  0  0  0  0
   -6.3748   -2.2690  -22.7859 H   0  0  0  0  0  0  0  0  0  0  0  0
   -8.8728   -3.7551  -21.8697 H   0  0  0  0  0  0  0  0  0  0  0  0
   -7.5252   -3.4316  -24.6038 H   0  0  0  0  0  0  0  0  0  0  0  0
   -8.9364   -4.4403  -24.2769 H   0  0  0  0  0  0  0  0  0  0  0  0
   -7.3667   -4.8172  -23.5232 H   0  0  0  0  0  0  0  0  0  0  0  0
  1  2  1  0
  2  3  1  0
  3  4  1  0
  4  5  1  0
  5  6  2  0
  6  7  1  0
  7  8  2  0
  8  9  1  0
  9 10  2  0
 10 11  1  0
 11 12  2  0
 12 13  1  0
 13 14  2  0
 13 15  1  0
 12 16  1  0
 11 17  1  0
 10 18  1  0
  8 19  1  0
  6 20  1  0
  4 21  1  0
 21 22  2  0
 21 23  1  0
 23 24  1  6
 24 25  1  0
 25 26  1  0
 26 27  1  0
 27 28  2  0
 28 29  1  0
 29 30  1  0
 30 31  2  0
 30 32  1  0
 28 33  1  0
 26 34  1  0
 26 35  1  0
 25 36  1  0
 36 37  2  0
 36 38  1  0
 38 39  2  0
 39 40  1  0
 40 41  2  0
 41 42  1  0
 41 43  1  0
 43 44  2  0
 43 45  1  0
 40 46  1  0
 39 47  1  0
 24 48  1  0
 24 49  1  0
  3 50  1  0
  3 51  1  0
  2 52  1  1
  1 53  1  0
  1 54  1  0
  1 55  1  0
 23  2  1  0
 31 27  1  0
 44 38  1  0
 14  5  1  0
 44 23  1  0
 14  9  1  0
M  END
>  <cnnaffinities>  (63) 
[5.48842]

>  <score>  (63) 
5.48842

>  <index>  (63) 
65

>  <Smiles>  (63) 
C([C@]1(C(N(c2c(nc(c3c(c(c(c(c23)[H])[H])[H])[H])[H])[H])C(=O)[C@]21C(N(C(c1c(oc(n1)[H])[H])([H])[H])C(=O)c1c(c(c(F)c(c21)[H])[H])[H])([H])[H])([H])[H])[H])([H])([H])[H]

>  <h>  (63) 
<NA>

>  <Training>  (63) 
True

>  <Success>  (63) 
True

>  <enamine_searched>  (63) 
False

>  <enamine_id>  (63) 
nan

$$$$

     RDKit          3D

 44 47  0  0  0  0  0  0  0  0999 V2000
  -10.6588   -3.5156  -21.7756 C   0  0  0  0  0  0  0  0  0  0  0  0
  -10.3556   -3.5317  -21.9769 C   0  0  0  0  0  0  0  0  0  0  0  0
   -9.9336   -2.3513  -22.6140 C   0  0  1  0  0  0  0  0  0  0  0  0
  -10.4113   -2.2694  -24.0031 C   0  0  0  0  0  0  0  0  0  0  0  0
  -10.3476   -3.3496  -24.9471 C   0  0  0  0  0  0  0  0  0  0  0  0
  -10.9583   -3.0646  -26.1143 C   0  0  0  0  0  0  0  0  0  0  0  0
  -11.5888   -1.4683  -26.1479 S   0  0  0  0  0  0  0  0  0  0  0  0
  -10.9459   -1.1579  -24.5701 C   0  0  0  0  0  0  0  0  0  0  0  0
  -10.9442    0.1994  -23.9198 C   0  0  0  0  0  0  0  0  0  0  0  0
  -10.9380    0.0153  -22.4091 C   0  0  0  0  0  0  0  0  0  0  0  0
   -9.9338   -0.9773  -21.9666 N   0  0  0  0  0  0  0  0  0  0  0  0
   -8.7860   -0.4170  -21.4242 C   0  0  0  0  0  0  0  0  0  0  0  0
   -8.7147    0.7743  -21.1631 O   0  0  0  0  0  0  0  0  0  0  0  0
   -7.5593   -1.3054  -21.1496 C   0  0  0  0  0  0  0  0  0  0  0  0
   -6.6732   -0.7227  -20.0836 C   0  0  0  0  0  0  0  0  0  0  0  0
   -6.8707   -1.0508  -18.7679 C   0  0  0  0  0  0  0  0  0  0  0  0
   -6.1383   -0.5923  -17.7199 N   0  0  0  0  0  0  0  0  0  0  0  0
   -5.1606    0.2347  -18.0006 C   0  0  0  0  0  0  0  0  0  0  0  0
   -4.8446    0.6772  -19.3148 C   0  0  0  0  0  0  0  0  0  0  0  0
   -3.7756    1.5727  -19.5691 C   0  0  0  0  0  0  0  0  0  0  0  0
   -3.5292    2.0165  -20.8392 C   0  0  0  0  0  0  0  0  0  0  0  0
   -4.3532    1.5995  -21.9088 C   0  0  0  0  0  0  0  0  0  0  0  0
   -5.3917    0.7284  -21.6885 C   0  0  0  0  0  0  0  0  0  0  0  0
   -5.6460    0.2205  -20.3866 C   0  0  0  0  0  0  0  0  0  0  0  0
   -6.0422    0.4450  -22.5107 H   0  0  0  0  0  0  0  0  0  0  0  0
   -4.1597    1.9674  -22.9126 H   0  0  0  0  0  0  0  0  0  0  0  0
   -2.7099    2.7022  -21.0309 H   0  0  0  0  0  0  0  0  0  0  0  0
   -3.1760    1.9086  -18.7270 H   0  0  0  0  0  0  0  0  0  0  0  0
   -4.5645    0.6001  -17.1634 H   0  0  0  0  0  0  0  0  0  0  0  0
   -7.6651   -1.7344  -18.4780 H   0  0  0  0  0  0  0  0  0  0  0  0
   -7.0066   -1.4119  -22.0944 H   0  0  0  0  0  0  0  0  0  0  0  0
   -7.8732   -2.3093  -20.8374 H   0  0  0  0  0  0  0  0  0  0  0  0
  -10.6860    0.9628  -21.9311 H   0  0  0  0  0  0  0  0  0  0  0  0
  -11.9464   -0.2811  -22.0868 H   0  0  0  0  0  0  0  0  0  0  0  0
  -10.0564    0.7754  -24.2333 H   0  0  0  0  0  0  0  0  0  0  0  0
  -11.8207    0.7868  -24.2231 H   0  0  0  0  0  0  0  0  0  0  0  0
  -11.0849   -3.7712  -26.9106 H   0  0  0  0  0  0  0  0  0  0  0  0
   -9.8743   -4.3054  -24.7577 H   0  0  0  0  0  0  0  0  0  0  0  0
   -8.8417   -2.4839  -22.7906 H   0  0  0  0  0  0  0  0  0  0  0  0
  -11.8642   -2.7336  -21.2866 H   0  0  0  0  0  0  0  0  0  0  0  0
   -9.6916   -3.5681  -20.9201 H   0  0  0  0  0  0  0  0  0  0  0  0
  -11.6376   -4.2264  -20.8902 H   0  0  0  0  0  0  0  0  0  0  0  0
  -11.0093   -4.1919  -22.7979 H   0  0  0  0  0  0  0  0  0  0  0  0
   -9.3412   -4.1899  -22.6139 H   0  0  0  0  0  0  0  0  0  0  0  0
  1  2  1  0
  2  3  1  0
  3  4  1  0
  4  5  1  0
  5  6  2  0
  6  7  1  0
  7  8  1  0
  8  9  1  0
  9 10  1  0
 10 11  1  0
 11 12  1  0
 12 13  2  0
 12 14  1  0
 14 15  1  0
 15 16  2  0
 16 17  1  0
 17 18  2  0
 18 19  1  0
 19 20  2  0
 20 21  1  0
 21 22  2  0
 22 23  1  0
 23 24  2  0
 23 25  1  0
 22 26  1  0
 21 27  1  0
 20 28  1  0
 18 29  1  0
 16 30  1  0
 14 31  1  0
 14 32  1  0
 10 33  1  0
 10 34  1  0
  9 35  1  0
  9 36  1  0
  6 37  1  0
  5 38  1  0
  3 39  1  6
  2 40  1  0
  2 41  1  0
  1 42  1  0
  1 43  1  0
  1 44  1  0
 11  3  1  0
 24 15  1  0
  8  4  2  0
 24 19  1  0
M  END
>  <cnnaffinities>  (64) 
[5.29367]

>  <score>  (64) 
5.29367

>  <index>  (64) 
66

>  <Smiles>  (64) 
C(C([C@]1(c2c(c(sc2C(C(N1C(=O)C(c1c(nc(c2c(c(c(c(c12)[H])[H])[H])[H])[H])[H])([H])[H])([H])[H])([H])[H])[H])[H])[H])([H])[H])([H])([H])[H]

>  <h>  (64) 
<NA>

>  <Training>  (64) 
True

>  <Success>  (64) 
True

>  <enamine_searched>  (64) 
False

>  <enamine_id>  (64) 
nan

$$$$

     RDKit          3D

 58 63  0  0  0  0  0  0  0  0999 V2000
   -8.2762   -7.2394  -27.5037 C   0  0  0  0  0  0  0  0  0  0  0  0
   -7.7939   -5.8487  -27.2189 C   0  0  0  0  0  0  0  0  0  0  0  0
   -8.5166   -4.6276  -27.3597 C   0  0  0  0  0  0  0  0  0  0  0  0
   -7.6273   -3.6805  -26.9551 C   0  0  0  0  0  0  0  0  0  0  0  0
   -7.6983   -2.1913  -26.8119 C   0  0  0  0  0  0  0  0  0  0  0  0
   -8.5203   -1.7852  -25.6791 N   0  0  0  0  0  0  0  0  0  0  0  0
   -7.9076   -1.2724  -24.4561 C   0  0  0  0  0  0  0  0  0  0  0  0
   -8.7372   -1.5725  -23.1761 C   0  0  2  0  0  0  0  0  0  0  0  0
   -8.1829   -0.6380  -22.0892 C   0  0  0  0  0  0  0  0  0  0  0  0
   -8.3176    0.5717  -22.0397 O   0  0  0  0  0  0  0  0  0  0  0  0
   -7.4521   -1.3769  -21.1859 N   0  0  0  0  0  0  0  0  0  0  0  0
   -6.6642   -0.7826  -20.1763 C   0  0  0  0  0  0  0  0  0  0  0  0
   -6.9164   -1.0975  -18.8630 C   0  0  0  0  0  0  0  0  0  0  0  0
   -6.2262   -0.6117  -17.8068 N   0  0  0  0  0  0  0  0  0  0  0  0
   -5.2090    0.1724  -18.0732 C   0  0  0  0  0  0  0  0  0  0  0  0
   -4.8304    0.5724  -19.3868 C   0  0  0  0  0  0  0  0  0  0  0  0
   -3.7290    1.4451  -19.5982 C   0  0  0  0  0  0  0  0  0  0  0  0
   -3.4584    1.9178  -20.8509 C   0  0  0  0  0  0  0  0  0  0  0  0
   -4.2379    1.5017  -21.9538 C   0  0  0  0  0  0  0  0  0  0  0  0
   -5.2476    0.5883  -21.7882 C   0  0  0  0  0  0  0  0  0  0  0  0
   -5.5915    0.1168  -20.4834 C   0  0  0  0  0  0  0  0  0  0  0  0
   -5.8014    0.2550  -22.6565 H   0  0  0  0  0  0  0  0  0  0  0  0
   -4.0351    1.9177  -22.9368 H   0  0  0  0  0  0  0  0  0  0  0  0
   -2.6674    2.6444  -21.0017 H   0  0  0  0  0  0  0  0  0  0  0  0
   -3.1268    1.7310  -18.7385 H   0  0  0  0  0  0  0  0  0  0  0  0
   -4.6470    0.5586  -17.2244 H   0  0  0  0  0  0  0  0  0  0  0  0
   -7.7391   -1.7698  -18.6301 H   0  0  0  0  0  0  0  0  0  0  0  0
   -7.3878   -2.7938  -21.5001 C   0  0  0  0  0  0  0  0  0  0  0  0
   -8.5210   -2.9827  -22.5152 C   0  0  2  0  0  0  0  0  0  0  0  0
   -8.2618   -4.1327  -23.4717 C   0  0  0  0  0  0  0  0  0  0  0  0
   -7.2930   -3.9920  -23.9630 H   0  0  0  0  0  0  0  0  0  0  0  0
   -9.0362   -4.1739  -24.2442 H   0  0  0  0  0  0  0  0  0  0  0  0
   -8.2425   -5.0820  -22.9263 H   0  0  0  0  0  0  0  0  0  0  0  0
   -9.4393   -3.1841  -21.9407 H   0  0  0  0  0  0  0  0  0  0  0  0
   -7.5306   -3.3983  -20.5981 H   0  0  0  0  0  0  0  0  0  0  0  0
   -6.4087   -3.0662  -21.9265 H   0  0  0  0  0  0  0  0  0  0  0  0
  -10.1992   -1.3006  -23.4724 C   0  0  0  0  0  0  0  0  0  0  0  0
  -11.0829   -1.0287  -22.4243 C   0  0  0  0  0  0  0  0  0  0  0  0
  -12.4302   -0.8627  -22.6886 C   0  0  0  0  0  0  0  0  0  0  0  0
  -13.2758   -0.6262  -21.6785 F   0  0  0  0  0  0  0  0  0  0  0  0
  -12.9589   -0.9596  -23.9694 C   0  0  0  0  0  0  0  0  0  0  0  0
  -12.0913   -1.2532  -25.0005 C   0  0  0  0  0  0  0  0  0  0  0  0
  -10.7280   -1.4125  -24.7585 C   0  0  0  0  0  0  0  0  0  0  0  0
   -9.8685   -1.7604  -25.9157 C   0  0  0  0  0  0  0  0  0  0  0  0
  -10.3497   -2.0193  -27.0137 O   0  0  0  0  0  0  0  0  0  0  0  0
  -12.4422   -1.3793  -26.0185 H   0  0  0  0  0  0  0  0  0  0  0  0
  -14.0206   -0.8181  -24.1374 H   0  0  0  0  0  0  0  0  0  0  0  0
  -10.7079   -0.9508  -21.4132 H   0  0  0  0  0  0  0  0  0  0  0  0
   -6.8991   -1.7003  -24.3538 H   0  0  0  0  0  0  0  0  0  0  0  0
   -7.8002   -0.1775  -24.5258 H   0  0  0  0  0  0  0  0  0  0  0  0
   -8.1676   -1.7725  -27.7079 H   0  0  0  0  0  0  0  0  0  0  0  0
   -6.6976   -1.7693  -26.7093 H   0  0  0  0  0  0  0  0  0  0  0  0
   -6.4779   -4.2682  -26.5999 O   0  0  0  0  0  0  0  0  0  0  0  0
   -6.5804   -5.6369  -26.7715 N   0  0  0  0  0  0  0  0  0  0  0  0
   -9.5256   -4.5016  -27.7158 H   0  0  0  0  0  0  0  0  0  0  0  0
   -9.3355   -7.3392  -27.2436 H   0  0  0  0  0  0  0  0  0  0  0  0
   -7.6897   -7.9598  -26.9253 H   0  0  0  0  0  0  0  0  0  0  0  0
   -8.1772   -7.4787  -28.5695 H   0  0  0  0  0  0  0  0  0  0  0  0
  1  2  1  0
  2  3  1  0
  3  4  2  0
  4  5  1  0
  5  6  1  0
  6  7  1  0
  8  7  1  6
  8  9  1  0
  9 10  2  0
  9 11  1  0
 11 12  1  0
 12 13  2  0
 13 14  1  0
 14 15  2  0
 15 16  1  0
 16 17  2  0
 17 18  1  0
 18 19  2  0
 19 20  1  0
 20 21  2  0
 20 22  1  0
 19 23  1  0
 18 24  1  0
 17 25  1  0
 15 26  1  0
 13 27  1  0
 11 28  1  0
 28 29  1  0
 29 30  1  0
 30 31  1  0
 30 32  1  0
 30 33  1  0
 29 34  1  1
 28 35  1  0
 28 36  1  0
  8 37  1  0
 37 38  2  0
 38 39  1  0
 39 40  1  0
 39 41  2  0
 41 42  1  0
 42 43  2  0
 43 44  1  0
 44 45  2  0
 42 46  1  0
 41 47  1  0
 38 48  1  0
  7 49  1  0
  7 50  1  0
  5 51  1  0
  5 52  1  0
  4 53  1  0
 53 54  1  0
  3 55  1  0
  1 56  1  0
  1 57  1  0
  1 58  1  0
 54  2  2  0
 44  6  1  0
 29  8  1  0
 43 37  1  0
 21 12  1  0
 21 16  1  0
M  END
>  <cnnaffinities>  (65) 
[6.06247]

>  <score>  (65) 
6.06247

>  <index>  (65) 
67

>  <Smiles>  (65) 
C(c1c(c(C(N2C([C@@]3(C(=O)N(c4c(nc(c5c(c(c(c(c45)[H])[H])[H])[H])[H])[H])C([C@@]3(C([H])([H])[H])[H])([H])[H])c3c(c(F)c(c(c3C2=O)[H])[H])[H])([H])[H])([H])[H])on1)[H])([H])([H])[H]

>  <h>  (65) 
<NA>

>  <Training>  (65) 
True

>  <Success>  (65) 
True

>  <enamine_searched>  (65) 
False

>  <enamine_id>  (65) 
nan

$$$$

     RDKit          3D

 65 70  0  0  0  0  0  0  0  0999 V2000
   -9.3099   -0.0060  -20.8935 O   0  0  0  0  0  0  0  0  0  0  0  0
   -8.4444   -0.3389  -21.6818 C   0  0  0  0  0  0  0  0  0  0  0  0
   -7.4471   -1.4163  -21.2712 C   0  0  0  0  0  0  0  0  0  0  0  0
   -6.5839   -0.8417  -20.1658 C   0  0  0  0  0  0  0  0  0  0  0  0
   -6.8961   -1.0617  -18.8480 C   0  0  0  0  0  0  0  0  0  0  0  0
   -6.2115   -0.5709  -17.7839 N   0  0  0  0  0  0  0  0  0  0  0  0
   -5.1980    0.2215  -18.0489 C   0  0  0  0  0  0  0  0  0  0  0  0
   -4.7851    0.5813  -19.3639 C   0  0  0  0  0  0  0  0  0  0  0  0
   -3.6698    1.4269  -19.6029 C   0  0  0  0  0  0  0  0  0  0  0  0
   -3.3710    1.8480  -20.8741 C   0  0  0  0  0  0  0  0  0  0  0  0
   -4.1660    1.4151  -21.9572 C   0  0  0  0  0  0  0  0  0  0  0  0
   -5.1355    0.4537  -21.7681 C   0  0  0  0  0  0  0  0  0  0  0  0
   -5.5032    0.0391  -20.4585 C   0  0  0  0  0  0  0  0  0  0  0  0
   -5.6439    0.0425  -22.6323 H   0  0  0  0  0  0  0  0  0  0  0  0
   -3.9626    1.7867  -22.9618 H   0  0  0  0  0  0  0  0  0  0  0  0
   -2.5201    2.5022  -21.0502 H   0  0  0  0  0  0  0  0  0  0  0  0
   -3.0867    1.7579  -18.7480 H   0  0  0  0  0  0  0  0  0  0  0  0
   -4.6359    0.6106  -17.1984 H   0  0  0  0  0  0  0  0  0  0  0  0
   -7.7560   -1.6815  -18.5956 H   0  0  0  0  0  0  0  0  0  0  0  0
   -8.0246   -2.2591  -20.8814 H   0  0  0  0  0  0  0  0  0  0  0  0
   -6.8463   -1.7687  -22.1130 H   0  0  0  0  0  0  0  0  0  0  0  0
   -8.2342    0.3175  -22.8966 N   0  0  0  0  0  0  0  0  0  0  0  0
   -8.0609   -0.3912  -24.1658 C   0  0  0  0  0  0  0  0  0  0  0  0
   -9.3294   -1.0512  -24.6879 C   0  0  0  0  0  0  0  0  0  0  0  0
  -10.1196   -0.4642  -25.6780 C   0  0  0  0  0  0  0  0  0  0  0  0
  -11.2928   -1.0798  -26.1097 C   0  0  0  0  0  0  0  0  0  0  0  0
  -11.7029   -2.2870  -25.5582 C   0  0  0  0  0  0  0  0  0  0  0  0
  -10.9252   -2.8526  -24.5588 C   0  0  0  0  0  0  0  0  0  0  0  0
  -11.4814   -4.3014  -23.7787 Cl  0  0  0  0  0  0  0  0  0  0  0  0
   -9.7406   -2.2654  -24.1366 C   0  0  0  0  0  0  0  0  0  0  0  0
   -9.1454   -2.7663  -23.3754 H   0  0  0  0  0  0  0  0  0  0  0  0
  -12.6169   -2.7803  -25.8750 H   0  0  0  0  0  0  0  0  0  0  0  0
  -11.8995   -0.6019  -26.8705 H   0  0  0  0  0  0  0  0  0  0  0  0
   -9.8288    0.4873  -26.1198 H   0  0  0  0  0  0  0  0  0  0  0  0
   -7.2934   -1.1549  -24.0207 H   0  0  0  0  0  0  0  0  0  0  0  0
   -7.6557    0.3155  -24.8940 H   0  0  0  0  0  0  0  0  0  0  0  0
   -8.5724    1.7344  -22.9102 C   0  0  2  0  0  0  0  0  0  0  0  0
  -10.0635    2.1203  -23.0178 C   0  0  0  0  0  0  0  0  0  0  0  0
  -10.0009    3.6228  -23.4193 C   0  0  0  0  0  0  0  0  0  0  0  0
   -8.4977    3.9076  -23.4796 C   0  0  2  0  0  0  0  0  0  0  0  0
   -7.9373    2.5935  -24.0105 C   0  0  0  0  0  0  0  0  0  0  0  0
   -8.3241    2.3614  -25.0039 H   0  0  0  0  0  0  0  0  0  0  0  0
   -6.8430    2.5410  -24.0109 H   0  0  0  0  0  0  0  0  0  0  0  0
   -8.0128    3.9097  -22.0232 N   0  0  2  0  0  4  0  0  0  0  0  0
   -6.6899    4.5464  -21.7626 C   0  0  0  0  0  0  0  0  0  0  0  0
   -6.6891    6.0487  -21.9951 C   0  0  0  0  0  0  0  0  0  0  0  0
   -6.2565    6.5324  -23.3915 C   0  0  0  0  0  0  0  0  0  0  0  0
   -5.0660    7.1407  -22.8797 O   0  0  0  0  0  0  0  0  0  0  0  0
   -5.4046    6.7651  -21.5362 C   0  0  0  0  0  0  0  0  0  0  0  0
   -4.6424    6.1056  -21.1006 H   0  0  0  0  0  0  0  0  0  0  0  0
   -5.5181    7.6399  -20.8829 H   0  0  0  0  0  0  0  0  0  0  0  0
   -6.0152    5.7294  -24.1018 H   0  0  0  0  0  0  0  0  0  0  0  0
   -6.9102    7.2649  -23.8835 H   0  0  0  0  0  0  0  0  0  0  0  0
   -7.6323    6.4623  -21.6263 H   0  0  0  0  0  0  0  0  0  0  0  0
   -6.3946    4.3384  -20.7273 H   0  0  0  0  0  0  0  0  0  0  0  0
   -5.9228    4.0725  -22.3928 H   0  0  0  0  0  0  0  0  0  0  0  0
   -8.0438    2.4477  -21.6559 C   0  0  0  0  0  0  0  0  0  0  0  0
   -7.0399    2.1210  -21.3878 H   0  0  0  0  0  0  0  0  0  0  0  0
   -8.6930    2.2822  -20.8007 H   0  0  0  0  0  0  0  0  0  0  0  0
   -8.7148    4.3818  -21.4201 H   0  0  0  0  0  0  0  0  0  0  0  0
   -8.2003    4.8328  -23.9664 H   0  0  0  0  0  0  0  0  0  0  0  0
  -10.4667    3.7919  -24.3939 H   0  0  0  0  0  0  0  0  0  0  0  0
  -10.4798    4.2925  -22.6941 H   0  0  0  0  0  0  0  0  0  0  0  0
  -10.5454    1.5156  -23.7907 H   0  0  0  0  0  0  0  0  0  0  0  0
  -10.5880    1.9410  -22.0780 H   0  0  0  0  0  0  0  0  0  0  0  0
  1  2  2  0
  2  3  1  0
  3  4  1  0
  4  5  2  0
  5  6  1  0
  6  7  2  0
  7  8  1  0
  8  9  2  0
  9 10  1  0
 10 11  2  0
 11 12  1  0
 12 13  2  0
 12 14  1  0
 11 15  1  0
 10 16  1  0
  9 17  1  0
  7 18  1  0
  5 19  1  0
  3 20  1  0
  3 21  1  0
  2 22  1  0
 22 23  1  0
 23 24  1  0
 24 25  2  0
 25 26  1  0
 26 27  2  0
 27 28  1  0
 28 29  1  0
 28 30  2  0
 30 31  1  0
 27 32  1  0
 26 33  1  0
 25 34  1  0
 23 35  1  0
 23 36  1  0
 37 22  1  6
 37 38  1  0
 38 39  1  0
 39 40  1  0
 40 41  1  0
 41 42  1  0
 41 43  1  0
 40 44  1  0
 44 45  1  0
 45 46  1  0
 46 47  1  0
 47 48  1  0
 48 49  1  0
 49 50  1  0
 49 51  1  0
 47 52  1  0
 47 53  1  0
 46 54  1  0
 45 55  1  0
 45 56  1  0
 44 57  1  0
 57 58  1  0
 57 59  1  0
 44 60  1  1
 40 61  1  6
 39 62  1  0
 39 63  1  0
 38 64  1  0
 38 65  1  0
 13  4  1  0
 30 24  1  0
 41 37  1  0
 49 46  1  0
 13  8  1  0
 57 37  1  0
M  CHG  1  44   1
M  END
>  <cnnaffinities>  (66) 
[5.9909, 5.98615, 5.58115, 5.89705]

>  <score>  (66) 
5.9909

>  <index>  (66) 
68

>  <Smiles>  (66) 
O=C(C(c1c(nc(c2c(c(c(c(c12)[H])[H])[H])[H])[H])[H])([H])[H])N(C(c1c(c(c(c(Cl)c1[H])[H])[H])[H])([H])[H])[C@]12C(C([C@](C1([H])[H])([N@+](C(C1(C(OC1([H])[H])([H])[H])[H])([H])[H])(C2([H])[H])[H])[H])([H])[H])([H])[H]

>  <h>  (66) 
<NA>

>  <Training>  (66) 
True

>  <Success>  (66) 
True

>  <enamine_searched>  (66) 
False

>  <enamine_id>  (66) 
nan

$$$$

     RDKit          3D

 63 67  0  0  0  0  0  0  0  0999 V2000
  -15.2022   -5.0368  -25.2867 C   0  0  0  0  0  0  0  0  0  0  0  0
  -14.4617   -4.3655  -24.4159 C   0  0  0  0  0  0  0  0  0  0  0  0
  -13.5321   -3.3131  -24.8900 C   0  0  0  0  0  0  0  0  0  0  0  0
  -13.5692   -2.8689  -26.0210 O   0  0  0  0  0  0  0  0  0  0  0  0
  -12.5871   -2.9021  -23.9554 N   0  0  0  0  0  0  0  0  0  0  0  0
  -12.9866   -2.6622  -22.5741 C   0  0  0  0  0  0  0  0  0  0  0  0
  -12.8187   -1.1681  -22.3686 C   0  0  0  0  0  0  0  0  0  0  0  0
  -11.3204   -0.9046  -22.3611 C   0  0  0  0  0  0  0  0  0  0  0  0
  -10.6275   -1.5141  -23.5638 C   0  0  0  0  0  0  0  0  0  0  0  0
  -11.3242   -2.4278  -24.3760 C   0  0  0  0  0  0  0  0  0  0  0  0
  -10.7469   -2.8994  -25.5636 C   0  0  0  0  0  0  0  0  0  0  0  0
   -9.4343   -2.5938  -25.8589 C   0  0  0  0  0  0  0  0  0  0  0  0
   -8.6871   -1.7777  -25.0113 C   0  0  0  0  0  0  0  0  0  0  0  0
   -9.3098   -1.2131  -23.9059 C   0  0  0  0  0  0  0  0  0  0  0  0
   -8.5213   -0.1246  -23.1490 N   0  0  1  0  0  4  0  0  0  0  0  0
   -8.9313    1.3156  -23.5626 C   0  0  0  0  0  0  0  0  0  0  0  0
   -7.8141    2.2931  -23.2848 C   0  0  0  0  0  0  0  0  0  0  0  0
   -7.7613    2.9436  -22.0489 C   0  0  0  0  0  0  0  0  0  0  0  0
   -6.8211    3.9417  -21.8207 C   0  0  0  0  0  0  0  0  0  0  0  0
   -5.8826    4.2654  -22.7995 C   0  0  0  0  0  0  0  0  0  0  0  0
   -5.8652    3.5146  -23.9722 C   0  0  0  0  0  0  0  0  0  0  0  0
   -4.5309    3.7068  -25.0746 Cl  0  0  0  0  0  0  0  0  0  0  0  0
   -6.8311    2.5518  -24.2428 C   0  0  0  0  0  0  0  0  0  0  0  0
   -6.7978    1.9849  -25.1722 H   0  0  0  0  0  0  0  0  0  0  0  0
   -5.1466    5.0516  -22.6391 H   0  0  0  0  0  0  0  0  0  0  0  0
   -6.8034    4.4754  -20.8729 H   0  0  0  0  0  0  0  0  0  0  0  0
   -8.4463    2.6128  -21.2703 H   0  0  0  0  0  0  0  0  0  0  0  0
   -9.2019    1.2824  -24.6192 H   0  0  0  0  0  0  0  0  0  0  0  0
   -9.8115    1.5937  -22.9794 H   0  0  0  0  0  0  0  0  0  0  0  0
   -8.4418   -0.2769  -21.6828 C   0  0  0  0  0  0  0  0  0  0  0  0
   -9.1601    0.3445  -20.9441 O   0  0  0  0  0  0  0  0  0  0  0  0
   -7.4733   -1.3397  -21.1936 C   0  0  0  0  0  0  0  0  0  0  0  0
   -6.6053   -0.7853  -20.0953 C   0  0  0  0  0  0  0  0  0  0  0  0
   -6.8398   -1.0984  -18.7840 C   0  0  0  0  0  0  0  0  0  0  0  0
   -6.1350   -0.6200  -17.7254 N   0  0  0  0  0  0  0  0  0  0  0  0
   -5.1502    0.2018  -17.9948 C   0  0  0  0  0  0  0  0  0  0  0  0
   -4.8027    0.6292  -19.3065 C   0  0  0  0  0  0  0  0  0  0  0  0
   -3.7519    1.5507  -19.5422 C   0  0  0  0  0  0  0  0  0  0  0  0
   -3.4808    1.9877  -20.8075 C   0  0  0  0  0  0  0  0  0  0  0  0
   -4.2455    1.5145  -21.8956 C   0  0  0  0  0  0  0  0  0  0  0  0
   -5.2799    0.6342  -21.6915 C   0  0  0  0  0  0  0  0  0  0  0  0
   -5.5784    0.1572  -20.3890 C   0  0  0  0  0  0  0  0  0  0  0  0
   -5.9171    0.3611  -22.5260 H   0  0  0  0  0  0  0  0  0  0  0  0
   -4.0266    1.8708  -22.8997 H   0  0  0  0  0  0  0  0  0  0  0  0
   -2.7062    2.7335  -20.9748 H   0  0  0  0  0  0  0  0  0  0  0  0
   -3.1654    1.8854  -18.6897 H   0  0  0  0  0  0  0  0  0  0  0  0
   -4.5786    0.5903  -17.1504 H   0  0  0  0  0  0  0  0  0  0  0  0
   -7.6561   -1.7732  -18.5273 H   0  0  0  0  0  0  0  0  0  0  0  0
   -6.8912   -1.7238  -22.0374 H   0  0  0  0  0  0  0  0  0  0  0  0
   -8.0850   -2.1668  -20.8111 H   0  0  0  0  0  0  0  0  0  0  0  0
   -7.5531   -0.2637  -23.4995 H   0  0  0  0  0  0  0  0  0  0  0  0
   -7.6399   -1.5727  -25.2132 H   0  0  0  0  0  0  0  0  0  0  0  0
   -9.0029   -2.9825  -26.7753 H   0  0  0  0  0  0  0  0  0  0  0  0
  -11.3164   -3.4943  -26.2653 H   0  0  0  0  0  0  0  0  0  0  0  0
  -11.1237    0.1668  -22.3212 H   0  0  0  0  0  0  0  0  0  0  0  0
  -10.8625   -1.3253  -21.4530 H   0  0  0  0  0  0  0  0  0  0  0  0
  -13.2837   -0.6368  -23.2145 H   0  0  0  0  0  0  0  0  0  0  0  0
  -13.3005   -0.8214  -21.4505 H   0  0  0  0  0  0  0  0  0  0  0  0
  -12.3446   -3.2330  -21.8813 H   0  0  0  0  0  0  0  0  0  0  0  0
  -14.0218   -2.9741  -22.4218 H   0  0  0  0  0  0  0  0  0  0  0  0
  -14.4406   -4.6417  -23.3657 H   0  0  0  0  0  0  0  0  0  0  0  0
  -15.7366   -5.9223  -24.9661 H   0  0  0  0  0  0  0  0  0  0  0  0
  -15.2529   -4.7382  -26.3302 H   0  0  0  0  0  0  0  0  0  0  0  0
  1  2  2  0
  2  3  1  0
  3  4  2  0
  3  5  1  0
  5  6  1  0
  6  7  1  0
  7  8  1  0
  8  9  1  0
  9 10  2  0
 10 11  1  0
 11 12  2  0
 12 13  1  0
 13 14  2  0
 14 15  1  0
 15 16  1  0
 16 17  1  0
 17 18  2  0
 18 19  1  0
 19 20  2  0
 20 21  1  0
 21 22  1  0
 21 23  2  0
 23 24  1  0
 20 25  1  0
 19 26  1  0
 18 27  1  0
 16 28  1  0
 16 29  1  0
 15 30  1  0
 30 31  2  0
 30 32  1  0
 32 33  1  0
 33 34  2  0
 34 35  1  0
 35 36  2  0
 36 37  1  0
 37 38  2  0
 38 39  1  0
 39 40  2  0
 40 41  1  0
 41 42  2  0
 41 43  1  0
 40 44  1  0
 39 45  1  0
 38 46  1  0
 36 47  1  0
 34 48  1  0
 32 49  1  0
 32 50  1  0
 15 51  1  6
 13 52  1  0
 12 53  1  0
 11 54  1  0
  8 55  1  0
  8 56  1  0
  7 57  1  0
  7 58  1  0
  6 59  1  0
  6 60  1  0
  2 61  1  0
  1 62  1  0
  1 63  1  0
 10  5  1  0
 23 17  1  0
 42 33  1  0
 14  9  1  0
 42 37  1  0
M  CHG  1  15   1
M  END
>  <cnnaffinities>  (67) 
[6.48547]

>  <score>  (67) 
6.48547

>  <index>  (67) 
69

>  <Smiles>  (67) 
C(=C(C(=O)N1C(C(C(c2c1c(c(c(c2[N@@+](C(c1c(c(c(c(Cl)c1[H])[H])[H])[H])([H])[H])(C(=O)C(c1c(nc(c2c(c(c(c(c12)[H])[H])[H])[H])[H])[H])([H])[H])[H])[H])[H])[H])([H])[H])([H])[H])([H])[H])[H])([H])[H]

>  <h>  (67) 
<NA>

>  <Training>  (67) 
True

>  <Success>  (67) 
True

>  <enamine_searched>  (67) 
False

>  <enamine_id>  (67) 
nan

$$$$

     RDKit          3D

 52 54  0  0  0  0  0  0  0  0999 V2000
  -14.2142   -4.1400  -24.7769 C   0  0  0  0  0  0  0  0  0  0  0  0
  -14.1366   -4.0285  -24.9968 C   0  0  0  0  0  0  0  0  0  0  0  0
  -15.1642   -3.1759  -25.5271 C   0  0  0  0  0  0  0  0  0  0  0  0
  -15.6812   -2.4005  -24.9156 H   0  0  0  0  0  0  0  0  0  0  0  0
  -15.9249   -3.6236  -26.2147 H   0  0  0  0  0  0  0  0  0  0  0  0
  -14.4815   -2.6724  -26.2121 H   0  0  0  0  0  0  0  0  0  0  0  0
  -13.6151   -3.5216  -23.6316 C   0  0  0  0  0  0  0  0  0  0  0  0
  -11.8297   -1.4381  -23.9940 C   0  0  0  0  0  0  0  0  0  0  0  0
  -12.3642   -0.8127  -25.2474 C   0  0  0  0  0  0  0  0  0  0  0  0
  -12.1660   -1.4145  -26.1394 H   0  0  0  0  0  0  0  0  0  0  0  0
  -13.4324   -0.5890  -25.1742 H   0  0  0  0  0  0  0  0  0  0  0  0
  -11.8380    0.1478  -25.3924 H   0  0  0  0  0  0  0  0  0  0  0  0
  -10.5187   -2.1685  -24.1377 C   0  0  0  0  0  0  0  0  0  0  0  0
   -9.7154   -2.1891  -22.8411 C   0  0  0  0  0  0  0  0  0  0  0  0
   -9.5311   -0.8126  -22.3657 N   0  0  0  0  0  0  0  0  0  0  0  0
   -8.5272   -0.4003  -21.5420 C   0  0  0  0  0  0  0  0  0  0  0  0
   -8.4985    0.7380  -21.0961 O   0  0  0  0  0  0  0  0  0  0  0  0
   -7.4325   -1.4113  -21.1729 C   0  0  0  0  0  0  0  0  0  0  0  0
   -6.5660   -0.8436  -20.0911 C   0  0  0  0  0  0  0  0  0  0  0  0
   -6.8289   -1.1227  -18.7761 C   0  0  0  0  0  0  0  0  0  0  0  0
   -6.1427   -0.6242  -17.7153 N   0  0  0  0  0  0  0  0  0  0  0  0
   -5.1599    0.2034  -17.9854 C   0  0  0  0  0  0  0  0  0  0  0  0
   -4.7986    0.6130  -19.2991 C   0  0  0  0  0  0  0  0  0  0  0  0
   -3.7434    1.5290  -19.5432 C   0  0  0  0  0  0  0  0  0  0  0  0
   -3.4768    1.9611  -20.8149 C   0  0  0  0  0  0  0  0  0  0  0  0
   -4.2643    1.5084  -21.8973 C   0  0  0  0  0  0  0  0  0  0  0  0
   -5.2682    0.5951  -21.6923 C   0  0  0  0  0  0  0  0  0  0  0  0
   -5.5488    0.1087  -20.3859 C   0  0  0  0  0  0  0  0  0  0  0  0
   -5.8761    0.2652  -22.5295 H   0  0  0  0  0  0  0  0  0  0  0  0
   -4.0618    1.8756  -22.9006 H   0  0  0  0  0  0  0  0  0  0  0  0
   -2.6698    2.6652  -20.9981 H   0  0  0  0  0  0  0  0  0  0  0  0
   -3.1724    1.8965  -18.6936 H   0  0  0  0  0  0  0  0  0  0  0  0
   -4.6005    0.6013  -17.1377 H   0  0  0  0  0  0  0  0  0  0  0  0
   -7.6520   -1.7904  -18.5199 H   0  0  0  0  0  0  0  0  0  0  0  0
   -7.9072   -2.3380  -20.8243 H   0  0  0  0  0  0  0  0  0  0  0  0
   -6.8405   -1.6684  -22.0627 H   0  0  0  0  0  0  0  0  0  0  0  0
  -10.6054    0.1446  -22.6085 C   0  0  0  0  0  0  0  0  0  0  0  0
  -11.9170   -0.6129  -22.7336 C   0  0  0  0  0  0  0  0  0  0  0  0
  -12.0351   -1.2728  -21.8645 H   0  0  0  0  0  0  0  0  0  0  0  0
  -12.7681    0.0741  -22.7454 H   0  0  0  0  0  0  0  0  0  0  0  0
  -10.4065    0.7193  -23.5223 H   0  0  0  0  0  0  0  0  0  0  0  0
  -10.5995    0.8693  -21.7989 H   0  0  0  0  0  0  0  0  0  0  0  0
  -10.2272   -2.8020  -22.0863 H   0  0  0  0  0  0  0  0  0  0  0  0
   -8.7370   -2.6424  -23.0252 H   0  0  0  0  0  0  0  0  0  0  0  0
   -9.9202   -1.6349  -24.8888 H   0  0  0  0  0  0  0  0  0  0  0  0
  -10.6910   -3.1799  -24.5171 H   0  0  0  0  0  0  0  0  0  0  0  0
  -14.3875   -3.1885  -22.8847 H   0  0  0  0  0  0  0  0  0  0  0  0
  -12.8250   -2.6582  -23.6307 H   0  0  0  0  0  0  0  0  0  0  0  0
  -14.8296   -4.8439  -23.9460 H   0  0  0  0  0  0  0  0  0  0  0  0
  -13.1082   -4.2942  -22.9992 H   0  0  0  0  0  0  0  0  0  0  0  0
  -13.6953   -5.4621  -25.3718 H   0  0  0  0  0  0  0  0  0  0  0  0
  -13.4255   -3.6285  -25.9231 H   0  0  0  0  0  0  0  0  0  0  0  0
  1  2  1  0
  2  3  1  0
  3  4  1  0
  3  5  1  0
  3  6  1  0
  2  7  1  0
  7  8  1  0
  8  9  1  0
  9 10  1  0
  9 11  1  0
  9 12  1  0
  8 13  1  0
 13 14  1  0
 14 15  1  0
 15 16  1  0
 16 17  2  0
 16 18  1  0
 18 19  1  0
 19 20  2  0
 20 21  1  0
 21 22  2  0
 22 23  1  0
 23 24  2  0
 24 25  1  0
 25 26  2  0
 26 27  1  0
 27 28  2  0
 27 29  1  0
 26 30  1  0
 25 31  1  0
 24 32  1  0
 22 33  1  0
 20 34  1  0
 18 35  1  0
 18 36  1  0
 15 37  1  0
 37 38  1  0
 38 39  1  0
 38 40  1  0
 37 41  1  0
 37 42  1  0
 14 43  1  0
 14 44  1  0
 13 45  1  0
 13 46  1  0
  7 47  1  0
  7 48  1  0
  2 49  1  0
  1 50  1  0
  1 51  1  0
  1 52  1  0
 38  8  1  0
 28 19  1  0
 28 23  1  0
M  END
>  <cnnaffinities>  (68) 
[5.4297]

>  <score>  (68) 
5.4297

>  <index>  (68) 
70

>  <Smiles>  (68) 
C(C(C([H])([H])[H])(C(C1(C([H])([H])[H])C(C(N(C(=O)C(c2c(nc(c3c(c(c(c(c23)[H])[H])[H])[H])[H])[H])([H])[H])C(C1([H])[H])([H])[H])([H])[H])([H])[H])([H])[H])[H])([H])([H])[H]

>  <h>  (68) 
<NA>

>  <Training>  (68) 
True

>  <Success>  (68) 
True

>  <enamine_searched>  (68) 
False

>  <enamine_id>  (68) 
nan

$$$$

     RDKit          3D

 50 54  0  0  0  0  0  0  0  0999 V2000
   -8.3537   -4.1607  -23.4468 C   0  0  0  0  0  0  0  0  0  0  0  0
   -8.5501   -2.9956  -22.4933 C   0  0  1  0  0  0  0  0  0  0  0  0
   -7.4035   -2.8083  -21.4930 C   0  0  0  0  0  0  0  0  0  0  0  0
   -7.4535   -1.3845  -21.1973 N   0  0  0  0  0  0  0  0  0  0  0  0
   -6.6713   -0.7848  -20.1839 C   0  0  0  0  0  0  0  0  0  0  0  0
   -6.9207   -1.1043  -18.8719 C   0  0  0  0  0  0  0  0  0  0  0  0
   -6.2341   -0.6198  -17.8115 N   0  0  0  0  0  0  0  0  0  0  0  0
   -5.2186    0.1702  -18.0767 C   0  0  0  0  0  0  0  0  0  0  0  0
   -4.8406    0.5731  -19.3914 C   0  0  0  0  0  0  0  0  0  0  0  0
   -3.7436    1.4499  -19.5939 C   0  0  0  0  0  0  0  0  0  0  0  0
   -3.4840    1.9477  -20.8421 C   0  0  0  0  0  0  0  0  0  0  0  0
   -4.2598    1.5245  -21.9457 C   0  0  0  0  0  0  0  0  0  0  0  0
   -5.2727    0.6152  -21.7884 C   0  0  0  0  0  0  0  0  0  0  0  0
   -5.6035    0.1207  -20.4902 C   0  0  0  0  0  0  0  0  0  0  0  0
   -5.8449    0.3092  -22.6573 H   0  0  0  0  0  0  0  0  0  0  0  0
   -4.0640    1.9572  -22.9242 H   0  0  0  0  0  0  0  0  0  0  0  0
   -2.7157    2.6993  -20.9849 H   0  0  0  0  0  0  0  0  0  0  0  0
   -3.1445    1.7363  -18.7350 H   0  0  0  0  0  0  0  0  0  0  0  0
   -4.6524    0.5485  -17.2249 H   0  0  0  0  0  0  0  0  0  0  0  0
   -7.7390   -1.7836  -18.6361 H   0  0  0  0  0  0  0  0  0  0  0  0
   -8.1851   -0.6505  -22.1079 C   0  0  0  0  0  0  0  0  0  0  0  0
   -8.3112    0.5573  -22.0810 O   0  0  0  0  0  0  0  0  0  0  0  0
   -8.7533   -1.5956  -23.1747 C   0  0  1  0  0  0  0  0  0  0  0  0
   -7.9343   -1.3339  -24.4687 C   0  0  0  0  0  0  0  0  0  0  0  0
   -8.5510   -1.9409  -25.6472 N   0  0  0  0  0  0  0  0  0  0  0  0
   -7.7667   -2.4228  -26.7711 C   0  0  0  0  0  0  0  0  0  0  0  0
   -7.9137   -3.8804  -26.9290 C   0  0  0  0  0  0  0  0  0  0  0  0
   -8.0841   -5.0195  -27.0444 N   0  0  0  0  0  0  0  0  0  0  0  0
   -8.1588   -1.9568  -27.6798 H   0  0  0  0  0  0  0  0  0  0  0  0
   -6.7135   -2.1585  -26.6515 H   0  0  0  0  0  0  0  0  0  0  0  0
   -9.8890   -1.7751  -25.9157 C   0  0  0  0  0  0  0  0  0  0  0  0
  -10.3591   -1.9390  -27.0351 O   0  0  0  0  0  0  0  0  0  0  0  0
  -10.7403   -1.3975  -24.7618 C   0  0  0  0  0  0  0  0  0  0  0  0
  -12.0966   -1.1971  -25.0092 C   0  0  0  0  0  0  0  0  0  0  0  0
  -12.9656   -0.8951  -23.9829 C   0  0  0  0  0  0  0  0  0  0  0  0
  -12.4378   -0.8280  -22.6987 C   0  0  0  0  0  0  0  0  0  0  0  0
  -13.2779   -0.5880  -21.6855 F   0  0  0  0  0  0  0  0  0  0  0  0
  -11.0942   -1.0188  -22.4303 C   0  0  0  0  0  0  0  0  0  0  0  0
  -10.2116   -1.3058  -23.4736 C   0  0  0  0  0  0  0  0  0  0  0  0
  -10.7209   -0.9398  -21.4179 H   0  0  0  0  0  0  0  0  0  0  0  0
  -14.0216   -0.7239  -24.1639 H   0  0  0  0  0  0  0  0  0  0  0  0
  -12.4435   -1.3009  -26.0302 H   0  0  0  0  0  0  0  0  0  0  0  0
   -6.9110   -1.7169  -24.3584 H   0  0  0  0  0  0  0  0  0  0  0  0
   -7.8624   -0.2398  -24.6006 H   0  0  0  0  0  0  0  0  0  0  0  0
   -7.5500   -3.3987  -20.5826 H   0  0  0  0  0  0  0  0  0  0  0  0
   -6.4270   -3.0958  -21.9127 H   0  0  0  0  0  0  0  0  0  0  0  0
   -9.4587   -3.1715  -21.8987 H   0  0  0  0  0  0  0  0  0  0  0  0
   -7.4497   -4.0099  -24.0468 H   0  0  0  0  0  0  0  0  0  0  0  0
   -8.2547   -5.1003  -22.8943 H   0  0  0  0  0  0  0  0  0  0  0  0
   -9.2057   -4.2342  -24.1284 H   0  0  0  0  0  0  0  0  0  0  0  0
  1  2  1  0
  2  3  1  0
  3  4  1  0
  4  5  1  0
  5  6  2  0
  6  7  1  0
  7  8  2  0
  8  9  1  0
  9 10  2  0
 10 11  1  0
 11 12  2  0
 12 13  1  0
 13 14  2  0
 13 15  1  0
 12 16  1  0
 11 17  1  0
 10 18  1  0
  8 19  1  0
  6 20  1  0
  4 21  1  0
 21 22  2  0
 21 23  1  0
 23 24  1  6
 24 25  1  0
 25 26  1  0
 26 27  1  0
 27 28  3  0
 26 29  1  0
 26 30  1  0
 25 31  1  0
 31 32  2  0
 31 33  1  0
 33 34  2  0
 34 35  1  0
 35 36  2  0
 36 37  1  0
 36 38  1  0
 38 39  2  0
 38 40  1  0
 35 41  1  0
 34 42  1  0
 24 43  1  0
 24 44  1  0
  3 45  1  0
  3 46  1  0
  2 47  1  1
  1 48  1  0
  1 49  1  0
  1 50  1  0
 23  2  1  0
 39 33  1  0
 14  5  1  0
 39 23  1  0
 14  9  1  0
M  END
>  <cnnaffinities>  (69) 
[5.65739, 5.33902, 6.1375, 5.61783]

>  <score>  (69) 
5.65739

>  <index>  (69) 
71

>  <Smiles>  (69) 
C([C@]1(C(N(c2c(nc(c3c(c(c(c(c23)[H])[H])[H])[H])[H])[H])C(=O)[C@]21C(N(C(C#N)([H])[H])C(=O)c1c(c(c(F)c(c21)[H])[H])[H])([H])[H])([H])[H])[H])([H])([H])[H]

>  <h>  (69) 
<NA>

>  <Training>  (69) 
True

>  <Success>  (69) 
True

>  <enamine_searched>  (69) 
False

>  <enamine_id>  (69) 
nan

$$$$

     RDKit          3D

 41 44  0  0  0  0  0  0  0  0999 V2000
   -8.7031    0.7094  -21.2694 O   0  0  0  0  0  0  0  0  0  0  0  0
   -8.6627   -0.4328  -21.6921 C   0  0  0  0  0  0  0  0  0  0  0  0
   -7.5342   -1.3860  -21.2629 C   0  0  0  0  0  0  0  0  0  0  0  0
   -6.6881   -0.7966  -20.1763 C   0  0  0  0  0  0  0  0  0  0  0  0
   -6.9527   -1.0920  -18.8669 C   0  0  0  0  0  0  0  0  0  0  0  0
   -6.2574   -0.6237  -17.7980 N   0  0  0  0  0  0  0  0  0  0  0  0
   -5.2375    0.1591  -18.0568 C   0  0  0  0  0  0  0  0  0  0  0  0
   -4.8633    0.5785  -19.3647 C   0  0  0  0  0  0  0  0  0  0  0  0
   -3.7817    1.4717  -19.5861 C   0  0  0  0  0  0  0  0  0  0  0  0
   -3.5678    1.9998  -20.8349 C   0  0  0  0  0  0  0  0  0  0  0  0
   -4.4054    1.6331  -21.9101 C   0  0  0  0  0  0  0  0  0  0  0  0
   -5.3926    0.6957  -21.7445 C   0  0  0  0  0  0  0  0  0  0  0  0
   -5.6478    0.1374  -20.4557 C   0  0  0  0  0  0  0  0  0  0  0  0
   -6.0178    0.4256  -22.5915 H   0  0  0  0  0  0  0  0  0  0  0  0
   -4.2384    2.0806  -22.8900 H   0  0  0  0  0  0  0  0  0  0  0  0
   -2.7936    2.7461  -20.9911 H   0  0  0  0  0  0  0  0  0  0  0  0
   -3.1575    1.7616  -18.7452 H   0  0  0  0  0  0  0  0  0  0  0  0
   -4.6767    0.5417  -17.2019 H   0  0  0  0  0  0  0  0  0  0  0  0
   -7.7685   -1.7707  -18.6194 H   0  0  0  0  0  0  0  0  0  0  0  0
   -7.9742   -2.3345  -20.9229 H   0  0  0  0  0  0  0  0  0  0  0  0
   -6.9093   -1.6198  -22.1326 H   0  0  0  0  0  0  0  0  0  0  0  0
   -9.6185   -0.9158  -22.5525 N   0  0  0  0  0  0  0  0  0  0  0  0
   -9.5861   -2.2257  -23.2062 C   0  0  0  0  0  0  0  0  0  0  0  0
  -10.3262   -3.3181  -22.4243 C   0  0  0  0  0  0  0  0  0  0  0  0
  -11.5412   -2.7492  -21.6811 C   0  0  0  0  0  0  0  0  0  0  0  0
  -12.4284   -1.8172  -22.4748 C   0  0  0  0  0  0  0  0  0  0  0  0
  -14.1291   -2.0889  -22.6606 S   0  0  0  0  0  0  0  0  0  0  0  0
  -14.3545   -0.5629  -23.4279 C   0  0  0  0  0  0  0  0  0  0  0  0
  -13.1819    0.1098  -23.5474 C   0  0  0  0  0  0  0  0  0  0  0  0
  -12.0656   -0.6082  -23.0029 C   0  0  0  0  0  0  0  0  0  0  0  0
  -10.6879    0.0066  -22.9286 C   0  0  0  0  0  0  0  0  0  0  0  0
  -10.4500    0.4783  -23.8954 H   0  0  0  0  0  0  0  0  0  0  0  0
  -10.6937    0.8300  -22.2032 H   0  0  0  0  0  0  0  0  0  0  0  0
  -13.1168    1.1021  -23.9869 H   0  0  0  0  0  0  0  0  0  0  0  0
  -15.3361   -0.1933  -23.6927 H   0  0  0  0  0  0  0  0  0  0  0  0
  -12.1297   -3.5497  -21.2279 H   0  0  0  0  0  0  0  0  0  0  0  0
  -11.1353   -2.1254  -20.8777 H   0  0  0  0  0  0  0  0  0  0  0  0
   -9.6544   -3.7816  -21.6909 H   0  0  0  0  0  0  0  0  0  0  0  0
  -10.6278   -4.1159  -23.1155 H   0  0  0  0  0  0  0  0  0  0  0  0
  -10.0954   -2.1135  -24.1695 H   0  0  0  0  0  0  0  0  0  0  0  0
   -8.5501   -2.5237  -23.4083 H   0  0  0  0  0  0  0  0  0  0  0  0
  1  2  2  0
  2  3  1  0
  3  4  1  0
  4  5  2  0
  5  6  1  0
  6  7  2  0
  7  8  1  0
  8  9  2  0
  9 10  1  0
 10 11  2  0
 11 12  1  0
 12 13  2  0
 12 14  1  0
 11 15  1  0
 10 16  1  0
  9 17  1  0
  7 18  1  0
  5 19  1  0
  3 20  1  0
  3 21  1  0
  2 22  1  0
 22 23  1  0
 23 24  1  0
 24 25  1  0
 25 26  1  0
 26 27  1  0
 27 28  1  0
 28 29  2  0
 29 30  1  0
 30 31  1  0
 31 32  1  0
 31 33  1  0
 29 34  1  0
 28 35  1  0
 25 36  1  0
 25 37  1  0
 24 38  1  0
 24 39  1  0
 23 40  1  0
 23 41  1  0
 13  4  1  0
 31 22  1  0
 13  8  1  0
 30 26  2  0
M  END
>  <cnnaffinities>  (70) 
[4.95583, 5.11938]

>  <score>  (70) 
4.95583

>  <index>  (70) 
72

>  <Smiles>  (70) 
O=C(C(c1c(nc(c2c(c(c(c(c12)[H])[H])[H])[H])[H])[H])([H])[H])N1C(C(C(c2sc(c(c2C1([H])[H])[H])[H])([H])[H])([H])[H])([H])[H]

>  <h>  (70) 
<NA>

>  <Training>  (70) 
True

>  <Success>  (70) 
True

>  <enamine_searched>  (70) 
False

>  <enamine_id>  (70) 
nan

$$$$

     RDKit          3D

 50 53  0  0  0  0  0  0  0  0999 V2000
   -8.7558    0.6144  -21.1563 O   0  0  0  0  0  0  0  0  0  0  0  0
   -8.6688   -0.4913  -21.6737 C   0  0  0  0  0  0  0  0  0  0  0  0
   -7.5015   -1.4205  -21.3057 C   0  0  0  0  0  0  0  0  0  0  0  0
   -6.6641   -0.8246  -20.2121 C   0  0  0  0  0  0  0  0  0  0  0  0
   -6.9442   -1.1175  -18.9047 C   0  0  0  0  0  0  0  0  0  0  0  0
   -6.2519   -0.6596  -17.8272 N   0  0  0  0  0  0  0  0  0  0  0  0
   -5.2544    0.1574  -18.0808 C   0  0  0  0  0  0  0  0  0  0  0  0
   -4.8753    0.5804  -19.3875 C   0  0  0  0  0  0  0  0  0  0  0  0
   -3.8026    1.4833  -19.6052 C   0  0  0  0  0  0  0  0  0  0  0  0
   -3.5848    2.0175  -20.8503 C   0  0  0  0  0  0  0  0  0  0  0  0
   -4.3918    1.6144  -21.9408 C   0  0  0  0  0  0  0  0  0  0  0  0
   -5.3891    0.6828  -21.7776 C   0  0  0  0  0  0  0  0  0  0  0  0
   -5.6356    0.1219  -20.4914 C   0  0  0  0  0  0  0  0  0  0  0  0
   -6.0229    0.4283  -22.6266 H   0  0  0  0  0  0  0  0  0  0  0  0
   -4.1924    2.0226  -22.9259 H   0  0  0  0  0  0  0  0  0  0  0  0
   -2.8120    2.7627  -21.0042 H   0  0  0  0  0  0  0  0  0  0  0  0
   -3.2066    1.7957  -18.7534 H   0  0  0  0  0  0  0  0  0  0  0  0
   -4.6888    0.5268  -17.2228 H   0  0  0  0  0  0  0  0  0  0  0  0
   -7.7735   -1.7866  -18.6711 H   0  0  0  0  0  0  0  0  0  0  0  0
   -7.9191   -2.3745  -20.9542 H   0  0  0  0  0  0  0  0  0  0  0  0
   -6.8965   -1.6465  -22.1945 H   0  0  0  0  0  0  0  0  0  0  0  0
   -9.6078   -0.9510  -22.5621 N   0  0  0  0  0  0  0  0  0  0  0  0
  -10.7598   -0.0959  -22.8309 C   0  0  0  0  0  0  0  0  0  0  0  0
  -12.0262   -0.8933  -22.5603 C   0  0  0  0  0  0  0  0  0  0  0  0
  -12.0687   -2.1067  -23.4792 C   0  0  0  0  0  0  0  0  0  0  0  0
  -10.8613   -2.9960  -23.1761 C   0  0  0  0  0  0  0  0  0  0  0  0
   -9.5586   -2.1908  -23.3485 C   0  0  1  0  0  0  0  0  0  0  0  0
   -9.3245   -1.8507  -24.8360 C   0  0  0  0  0  0  0  0  0  0  0  0
   -7.9985   -1.1766  -25.0718 C   0  0  0  0  0  0  0  0  0  0  0  0
   -6.8413   -1.9517  -25.1492 C   0  0  0  0  0  0  0  0  0  0  0  0
   -5.5964   -1.3618  -25.3214 C   0  0  0  0  0  0  0  0  0  0  0  0
   -5.4951    0.0239  -25.4198 C   0  0  0  0  0  0  0  0  0  0  0  0
   -6.6404    0.8112  -25.3367 C   0  0  0  0  0  0  0  0  0  0  0  0
   -7.8822    0.2127  -25.1556 C   0  0  0  0  0  0  0  0  0  0  0  0
   -8.7687    0.8381  -25.0816 H   0  0  0  0  0  0  0  0  0  0  0  0
   -6.5690    1.8934  -25.4164 H   0  0  0  0  0  0  0  0  0  0  0  0
   -4.5223    0.4924  -25.5434 H   0  0  0  0  0  0  0  0  0  0  0  0
   -4.7089   -1.9834  -25.3876 H   0  0  0  0  0  0  0  0  0  0  0  0
   -6.9279   -3.0340  -25.0763 H   0  0  0  0  0  0  0  0  0  0  0  0
  -10.1381   -1.2052  -25.1795 H   0  0  0  0  0  0  0  0  0  0  0  0
   -9.3861   -2.7732  -25.4264 H   0  0  0  0  0  0  0  0  0  0  0  0
   -8.7210   -2.8006  -22.9903 H   0  0  0  0  0  0  0  0  0  0  0  0
  -10.9089   -3.3740  -22.1422 H   0  0  0  0  0  0  0  0  0  0  0  0
  -10.8494   -3.8775  -23.8350 H   0  0  0  0  0  0  0  0  0  0  0  0
  -12.9998   -2.6662  -23.3603 H   0  0  0  0  0  0  0  0  0  0  0  0
  -12.0268   -1.7710  -24.5234 H   0  0  0  0  0  0  0  0  0  0  0  0
  -11.9580   -1.2768  -21.5481 H   0  0  0  0  0  0  0  0  0  0  0  0
  -12.9171   -0.2617  -22.6512 H   0  0  0  0  0  0  0  0  0  0  0  0
  -10.7556    0.2501  -23.8742 H   0  0  0  0  0  0  0  0  0  0  0  0
  -10.6585    0.7904  -22.2070 H   0  0  0  0  0  0  0  0  0  0  0  0
  1  2  2  0
  2  3  1  0
  3  4  1  0
  4  5  2  0
  5  6  1  0
  6  7  2  0
  7  8  1  0
  8  9  2  0
  9 10  1  0
 10 11  2  0
 11 12  1  0
 12 13  2  0
 12 14  1  0
 11 15  1  0
 10 16  1  0
  9 17  1  0
  7 18  1  0
  5 19  1  0
  3 20  1  0
  3 21  1  0
  2 22  1  0
 22 23  1  0
 23 24  1  0
 24 25  1  0
 25 26  1  0
 26 27  1  0
 27 28  1  0
 28 29  1  0
 29 30  2  0
 30 31  1  0
 31 32  2  0
 32 33  1  0
 33 34  2  0
 34 35  1  0
 33 36  1  0
 32 37  1  0
 31 38  1  0
 30 39  1  0
 28 40  1  0
 28 41  1  0
 27 42  1  1
 26 43  1  0
 26 44  1  0
 25 45  1  0
 25 46  1  0
 24 47  1  0
 24 48  1  0
 23 49  1  0
 23 50  1  0
 13  4  1  0
 27 22  1  0
 34 29  1  0
 13  8  1  0
M  END
>  <cnnaffinities>  (71) 
[5.40452]

>  <score>  (71) 
5.40452

>  <index>  (71) 
73

>  <Smiles>  (71) 
O=C(C(c1c(nc(c2c(c(c(c(c12)[H])[H])[H])[H])[H])[H])([H])[H])N1C(C(C(C([C@]1(C(c1c(c(c(c(c1[H])[H])[H])[H])[H])([H])[H])[H])([H])[H])([H])[H])([H])[H])([H])[H]

>  <h>  (71) 
<NA>

>  <Training>  (71) 
True

>  <Success>  (71) 
True

>  <enamine_searched>  (71) 
False

>  <enamine_id>  (71) 
nan

$$$$

     RDKit          3D

 43 47  0  0  0  0  0  0  0  0999 V2000
   -5.5271   -3.0638  -21.6540 O   0  0  0  0  0  0  0  0  0  0  0  0
   -6.5918   -2.5272  -21.8347 C   0  0  0  0  0  0  0  0  0  0  0  0
   -7.5133   -2.7626  -22.8367 N   0  0  0  0  0  0  0  0  0  0  0  0
   -8.5962   -1.7952  -22.8317 C   0  0  1  0  0  0  0  0  0  0  0  0
   -8.7366   -0.8343  -24.0405 C   0  0  0  0  0  0  0  0  0  0  0  0
  -10.1290   -1.4404  -24.3591 C   0  0  2  0  0  0  0  0  0  0  0  0
  -11.2874   -0.4939  -24.3447 C   0  0  0  0  0  0  0  0  0  0  0  0
  -11.4247    0.4263  -23.3023 C   0  0  0  0  0  0  0  0  0  0  0  0
  -12.6257    1.0883  -23.0797 C   0  0  0  0  0  0  0  0  0  0  0  0
  -13.7281    0.8246  -23.8862 C   0  0  0  0  0  0  0  0  0  0  0  0
  -13.5874   -0.0350  -24.9659 C   0  0  0  0  0  0  0  0  0  0  0  0
  -12.3592   -0.6235  -25.2236 C   0  0  0  0  0  0  0  0  0  0  0  0
  -12.1722   -1.5450  -26.6896 Cl  0  0  0  0  0  0  0  0  0  0  0  0
  -14.4088   -0.3229  -25.6023 H   0  0  0  0  0  0  0  0  0  0  0  0
  -14.6794    1.2935  -23.6515 H   0  0  0  0  0  0  0  0  0  0  0  0
  -12.7361    1.7679  -22.2421 H   0  0  0  0  0  0  0  0  0  0  0  0
  -10.5930    0.6083  -22.6221 H   0  0  0  0  0  0  0  0  0  0  0  0
  -10.0323   -2.3014  -23.0547 C   0  0  0  0  0  0  0  0  0  0  0  0
  -10.7019   -1.9520  -22.2607 H   0  0  0  0  0  0  0  0  0  0  0  0
  -10.1351   -3.3841  -23.1466 H   0  0  0  0  0  0  0  0  0  0  0  0
  -10.1172   -2.0491  -25.2625 H   0  0  0  0  0  0  0  0  0  0  0  0
   -8.7876    0.2085  -23.7173 H   0  0  0  0  0  0  0  0  0  0  0  0
   -7.9527   -0.9187  -24.7980 H   0  0  0  0  0  0  0  0  0  0  0  0
   -8.3758   -1.0706  -21.5226 C   0  0  0  0  0  0  0  0  0  0  0  0
   -9.0788   -0.2297  -21.0083 O   0  0  0  0  0  0  0  0  0  0  0  0
   -7.1533   -1.5105  -21.0329 N   0  0  0  0  0  0  0  0  0  0  0  0
   -6.4530   -0.8090  -20.0113 C   0  0  0  0  0  0  0  0  0  0  0  0
   -6.7671   -1.0470  -18.7025 C   0  0  0  0  0  0  0  0  0  0  0  0
   -6.0711   -0.5378  -17.6559 N   0  0  0  0  0  0  0  0  0  0  0  0
   -5.0683    0.2614  -17.9341 C   0  0  0  0  0  0  0  0  0  0  0  0
   -4.7105    0.6790  -19.2494 C   0  0  0  0  0  0  0  0  0  0  0  0
   -3.6715    1.6109  -19.4943 C   0  0  0  0  0  0  0  0  0  0  0  0
   -3.4752    2.1085  -20.7514 C   0  0  0  0  0  0  0  0  0  0  0  0
   -4.2965    1.6866  -21.8174 C   0  0  0  0  0  0  0  0  0  0  0  0
   -5.2816    0.7573  -21.6112 C   0  0  0  0  0  0  0  0  0  0  0  0
   -5.4813    0.1961  -20.3231 C   0  0  0  0  0  0  0  0  0  0  0  0
   -5.9327    0.4728  -22.4268 H   0  0  0  0  0  0  0  0  0  0  0  0
   -4.1513    2.1103  -22.8038 H   0  0  0  0  0  0  0  0  0  0  0  0
   -2.7095    2.8545  -20.9274 H   0  0  0  0  0  0  0  0  0  0  0  0
   -3.0588    1.9193  -18.6557 H   0  0  0  0  0  0  0  0  0  0  0  0
   -4.4982    0.6428  -17.0900 H   0  0  0  0  0  0  0  0  0  0  0  0
   -7.6235   -1.6768  -18.4716 H   0  0  0  0  0  0  0  0  0  0  0  0
   -7.1615   -3.1573  -23.6984 H   0  0  0  0  0  0  0  0  0  0  0  0
  1  2  2  0
  2  3  1  0
  4  3  1  6
  4  5  1  0
  5  6  1  0
  6  7  1  0
  7  8  2  0
  8  9  1  0
  9 10  2  0
 10 11  1  0
 11 12  2  0
 12 13  1  0
 11 14  1  0
 10 15  1  0
  9 16  1  0
  8 17  1  0
  6 18  1  0
 18 19  1  0
 18 20  1  0
  6 21  1  6
  5 22  1  0
  5 23  1  0
  4 24  1  0
 24 25  2  0
 24 26  1  0
 26 27  1  0
 27 28  2  0
 28 29  1  0
 29 30  2  0
 30 31  1  0
 31 32  2  0
 32 33  1  0
 33 34  2  0
 34 35  1  0
 35 36  2  0
 35 37  1  0
 34 38  1  0
 33 39  1  0
 32 40  1  0
 30 41  1  0
 28 42  1  0
  3 43  1  0
 26  2  1  0
 36 27  1  0
 18  4  1  0
 36 31  1  0
 12  7  1  0
M  END
>  <cnnaffinities>  (72) 
[5.37714]

>  <score>  (72) 
5.37714

>  <index>  (72) 
74

>  <Smiles>  (72) 
O=C1N([C@]2(C([C@](c3c(c(c(c(c3Cl)[H])[H])[H])[H])(C2([H])[H])[H])([H])[H])C(=O)N1c1c(nc(c2c(c(c(c(c12)[H])[H])[H])[H])[H])[H])[H]

>  <h>  (72) 
<NA>

>  <Training>  (72) 
True

>  <Success>  (72) 
True

>  <enamine_searched>  (72) 
False

>  <enamine_id>  (72) 
nan

$$$$

     RDKit          3D

 66 71  0  0  0  0  0  0  0  0999 V2000
   -7.3962    3.3979  -21.8778 C   0  0  0  0  0  0  0  0  0  0  0  0
   -8.3325    2.9086  -22.8765 N   0  0  0  0  0  0  0  0  0  0  0  0
   -7.8105    2.1846  -23.9088 C   0  0  0  0  0  0  0  0  0  0  0  0
   -6.6063    2.0176  -24.0530 O   0  0  0  0  0  0  0  0  0  0  0  0
   -8.7948    1.5671  -24.8982 C   0  0  0  0  0  0  0  0  0  0  0  0
   -9.4435    0.4136  -24.3039 N   0  0  0  0  0  0  0  0  0  0  0  0
   -8.6882   -0.8249  -24.1547 C   0  0  0  0  0  0  0  0  0  0  0  0
   -9.0674   -1.5696  -22.8465 C   0  0  2  0  0  0  0  0  0  0  0  0
   -8.5467   -0.7762  -21.6253 C   0  0  0  0  0  0  0  0  0  0  0  0
   -9.0232    0.2285  -21.1386 O   0  0  0  0  0  0  0  0  0  0  0  0
   -7.4049   -1.3931  -21.1722 N   0  0  0  0  0  0  0  0  0  0  0  0
   -6.6244   -0.8037  -20.1531 C   0  0  0  0  0  0  0  0  0  0  0  0
   -6.9281   -1.0583  -18.8413 C   0  0  0  0  0  0  0  0  0  0  0  0
   -6.2297   -0.5739  -17.7889 N   0  0  0  0  0  0  0  0  0  0  0  0
   -5.1977    0.1916  -18.0534 C   0  0  0  0  0  0  0  0  0  0  0  0
   -4.7905    0.5576  -19.3697 C   0  0  0  0  0  0  0  0  0  0  0  0
   -3.6947    1.4291  -19.6122 C   0  0  0  0  0  0  0  0  0  0  0  0
   -3.4181    1.8638  -20.8788 C   0  0  0  0  0  0  0  0  0  0  0  0
   -4.2209    1.4563  -21.9675 C   0  0  0  0  0  0  0  0  0  0  0  0
   -5.2219    0.5291  -21.7740 C   0  0  0  0  0  0  0  0  0  0  0  0
   -5.5517    0.0827  -20.4629 C   0  0  0  0  0  0  0  0  0  0  0  0
   -5.7969    0.1835  -22.6267 H   0  0  0  0  0  0  0  0  0  0  0  0
   -4.0615    1.8832  -22.9507 H   0  0  0  0  0  0  0  0  0  0  0  0
   -2.5905    2.5495  -21.0480 H   0  0  0  0  0  0  0  0  0  0  0  0
   -3.0907    1.7417  -18.7648 H   0  0  0  0  0  0  0  0  0  0  0  0
   -4.6283    0.5655  -17.2015 H   0  0  0  0  0  0  0  0  0  0  0  0
   -7.7835   -1.6869  -18.6119 H   0  0  0  0  0  0  0  0  0  0  0  0
   -7.0119   -2.5624  -21.9257 C   0  0  0  0  0  0  0  0  0  0  0  0
   -8.2932   -2.9204  -22.6979 C   0  0  2  0  0  0  0  0  0  0  0  0
   -8.0068   -3.7091  -23.9913 C   0  0  0  0  0  0  0  0  0  0  0  0
   -7.5033   -5.0509  -23.7636 N   0  0  0  0  0  0  0  0  0  0  0  0
   -6.1921   -5.3739  -23.4945 C   0  0  0  0  0  0  0  0  0  0  0  0
   -5.0712   -4.6031  -23.8904 C   0  0  0  0  0  0  0  0  0  0  0  0
   -3.8248   -4.9671  -23.6129 N   0  0  0  0  0  0  0  0  0  0  0  0
   -3.6603   -6.1077  -22.9412 C   0  0  0  0  0  0  0  0  0  0  0  0
   -4.7516   -6.8736  -22.5645 C   0  0  0  0  0  0  0  0  0  0  0  0
   -6.0072   -6.5233  -22.8418 N   0  0  0  0  0  0  0  0  0  0  0  0
   -4.6211   -7.8020  -22.0115 H   0  0  0  0  0  0  0  0  0  0  0  0
   -2.6411   -6.4117  -22.7059 H   0  0  0  0  0  0  0  0  0  0  0  0
   -5.1902   -3.6781  -24.4466 H   0  0  0  0  0  0  0  0  0  0  0  0
   -8.1350   -5.7080  -23.3260 H   0  0  0  0  0  0  0  0  0  0  0  0
   -7.2707   -3.1702  -24.5987 H   0  0  0  0  0  0  0  0  0  0  0  0
   -8.9190   -3.7838  -24.5993 H   0  0  0  0  0  0  0  0  0  0  0  0
   -8.8891   -3.5690  -22.0451 H   0  0  0  0  0  0  0  0  0  0  0  0
   -6.6840   -3.3612  -21.2554 H   0  0  0  0  0  0  0  0  0  0  0  0
   -6.1737   -2.3410  -22.6072 H   0  0  0  0  0  0  0  0  0  0  0  0
  -10.5800   -1.6575  -22.7836 C   0  0  0  0  0  0  0  0  0  0  0  0
  -11.2062   -2.5906  -21.9537 C   0  0  0  0  0  0  0  0  0  0  0  0
  -12.5844   -2.6193  -21.8550 C   0  0  0  0  0  0  0  0  0  0  0  0
  -13.3179   -3.7798  -20.7933 Cl  0  0  0  0  0  0  0  0  0  0  0  0
  -13.3958   -1.7362  -22.5648 C   0  0  0  0  0  0  0  0  0  0  0  0
  -12.7838   -0.7850  -23.3521 C   0  0  0  0  0  0  0  0  0  0  0  0
  -11.3948   -0.7239  -23.4382 C   0  0  0  0  0  0  0  0  0  0  0  0
  -10.8072    0.4197  -24.2013 C   0  0  0  0  0  0  0  0  0  0  0  0
  -11.5028    1.3075  -24.6749 O   0  0  0  0  0  0  0  0  0  0  0  0
  -13.3535   -0.0488  -23.9057 H   0  0  0  0  0  0  0  0  0  0  0  0
  -14.4758   -1.7808  -22.4780 H   0  0  0  0  0  0  0  0  0  0  0  0
  -10.6382   -3.2945  -21.3580 H   0  0  0  0  0  0  0  0  0  0  0  0
   -8.9021   -1.4880  -25.0047 H   0  0  0  0  0  0  0  0  0  0  0  0
   -7.6170   -0.5911  -24.1727 H   0  0  0  0  0  0  0  0  0  0  0  0
   -8.2470    1.2702  -25.8014 H   0  0  0  0  0  0  0  0  0  0  0  0
   -9.5821    2.2728  -25.1823 H   0  0  0  0  0  0  0  0  0  0  0  0
   -9.2707    2.6994  -22.5570 H   0  0  0  0  0  0  0  0  0  0  0  0
   -6.8384    2.5503  -21.4590 H   0  0  0  0  0  0  0  0  0  0  0  0
   -6.6946    4.0973  -22.3397 H   0  0  0  0  0  0  0  0  0  0  0  0
   -7.9276    3.9336  -21.0900 H   0  0  0  0  0  0  0  0  0  0  0  0
  1  2  1  0
  2  3  1  0
  3  4  2  0
  3  5  1  0
  5  6  1  0
  6  7  1  0
  8  7  1  6
  8  9  1  0
  9 10  2  0
  9 11  1  0
 11 12  1  0
 12 13  2  0
 13 14  1  0
 14 15  2  0
 15 16  1  0
 16 17  2  0
 17 18  1  0
 18 19  2  0
 19 20  1  0
 20 21  2  0
 20 22  1  0
 19 23  1  0
 18 24  1  0
 17 25  1  0
 15 26  1  0
 13 27  1  0
 11 28  1  0
 28 29  1  0
 29 30  1  0
 30 31  1  0
 31 32  1  0
 32 33  2  0
 33 34  1  0
 34 35  2  0
 35 36  1  0
 36 37  2  0
 36 38  1  0
 35 39  1  0
 33 40  1  0
 31 41  1  0
 30 42  1  0
 30 43  1  0
 29 44  1  1
 28 45  1  0
 28 46  1  0
  8 47  1  0
 47 48  2  0
 48 49  1  0
 49 50  1  0
 49 51  2  0
 51 52  1  0
 52 53  2  0
 53 54  1  0
 54 55  2  0
 52 56  1  0
 51 57  1  0
 48 58  1  0
  7 59  1  0
  7 60  1  0
  5 61  1  0
  5 62  1  0
  2 63  1  0
  1 64  1  0
  1 65  1  0
  1 66  1  0
 54  6  1  0
 29  8  1  0
 37 32  1  0
 53 47  1  0
 21 12  1  0
 21 16  1  0
M  END
>  <cnnaffinities>  (73) 
[6.49024, 6.55054, 6.34405, 6.08972]

>  <score>  (73) 
6.49024

>  <index>  (73) 
75

>  <Smiles>  (73) 
C(N(C(=O)C(N1C([C@@]2(C(=O)N(c3c(nc(c4c(c(c(c(c34)[H])[H])[H])[H])[H])[H])C([C@@]2(C(N(c2c(nc(c(n2)[H])[H])[H])[H])([H])[H])[H])([H])[H])c2c(c(Cl)c(c(c2C1=O)[H])[H])[H])([H])[H])([H])[H])[H])([H])([H])[H]

>  <h>  (73) 
<NA>

>  <Training>  (73) 
True

>  <Success>  (73) 
True

>  <enamine_searched>  (73) 
False

>  <enamine_id>  (73) 
nan

$$$$

     RDKit          3D

 66 71  0  0  0  0  0  0  0  0999 V2000
   -8.2102   -3.4592  -24.0832 C   0  0  0  0  0  0  0  0  0  0  0  0
   -8.4684   -2.7213  -22.7670 C   0  0  1  0  0  0  0  0  0  0  0  0
   -7.1846   -2.5165  -21.9420 C   0  0  0  0  0  0  0  0  0  0  0  0
   -7.4643   -1.3244  -21.1684 N   0  0  0  0  0  0  0  0  0  0  0  0
   -6.6373   -0.7886  -20.1491 C   0  0  0  0  0  0  0  0  0  0  0  0
   -6.9276   -1.0527  -18.8352 C   0  0  0  0  0  0  0  0  0  0  0  0
   -6.2070   -0.5869  -17.7859 N   0  0  0  0  0  0  0  0  0  0  0  0
   -5.1973    0.2083  -18.0578 C   0  0  0  0  0  0  0  0  0  0  0  0
   -4.8047    0.5882  -19.3768 C   0  0  0  0  0  0  0  0  0  0  0  0
   -3.6838    1.4262  -19.6273 C   0  0  0  0  0  0  0  0  0  0  0  0
   -3.3813    1.8325  -20.9009 C   0  0  0  0  0  0  0  0  0  0  0  0
   -4.1739    1.3994  -21.9882 C   0  0  0  0  0  0  0  0  0  0  0  0
   -5.1571    0.4553  -21.7863 C   0  0  0  0  0  0  0  0  0  0  0  0
   -5.5379    0.0657  -20.4685 C   0  0  0  0  0  0  0  0  0  0  0  0
   -5.6533    0.0118  -22.6462 H   0  0  0  0  0  0  0  0  0  0  0  0
   -3.9514    1.7617  -22.9901 H   0  0  0  0  0  0  0  0  0  0  0  0
   -2.5274    2.4848  -21.0796 H   0  0  0  0  0  0  0  0  0  0  0  0
   -3.0952    1.7546  -18.7768 H   0  0  0  0  0  0  0  0  0  0  0  0
   -4.6142    0.5833  -17.2146 H   0  0  0  0  0  0  0  0  0  0  0  0
   -7.7910   -1.6689  -18.5892 H   0  0  0  0  0  0  0  0  0  0  0  0
   -8.5234   -0.5890  -21.6376 C   0  0  0  0  0  0  0  0  0  0  0  0
   -8.8901    0.4637  -21.1540 O   0  0  0  0  0  0  0  0  0  0  0  0
   -9.1229   -1.3120  -22.8597 C   0  0  1  0  0  0  0  0  0  0  0  0
   -8.7031   -0.5823  -24.1488 C   0  0  0  0  0  0  0  0  0  0  0  0
   -9.3122    0.7290  -24.2472 N   0  0  0  0  0  0  0  0  0  0  0  0
   -8.5351    1.7783  -24.8743 C   0  0  0  0  0  0  0  0  0  0  0  0
   -7.5563    2.4219  -23.9015 C   0  0  0  0  0  0  0  0  0  0  0  0
   -8.2679    3.2318  -22.8597 N   0  0  0  0  0  4  0  0  0  0  0  0
   -7.4802    3.3371  -21.5994 C   0  0  0  0  0  0  0  0  0  0  0  0
   -6.3298    4.3230  -21.6422 C   0  0  0  0  0  0  0  0  0  0  0  0
   -6.8009    5.6113  -21.9727 O   0  0  0  0  0  0  0  0  0  0  0  0
   -7.4449    5.5971  -23.2299 C   0  0  0  0  0  0  0  0  0  0  0  0
   -8.6471    4.6464  -23.2643 C   0  0  0  0  0  0  0  0  0  0  0  0
   -9.4059    4.9916  -22.5571 H   0  0  0  0  0  0  0  0  0  0  0  0
   -9.0838    4.6356  -24.2638 H   0  0  0  0  0  0  0  0  0  0  0  0
   -6.7233    5.3188  -24.0140 H   0  0  0  0  0  0  0  0  0  0  0  0
   -7.7721    6.6229  -23.4137 H   0  0  0  0  0  0  0  0  0  0  0  0
   -5.8769    4.3966  -20.6481 H   0  0  0  0  0  0  0  0  0  0  0  0
   -5.5508    4.0005  -22.3507 H   0  0  0  0  0  0  0  0  0  0  0  0
   -7.1314    2.3431  -21.3221 H   0  0  0  0  0  0  0  0  0  0  0  0
   -8.1588    3.6798  -20.8193 H   0  0  0  0  0  0  0  0  0  0  0  0
   -9.1246    2.7105  -22.5928 H   0  0  0  0  0  0  0  0  0  0  0  0
   -6.9903    1.6521  -23.3659 H   0  0  0  0  0  0  0  0  0  0  0  0
   -6.8389    3.0434  -24.4397 H   0  0  0  0  0  0  0  0  0  0  0  0
   -7.9823    1.3518  -25.7187 H   0  0  0  0  0  0  0  0  0  0  0  0
   -9.2509    2.5140  -25.2422 H   0  0  0  0  0  0  0  0  0  0  0  0
  -10.6604    0.8850  -24.0985 C   0  0  0  0  0  0  0  0  0  0  0  0
  -11.2658    1.8807  -24.4814 O   0  0  0  0  0  0  0  0  0  0  0  0
  -11.3541   -0.2315  -23.3852 C   0  0  0  0  0  0  0  0  0  0  0  0
  -12.7413   -0.1600  -23.2931 C   0  0  0  0  0  0  0  0  0  0  0  0
  -13.4369   -1.1044  -22.5643 C   0  0  0  0  0  0  0  0  0  0  0  0
  -12.7190   -2.1119  -21.9170 C   0  0  0  0  0  0  0  0  0  0  0  0
  -13.5651   -3.2561  -20.9088 Cl  0  0  0  0  0  0  0  0  0  0  0  0
  -11.3419   -2.2021  -22.0109 C   0  0  0  0  0  0  0  0  0  0  0  0
  -10.6351   -1.2766  -22.7846 C   0  0  0  0  0  0  0  0  0  0  0  0
  -10.8320   -2.9811  -21.4527 H   0  0  0  0  0  0  0  0  0  0  0  0
  -14.5149   -1.0589  -22.4587 H   0  0  0  0  0  0  0  0  0  0  0  0
  -13.2386    0.6666  -23.7918 H   0  0  0  0  0  0  0  0  0  0  0  0
   -7.6154   -0.4636  -24.1756 H   0  0  0  0  0  0  0  0  0  0  0  0
   -9.0015   -1.2050  -25.0029 H   0  0  0  0  0  0  0  0  0  0  0  0
   -6.9706   -3.3624  -21.2804 H   0  0  0  0  0  0  0  0  0  0  0  0
   -6.3180   -2.3748  -22.6059 H   0  0  0  0  0  0  0  0  0  0  0  0
   -9.1441   -3.3331  -22.1689 H   0  0  0  0  0  0  0  0  0  0  0  0
   -9.1175   -3.5727  -24.6893 H   0  0  0  0  0  0  0  0  0  0  0  0
   -7.4677   -2.9295  -24.6923 H   0  0  0  0  0  0  0  0  0  0  0  0
   -7.8118   -4.4630  -23.8977 H   0  0  0  0  0  0  0  0  0  0  0  0
  1  2  1  0
  2  3  1  0
  3  4  1  0
  4  5  1  0
  5  6  2  0
  6  7  1  0
  7  8  2  0
  8  9  1  0
  9 10  2  0
 10 11  1  0
 11 12  2  0
 12 13  1  0
 13 14  2  0
 13 15  1  0
 12 16  1  0
 11 17  1  0
 10 18  1  0
  8 19  1  0
  6 20  1  0
  4 21  1  0
 21 22  2  0
 21 23  1  0
 23 24  1  6
 24 25  1  0
 25 26  1  0
 26 27  1  0
 27 28  1  0
 28 29  1  0
 29 30  1  0
 30 31  1  0
 31 32  1  0
 32 33  1  0
 33 34  1  0
 33 35  1  0
 32 36  1  0
 32 37  1  0
 30 38  1  0
 30 39  1  0
 29 40  1  0
 29 41  1  0
 28 42  1  0
 27 43  1  0
 27 44  1  0
 26 45  1  0
 26 46  1  0
 25 47  1  0
 47 48  2  0
 47 49  1  0
 49 50  2  0
 50 51  1  0
 51 52  2  0
 52 53  1  0
 52 54  1  0
 54 55  2  0
 54 56  1  0
 51 57  1  0
 50 58  1  0
 24 59  1  0
 24 60  1  0
  3 61  1  0
  3 62  1  0
  2 63  1  1
  1 64  1  0
  1 65  1  0
  1 66  1  0
 23  2  1  0
 33 28  1  0
 55 49  1  0
 14  5  1  0
 55 23  1  0
 14  9  1  0
M  CHG  1  28   1
M  END
>  <cnnaffinities>  (74) 
[5.85471, 6.35436]

>  <score>  (74) 
5.85471

>  <index>  (74) 
76

>  <Smiles>  (74) 
C([C@]1(C(N(c2c(nc(c3c(c(c(c(c23)[H])[H])[H])[H])[H])[H])C(=O)[C@]21C(N(C(C([N+]1(C(C(OC(C1([H])[H])([H])[H])([H])[H])([H])[H])[H])([H])[H])([H])[H])C(=O)c1c(c(c(Cl)c(c21)[H])[H])[H])([H])[H])([H])[H])[H])([H])([H])[H]

>  <h>  (74) 
<NA>

>  <Training>  (74) 
True

>  <Success>  (74) 
True

>  <enamine_searched>  (74) 
False

>  <enamine_id>  (74) 
nan

$$$$

     RDKit          3D

 55 60  0  0  0  0  0  0  0  0999 V2000
   -8.0464   -4.0230  -23.8038 C   0  0  0  0  0  0  0  0  0  0  0  0
   -8.3779   -3.1279  -22.6190 C   0  0  1  0  0  0  0  0  0  0  0  0
   -7.1144   -2.5161  -22.0087 C   0  0  0  0  0  0  0  0  0  0  0  0
   -7.5913   -1.3289  -21.3371 N   0  0  0  0  0  0  0  0  0  0  0  0
   -6.8712   -0.7227  -20.2718 C   0  0  0  0  0  0  0  0  0  0  0  0
   -7.1165   -1.0920  -18.9735 C   0  0  0  0  0  0  0  0  0  0  0  0
   -6.3712   -0.7119  -17.9033 N   0  0  0  0  0  0  0  0  0  0  0  0
   -5.3547    0.0853  -18.1268 C   0  0  0  0  0  0  0  0  0  0  0  0
   -5.0055    0.5814  -19.4172 C   0  0  0  0  0  0  0  0  0  0  0  0
   -3.9148    1.4740  -19.6070 C   0  0  0  0  0  0  0  0  0  0  0  0
   -3.6225    1.9521  -20.8572 C   0  0  0  0  0  0  0  0  0  0  0  0
   -4.4021    1.5641  -21.9716 C   0  0  0  0  0  0  0  0  0  0  0  0
   -5.4571    0.6961  -21.8111 C   0  0  0  0  0  0  0  0  0  0  0  0
   -5.7848    0.1770  -20.5288 C   0  0  0  0  0  0  0  0  0  0  0  0
   -6.0859    0.4332  -22.6571 H   0  0  0  0  0  0  0  0  0  0  0  0
   -4.1585    1.9508  -22.9601 H   0  0  0  0  0  0  0  0  0  0  0  0
   -2.8154    2.6692  -20.9952 H   0  0  0  0  0  0  0  0  0  0  0  0
   -3.3283    1.7746  -18.7387 H   0  0  0  0  0  0  0  0  0  0  0  0
   -4.7437    0.3792  -17.2686 H   0  0  0  0  0  0  0  0  0  0  0  0
   -7.9569   -1.7436  -18.7509 H   0  0  0  0  0  0  0  0  0  0  0  0
   -8.8643   -0.9544  -21.7089 C   0  0  0  0  0  0  0  0  0  0  0  0
   -9.4628   -0.0203  -21.2146 O   0  0  0  0  0  0  0  0  0  0  0  0
   -9.3224   -1.8958  -22.8602 C   0  0  1  0  0  0  0  0  0  0  0  0
   -9.0842   -1.1933  -24.2113 C   0  0  0  0  0  0  0  0  0  0  0  0
   -9.5851   -1.9843  -25.3304 N   0  0  0  0  0  0  0  0  0  0  0  0
   -9.0807   -1.6280  -26.6615 C   0  0  0  0  0  0  0  0  0  0  0  0
   -9.6184   -0.3007  -27.1181 C   0  0  0  0  0  0  0  0  0  0  0  0
  -10.8620    0.0187  -27.5501 C   0  0  0  0  0  0  0  0  0  0  0  0
  -10.9369    1.3771  -27.6573 O   0  0  0  0  0  0  0  0  0  0  0  0
   -9.7130    1.8125  -27.2973 C   0  0  0  0  0  0  0  0  0  0  0  0
   -8.8847    0.8763  -26.9717 N   0  0  0  0  0  0  0  0  0  0  0  0
   -9.5291    2.8808  -27.3068 H   0  0  0  0  0  0  0  0  0  0  0  0
  -11.7432   -0.5538  -27.8101 H   0  0  0  0  0  0  0  0  0  0  0  0
   -7.9849   -1.5826  -26.6243 H   0  0  0  0  0  0  0  0  0  0  0  0
   -9.3843   -2.4332  -27.3398 H   0  0  0  0  0  0  0  0  0  0  0  0
  -10.8694   -2.4857  -25.3004 C   0  0  0  0  0  0  0  0  0  0  0  0
  -11.4571   -2.8156  -26.3172 O   0  0  0  0  0  0  0  0  0  0  0  0
  -11.5058   -2.5982  -23.9561 C   0  0  0  0  0  0  0  0  0  0  0  0
  -12.8394   -3.0102  -23.8828 C   0  0  0  0  0  0  0  0  0  0  0  0
  -13.4818   -3.0884  -22.6580 C   0  0  0  0  0  0  0  0  0  0  0  0
  -12.7615   -2.7440  -21.5184 C   0  0  0  0  0  0  0  0  0  0  0  0
  -13.3815   -2.8534  -20.3299 F   0  0  0  0  0  0  0  0  0  0  0  0
  -11.4517   -2.3049  -21.5807 C   0  0  0  0  0  0  0  0  0  0  0  0
  -10.7934   -2.2478  -22.8055 C   0  0  0  0  0  0  0  0  0  0  0  0
  -10.9337   -1.9553  -20.6991 H   0  0  0  0  0  0  0  0  0  0  0  0
  -14.5197   -3.3977  -22.5636 H   0  0  0  0  0  0  0  0  0  0  0  0
  -13.3369   -3.2876  -24.8085 H   0  0  0  0  0  0  0  0  0  0  0  0
   -8.0123   -1.0160  -24.3448 H   0  0  0  0  0  0  0  0  0  0  0  0
   -9.5757   -0.2131  -24.1980 H   0  0  0  0  0  0  0  0  0  0  0  0
   -6.6121   -3.1786  -21.2990 H   0  0  0  0  0  0  0  0  0  0  0  0
   -6.3930   -2.2682  -22.8014 H   0  0  0  0  0  0  0  0  0  0  0  0
   -8.8758   -3.7373  -21.8536 H   0  0  0  0  0  0  0  0  0  0  0  0
   -7.5405   -3.4566  -24.5889 H   0  0  0  0  0  0  0  0  0  0  0  0
   -8.9389   -4.4702  -24.2431 H   0  0  0  0  0  0  0  0  0  0  0  0
   -7.3782   -4.8299  -23.4925 H   0  0  0  0  0  0  0  0  0  0  0  0
  1  2  1  0
  2  3  1  0
  3  4  1  0
  4  5  1  0
  5  6  2  0
  6  7  1  0
  7  8  2  0
  8  9  1  0
  9 10  2  0
 10 11  1  0
 11 12  2  0
 12 13  1  0
 13 14  2  0
 13 15  1  0
 12 16  1  0
 11 17  1  0
 10 18  1  0
  8 19  1  0
  6 20  1  0
  4 21  1  0
 21 22  2  0
 21 23  1  0
 23 24  1  6
 24 25  1  0
 25 26  1  0
 26 27  1  0
 27 28  2  0
 28 29  1  0
 29 30  1  0
 30 31  2  0
 30 32  1  0
 28 33  1  0
 26 34  1  0
 26 35  1  0
 25 36  1  0
 36 37  2  0
 36 38  1  0
 38 39  2  0
 39 40  1  0
 40 41  2  0
 41 42  1  0
 41 43  1  0
 43 44  2  0
 43 45  1  0
 40 46  1  0
 39 47  1  0
 24 48  1  0
 24 49  1  0
  3 50  1  0
  3 51  1  0
  2 52  1  1
  1 53  1  0
  1 54  1  0
  1 55  1  0
 23  2  1  0
 31 27  1  0
 44 38  1  0
 14  5  1  0
 44 23  1  0
 14  9  1  0
M  END
>  <cnnaffinities>  (75) 
[5.47307]

>  <score>  (75) 
5.47307

>  <index>  (75) 
77

>  <Smiles>  (75) 
C([C@]1(C(N(c2c(nc(c3c(c(c(c(c23)[H])[H])[H])[H])[H])[H])C(=O)[C@]21C(N(C(c1c(oc(n1)[H])[H])([H])[H])C(=O)c1c(c(c(F)c(c21)[H])[H])[H])([H])[H])([H])[H])[H])([H])([H])[H]

>  <h>  (75) 
<NA>

>  <Training>  (75) 
True

>  <Success>  (75) 
True

>  <enamine_searched>  (75) 
False

>  <enamine_id>  (75) 
nan

$$$$

     RDKit          3D

 56 60  0  0  0  0  0  0  0  0999 V2000
   -8.0101   -5.9725  -27.0107 C   0  0  0  0  0  0  0  0  0  0  0  0
   -8.2486   -4.5474  -27.1156 N   0  0  0  0  0  0  0  0  0  0  0  0
   -7.2760   -3.6874  -26.7271 C   0  0  0  0  0  0  0  0  0  0  0  0
   -6.2063   -4.0647  -26.2645 O   0  0  0  0  0  0  0  0  0  0  0  0
   -7.6361   -2.2032  -26.8455 C   0  0  0  0  0  0  0  0  0  0  0  0
   -8.4962   -1.8011  -25.7351 N   0  0  0  0  0  0  0  0  0  0  0  0
   -7.9270   -1.3134  -24.4828 C   0  0  0  0  0  0  0  0  0  0  0  0
   -8.7919   -1.5992  -23.2153 C   0  0  2  0  0  0  0  0  0  0  0  0
   -8.2616   -0.6393  -22.1317 C   0  0  0  0  0  0  0  0  0  0  0  0
   -8.4271    0.5607  -22.0883 O   0  0  0  0  0  0  0  0  0  0  0  0
   -7.4961   -1.3507  -21.2270 N   0  0  0  0  0  0  0  0  0  0  0  0
   -6.7048   -0.7578  -20.2124 C   0  0  0  0  0  0  0  0  0  0  0  0
   -6.9403   -1.1077  -18.9055 C   0  0  0  0  0  0  0  0  0  0  0  0
   -6.2351   -0.6551  -17.8416 N   0  0  0  0  0  0  0  0  0  0  0  0
   -5.2357    0.1584  -18.0844 C   0  0  0  0  0  0  0  0  0  0  0  0
   -4.8616    0.5813  -19.3911 C   0  0  0  0  0  0  0  0  0  0  0  0
   -3.7730    1.4713  -19.5901 C   0  0  0  0  0  0  0  0  0  0  0  0
   -3.5026    1.9724  -20.8329 C   0  0  0  0  0  0  0  0  0  0  0  0
   -4.2731    1.5592  -21.9438 C   0  0  0  0  0  0  0  0  0  0  0  0
   -5.2870    0.6487  -21.7891 C   0  0  0  0  0  0  0  0  0  0  0  0
   -5.6261    0.1453  -20.4983 C   0  0  0  0  0  0  0  0  0  0  0  0
   -5.8553    0.3323  -22.6586 H   0  0  0  0  0  0  0  0  0  0  0  0
   -4.0494    1.9520  -22.9314 H   0  0  0  0  0  0  0  0  0  0  0  0
   -2.7042    2.6962  -20.9761 H   0  0  0  0  0  0  0  0  0  0  0  0
   -3.1856    1.7668  -18.7245 H   0  0  0  0  0  0  0  0  0  0  0  0
   -4.6643    0.5341  -17.2325 H   0  0  0  0  0  0  0  0  0  0  0  0
   -7.7550   -1.7930  -18.6713 H   0  0  0  0  0  0  0  0  0  0  0  0
   -7.4102   -2.7661  -21.5278 C   0  0  0  0  0  0  0  0  0  0  0  0
   -8.5468   -2.9844  -22.5299 C   0  0  2  0  0  0  0  0  0  0  0  0
   -8.3161   -4.1631  -23.4613 C   0  0  0  0  0  0  0  0  0  0  0  0
   -8.2589   -5.0955  -22.8917 H   0  0  0  0  0  0  0  0  0  0  0  0
   -7.3800   -4.0603  -24.0238 H   0  0  0  0  0  0  0  0  0  0  0  0
   -9.1438   -4.2515  -24.1718 H   0  0  0  0  0  0  0  0  0  0  0  0
   -9.4592   -3.1657  -21.9422 H   0  0  0  0  0  0  0  0  0  0  0  0
   -7.5443   -3.3641  -20.6213 H   0  0  0  0  0  0  0  0  0  0  0  0
   -6.4264   -3.0253  -21.9490 H   0  0  0  0  0  0  0  0  0  0  0  0
  -10.2649   -1.3982  -23.5327 C   0  0  0  0  0  0  0  0  0  0  0  0
  -11.2143   -1.2922  -22.4975 C   0  0  0  0  0  0  0  0  0  0  0  0
  -12.5617   -1.2198  -22.8202 C   0  0  0  0  0  0  0  0  0  0  0  0
  -13.7933   -1.3415  -21.5991 Cl  0  0  0  0  0  0  0  0  0  0  0  0
  -12.9938   -1.1262  -24.1435 C   0  0  0  0  0  0  0  0  0  0  0  0
  -12.0659   -1.2201  -25.1592 C   0  0  0  0  0  0  0  0  0  0  0  0
  -10.7260   -1.4438  -24.8556 C   0  0  0  0  0  0  0  0  0  0  0  0
   -9.8323   -1.8636  -25.9746 C   0  0  0  0  0  0  0  0  0  0  0  0
  -10.2630   -2.2843  -27.0493 O   0  0  0  0  0  0  0  0  0  0  0  0
  -12.3519   -1.1588  -26.2064 H   0  0  0  0  0  0  0  0  0  0  0  0
  -14.0555   -1.0474  -24.3454 H   0  0  0  0  0  0  0  0  0  0  0  0
  -10.9131   -1.2856  -21.4515 H   0  0  0  0  0  0  0  0  0  0  0  0
   -6.9335   -1.7611  -24.3652 H   0  0  0  0  0  0  0  0  0  0  0  0
   -7.7694   -0.2269  -24.5327 H   0  0  0  0  0  0  0  0  0  0  0  0
   -6.7178   -1.6100  -26.8599 H   0  0  0  0  0  0  0  0  0  0  0  0
   -8.2095   -2.0328  -27.7644 H   0  0  0  0  0  0  0  0  0  0  0  0
   -9.1538   -4.1820  -27.3837 H   0  0  0  0  0  0  0  0  0  0  0  0
   -8.9186   -6.5189  -27.2715 H   0  0  0  0  0  0  0  0  0  0  0  0
   -7.6953   -6.2367  -25.9951 H   0  0  0  0  0  0  0  0  0  0  0  0
   -7.1979   -6.2785  -27.6761 H   0  0  0  0  0  0  0  0  0  0  0  0
  1  2  1  0
  2  3  1  0
  3  4  2  0
  3  5  1  0
  5  6  1  0
  6  7  1  0
  8  7  1  6
  8  9  1  0
  9 10  2  0
  9 11  1  0
 11 12  1  0
 12 13  2  0
 13 14  1  0
 14 15  2  0
 15 16  1  0
 16 17  2  0
 17 18  1  0
 18 19  2  0
 19 20  1  0
 20 21  2  0
 20 22  1  0
 19 23  1  0
 18 24  1  0
 17 25  1  0
 15 26  1  0
 13 27  1  0
 11 28  1  0
 28 29  1  0
 29 30  1  0
 30 31  1  0
 30 32  1  0
 30 33  1  0
 29 34  1  1
 28 35  1  0
 28 36  1  0
  8 37  1  0
 37 38  2  0
 38 39  1  0
 39 40  1  0
 39 41  2  0
 41 42  1  0
 42 43  2  0
 43 44  1  0
 44 45  2  0
 42 46  1  0
 41 47  1  0
 38 48  1  0
  7 49  1  0
  7 50  1  0
  5 51  1  0
  5 52  1  0
  2 53  1  0
  1 54  1  0
  1 55  1  0
  1 56  1  0
 44  6  1  0
 29  8  1  0
 43 37  1  0
 21 12  1  0
 21 16  1  0
M  END
>  <cnnaffinities>  (76) 
[5.87892, 5.76]

>  <score>  (76) 
5.87892

>  <index>  (76) 
78

>  <Smiles>  (76) 
C(N(C(=O)C(N1C([C@@]2(C(=O)N(c3c(nc(c4c(c(c(c(c34)[H])[H])[H])[H])[H])[H])C([C@@]2(C([H])([H])[H])[H])([H])[H])c2c(c(Cl)c(c(c2C1=O)[H])[H])[H])([H])[H])([H])[H])[H])([H])([H])[H]

>  <h>  (76) 
<NA>

>  <Training>  (76) 
True

>  <Success>  (76) 
True

>  <enamine_searched>  (76) 
False

>  <enamine_id>  (76) 
nan

$$$$

     RDKit          3D

 45 49  0  0  0  0  0  0  0  0999 V2000
   -9.4464   -4.0224  -22.5234 C   0  0  0  0  0  0  0  0  0  0  0  0
   -8.8296   -2.7582  -22.2010 N   0  0  0  0  0  0  0  0  0  0  0  0
   -7.8779   -2.6378  -21.2292 C   0  0  0  0  0  0  0  0  0  0  0  0
   -7.4016   -3.5154  -20.5404 O   0  0  0  0  0  0  0  0  0  0  0  0
   -7.5264   -1.2819  -21.1755 N   0  0  0  0  0  0  0  0  0  0  0  0
   -6.6775   -0.7718  -20.1666 C   0  0  0  0  0  0  0  0  0  0  0  0
   -6.9255   -1.1025  -18.8568 C   0  0  0  0  0  0  0  0  0  0  0  0
   -6.2255   -0.6206  -17.8057 N   0  0  0  0  0  0  0  0  0  0  0  0
   -5.2163    0.1693  -18.0799 C   0  0  0  0  0  0  0  0  0  0  0  0
   -4.8249    0.5427  -19.3952 C   0  0  0  0  0  0  0  0  0  0  0  0
   -3.7204    1.4012  -19.6146 C   0  0  0  0  0  0  0  0  0  0  0  0
   -3.4386    1.8524  -20.8716 C   0  0  0  0  0  0  0  0  0  0  0  0
   -4.2208    1.4336  -21.9702 C   0  0  0  0  0  0  0  0  0  0  0  0
   -5.2190    0.5098  -21.8023 C   0  0  0  0  0  0  0  0  0  0  0  0
   -5.5859    0.0865  -20.4899 C   0  0  0  0  0  0  0  0  0  0  0  0
   -5.7323    0.1175  -22.6757 H   0  0  0  0  0  0  0  0  0  0  0  0
   -4.0148    1.8344  -22.9576 H   0  0  0  0  0  0  0  0  0  0  0  0
   -2.6223    2.5481  -21.0297 H   0  0  0  0  0  0  0  0  0  0  0  0
   -3.1323    1.6938  -18.7511 H   0  0  0  0  0  0  0  0  0  0  0  0
   -4.6576    0.5693  -17.2362 H   0  0  0  0  0  0  0  0  0  0  0  0
   -7.7426   -1.7774  -18.6154 H   0  0  0  0  0  0  0  0  0  0  0  0
   -8.2869   -0.5222  -22.0642 C   0  0  0  0  0  0  0  0  0  0  0  0
   -8.2217    0.6724  -22.2218 O   0  0  0  0  0  0  0  0  0  0  0  0
   -9.2105   -1.4910  -22.7719 C   0  0  0  0  0  0  0  0  0  0  0  0
   -9.2641   -1.3869  -24.3091 C   0  0  0  0  0  0  0  0  0  0  0  0
  -10.7057   -1.0052  -24.2433 N   0  0  0  0  0  0  0  0  0  0  0  0
  -11.7546   -1.9888  -25.1249 S   0  0  0  0  0  0  0  0  0  0  0  0
  -11.7138   -3.3530  -24.6039 O   0  0  0  0  0  0  0  0  0  0  0  0
  -11.4753   -1.7534  -26.5272 O   0  0  0  0  0  0  0  0  0  0  0  0
  -13.3516   -1.3285  -24.7354 C   0  0  0  0  0  0  0  0  0  0  0  0
  -14.1388   -1.9458  -23.6140 C   0  0  0  0  0  0  0  0  0  0  0  0
  -14.4840   -2.2688  -25.0310 C   0  0  0  0  0  0  0  0  0  0  0  0
  -14.2066   -3.2518  -25.4000 H   0  0  0  0  0  0  0  0  0  0  0  0
  -15.3768   -1.8367  -25.4650 H   0  0  0  0  0  0  0  0  0  0  0  0
  -13.6443   -2.7218  -23.0373 H   0  0  0  0  0  0  0  0  0  0  0  0
  -14.8144   -1.2952  -23.0673 H   0  0  0  0  0  0  0  0  0  0  0  0
  -13.4819   -0.2727  -24.9420 H   0  0  0  0  0  0  0  0  0  0  0  0
  -10.7025   -1.0814  -22.7625 C   0  0  0  0  0  0  0  0  0  0  0  0
  -11.3794   -1.8122  -22.3123 H   0  0  0  0  0  0  0  0  0  0  0  0
  -10.8623   -0.0896  -22.3346 H   0  0  0  0  0  0  0  0  0  0  0  0
   -9.0696   -2.3322  -24.8232 H   0  0  0  0  0  0  0  0  0  0  0  0
   -8.6709   -0.5800  -24.7415 H   0  0  0  0  0  0  0  0  0  0  0  0
   -8.8616   -4.7819  -22.0056 H   0  0  0  0  0  0  0  0  0  0  0  0
   -9.3949   -4.2202  -23.5975 H   0  0  0  0  0  0  0  0  0  0  0  0
  -10.4945   -4.0515  -22.1967 H   0  0  0  0  0  0  0  0  0  0  0  0
  1  2  1  0
  2  3  1  0
  3  4  2  0
  3  5  1  0
  5  6  1  0
  6  7  2  0
  7  8  1  0
  8  9  2  0
  9 10  1  0
 10 11  2  0
 11 12  1  0
 12 13  2  0
 13 14  1  0
 14 15  2  0
 14 16  1  0
 13 17  1  0
 12 18  1  0
 11 19  1  0
  9 20  1  0
  7 21  1  0
  5 22  1  0
 22 23  2  0
 22 24  1  0
 24 25  1  0
 25 26  1  0
 26 27  1  0
 27 28  2  0
 27 29  2  0
 27 30  1  0
 30 31  1  0
 31 32  1  0
 32 33  1  0
 32 34  1  0
 31 35  1  0
 31 36  1  0
 30 37  1  0
 26 38  1  0
 38 39  1  0
 38 40  1  0
 25 41  1  0
 25 42  1  0
  1 43  1  0
  1 44  1  0
  1 45  1  0
 24  2  1  0
 32 30  1  0
 15  6  1  0
 38 24  1  0
 15 10  1  0
M  END
>  <cnnaffinities>  (77) 
[5.11054, 5.10856, 5.10825]

>  <score>  (77) 
5.11054

>  <index>  (77) 
79

>  <Smiles>  (77) 
C(N1C(=O)N(c2c(nc(c3c(c(c(c(c23)[H])[H])[H])[H])[H])[H])C(=O)C21C(N(S(=O)(=O)C1(C(C1([H])[H])([H])[H])[H])C2([H])[H])([H])[H])([H])([H])[H]

>  <h>  (77) 
<NA>

>  <Training>  (77) 
True

>  <Success>  (77) 
True

>  <enamine_searched>  (77) 
False

>  <enamine_id>  (77) 
nan

$$$$

     RDKit          3D

 60 65  0  0  0  0  0  0  0  0999 V2000
   -8.8527   -7.8599  -25.9824 C   0  0  0  0  0  0  0  0  0  0  0  0
   -8.0727   -6.9580  -25.1715 N   0  0  0  0  0  0  0  0  0  0  0  0
   -7.3707   -7.2603  -24.0567 C   0  0  0  0  0  0  0  0  0  0  0  0
   -7.3897   -8.3172  -23.4459 O   0  0  0  0  0  0  0  0  0  0  0  0
   -6.5461   -6.1030  -23.5351 C   0  0  0  0  0  0  0  0  0  0  0  0
   -6.8785   -4.7816  -23.9648 N   0  0  0  0  0  0  0  0  0  0  0  0
   -8.0387   -4.1695  -23.3650 C   0  0  0  0  0  0  0  0  0  0  0  0
   -7.8354   -2.6651  -23.1581 C   0  0  2  0  0  0  0  0  0  0  0  0
   -6.8354   -2.4120  -22.0117 C   0  0  0  0  0  0  0  0  0  0  0  0
   -5.7479   -2.9314  -21.8438 O   0  0  0  0  0  0  0  0  0  0  0  0
   -7.3678   -1.4645  -21.1784 N   0  0  0  0  0  0  0  0  0  0  0  0
   -6.6014   -0.8402  -20.1692 C   0  0  0  0  0  0  0  0  0  0  0  0
   -6.9209   -1.0648  -18.8565 C   0  0  0  0  0  0  0  0  0  0  0  0
   -6.2298   -0.5703  -17.8030 N   0  0  0  0  0  0  0  0  0  0  0  0
   -5.2041    0.2022  -18.0742 C   0  0  0  0  0  0  0  0  0  0  0  0
   -4.7914    0.5460  -19.3957 C   0  0  0  0  0  0  0  0  0  0  0  0
   -3.6819    1.4017  -19.6252 C   0  0  0  0  0  0  0  0  0  0  0  0
   -3.3951    1.8396  -20.8868 C   0  0  0  0  0  0  0  0  0  0  0  0
   -4.1884    1.4204  -21.9826 C   0  0  0  0  0  0  0  0  0  0  0  0
   -5.1964    0.5016  -21.8097 C   0  0  0  0  0  0  0  0  0  0  0  0
   -5.5279    0.0475  -20.4933 C   0  0  0  0  0  0  0  0  0  0  0  0
   -5.7351    0.1175  -22.6803 H   0  0  0  0  0  0  0  0  0  0  0  0
   -3.9715    1.8108  -22.9724 H   0  0  0  0  0  0  0  0  0  0  0  0
   -2.5555    2.5116  -21.0559 H   0  0  0  0  0  0  0  0  0  0  0  0
   -3.1004    1.7281  -18.7665 H   0  0  0  0  0  0  0  0  0  0  0  0
   -4.6387    0.5963  -17.2280 H   0  0  0  0  0  0  0  0  0  0  0  0
   -7.7699   -1.7061  -18.6236 H   0  0  0  0  0  0  0  0  0  0  0  0
   -8.6721   -0.9865  -21.5639 C   0  0  0  0  0  0  0  0  0  0  0  0
   -9.1362   -1.9600  -22.6624 C   0  0  2  0  0  0  0  0  0  0  0  0
  -10.2427   -2.8787  -22.1243 C   0  0  0  0  0  0  0  0  0  0  0  0
  -11.0851   -2.2759  -21.7697 H   0  0  0  0  0  0  0  0  0  0  0  0
  -10.6291   -3.5482  -22.8977 H   0  0  0  0  0  0  0  0  0  0  0  0
   -9.8925   -3.4851  -21.2825 H   0  0  0  0  0  0  0  0  0  0  0  0
   -9.5729   -1.4166  -23.5043 H   0  0  0  0  0  0  0  0  0  0  0  0
   -9.3418   -1.0050  -20.7085 H   0  0  0  0  0  0  0  0  0  0  0  0
   -8.6263    0.0554  -21.9062 H   0  0  0  0  0  0  0  0  0  0  0  0
   -7.2889   -2.0715  -24.4540 C   0  0  0  0  0  0  0  0  0  0  0  0
   -7.4505   -0.7128  -24.7427 C   0  0  0  0  0  0  0  0  0  0  0  0
   -6.9226   -0.1813  -25.9074 C   0  0  0  0  0  0  0  0  0  0  0  0
   -7.1247    1.5139  -26.2331 Cl  0  0  0  0  0  0  0  0  0  0  0  0
   -6.2277   -0.9630  -26.8269 C   0  0  0  0  0  0  0  0  0  0  0  0
   -6.0445   -2.2964  -26.5365 C   0  0  0  0  0  0  0  0  0  0  0  0
   -6.5512   -2.8414  -25.3593 C   0  0  0  0  0  0  0  0  0  0  0  0
   -6.2554   -4.2687  -25.0785 C   0  0  0  0  0  0  0  0  0  0  0  0
   -5.5106   -4.9515  -25.7690 O   0  0  0  0  0  0  0  0  0  0  0  0
   -5.4972   -2.9549  -27.1996 H   0  0  0  0  0  0  0  0  0  0  0  0
   -5.8232   -0.5264  -27.7319 H   0  0  0  0  0  0  0  0  0  0  0  0
   -7.9904   -0.0545  -24.0703 H   0  0  0  0  0  0  0  0  0  0  0  0
   -8.2266   -4.6579  -22.4108 H   0  0  0  0  0  0  0  0  0  0  0  0
   -8.9213   -4.3211  -23.9989 H   0  0  0  0  0  0  0  0  0  0  0  0
   -6.1684   -6.2569  -22.0883 C   0  0  0  0  0  0  0  0  0  0  0  0
   -5.1170   -6.3625  -23.1475 C   0  0  0  0  0  0  0  0  0  0  0  0
   -4.6951   -7.3339  -23.3943 H   0  0  0  0  0  0  0  0  0  0  0  0
   -4.4453   -5.5113  -23.2578 H   0  0  0  0  0  0  0  0  0  0  0  0
   -6.1819   -5.3379  -21.5109 H   0  0  0  0  0  0  0  0  0  0  0  0
   -6.5093   -7.1750  -21.6170 H   0  0  0  0  0  0  0  0  0  0  0  0
   -7.9012   -6.0567  -25.5860 H   0  0  0  0  0  0  0  0  0  0  0  0
   -8.2147   -8.5646  -26.5227 H   0  0  0  0  0  0  0  0  0  0  0  0
   -9.6151   -8.3857  -25.3989 H   0  0  0  0  0  0  0  0  0  0  0  0
   -9.3512   -7.2435  -26.7249 H   0  0  0  0  0  0  0  0  0  0  0  0
  1  2  1  0
  2  3  1  0
  3  4  2  0
  3  5  1  0
  5  6  1  0
  6  7  1  0
  8  7  1  6
  8  9  1  0
  9 10  2  0
  9 11  1  0
 11 12  1  0
 12 13  2  0
 13 14  1  0
 14 15  2  0
 15 16  1  0
 16 17  2  0
 17 18  1  0
 18 19  2  0
 19 20  1  0
 20 21  2  0
 20 22  1  0
 19 23  1  0
 18 24  1  0
 17 25  1  0
 15 26  1  0
 13 27  1  0
 11 28  1  0
 28 29  1  0
 29 30  1  0
 30 31  1  0
 30 32  1  0
 30 33  1  0
 29 34  1  6
 28 35  1  0
 28 36  1  0
  8 37  1  0
 37 38  2  0
 38 39  1  0
 39 40  1  0
 39 41  2  0
 41 42  1  0
 42 43  2  0
 43 44  1  0
 44 45  2  0
 42 46  1  0
 41 47  1  0
 38 48  1  0
  7 49  1  0
  7 50  1  0
  5 51  1  0
 51 52  1  0
 52 53  1  0
 52 54  1  0
 51 55  1  0
 51 56  1  0
  2 57  1  0
  1 58  1  0
  1 59  1  0
  1 60  1  0
 52  5  1  0
 44  6  1  0
 29  8  1  0
 43 37  1  0
 21 12  1  0
 21 16  1  0
M  END
>  <cnnaffinities>  (78) 
[5.70667, 6.01998, 6.08348, 5.95739]

>  <score>  (78) 
5.70667

>  <index>  (78) 
80

>  <Smiles>  (78) 
C(N(C(=O)C1(N2C([C@@]3(C(=O)N(c4c(nc(c5c(c(c(c(c45)[H])[H])[H])[H])[H])[H])C([C@@]3(C([H])([H])[H])[H])([H])[H])c3c(c(Cl)c(c(c3C2=O)[H])[H])[H])([H])[H])C(C1([H])[H])([H])[H])[H])([H])([H])[H]

>  <h>  (78) 
<NA>

>  <Training>  (78) 
True

>  <Success>  (78) 
True

>  <enamine_searched>  (78) 
False

>  <enamine_id>  (78) 
nan

$$$$

     RDKit          3D

 36 38  0  0  0  0  0  0  0  0999 V2000
   -8.5266    0.7341  -21.4116 O   0  0  0  0  0  0  0  0  0  0  0  0
   -8.3988   -0.3803  -21.8919 C   0  0  0  0  0  0  0  0  0  0  0  0
   -7.4502   -1.4063  -21.2765 C   0  0  0  0  0  0  0  0  0  0  0  0
   -6.6141   -0.8121  -20.1768 C   0  0  0  0  0  0  0  0  0  0  0  0
   -6.9087   -1.0546  -18.8599 C   0  0  0  0  0  0  0  0  0  0  0  0
   -6.2144   -0.5790  -17.7906 N   0  0  0  0  0  0  0  0  0  0  0  0
   -5.1976    0.2091  -18.0545 C   0  0  0  0  0  0  0  0  0  0  0  0
   -4.8040    0.5899  -19.3680 C   0  0  0  0  0  0  0  0  0  0  0  0
   -3.6752    1.4171  -19.6042 C   0  0  0  0  0  0  0  0  0  0  0  0
   -3.3684    1.8244  -20.8769 C   0  0  0  0  0  0  0  0  0  0  0  0
   -4.1774    1.4191  -21.9668 C   0  0  0  0  0  0  0  0  0  0  0  0
   -5.1664    0.4840  -21.7758 C   0  0  0  0  0  0  0  0  0  0  0  0
   -5.5376    0.0781  -20.4625 C   0  0  0  0  0  0  0  0  0  0  0  0
   -5.7002    0.0705  -22.6272 H   0  0  0  0  0  0  0  0  0  0  0  0
   -3.9650    1.7948  -22.9686 H   0  0  0  0  0  0  0  0  0  0  0  0
   -2.5110    2.4713  -21.0554 H   0  0  0  0  0  0  0  0  0  0  0  0
   -3.0742    1.7141  -18.7478 H   0  0  0  0  0  0  0  0  0  0  0  0
   -4.6297    0.5933  -17.2048 H   0  0  0  0  0  0  0  0  0  0  0  0
   -7.7579   -1.6861  -18.5977 H   0  0  0  0  0  0  0  0  0  0  0  0
   -8.0720   -2.2119  -20.8734 H   0  0  0  0  0  0  0  0  0  0  0  0
   -6.8351   -1.8634  -22.0666 H   0  0  0  0  0  0  0  0  0  0  0  0
   -9.0504   -0.7690  -23.0474 N   0  0  0  0  0  0  0  0  0  0  0  0
   -9.3484   -2.1566  -23.3719 C   0  0  0  0  0  0  0  0  0  0  0  0
  -10.4479   -2.7754  -22.5385 C   0  0  0  0  0  0  0  0  0  0  0  0
  -11.5663   -2.1796  -22.1181 C   0  0  0  0  0  0  0  0  0  0  0  0
  -12.0112   -0.8002  -22.3852 C   0  0  0  0  0  0  0  0  0  0  0  0
  -11.3614    0.1788  -23.0204 C   0  0  0  0  0  0  0  0  0  0  0  0
   -9.9791    0.1830  -23.6203 C   0  0  0  0  0  0  0  0  0  0  0  0
   -9.5449    1.1786  -23.5028 H   0  0  0  0  0  0  0  0  0  0  0  0
  -10.0320   -0.0226  -24.6997 H   0  0  0  0  0  0  0  0  0  0  0  0
  -11.8702    1.1359  -23.1177 H   0  0  0  0  0  0  0  0  0  0  0  0
  -13.0165   -0.5852  -22.0215 H   0  0  0  0  0  0  0  0  0  0  0  0
  -12.2833   -2.7719  -21.5496 H   0  0  0  0  0  0  0  0  0  0  0  0
  -10.3089   -3.8237  -22.2815 H   0  0  0  0  0  0  0  0  0  0  0  0
   -9.6276   -2.1569  -24.4350 H   0  0  0  0  0  0  0  0  0  0  0  0
   -8.4409   -2.7679  -23.3023 H   0  0  0  0  0  0  0  0  0  0  0  0
  1  2  2  0
  2  3  1  0
  3  4  1  0
  4  5  2  0
  5  6  1  0
  6  7  2  0
  7  8  1  0
  8  9  2  0
  9 10  1  0
 10 11  2  0
 11 12  1  0
 12 13  2  0
 12 14  1  0
 11 15  1  0
 10 16  1  0
  9 17  1  0
  7 18  1  0
  5 19  1  0
  3 20  1  0
  3 21  1  0
  2 22  1  0
 22 23  1  0
 23 24  1  0
 24 25  2  0
 25 26  1  0
 26 27  2  0
 27 28  1  0
 28 29  1  0
 28 30  1  0
 27 31  1  0
 26 32  1  0
 25 33  1  0
 24 34  1  0
 23 35  1  0
 23 36  1  0
 13  4  1  0
 28 22  1  0
 13  8  1  0
M  END
>  <cnnaffinities>  (79) 
[4.2164, 4.21644, 4.75117, 4.75122, 4.51006, 4.51018, 4.50849, 4.50817]

>  <score>  (79) 
4.2164

>  <index>  (79) 
81

>  <Smiles>  (79) 
O=C(C(c1c(nc(c2c(c(c(c(c12)[H])[H])[H])[H])[H])[H])([H])[H])N1C(C(=C(C(=C(C1([H])[H])[H])[H])[H])[H])([H])[H]

>  <h>  (79) 
<NA>

>  <Training>  (79) 
True

>  <Success>  (79) 
True

>  <enamine_searched>  (79) 
False

>  <enamine_id>  (79) 
nan

$$$$

     RDKit          3D

 54 57  0  0  0  0  0  0  0  0999 V2000
  -10.6844    0.3563  -25.3872 C   0  0  0  0  0  0  0  0  0  0  0  0
   -9.8100   -0.6291  -24.9041 O   0  0  0  0  0  0  0  0  0  0  0  0
   -8.4881   -0.5193  -25.2046 C   0  0  0  0  0  0  0  0  0  0  0  0
   -7.9564    0.5145  -25.9773 C   0  0  0  0  0  0  0  0  0  0  0  0
   -6.5881    0.5465  -26.2397 C   0  0  0  0  0  0  0  0  0  0  0  0
   -5.7669   -0.4460  -25.7221 C   0  0  0  0  0  0  0  0  0  0  0  0
   -6.3101   -1.4630  -24.9359 C   0  0  0  0  0  0  0  0  0  0  0  0
   -7.6712   -1.5332  -24.6705 C   0  0  0  0  0  0  0  0  0  0  0  0
   -8.3023   -2.6457  -23.8272 C   0  0  1  0  0  0  0  0  0  0  0  0
   -9.1408   -3.6390  -24.6678 C   0  0  0  0  0  0  0  0  0  0  0  0
   -8.3840   -4.8444  -25.2434 C   0  0  1  0  0  0  0  0  0  0  0  0
   -7.5089   -4.5226  -26.4587 C   0  0  0  0  0  0  0  0  0  0  0  0
   -6.6843   -3.8493  -26.2062 H   0  0  0  0  0  0  0  0  0  0  0  0
   -7.0731   -5.4352  -26.8798 H   0  0  0  0  0  0  0  0  0  0  0  0
   -8.0891   -4.0444  -27.2539 H   0  0  0  0  0  0  0  0  0  0  0  0
   -7.5913   -5.4977  -24.1078 C   0  0  0  0  0  0  0  0  0  0  0  0
   -6.6337   -4.5345  -23.4334 C   0  0  0  0  0  0  0  0  0  0  0  0
   -7.3278   -3.3364  -22.9665 N   0  0  0  0  0  0  0  0  0  0  0  0
   -6.7306   -2.7446  -21.8726 C   0  0  0  0  0  0  0  0  0  0  0  0
   -5.7314   -3.2170  -21.3625 O   0  0  0  0  0  0  0  0  0  0  0  0
   -7.3965   -1.4929  -21.2867 C   0  0  0  0  0  0  0  0  0  0  0  0
   -6.5980   -0.8461  -20.1865 C   0  0  0  0  0  0  0  0  0  0  0  0
   -6.8857   -1.0858  -18.8687 C   0  0  0  0  0  0  0  0  0  0  0  0
   -6.2020   -0.5942  -17.7994 N   0  0  0  0  0  0  0  0  0  0  0  0
   -5.1876    0.1990  -18.0587 C   0  0  0  0  0  0  0  0  0  0  0  0
   -4.7841    0.5614  -19.3740 C   0  0  0  0  0  0  0  0  0  0  0  0
   -3.6614    1.3988  -19.6107 C   0  0  0  0  0  0  0  0  0  0  0  0
   -3.3634    1.8127  -20.8812 C   0  0  0  0  0  0  0  0  0  0  0  0
   -4.1572    1.3867  -21.9708 C   0  0  0  0  0  0  0  0  0  0  0  0
   -5.1527    0.4566  -21.7798 C   0  0  0  0  0  0  0  0  0  0  0  0
   -5.5101    0.0382  -20.4692 C   0  0  0  0  0  0  0  0  0  0  0  0
   -5.6553    0.0164  -22.6369 H   0  0  0  0  0  0  0  0  0  0  0  0
   -3.9568    1.7676  -22.9695 H   0  0  0  0  0  0  0  0  0  0  0  0
   -2.4959    2.4426  -21.0646 H   0  0  0  0  0  0  0  0  0  0  0  0
   -3.0684    1.7143  -18.7548 H   0  0  0  0  0  0  0  0  0  0  0  0
   -4.6345    0.5996  -17.2079 H   0  0  0  0  0  0  0  0  0  0  0  0
   -7.7395   -1.7093  -18.6037 H   0  0  0  0  0  0  0  0  0  0  0  0
   -7.5920   -0.7847  -22.0985 H   0  0  0  0  0  0  0  0  0  0  0  0
   -8.3761   -1.7998  -20.8955 H   0  0  0  0  0  0  0  0  0  0  0  0
   -6.2283   -5.0023  -22.5370 H   0  0  0  0  0  0  0  0  0  0  0  0
   -5.7671   -4.2753  -24.0604 H   0  0  0  0  0  0  0  0  0  0  0  0
   -8.2671   -5.8189  -23.3119 H   0  0  0  0  0  0  0  0  0  0  0  0
   -7.0472   -6.3863  -24.4576 H   0  0  0  0  0  0  0  0  0  0  0  0
   -9.1528   -5.5596  -25.5718 H   0  0  0  0  0  0  0  0  0  0  0  0
   -9.6362   -3.0712  -25.4655 H   0  0  0  0  0  0  0  0  0  0  0  0
   -9.9295   -4.0299  -24.0112 H   0  0  0  0  0  0  0  0  0  0  0  0
   -9.0324   -2.1576  -23.1675 H   0  0  0  0  0  0  0  0  0  0  0  0
   -5.6531   -2.2383  -24.5435 H   0  0  0  0  0  0  0  0  0  0  0  0
   -4.7007   -0.4480  -25.9253 H   0  0  0  0  0  0  0  0  0  0  0  0
   -6.1787    1.3498  -26.8524 H   0  0  0  0  0  0  0  0  0  0  0  0
   -8.6119    1.2813  -26.3754 H   0  0  0  0  0  0  0  0  0  0  0  0
  -11.6684    0.0663  -25.0158 H   0  0  0  0  0  0  0  0  0  0  0  0
  -10.6868    0.3867  -26.4853 H   0  0  0  0  0  0  0  0  0  0  0  0
  -10.4120    1.3490  -25.0052 H   0  0  0  0  0  0  0  0  0  0  0  0
  1  2  1  0
  2  3  1  0
  3  4  2  0
  4  5  1  0
  5  6  2  0
  6  7  1  0
  7  8  2  0
  8  9  1  0
  9 10  1  0
 10 11  1  0
 11 12  1  0
 12 13  1  0
 12 14  1  0
 12 15  1  0
 11 16  1  0
 16 17  1  0
 17 18  1  0
 18 19  1  0
 19 20  2  0
 19 21  1  0
 21 22  1  0
 22 23  2  0
 23 24  1  0
 24 25  2  0
 25 26  1  0
 26 27  2  0
 27 28  1  0
 28 29  2  0
 29 30  1  0
 30 31  2  0
 30 32  1  0
 29 33  1  0
 28 34  1  0
 27 35  1  0
 25 36  1  0
 23 37  1  0
 21 38  1  0
 21 39  1  0
 17 40  1  0
 17 41  1  0
 16 42  1  0
 16 43  1  0
 11 44  1  6
 10 45  1  0
 10 46  1  0
  9 47  1  1
  7 48  1  0
  6 49  1  0
  5 50  1  0
  4 51  1  0
  1 52  1  0
  1 53  1  0
  1 54  1  0
  8  3  1  0
 18  9  1  0
 31 22  1  0
 31 26  1  0
M  END
>  <cnnaffinities>  (80) 
[5.40017, 5.32424]

>  <score>  (80) 
5.40017

>  <index>  (80) 
82

>  <Smiles>  (80) 
C(Oc1c(c(c(c(c1[C@]1(C([C@@](C([H])([H])[H])(C(C(N1C(=O)C(c1c(nc(c2c(c(c(c(c12)[H])[H])[H])[H])[H])[H])([H])[H])([H])[H])([H])[H])[H])([H])[H])[H])[H])[H])[H])[H])([H])([H])[H]

>  <h>  (80) 
<NA>

>  <Training>  (80) 
True

>  <Success>  (80) 
True

>  <enamine_searched>  (80) 
False

>  <enamine_id>  (80) 
nan

$$$$

     RDKit          3D

 46 50  0  0  0  0  0  0  0  0999 V2000
   -9.9873    2.8215  -24.9741 N   0  0  0  0  0  0  0  0  0  0  0  0
   -9.3767    1.7007  -26.0448 S   0  0  0  0  0  0  0  0  0  0  0  0
  -10.0164    1.9696  -27.3210 O   0  0  0  0  0  0  0  0  0  0  0  0
   -7.9379    1.7239  -25.8611 O   0  0  0  0  0  0  0  0  0  0  0  0
   -9.9798    0.1361  -25.4463 C   0  0  0  0  0  0  0  0  0  0  0  0
  -11.1393   -0.4406  -25.9651 C   0  0  0  0  0  0  0  0  0  0  0  0
  -11.7112   -1.5152  -25.2990 C   0  0  0  0  0  0  0  0  0  0  0  0
  -11.1323   -2.0125  -24.1324 C   0  0  0  0  0  0  0  0  0  0  0  0
   -9.9013   -1.5078  -23.6845 C   0  0  0  0  0  0  0  0  0  0  0  0
   -9.3360   -0.4215  -24.3494 C   0  0  0  0  0  0  0  0  0  0  0  0
   -8.3987    0.0086  -24.0031 H   0  0  0  0  0  0  0  0  0  0  0  0
   -9.2021   -2.1149  -22.4843 C   0  0  1  0  0  0  0  0  0  0  0  0
  -10.2140   -2.9617  -21.7006 C   0  0  0  0  0  0  0  0  0  0  0  0
  -11.0416   -3.8064  -22.6345 C   0  0  0  0  0  0  0  0  0  0  0  0
  -11.8271   -2.9803  -23.4733 O   0  0  0  0  0  0  0  0  0  0  0  0
  -10.4100   -4.4624  -23.2559 H   0  0  0  0  0  0  0  0  0  0  0  0
  -11.7641   -4.3941  -22.0722 H   0  0  0  0  0  0  0  0  0  0  0  0
  -10.8784   -2.2585  -21.1872 H   0  0  0  0  0  0  0  0  0  0  0  0
   -9.6916   -3.5704  -20.9604 H   0  0  0  0  0  0  0  0  0  0  0  0
   -7.9743   -2.8290  -22.8133 N   0  0  0  0  0  0  0  0  0  0  0  0
   -6.9033   -2.4950  -22.0258 C   0  0  0  0  0  0  0  0  0  0  0  0
   -5.8065   -2.9896  -21.9827 O   0  0  0  0  0  0  0  0  0  0  0  0
   -7.3409   -1.4001  -21.2456 N   0  0  0  0  0  0  0  0  0  0  0  0
   -6.5878   -0.8111  -20.1924 C   0  0  0  0  0  0  0  0  0  0  0  0
   -6.9008   -1.0863  -18.8878 C   0  0  0  0  0  0  0  0  0  0  0  0
   -6.2122   -0.6086  -17.8188 N   0  0  0  0  0  0  0  0  0  0  0  0
   -5.1904    0.1798  -18.0563 C   0  0  0  0  0  0  0  0  0  0  0  0
   -4.7806    0.5785  -19.3634 C   0  0  0  0  0  0  0  0  0  0  0  0
   -3.7092    1.4891  -19.5795 C   0  0  0  0  0  0  0  0  0  0  0  0
   -3.4636    1.9744  -20.8353 C   0  0  0  0  0  0  0  0  0  0  0  0
   -4.2482    1.5523  -21.9330 C   0  0  0  0  0  0  0  0  0  0  0  0
   -5.2385    0.6190  -21.7576 C   0  0  0  0  0  0  0  0  0  0  0  0
   -5.5251    0.1037  -20.4665 C   0  0  0  0  0  0  0  0  0  0  0  0
   -5.8311    0.2829  -22.6013 H   0  0  0  0  0  0  0  0  0  0  0  0
   -4.0607    1.9586  -22.9230 H   0  0  0  0  0  0  0  0  0  0  0  0
   -2.6768    2.7066  -20.9966 H   0  0  0  0  0  0  0  0  0  0  0  0
   -3.1221    1.8174  -18.7235 H   0  0  0  0  0  0  0  0  0  0  0  0
   -4.6437    0.5678  -17.1933 H   0  0  0  0  0  0  0  0  0  0  0  0
   -7.7517   -1.7259  -18.6647 H   0  0  0  0  0  0  0  0  0  0  0  0
   -8.6661   -1.0717  -21.5036 C   0  0  0  0  0  0  0  0  0  0  0  0
   -9.2703   -0.1558  -21.0048 O   0  0  0  0  0  0  0  0  0  0  0  0
   -7.9198   -3.6117  -23.4459 H   0  0  0  0  0  0  0  0  0  0  0  0
  -12.6194   -1.9888  -25.6523 H   0  0  0  0  0  0  0  0  0  0  0  0
  -11.5849   -0.0370  -26.8711 H   0  0  0  0  0  0  0  0  0  0  0  0
  -11.0028    2.8522  -24.9794 H   0  0  0  0  0  0  0  0  0  0  0  0
   -9.6007    2.6869  -24.0434 H   0  0  0  0  0  0  0  0  0  0  0  0
  1  2  1  0
  2  3  2  0
  2  4  2  0
  2  5  1  0
  5  6  2  0
  6  7  1  0
  7  8  2  0
  8  9  1  0
  9 10  2  0
 10 11  1  0
  9 12  1  0
 12 13  1  0
 13 14  1  0
 14 15  1  0
 14 16  1  0
 14 17  1  0
 13 18  1  0
 13 19  1  0
 12 20  1  6
 20 21  1  0
 21 22  2  0
 21 23  1  0
 23 24  1  0
 24 25  2  0
 25 26  1  0
 26 27  2  0
 27 28  1  0
 28 29  2  0
 29 30  1  0
 30 31  2  0
 31 32  1  0
 32 33  2  0
 32 34  1  0
 31 35  1  0
 30 36  1  0
 29 37  1  0
 27 38  1  0
 25 39  1  0
 23 40  1  0
 40 41  2  0
 20 42  1  0
  7 43  1  0
  6 44  1  0
  1 45  1  0
  1 46  1  0
 10  5  1  0
 40 12  1  0
 15  8  1  0
 33 24  1  0
 33 28  1  0
M  END
>  <cnnaffinities>  (81) 
[5.47395, 5.47657, 5.11985, 5.1194, 5.34331, 5.31486]

>  <score>  (81) 
5.47395

>  <index>  (81) 
83

>  <Smiles>  (81) 
N(S(=O)(=O)c1c(c(c2c(c1[H])[C@@]1(C(C(O2)([H])[H])([H])[H])N(C(=O)N(c2c(nc(c3c(c(c(c(c23)[H])[H])[H])[H])[H])[H])C1=O)[H])[H])[H])([H])[H]

>  <h>  (81) 
<NA>

>  <Training>  (81) 
True

>  <Success>  (81) 
True

>  <enamine_searched>  (81) 
False

>  <enamine_id>  (81) 
nan

$$$$

     RDKit          3D

 63 68  0  0  0  0  0  0  0  0999 V2000
   -8.3280   -4.2071  -23.4703 C   0  0  0  0  0  0  0  0  0  0  0  0
   -8.5545   -3.0100  -22.5528 C   0  0  1  0  0  0  0  0  0  0  0  0
   -7.3838   -2.7659  -21.5918 C   0  0  0  0  0  0  0  0  0  0  0  0
   -7.4920   -1.3531  -21.2644 N   0  0  0  0  0  0  0  0  0  0  0  0
   -6.7371   -0.7438  -20.2269 C   0  0  0  0  0  0  0  0  0  0  0  0
   -6.9430   -1.1465  -18.9296 C   0  0  0  0  0  0  0  0  0  0  0  0
   -6.2399   -0.7104  -17.8569 N   0  0  0  0  0  0  0  0  0  0  0  0
   -5.2771    0.1519  -18.0789 C   0  0  0  0  0  0  0  0  0  0  0  0
   -4.9499    0.6588  -19.3689 C   0  0  0  0  0  0  0  0  0  0  0  0
   -3.8762    1.5739  -19.5485 C   0  0  0  0  0  0  0  0  0  0  0  0
   -3.5516    2.0274  -20.7976 C   0  0  0  0  0  0  0  0  0  0  0  0
   -4.3050    1.6098  -21.9194 C   0  0  0  0  0  0  0  0  0  0  0  0
   -5.3442    0.7242  -21.7699 C   0  0  0  0  0  0  0  0  0  0  0  0
   -5.6983    0.2168  -20.4856 C   0  0  0  0  0  0  0  0  0  0  0  0
   -5.9100    0.4153  -22.6418 H   0  0  0  0  0  0  0  0  0  0  0  0
   -4.0553    1.9930  -22.9040 H   0  0  0  0  0  0  0  0  0  0  0  0
   -2.7163    2.7076  -20.9375 H   0  0  0  0  0  0  0  0  0  0  0  0
   -3.3308    1.9095  -18.6694 H   0  0  0  0  0  0  0  0  0  0  0  0
   -4.6892    0.4744  -17.2177 H   0  0  0  0  0  0  0  0  0  0  0  0
   -7.7316   -1.8656  -18.7119 H   0  0  0  0  0  0  0  0  0  0  0  0
   -8.3186   -0.6556  -22.1224 C   0  0  0  0  0  0  0  0  0  0  0  0
   -8.5705    0.5271  -22.0163 O   0  0  0  0  0  0  0  0  0  0  0  0
   -8.8196   -1.6180  -23.2290 C   0  0  1  0  0  0  0  0  0  0  0  0
   -7.9700   -1.3430  -24.4941 C   0  0  0  0  0  0  0  0  0  0  0  0
   -8.5667   -1.8277  -25.7344 N   0  0  0  0  0  0  0  0  0  0  0  0
   -7.6809   -2.1792  -26.8326 C   0  0  0  0  0  0  0  0  0  0  0  0
   -7.6233   -3.6976  -27.0550 C   0  0  0  0  0  0  0  0  0  0  0  0
   -6.8094   -4.3946  -26.4670 O   0  0  0  0  0  0  0  0  0  0  0  0
   -8.5586   -4.1791  -27.9127 N   0  0  0  0  0  0  0  0  0  0  0  0
   -8.5022   -5.5730  -28.3138 C   0  0  0  0  0  0  0  0  0  0  0  0
   -7.4981   -5.8102  -29.3406 C   0  0  0  0  0  0  0  0  0  0  0  0
   -6.3669   -5.0583  -29.3204 F   0  0  0  0  0  0  0  0  0  0  0  0
   -7.5747   -6.9319  -30.2859 C   0  0  0  0  0  0  0  0  0  0  0  0
   -7.3878   -6.7804  -30.2790 C   0  0  0  0  0  0  0  0  0  0  0  0
   -6.6090   -7.7186  -29.8760 H   0  0  0  0  0  0  0  0  0  0  0  0
   -8.9155   -7.7940  -29.9049 H   0  0  0  0  0  0  0  0  0  0  0  0
   -6.5837   -6.2841  -31.1006 H   0  0  0  0  0  0  0  0  0  0  0  0
   -7.7590   -6.5376  -31.5288 H   0  0  0  0  0  0  0  0  0  0  0  0
   -8.2449   -6.1254  -27.3988 H   0  0  0  0  0  0  0  0  0  0  0  0
   -9.5027   -5.9206  -28.6191 H   0  0  0  0  0  0  0  0  0  0  0  0
   -9.2780   -3.5528  -28.2401 H   0  0  0  0  0  0  0  0  0  0  0  0
   -8.0113   -1.6795  -27.7471 H   0  0  0  0  0  0  0  0  0  0  0  0
   -6.6754   -1.8413  -26.5757 H   0  0  0  0  0  0  0  0  0  0  0  0
   -9.9002   -1.7728  -26.0048 C   0  0  0  0  0  0  0  0  0  0  0  0
  -10.3421   -2.0012  -27.1324 O   0  0  0  0  0  0  0  0  0  0  0  0
  -10.7873   -1.4621  -24.8475 C   0  0  0  0  0  0  0  0  0  0  0  0
  -12.1522   -1.3163  -25.0933 C   0  0  0  0  0  0  0  0  0  0  0  0
  -13.0376   -1.0907  -24.0574 C   0  0  0  0  0  0  0  0  0  0  0  0
  -12.5220   -1.0403  -22.7666 C   0  0  0  0  0  0  0  0  0  0  0  0
  -13.3770   -0.8528  -21.7521 F   0  0  0  0  0  0  0  0  0  0  0  0
  -11.1773   -1.1946  -22.4915 C   0  0  0  0  0  0  0  0  0  0  0  0
  -10.2804   -1.3932  -23.5453 C   0  0  0  0  0  0  0  0  0  0  0  0
  -10.8253   -1.1633  -21.4659 H   0  0  0  0  0  0  0  0  0  0  0  0
  -14.1051   -0.9698  -24.2201 H   0  0  0  0  0  0  0  0  0  0  0  0
  -12.4918   -1.4057  -26.1187 H   0  0  0  0  0  0  0  0  0  0  0  0
   -6.9974   -1.8368  -24.3903 H   0  0  0  0  0  0  0  0  0  0  0  0
   -7.7860   -0.2601  -24.5557 H   0  0  0  0  0  0  0  0  0  0  0  0
   -6.4162   -2.9869  -22.0689 H   0  0  0  0  0  0  0  0  0  0  0  0
   -7.4547   -3.3831  -20.6905 H   0  0  0  0  0  0  0  0  0  0  0  0
   -9.4479   -3.2068  -21.9391 H   0  0  0  0  0  0  0  0  0  0  0  0
   -9.1696   -4.3561  -24.1532 H   0  0  0  0  0  0  0  0  0  0  0  0
   -7.4227   -4.0949  -24.0788 H   0  0  0  0  0  0  0  0  0  0  0  0
   -8.2209   -5.1148  -22.8658 H   0  0  0  0  0  0  0  0  0  0  0  0
  1  2  1  0
  2  3  1  0
  3  4  1  0
  4  5  1  0
  5  6  2  0
  6  7  1  0
  7  8  2  0
  8  9  1  0
  9 10  2  0
 10 11  1  0
 11 12  2  0
 12 13  1  0
 13 14  2  0
 13 15  1  0
 12 16  1  0
 11 17  1  0
 10 18  1  0
  8 19  1  0
  6 20  1  0
  4 21  1  0
 21 22  2  0
 21 23  1  0
 23 24  1  6
 24 25  1  0
 25 26  1  0
 26 27  1  0
 27 28  2  0
 27 29  1  0
 29 30  1  0
 30 31  1  0
 31 32  1  0
 31 33  1  0
 33 34  1  0
 34 35  1  0
 34 36  1  0
 33 37  1  0
 33 38  1  0
 30 39  1  0
 30 40  1  0
 29 41  1  0
 26 42  1  0
 26 43  1  0
 25 44  1  0
 44 45  2  0
 44 46  1  0
 46 47  2  0
 47 48  1  0
 48 49  2  0
 49 50  1  0
 49 51  1  0
 51 52  2  0
 51 53  1  0
 48 54  1  0
 47 55  1  0
 24 56  1  0
 24 57  1  0
  3 58  1  0
  3 59  1  0
  2 60  1  1
  1 61  1  0
  1 62  1  0
  1 63  1  0
 23  2  1  0
 34 31  1  0
 52 46  1  0
 14  5  1  0
 52 23  1  0
 14  9  1  0
M  END
>  <cnnaffinities>  (82) 
[5.70483]

>  <score>  (82) 
5.70483

>  <index>  (82) 
84

>  <Smiles>  (82) 
C([C@]1(C(N(c2c(nc(c3c(c(c(c(c23)[H])[H])[H])[H])[H])[H])C(=O)[C@]21C(N(C(C(=O)N(C(C1(F)C(C1([H])[H])([H])[H])([H])[H])[H])([H])[H])C(=O)c1c(c(c(F)c(c21)[H])[H])[H])([H])[H])([H])[H])[H])([H])([H])[H]

>  <h>  (82) 
<NA>

>  <Training>  (82) 
True

>  <Success>  (82) 
True

>  <enamine_searched>  (82) 
False

>  <enamine_id>  (82) 
nan

$$$$

     RDKit          3D

 57 62  0  0  0  0  0  0  0  0999 V2000
   -9.1787    1.0511  -29.3101 C   0  0  0  0  0  0  0  0  0  0  0  0
   -9.1261    1.3761  -27.9001 N   0  0  0  0  0  0  0  0  0  0  0  0
   -8.2510    0.6962  -27.1116 C   0  0  0  0  0  0  0  0  0  0  0  0
   -7.5086   -0.1801  -27.5281 O   0  0  0  0  0  0  0  0  0  0  0  0
   -8.2853    1.1115  -25.6406 C   0  0  0  0  0  0  0  0  0  0  0  0
   -9.1414    0.2351  -24.8730 N   0  0  0  0  0  0  0  0  0  0  0  0
   -8.6492   -1.0797  -24.5216 C   0  0  0  0  0  0  0  0  0  0  0  0
   -8.9488   -1.4390  -23.0503 C   0  0  2  0  0  0  0  0  0  0  0  0
   -8.1599   -0.5362  -22.0794 C   0  0  0  0  0  0  0  0  0  0  0  0
   -8.1556    0.6721  -22.0600 O   0  0  0  0  0  0  0  0  0  0  0  0
   -7.4189   -1.3227  -21.2130 N   0  0  0  0  0  0  0  0  0  0  0  0
   -6.6325   -0.7825  -20.1726 C   0  0  0  0  0  0  0  0  0  0  0  0
   -6.9039   -1.0868  -18.8610 C   0  0  0  0  0  0  0  0  0  0  0  0
   -6.2066   -0.6074  -17.8013 N   0  0  0  0  0  0  0  0  0  0  0  0
   -5.2001    0.1953  -18.0584 C   0  0  0  0  0  0  0  0  0  0  0  0
   -4.7961    0.5700  -19.3730 C   0  0  0  0  0  0  0  0  0  0  0  0
   -3.6786    1.4163  -19.6026 C   0  0  0  0  0  0  0  0  0  0  0  0
   -3.3842    1.8536  -20.8655 C   0  0  0  0  0  0  0  0  0  0  0  0
   -4.1650    1.4246  -21.9627 C   0  0  0  0  0  0  0  0  0  0  0  0
   -5.1490    0.4869  -21.7856 C   0  0  0  0  0  0  0  0  0  0  0  0
   -5.5326    0.0823  -20.4723 C   0  0  0  0  0  0  0  0  0  0  0  0
   -5.6565    0.0705  -22.6506 H   0  0  0  0  0  0  0  0  0  0  0  0
   -3.9632    1.8190  -22.9543 H   0  0  0  0  0  0  0  0  0  0  0  0
   -2.5542    2.5353  -21.0350 H   0  0  0  0  0  0  0  0  0  0  0  0
   -3.0851    1.7268  -18.7474 H   0  0  0  0  0  0  0  0  0  0  0  0
   -4.6351    0.5784  -17.2073 H   0  0  0  0  0  0  0  0  0  0  0  0
   -7.7545   -1.7239  -18.6182 H   0  0  0  0  0  0  0  0  0  0  0  0
   -7.6133   -2.7371  -21.3946 C   0  0  0  0  0  0  0  0  0  0  0  0
   -8.4253   -2.8262  -22.6736 C   0  0  0  0  0  0  0  0  0  0  0  0
   -9.2722   -4.0349  -22.8330 C   0  0  0  0  0  0  0  0  0  0  0  0
   -8.0377   -3.8916  -23.6693 C   0  0  0  0  0  0  0  0  0  0  0  0
   -7.1822   -4.5312  -23.4486 H   0  0  0  0  0  0  0  0  0  0  0  0
   -8.1517   -3.6551  -24.7231 H   0  0  0  0  0  0  0  0  0  0  0  0
   -9.2242   -4.6864  -21.9744 H   0  0  0  0  0  0  0  0  0  0  0  0
  -10.2486   -3.9282  -23.2945 H   0  0  0  0  0  0  0  0  0  0  0  0
   -6.6548   -3.2639  -21.4700 H   0  0  0  0  0  0  0  0  0  0  0  0
   -8.1760   -3.1817  -20.5651 H   0  0  0  0  0  0  0  0  0  0  0  0
  -10.4518   -1.2129  -22.8757 C   0  0  0  0  0  0  0  0  0  0  0  0
  -11.1920   -1.9682  -21.9641 C   0  0  0  0  0  0  0  0  0  0  0  0
  -12.5671   -1.8097  -21.8990 C   0  0  0  0  0  0  0  0  0  0  0  0
  -13.4787   -2.9814  -20.9862 Cl  0  0  0  0  0  0  0  0  0  0  0  0
  -13.2290   -0.7584  -22.5334 C   0  0  0  0  0  0  0  0  0  0  0  0
  -12.4804    0.0464  -23.3721 C   0  0  0  0  0  0  0  0  0  0  0  0
  -11.1369   -0.2295  -23.6095 C   0  0  0  0  0  0  0  0  0  0  0  0
  -10.4386    0.5883  -24.6503 C   0  0  0  0  0  0  0  0  0  0  0  0
  -10.9692    1.5236  -25.2453 O   0  0  0  0  0  0  0  0  0  0  0  0
  -12.9169    0.8929  -23.8855 H   0  0  0  0  0  0  0  0  0  0  0  0
  -14.2966   -0.6104  -22.3875 H   0  0  0  0  0  0  0  0  0  0  0  0
  -10.7166   -2.7292  -21.3533 H   0  0  0  0  0  0  0  0  0  0  0  0
   -7.5774   -1.1227  -24.7221 H   0  0  0  0  0  0  0  0  0  0  0  0
   -9.1349   -1.8317  -25.1560 H   0  0  0  0  0  0  0  0  0  0  0  0
   -8.6621    2.1330  -25.5354 H   0  0  0  0  0  0  0  0  0  0  0  0
   -7.2694    1.0397  -25.2302 H   0  0  0  0  0  0  0  0  0  0  0  0
   -9.8931    1.8704  -27.4609 H   0  0  0  0  0  0  0  0  0  0  0  0
   -9.5449    0.0311  -29.4757 H   0  0  0  0  0  0  0  0  0  0  0  0
   -9.8179    1.7595  -29.8367 H   0  0  0  0  0  0  0  0  0  0  0  0
   -8.1718    1.1270  -29.7279 H   0  0  0  0  0  0  0  0  0  0  0  0
  1  2  1  0
  2  3  1  0
  3  4  2  0
  3  5  1  0
  5  6  1  0
  6  7  1  0
  8  7  1  6
  8  9  1  0
  9 10  2  0
  9 11  1  0
 11 12  1  0
 12 13  2  0
 13 14  1  0
 14 15  2  0
 15 16  1  0
 16 17  2  0
 17 18  1  0
 18 19  2  0
 19 20  1  0
 20 21  2  0
 20 22  1  0
 19 23  1  0
 18 24  1  0
 17 25  1  0
 15 26  1  0
 13 27  1  0
 11 28  1  0
 28 29  1  0
 29 30  1  0
 30 31  1  0
 31 32  1  0
 31 33  1  0
 30 34  1  0
 30 35  1  0
 28 36  1  0
 28 37  1  0
  8 38  1  0
 38 39  2  0
 39 40  1  0
 40 41  1  0
 40 42  2  0
 42 43  1  0
 43 44  2  0
 44 45  1  0
 45 46  2  0
 43 47  1  0
 42 48  1  0
 39 49  1  0
  7 50  1  0
  7 51  1  0
  5 52  1  0
  5 53  1  0
  2 54  1  0
  1 55  1  0
  1 56  1  0
  1 57  1  0
 45  6  1  0
 29  8  1  0
 44 38  1  0
 21 12  1  0
 31 29  1  0
 21 16  1  0
M  END
>  <cnnaffinities>  (83) 
[5.45396]

>  <score>  (83) 
5.45396

>  <index>  (83) 
85

>  <Smiles>  (83) 
C(N(C(=O)C(N1C([C@@]2(C(=O)N(c3c(nc(c4c(c(c(c(c34)[H])[H])[H])[H])[H])[H])C(C32C(C3([H])[H])([H])[H])([H])[H])c2c(c(Cl)c(c(c2C1=O)[H])[H])[H])([H])[H])([H])[H])[H])([H])([H])[H]

>  <h>  (83) 
<NA>

>  <Training>  (83) 
True

>  <Success>  (83) 
True

>  <enamine_searched>  (83) 
False

>  <enamine_id>  (83) 
nan

$$$$

     RDKit          3D

 43 45  0  0  0  0  0  0  0  0999 V2000
  -12.9851   -1.8148  -24.0396 C   0  0  0  0  0  0  0  0  0  0  0  0
  -11.6381   -1.2561  -24.5130 C   0  0  1  0  0  0  0  0  0  0  0  0
  -11.3093    0.1022  -23.8811 C   0  0  0  0  0  0  0  0  0  0  0  0
  -10.8332   -0.0903  -22.4522 C   0  0  0  0  0  0  0  0  0  0  0  0
   -9.6550   -0.9362  -22.3782 N   0  0  0  0  0  0  0  0  0  0  0  0
   -8.5502   -0.4196  -21.7468 C   0  0  0  0  0  0  0  0  0  0  0  0
   -8.4384    0.7728  -21.5249 O   0  0  0  0  0  0  0  0  0  0  0  0
   -7.4764   -1.4033  -21.2673 C   0  0  0  0  0  0  0  0  0  0  0  0
   -6.6290   -0.8074  -20.1742 C   0  0  0  0  0  0  0  0  0  0  0  0
   -6.9099   -1.0648  -18.8576 C   0  0  0  0  0  0  0  0  0  0  0  0
   -6.2126   -0.5911  -17.7883 N   0  0  0  0  0  0  0  0  0  0  0  0
   -5.2077    0.2123  -18.0500 C   0  0  0  0  0  0  0  0  0  0  0  0
   -4.8137    0.5858  -19.3648 C   0  0  0  0  0  0  0  0  0  0  0  0
   -3.6804    1.4095  -19.6051 C   0  0  0  0  0  0  0  0  0  0  0  0
   -3.3961    1.8496  -20.8685 C   0  0  0  0  0  0  0  0  0  0  0  0
   -4.2030    1.4405  -21.9542 C   0  0  0  0  0  0  0  0  0  0  0  0
   -5.2069    0.5177  -21.7706 C   0  0  0  0  0  0  0  0  0  0  0  0
   -5.5495    0.0802  -20.4608 C   0  0  0  0  0  0  0  0  0  0  0  0
   -5.7681    0.1437  -22.6201 H   0  0  0  0  0  0  0  0  0  0  0  0
   -4.0126    1.8441  -22.9499 H   0  0  0  0  0  0  0  0  0  0  0  0
   -2.5518    2.5171  -21.0453 H   0  0  0  0  0  0  0  0  0  0  0  0
   -3.0844    1.7198  -18.7505 H   0  0  0  0  0  0  0  0  0  0  0  0
   -4.6302    0.5899  -17.2009 H   0  0  0  0  0  0  0  0  0  0  0  0
   -7.7495   -1.7075  -18.5880 H   0  0  0  0  0  0  0  0  0  0  0  0
   -7.9908   -2.2947  -20.8879 H   0  0  0  0  0  0  0  0  0  0  0  0
   -6.8787   -1.7373  -22.1268 H   0  0  0  0  0  0  0  0  0  0  0  0
   -9.8383   -2.2911  -22.9002 C   0  0  1  0  0  0  0  0  0  0  0  0
  -10.6313   -3.2073  -21.9661 C   0  0  0  0  0  0  0  0  0  0  0  0
  -10.8396   -4.1573  -22.4672 H   0  0  0  0  0  0  0  0  0  0  0  0
  -10.0743   -3.4213  -21.0485 H   0  0  0  0  0  0  0  0  0  0  0  0
  -11.5919   -2.7811  -21.6688 H   0  0  0  0  0  0  0  0  0  0  0  0
  -10.4444   -2.2114  -24.3160 C   0  0  0  0  0  0  0  0  0  0  0  0
   -9.6415   -1.8778  -24.9808 H   0  0  0  0  0  0  0  0  0  0  0  0
  -10.7255   -3.2244  -24.6312 H   0  0  0  0  0  0  0  0  0  0  0  0
   -8.8422   -2.7385  -23.0090 H   0  0  0  0  0  0  0  0  0  0  0  0
  -11.6458   -0.5785  -21.9027 H   0  0  0  0  0  0  0  0  0  0  0  0
  -10.5849    0.8457  -21.9523 H   0  0  0  0  0  0  0  0  0  0  0  0
  -12.1870    0.7596  -23.8743 H   0  0  0  0  0  0  0  0  0  0  0  0
  -10.5458    0.6200  -24.4686 H   0  0  0  0  0  0  0  0  0  0  0  0
  -11.7431   -1.1171  -25.5980 H   0  0  0  0  0  0  0  0  0  0  0  0
  -13.0707   -1.9035  -22.9533 H   0  0  0  0  0  0  0  0  0  0  0  0
  -13.8151   -1.1755  -24.3645 H   0  0  0  0  0  0  0  0  0  0  0  0
  -13.1562   -2.8107  -24.4585 H   0  0  0  0  0  0  0  0  0  0  0  0
  1  2  1  0
  2  3  1  0
  3  4  1  0
  4  5  1  0
  5  6  1  0
  6  7  2  0
  6  8  1  0
  8  9  1  0
  9 10  2  0
 10 11  1  0
 11 12  2  0
 12 13  1  0
 13 14  2  0
 14 15  1  0
 15 16  2  0
 16 17  1  0
 17 18  2  0
 17 19  1  0
 16 20  1  0
 15 21  1  0
 14 22  1  0
 12 23  1  0
 10 24  1  0
  8 25  1  0
  8 26  1  0
  5 27  1  0
 27 28  1  0
 28 29  1  0
 28 30  1  0
 28 31  1  0
 27 32  1  0
 32 33  1  0
 32 34  1  0
 27 35  1  6
  4 36  1  0
  4 37  1  0
  3 38  1  0
  3 39  1  0
  2 40  1  6
  1 41  1  0
  1 42  1  0
  1 43  1  0
 32  2  1  0
 18  9  1  0
 18 13  1  0
M  END
>  <cnnaffinities>  (84) 
[4.61002, 4.92922, 4.845, 4.72078]

>  <score>  (84) 
4.61002

>  <index>  (84) 
86

>  <Smiles>  (84) 
C([C@]1(C(C(N(C(=O)C(c2c(nc(c3c(c(c(c(c23)[H])[H])[H])[H])[H])[H])([H])[H])[C@@](C([H])([H])[H])(C1([H])[H])[H])([H])[H])([H])[H])[H])([H])([H])[H]

>  <h>  (84) 
<NA>

>  <Training>  (84) 
True

>  <Success>  (84) 
True

>  <enamine_searched>  (84) 
False

>  <enamine_id>  (84) 
nan

$$$$

     RDKit          3D

 59 64  0  0  0  0  0  0  0  0999 V2000
   -8.2667   -4.1265  -23.4865 C   0  0  0  0  0  0  0  0  0  0  0  0
   -8.5161   -2.9793  -22.5248 C   0  0  1  0  0  0  0  0  0  0  0  0
   -7.3811   -2.7903  -21.5114 C   0  0  0  0  0  0  0  0  0  0  0  0
   -7.4468   -1.3745  -21.1959 N   0  0  0  0  0  0  0  0  0  0  0  0
   -6.6630   -0.7808  -20.1801 C   0  0  0  0  0  0  0  0  0  0  0  0
   -6.9170   -1.0961  -18.8696 C   0  0  0  0  0  0  0  0  0  0  0  0
   -6.2274   -0.6108  -17.8114 N   0  0  0  0  0  0  0  0  0  0  0  0
   -5.2143    0.1791  -18.0737 C   0  0  0  0  0  0  0  0  0  0  0  0
   -4.8315    0.5767  -19.3860 C   0  0  0  0  0  0  0  0  0  0  0  0
   -3.7206    1.4359  -19.6030 C   0  0  0  0  0  0  0  0  0  0  0  0
   -3.4351    1.8938  -20.8582 C   0  0  0  0  0  0  0  0  0  0  0  0
   -4.2175    1.4811  -21.9607 C   0  0  0  0  0  0  0  0  0  0  0  0
   -5.2245    0.5651  -21.7937 C   0  0  0  0  0  0  0  0  0  0  0  0
   -5.5871    0.1135  -20.4873 C   0  0  0  0  0  0  0  0  0  0  0  0
   -5.7763    0.2249  -22.6658 H   0  0  0  0  0  0  0  0  0  0  0  0
   -4.0136    1.8969  -22.9428 H   0  0  0  0  0  0  0  0  0  0  0  0
   -2.6406    2.6188  -21.0094 H   0  0  0  0  0  0  0  0  0  0  0  0
   -3.1180    1.7221  -18.7421 H   0  0  0  0  0  0  0  0  0  0  0  0
   -4.6464    0.5586  -17.2245 H   0  0  0  0  0  0  0  0  0  0  0  0
   -7.7461   -1.7621  -18.6368 H   0  0  0  0  0  0  0  0  0  0  0  0
   -8.1728   -0.6318  -22.1034 C   0  0  0  0  0  0  0  0  0  0  0  0
   -8.2971    0.5740  -22.0595 O   0  0  0  0  0  0  0  0  0  0  0  0
   -8.7350   -1.5695  -23.1874 C   0  0  1  0  0  0  0  0  0  0  0  0
   -7.9289   -1.2713  -24.4788 C   0  0  0  0  0  0  0  0  0  0  0  0
   -8.5297   -1.8438  -25.6836 N   0  0  0  0  0  0  0  0  0  0  0  0
   -7.6527   -2.0090  -26.8352 C   0  0  0  0  0  0  0  0  0  0  0  0
   -6.7928   -3.2248  -26.7166 C   0  0  0  0  0  0  0  0  0  0  0  0
   -5.4955   -3.3935  -26.2737 C   0  0  0  0  0  0  0  0  0  0  0  0
   -5.2660   -4.7806  -26.3631 C   0  0  0  0  0  0  0  0  0  0  0  0
   -6.3301   -5.4237  -26.8214 N   0  0  0  0  0  0  0  0  0  0  0  0
   -7.2538   -4.4691  -27.0365 N   0  0  0  0  0  0  0  0  0  0  0  0
   -8.5731   -4.8806  -27.4982 C   0  0  0  0  0  0  0  0  0  0  0  0
   -8.8541   -4.3651  -28.4256 H   0  0  0  0  0  0  0  0  0  0  0  0
   -8.5003   -5.9549  -27.6890 H   0  0  0  0  0  0  0  0  0  0  0  0
   -9.3419   -4.7078  -26.7327 H   0  0  0  0  0  0  0  0  0  0  0  0
   -4.3750   -5.3446  -26.1070 H   0  0  0  0  0  0  0  0  0  0  0  0
   -4.8039   -2.6278  -25.9332 H   0  0  0  0  0  0  0  0  0  0  0  0
   -8.2951   -2.0931  -27.7123 H   0  0  0  0  0  0  0  0  0  0  0  0
   -7.0435   -1.1058  -26.9636 H   0  0  0  0  0  0  0  0  0  0  0  0
   -9.8767   -1.7873  -25.9267 C   0  0  0  0  0  0  0  0  0  0  0  0
  -10.3669   -2.0289  -27.0263 O   0  0  0  0  0  0  0  0  0  0  0  0
  -10.7338   -1.4364  -24.7655 C   0  0  0  0  0  0  0  0  0  0  0  0
  -12.0998   -1.2814  -24.9965 C   0  0  0  0  0  0  0  0  0  0  0  0
  -12.9617   -0.9805  -23.9626 C   0  0  0  0  0  0  0  0  0  0  0  0
  -12.4198   -0.8641  -22.6883 C   0  0  0  0  0  0  0  0  0  0  0  0
  -13.2595   -0.6189  -21.6773 F   0  0  0  0  0  0  0  0  0  0  0  0
  -11.0709   -1.0211  -22.4295 C   0  0  0  0  0  0  0  0  0  0  0  0
  -10.1981   -1.3039  -23.4816 C   0  0  0  0  0  0  0  0  0  0  0  0
  -10.6840   -0.9346  -21.4222 H   0  0  0  0  0  0  0  0  0  0  0  0
  -14.0282   -0.8441  -24.1189 H   0  0  0  0  0  0  0  0  0  0  0  0
  -12.4588   -1.4166  -26.0102 H   0  0  0  0  0  0  0  0  0  0  0  0
   -6.8994   -1.6406  -24.3789 H   0  0  0  0  0  0  0  0  0  0  0  0
   -7.8644   -0.1749  -24.5756 H   0  0  0  0  0  0  0  0  0  0  0  0
   -6.4011   -3.0598  -21.9363 H   0  0  0  0  0  0  0  0  0  0  0  0
   -7.5250   -3.3941  -20.6097 H   0  0  0  0  0  0  0  0  0  0  0  0
   -9.4313   -3.1769  -21.9447 H   0  0  0  0  0  0  0  0  0  0  0  0
   -7.3156   -3.9675  -24.0008 H   0  0  0  0  0  0  0  0  0  0  0  0
   -8.2144   -5.0730  -22.9413 H   0  0  0  0  0  0  0  0  0  0  0  0
   -9.0671   -4.1831  -24.2296 H   0  0  0  0  0  0  0  0  0  0  0  0
  1  2  1  0
  2  3  1  0
  3  4  1  0
  4  5  1  0
  5  6  2  0
  6  7  1  0
  7  8  2  0
  8  9  1  0
  9 10  2  0
 10 11  1  0
 11 12  2  0
 12 13  1  0
 13 14  2  0
 13 15  1  0
 12 16  1  0
 11 17  1  0
 10 18  1  0
  8 19  1  0
  6 20  1  0
  4 21  1  0
 21 22  2  0
 21 23  1  0
 23 24  1  6
 24 25  1  0
 25 26  1  0
 26 27  1  0
 27 28  2  0
 28 29  1  0
 29 30  2  0
 30 31  1  0
 31 32  1  0
 32 33  1  0
 32 34  1  0
 32 35  1  0
 29 36  1  0
 28 37  1  0
 26 38  1  0
 26 39  1  0
 25 40  1  0
 40 41  2  0
 40 42  1  0
 42 43  2  0
 43 44  1  0
 44 45  2  0
 45 46  1  0
 45 47  1  0
 47 48  2  0
 47 49  1  0
 44 50  1  0
 43 51  1  0
 24 52  1  0
 24 53  1  0
  3 54  1  0
  3 55  1  0
  2 56  1  1
  1 57  1  0
  1 58  1  0
  1 59  1  0
 23  2  1  0
 31 27  1  0
 48 42  1  0
 14  5  1  0
 48 23  1  0
 14  9  1  0
M  END
>  <cnnaffinities>  (85) 
[5.91405, 5.95238, 6.51585, 5.94491]

>  <score>  (85) 
5.91405

>  <index>  (85) 
87

>  <Smiles>  (85) 
C([C@]1(C(N(c2c(nc(c3c(c(c(c(c23)[H])[H])[H])[H])[H])[H])C(=O)[C@]21C(N(C(c1c(c(nn1C([H])([H])[H])[H])[H])([H])[H])C(=O)c1c(c(c(F)c(c21)[H])[H])[H])([H])[H])([H])[H])[H])([H])([H])[H]

>  <h>  (85) 
<NA>

>  <Training>  (85) 
True

>  <Success>  (85) 
True

>  <enamine_searched>  (85) 
False

>  <enamine_id>  (85) 
nan

$$$$

     RDKit          3D

 40 42  0  0  0  0  0  0  0  0999 V2000
   -8.5744    0.6816  -21.3393 O   0  0  0  0  0  0  0  0  0  0  0  0
   -8.5643   -0.4734  -21.7379 C   0  0  0  0  0  0  0  0  0  0  0  0
   -7.4693   -1.4387  -21.2748 C   0  0  0  0  0  0  0  0  0  0  0  0
   -6.6392   -0.8229  -20.1880 C   0  0  0  0  0  0  0  0  0  0  0  0
   -6.9291   -1.0884  -18.8765 C   0  0  0  0  0  0  0  0  0  0  0  0
   -6.2495   -0.6031  -17.8071 N   0  0  0  0  0  0  0  0  0  0  0  0
   -5.2283    0.1786  -18.0607 C   0  0  0  0  0  0  0  0  0  0  0  0
   -4.8275    0.5672  -19.3706 C   0  0  0  0  0  0  0  0  0  0  0  0
   -3.7388    1.4489  -19.5966 C   0  0  0  0  0  0  0  0  0  0  0  0
   -3.4978    1.9481  -20.8459 C   0  0  0  0  0  0  0  0  0  0  0  0
   -4.3046    1.5444  -21.9366 C   0  0  0  0  0  0  0  0  0  0  0  0
   -5.3179    0.6354  -21.7599 C   0  0  0  0  0  0  0  0  0  0  0  0
   -5.5980    0.1104  -20.4669 C   0  0  0  0  0  0  0  0  0  0  0  0
   -5.9190    0.3332  -22.6122 H   0  0  0  0  0  0  0  0  0  0  0  0
   -4.1208    1.9706  -22.9187 H   0  0  0  0  0  0  0  0  0  0  0  0
   -2.7041    2.6709  -21.0095 H   0  0  0  0  0  0  0  0  0  0  0  0
   -3.1314    1.7606  -18.7466 H   0  0  0  0  0  0  0  0  0  0  0  0
   -4.6672    0.5535  -17.2023 H   0  0  0  0  0  0  0  0  0  0  0  0
   -7.7571   -1.7534  -18.6306 H   0  0  0  0  0  0  0  0  0  0  0  0
   -7.9675   -2.3377  -20.8864 H   0  0  0  0  0  0  0  0  0  0  0  0
   -6.8415   -1.7410  -22.1221 H   0  0  0  0  0  0  0  0  0  0  0  0
   -9.5616   -0.9399  -22.5733 N   0  0  0  0  0  0  0  0  0  0  0  0
  -10.8336   -0.2480  -22.3798 C   0  0  0  0  0  0  0  0  0  0  0  0
  -11.6818   -0.2642  -23.6267 C   0  0  0  0  0  0  0  0  0  0  0  0
  -11.9728   -1.7135  -24.0095 C   0  0  0  0  0  0  0  0  0  0  0  0
  -12.8779   -1.7851  -25.2216 C   0  0  0  0  0  0  0  0  0  0  0  0
  -14.0632   -1.1542  -24.9666 F   0  0  0  0  0  0  0  0  0  0  0  0
  -12.3040   -1.1356  -26.2770 F   0  0  0  0  0  0  0  0  0  0  0  0
  -13.1095   -2.8088  -25.5377 H   0  0  0  0  0  0  0  0  0  0  0  0
  -10.6485   -2.4637  -24.1937 C   0  0  0  0  0  0  0  0  0  0  0  0
   -9.7759   -2.3468  -22.9335 C   0  0  0  0  0  0  0  0  0  0  0  0
   -8.8259   -2.8535  -23.1129 H   0  0  0  0  0  0  0  0  0  0  0  0
  -10.2758   -2.8740  -22.0987 H   0  0  0  0  0  0  0  0  0  0  0  0
  -10.1034   -2.0540  -25.0529 H   0  0  0  0  0  0  0  0  0  0  0  0
  -10.8425   -3.5234  -24.4126 H   0  0  0  0  0  0  0  0  0  0  0  0
  -12.5376   -2.1952  -23.1945 H   0  0  0  0  0  0  0  0  0  0  0  0
  -11.1394    0.2411  -24.4334 H   0  0  0  0  0  0  0  0  0  0  0  0
  -12.6147    0.2838  -23.4473 H   0  0  0  0  0  0  0  0  0  0  0  0
  -11.3696   -0.8164  -21.6013 H   0  0  0  0  0  0  0  0  0  0  0  0
  -10.6268    0.7688  -22.0470 H   0  0  0  0  0  0  0  0  0  0  0  0
  1  2  2  0
  2  3  1  0
  3  4  1  0
  4  5  2  0
  5  6  1  0
  6  7  2  0
  7  8  1  0
  8  9  2  0
  9 10  1  0
 10 11  2  0
 11 12  1  0
 12 13  2  0
 12 14  1  0
 11 15  1  0
 10 16  1  0
  9 17  1  0
  7 18  1  0
  5 19  1  0
  3 20  1  0
  3 21  1  0
  2 22  1  0
 22 23  1  0
 23 24  1  0
 24 25  1  0
 25 26  1  0
 26 27  1  0
 26 28  1  0
 26 29  1  0
 25 30  1  0
 30 31  1  0
 31 32  1  0
 31 33  1  0
 30 34  1  0
 30 35  1  0
 25 36  1  0
 24 37  1  0
 24 38  1  0
 23 39  1  0
 23 40  1  0
 13  4  1  0
 31 22  1  0
 13  8  1  0
M  END
>  <cnnaffinities>  (86) 
[4.98813, 4.99993]

>  <score>  (86) 
4.98813

>  <index>  (86) 
88

>  <Smiles>  (86) 
O=C(C(c1c(nc(c2c(c(c(c(c12)[H])[H])[H])[H])[H])[H])([H])[H])N1C(C(C(C(F)(F)[H])(C(C1([H])[H])([H])[H])[H])([H])[H])([H])[H]

>  <h>  (86) 
<NA>

>  <Training>  (86) 
True

>  <Success>  (86) 
True

>  <enamine_searched>  (86) 
False

>  <enamine_id>  (86) 
nan

$$$$

     RDKit          3D

 43 45  0  0  0  0  0  0  0  0999 V2000
  -13.0035   -1.4558  -24.8226 C   0  0  0  0  0  0  0  0  0  0  0  0
  -12.2228   -1.9441  -23.5977 C   0  0  0  0  0  0  0  0  0  0  0  0
  -13.0170   -3.0754  -22.9291 C   0  0  0  0  0  0  0  0  0  0  0  0
  -13.9876   -2.7166  -22.5648 H   0  0  0  0  0  0  0  0  0  0  0  0
  -12.4730   -3.4856  -22.0712 H   0  0  0  0  0  0  0  0  0  0  0  0
  -13.2036   -3.8972  -23.6305 H   0  0  0  0  0  0  0  0  0  0  0  0
  -12.0425   -0.7931  -22.5909 C   0  0  0  0  0  0  0  0  0  0  0  0
  -10.7249   -0.0478  -22.7251 C   0  0  0  0  0  0  0  0  0  0  0  0
   -9.6322   -0.9569  -22.4196 N   0  0  0  0  0  0  0  0  0  0  0  0
   -8.5615   -0.4281  -21.7559 C   0  0  0  0  0  0  0  0  0  0  0  0
   -8.4630    0.7700  -21.5395 O   0  0  0  0  0  0  0  0  0  0  0  0
   -7.4954   -1.4041  -21.2566 C   0  0  0  0  0  0  0  0  0  0  0  0
   -6.6472   -0.7997  -20.1693 C   0  0  0  0  0  0  0  0  0  0  0  0
   -6.9177   -1.0631  -18.8518 C   0  0  0  0  0  0  0  0  0  0  0  0
   -6.2151   -0.5948  -17.7857 N   0  0  0  0  0  0  0  0  0  0  0  0
   -5.2105    0.2108  -18.0505 C   0  0  0  0  0  0  0  0  0  0  0  0
   -4.8278    0.5916  -19.3668 C   0  0  0  0  0  0  0  0  0  0  0  0
   -3.6938    1.4141  -19.6051 C   0  0  0  0  0  0  0  0  0  0  0  0
   -3.4093    1.8569  -20.8705 C   0  0  0  0  0  0  0  0  0  0  0  0
   -4.2211    1.4550  -21.9568 C   0  0  0  0  0  0  0  0  0  0  0  0
   -5.2205    0.5265  -21.7717 C   0  0  0  0  0  0  0  0  0  0  0  0
   -5.5689    0.0909  -20.4600 C   0  0  0  0  0  0  0  0  0  0  0  0
   -5.7780    0.1499  -22.6231 H   0  0  0  0  0  0  0  0  0  0  0  0
   -4.0436    1.8759  -22.9474 H   0  0  0  0  0  0  0  0  0  0  0  0
   -2.5660    2.5260  -21.0444 H   0  0  0  0  0  0  0  0  0  0  0  0
   -3.0907    1.7083  -18.7512 H   0  0  0  0  0  0  0  0  0  0  0  0
   -4.6308    0.5875  -17.2044 H   0  0  0  0  0  0  0  0  0  0  0  0
   -7.7549   -1.7097  -18.5805 H   0  0  0  0  0  0  0  0  0  0  0  0
   -6.8889   -1.7353  -22.1123 H   0  0  0  0  0  0  0  0  0  0  0  0
   -8.0066   -2.2967  -20.8755 H   0  0  0  0  0  0  0  0  0  0  0  0
   -9.7867   -2.3450  -22.8550 C   0  0  0  0  0  0  0  0  0  0  0  0
  -10.8150   -2.4361  -23.9902 C   0  0  0  0  0  0  0  0  0  0  0  0
  -10.4455   -1.8091  -24.8067 H   0  0  0  0  0  0  0  0  0  0  0  0
  -10.8690   -3.4626  -24.3706 H   0  0  0  0  0  0  0  0  0  0  0  0
   -8.8224   -2.7156  -23.2157 H   0  0  0  0  0  0  0  0  0  0  0  0
  -10.0855   -2.9878  -22.0152 H   0  0  0  0  0  0  0  0  0  0  0  0
  -10.5807    0.3689  -23.7260 H   0  0  0  0  0  0  0  0  0  0  0  0
  -10.6443    0.7860  -22.0289 H   0  0  0  0  0  0  0  0  0  0  0  0
  -12.0131   -1.2563  -21.6101 H   0  0  0  0  0  0  0  0  0  0  0  0
  -12.8971   -0.1092  -22.6052 H   0  0  0  0  0  0  0  0  0  0  0  0
  -12.5367   -0.5824  -25.2896 H   0  0  0  0  0  0  0  0  0  0  0  0
  -14.0206   -1.1666  -24.5333 H   0  0  0  0  0  0  0  0  0  0  0  0
  -13.0926   -2.2317  -25.5890 H   0  0  0  0  0  0  0  0  0  0  0  0
  1  2  1  0
  2  3  1  0
  3  4  1  0
  3  5  1  0
  3  6  1  0
  2  7  1  0
  7  8  1  0
  8  9  1  0
  9 10  1  0
 10 11  2  0
 10 12  1  0
 12 13  1  0
 13 14  2  0
 14 15  1  0
 15 16  2  0
 16 17  1  0
 17 18  2  0
 18 19  1  0
 19 20  2  0
 20 21  1  0
 21 22  2  0
 21 23  1  0
 20 24  1  0
 19 25  1  0
 18 26  1  0
 16 27  1  0
 14 28  1  0
 12 29  1  0
 12 30  1  0
  9 31  1  0
 31 32  1  0
 32 33  1  0
 32 34  1  0
 31 35  1  0
 31 36  1  0
  8 37  1  0
  8 38  1  0
  7 39  1  0
  7 40  1  0
  1 41  1  0
  1 42  1  0
  1 43  1  0
 32  2  1  0
 22 13  1  0
 22 17  1  0
M  END
>  <cnnaffinities>  (87) 
[4.72987, 4.72989, 4.72984, 4.72456, 4.80168, 4.46784, 4.473, 4.47296]

>  <score>  (87) 
4.72987

>  <index>  (87) 
89

>  <Smiles>  (87) 
C(C1(C([H])([H])[H])C(C(N(C(=O)C(c2c(nc(c3c(c(c(c(c23)[H])[H])[H])[H])[H])[H])([H])[H])C(C1([H])[H])([H])[H])([H])[H])([H])[H])([H])([H])[H]

>  <h>  (87) 
<NA>

>  <Training>  (87) 
True

>  <Success>  (87) 
True

>  <enamine_searched>  (87) 
False

>  <enamine_id>  (87) 
nan

$$$$

     RDKit          3D

 64 68  0  0  0  0  0  0  0  0999 V2000
   -7.5233    3.2305  -22.0202 C   0  0  0  0  0  0  0  0  0  0  0  0
   -8.6406    2.6709  -22.7632 N   0  0  0  0  0  0  0  0  0  0  0  0
   -8.3770    1.8803  -23.8421 C   0  0  0  0  0  0  0  0  0  0  0  0
   -7.2279    1.6452  -24.1911 O   0  0  0  0  0  0  0  0  0  0  0  0
   -9.5538    1.2787  -24.6224 C   0  0  0  0  0  0  0  0  0  0  0  0
  -10.0199    0.0603  -23.9854 N   0  0  0  0  0  0  0  0  0  0  0  0
   -9.1514   -1.1087  -23.9562 C   0  0  0  0  0  0  0  0  0  0  0  0
   -9.2753   -1.8719  -22.6073 C   0  0  2  0  0  0  0  0  0  0  0  0
   -8.6998   -0.9587  -21.4905 C   0  0  0  0  0  0  0  0  0  0  0  0
   -9.2194    0.0261  -21.0010 O   0  0  0  0  0  0  0  0  0  0  0  0
   -7.4385   -1.4155  -21.1637 N   0  0  0  0  0  0  0  0  0  0  0  0
   -6.6636   -0.8025  -20.1482 C   0  0  0  0  0  0  0  0  0  0  0  0
   -6.9515   -1.0643  -18.8306 C   0  0  0  0  0  0  0  0  0  0  0  0
   -6.2366   -0.5877  -17.7848 N   0  0  0  0  0  0  0  0  0  0  0  0
   -5.1942    0.1608  -18.0569 C   0  0  0  0  0  0  0  0  0  0  0  0
   -4.8016    0.5395  -19.3724 C   0  0  0  0  0  0  0  0  0  0  0  0
   -3.7227    1.4354  -19.6060 C   0  0  0  0  0  0  0  0  0  0  0  0
   -3.4679    1.8961  -20.8683 C   0  0  0  0  0  0  0  0  0  0  0  0
   -4.2696    1.4807  -21.9535 C   0  0  0  0  0  0  0  0  0  0  0  0
   -5.2788    0.5612  -21.7652 C   0  0  0  0  0  0  0  0  0  0  0  0
   -5.5756    0.0736  -20.4618 C   0  0  0  0  0  0  0  0  0  0  0  0
   -5.8998    0.2756  -22.6084 H   0  0  0  0  0  0  0  0  0  0  0  0
   -4.0794    1.8702  -22.9509 H   0  0  0  0  0  0  0  0  0  0  0  0
   -2.6672    2.6104  -21.0395 H   0  0  0  0  0  0  0  0  0  0  0  0
   -3.1358    1.7667  -18.7536 H   0  0  0  0  0  0  0  0  0  0  0  0
   -4.6329    0.5577  -17.2116 H   0  0  0  0  0  0  0  0  0  0  0  0
   -7.7894   -1.7113  -18.5806 H   0  0  0  0  0  0  0  0  0  0  0  0
   -6.9885   -2.5380  -21.9596 C   0  0  0  0  0  0  0  0  0  0  0  0
   -8.3123   -3.0938  -22.5153 C   0  0  2  0  0  0  0  0  0  0  0  0
   -8.1657   -3.9031  -23.8040 C   0  0  0  0  0  0  0  0  0  0  0  0
   -7.2001   -5.3829  -23.5566 S   0  0  0  0  0  0  0  0  0  0  0  0
   -7.8706   -6.1809  -22.5399 O   0  0  0  0  0  0  0  0  0  0  0  0
   -5.7954   -5.0349  -23.3899 O   0  0  0  0  0  0  0  0  0  0  0  0
   -7.3014   -6.1006  -25.0547 N   0  0  0  0  0  0  0  0  0  0  0  0
   -8.5462   -6.6537  -25.5701 C   0  0  0  0  0  0  0  0  0  0  0  0
   -9.2384   -5.8463  -25.8203 H   0  0  0  0  0  0  0  0  0  0  0  0
   -9.0395   -7.3666  -24.9020 H   0  0  0  0  0  0  0  0  0  0  0  0
   -8.3167   -7.1650  -26.5065 H   0  0  0  0  0  0  0  0  0  0  0  0
   -6.4846   -6.6840  -25.1837 H   0  0  0  0  0  0  0  0  0  0  0  0
   -7.6701   -3.3285  -24.5926 H   0  0  0  0  0  0  0  0  0  0  0  0
   -9.1567   -4.2180  -24.1476 H   0  0  0  0  0  0  0  0  0  0  0  0
   -8.7019   -3.7603  -21.7399 H   0  0  0  0  0  0  0  0  0  0  0  0
   -6.4540   -3.2727  -21.3510 H   0  0  0  0  0  0  0  0  0  0  0  0
   -6.3012   -2.2193  -22.7588 H   0  0  0  0  0  0  0  0  0  0  0  0
  -10.7560   -2.1638  -22.3902 C   0  0  0  0  0  0  0  0  0  0  0  0
  -11.2306   -3.2829  -21.6879 C   0  0  0  0  0  0  0  0  0  0  0  0
  -12.5790   -3.4008  -21.3968 C   0  0  0  0  0  0  0  0  0  0  0  0
  -12.9970   -4.4531  -20.6677 F   0  0  0  0  0  0  0  0  0  0  0  0
  -13.5174   -2.4628  -21.8109 C   0  0  0  0  0  0  0  0  0  0  0  0
  -13.0661   -1.3818  -22.5388 C   0  0  0  0  0  0  0  0  0  0  0  0
  -11.7098   -1.2285  -22.8251 C   0  0  0  0  0  0  0  0  0  0  0  0
  -11.3276   -0.0045  -23.5957 C   0  0  0  0  0  0  0  0  0  0  0  0
  -12.1403    0.8735  -23.8545 O   0  0  0  0  0  0  0  0  0  0  0  0
  -13.7539   -0.6295  -22.9106 H   0  0  0  0  0  0  0  0  0  0  0  0
  -14.5652   -2.5917  -21.5589 H   0  0  0  0  0  0  0  0  0  0  0  0
  -10.5759   -4.0506  -21.2929 H   0  0  0  0  0  0  0  0  0  0  0  0
   -9.4087   -1.7734  -24.7933 H   0  0  0  0  0  0  0  0  0  0  0  0
   -8.1264   -0.7551  -24.0977 H   0  0  0  0  0  0  0  0  0  0  0  0
  -10.4129    1.9548  -24.6654 H   0  0  0  0  0  0  0  0  0  0  0  0
   -9.2163    1.0831  -25.6557 H   0  0  0  0  0  0  0  0  0  0  0  0
   -9.5159    2.5515  -22.2646 H   0  0  0  0  0  0  0  0  0  0  0  0
   -7.8767    4.0319  -21.3695 H   0  0  0  0  0  0  0  0  0  0  0  0
   -7.0353    2.4726  -21.3991 H   0  0  0  0  0  0  0  0  0  0  0  0
   -6.7680    3.6323  -22.7058 H   0  0  0  0  0  0  0  0  0  0  0  0
  1  2  1  0
  2  3  1  0
  3  4  2  0
  3  5  1  0
  5  6  1  0
  6  7  1  0
  8  7  1  6
  8  9  1  0
  9 10  2  0
  9 11  1  0
 11 12  1  0
 12 13  2  0
 13 14  1  0
 14 15  2  0
 15 16  1  0
 16 17  2  0
 17 18  1  0
 18 19  2  0
 19 20  1  0
 20 21  2  0
 20 22  1  0
 19 23  1  0
 18 24  1  0
 17 25  1  0
 15 26  1  0
 13 27  1  0
 11 28  1  0
 28 29  1  0
 29 30  1  0
 30 31  1  0
 31 32  2  0
 31 33  2  0
 31 34  1  0
 34 35  1  0
 35 36  1  0
 35 37  1  0
 35 38  1  0
 34 39  1  0
 30 40  1  0
 30 41  1  0
 29 42  1  1
 28 43  1  0
 28 44  1  0
  8 45  1  0
 45 46  2  0
 46 47  1  0
 47 48  1  0
 47 49  2  0
 49 50  1  0
 50 51  2  0
 51 52  1  0
 52 53  2  0
 50 54  1  0
 49 55  1  0
 46 56  1  0
  7 57  1  0
  7 58  1  0
  5 59  1  0
  5 60  1  0
  2 61  1  0
  1 62  1  0
  1 63  1  0
  1 64  1  0
 52  6  1  0
 29  8  1  0
 51 45  1  0
 21 12  1  0
 21 16  1  0
M  END
>  <cnnaffinities>  (88) 
[6.4806]

>  <score>  (88) 
6.4806

>  <index>  (88) 
90

>  <Smiles>  (88) 
C(N(C(=O)C(N1C([C@@]2(C(=O)N(c3c(nc(c4c(c(c(c(c34)[H])[H])[H])[H])[H])[H])C([C@@]2(C(S(=O)(=O)N(C([H])([H])[H])[H])([H])[H])[H])([H])[H])c2c(c(F)c(c(c2C1=O)[H])[H])[H])([H])[H])([H])[H])[H])([H])([H])[H]

>  <h>  (88) 
<NA>

>  <Training>  (88) 
True

>  <Success>  (88) 
True

>  <enamine_searched>  (88) 
False

>  <enamine_id>  (88) 
nan

$$$$

     RDKit          3D

 66 71  0  0  0  0  0  0  0  0999 V2000
   -7.3962    3.3979  -21.8778 C   0  0  0  0  0  0  0  0  0  0  0  0
   -8.3325    2.9086  -22.8765 N   0  0  0  0  0  0  0  0  0  0  0  0
   -7.8105    2.1846  -23.9088 C   0  0  0  0  0  0  0  0  0  0  0  0
   -6.6063    2.0176  -24.0530 O   0  0  0  0  0  0  0  0  0  0  0  0
   -8.7948    1.5671  -24.8982 C   0  0  0  0  0  0  0  0  0  0  0  0
   -9.4435    0.4136  -24.3039 N   0  0  0  0  0  0  0  0  0  0  0  0
   -8.6882   -0.8249  -24.1547 C   0  0  0  0  0  0  0  0  0  0  0  0
   -9.0674   -1.5696  -22.8465 C   0  0  2  0  0  0  0  0  0  0  0  0
   -8.5467   -0.7762  -21.6253 C   0  0  0  0  0  0  0  0  0  0  0  0
   -9.0232    0.2285  -21.1386 O   0  0  0  0  0  0  0  0  0  0  0  0
   -7.4049   -1.3931  -21.1722 N   0  0  0  0  0  0  0  0  0  0  0  0
   -6.6244   -0.8037  -20.1531 C   0  0  0  0  0  0  0  0  0  0  0  0
   -6.9281   -1.0583  -18.8413 C   0  0  0  0  0  0  0  0  0  0  0  0
   -6.2297   -0.5739  -17.7889 N   0  0  0  0  0  0  0  0  0  0  0  0
   -5.1977    0.1916  -18.0534 C   0  0  0  0  0  0  0  0  0  0  0  0
   -4.7905    0.5576  -19.3697 C   0  0  0  0  0  0  0  0  0  0  0  0
   -3.6946    1.4291  -19.6122 C   0  0  0  0  0  0  0  0  0  0  0  0
   -3.4181    1.8637  -20.8788 C   0  0  0  0  0  0  0  0  0  0  0  0
   -4.2209    1.4563  -21.9675 C   0  0  0  0  0  0  0  0  0  0  0  0
   -5.2219    0.5291  -21.7740 C   0  0  0  0  0  0  0  0  0  0  0  0
   -5.5517    0.0827  -20.4629 C   0  0  0  0  0  0  0  0  0  0  0  0
   -5.7969    0.1835  -22.6267 H   0  0  0  0  0  0  0  0  0  0  0  0
   -4.0615    1.8832  -22.9507 H   0  0  0  0  0  0  0  0  0  0  0  0
   -2.5905    2.5494  -21.0480 H   0  0  0  0  0  0  0  0  0  0  0  0
   -3.0907    1.7417  -18.7648 H   0  0  0  0  0  0  0  0  0  0  0  0
   -4.6283    0.5655  -17.2015 H   0  0  0  0  0  0  0  0  0  0  0  0
   -7.7835   -1.6869  -18.6119 H   0  0  0  0  0  0  0  0  0  0  0  0
   -7.0119   -2.5624  -21.9257 C   0  0  0  0  0  0  0  0  0  0  0  0
   -8.2932   -2.9204  -22.6979 C   0  0  2  0  0  0  0  0  0  0  0  0
   -8.0068   -3.7092  -23.9913 C   0  0  0  0  0  0  0  0  0  0  0  0
   -7.5033   -5.0509  -23.7636 N   0  0  0  0  0  0  0  0  0  0  0  0
   -6.1921   -5.3739  -23.4945 C   0  0  0  0  0  0  0  0  0  0  0  0
   -5.0712   -4.6031  -23.8904 C   0  0  0  0  0  0  0  0  0  0  0  0
   -3.8248   -4.9671  -23.6129 N   0  0  0  0  0  0  0  0  0  0  0  0
   -3.6603   -6.1077  -22.9412 C   0  0  0  0  0  0  0  0  0  0  0  0
   -4.7516   -6.8736  -22.5645 C   0  0  0  0  0  0  0  0  0  0  0  0
   -6.0072   -6.5233  -22.8418 N   0  0  0  0  0  0  0  0  0  0  0  0
   -4.6211   -7.8020  -22.0115 H   0  0  0  0  0  0  0  0  0  0  0  0
   -2.6411   -6.4117  -22.7059 H   0  0  0  0  0  0  0  0  0  0  0  0
   -5.1903   -3.6781  -24.4466 H   0  0  0  0  0  0  0  0  0  0  0  0
   -8.1350   -5.7080  -23.3260 H   0  0  0  0  0  0  0  0  0  0  0  0
   -7.2707   -3.1702  -24.5987 H   0  0  0  0  0  0  0  0  0  0  0  0
   -8.9190   -3.7838  -24.5993 H   0  0  0  0  0  0  0  0  0  0  0  0
   -8.8892   -3.5690  -22.0451 H   0  0  0  0  0  0  0  0  0  0  0  0
   -6.6840   -3.3612  -21.2554 H   0  0  0  0  0  0  0  0  0  0  0  0
   -6.1737   -2.3410  -22.6072 H   0  0  0  0  0  0  0  0  0  0  0  0
  -10.5800   -1.6575  -22.7836 C   0  0  0  0  0  0  0  0  0  0  0  0
  -11.2062   -2.5906  -21.9537 C   0  0  0  0  0  0  0  0  0  0  0  0
  -12.5845   -2.6192  -21.8550 C   0  0  0  0  0  0  0  0  0  0  0  0
  -13.3179   -3.7798  -20.7933 Cl  0  0  0  0  0  0  0  0  0  0  0  0
  -13.3958   -1.7362  -22.5648 C   0  0  0  0  0  0  0  0  0  0  0  0
  -12.7838   -0.7850  -23.3521 C   0  0  0  0  0  0  0  0  0  0  0  0
  -11.3948   -0.7239  -23.4382 C   0  0  0  0  0  0  0  0  0  0  0  0
  -10.8072    0.4197  -24.2013 C   0  0  0  0  0  0  0  0  0  0  0  0
  -11.5028    1.3075  -24.6749 O   0  0  0  0  0  0  0  0  0  0  0  0
  -13.3535   -0.0488  -23.9057 H   0  0  0  0  0  0  0  0  0  0  0  0
  -14.4758   -1.7808  -22.4780 H   0  0  0  0  0  0  0  0  0  0  0  0
  -10.6382   -3.2945  -21.3580 H   0  0  0  0  0  0  0  0  0  0  0  0
   -8.9021   -1.4880  -25.0047 H   0  0  0  0  0  0  0  0  0  0  0  0
   -7.6170   -0.5911  -24.1727 H   0  0  0  0  0  0  0  0  0  0  0  0
   -8.2470    1.2702  -25.8014 H   0  0  0  0  0  0  0  0  0  0  0  0
   -9.5821    2.2728  -25.1823 H   0  0  0  0  0  0  0  0  0  0  0  0
   -9.2707    2.6994  -22.5570 H   0  0  0  0  0  0  0  0  0  0  0  0
   -6.8384    2.5502  -21.4590 H   0  0  0  0  0  0  0  0  0  0  0  0
   -6.6946    4.0973  -22.3397 H   0  0  0  0  0  0  0  0  0  0  0  0
   -7.9276    3.9335  -21.0900 H   0  0  0  0  0  0  0  0  0  0  0  0
  1  2  1  0
  2  3  1  0
  3  4  2  0
  3  5  1  0
  5  6  1  0
  6  7  1  0
  8  7  1  6
  8  9  1  0
  9 10  2  0
  9 11  1  0
 11 12  1  0
 12 13  2  0
 13 14  1  0
 14 15  2  0
 15 16  1  0
 16 17  2  0
 17 18  1  0
 18 19  2  0
 19 20  1  0
 20 21  2  0
 20 22  1  0
 19 23  1  0
 18 24  1  0
 17 25  1  0
 15 26  1  0
 13 27  1  0
 11 28  1  0
 28 29  1  0
 29 30  1  0
 30 31  1  0
 31 32  1  0
 32 33  2  0
 33 34  1  0
 34 35  2  0
 35 36  1  0
 36 37  2  0
 36 38  1  0
 35 39  1  0
 33 40  1  0
 31 41  1  0
 30 42  1  0
 30 43  1  0
 29 44  1  1
 28 45  1  0
 28 46  1  0
  8 47  1  0
 47 48  2  0
 48 49  1  0
 49 50  1  0
 49 51  2  0
 51 52  1  0
 52 53  2  0
 53 54  1  0
 54 55  2  0
 52 56  1  0
 51 57  1  0
 48 58  1  0
  7 59  1  0
  7 60  1  0
  5 61  1  0
  5 62  1  0
  2 63  1  0
  1 64  1  0
  1 65  1  0
  1 66  1  0
 54  6  1  0
 29  8  1  0
 37 32  1  0
 53 47  1  0
 21 12  1  0
 21 16  1  0
M  END
>  <cnnaffinities>  (89) 
[6.49023, 6.55047, 6.34408]

>  <score>  (89) 
6.49023

>  <index>  (89) 
91

>  <Smiles>  (89) 
C(N(C(=O)C(N1C([C@@]2(C(=O)N(c3c(nc(c4c(c(c(c(c34)[H])[H])[H])[H])[H])[H])C([C@@]2(C(N(c2c(nc(c(n2)[H])[H])[H])[H])([H])[H])[H])([H])[H])c2c(c(Cl)c(c(c2C1=O)[H])[H])[H])([H])[H])([H])[H])[H])([H])([H])[H]

>  <h>  (89) 
<NA>

>  <Training>  (89) 
True

>  <Success>  (89) 
True

>  <enamine_searched>  (89) 
False

>  <enamine_id>  (89) 
nan

$$$$

     RDKit          3D

 60 65  0  0  0  0  0  0  0  0999 V2000
   -7.4656   -6.2939  -23.8231 C   0  0  0  0  0  0  0  0  0  0  0  0
   -7.9091   -5.2849  -22.9467 O   0  0  0  0  0  0  0  0  0  0  0  0
   -8.1576   -4.0786  -23.6250 C   0  0  0  0  0  0  0  0  0  0  0  0
   -8.4698   -3.0021  -22.5984 C   0  0  1  0  0  0  0  0  0  0  0  0
   -7.3672   -2.8106  -21.5479 C   0  0  0  0  0  0  0  0  0  0  0  0
   -7.4618   -1.3976  -21.2150 N   0  0  0  0  0  0  0  0  0  0  0  0
   -6.6781   -0.7956  -20.1995 C   0  0  0  0  0  0  0  0  0  0  0  0
   -6.9325   -1.1111  -18.8887 C   0  0  0  0  0  0  0  0  0  0  0  0
   -6.2357   -0.6378  -17.8284 N   0  0  0  0  0  0  0  0  0  0  0  0
   -5.2256    0.1599  -18.0825 C   0  0  0  0  0  0  0  0  0  0  0  0
   -4.8429    0.5601  -19.3936 C   0  0  0  0  0  0  0  0  0  0  0  0
   -3.7530    1.4478  -19.5972 C   0  0  0  0  0  0  0  0  0  0  0  0
   -3.4866    1.9477  -20.8414 C   0  0  0  0  0  0  0  0  0  0  0  0
   -4.2595    1.5261  -21.9497 C   0  0  0  0  0  0  0  0  0  0  0  0
   -5.2736    0.6159  -21.7906 C   0  0  0  0  0  0  0  0  0  0  0  0
   -5.6059    0.1124  -20.4962 C   0  0  0  0  0  0  0  0  0  0  0  0
   -5.8299    0.2849  -22.6634 H   0  0  0  0  0  0  0  0  0  0  0  0
   -4.0405    1.9240  -22.9382 H   0  0  0  0  0  0  0  0  0  0  0  0
   -2.6836    2.6656  -20.9910 H   0  0  0  0  0  0  0  0  0  0  0  0
   -3.1628    1.7428  -18.7330 H   0  0  0  0  0  0  0  0  0  0  0  0
   -4.6638    0.5485  -17.2324 H   0  0  0  0  0  0  0  0  0  0  0  0
   -7.7498   -1.7902  -18.6477 H   0  0  0  0  0  0  0  0  0  0  0  0
   -8.2420   -0.6658  -22.0826 C   0  0  0  0  0  0  0  0  0  0  0  0
   -8.4080    0.5385  -22.0074 O   0  0  0  0  0  0  0  0  0  0  0  0
   -8.7502   -1.5874  -23.1985 C   0  0  1  0  0  0  0  0  0  0  0  0
   -7.8965   -1.2305  -24.4571 C   0  0  0  0  0  0  0  0  0  0  0  0
   -8.4309   -1.7630  -25.7085 N   0  0  0  0  0  0  0  0  0  0  0  0
   -7.5798   -2.1851  -26.8293 C   0  0  0  0  0  0  0  0  0  0  0  0
   -7.4048   -3.6802  -26.9449 C   0  0  0  0  0  0  0  0  0  0  0  0
   -6.2519   -4.4513  -26.6847 C   0  0  0  0  0  0  0  0  0  0  0  0
   -6.4594   -5.7527  -26.8759 N   0  0  0  0  0  0  0  0  0  0  0  0
   -7.7264   -5.8123  -27.2861 N   0  0  0  0  0  0  0  0  0  0  0  0
   -8.3470   -4.6104  -27.3342 C   0  0  0  0  0  0  0  0  0  0  0  0
   -9.3754   -4.5116  -27.6654 H   0  0  0  0  0  0  0  0  0  0  0  0
   -8.1062   -6.7075  -27.5336 H   0  0  0  0  0  0  0  0  0  0  0  0
   -5.2760   -4.1151  -26.3587 H   0  0  0  0  0  0  0  0  0  0  0  0
   -6.6051   -1.6987  -26.7393 H   0  0  0  0  0  0  0  0  0  0  0  0
   -8.0761   -1.8174  -27.7367 H   0  0  0  0  0  0  0  0  0  0  0  0
   -9.7725   -1.7832  -25.9692 C   0  0  0  0  0  0  0  0  0  0  0  0
  -10.2227   -2.0838  -27.0691 O   0  0  0  0  0  0  0  0  0  0  0  0
  -10.6785   -1.4425  -24.8358 C   0  0  0  0  0  0  0  0  0  0  0  0
  -12.0273   -1.2581  -25.1517 C   0  0  0  0  0  0  0  0  0  0  0  0
  -12.9666   -1.1575  -24.1454 C   0  0  0  0  0  0  0  0  0  0  0  0
  -12.5346   -1.2245  -22.8197 C   0  0  0  0  0  0  0  0  0  0  0  0
  -13.7547   -1.3256  -21.5840 Cl  0  0  0  0  0  0  0  0  0  0  0  0
  -11.1848   -1.2697  -22.4942 C   0  0  0  0  0  0  0  0  0  0  0  0
  -10.2209   -1.3834  -23.5146 C   0  0  0  0  0  0  0  0  0  0  0  0
  -10.9151   -1.2096  -21.4448 H   0  0  0  0  0  0  0  0  0  0  0  0
  -14.0256   -1.0509  -24.3712 H   0  0  0  0  0  0  0  0  0  0  0  0
  -12.3033   -1.2212  -26.2057 H   0  0  0  0  0  0  0  0  0  0  0  0
   -6.8714   -1.5929  -24.3150 H   0  0  0  0  0  0  0  0  0  0  0  0
   -7.8313   -0.1351  -24.5074 H   0  0  0  0  0  0  0  0  0  0  0  0
   -7.5349   -3.4309  -20.6633 H   0  0  0  0  0  0  0  0  0  0  0  0
   -6.3677   -3.0544  -21.9296 H   0  0  0  0  0  0  0  0  0  0  0  0
   -9.3782   -3.3108  -22.0642 H   0  0  0  0  0  0  0  0  0  0  0  0
   -7.2806   -3.8041  -24.2298 H   0  0  0  0  0  0  0  0  0  0  0  0
   -9.0157   -4.1937  -24.3069 H   0  0  0  0  0  0  0  0  0  0  0  0
   -7.5068   -7.2377  -23.2728 H   0  0  0  0  0  0  0  0  0  0  0  0
   -6.4396   -6.1158  -24.1757 H   0  0  0  0  0  0  0  0  0  0  0  0
   -8.1072   -6.3739  -24.7089 H   0  0  0  0  0  0  0  0  0  0  0  0
  1  2  1  0
  2  3  1  0
  3  4  1  0
  4  5  1  0
  5  6  1  0
  6  7  1  0
  7  8  2  0
  8  9  1  0
  9 10  2  0
 10 11  1  0
 11 12  2  0
 12 13  1  0
 13 14  2  0
 14 15  1  0
 15 16  2  0
 15 17  1  0
 14 18  1  0
 13 19  1  0
 12 20  1  0
 10 21  1  0
  8 22  1  0
  6 23  1  0
 23 24  2  0
 23 25  1  0
 25 26  1  6
 26 27  1  0
 27 28  1  0
 28 29  1  0
 29 30  1  0
 30 31  2  0
 31 32  1  0
 32 33  1  0
 33 34  1  0
 32 35  1  0
 30 36  1  0
 28 37  1  0
 28 38  1  0
 27 39  1  0
 39 40  2  0
 39 41  1  0
 41 42  2  0
 42 43  1  0
 43 44  2  0
 44 45  1  0
 44 46  1  0
 46 47  2  0
 46 48  1  0
 43 49  1  0
 42 50  1  0
 26 51  1  0
 26 52  1  0
  5 53  1  0
  5 54  1  0
  4 55  1  1
  3 56  1  0
  3 57  1  0
  1 58  1  0
  1 59  1  0
  1 60  1  0
 25  4  1  0
 33 29  2  0
 47 41  1  0
 16  7  1  0
 47 25  1  0
 16 11  1  0
M  END
>  <cnnaffinities>  (90) 
[6.01856, 6.48268, 6.01524, 6.0538]

>  <score>  (90) 
6.01856

>  <index>  (90) 
92

>  <Smiles>  (90) 
C(OC([C@]1(C(N(c2c(nc(c3c(c(c(c(c23)[H])[H])[H])[H])[H])[H])C(=O)[C@]21C(N(C(c1c(nn(c1[H])[H])[H])([H])[H])C(=O)c1c(c(c(Cl)c(c21)[H])[H])[H])([H])[H])([H])[H])[H])([H])[H])([H])([H])[H]

>  <h>  (90) 
<NA>

>  <Training>  (90) 
True

>  <Success>  (90) 
True

>  <enamine_searched>  (90) 
False

>  <enamine_id>  (90) 
nan

$$$$

     RDKit          3D

 62 67  0  0  0  0  0  0  0  0999 V2000
  -11.3179    4.3030  -25.2277 C   0  0  0  0  0  0  0  0  0  0  0  0
   -9.8241    4.1697  -25.5257 C   0  0  0  0  0  0  0  0  0  0  0  0
   -9.0680    3.5851  -24.4239 N   0  0  0  0  0  0  0  0  0  0  0  0
   -8.4836    4.4133  -23.5419 N   0  0  0  0  0  0  0  0  0  0  0  0
   -7.9005    3.6227  -22.6519 C   0  0  0  0  0  0  0  0  0  0  0  0
   -8.1128    2.2643  -22.9688 C   0  0  0  0  0  0  0  0  0  0  0  0
   -8.8883    2.2709  -24.1038 C   0  0  0  0  0  0  0  0  0  0  0  0
   -9.3941    1.0982  -24.9053 C   0  0  0  0  0  0  0  0  0  0  0  0
   -9.8578   -0.0001  -24.0802 N   0  0  0  0  0  0  0  0  0  0  0  0
   -9.0381   -1.1936  -23.9753 C   0  0  0  0  0  0  0  0  0  0  0  0
   -9.2205   -1.9100  -22.6127 C   0  0  2  0  0  0  0  0  0  0  0  0
   -8.6578   -1.0265  -21.4631 C   0  0  0  0  0  0  0  0  0  0  0  0
   -9.2195   -0.1075  -20.9036 O   0  0  0  0  0  0  0  0  0  0  0  0
   -7.3762   -1.4427  -21.1841 N   0  0  0  0  0  0  0  0  0  0  0  0
   -6.6079   -0.8321  -20.1566 C   0  0  0  0  0  0  0  0  0  0  0  0
   -6.9112   -1.0610  -18.8372 C   0  0  0  0  0  0  0  0  0  0  0  0
   -6.2048   -0.5615  -17.7946 N   0  0  0  0  0  0  0  0  0  0  0  0
   -5.1702    0.1950  -18.0676 C   0  0  0  0  0  0  0  0  0  0  0  0
   -4.7621    0.5454  -19.3853 C   0  0  0  0  0  0  0  0  0  0  0  0
   -3.6578    1.4096  -19.6248 C   0  0  0  0  0  0  0  0  0  0  0  0
   -3.3439    1.7882  -20.8997 C   0  0  0  0  0  0  0  0  0  0  0  0
   -4.1331    1.3506  -21.9870 C   0  0  0  0  0  0  0  0  0  0  0  0
   -5.1535    0.4496  -21.7829 C   0  0  0  0  0  0  0  0  0  0  0  0
   -5.5163    0.0443  -20.4690 C   0  0  0  0  0  0  0  0  0  0  0  0
   -5.6410   -0.0055  -22.6391 H   0  0  0  0  0  0  0  0  0  0  0  0
   -3.8669    1.6387  -22.9994 H   0  0  0  0  0  0  0  0  0  0  0  0
   -2.4531    2.3830  -21.0939 H   0  0  0  0  0  0  0  0  0  0  0  0
   -3.0632    1.7325  -18.7723 H   0  0  0  0  0  0  0  0  0  0  0  0
   -4.6196    0.6085  -17.2234 H   0  0  0  0  0  0  0  0  0  0  0  0
   -7.7655   -1.6790  -18.5725 H   0  0  0  0  0  0  0  0  0  0  0  0
   -6.9632   -2.6157  -21.9349 C   0  0  0  0  0  0  0  0  0  0  0  0
   -8.2920   -3.1595  -22.5093 C   0  0  2  0  0  0  0  0  0  0  0  0
   -8.0982   -3.9869  -23.7830 C   0  0  0  0  0  0  0  0  0  0  0  0
   -7.5584   -3.4105  -24.5452 H   0  0  0  0  0  0  0  0  0  0  0  0
   -7.5082   -4.8875  -23.5799 H   0  0  0  0  0  0  0  0  0  0  0  0
   -9.0537   -4.3011  -24.2190 H   0  0  0  0  0  0  0  0  0  0  0  0
   -8.7330   -3.7919  -21.7323 H   0  0  0  0  0  0  0  0  0  0  0  0
   -6.4574   -3.3276  -21.2731 H   0  0  0  0  0  0  0  0  0  0  0  0
   -6.2601   -2.3554  -22.7426 H   0  0  0  0  0  0  0  0  0  0  0  0
  -10.7098   -2.1408  -22.4258 C   0  0  0  0  0  0  0  0  0  0  0  0
  -11.2175   -3.2320  -21.7107 C   0  0  0  0  0  0  0  0  0  0  0  0
  -12.5744   -3.3214  -21.4783 C   0  0  0  0  0  0  0  0  0  0  0  0
  -13.0445   -4.3501  -20.7525 F   0  0  0  0  0  0  0  0  0  0  0  0
  -13.4754   -2.3693  -21.9353 C   0  0  0  0  0  0  0  0  0  0  0  0
  -12.9827   -1.2854  -22.6334 C   0  0  0  0  0  0  0  0  0  0  0  0
  -11.6158   -1.1680  -22.8816 C   0  0  0  0  0  0  0  0  0  0  0  0
  -11.1471    0.0373  -23.6431 C   0  0  0  0  0  0  0  0  0  0  0  0
  -11.8876    0.9852  -23.8731 O   0  0  0  0  0  0  0  0  0  0  0  0
  -13.6268   -0.4943  -23.0040 H   0  0  0  0  0  0  0  0  0  0  0  0
  -14.5292   -2.4918  -21.7210 H   0  0  0  0  0  0  0  0  0  0  0  0
  -10.5873   -3.9930  -21.2659 H   0  0  0  0  0  0  0  0  0  0  0  0
   -9.2956   -1.9119  -24.7719 H   0  0  0  0  0  0  0  0  0  0  0  0
   -7.9917   -0.8907  -24.0867 H   0  0  0  0  0  0  0  0  0  0  0  0
  -10.2135    1.4044  -25.5638 H   0  0  0  0  0  0  0  0  0  0  0  0
   -8.5838    0.6942  -25.5220 H   0  0  0  0  0  0  0  0  0  0  0  0
   -7.7868    1.3719  -22.4535 H   0  0  0  0  0  0  0  0  0  0  0  0
   -7.3675    4.0798  -21.8214 H   0  0  0  0  0  0  0  0  0  0  0  0
   -9.3639    5.1499  -25.6975 H   0  0  0  0  0  0  0  0  0  0  0  0
   -9.6502    3.5491  -26.4147 H   0  0  0  0  0  0  0  0  0  0  0  0
  -11.7715    3.3228  -25.0384 H   0  0  0  0  0  0  0  0  0  0  0  0
  -11.4876    4.9451  -24.3568 H   0  0  0  0  0  0  0  0  0  0  0  0
  -11.8165    4.7584  -26.0880 H   0  0  0  0  0  0  0  0  0  0  0  0
  1  2  1  0
  2  3  1  0
  3  4  1  0
  4  5  2  0
  5  6  1  0
  6  7  2  0
  7  8  1  0
  8  9  1  0
  9 10  1  0
 11 10  1  6
 11 12  1  0
 12 13  2  0
 12 14  1  0
 14 15  1  0
 15 16  2  0
 16 17  1  0
 17 18  2  0
 18 19  1  0
 19 20  2  0
 20 21  1  0
 21 22  2  0
 22 23  1  0
 23 24  2  0
 23 25  1  0
 22 26  1  0
 21 27  1  0
 20 28  1  0
 18 29  1  0
 16 30  1  0
 14 31  1  0
 31 32  1  0
 32 33  1  0
 33 34  1  0
 33 35  1  0
 33 36  1  0
 32 37  1  1
 31 38  1  0
 31 39  1  0
 11 40  1  0
 40 41  2  0
 41 42  1  0
 42 43  1  0
 42 44  2  0
 44 45  1  0
 45 46  2  0
 46 47  1  0
 47 48  2  0
 45 49  1  0
 44 50  1  0
 41 51  1  0
 10 52  1  0
 10 53  1  0
  8 54  1  0
  8 55  1  0
  6 56  1  0
  5 57  1  0
  2 58  1  0
  2 59  1  0
  1 60  1  0
  1 61  1  0
  1 62  1  0
  7  3  1  0
 47  9  1  0
 32 11  1  0
 46 40  1  0
 24 15  1  0
 24 19  1  0
M  END
>  <cnnaffinities>  (91) 
[6.45409, 6.01532, 6.05106, 5.97126]

>  <score>  (91) 
6.45409

>  <index>  (91) 
93

>  <Smiles>  (91) 
C(C(n1nc(c(c1C(N1C([C@@]2(C(=O)N(c3c(nc(c4c(c(c(c(c34)[H])[H])[H])[H])[H])[H])C([C@@]2(C([H])([H])[H])[H])([H])[H])c2c(c(F)c(c(c2C1=O)[H])[H])[H])([H])[H])([H])[H])[H])[H])([H])[H])([H])([H])[H]

>  <h>  (91) 
<NA>

>  <Training>  (91) 
True

>  <Success>  (91) 
True

>  <enamine_searched>  (91) 
False

>  <enamine_id>  (91) 
nan

$$$$

     RDKit          3D

 66 71  0  0  0  0  0  0  0  0999 V2000
   -7.8383   -6.0307  -26.6971 C   0  0  0  0  0  0  0  0  0  0  0  0
   -8.0245   -4.6132  -26.9521 N   0  0  0  0  0  0  0  0  0  0  0  0
   -7.1002   -3.7074  -26.5604 C   0  0  0  0  0  0  0  0  0  0  0  0
   -6.0575   -4.0232  -25.9961 O   0  0  0  0  0  0  0  0  0  0  0  0
   -7.4519   -2.2386  -26.8089 C   0  0  0  0  0  0  0  0  0  0  0  0
   -8.3552   -1.7242  -25.7875 N   0  0  0  0  0  0  0  0  0  0  0  0
   -7.8282   -1.2406  -24.5138 C   0  0  0  0  0  0  0  0  0  0  0  0
   -8.7282   -1.5414  -23.2750 C   0  0  2  0  0  0  0  0  0  0  0  0
   -8.2709   -0.5661  -22.1660 C   0  0  0  0  0  0  0  0  0  0  0  0
   -8.4746    0.6273  -22.1331 O   0  0  0  0  0  0  0  0  0  0  0  0
   -7.5038   -1.2622  -21.2475 N   0  0  0  0  0  0  0  0  0  0  0  0
   -6.7286   -0.6769  -20.2159 C   0  0  0  0  0  0  0  0  0  0  0  0
   -6.9308   -1.0866  -18.9204 C   0  0  0  0  0  0  0  0  0  0  0  0
   -6.2105   -0.6709  -17.8517 N   0  0  0  0  0  0  0  0  0  0  0  0
   -5.2265    0.1646  -18.0803 C   0  0  0  0  0  0  0  0  0  0  0  0
   -4.8951    0.6656  -19.3707 C   0  0  0  0  0  0  0  0  0  0  0  0
   -3.8151    1.5696  -19.5579 C   0  0  0  0  0  0  0  0  0  0  0  0
   -3.5277    2.0617  -20.8006 C   0  0  0  0  0  0  0  0  0  0  0  0
   -4.2961    1.6578  -21.9167 C   0  0  0  0  0  0  0  0  0  0  0  0
   -5.3302    0.7698  -21.7632 C   0  0  0  0  0  0  0  0  0  0  0  0
   -5.6699    0.2556  -20.4795 C   0  0  0  0  0  0  0  0  0  0  0  0
   -5.9230    0.4897  -22.6274 H   0  0  0  0  0  0  0  0  0  0  0  0
   -4.0783    2.0684  -22.8982 H   0  0  0  0  0  0  0  0  0  0  0  0
   -2.7371    2.7949  -20.9310 H   0  0  0  0  0  0  0  0  0  0  0  0
   -3.2265    1.8558  -18.6905 H   0  0  0  0  0  0  0  0  0  0  0  0
   -4.6459    0.4965  -17.2192 H   0  0  0  0  0  0  0  0  0  0  0  0
   -7.7463   -1.7740  -18.7019 H   0  0  0  0  0  0  0  0  0  0  0  0
   -7.3912   -2.6804  -21.5362 C   0  0  0  0  0  0  0  0  0  0  0  0
   -8.4801   -2.9146  -22.5837 C   0  0  2  0  0  0  0  0  0  0  0  0
   -8.1925   -4.0874  -23.5155 C   0  0  0  0  0  0  0  0  0  0  0  0
   -8.1278   -5.3460  -22.8017 N   0  0  0  0  0  0  0  0  0  0  0  0
   -6.9928   -5.9107  -22.3089 C   0  0  0  0  0  0  0  0  0  0  0  0
   -5.7241   -5.7024  -22.8764 C   0  0  0  0  0  0  0  0  0  0  0  0
   -4.6699   -6.3511  -22.2655 C   0  0  0  0  0  0  0  0  0  0  0  0
   -4.8211   -7.1146  -21.1790 N   0  0  0  0  0  0  0  0  0  0  0  0
   -6.0628   -7.2378  -20.7371 C   0  0  0  0  0  0  0  0  0  0  0  0
   -7.1648   -6.7039  -21.2406 N   0  0  0  0  0  0  0  0  0  0  0  0
   -6.1928   -7.8604  -19.8534 H   0  0  0  0  0  0  0  0  0  0  0  0
   -3.6493   -6.2656  -22.6429 H   0  0  0  0  0  0  0  0  0  0  0  0
   -5.6027   -5.0874  -23.7624 H   0  0  0  0  0  0  0  0  0  0  0  0
   -8.9202   -5.5152  -22.1983 H   0  0  0  0  0  0  0  0  0  0  0  0
   -9.0056   -4.1414  -24.2495 H   0  0  0  0  0  0  0  0  0  0  0  0
   -7.2541   -3.9179  -24.0448 H   0  0  0  0  0  0  0  0  0  0  0  0
   -9.4137   -3.1429  -22.0482 H   0  0  0  0  0  0  0  0  0  0  0  0
   -7.5514   -3.2683  -20.6293 H   0  0  0  0  0  0  0  0  0  0  0  0
   -6.3828   -2.9224  -21.9072 H   0  0  0  0  0  0  0  0  0  0  0  0
  -10.1867   -1.3665  -23.6492 C   0  0  0  0  0  0  0  0  0  0  0  0
  -11.1564   -1.2951  -22.6384 C   0  0  0  0  0  0  0  0  0  0  0  0
  -12.4962   -1.1781  -22.9644 C   0  0  0  0  0  0  0  0  0  0  0  0
  -13.7372   -1.1910  -21.7437 Cl  0  0  0  0  0  0  0  0  0  0  0  0
  -12.9062   -1.1083  -24.2956 C   0  0  0  0  0  0  0  0  0  0  0  0
  -11.9584   -1.2082  -25.2964 C   0  0  0  0  0  0  0  0  0  0  0  0
  -10.6169   -1.3997  -24.9771 C   0  0  0  0  0  0  0  0  0  0  0  0
   -9.6859   -1.8181  -26.0645 C   0  0  0  0  0  0  0  0  0  0  0  0
  -10.0970   -2.2791  -27.1253 O   0  0  0  0  0  0  0  0  0  0  0  0
  -12.2361   -1.1688  -26.3466 H   0  0  0  0  0  0  0  0  0  0  0  0
  -13.9653   -1.0545  -24.5160 H   0  0  0  0  0  0  0  0  0  0  0  0
  -10.8462   -1.3414  -21.6020 H   0  0  0  0  0  0  0  0  0  0  0  0
   -7.6999   -0.1499  -24.5623 H   0  0  0  0  0  0  0  0  0  0  0  0
   -6.8421   -1.7059  -24.3839 H   0  0  0  0  0  0  0  0  0  0  0  0
   -6.5268   -1.6604  -26.8260 H   0  0  0  0  0  0  0  0  0  0  0  0
   -7.9683   -2.1378  -27.7643 H   0  0  0  0  0  0  0  0  0  0  0  0
   -8.8961   -4.2786  -27.3322 H   0  0  0  0  0  0  0  0  0  0  0  0
   -7.5816   -6.1941  -25.6413 H   0  0  0  0  0  0  0  0  0  0  0  0
   -8.7676   -6.5590  -26.9212 H   0  0  0  0  0  0  0  0  0  0  0  0
   -7.0443   -6.4492  -27.3264 H   0  0  0  0  0  0  0  0  0  0  0  0
  1  2  1  0
  2  3  1  0
  3  4  2  0
  3  5  1  0
  5  6  1  0
  6  7  1  0
  8  7  1  6
  8  9  1  0
  9 10  2  0
  9 11  1  0
 11 12  1  0
 12 13  2  0
 13 14  1  0
 14 15  2  0
 15 16  1  0
 16 17  2  0
 17 18  1  0
 18 19  2  0
 19 20  1  0
 20 21  2  0
 20 22  1  0
 19 23  1  0
 18 24  1  0
 17 25  1  0
 15 26  1  0
 13 27  1  0
 11 28  1  0
 28 29  1  0
 29 30  1  0
 30 31  1  0
 31 32  1  0
 32 33  2  0
 33 34  1  0
 34 35  2  0
 35 36  1  0
 36 37  2  0
 36 38  1  0
 34 39  1  0
 33 40  1  0
 31 41  1  0
 30 42  1  0
 30 43  1  0
 29 44  1  1
 28 45  1  0
 28 46  1  0
  8 47  1  0
 47 48  2  0
 48 49  1  0
 49 50  1  0
 49 51  2  0
 51 52  1  0
 52 53  2  0
 53 54  1  0
 54 55  2  0
 52 56  1  0
 51 57  1  0
 48 58  1  0
  7 59  1  0
  7 60  1  0
  5 61  1  0
  5 62  1  0
  2 63  1  0
  1 64  1  0
  1 65  1  0
  1 66  1  0
 54  6  1  0
 29  8  1  0
 37 32  1  0
 53 47  1  0
 21 12  1  0
 21 16  1  0
M  END
>  <cnnaffinities>  (92) 
[6.12624, 6.4326]

>  <score>  (92) 
6.12624

>  <index>  (92) 
95

>  <Smiles>  (92) 
C(N(C(=O)C(N1C([C@@]2(C(=O)N(c3c(nc(c4c(c(c(c(c34)[H])[H])[H])[H])[H])[H])C([C@@]2(C(N(c2c(c(nc(n2)[H])[H])[H])[H])([H])[H])[H])([H])[H])c2c(c(Cl)c(c(c2C1=O)[H])[H])[H])([H])[H])([H])[H])[H])([H])([H])[H]

>  <h>  (92) 
<NA>

>  <Training>  (92) 
True

>  <Success>  (92) 
True

>  <enamine_searched>  (92) 
False

>  <enamine_id>  (92) 
nan

$$$$

     RDKit          3D

 66 70  0  0  0  0  0  0  0  0999 V2000
   -7.6393    3.0591  -21.9703 C   0  0  0  0  0  0  0  0  0  0  0  0
   -8.8055    2.5856  -22.6983 N   0  0  0  0  0  0  0  0  0  0  0  0
   -8.5314    1.7686  -23.7589 C   0  0  0  0  0  0  0  0  0  0  0  0
   -7.3785    1.5055  -24.0864 O   0  0  0  0  0  0  0  0  0  0  0  0
   -9.6987    1.1712  -24.5366 C   0  0  0  0  0  0  0  0  0  0  0  0
  -10.1313   -0.0506  -23.8920 N   0  0  0  0  0  0  0  0  0  0  0  0
   -9.2358   -1.2001  -23.8857 C   0  0  0  0  0  0  0  0  0  0  0  0
   -9.3013   -1.9438  -22.5269 C   0  0  2  0  0  0  0  0  0  0  0  0
   -8.7072   -1.0084  -21.4396 C   0  0  0  0  0  0  0  0  0  0  0  0
   -9.2405   -0.0290  -20.9502 O   0  0  0  0  0  0  0  0  0  0  0  0
   -7.4231   -1.4301  -21.1574 N   0  0  0  0  0  0  0  0  0  0  0  0
   -6.6425   -0.8168  -20.1465 C   0  0  0  0  0  0  0  0  0  0  0  0
   -6.9343   -1.0619  -18.8252 C   0  0  0  0  0  0  0  0  0  0  0  0
   -6.2228   -0.5784  -17.7809 N   0  0  0  0  0  0  0  0  0  0  0  0
   -5.1958    0.1898  -18.0576 C   0  0  0  0  0  0  0  0  0  0  0  0
   -4.7976    0.5463  -19.3782 C   0  0  0  0  0  0  0  0  0  0  0  0
   -3.7004    1.4163  -19.6191 C   0  0  0  0  0  0  0  0  0  0  0  0
   -3.4289    1.8568  -20.8853 C   0  0  0  0  0  0  0  0  0  0  0  0
   -4.2221    1.4316  -21.9717 C   0  0  0  0  0  0  0  0  0  0  0  0
   -5.2337    0.5136  -21.7783 C   0  0  0  0  0  0  0  0  0  0  0  0
   -5.5581    0.0588  -20.4681 C   0  0  0  0  0  0  0  0  0  0  0  0
   -5.8161    0.1880  -22.6339 H   0  0  0  0  0  0  0  0  0  0  0  0
   -4.0463    1.8472  -22.9591 H   0  0  0  0  0  0  0  0  0  0  0  0
   -2.6047    2.5435  -21.0579 H   0  0  0  0  0  0  0  0  0  0  0  0
   -3.1058    1.7399  -18.7695 H   0  0  0  0  0  0  0  0  0  0  0  0
   -4.6208    0.5732  -17.2145 H   0  0  0  0  0  0  0  0  0  0  0  0
   -7.7827   -1.6951  -18.5797 H   0  0  0  0  0  0  0  0  0  0  0  0
   -6.9899   -2.5574  -21.9651 C   0  0  0  0  0  0  0  0  0  0  0  0
   -8.3222   -3.1459  -22.4546 C   0  0  2  0  0  0  0  0  0  0  0  0
   -8.2008   -3.9848  -23.7270 C   0  0  0  0  0  0  0  0  0  0  0  0
   -7.4539   -5.1538  -23.4804 O   0  0  0  0  0  0  0  0  0  0  0  0
   -6.1665   -5.2223  -24.0847 C   0  0  0  0  0  0  0  0  0  0  0  0
   -5.3405   -6.1395  -23.2007 C   0  0  0  0  0  0  0  0  0  0  0  0
   -4.3070   -6.2202  -23.5573 H   0  0  0  0  0  0  0  0  0  0  0  0
   -5.7925   -7.1365  -23.1908 H   0  0  0  0  0  0  0  0  0  0  0  0
   -5.3311   -5.7536  -22.1774 H   0  0  0  0  0  0  0  0  0  0  0  0
   -6.2574   -5.7354  -25.5202 C   0  0  0  0  0  0  0  0  0  0  0  0
   -6.8569   -5.0704  -26.1532 H   0  0  0  0  0  0  0  0  0  0  0  0
   -6.7179   -6.7301  -25.5376 H   0  0  0  0  0  0  0  0  0  0  0  0
   -5.2536   -5.8072  -25.9570 H   0  0  0  0  0  0  0  0  0  0  0  0
   -5.7100   -4.2166  -24.0950 H   0  0  0  0  0  0  0  0  0  0  0  0
   -9.2027   -4.2871  -24.0613 H   0  0  0  0  0  0  0  0  0  0  0  0
   -7.7475   -3.3814  -24.5340 H   0  0  0  0  0  0  0  0  0  0  0  0
   -8.6625   -3.8076  -21.6546 H   0  0  0  0  0  0  0  0  0  0  0  0
   -6.3677   -2.2283  -22.8138 H   0  0  0  0  0  0  0  0  0  0  0  0
   -6.4104   -3.2731  -21.3706 H   0  0  0  0  0  0  0  0  0  0  0  0
  -10.7699   -2.2716  -22.2947 C   0  0  0  0  0  0  0  0  0  0  0  0
  -11.1941   -3.4122  -21.6070 C   0  0  0  0  0  0  0  0  0  0  0  0
  -12.5264   -3.5697  -21.2651 C   0  0  0  0  0  0  0  0  0  0  0  0
  -12.9756   -4.8941  -20.2313 Cl  0  0  0  0  0  0  0  0  0  0  0  0
  -13.5058   -2.6650  -21.6600 C   0  0  0  0  0  0  0  0  0  0  0  0
  -13.1105   -1.5714  -22.3998 C   0  0  0  0  0  0  0  0  0  0  0  0
  -11.7666   -1.3752  -22.7083 C   0  0  0  0  0  0  0  0  0  0  0  0
  -11.4265   -0.1374  -23.4721 C   0  0  0  0  0  0  0  0  0  0  0  0
  -12.2544    0.7340  -23.6978 O   0  0  0  0  0  0  0  0  0  0  0  0
  -13.8198   -0.8274  -22.7423 H   0  0  0  0  0  0  0  0  0  0  0  0
  -14.5412   -2.8125  -21.3772 H   0  0  0  0  0  0  0  0  0  0  0  0
  -10.5046   -4.1790  -21.2851 H   0  0  0  0  0  0  0  0  0  0  0  0
   -9.5208   -1.8967  -24.6863 H   0  0  0  0  0  0  0  0  0  0  0  0
   -8.2201   -0.8446  -24.0868 H   0  0  0  0  0  0  0  0  0  0  0  0
   -9.3430    0.9416  -25.5466 H   0  0  0  0  0  0  0  0  0  0  0  0
  -10.5663    1.8349  -24.6105 H   0  0  0  0  0  0  0  0  0  0  0  0
   -9.6425    2.4420  -22.1395 H   0  0  0  0  0  0  0  0  0  0  0  0
   -7.1272    2.2190  -21.4790 H   0  0  0  0  0  0  0  0  0  0  0  0
   -7.9208    3.8167  -21.2380 H   0  0  0  0  0  0  0  0  0  0  0  0
   -6.9595    3.5284  -22.6871 H   0  0  0  0  0  0  0  0  0  0  0  0
  1  2  1  0
  2  3  1  0
  3  4  2  0
  3  5  1  0
  5  6  1  0
  6  7  1  0
  8  7  1  6
  8  9  1  0
  9 10  2  0
  9 11  1  0
 11 12  1  0
 12 13  2  0
 13 14  1  0
 14 15  2  0
 15 16  1  0
 16 17  2  0
 17 18  1  0
 18 19  2  0
 19 20  1  0
 20 21  2  0
 20 22  1  0
 19 23  1  0
 18 24  1  0
 17 25  1  0
 15 26  1  0
 13 27  1  0
 11 28  1  0
 28 29  1  0
 29 30  1  0
 30 31  1  0
 31 32  1  0
 32 33  1  0
 33 34  1  0
 33 35  1  0
 33 36  1  0
 32 37  1  0
 37 38  1  0
 37 39  1  0
 37 40  1  0
 32 41  1  0
 30 42  1  0
 30 43  1  0
 29 44  1  1
 28 45  1  0
 28 46  1  0
  8 47  1  0
 47 48  2  0
 48 49  1  0
 49 50  1  0
 49 51  2  0
 51 52  1  0
 52 53  2  0
 53 54  1  0
 54 55  2  0
 52 56  1  0
 51 57  1  0
 48 58  1  0
  7 59  1  0
  7 60  1  0
  5 61  1  0
  5 62  1  0
  2 63  1  0
  1 64  1  0
  1 65  1  0
  1 66  1  0
 54  6  1  0
 29  8  1  0
 53 47  1  0
 21 12  1  0
 21 16  1  0
M  END
>  <cnnaffinities>  (93) 
[6.60587, 5.88978]

>  <score>  (93) 
6.60587

>  <index>  (93) 
96

>  <Smiles>  (93) 
C(N(C(=O)C(N1C([C@@]2(C(=O)N(c3c(nc(c4c(c(c(c(c34)[H])[H])[H])[H])[H])[H])C([C@@]2(C(OC(C([H])([H])[H])(C([H])([H])[H])[H])([H])[H])[H])([H])[H])c2c(c(Cl)c(c(c2C1=O)[H])[H])[H])([H])[H])([H])[H])[H])([H])([H])[H]

>  <h>  (93) 
<NA>

>  <Training>  (93) 
True

>  <Success>  (93) 
True

>  <enamine_searched>  (93) 
False

>  <enamine_id>  (93) 
nan

$$$$

     RDKit          3D

 40 43  0  0  0  0  0  0  0  0999 V2000
  -12.5807   -3.9305  -21.0450 C   0  0  0  0  0  0  0  0  0  0  0  0
  -11.5864   -2.9385  -21.6921 C   0  0  2  0  0  0  0  0  0  0  0  0
  -12.0661   -2.4659  -23.0568 C   0  0  0  0  0  0  0  0  0  0  0  0
  -11.2368   -1.4524  -23.5786 O   0  0  0  0  0  0  0  0  0  0  0  0
   -9.9134   -1.8834  -23.7708 C   0  0  0  0  0  0  0  0  0  0  0  0
   -9.2324   -2.3845  -22.4868 C   0  0  1  0  0  0  0  0  0  0  0  0
  -10.1525   -3.4458  -21.8459 C   0  0  0  0  0  0  0  0  0  0  0  0
  -10.1322   -4.3138  -22.5163 H   0  0  0  0  0  0  0  0  0  0  0  0
   -9.7253   -3.7436  -20.8826 H   0  0  0  0  0  0  0  0  0  0  0  0
   -7.9234   -2.9200  -22.8303 N   0  0  0  0  0  0  0  0  0  0  0  0
   -6.9223   -2.5179  -21.9800 C   0  0  0  0  0  0  0  0  0  0  0  0
   -5.8035   -2.9551  -21.8688 O   0  0  0  0  0  0  0  0  0  0  0  0
   -7.4616   -1.4624  -21.2260 N   0  0  0  0  0  0  0  0  0  0  0  0
   -6.7109   -0.8238  -20.1948 C   0  0  0  0  0  0  0  0  0  0  0  0
   -6.9832   -1.1055  -18.8793 C   0  0  0  0  0  0  0  0  0  0  0  0
   -6.2668   -0.6331  -17.8261 N   0  0  0  0  0  0  0  0  0  0  0  0
   -5.2440    0.1492  -18.0766 C   0  0  0  0  0  0  0  0  0  0  0  0
   -4.8557    0.5339  -19.3915 C   0  0  0  0  0  0  0  0  0  0  0  0
   -3.7786    1.4408  -19.6049 C   0  0  0  0  0  0  0  0  0  0  0  0
   -3.5487    1.9549  -20.8531 C   0  0  0  0  0  0  0  0  0  0  0  0
   -4.3452    1.5382  -21.9475 C   0  0  0  0  0  0  0  0  0  0  0  0
   -5.3461    0.6089  -21.7771 C   0  0  0  0  0  0  0  0  0  0  0  0
   -5.6270    0.0722  -20.4874 C   0  0  0  0  0  0  0  0  0  0  0  0
   -5.9636    0.3094  -22.6196 H   0  0  0  0  0  0  0  0  0  0  0  0
   -4.1683    1.9629  -22.9345 H   0  0  0  0  0  0  0  0  0  0  0  0
   -2.7746    2.7061  -21.0144 H   0  0  0  0  0  0  0  0  0  0  0  0
   -3.1853    1.7607  -18.7479 H   0  0  0  0  0  0  0  0  0  0  0  0
   -4.6718    0.5490  -17.2301 H   0  0  0  0  0  0  0  0  0  0  0  0
   -7.8109   -1.7621  -18.6192 H   0  0  0  0  0  0  0  0  0  0  0  0
   -8.8235   -1.2817  -21.4884 C   0  0  0  0  0  0  0  0  0  0  0  0
   -9.5125   -0.4114  -21.0115 O   0  0  0  0  0  0  0  0  0  0  0  0
   -7.8416   -3.8248  -23.2679 H   0  0  0  0  0  0  0  0  0  0  0  0
   -9.3498   -1.0410  -24.1753 H   0  0  0  0  0  0  0  0  0  0  0  0
   -9.8654   -2.7200  -24.4935 H   0  0  0  0  0  0  0  0  0  0  0  0
  -13.0625   -2.0304  -22.9771 H   0  0  0  0  0  0  0  0  0  0  0  0
  -12.1250   -3.3279  -23.7469 H   0  0  0  0  0  0  0  0  0  0  0  0
  -11.5009   -2.0506  -21.0720 H   0  0  0  0  0  0  0  0  0  0  0  0
  -12.0790   -4.7396  -20.4977 H   0  0  0  0  0  0  0  0  0  0  0  0
  -13.2420   -4.3974  -21.7863 H   0  0  0  0  0  0  0  0  0  0  0  0
  -13.2227   -3.4155  -20.3204 H   0  0  0  0  0  0  0  0  0  0  0  0
  1  2  1  0
  2  3  1  0
  3  4  1  0
  4  5  1  0
  5  6  1  0
  6  7  1  0
  7  8  1  0
  7  9  1  0
  6 10  1  6
 10 11  1  0
 11 12  2  0
 11 13  1  0
 13 14  1  0
 14 15  2  0
 15 16  1  0
 16 17  2  0
 17 18  1  0
 18 19  2  0
 19 20  1  0
 20 21  2  0
 21 22  1  0
 22 23  2  0
 22 24  1  0
 21 25  1  0
 20 26  1  0
 19 27  1  0
 17 28  1  0
 15 29  1  0
 13 30  1  0
 30 31  2  0
 10 32  1  0
  5 33  1  0
  5 34  1  0
  3 35  1  0
  3 36  1  0
  2 37  1  1
  1 38  1  0
  1 39  1  0
  1 40  1  0
  7  2  1  0
 23 14  1  0
 30  6  1  0
 23 18  1  0
M  END
>  <cnnaffinities>  (94) 
[5.18308, 5.04216, 4.79839, 4.75828]

>  <score>  (94) 
5.18308

>  <index>  (94) 
97

>  <Smiles>  (94) 
C([C@@]1(C(OC([C@@]2(C1([H])[H])N(C(=O)N(c1c(nc(c3c(c(c(c(c13)[H])[H])[H])[H])[H])[H])C2=O)[H])([H])[H])([H])[H])[H])([H])([H])[H]

>  <h>  (94) 
<NA>

>  <Training>  (94) 
True

>  <Success>  (94) 
True

>  <enamine_searched>  (94) 
False

>  <enamine_id>  (94) 
nan

$$$$
