
     RDKit          3D

 57 62  0  0  0  0  0  0  0  0999 V2000
    8.8507   -2.7970   23.6500 C   0  0  0  0  0  0  0  0  0  0  0  0
    8.9114   -1.7947   22.5038 C   0  0  1  0  0  0  0  0  0  0  0  0
    7.5667   -1.5488   21.8059 C   0  0  0  0  0  0  0  0  0  0  0  0
    7.7754   -0.2679   21.1578 N   0  0  0  0  0  0  0  0  0  0  0  0
    6.9397    0.2632   20.1383 C   0  0  0  0  0  0  0  0  0  0  0  0
    7.2121   -0.0134   18.8236 C   0  0  0  0  0  0  0  0  0  0  0  0
    6.4861    0.4447   17.7723 N   0  0  0  0  0  0  0  0  0  0  0  0
    5.4507    1.2050   18.0405 C   0  0  0  0  0  0  0  0  0  0  0  0
    5.0342    1.5549   19.3575 C   0  0  0  0  0  0  0  0  0  0  0  0
    3.9052    2.3872   19.6119 C   0  0  0  0  0  0  0  0  0  0  0  0
    3.5423    2.6903   20.8944 C   0  0  0  0  0  0  0  0  0  0  0  0
    4.2761    2.1739   21.9870 C   0  0  0  0  0  0  0  0  0  0  0  0
    5.3704    1.3705   21.7680 C   0  0  0  0  0  0  0  0  0  0  0  0
    5.7884    1.0549   20.4487 C   0  0  0  0  0  0  0  0  0  0  0  0
    8.8185    0.4601   21.6969 C   0  0  0  0  0  0  0  0  0  0  0  0
    9.1578    1.5527   21.3048 O   0  0  0  0  0  0  0  0  0  0  0  0
    9.4256   -0.3726   22.8583 C   0  0  1  0  0  0  0  0  0  0  0  0
    8.8445    0.1282   24.2123 C   0  0  0  0  0  0  0  0  0  0  0  0
    9.2459    1.4922   24.4964 N   0  0  0  0  0  0  0  0  0  0  0  0
    8.3807    2.3569   25.2887 C   0  0  0  0  0  0  0  0  0  0  0  0
    7.8803    3.5799   24.5518 C   0  0  0  0  0  0  0  0  0  0  0  0
    7.4141    3.3730   23.3184 N   0  0  0  0  0  0  0  0  0  0  0  0
    6.9697    4.4541   22.6780 C   0  0  0  0  0  0  0  0  0  0  0  0
    6.9743    5.7204   23.2344 C   0  0  0  0  0  0  0  0  0  0  0  0
    7.4673    5.8108   24.5260 C   0  0  0  0  0  0  0  0  0  0  0  0
    7.9034    4.7464   25.1951 N   0  0  0  0  0  0  0  0  0  0  0  0
   10.5231    1.9206   24.2680 C   0  0  0  0  0  0  0  0  0  0  0  0
   10.9061    3.0218   24.6339 O   0  0  0  0  0  0  0  0  0  0  0  0
   11.4346    0.9582   23.5551 C   0  0  0  0  0  0  0  0  0  0  0  0
   12.8029    1.2413   23.5199 C   0  0  0  0  0  0  0  0  0  0  0  0
   13.6855    0.3956   22.8733 C   0  0  0  0  0  0  0  0  0  0  0  0
   13.1658   -0.7475   22.2708 C   0  0  0  0  0  0  0  0  0  0  0  0
   14.0032   -1.5786   21.6271 F   0  0  0  0  0  0  0  0  0  0  0  0
   11.8210   -1.0564   22.2886 C   0  0  0  0  0  0  0  0  0  0  0  0
   10.9262   -0.1911   22.9274 C   0  0  0  0  0  0  0  0  0  0  0  0
    9.8084   -2.8637   24.1775 H   0  0  0  0  0  0  0  0  0  0  0  0
    8.5955   -3.8003   23.2927 H   0  0  0  0  0  0  0  0  0  0  0  0
    8.0967   -2.5078   24.3894 H   0  0  0  0  0  0  0  0  0  0  0  0
    9.5716   -2.2014   21.7326 H   0  0  0  0  0  0  0  0  0  0  0  0
    7.3299   -2.3187   21.0673 H   0  0  0  0  0  0  0  0  0  0  0  0
    6.7444   -1.5294   22.5434 H   0  0  0  0  0  0  0  0  0  0  0  0
    8.0711   -0.6317   18.5687 H   0  0  0  0  0  0  0  0  0  0  0  0
    4.8740    1.5829   17.1927 H   0  0  0  0  0  0  0  0  0  0  0  0
    3.3467    2.7844   18.7658 H   0  0  0  0  0  0  0  0  0  0  0  0
    2.6872    3.3341   21.0879 H   0  0  0  0  0  0  0  0  0  0  0  0
    3.9890    2.4286   23.0033 H   0  0  0  0  0  0  0  0  0  0  0  0
    5.9503    1.0001   22.6101 H   0  0  0  0  0  0  0  0  0  0  0  0
    9.1749   -0.5441   25.0222 H   0  0  0  0  0  0  0  0  0  0  0  0
    7.7496    0.0996   24.1654 H   0  0  0  0  0  0  0  0  0  0  0  0
    7.5319    1.7480   25.6054 H   0  0  0  0  0  0  0  0  0  0  0  0
    8.8988    2.6689   26.1928 H   0  0  0  0  0  0  0  0  0  0  0  0
    6.5899    4.2959   21.6708 H   0  0  0  0  0  0  0  0  0  0  0  0
    6.6111    6.5882   22.7002 H   0  0  0  0  0  0  0  0  0  0  0  0
    7.5141    6.7617   25.0520 H   0  0  0  0  0  0  0  0  0  0  0  0
   13.1704    2.1370   24.0087 H   0  0  0  0  0  0  0  0  0  0  0  0
   14.7524    0.5998   22.8132 H   0  0  0  0  0  0  0  0  0  0  0  0
   11.4913   -1.9699   21.8033 H   0  0  0  0  0  0  0  0  0  0  0  0
  1  2  1  0
  2  3  1  0
  3  4  1  0
  4  5  1  0
  5  6  2  0
  6  7  1  0
  7  8  2  0
  8  9  1  0
  9 10  2  0
 10 11  1  0
 11 12  2  0
 12 13  1  0
 13 14  2  0
  4 15  1  0
 15 16  2  0
 15 17  1  0
 17 18  1  1
 18 19  1  0
 19 20  1  0
 20 21  1  0
 21 22  2  0
 22 23  1  0
 23 24  2  0
 24 25  1  0
 25 26  2  0
 19 27  1  0
 27 28  2  0
 27 29  1  0
 29 30  2  0
 30 31  1  0
 31 32  2  0
 32 33  1  0
 32 34  1  0
 34 35  2  0
 17  2  1  0
 26 21  1  0
 35 29  1  0
 14  5  1  0
 35 17  1  0
 14  9  1  0
  1 36  1  0
  1 37  1  0
  1 38  1  0
  2 39  1  6
  3 40  1  0
  3 41  1  0
  6 42  1  0
  8 43  1  0
 10 44  1  0
 11 45  1  0
 12 46  1  0
 13 47  1  0
 18 48  1  0
 18 49  1  0
 20 50  1  0
 20 51  1  0
 23 52  1  0
 24 53  1  0
 25 54  1  0
 30 55  1  0
 31 56  1  0
 34 57  1  0
M  END
$$$$
