
     RDKit          3D

 43 45  0  0  0  0  0  0  0  0999 V2000
  -10.9505    1.7978  -25.2458 C   0  0  0  0  0  0  0  0  0  0  0  0
  -10.4578    0.8475  -24.1547 C   0  0  1  0  0  0  0  0  0  0  0  0
  -11.5739   -0.1123  -23.7317 C   0  0  0  0  0  0  0  0  0  0  0  0
  -11.1189   -1.1335  -22.6649 C   0  0  0  0  0  0  0  0  0  0  0  0
   -9.6720   -1.2655  -22.5256 N   0  0  0  0  0  0  0  0  0  0  0  0
   -9.0792   -0.4636  -21.5068 C   0  0  0  0  0  0  0  0  0  0  0  0
   -9.4106    0.6714  -21.2591 O   0  0  0  0  0  0  0  0  0  0  0  0
   -8.0535   -1.2405  -20.6842 C   0  0  0  0  0  0  0  0  0  0  0  0
   -7.2042   -0.4416  -19.7338 C   0  0  0  0  0  0  0  0  0  0  0  0
   -7.2526   -0.7094  -18.3887 C   0  0  0  0  0  0  0  0  0  0  0  0
   -6.5602   -0.0520  -17.4258 N   0  0  0  0  0  0  0  0  0  0  0  0
   -5.7427    0.8925  -17.8284 C   0  0  0  0  0  0  0  0  0  0  0  0
   -5.5548    1.2503  -19.1915 C   0  0  0  0  0  0  0  0  0  0  0  0
   -4.6298    2.2462  -19.5861 C   0  0  0  0  0  0  0  0  0  0  0  0
   -4.4330    2.5265  -20.9121 C   0  0  0  0  0  0  0  0  0  0  0  0
   -5.1621    1.8304  -21.9034 C   0  0  0  0  0  0  0  0  0  0  0  0
   -6.0791    0.8793  -21.5445 C   0  0  0  0  0  0  0  0  0  0  0  0
   -6.3042    0.5658  -20.1762 C   0  0  0  0  0  0  0  0  0  0  0  0
   -8.9725   -1.2617  -23.8204 C   0  0  1  0  0  0  0  0  0  0  0  0
   -9.3739   -2.4878  -24.6429 C   0  0  0  0  0  0  0  0  0  0  0  0
   -9.2076    0.0631  -24.5981 C   0  0  0  0  0  0  0  0  0  0  0  0
  -11.8097    2.3875  -24.9096 H   0  0  0  0  0  0  0  0  0  0  0  0
  -10.1816    2.5020  -25.5764 H   0  0  0  0  0  0  0  0  0  0  0  0
  -11.2752    1.2411  -26.1314 H   0  0  0  0  0  0  0  0  0  0  0  0
  -10.1798    1.4202  -23.2654 H   0  0  0  0  0  0  0  0  0  0  0  0
  -11.9549   -0.6353  -24.6245 H   0  0  0  0  0  0  0  0  0  0  0  0
  -12.4211    0.4777  -23.3514 H   0  0  0  0  0  0  0  0  0  0  0  0
  -11.4959   -0.8809  -21.6665 H   0  0  0  0  0  0  0  0  0  0  0  0
  -11.5193   -2.1297  -22.9096 H   0  0  0  0  0  0  0  0  0  0  0  0
   -8.6624   -1.9433  -20.0945 H   0  0  0  0  0  0  0  0  0  0  0  0
   -7.4563   -1.8460  -21.3847 H   0  0  0  0  0  0  0  0  0  0  0  0
   -7.8719   -1.5267  -18.0180 H   0  0  0  0  0  0  0  0  0  0  0  0
   -5.1790    1.4215  -17.0592 H   0  0  0  0  0  0  0  0  0  0  0  0
   -4.0877    2.7769  -18.8081 H   0  0  0  0  0  0  0  0  0  0  0  0
   -3.7140    3.2823  -21.2098 H   0  0  0  0  0  0  0  0  0  0  0  0
   -4.9967    2.0597  -22.9532 H   0  0  0  0  0  0  0  0  0  0  0  0
   -6.6465    0.3525  -22.3079 H   0  0  0  0  0  0  0  0  0  0  0  0
   -7.9018   -1.3439  -23.5842 H   0  0  0  0  0  0  0  0  0  0  0  0
  -10.3985   -2.4073  -25.0320 H   0  0  0  0  0  0  0  0  0  0  0  0
   -9.3122   -3.3846  -24.0171 H   0  0  0  0  0  0  0  0  0  0  0  0
   -8.6975   -2.6048  -25.4996 H   0  0  0  0  0  0  0  0  0  0  0  0
   -8.3335    0.7199  -24.4921 H   0  0  0  0  0  0  0  0  0  0  0  0
   -9.2851   -0.1806  -25.6660 H   0  0  0  0  0  0  0  0  0  0  0  0
  1  2  1  0
  2  3  1  0
  3  4  1  0
  4  5  1  0
  5  6  1  0
  6  7  2  0
  6  8  1  0
  8  9  1  0
  9 10  2  0
 10 11  1  0
 11 12  2  0
 12 13  1  0
 13 14  2  0
 14 15  1  0
 15 16  2  0
 16 17  1  0
 17 18  2  0
  5 19  1  0
 19 20  1  0
 19 21  1  0
 21  2  1  0
 18  9  1  0
 18 13  1  0
  1 22  1  0
  1 23  1  0
  1 24  1  0
  2 25  1  1
  3 26  1  0
  3 27  1  0
  4 28  1  0
  4 29  1  0
  8 30  1  0
  8 31  1  0
 10 32  1  0
 12 33  1  0
 14 34  1  0
 15 35  1  0
 16 36  1  0
 17 37  1  0
 19 38  1  1
 20 39  1  0
 20 40  1  0
 20 41  1  0
 21 42  1  0
 21 43  1  0
M  END
$$$$
