LIG(A-306)
     RDKit          3D

 25 28  0  0  1  0  0  0  0  0999 V2000
  -14.6062   -2.3360  -21.2020 Cl  0  0  0  0  0  0  0  0  0  0  0  0
  -13.4323   -1.5146  -22.1901 C   0  0  0  0  0  0  0  0  0  0  0  0
  -12.0933   -1.7771  -21.9922 C   0  0  0  0  0  0  0  0  0  0  0  0
  -13.8607   -0.5892  -23.1151 C   0  0  0  0  0  0  0  0  0  0  0  0
  -12.9239    0.1057  -23.8595 C   0  0  0  0  0  0  0  0  0  0  0  0
  -11.5640   -0.1391  -23.6784 C   0  0  0  0  0  0  0  0  0  0  0  0
  -10.6005    0.5023  -24.4583 N   0  0  0  0  0  0  0  0  0  0  0  0
  -10.9383    1.7269  -25.1739 C   0  0  0  0  0  0  0  0  0  0  0  0
  -11.1384   -1.0793  -22.7300 C   0  0  0  0  0  0  0  0  0  0  0  0
   -9.6591   -1.3311  -22.5074 C   0  0  1  0  0  0  0  0  0  0  0  0
   -8.9469   -1.2691  -23.8782 C   0  0  0  0  0  0  0  0  0  0  0  0
   -9.2182    0.0534  -24.6040 C   0  0  0  0  0  0  0  0  0  0  0  0
   -9.0466   -0.3821  -21.4724 C   0  0  0  0  0  0  0  0  0  0  0  0
   -9.3459    0.8087  -21.4219 O   0  0  0  0  0  0  0  0  0  0  0  0
   -8.2514   -0.9839  -20.5567 N   0  0  0  0  0  0  0  0  0  0  0  0
   -7.2120   -0.4711  -19.7413 C   0  0  0  0  0  0  0  0  0  0  0  0
   -6.3434    0.5906  -20.1768 C   0  0  0  0  0  0  0  0  0  0  0  0
   -6.0937    0.9012  -21.5408 C   0  0  0  0  0  0  0  0  0  0  0  0
   -5.1626    1.8390  -21.8933 C   0  0  0  0  0  0  0  0  0  0  0  0
   -4.4373    2.5166  -20.9219 C   0  0  0  0  0  0  0  0  0  0  0  0
   -4.6391    2.2576  -19.5969 C   0  0  0  0  0  0  0  0  0  0  0  0
   -5.5854    1.2840  -19.1873 C   0  0  0  0  0  0  0  0  0  0  0  0
   -5.7479    0.8960  -17.8389 C   0  0  0  0  0  0  0  0  0  0  0  0
   -6.5295   -0.0903  -17.4377 N   0  0  0  0  0  0  0  0  0  0  0  0
   -7.2125   -0.7564  -18.3763 C   0  0  0  0  0  0  0  0  0  0  0  0
  1  2  1  0
  2  3  2  0
  2  4  1  0
  3  9  1  0
  4  5  2  0
  5  6  1  0
  6  7  1  0
  6  9  2  0
  7  8  1  0
  7 12  1  0
  9 10  1  0
 10 11  1  0
 10 13  1  1
 11 12  1  0
 13 14  2  0
 13 15  1  0
 15 16  1  0
 16 17  1  0
 16 25  2  0
 17 18  2  0
 17 22  1  0
 18 19  1  0
 19 20  2  0
 20 21  1  0
 21 22  2  0
 22 23  1  0
 23 24  2  0
 24 25  1  0
M  END
$$$$
