
     RDKit          3D

 58 63  0  0  0  0  0  0  0  0999 V2000
    8.8508   -2.7977   23.6517 C   0  0  0  0  0  0  0  0  0  0  0  0
    8.9112   -1.7968   22.5051 C   0  0  1  0  0  0  0  0  0  0  0  0
    7.5669   -1.5511   21.8065 C   0  0  0  0  0  0  0  0  0  0  0  0
    7.7780   -0.2696   21.1567 N   0  0  0  0  0  0  0  0  0  0  0  0
    6.9402    0.2622   20.1369 C   0  0  0  0  0  0  0  0  0  0  0  0
    7.2124   -0.0138   18.8218 C   0  0  0  0  0  0  0  0  0  0  0  0
    6.4860    0.4446   17.7705 N   0  0  0  0  0  0  0  0  0  0  0  0
    5.4502    1.2048   18.0397 C   0  0  0  0  0  0  0  0  0  0  0  0
    5.0348    1.5546   19.3573 C   0  0  0  0  0  0  0  0  0  0  0  0
    3.9070    2.3868   19.6125 C   0  0  0  0  0  0  0  0  0  0  0  0
    3.5426    2.6912   20.8945 C   0  0  0  0  0  0  0  0  0  0  0  0
    4.2723    2.1745   21.9879 C   0  0  0  0  0  0  0  0  0  0  0  0
    5.3609    1.3653   21.7671 C   0  0  0  0  0  0  0  0  0  0  0  0
    5.7892    1.0532   20.4484 C   0  0  0  0  0  0  0  0  0  0  0  0
    8.8212    0.4497   21.6964 C   0  0  0  0  0  0  0  0  0  0  0  0
    9.1643    1.5498   21.3137 O   0  0  0  0  0  0  0  0  0  0  0  0
    9.4253   -0.3760   22.8575 C   0  0  1  0  0  0  0  0  0  0  0  0
    8.8457    0.1415   24.2003 C   0  0  0  0  0  0  0  0  0  0  0  0
    9.2315    1.5287   24.4352 N   0  0  0  0  0  0  0  0  0  0  0  0
    8.3839    2.3103   25.3369 C   0  0  0  0  0  0  0  0  0  0  0  0
    8.4270    3.7922   25.1109 C   0  0  0  0  0  0  0  0  0  0  0  0
    8.8064    4.6507   26.0158 N   0  0  0  0  0  0  0  0  0  0  0  0
    8.7281    5.9017   25.4615 N   0  0  0  0  0  0  0  0  0  0  0  0
    8.2549    5.7540   24.2525 C   0  0  0  0  0  0  0  0  0  0  0  0
    8.0335    4.4399   23.9733 N   0  0  0  0  0  0  0  0  0  0  0  0
    7.4175    3.9080   22.7749 C   0  0  0  0  0  0  0  0  0  0  0  0
   10.5371    1.9202   24.2506 C   0  0  0  0  0  0  0  0  0  0  0  0
   10.9730    2.9975   24.6224 O   0  0  0  0  0  0  0  0  0  0  0  0
   11.4379    0.9479   23.5502 C   0  0  0  0  0  0  0  0  0  0  0  0
   12.8057    1.2351   23.5185 C   0  0  0  0  0  0  0  0  0  0  0  0
   13.6880    0.3923   22.8716 C   0  0  0  0  0  0  0  0  0  0  0  0
   13.1656   -0.7497   22.2694 C   0  0  0  0  0  0  0  0  0  0  0  0
   14.0043   -1.5801   21.6262 F   0  0  0  0  0  0  0  0  0  0  0  0
   11.8213   -1.0597   22.2864 C   0  0  0  0  0  0  0  0  0  0  0  0
   10.9256   -0.1960   22.9233 C   0  0  0  0  0  0  0  0  0  0  0  0
    8.0968   -2.5068   24.3909 H   0  0  0  0  0  0  0  0  0  0  0  0
    9.8096   -2.8646   24.1775 H   0  0  0  0  0  0  0  0  0  0  0  0
    8.5946   -3.8006   23.2932 H   0  0  0  0  0  0  0  0  0  0  0  0
    9.5712   -2.1999   21.7327 H   0  0  0  0  0  0  0  0  0  0  0  0
    7.3295   -2.3192   21.0661 H   0  0  0  0  0  0  0  0  0  0  0  0
    6.7456   -1.5296   22.5446 H   0  0  0  0  0  0  0  0  0  0  0  0
    8.0712   -0.6321   18.5686 H   0  0  0  0  0  0  0  0  0  0  0  0
    4.8741    1.5827   17.1920 H   0  0  0  0  0  0  0  0  0  0  0  0
    3.3472    2.7838   18.7667 H   0  0  0  0  0  0  0  0  0  0  0  0
    2.6879    3.3342   21.0888 H   0  0  0  0  0  0  0  0  0  0  0  0
    3.9897    2.4338   23.0043 H   0  0  0  0  0  0  0  0  0  0  0  0
    5.9265    0.9791   22.6104 H   0  0  0  0  0  0  0  0  0  0  0  0
    7.7522    0.0833   24.1710 H   0  0  0  0  0  0  0  0  0  0  0  0
    9.1869   -0.5133   25.0207 H   0  0  0  0  0  0  0  0  0  0  0  0
    7.3473    1.9655   25.1966 H   0  0  0  0  0  0  0  0  0  0  0  0
    8.6444    2.1504   26.3946 H   0  0  0  0  0  0  0  0  0  0  0  0
    8.0308    6.5537   23.5567 H   0  0  0  0  0  0  0  0  0  0  0  0
    7.4866    2.8240   22.7819 H   0  0  0  0  0  0  0  0  0  0  0  0
    6.3626    4.1954   22.6935 H   0  0  0  0  0  0  0  0  0  0  0  0
    7.9499    4.2630   21.8910 H   0  0  0  0  0  0  0  0  0  0  0  0
   13.1694    2.1328   24.0072 H   0  0  0  0  0  0  0  0  0  0  0  0
   14.7537    0.5988   22.8125 H   0  0  0  0  0  0  0  0  0  0  0  0
   11.4922   -1.9722   21.8014 H   0  0  0  0  0  0  0  0  0  0  0  0
  1  2  1  0
  2  3  1  0
  3  4  1  0
  4  5  1  0
  5  6  2  0
  6  7  1  0
  7  8  2  0
  8  9  1  0
  9 10  2  0
 10 11  1  0
 11 12  2  0
 12 13  1  0
 13 14  2  0
  4 15  1  0
 15 16  2  0
 15 17  1  0
 17 18  1  1
 18 19  1  0
 19 20  1  0
 20 21  1  0
 21 22  2  0
 22 23  1  0
 23 24  2  0
 24 25  1  0
 25 26  1  0
 19 27  1  0
 27 28  2  0
 27 29  1  0
 29 30  2  0
 30 31  1  0
 31 32  2  0
 32 33  1  0
 32 34  1  0
 34 35  2  0
 17  2  1  0
 25 21  1  0
 35 29  1  0
 14  5  1  0
 35 17  1  0
 14  9  1  0
  1 36  1  0
  1 37  1  0
  1 38  1  0
  2 39  1  6
  3 40  1  0
  3 41  1  0
  6 42  1  0
  8 43  1  0
 10 44  1  0
 11 45  1  0
 12 46  1  0
 13 47  1  0
 18 48  1  0
 18 49  1  0
 20 50  1  0
 20 51  1  0
 24 52  1  0
 26 53  1  0
 26 54  1  0
 26 55  1  0
 30 56  1  0
 31 57  1  0
 34 58  1  0
M  END
$$$$
