
     RDKit          3D

 66 71  0  0  0  0  0  0  0  0999 V2000
    7.1710    4.6483   22.5727 C   0  0  0  0  0  0  0  0  0  0  0  0
    7.9517    3.7024   23.3377 N   0  0  0  0  0  0  0  0  0  0  0  0
    7.6469    3.4572   24.6293 C   0  0  0  0  0  0  0  0  0  0  0  0
    6.7945    4.0764   25.2506 O   0  0  0  0  0  0  0  0  0  0  0  0
    8.3953    2.3138   25.3231 C   0  0  0  0  0  0  0  0  0  0  0  0
    9.2548    1.4915   24.4971 N   0  0  0  0  0  0  0  0  0  0  0  0
    8.8501    0.1257   24.2109 C   0  0  0  0  0  0  0  0  0  0  0  0
    9.4272   -0.3742   22.8628 C   0  0  2  0  0  0  0  0  0  0  0  0
    8.8197    0.4565   21.7046 C   0  0  0  0  0  0  0  0  0  0  0  0
    9.1551    1.5642   21.3299 O   0  0  0  0  0  0  0  0  0  0  0  0
    7.7900   -0.2726   21.1525 N   0  0  0  0  0  0  0  0  0  0  0  0
    6.9469    0.2659   20.1414 C   0  0  0  0  0  0  0  0  0  0  0  0
    7.2133   -0.0123   18.8254 C   0  0  0  0  0  0  0  0  0  0  0  0
    6.4865    0.4434   17.7739 N   0  0  0  0  0  0  0  0  0  0  0  0
    5.4497    1.2046   18.0403 C   0  0  0  0  0  0  0  0  0  0  0  0
    5.0354    1.5542   19.3595 C   0  0  0  0  0  0  0  0  0  0  0  0
    3.9063    2.3856   19.6094 C   0  0  0  0  0  0  0  0  0  0  0  0
    3.5422    2.6897   20.8945 C   0  0  0  0  0  0  0  0  0  0  0  0
    4.2772    2.1775   21.9900 C   0  0  0  0  0  0  0  0  0  0  0  0
    5.3796    1.3876   21.7733 C   0  0  0  0  0  0  0  0  0  0  0  0
    5.7961    1.0621   20.4514 C   0  0  0  0  0  0  0  0  0  0  0  0
    7.5671   -1.5498   21.8104 C   0  0  0  0  0  0  0  0  0  0  0  0
    8.9205   -1.8009   22.4966 C   0  0  2  0  0  0  0  0  0  0  0  0
    8.9825   -2.8854   23.6052 C   0  0  0  0  0  0  0  0  0  0  0  0
    7.6972   -3.1899   24.3423 C   0  0  0  0  0  0  0  0  0  0  0  0
    6.7128   -3.9625   23.7190 C   0  0  0  0  0  0  0  0  0  0  0  0
    5.5030   -4.2340   24.3455 C   0  0  0  0  0  0  0  0  0  0  0  0
    5.2522   -3.7409   25.6207 C   0  0  0  0  0  0  0  0  0  0  0  0
    6.2283   -2.9860   26.2622 C   0  0  0  0  0  0  0  0  0  0  0  0
    7.4393   -2.7172   25.6288 C   0  0  0  0  0  0  0  0  0  0  0  0
   10.9281   -0.1870   22.9283 C   0  0  0  0  0  0  0  0  0  0  0  0
   11.8237   -1.0522   22.2883 C   0  0  0  0  0  0  0  0  0  0  0  0
   13.1742   -0.7516   22.2555 C   0  0  0  0  0  0  0  0  0  0  0  0
   14.2510   -1.8174   21.3958 Cl  0  0  0  0  0  0  0  0  0  0  0  0
   13.6849    0.3947   22.8685 C   0  0  0  0  0  0  0  0  0  0  0  0
   12.8063    1.2415   23.5220 C   0  0  0  0  0  0  0  0  0  0  0  0
   11.4394    0.9594   23.5603 C   0  0  0  0  0  0  0  0  0  0  0  0
   10.5359    1.9203   24.2813 C   0  0  0  0  0  0  0  0  0  0  0  0
   10.9030    3.0321   24.6384 O   0  0  0  0  0  0  0  0  0  0  0  0
    6.1301    4.3161   22.4970 H   0  0  0  0  0  0  0  0  0  0  0  0
    7.5892    4.6982   21.5663 H   0  0  0  0  0  0  0  0  0  0  0  0
    7.1802    5.6459   23.0229 H   0  0  0  0  0  0  0  0  0  0  0  0
    8.7687    3.2918   22.9060 H   0  0  0  0  0  0  0  0  0  0  0  0
    7.6287    1.6730   25.7688 H   0  0  0  0  0  0  0  0  0  0  0  0
    8.9720    2.7383   26.1525 H   0  0  0  0  0  0  0  0  0  0  0  0
    9.1864   -0.5394   25.0174 H   0  0  0  0  0  0  0  0  0  0  0  0
    7.7584    0.0920   24.1780 H   0  0  0  0  0  0  0  0  0  0  0  0
    8.0698   -0.6306   18.5676 H   0  0  0  0  0  0  0  0  0  0  0  0
    4.8751    1.5816   17.1918 H   0  0  0  0  0  0  0  0  0  0  0  0
    3.3482    2.7831   18.7622 H   0  0  0  0  0  0  0  0  0  0  0  0
    2.6888    3.3347   21.0906 H   0  0  0  0  0  0  0  0  0  0  0  0
    3.9959    2.4397   23.0090 H   0  0  0  0  0  0  0  0  0  0  0  0
    5.9515    1.0039   22.6150 H   0  0  0  0  0  0  0  0  0  0  0  0
    6.7407   -1.5121   22.5398 H   0  0  0  0  0  0  0  0  0  0  0  0
    7.3188   -2.3144   21.0715 H   0  0  0  0  0  0  0  0  0  0  0  0
    9.5769   -2.1327   21.6865 H   0  0  0  0  0  0  0  0  0  0  0  0
    9.3405   -3.8201   23.1548 H   0  0  0  0  0  0  0  0  0  0  0  0
    9.7625   -2.6047   24.3226 H   0  0  0  0  0  0  0  0  0  0  0  0
    6.8970   -4.3310   22.7129 H   0  0  0  0  0  0  0  0  0  0  0  0
    4.7512   -4.8228   23.8311 H   0  0  0  0  0  0  0  0  0  0  0  0
    4.3096   -3.9543   26.1143 H   0  0  0  0  0  0  0  0  0  0  0  0
    6.0536   -2.6097   27.2654 H   0  0  0  0  0  0  0  0  0  0  0  0
    8.1973   -2.1361   26.1489 H   0  0  0  0  0  0  0  0  0  0  0  0
   11.4744   -1.9659   21.8184 H   0  0  0  0  0  0  0  0  0  0  0  0
   14.7489    0.6119   22.8140 H   0  0  0  0  0  0  0  0  0  0  0  0
   13.1659    2.1406   24.0125 H   0  0  0  0  0  0  0  0  0  0  0  0
  1  2  1  0
  2  3  1  0
  3  4  2  0
  3  5  1  0
  5  6  1  0
  6  7  1  0
  8  7  1  1
  8  9  1  0
  9 10  2  0
  9 11  1  0
 11 12  1  0
 12 13  2  0
 13 14  1  0
 14 15  2  0
 15 16  1  0
 16 17  2  0
 17 18  1  0
 18 19  2  0
 19 20  1  0
 20 21  2  0
 11 22  1  0
 22 23  1  0
 23 24  1  0
 24 25  1  0
 25 26  2  0
 26 27  1  0
 27 28  2  0
 28 29  1  0
 29 30  2  0
  8 31  1  0
 31 32  2  0
 32 33  1  0
 33 34  1  0
 33 35  2  0
 35 36  1  0
 36 37  2  0
 37 38  1  0
 38 39  2  0
 38  6  1  0
 23  8  1  0
 30 25  1  0
 37 31  1  0
 21 12  1  0
 21 16  1  0
  1 40  1  0
  1 41  1  0
  1 42  1  0
  2 43  1  0
  5 44  1  0
  5 45  1  0
  7 46  1  0
  7 47  1  0
 13 48  1  0
 15 49  1  0
 17 50  1  0
 18 51  1  0
 19 52  1  0
 20 53  1  0
 22 54  1  0
 22 55  1  0
 23 56  1  6
 24 57  1  0
 24 58  1  0
 26 59  1  0
 27 60  1  0
 28 61  1  0
 29 62  1  0
 30 63  1  0
 32 64  1  0
 35 65  1  0
 36 66  1  0
M  END
$$$$
