
     RDKit          3D

 40 43  0  0  0  0  0  0  0  0999 V2000
  -13.4615   -0.2415  -23.7065 C   0  0  0  0  0  0  0  0  0  0  0  0
  -12.0551    0.1713  -23.2728 C   0  0  2  0  0  0  0  0  0  0  0  0
  -11.2962    0.7471  -24.4747 C   0  0  0  0  0  0  0  0  0  0  0  0
   -9.9182    0.9390  -24.2314 O   0  0  0  0  0  0  0  0  0  0  0  0
   -9.2529   -0.2524  -23.8918 C   0  0  0  0  0  0  0  0  0  0  0  0
   -9.7996   -0.8861  -22.5949 C   0  0  1  0  0  0  0  0  0  0  0  0
  -11.3215   -1.0272  -22.6753 C   0  0  0  0  0  0  0  0  0  0  0  0
   -9.1657   -2.1715  -22.3169 N   0  0  0  0  0  0  0  0  0  0  0  0
   -8.2357   -2.1357  -21.3114 C   0  0  0  0  0  0  0  0  0  0  0  0
   -7.4932   -3.0113  -20.9236 O   0  0  0  0  0  0  0  0  0  0  0  0
   -8.3184   -0.8347  -20.7884 N   0  0  0  0  0  0  0  0  0  0  0  0
   -7.4684   -0.3106  -19.7902 C   0  0  0  0  0  0  0  0  0  0  0  0
   -7.7812   -0.5095  -18.4748 C   0  0  0  0  0  0  0  0  0  0  0  0
   -7.1060    0.0609  -17.4473 N   0  0  0  0  0  0  0  0  0  0  0  0
   -6.1072    0.8521  -17.7580 C   0  0  0  0  0  0  0  0  0  0  0  0
   -5.6706    1.1227  -19.0867 C   0  0  0  0  0  0  0  0  0  0  0  0
   -4.5901    1.9950  -19.3699 C   0  0  0  0  0  0  0  0  0  0  0  0
   -4.1918    2.1952  -20.6607 C   0  0  0  0  0  0  0  0  0  0  0  0
   -4.8352    1.5307  -21.7264 C   0  0  0  0  0  0  0  0  0  0  0  0
   -5.8875    0.6876  -21.4831 C   0  0  0  0  0  0  0  0  0  0  0  0
   -6.3430    0.4886  -20.1486 C   0  0  0  0  0  0  0  0  0  0  0  0
   -9.3510   -0.0901  -21.3615 C   0  0  0  0  0  0  0  0  0  0  0  0
   -9.7776    0.9481  -20.9276 O   0  0  0  0  0  0  0  0  0  0  0  0
  -14.0754   -0.5533  -22.8540 H   0  0  0  0  0  0  0  0  0  0  0  0
  -13.3926   -1.0946  -24.3943 H   0  0  0  0  0  0  0  0  0  0  0  0
  -13.9743    0.5730  -24.2303 H   0  0  0  0  0  0  0  0  0  0  0  0
  -12.1175    0.9489  -22.5015 H   0  0  0  0  0  0  0  0  0  0  0  0
  -11.4548    0.1230  -25.3791 H   0  0  0  0  0  0  0  0  0  0  0  0
  -11.6900    1.7425  -24.7047 H   0  0  0  0  0  0  0  0  0  0  0  0
   -9.3153   -1.0024  -24.6995 H   0  0  0  0  0  0  0  0  0  0  0  0
   -8.2014    0.0011  -23.7390 H   0  0  0  0  0  0  0  0  0  0  0  0
  -11.5260   -1.9161  -23.2875 H   0  0  0  0  0  0  0  0  0  0  0  0
  -11.6994   -1.1959  -21.6606 H   0  0  0  0  0  0  0  0  0  0  0  0
   -9.1055   -2.9127  -23.0006 H   0  0  0  0  0  0  0  0  0  0  0  0
   -8.6288   -1.1445  -18.2220 H   0  0  0  0  0  0  0  0  0  0  0  0
   -5.5767    1.3242  -16.9336 H   0  0  0  0  0  0  0  0  0  0  0  0
   -4.0883    2.4912  -18.5462 H   0  0  0  0  0  0  0  0  0  0  0  0
   -3.3540    2.8485  -20.8742 H   0  0  0  0  0  0  0  0  0  0  0  0
   -4.4868    1.6808  -22.7422 H   0  0  0  0  0  0  0  0  0  0  0  0
   -6.3737    0.1821  -22.3130 H   0  0  0  0  0  0  0  0  0  0  0  0
  1  2  1  0
  2  3  1  0
  3  4  1  0
  4  5  1  0
  5  6  1  0
  6  7  1  0
  6  8  1  1
  8  9  1  0
  9 10  2  0
  9 11  1  0
 11 12  1  0
 12 13  2  0
 13 14  1  0
 14 15  2  0
 15 16  1  0
 16 17  2  0
 17 18  1  0
 18 19  2  0
 19 20  1  0
 20 21  2  0
 11 22  1  0
 22 23  2  0
  7  2  1  0
 21 12  1  0
 22  6  1  0
 21 16  1  0
  1 24  1  0
  1 25  1  0
  1 26  1  0
  2 27  1  1
  3 28  1  0
  3 29  1  0
  5 30  1  0
  5 31  1  0
  7 32  1  0
  7 33  1  0
  8 34  1  0
 13 35  1  0
 15 36  1  0
 17 37  1  0
 18 38  1  0
 19 39  1  0
 20 40  1  0
M  END
$$$$
