
     RDKit          3D

 59 64  0  0  0  0  0  0  0  0999 V2000
    8.8511   -2.7964   23.6501 C   0  0  0  0  0  0  0  0  0  0  0  0
    8.9102   -1.7964   22.5047 C   0  0  1  0  0  0  0  0  0  0  0  0
    7.5676   -1.5475   21.8066 C   0  0  0  0  0  0  0  0  0  0  0  0
    7.7770   -0.2665   21.1585 N   0  0  0  0  0  0  0  0  0  0  0  0
    6.9411    0.2633   20.1422 C   0  0  0  0  0  0  0  0  0  0  0  0
    7.2110   -0.0145   18.8253 C   0  0  0  0  0  0  0  0  0  0  0  0
    6.4864    0.4443   17.7740 N   0  0  0  0  0  0  0  0  0  0  0  0
    5.4478    1.2057   18.0387 C   0  0  0  0  0  0  0  0  0  0  0  0
    5.0334    1.5522   19.3602 C   0  0  0  0  0  0  0  0  0  0  0  0
    3.9059    2.3864   19.6096 C   0  0  0  0  0  0  0  0  0  0  0  0
    3.5456    2.6920   20.8963 C   0  0  0  0  0  0  0  0  0  0  0  0
    4.2821    2.1809   21.9893 C   0  0  0  0  0  0  0  0  0  0  0  0
    5.3841    1.3907   21.7745 C   0  0  0  0  0  0  0  0  0  0  0  0
    5.7884    1.0584   20.4500 C   0  0  0  0  0  0  0  0  0  0  0  0
    8.8196    0.4559   21.6996 C   0  0  0  0  0  0  0  0  0  0  0  0
    9.1642    1.5508   21.3105 O   0  0  0  0  0  0  0  0  0  0  0  0
    9.4270   -0.3740   22.8606 C   0  0  1  0  0  0  0  0  0  0  0  0
    8.8482    0.1281   24.2122 C   0  0  0  0  0  0  0  0  0  0  0  0
    9.2559    1.4888   24.5196 N   0  0  0  0  0  0  0  0  0  0  0  0
    8.3558    2.3079   25.3195 C   0  0  0  0  0  0  0  0  0  0  0  0
    7.5077    3.2491   24.5107 C   0  0  0  0  0  0  0  0  0  0  0  0
    7.9133    3.9287   23.3474 C   0  0  0  0  0  0  0  0  0  0  0  0
    6.8364    4.7065   23.0045 C   0  0  0  0  0  0  0  0  0  0  0  0
    5.8740    4.4609   23.9235 N   0  0  0  0  0  0  0  0  0  0  0  0
    4.6004    5.1365   24.0099 C   0  0  0  0  0  0  0  0  0  0  0  0
    6.2638    3.5783   24.8576 N   0  0  0  0  0  0  0  0  0  0  0  0
   10.5322    1.9258   24.2794 C   0  0  0  0  0  0  0  0  0  0  0  0
   10.9207    3.0335   24.6304 O   0  0  0  0  0  0  0  0  0  0  0  0
   11.4370    0.9590   23.5578 C   0  0  0  0  0  0  0  0  0  0  0  0
   12.8074    1.2403   23.5192 C   0  0  0  0  0  0  0  0  0  0  0  0
   13.6862    0.3939   22.8714 C   0  0  0  0  0  0  0  0  0  0  0  0
   13.1657   -0.7466   22.2713 C   0  0  0  0  0  0  0  0  0  0  0  0
   13.9999   -1.5787   21.6269 F   0  0  0  0  0  0  0  0  0  0  0  0
   11.8199   -1.0563   22.2880 C   0  0  0  0  0  0  0  0  0  0  0  0
   10.9274   -0.1898   22.9285 C   0  0  0  0  0  0  0  0  0  0  0  0
    8.5957   -3.7979   23.2936 H   0  0  0  0  0  0  0  0  0  0  0  0
    9.8071   -2.8638   24.1785 H   0  0  0  0  0  0  0  0  0  0  0  0
    8.0977   -2.5080   24.3879 H   0  0  0  0  0  0  0  0  0  0  0  0
    9.5691   -2.2053   21.7340 H   0  0  0  0  0  0  0  0  0  0  0  0
    7.3337   -2.3168   21.0684 H   0  0  0  0  0  0  0  0  0  0  0  0
    6.7475   -1.5310   22.5451 H   0  0  0  0  0  0  0  0  0  0  0  0
    8.0695   -0.6312   18.5692 H   0  0  0  0  0  0  0  0  0  0  0  0
    4.8720    1.5841   17.1927 H   0  0  0  0  0  0  0  0  0  0  0  0
    3.3453    2.7846   18.7672 H   0  0  0  0  0  0  0  0  0  0  0  0
    2.6873    3.3333   21.0877 H   0  0  0  0  0  0  0  0  0  0  0  0
    3.9785    2.4178   23.0066 H   0  0  0  0  0  0  0  0  0  0  0  0
    5.9499    0.9913   22.6104 H   0  0  0  0  0  0  0  0  0  0  0  0
    9.1745   -0.5376   25.0233 H   0  0  0  0  0  0  0  0  0  0  0  0
    7.7549    0.1048   24.1742 H   0  0  0  0  0  0  0  0  0  0  0  0
    7.7113    1.6458   25.9052 H   0  0  0  0  0  0  0  0  0  0  0  0
    8.9734    2.8767   26.0220 H   0  0  0  0  0  0  0  0  0  0  0  0
    8.8718    3.8769   22.8446 H   0  0  0  0  0  0  0  0  0  0  0  0
    6.6983    5.4179   22.1924 H   0  0  0  0  0  0  0  0  0  0  0  0
    3.9016    4.5403   24.5953 H   0  0  0  0  0  0  0  0  0  0  0  0
    4.6909    6.1233   24.4735 H   0  0  0  0  0  0  0  0  0  0  0  0
    4.1928    5.2750   23.0067 H   0  0  0  0  0  0  0  0  0  0  0  0
   13.1735    2.1349   24.0089 H   0  0  0  0  0  0  0  0  0  0  0  0
   14.7533    0.5996   22.8124 H   0  0  0  0  0  0  0  0  0  0  0  0
   11.4911   -1.9700   21.8036 H   0  0  0  0  0  0  0  0  0  0  0  0
  1  2  1  0
  2  3  1  0
  3  4  1  0
  4  5  1  0
  5  6  2  0
  6  7  1  0
  7  8  2  0
  8  9  1  0
  9 10  2  0
 10 11  1  0
 11 12  2  0
 12 13  1  0
 13 14  2  0
  4 15  1  0
 15 16  2  0
 15 17  1  0
 17 18  1  1
 18 19  1  0
 19 20  1  0
 20 21  1  0
 21 22  1  0
 22 23  2  0
 23 24  1  0
 24 25  1  0
 24 26  1  0
 19 27  1  0
 27 28  2  0
 27 29  1  0
 29 30  2  0
 30 31  1  0
 31 32  2  0
 32 33  1  0
 32 34  1  0
 34 35  2  0
 17  2  1  0
 26 21  2  0
 35 29  1  0
 14  5  1  0
 35 17  1  0
 14  9  1  0
  1 36  1  0
  1 37  1  0
  1 38  1  0
  2 39  1  6
  3 40  1  0
  3 41  1  0
  6 42  1  0
  8 43  1  0
 10 44  1  0
 11 45  1  0
 12 46  1  0
 13 47  1  0
 18 48  1  0
 18 49  1  0
 20 50  1  0
 20 51  1  0
 22 52  1  0
 23 53  1  0
 25 54  1  0
 25 55  1  0
 25 56  1  0
 30 57  1  0
 31 58  1  0
 34 59  1  0
M  END
$$$$
