
     RDKit          3D

 60 65  0  0  0  0  0  0  0  0999 V2000
    7.0927    4.5171   22.2334 C   0  0  0  0  0  0  0  0  0  0  0  0
    7.8750    3.6738   23.1174 N   0  0  0  0  0  0  0  0  0  0  0  0
    7.5252    3.5130   24.4133 C   0  0  0  0  0  0  0  0  0  0  0  0
    6.6714    4.1950   24.9609 O   0  0  0  0  0  0  0  0  0  0  0  0
    8.2091    2.4082   25.2007 C   0  0  0  0  0  0  0  0  0  0  0  0
    9.1079    1.5146   24.5121 N   0  0  0  0  0  0  0  0  0  0  0  0
    8.6718    0.1655   24.1862 C   0  0  0  0  0  0  0  0  0  0  0  0
    9.3100   -0.3552   22.8678 C   0  0  2  0  0  0  0  0  0  0  0  0
    8.7490    0.4452   21.6648 C   0  0  0  0  0  0  0  0  0  0  0  0
    9.1054    1.5354   21.2636 O   0  0  0  0  0  0  0  0  0  0  0  0
    7.7267   -0.2919   21.1070 N   0  0  0  0  0  0  0  0  0  0  0  0
    6.8939    0.2386   20.0859 C   0  0  0  0  0  0  0  0  0  0  0  0
    7.1885   -0.0161   18.7722 C   0  0  0  0  0  0  0  0  0  0  0  0
    6.4771    0.4562   17.7182 N   0  0  0  0  0  0  0  0  0  0  0  0
    5.4360    1.2108   17.9856 C   0  0  0  0  0  0  0  0  0  0  0  0
    4.9948    1.5316   19.3031 C   0  0  0  0  0  0  0  0  0  0  0  0
    3.8641    2.3599   19.5564 C   0  0  0  0  0  0  0  0  0  0  0  0
    3.4728    2.6232   20.8410 C   0  0  0  0  0  0  0  0  0  0  0  0
    4.1769    2.0716   21.9384 C   0  0  0  0  0  0  0  0  0  0  0  0
    5.2809    1.2849   21.7193 C   0  0  0  0  0  0  0  0  0  0  0  0
    5.7310    1.0097   20.3972 C   0  0  0  0  0  0  0  0  0  0  0  0
    7.4879   -1.5571   21.7805 C   0  0  0  0  0  0  0  0  0  0  0  0
    8.8124   -1.7837   22.5183 C   0  0  2  0  0  0  0  0  0  0  0  0
    8.7352   -2.7782   23.6688 C   0  0  0  0  0  0  0  0  0  0  0  0
   10.8101   -0.1904   22.9841 C   0  0  0  0  0  0  0  0  0  0  0  0
   11.7152   -1.0558   22.3514 C   0  0  0  0  0  0  0  0  0  0  0  0
   13.0694   -0.7707   22.3569 C   0  0  0  0  0  0  0  0  0  0  0  0
   14.1584   -1.8260   21.4974 Cl  0  0  0  0  0  0  0  0  0  0  0  0
   13.5745    0.3595   23.0040 C   0  0  0  0  0  0  0  0  0  0  0  0
   12.6858    1.2080   23.6402 C   0  0  0  0  0  0  0  0  0  0  0  0
   11.3132    0.9481   23.6351 C   0  0  0  0  0  0  0  0  0  0  0  0
   10.3958    1.9405   24.2914 C   0  0  0  0  0  0  0  0  0  0  0  0
   10.7486    3.0672   24.6054 O   0  0  0  0  0  0  0  0  0  0  0  0
    7.3634    1.8366   26.3273 C   0  0  0  0  0  0  0  0  0  0  0  0
    8.4895    2.7496   26.6524 C   0  0  0  0  0  0  0  0  0  0  0  0
    6.0635    4.1466   22.1535 H   0  0  0  0  0  0  0  0  0  0  0  0
    7.5448    4.4718   21.2396 H   0  0  0  0  0  0  0  0  0  0  0  0
    7.0538    5.5601   22.5682 H   0  0  0  0  0  0  0  0  0  0  0  0
    8.7314    3.2836   22.7545 H   0  0  0  0  0  0  0  0  0  0  0  0
    7.5835    0.1889   24.0958 H   0  0  0  0  0  0  0  0  0  0  0  0
    8.9300   -0.5269   25.0026 H   0  0  0  0  0  0  0  0  0  0  0  0
    8.0531   -0.6269   18.5224 H   0  0  0  0  0  0  0  0  0  0  0  0
    4.8782    1.6087   17.1356 H   0  0  0  0  0  0  0  0  0  0  0  0
    3.3282    2.7867   18.7092 H   0  0  0  0  0  0  0  0  0  0  0  0
    2.6196    3.2674   21.0366 H   0  0  0  0  0  0  0  0  0  0  0  0
    3.8678    2.2984   22.9564 H   0  0  0  0  0  0  0  0  0  0  0  0
    5.8307    0.8752   22.5632 H   0  0  0  0  0  0  0  0  0  0  0  0
    7.2695   -2.3435   21.0524 H   0  0  0  0  0  0  0  0  0  0  0  0
    6.6453   -1.5231   22.4970 H   0  0  0  0  0  0  0  0  0  0  0  0
    9.4987   -2.1837   21.7696 H   0  0  0  0  0  0  0  0  0  0  0  0
    9.6748   -2.8157   24.2310 H   0  0  0  0  0  0  0  0  0  0  0  0
    8.5175   -3.7908   23.3115 H   0  0  0  0  0  0  0  0  0  0  0  0
    7.9497   -2.4992   24.3792 H   0  0  0  0  0  0  0  0  0  0  0  0
   11.3791   -1.9584   21.8501 H   0  0  0  0  0  0  0  0  0  0  0  0
   14.6428    0.5662   22.9799 H   0  0  0  0  0  0  0  0  0  0  0  0
   13.0455    2.1001   24.1422 H   0  0  0  0  0  0  0  0  0  0  0  0
    6.3581    2.2240   26.4468 H   0  0  0  0  0  0  0  0  0  0  0  0
    7.4858    0.7837   26.5616 H   0  0  0  0  0  0  0  0  0  0  0  0
    9.3757    2.3092   27.0966 H   0  0  0  0  0  0  0  0  0  0  0  0
    8.2316    3.7454   26.9997 H   0  0  0  0  0  0  0  0  0  0  0  0
  1  2  1  0
  2  3  1  0
  3  4  2  0
  3  5  1  0
  5  6  1  0
  6  7  1  0
  8  7  1  1
  8  9  1  0
  9 10  2  0
  9 11  1  0
 11 12  1  0
 12 13  2  0
 13 14  1  0
 14 15  2  0
 15 16  1  0
 16 17  2  0
 17 18  1  0
 18 19  2  0
 19 20  1  0
 20 21  2  0
 11 22  1  0
 22 23  1  0
 23 24  1  0
  8 25  1  0
 25 26  2  0
 26 27  1  0
 27 28  1  0
 27 29  2  0
 29 30  1  0
 30 31  2  0
 31 32  1  0
 32 33  2  0
  5 34  1  0
 34 35  1  0
 35  5  1  0
 32  6  1  0
 23  8  1  0
 31 25  1  0
 21 12  1  0
 21 16  1  0
  1 36  1  0
  1 37  1  0
  1 38  1  0
  2 39  1  0
  7 40  1  0
  7 41  1  0
 13 42  1  0
 15 43  1  0
 17 44  1  0
 18 45  1  0
 19 46  1  0
 20 47  1  0
 22 48  1  0
 22 49  1  0
 23 50  1  6
 24 51  1  0
 24 52  1  0
 24 53  1  0
 26 54  1  0
 29 55  1  0
 30 56  1  0
 34 57  1  0
 34 58  1  0
 35 59  1  0
 35 60  1  0
M  END
$$$$
