
     RDKit          3D

 68 73  0  0  0  0  0  0  0  0999 V2000
    7.1783    4.6065   22.5288 C   0  0  0  0  0  0  0  0  0  0  0  0
    7.9559    3.6361   23.2730 N   0  0  0  0  0  0  0  0  0  0  0  0
    7.6538    3.4153   24.5711 C   0  0  0  0  0  0  0  0  0  0  0  0
    6.8105    4.0592   25.1769 O   0  0  0  0  0  0  0  0  0  0  0  0
    8.4330    2.3222   25.3187 C   0  0  0  0  0  0  0  0  0  0  0  0
    9.2809    1.4693   24.5147 N   0  0  0  0  0  0  0  0  0  0  0  0
    8.8473    0.1200   24.1982 C   0  0  0  0  0  0  0  0  0  0  0  0
    9.4332   -0.3666   22.8412 C   0  0  2  0  0  0  0  0  0  0  0  0
    8.8036    0.4690   21.6994 C   0  0  0  0  0  0  0  0  0  0  0  0
    9.1050    1.5973   21.3568 O   0  0  0  0  0  0  0  0  0  0  0  0
    7.7817   -0.2682   21.1481 N   0  0  0  0  0  0  0  0  0  0  0  0
    6.9495    0.2657   20.1323 C   0  0  0  0  0  0  0  0  0  0  0  0
    7.2393   -0.0023   18.8197 C   0  0  0  0  0  0  0  0  0  0  0  0
    6.5182    0.4525   17.7647 N   0  0  0  0  0  0  0  0  0  0  0  0
    5.4770    1.2030   18.0408 C   0  0  0  0  0  0  0  0  0  0  0  0
    5.0655    1.5620   19.3563 C   0  0  0  0  0  0  0  0  0  0  0  0
    3.9302    2.3843   19.5896 C   0  0  0  0  0  0  0  0  0  0  0  0
    3.5521    2.6925   20.8675 C   0  0  0  0  0  0  0  0  0  0  0  0
    4.2837    2.1990   21.9713 C   0  0  0  0  0  0  0  0  0  0  0  0
    5.3918    1.4112   21.7721 C   0  0  0  0  0  0  0  0  0  0  0  0
    5.8173    1.0768   20.4524 C   0  0  0  0  0  0  0  0  0  0  0  0
    7.5633   -1.5479   21.7983 C   0  0  0  0  0  0  0  0  0  0  0  0
    8.9219   -1.7847   22.4718 C   0  0  2  0  0  0  0  0  0  0  0  0
    8.9121   -2.8043   23.6255 C   0  0  0  0  0  0  0  0  0  0  0  0
    8.7458   -4.1783   23.2043 N   0  0  0  0  0  0  0  0  0  0  0  0
    7.5115   -4.6646   22.7839 C   0  0  0  0  0  0  0  0  0  0  0  0
    6.2863   -4.2492   23.3405 C   0  0  0  0  0  0  0  0  0  0  0  0
    5.1131   -4.9191   23.0168 C   0  0  0  0  0  0  0  0  0  0  0  0
    5.1054   -5.8996   22.0336 C   0  0  0  0  0  0  0  0  0  0  0  0
    6.2885   -6.1875   21.3609 C   0  0  0  0  0  0  0  0  0  0  0  0
    7.4884   -5.6245   21.7589 C   0  0  0  0  0  0  0  0  0  0  0  0
   10.9369   -0.1854   22.9008 C   0  0  0  0  0  0  0  0  0  0  0  0
   11.8393   -1.0537   22.2696 C   0  0  0  0  0  0  0  0  0  0  0  0
   13.1902   -0.7527   22.2599 C   0  0  0  0  0  0  0  0  0  0  0  0
   14.2969   -1.8274   21.4561 Cl  0  0  0  0  0  0  0  0  0  0  0  0
   13.6934    0.3971   22.8670 C   0  0  0  0  0  0  0  0  0  0  0  0
   12.8146    1.2413   23.5109 C   0  0  0  0  0  0  0  0  0  0  0  0
   11.4548    0.9451   23.5503 C   0  0  0  0  0  0  0  0  0  0  0  0
   10.5752    1.8718   24.3305 C   0  0  0  0  0  0  0  0  0  0  0  0
   10.9875    2.9333   24.7791 O   0  0  0  0  0  0  0  0  0  0  0  0
    7.1918    5.5859   23.0226 H   0  0  0  0  0  0  0  0  0  0  0  0
    7.6048    4.7059   21.5271 H   0  0  0  0  0  0  0  0  0  0  0  0
    6.1336    4.2789   22.4420 H   0  0  0  0  0  0  0  0  0  0  0  0
    8.5283    2.9781   22.7455 H   0  0  0  0  0  0  0  0  0  0  0  0
    9.0499    2.8228   26.0759 H   0  0  0  0  0  0  0  0  0  0  0  0
    7.6939    1.7176   25.8544 H   0  0  0  0  0  0  0  0  0  0  0  0
    9.1617   -0.5649   24.9989 H   0  0  0  0  0  0  0  0  0  0  0  0
    7.7510    0.1202   24.1602 H   0  0  0  0  0  0  0  0  0  0  0  0
    8.1053   -0.6197   18.5873 H   0  0  0  0  0  0  0  0  0  0  0  0
    4.8962    1.5712   17.1955 H   0  0  0  0  0  0  0  0  0  0  0  0
    3.3760    2.7595   18.7330 H   0  0  0  0  0  0  0  0  0  0  0  0
    2.6837    3.3196   21.0448 H   0  0  0  0  0  0  0  0  0  0  0  0
    3.9823    2.4657   22.9826 H   0  0  0  0  0  0  0  0  0  0  0  0
    5.9450    1.0449   22.6333 H   0  0  0  0  0  0  0  0  0  0  0  0
    7.2979   -2.3211   21.0715 H   0  0  0  0  0  0  0  0  0  0  0  0
    6.7443   -1.5078   22.5380 H   0  0  0  0  0  0  0  0  0  0  0  0
    9.5613   -2.1592   21.6624 H   0  0  0  0  0  0  0  0  0  0  0  0
    9.8640   -2.7226   24.1712 H   0  0  0  0  0  0  0  0  0  0  0  0
    8.1047   -2.5474   24.3306 H   0  0  0  0  0  0  0  0  0  0  0  0
    9.5204   -4.5283   22.6408 H   0  0  0  0  0  0  0  0  0  0  0  0
    6.2164   -3.3984   24.0170 H   0  0  0  0  0  0  0  0  0  0  0  0
    4.1835   -4.6729   23.5257 H   0  0  0  0  0  0  0  0  0  0  0  0
    4.1951   -6.4463   21.8171 H   0  0  0  0  0  0  0  0  0  0  0  0
    6.2559   -6.8443   20.4992 H   0  0  0  0  0  0  0  0  0  0  0  0
    8.4135   -5.9063   21.2564 H   0  0  0  0  0  0  0  0  0  0  0  0
   11.5143   -1.9644   21.7787 H   0  0  0  0  0  0  0  0  0  0  0  0
   14.7536    0.6209   22.8385 H   0  0  0  0  0  0  0  0  0  0  0  0
   13.1494    2.1485   24.0014 H   0  0  0  0  0  0  0  0  0  0  0  0
  1  2  1  0
  2  3  1  0
  3  4  2  0
  3  5  1  0
  5  6  1  0
  6  7  1  0
  8  7  1  1
  8  9  1  0
  9 10  2  0
  9 11  1  0
 11 12  1  0
 12 13  2  0
 13 14  1  0
 14 15  2  0
 15 16  1  0
 16 17  2  0
 17 18  1  0
 18 19  2  0
 19 20  1  0
 20 21  2  0
 11 22  1  0
 22 23  1  0
 23 24  1  0
 24 25  1  0
 25 26  1  0
 26 27  2  0
 27 28  1  0
 28 29  2  0
 29 30  1  0
 30 31  2  0
  8 32  1  0
 32 33  2  0
 33 34  1  0
 34 35  1  0
 34 36  2  0
 36 37  1  0
 37 38  2  0
 38 39  1  0
 39 40  2  0
 39  6  1  0
 23  8  1  0
 31 26  1  0
 38 32  1  0
 21 12  1  0
 21 16  1  0
  1 41  1  0
  1 42  1  0
  1 43  1  0
  2 44  1  0
  5 45  1  0
  5 46  1  0
  7 47  1  0
  7 48  1  0
 13 49  1  0
 15 50  1  0
 17 51  1  0
 18 52  1  0
 19 53  1  0
 20 54  1  0
 22 55  1  0
 22 56  1  0
 23 57  1  6
 24 58  1  0
 24 59  1  0
 25 60  1  0
 27 61  1  0
 28 62  1  0
 29 63  1  0
 30 64  1  0
 31 65  1  0
 33 66  1  0
 36 67  1  0
 37 68  1  0
M  END
$$$$
