
     RDKit          3D

 43 45  0  0  0  0  0  0  0  0999 V2000
   10.5781    2.3998   25.3890 C   0  0  0  0  0  0  0  0  0  0  0  0
   11.0826    0.9569   25.2036 C   0  0  0  0  0  0  0  0  0  0  0  0
   12.1150    0.6036   26.2886 C   0  0  0  0  0  0  0  0  0  0  0  0
   11.7694    0.8508   23.8152 C   0  0  0  0  0  0  0  0  0  0  0  0
   11.1627   -0.2310   22.9396 C   0  0  0  0  0  0  0  0  0  0  0  0
    9.7150   -0.0733   22.8524 N   0  0  0  0  0  0  0  0  0  0  0  0
    9.1846    0.1421   21.6032 C   0  0  0  0  0  0  0  0  0  0  0  0
    9.8315    0.6737   20.7174 O   0  0  0  0  0  0  0  0  0  0  0  0
    7.7998   -0.4585   21.3425 C   0  0  0  0  0  0  0  0  0  0  0  0
    7.0269    0.1675   20.2153 C   0  0  0  0  0  0  0  0  0  0  0  0
    7.3671   -0.1119   18.9148 C   0  0  0  0  0  0  0  0  0  0  0  0
    6.7096    0.3357   17.8125 N   0  0  0  0  0  0  0  0  0  0  0  0
    5.6572    1.0954   18.0242 C   0  0  0  0  0  0  0  0  0  0  0  0
    5.1980    1.4869   19.3150 C   0  0  0  0  0  0  0  0  0  0  0  0
    4.0601    2.3147   19.4952 C   0  0  0  0  0  0  0  0  0  0  0  0
    3.6580    2.6765   20.7509 C   0  0  0  0  0  0  0  0  0  0  0  0
    4.3737    2.2403   21.8873 C   0  0  0  0  0  0  0  0  0  0  0  0
    5.4656    1.4234   21.7428 C   0  0  0  0  0  0  0  0  0  0  0  0
    5.9062    1.0167   20.4510 C   0  0  0  0  0  0  0  0  0  0  0  0
    8.9537   -0.0020   24.1030 C   0  0  0  0  0  0  0  0  0  0  0  0
    9.9179   -0.0511   25.2908 C   0  0  0  0  0  0  0  0  0  0  0  0
   10.1472    2.5413   26.3876 H   0  0  0  0  0  0  0  0  0  0  0  0
   11.4064    3.1097   25.2659 H   0  0  0  0  0  0  0  0  0  0  0  0
    9.8103    2.6751   24.6550 H   0  0  0  0  0  0  0  0  0  0  0  0
   11.7969    0.8826   27.3021 H   0  0  0  0  0  0  0  0  0  0  0  0
   12.3110   -0.4689   26.3032 H   0  0  0  0  0  0  0  0  0  0  0  0
   13.0604    1.1152   26.0721 H   0  0  0  0  0  0  0  0  0  0  0  0
   11.6653    1.7979   23.2744 H   0  0  0  0  0  0  0  0  0  0  0  0
   12.8454    0.6705   23.9248 H   0  0  0  0  0  0  0  0  0  0  0  0
   11.5500   -0.1457   21.9231 H   0  0  0  0  0  0  0  0  0  0  0  0
   11.4063   -1.2328   23.3229 H   0  0  0  0  0  0  0  0  0  0  0  0
    7.2202   -0.4983   22.2674 H   0  0  0  0  0  0  0  0  0  0  0  0
    8.0050   -1.5089   21.0781 H   0  0  0  0  0  0  0  0  0  0  0  0
    8.2330   -0.7478   18.7196 H   0  0  0  0  0  0  0  0  0  0  0  0
    5.1189    1.4475   17.1419 H   0  0  0  0  0  0  0  0  0  0  0  0
    3.5174    2.6532   18.6140 H   0  0  0  0  0  0  0  0  0  0  0  0
    2.7989    3.3299   20.8847 H   0  0  0  0  0  0  0  0  0  0  0  0
    4.0548    2.5556   22.8800 H   0  0  0  0  0  0  0  0  0  0  0  0
    6.0019    1.1000   22.6329 H   0  0  0  0  0  0  0  0  0  0  0  0
    8.2513   -0.8444   24.1794 H   0  0  0  0  0  0  0  0  0  0  0  0
    8.3444    0.9173   24.1396 H   0  0  0  0  0  0  0  0  0  0  0  0
   10.3398   -1.0642   25.3287 H   0  0  0  0  0  0  0  0  0  0  0  0
    9.3761    0.0972   26.2310 H   0  0  0  0  0  0  0  0  0  0  0  0
  1  2  1  0
  2  3  1  0
  2  4  1  0
  4  5  1  0
  5  6  1  0
  6  7  1  0
  7  8  2  0
  7  9  1  0
  9 10  1  0
 10 11  2  0
 11 12  1  0
 12 13  2  0
 13 14  1  0
 14 15  2  0
 15 16  1  0
 16 17  2  0
 17 18  1  0
 18 19  2  0
  6 20  1  0
 20 21  1  0
 21  2  1  0
 19 10  1  0
 19 14  1  0
  1 22  1  0
  1 23  1  0
  1 24  1  0
  3 25  1  0
  3 26  1  0
  3 27  1  0
  4 28  1  0
  4 29  1  0
  5 30  1  0
  5 31  1  0
  9 32  1  0
  9 33  1  0
 11 34  1  0
 13 35  1  0
 15 36  1  0
 16 37  1  0
 17 38  1  0
 18 39  1  0
 20 40  1  0
 20 41  1  0
 21 42  1  0
 21 43  1  0
M  END
$$$$
