
     RDKit          3D

 54 57  0  0  0  0  0  0  0  0999 V2000
    5.5015   -0.3465   26.9544 C   0  0  0  0  0  0  0  0  0  0  0  0
    6.4387   -0.4052   25.8979 O   0  0  0  0  0  0  0  0  0  0  0  0
    6.9785   -1.6247   25.5991 C   0  0  0  0  0  0  0  0  0  0  0  0
    6.5750   -2.7797   26.2574 C   0  0  0  0  0  0  0  0  0  0  0  0
    7.1509   -3.9997   25.9420 C   0  0  0  0  0  0  0  0  0  0  0  0
    8.1422   -4.0686   24.9778 C   0  0  0  0  0  0  0  0  0  0  0  0
    8.5369   -2.9131   24.3088 C   0  0  0  0  0  0  0  0  0  0  0  0
    7.9500   -1.6815   24.5789 C   0  0  0  0  0  0  0  0  0  0  0  0
    8.3624   -0.3855   23.8853 C   0  0  1  0  0  0  0  0  0  0  0  0
    9.1110    0.5464   24.8565 C   0  0  0  0  0  0  0  0  0  0  0  0
    9.9310    1.6125   24.1302 C   0  0  1  0  0  0  0  0  0  0  0  0
   10.5339    2.5458   25.1648 C   0  0  0  0  0  0  0  0  0  0  0  0
   11.0621    0.9034   23.3545 C   0  0  0  0  0  0  0  0  0  0  0  0
   10.6342   -0.5011   22.8935 C   0  0  0  0  0  0  0  0  0  0  0  0
    9.1878   -0.5753   22.6832 N   0  0  0  0  0  0  0  0  0  0  0  0
    8.7399   -0.1839   21.4365 C   0  0  0  0  0  0  0  0  0  0  0  0
    9.4151    0.4934   20.6852 O   0  0  0  0  0  0  0  0  0  0  0  0
    7.3958   -0.7794   21.0287 C   0  0  0  0  0  0  0  0  0  0  0  0
    6.6576    0.0221   20.0072 C   0  0  0  0  0  0  0  0  0  0  0  0
    7.0504   -0.0450   18.6953 C   0  0  0  0  0  0  0  0  0  0  0  0
    6.4310    0.5697   17.6573 N   0  0  0  0  0  0  0  0  0  0  0  0
    5.3770    1.2947   17.9553 C   0  0  0  0  0  0  0  0  0  0  0  0
    4.8646    1.4669   19.2734 C   0  0  0  0  0  0  0  0  0  0  0  0
    3.7271    2.2667   19.5490 C   0  0  0  0  0  0  0  0  0  0  0  0
    3.2833    2.4395   20.8298 C   0  0  0  0  0  0  0  0  0  0  0  0
    3.9537    1.8180   21.9055 C   0  0  0  0  0  0  0  0  0  0  0  0
    5.0511    1.0251   21.6687 C   0  0  0  0  0  0  0  0  0  0  0  0
    5.5340    0.8270   20.3453 C   0  0  0  0  0  0  0  0  0  0  0  0
    5.2414    0.7050   27.0853 H   0  0  0  0  0  0  0  0  0  0  0  0
    4.5926   -0.9163   26.7185 H   0  0  0  0  0  0  0  0  0  0  0  0
    5.9122   -0.7304   27.8998 H   0  0  0  0  0  0  0  0  0  0  0  0
    5.8175   -2.7313   27.0280 H   0  0  0  0  0  0  0  0  0  0  0  0
    6.8179   -4.8913   26.4655 H   0  0  0  0  0  0  0  0  0  0  0  0
    8.6138   -5.0167   24.7441 H   0  0  0  0  0  0  0  0  0  0  0  0
    9.3141   -2.9780   23.5502 H   0  0  0  0  0  0  0  0  0  0  0  0
    7.4560    0.1447   23.5607 H   0  0  0  0  0  0  0  0  0  0  0  0
    8.3955    1.0066   25.5370 H   0  0  0  0  0  0  0  0  0  0  0  0
    9.7894   -0.0610   25.4752 H   0  0  0  0  0  0  0  0  0  0  0  0
    9.2901    2.1928   23.4372 H   0  0  0  0  0  0  0  0  0  0  0  0
    9.7696    3.0492   25.7665 H   0  0  0  0  0  0  0  0  0  0  0  0
   11.1207    1.8972   25.8245 H   0  0  0  0  0  0  0  0  0  0  0  0
   11.1665    3.3203   24.7125 H   0  0  0  0  0  0  0  0  0  0  0  0
   11.3441    1.5022   22.4875 H   0  0  0  0  0  0  0  0  0  0  0  0
   11.9583    0.8037   23.9911 H   0  0  0  0  0  0  0  0  0  0  0  0
   11.1401   -0.7639   21.9542 H   0  0  0  0  0  0  0  0  0  0  0  0
   10.8801   -1.2546   23.6531 H   0  0  0  0  0  0  0  0  0  0  0  0
    6.8004   -0.9562   21.9259 H   0  0  0  0  0  0  0  0  0  0  0  0
    7.6201   -1.7741   20.6089 H   0  0  0  0  0  0  0  0  0  0  0  0
    7.9298   -0.6327   18.4319 H   0  0  0  0  0  0  0  0  0  0  0  0
    4.8739    1.7937   17.1252 H   0  0  0  0  0  0  0  0  0  0  0  0
    3.2210    2.7452   18.7155 H   0  0  0  0  0  0  0  0  0  0  0  0
    2.4176    3.0642   21.0356 H   0  0  0  0  0  0  0  0  0  0  0  0
    3.5986    1.9702   22.9214 H   0  0  0  0  0  0  0  0  0  0  0  0
    5.5466    0.5536   22.5156 H   0  0  0  0  0  0  0  0  0  0  0  0
  1  2  1  0
  2  3  1  0
  3  4  2  0
  4  5  1  0
  5  6  2  0
  6  7  1  0
  7  8  2  0
  8  9  1  0
  9 10  1  0
 10 11  1  0
 11 12  1  0
 11 13  1  0
 13 14  1  0
 14 15  1  0
 15 16  1  0
 16 17  2  0
 16 18  1  0
 18 19  1  0
 19 20  2  0
 20 21  1  0
 21 22  2  0
 22 23  1  0
 23 24  2  0
 24 25  1  0
 25 26  2  0
 26 27  1  0
 27 28  2  0
  8  3  1  0
 15  9  1  0
 28 19  1  0
 28 23  1  0
  1 29  1  0
  1 30  1  0
  1 31  1  0
  4 32  1  0
  5 33  1  0
  6 34  1  0
  7 35  1  0
  9 36  1  6
 10 37  1  0
 10 38  1  0
 11 39  1  6
 12 40  1  0
 12 41  1  0
 12 42  1  0
 13 43  1  0
 13 44  1  0
 14 45  1  0
 14 46  1  0
 18 47  1  0
 18 48  1  0
 20 49  1  0
 22 50  1  0
 24 51  1  0
 25 52  1  0
 26 53  1  0
 27 54  1  0
M  END
$$$$
