sars-lig-H_gnina_dock_sars-lig-H_34
     RDKit          3D

  6  6  0  0  0  0  0  0  0  0999 V2000
   -7.6488   -2.7027  -19.8182 C   0  0  0  0  0  0  0  0  0  0  0  0
   -6.5122   -2.6754  -18.9557 C   0  0  0  0  0  0  0  0  0  0  0  0
   -5.8050   -1.4456  -18.8273 C   0  0  0  0  0  0  0  0  0  0  0  0
   -6.2898   -0.3234  -19.5547 C   0  0  0  0  0  0  0  0  0  0  0  0
   -7.3467   -0.3544  -20.3569 N   0  0  0  0  0  0  0  0  0  0  0  0
   -8.0014   -1.5209  -20.4704 C   0  0  0  0  0  0  0  0  0  0  0  0
  1  6  2  0
  2  1  1  0
  2  3  2  0
  3  4  1  0
  4  5  2  0
  6  5  1  0
M  END
>  <minimizedAffinity>  (1) 
-2.88163

>  <CNNscore>  (1) 
0.4794751406

>  <CNNaffinity>  (1) 
2.8542590141

>  <CNN_VS>  (1) 
1.3685462475

>  <CNNaffinity_variance>  (1) 
0.2139319927

$$$$
sars-lig-H_gnina_dock_sars-lig-H_33
     RDKit          3D

  6  6  0  0  0  0  0  0  0  0999 V2000
   -5.7063   -1.3780  -18.9136 C   0  0  0  0  0  0  0  0  0  0  0  0
   -6.4003   -2.6246  -18.9390 C   0  0  0  0  0  0  0  0  0  0  0  0
   -7.5973   -2.7031  -19.7072 C   0  0  0  0  0  0  0  0  0  0  0  0
   -8.0109   -1.5380  -20.4106 C   0  0  0  0  0  0  0  0  0  0  0  0
   -7.3625   -0.3802  -20.3825 N   0  0  0  0  0  0  0  0  0  0  0  0
   -6.2378   -0.3203  -19.6521 C   0  0  0  0  0  0  0  0  0  0  0  0
  1  6  2  0
  2  1  1  0
  2  3  2  0
  3  4  1  0
  4  5  2  0
  6  5  1  0
M  END
>  <minimizedAffinity>  (2) 
-2.86903

>  <CNNscore>  (2) 
0.4818309844

>  <CNNaffinity>  (2) 
2.8551700115

>  <CNN_VS>  (2) 
1.3757094145

>  <CNNaffinity_variance>  (2) 
0.2126068175

$$$$
sars-lig-H_gnina_dock_sars-lig-H_34
     RDKit          3D

  6  6  0  0  0  0  0  0  0  0999 V2000
   -7.6488   -2.7027  -19.8182 C   0  0  0  0  0  0  0  0  0  0  0  0
   -6.5122   -2.6754  -18.9557 C   0  0  0  0  0  0  0  0  0  0  0  0
   -5.8050   -1.4456  -18.8273 C   0  0  0  0  0  0  0  0  0  0  0  0
   -6.2898   -0.3234  -19.5547 C   0  0  0  0  0  0  0  0  0  0  0  0
   -7.3467   -0.3544  -20.3569 N   0  0  0  0  0  0  0  0  0  0  0  0
   -8.0014   -1.5209  -20.4704 C   0  0  0  0  0  0  0  0  0  0  0  0
  1  6  2  0
  2  1  1  0
  2  3  2  0
  3  4  1  0
  4  5  2  0
  6  5  1  0
M  END
>  <minimizedAffinity>  (3) 
-2.88163

>  <CNNscore>  (3) 
0.4794751406

>  <CNNaffinity>  (3) 
2.8542590141

>  <CNN_VS>  (3) 
1.3685462475

>  <CNNaffinity_variance>  (3) 
0.2139319927

$$$$
sars-lig-H_gnina_dock_sars-lig-H_34
     RDKit          3D

  6  6  0  0  0  0  0  0  0  0999 V2000
   -7.6488   -2.7027  -19.8182 C   0  0  0  0  0  0  0  0  0  0  0  0
   -6.5122   -2.6754  -18.9557 C   0  0  0  0  0  0  0  0  0  0  0  0
   -5.8050   -1.4456  -18.8273 C   0  0  0  0  0  0  0  0  0  0  0  0
   -6.2898   -0.3234  -19.5547 C   0  0  0  0  0  0  0  0  0  0  0  0
   -7.3467   -0.3544  -20.3569 N   0  0  0  0  0  0  0  0  0  0  0  0
   -8.0014   -1.5209  -20.4704 C   0  0  0  0  0  0  0  0  0  0  0  0
  1  6  2  0
  2  1  1  0
  2  3  2  0
  3  4  1  0
  4  5  2  0
  6  5  1  0
M  END
>  <minimizedAffinity>  (4) 
-2.88163

>  <CNNscore>  (4) 
0.4794751406

>  <CNNaffinity>  (4) 
2.8542590141

>  <CNN_VS>  (4) 
1.3685462475

>  <CNNaffinity_variance>  (4) 
0.2139319927

$$$$
sars-lig-H_gnina_dock_sars-lig-H_32
     RDKit          3D

  6  6  0  0  0  0  0  0  0  0999 V2000
   -7.2910   -0.5876  -20.6564 C   0  0  0  0  0  0  0  0  0  0  0  0
   -6.1675   -0.4125  -19.7941 C   0  0  0  0  0  0  0  0  0  0  0  0
   -5.8412   -1.4755  -18.9039 C   0  0  0  0  0  0  0  0  0  0  0  0
   -6.6474   -2.6467  -18.9466 C   0  0  0  0  0  0  0  0  0  0  0  0
   -7.6925   -2.8040  -19.7497 N   0  0  0  0  0  0  0  0  0  0  0  0
   -7.9898   -1.7927  -20.5809 C   0  0  0  0  0  0  0  0  0  0  0  0
  1  6  2  0
  2  1  1  0
  2  3  2  0
  3  4  1  0
  4  5  2  0
  6  5  1  0
M  END
>  <minimizedAffinity>  (5) 
-2.75490

>  <CNNscore>  (5) 
0.4840920568

>  <CNNaffinity>  (5) 
2.8706257343

>  <CNN_VS>  (5) 
1.3896471262

>  <CNNaffinity_variance>  (5) 
0.1581437141

$$$$
sars-lig-H_gnina_dock_sars-lig-H_34
     RDKit          3D

  6  6  0  0  0  0  0  0  0  0999 V2000
   -7.6488   -2.7027  -19.8182 C   0  0  0  0  0  0  0  0  0  0  0  0
   -6.5122   -2.6754  -18.9557 C   0  0  0  0  0  0  0  0  0  0  0  0
   -5.8050   -1.4456  -18.8273 C   0  0  0  0  0  0  0  0  0  0  0  0
   -6.2898   -0.3234  -19.5547 C   0  0  0  0  0  0  0  0  0  0  0  0
   -7.3467   -0.3544  -20.3569 N   0  0  0  0  0  0  0  0  0  0  0  0
   -8.0014   -1.5209  -20.4704 C   0  0  0  0  0  0  0  0  0  0  0  0
  1  6  2  0
  2  1  1  0
  2  3  2  0
  3  4  1  0
  4  5  2  0
  6  5  1  0
M  END
>  <minimizedAffinity>  (6) 
-2.88163

>  <CNNscore>  (6) 
0.4794751406

>  <CNNaffinity>  (6) 
2.8542590141

>  <CNN_VS>  (6) 
1.3685462475

>  <CNNaffinity_variance>  (6) 
0.2139319927

$$$$
sars-lig-H_gnina_dock_sars-lig-H_34
     RDKit          3D

  6  6  0  0  0  0  0  0  0  0999 V2000
   -7.6488   -2.7027  -19.8182 C   0  0  0  0  0  0  0  0  0  0  0  0
   -6.5122   -2.6754  -18.9557 C   0  0  0  0  0  0  0  0  0  0  0  0
   -5.8050   -1.4456  -18.8273 C   0  0  0  0  0  0  0  0  0  0  0  0
   -6.2898   -0.3234  -19.5547 C   0  0  0  0  0  0  0  0  0  0  0  0
   -7.3467   -0.3544  -20.3569 N   0  0  0  0  0  0  0  0  0  0  0  0
   -8.0014   -1.5209  -20.4704 C   0  0  0  0  0  0  0  0  0  0  0  0
  1  6  2  0
  2  1  1  0
  2  3  2  0
  3  4  1  0
  4  5  2  0
  6  5  1  0
M  END
>  <minimizedAffinity>  (7) 
-2.88163

>  <CNNscore>  (7) 
0.4794751406

>  <CNNaffinity>  (7) 
2.8542590141

>  <CNN_VS>  (7) 
1.3685462475

>  <CNNaffinity_variance>  (7) 
0.2139319927

$$$$
sars-lig-H_gnina_dock_sars-lig-H_29
     RDKit          3D

  6  6  0  0  0  0  0  0  0  0999 V2000
   -5.7089   -1.3997  -18.9751 C   0  0  0  0  0  0  0  0  0  0  0  0
   -6.1220   -0.3672  -19.8693 C   0  0  0  0  0  0  0  0  0  0  0  0
   -7.2891   -0.5950  -20.6535 C   0  0  0  0  0  0  0  0  0  0  0  0
   -7.9735   -1.8298  -20.4798 C   0  0  0  0  0  0  0  0  0  0  0  0
   -7.5843   -2.7878  -19.6477 N   0  0  0  0  0  0  0  0  0  0  0  0
   -6.4811   -2.5602  -18.9174 C   0  0  0  0  0  0  0  0  0  0  0  0
  1  6  2  0
  2  1  1  0
  2  3  2  0
  3  4  1  0
  4  5  2  0
  6  5  1  0
M  END
>  <minimizedAffinity>  (8) 
-2.72510

>  <CNNscore>  (8) 
0.4893873632

>  <CNNaffinity>  (8) 
2.8734984398

>  <CNN_VS>  (8) 
1.4062538147

>  <CNNaffinity_variance>  (8) 
0.1517510861

$$$$
sars-lig-H_gnina_dock_sars-lig-H_33
     RDKit          3D

  6  6  0  0  0  0  0  0  0  0999 V2000
   -5.7063   -1.3780  -18.9136 C   0  0  0  0  0  0  0  0  0  0  0  0
   -6.4003   -2.6246  -18.9390 C   0  0  0  0  0  0  0  0  0  0  0  0
   -7.5973   -2.7031  -19.7072 C   0  0  0  0  0  0  0  0  0  0  0  0
   -8.0109   -1.5380  -20.4106 C   0  0  0  0  0  0  0  0  0  0  0  0
   -7.3625   -0.3802  -20.3825 N   0  0  0  0  0  0  0  0  0  0  0  0
   -6.2378   -0.3203  -19.6521 C   0  0  0  0  0  0  0  0  0  0  0  0
  1  6  2  0
  2  1  1  0
  2  3  2  0
  3  4  1  0
  4  5  2  0
  6  5  1  0
M  END
>  <minimizedAffinity>  (9) 
-2.86903

>  <CNNscore>  (9) 
0.4818309844

>  <CNNaffinity>  (9) 
2.8551700115

>  <CNN_VS>  (9) 
1.3757094145

>  <CNNaffinity_variance>  (9) 
0.2126068175

$$$$
sars-lig-H_gnina_dock_sars-lig-H_29
     RDKit          3D

  6  6  0  0  0  0  0  0  0  0999 V2000
   -5.7089   -1.3997  -18.9751 C   0  0  0  0  0  0  0  0  0  0  0  0
   -6.1220   -0.3672  -19.8693 C   0  0  0  0  0  0  0  0  0  0  0  0
   -7.2891   -0.5950  -20.6535 C   0  0  0  0  0  0  0  0  0  0  0  0
   -7.9735   -1.8298  -20.4798 C   0  0  0  0  0  0  0  0  0  0  0  0
   -7.5843   -2.7878  -19.6477 N   0  0  0  0  0  0  0  0  0  0  0  0
   -6.4811   -2.5602  -18.9174 C   0  0  0  0  0  0  0  0  0  0  0  0
  1  6  2  0
  2  1  1  0
  2  3  2  0
  3  4  1  0
  4  5  2  0
  6  5  1  0
M  END
>  <minimizedAffinity>  (10) 
-2.72510

>  <CNNscore>  (10) 
0.4893873632

>  <CNNaffinity>  (10) 
2.8734984398

>  <CNN_VS>  (10) 
1.4062538147

>  <CNNaffinity_variance>  (10) 
0.1517510861

$$$$
sars-lig-H_gnina_dock_sars-lig-H_32
     RDKit          3D

  6  6  0  0  0  0  0  0  0  0999 V2000
   -7.2910   -0.5876  -20.6564 C   0  0  0  0  0  0  0  0  0  0  0  0
   -6.1675   -0.4125  -19.7941 C   0  0  0  0  0  0  0  0  0  0  0  0
   -5.8412   -1.4755  -18.9039 C   0  0  0  0  0  0  0  0  0  0  0  0
   -6.6474   -2.6467  -18.9466 C   0  0  0  0  0  0  0  0  0  0  0  0
   -7.6925   -2.8040  -19.7497 N   0  0  0  0  0  0  0  0  0  0  0  0
   -7.9898   -1.7927  -20.5809 C   0  0  0  0  0  0  0  0  0  0  0  0
  1  6  2  0
  2  1  1  0
  2  3  2  0
  3  4  1  0
  4  5  2  0
  6  5  1  0
M  END
>  <minimizedAffinity>  (11) 
-2.75490

>  <CNNscore>  (11) 
0.4840920568

>  <CNNaffinity>  (11) 
2.8706257343

>  <CNN_VS>  (11) 
1.3896471262

>  <CNNaffinity_variance>  (11) 
0.1581437141

$$$$
sars-lig-H_gnina_dock_sars-lig-H_33
     RDKit          3D

  6  6  0  0  0  0  0  0  0  0999 V2000
   -5.7063   -1.3780  -18.9136 C   0  0  0  0  0  0  0  0  0  0  0  0
   -6.4003   -2.6246  -18.9390 C   0  0  0  0  0  0  0  0  0  0  0  0
   -7.5973   -2.7031  -19.7072 C   0  0  0  0  0  0  0  0  0  0  0  0
   -8.0109   -1.5380  -20.4106 C   0  0  0  0  0  0  0  0  0  0  0  0
   -7.3625   -0.3802  -20.3825 N   0  0  0  0  0  0  0  0  0  0  0  0
   -6.2378   -0.3203  -19.6521 C   0  0  0  0  0  0  0  0  0  0  0  0
  1  6  2  0
  2  1  1  0
  2  3  2  0
  3  4  1  0
  4  5  2  0
  6  5  1  0
M  END
>  <minimizedAffinity>  (12) 
-2.86903

>  <CNNscore>  (12) 
0.4818309844

>  <CNNaffinity>  (12) 
2.8551700115

>  <CNN_VS>  (12) 
1.3757094145

>  <CNNaffinity_variance>  (12) 
0.2126068175

$$$$
sars-lig-H_gnina_dock_sars-lig-H_34
     RDKit          3D

  6  6  0  0  0  0  0  0  0  0999 V2000
   -7.6488   -2.7027  -19.8182 C   0  0  0  0  0  0  0  0  0  0  0  0
   -6.5122   -2.6754  -18.9557 C   0  0  0  0  0  0  0  0  0  0  0  0
   -5.8050   -1.4456  -18.8273 C   0  0  0  0  0  0  0  0  0  0  0  0
   -6.2898   -0.3234  -19.5547 C   0  0  0  0  0  0  0  0  0  0  0  0
   -7.3467   -0.3544  -20.3569 N   0  0  0  0  0  0  0  0  0  0  0  0
   -8.0014   -1.5209  -20.4704 C   0  0  0  0  0  0  0  0  0  0  0  0
  1  6  2  0
  2  1  1  0
  2  3  2  0
  3  4  1  0
  4  5  2  0
  6  5  1  0
M  END
>  <minimizedAffinity>  (13) 
-2.88163

>  <CNNscore>  (13) 
0.4794751406

>  <CNNaffinity>  (13) 
2.8542590141

>  <CNN_VS>  (13) 
1.3685462475

>  <CNNaffinity_variance>  (13) 
0.2139319927

$$$$
sars-lig-H_gnina_dock_sars-lig-H_34
     RDKit          3D

  6  6  0  0  0  0  0  0  0  0999 V2000
   -7.6488   -2.7027  -19.8182 C   0  0  0  0  0  0  0  0  0  0  0  0
   -6.5122   -2.6754  -18.9557 C   0  0  0  0  0  0  0  0  0  0  0  0
   -5.8050   -1.4456  -18.8273 C   0  0  0  0  0  0  0  0  0  0  0  0
   -6.2898   -0.3234  -19.5547 C   0  0  0  0  0  0  0  0  0  0  0  0
   -7.3467   -0.3544  -20.3569 N   0  0  0  0  0  0  0  0  0  0  0  0
   -8.0014   -1.5209  -20.4704 C   0  0  0  0  0  0  0  0  0  0  0  0
  1  6  2  0
  2  1  1  0
  2  3  2  0
  3  4  1  0
  4  5  2  0
  6  5  1  0
M  END
>  <minimizedAffinity>  (14) 
-2.88163

>  <CNNscore>  (14) 
0.4794751406

>  <CNNaffinity>  (14) 
2.8542590141

>  <CNN_VS>  (14) 
1.3685462475

>  <CNNaffinity_variance>  (14) 
0.2139319927

$$$$
sars-lig-H_gnina_dock_sars-lig-H_34
     RDKit          3D

  6  6  0  0  0  0  0  0  0  0999 V2000
   -7.6488   -2.7027  -19.8182 C   0  0  0  0  0  0  0  0  0  0  0  0
   -6.5122   -2.6754  -18.9557 C   0  0  0  0  0  0  0  0  0  0  0  0
   -5.8050   -1.4456  -18.8273 C   0  0  0  0  0  0  0  0  0  0  0  0
   -6.2898   -0.3234  -19.5547 C   0  0  0  0  0  0  0  0  0  0  0  0
   -7.3467   -0.3544  -20.3569 N   0  0  0  0  0  0  0  0  0  0  0  0
   -8.0014   -1.5209  -20.4704 C   0  0  0  0  0  0  0  0  0  0  0  0
  1  6  2  0
  2  1  1  0
  2  3  2  0
  3  4  1  0
  4  5  2  0
  6  5  1  0
M  END
>  <minimizedAffinity>  (15) 
-2.88163

>  <CNNscore>  (15) 
0.4794751406

>  <CNNaffinity>  (15) 
2.8542590141

>  <CNN_VS>  (15) 
1.3685462475

>  <CNNaffinity_variance>  (15) 
0.2139319927

$$$$
sars-lig-H_gnina_dock_sars-lig-H_34
     RDKit          3D

  6  6  0  0  0  0  0  0  0  0999 V2000
   -7.6488   -2.7027  -19.8182 C   0  0  0  0  0  0  0  0  0  0  0  0
   -6.5122   -2.6754  -18.9557 C   0  0  0  0  0  0  0  0  0  0  0  0
   -5.8050   -1.4456  -18.8273 C   0  0  0  0  0  0  0  0  0  0  0  0
   -6.2898   -0.3234  -19.5547 C   0  0  0  0  0  0  0  0  0  0  0  0
   -7.3467   -0.3544  -20.3569 N   0  0  0  0  0  0  0  0  0  0  0  0
   -8.0014   -1.5209  -20.4704 C   0  0  0  0  0  0  0  0  0  0  0  0
  1  6  2  0
  2  1  1  0
  2  3  2  0
  3  4  1  0
  4  5  2  0
  6  5  1  0
M  END
>  <minimizedAffinity>  (16) 
-2.88163

>  <CNNscore>  (16) 
0.4794751406

>  <CNNaffinity>  (16) 
2.8542590141

>  <CNN_VS>  (16) 
1.3685462475

>  <CNNaffinity_variance>  (16) 
0.2139319927

$$$$
sars-lig-H_gnina_dock_sars-lig-H_32
     RDKit          3D

  6  6  0  0  0  0  0  0  0  0999 V2000
   -7.2910   -0.5876  -20.6564 C   0  0  0  0  0  0  0  0  0  0  0  0
   -6.1675   -0.4125  -19.7941 C   0  0  0  0  0  0  0  0  0  0  0  0
   -5.8412   -1.4755  -18.9039 C   0  0  0  0  0  0  0  0  0  0  0  0
   -6.6474   -2.6467  -18.9466 C   0  0  0  0  0  0  0  0  0  0  0  0
   -7.6925   -2.8040  -19.7497 N   0  0  0  0  0  0  0  0  0  0  0  0
   -7.9898   -1.7927  -20.5809 C   0  0  0  0  0  0  0  0  0  0  0  0
  1  6  2  0
  2  1  1  0
  2  3  2  0
  3  4  1  0
  4  5  2  0
  6  5  1  0
M  END
>  <minimizedAffinity>  (17) 
-2.75490

>  <CNNscore>  (17) 
0.4840920568

>  <CNNaffinity>  (17) 
2.8706257343

>  <CNN_VS>  (17) 
1.3896471262

>  <CNNaffinity_variance>  (17) 
0.1581437141

$$$$
sars-lig-H_gnina_dock_sars-lig-H_33
     RDKit          3D

  6  6  0  0  0  0  0  0  0  0999 V2000
   -5.7063   -1.3780  -18.9136 C   0  0  0  0  0  0  0  0  0  0  0  0
   -6.4003   -2.6246  -18.9390 C   0  0  0  0  0  0  0  0  0  0  0  0
   -7.5973   -2.7031  -19.7072 C   0  0  0  0  0  0  0  0  0  0  0  0
   -8.0109   -1.5380  -20.4106 C   0  0  0  0  0  0  0  0  0  0  0  0
   -7.3625   -0.3802  -20.3825 N   0  0  0  0  0  0  0  0  0  0  0  0
   -6.2378   -0.3203  -19.6521 C   0  0  0  0  0  0  0  0  0  0  0  0
  1  6  2  0
  2  1  1  0
  2  3  2  0
  3  4  1  0
  4  5  2  0
  6  5  1  0
M  END
>  <minimizedAffinity>  (18) 
-2.86903

>  <CNNscore>  (18) 
0.4818309844

>  <CNNaffinity>  (18) 
2.8551700115

>  <CNN_VS>  (18) 
1.3757094145

>  <CNNaffinity_variance>  (18) 
0.2126068175

$$$$
sars-lig-H_gnina_dock_sars-lig-H_32
     RDKit          3D

  6  6  0  0  0  0  0  0  0  0999 V2000
   -7.2910   -0.5876  -20.6564 C   0  0  0  0  0  0  0  0  0  0  0  0
   -6.1675   -0.4125  -19.7941 C   0  0  0  0  0  0  0  0  0  0  0  0
   -5.8412   -1.4755  -18.9039 C   0  0  0  0  0  0  0  0  0  0  0  0
   -6.6474   -2.6467  -18.9466 C   0  0  0  0  0  0  0  0  0  0  0  0
   -7.6925   -2.8040  -19.7497 N   0  0  0  0  0  0  0  0  0  0  0  0
   -7.9898   -1.7927  -20.5809 C   0  0  0  0  0  0  0  0  0  0  0  0
  1  6  2  0
  2  1  1  0
  2  3  2  0
  3  4  1  0
  4  5  2  0
  6  5  1  0
M  END
>  <minimizedAffinity>  (19) 
-2.75490

>  <CNNscore>  (19) 
0.4840920568

>  <CNNaffinity>  (19) 
2.8706257343

>  <CNN_VS>  (19) 
1.3896471262

>  <CNNaffinity_variance>  (19) 
0.1581437141

$$$$
sars-lig-H_gnina_dock_sars-lig-H_33
     RDKit          3D

  6  6  0  0  0  0  0  0  0  0999 V2000
   -5.7063   -1.3780  -18.9136 C   0  0  0  0  0  0  0  0  0  0  0  0
   -6.4003   -2.6246  -18.9390 C   0  0  0  0  0  0  0  0  0  0  0  0
   -7.5973   -2.7031  -19.7072 C   0  0  0  0  0  0  0  0  0  0  0  0
   -8.0109   -1.5380  -20.4106 C   0  0  0  0  0  0  0  0  0  0  0  0
   -7.3625   -0.3802  -20.3825 N   0  0  0  0  0  0  0  0  0  0  0  0
   -6.2378   -0.3203  -19.6521 C   0  0  0  0  0  0  0  0  0  0  0  0
  1  6  2  0
  2  1  1  0
  2  3  2  0
  3  4  1  0
  4  5  2  0
  6  5  1  0
M  END
>  <minimizedAffinity>  (20) 
-2.86903

>  <CNNscore>  (20) 
0.4818309844

>  <CNNaffinity>  (20) 
2.8551700115

>  <CNN_VS>  (20) 
1.3757094145

>  <CNNaffinity_variance>  (20) 
0.2126068175

$$$$
sars-lig-H_gnina_dock_sars-lig-H_34
     RDKit          3D

  6  6  0  0  0  0  0  0  0  0999 V2000
   -7.6488   -2.7027  -19.8182 C   0  0  0  0  0  0  0  0  0  0  0  0
   -6.5122   -2.6754  -18.9557 C   0  0  0  0  0  0  0  0  0  0  0  0
   -5.8050   -1.4456  -18.8273 C   0  0  0  0  0  0  0  0  0  0  0  0
   -6.2898   -0.3234  -19.5547 C   0  0  0  0  0  0  0  0  0  0  0  0
   -7.3467   -0.3544  -20.3569 N   0  0  0  0  0  0  0  0  0  0  0  0
   -8.0014   -1.5209  -20.4704 C   0  0  0  0  0  0  0  0  0  0  0  0
  1  6  2  0
  2  1  1  0
  2  3  2  0
  3  4  1  0
  4  5  2  0
  6  5  1  0
M  END
>  <minimizedAffinity>  (21) 
-2.88163

>  <CNNscore>  (21) 
0.4794751406

>  <CNNaffinity>  (21) 
2.8542590141

>  <CNN_VS>  (21) 
1.3685462475

>  <CNNaffinity_variance>  (21) 
0.2139319927

$$$$
sars-lig-H_gnina_dock_sars-lig-H_32
     RDKit          3D

  6  6  0  0  0  0  0  0  0  0999 V2000
   -7.2910   -0.5876  -20.6564 C   0  0  0  0  0  0  0  0  0  0  0  0
   -6.1675   -0.4125  -19.7941 C   0  0  0  0  0  0  0  0  0  0  0  0
   -5.8412   -1.4755  -18.9039 C   0  0  0  0  0  0  0  0  0  0  0  0
   -6.6474   -2.6467  -18.9466 C   0  0  0  0  0  0  0  0  0  0  0  0
   -7.6925   -2.8040  -19.7497 N   0  0  0  0  0  0  0  0  0  0  0  0
   -7.9898   -1.7927  -20.5809 C   0  0  0  0  0  0  0  0  0  0  0  0
  1  6  2  0
  2  1  1  0
  2  3  2  0
  3  4  1  0
  4  5  2  0
  6  5  1  0
M  END
>  <minimizedAffinity>  (22) 
-2.75490

>  <CNNscore>  (22) 
0.4840920568

>  <CNNaffinity>  (22) 
2.8706257343

>  <CNN_VS>  (22) 
1.3896471262

>  <CNNaffinity_variance>  (22) 
0.1581437141

$$$$
sars-lig-H_gnina_dock_sars-lig-H_33
     RDKit          3D

  6  6  0  0  0  0  0  0  0  0999 V2000
   -5.7063   -1.3780  -18.9136 C   0  0  0  0  0  0  0  0  0  0  0  0
   -6.4003   -2.6246  -18.9390 C   0  0  0  0  0  0  0  0  0  0  0  0
   -7.5973   -2.7031  -19.7072 C   0  0  0  0  0  0  0  0  0  0  0  0
   -8.0109   -1.5380  -20.4106 C   0  0  0  0  0  0  0  0  0  0  0  0
   -7.3625   -0.3802  -20.3825 N   0  0  0  0  0  0  0  0  0  0  0  0
   -6.2378   -0.3203  -19.6521 C   0  0  0  0  0  0  0  0  0  0  0  0
  1  6  2  0
  2  1  1  0
  2  3  2  0
  3  4  1  0
  4  5  2  0
  6  5  1  0
M  END
>  <minimizedAffinity>  (23) 
-2.86903

>  <CNNscore>  (23) 
0.4818309844

>  <CNNaffinity>  (23) 
2.8551700115

>  <CNN_VS>  (23) 
1.3757094145

>  <CNNaffinity_variance>  (23) 
0.2126068175

$$$$
sars-lig-H_gnina_dock_sars-lig-H_33
     RDKit          3D

  6  6  0  0  0  0  0  0  0  0999 V2000
   -5.7063   -1.3780  -18.9136 C   0  0  0  0  0  0  0  0  0  0  0  0
   -6.4003   -2.6246  -18.9390 C   0  0  0  0  0  0  0  0  0  0  0  0
   -7.5973   -2.7031  -19.7072 C   0  0  0  0  0  0  0  0  0  0  0  0
   -8.0109   -1.5380  -20.4106 C   0  0  0  0  0  0  0  0  0  0  0  0
   -7.3625   -0.3802  -20.3825 N   0  0  0  0  0  0  0  0  0  0  0  0
   -6.2378   -0.3203  -19.6521 C   0  0  0  0  0  0  0  0  0  0  0  0
  1  6  2  0
  2  1  1  0
  2  3  2  0
  3  4  1  0
  4  5  2  0
  6  5  1  0
M  END
>  <minimizedAffinity>  (24) 
-2.86903

>  <CNNscore>  (24) 
0.4818309844

>  <CNNaffinity>  (24) 
2.8551700115

>  <CNN_VS>  (24) 
1.3757094145

>  <CNNaffinity_variance>  (24) 
0.2126068175

$$$$
sars-lig-H_gnina_dock_sars-lig-H_33
     RDKit          3D

  6  6  0  0  0  0  0  0  0  0999 V2000
   -5.7063   -1.3780  -18.9136 C   0  0  0  0  0  0  0  0  0  0  0  0
   -6.4003   -2.6246  -18.9390 C   0  0  0  0  0  0  0  0  0  0  0  0
   -7.5973   -2.7031  -19.7072 C   0  0  0  0  0  0  0  0  0  0  0  0
   -8.0109   -1.5380  -20.4106 C   0  0  0  0  0  0  0  0  0  0  0  0
   -7.3625   -0.3802  -20.3825 N   0  0  0  0  0  0  0  0  0  0  0  0
   -6.2378   -0.3203  -19.6521 C   0  0  0  0  0  0  0  0  0  0  0  0
  1  6  2  0
  2  1  1  0
  2  3  2  0
  3  4  1  0
  4  5  2  0
  6  5  1  0
M  END
>  <minimizedAffinity>  (25) 
-2.86903

>  <CNNscore>  (25) 
0.4818309844

>  <CNNaffinity>  (25) 
2.8551700115

>  <CNN_VS>  (25) 
1.3757094145

>  <CNNaffinity_variance>  (25) 
0.2126068175

$$$$
sars-lig-H_gnina_dock_sars-lig-H_34
     RDKit          3D

  6  6  0  0  0  0  0  0  0  0999 V2000
   -7.6488   -2.7027  -19.8182 C   0  0  0  0  0  0  0  0  0  0  0  0
   -6.5122   -2.6754  -18.9557 C   0  0  0  0  0  0  0  0  0  0  0  0
   -5.8050   -1.4456  -18.8273 C   0  0  0  0  0  0  0  0  0  0  0  0
   -6.2898   -0.3234  -19.5547 C   0  0  0  0  0  0  0  0  0  0  0  0
   -7.3467   -0.3544  -20.3569 N   0  0  0  0  0  0  0  0  0  0  0  0
   -8.0014   -1.5209  -20.4704 C   0  0  0  0  0  0  0  0  0  0  0  0
  1  6  2  0
  2  1  1  0
  2  3  2  0
  3  4  1  0
  4  5  2  0
  6  5  1  0
M  END
>  <minimizedAffinity>  (26) 
-2.88163

>  <CNNscore>  (26) 
0.4794751406

>  <CNNaffinity>  (26) 
2.8542590141

>  <CNN_VS>  (26) 
1.3685462475

>  <CNNaffinity_variance>  (26) 
0.2139319927

$$$$
sars-lig-H_gnina_dock_sars-lig-H_32
     RDKit          3D

  6  6  0  0  0  0  0  0  0  0999 V2000
   -7.2910   -0.5876  -20.6564 C   0  0  0  0  0  0  0  0  0  0  0  0
   -6.1675   -0.4125  -19.7941 C   0  0  0  0  0  0  0  0  0  0  0  0
   -5.8412   -1.4755  -18.9039 C   0  0  0  0  0  0  0  0  0  0  0  0
   -6.6474   -2.6467  -18.9466 C   0  0  0  0  0  0  0  0  0  0  0  0
   -7.6925   -2.8040  -19.7497 N   0  0  0  0  0  0  0  0  0  0  0  0
   -7.9898   -1.7927  -20.5809 C   0  0  0  0  0  0  0  0  0  0  0  0
  1  6  2  0
  2  1  1  0
  2  3  2  0
  3  4  1  0
  4  5  2  0
  6  5  1  0
M  END
>  <minimizedAffinity>  (27) 
-2.75490

>  <CNNscore>  (27) 
0.4840920568

>  <CNNaffinity>  (27) 
2.8706257343

>  <CNN_VS>  (27) 
1.3896471262

>  <CNNaffinity_variance>  (27) 
0.1581437141

$$$$
sars-lig-H_gnina_dock_sars-lig-H_32
     RDKit          3D

  6  6  0  0  0  0  0  0  0  0999 V2000
   -7.2910   -0.5876  -20.6564 C   0  0  0  0  0  0  0  0  0  0  0  0
   -6.1675   -0.4125  -19.7941 C   0  0  0  0  0  0  0  0  0  0  0  0
   -5.8412   -1.4755  -18.9039 C   0  0  0  0  0  0  0  0  0  0  0  0
   -6.6474   -2.6467  -18.9466 C   0  0  0  0  0  0  0  0  0  0  0  0
   -7.6925   -2.8040  -19.7497 N   0  0  0  0  0  0  0  0  0  0  0  0
   -7.9898   -1.7927  -20.5809 C   0  0  0  0  0  0  0  0  0  0  0  0
  1  6  2  0
  2  1  1  0
  2  3  2  0
  3  4  1  0
  4  5  2  0
  6  5  1  0
M  END
>  <minimizedAffinity>  (28) 
-2.75490

>  <CNNscore>  (28) 
0.4840920568

>  <CNNaffinity>  (28) 
2.8706257343

>  <CNN_VS>  (28) 
1.3896471262

>  <CNNaffinity_variance>  (28) 
0.1581437141

$$$$
sars-lig-H_gnina_dock_sars-lig-H_32
     RDKit          3D

  6  6  0  0  0  0  0  0  0  0999 V2000
   -7.2910   -0.5876  -20.6564 C   0  0  0  0  0  0  0  0  0  0  0  0
   -6.1675   -0.4125  -19.7941 C   0  0  0  0  0  0  0  0  0  0  0  0
   -5.8412   -1.4755  -18.9039 C   0  0  0  0  0  0  0  0  0  0  0  0
   -6.6474   -2.6467  -18.9466 C   0  0  0  0  0  0  0  0  0  0  0  0
   -7.6925   -2.8040  -19.7497 N   0  0  0  0  0  0  0  0  0  0  0  0
   -7.9898   -1.7927  -20.5809 C   0  0  0  0  0  0  0  0  0  0  0  0
  1  6  2  0
  2  1  1  0
  2  3  2  0
  3  4  1  0
  4  5  2  0
  6  5  1  0
M  END
>  <minimizedAffinity>  (29) 
-2.75490

>  <CNNscore>  (29) 
0.4840920568

>  <CNNaffinity>  (29) 
2.8706257343

>  <CNN_VS>  (29) 
1.3896471262

>  <CNNaffinity_variance>  (29) 
0.1581437141

$$$$
sars-lig-H_gnina_dock_sars-lig-H_29
     RDKit          3D

  6  6  0  0  0  0  0  0  0  0999 V2000
   -5.7089   -1.3997  -18.9751 C   0  0  0  0  0  0  0  0  0  0  0  0
   -6.1220   -0.3672  -19.8693 C   0  0  0  0  0  0  0  0  0  0  0  0
   -7.2891   -0.5950  -20.6535 C   0  0  0  0  0  0  0  0  0  0  0  0
   -7.9735   -1.8298  -20.4798 C   0  0  0  0  0  0  0  0  0  0  0  0
   -7.5843   -2.7878  -19.6477 N   0  0  0  0  0  0  0  0  0  0  0  0
   -6.4811   -2.5602  -18.9174 C   0  0  0  0  0  0  0  0  0  0  0  0
  1  6  2  0
  2  1  1  0
  2  3  2  0
  3  4  1  0
  4  5  2  0
  6  5  1  0
M  END
>  <minimizedAffinity>  (30) 
-2.72510

>  <CNNscore>  (30) 
0.4893873632

>  <CNNaffinity>  (30) 
2.8734984398

>  <CNN_VS>  (30) 
1.4062538147

>  <CNNaffinity_variance>  (30) 
0.1517510861

$$$$
sars-lig-H_gnina_dock_sars-lig-H_32
     RDKit          3D

  6  6  0  0  0  0  0  0  0  0999 V2000
   -7.2910   -0.5876  -20.6564 C   0  0  0  0  0  0  0  0  0  0  0  0
   -6.1675   -0.4125  -19.7941 C   0  0  0  0  0  0  0  0  0  0  0  0
   -5.8412   -1.4755  -18.9039 C   0  0  0  0  0  0  0  0  0  0  0  0
   -6.6474   -2.6467  -18.9466 C   0  0  0  0  0  0  0  0  0  0  0  0
   -7.6925   -2.8040  -19.7497 N   0  0  0  0  0  0  0  0  0  0  0  0
   -7.9898   -1.7927  -20.5809 C   0  0  0  0  0  0  0  0  0  0  0  0
  1  6  2  0
  2  1  1  0
  2  3  2  0
  3  4  1  0
  4  5  2  0
  6  5  1  0
M  END
>  <minimizedAffinity>  (31) 
-2.75490

>  <CNNscore>  (31) 
0.4840920568

>  <CNNaffinity>  (31) 
2.8706257343

>  <CNN_VS>  (31) 
1.3896471262

>  <CNNaffinity_variance>  (31) 
0.1581437141

$$$$
sars-lig-H_gnina_dock_sars-lig-H_32
     RDKit          3D

  6  6  0  0  0  0  0  0  0  0999 V2000
   -7.2910   -0.5876  -20.6564 C   0  0  0  0  0  0  0  0  0  0  0  0
   -6.1675   -0.4125  -19.7941 C   0  0  0  0  0  0  0  0  0  0  0  0
   -5.8412   -1.4755  -18.9039 C   0  0  0  0  0  0  0  0  0  0  0  0
   -6.6474   -2.6467  -18.9466 C   0  0  0  0  0  0  0  0  0  0  0  0
   -7.6925   -2.8040  -19.7497 N   0  0  0  0  0  0  0  0  0  0  0  0
   -7.9898   -1.7927  -20.5809 C   0  0  0  0  0  0  0  0  0  0  0  0
  1  6  2  0
  2  1  1  0
  2  3  2  0
  3  4  1  0
  4  5  2  0
  6  5  1  0
M  END
>  <minimizedAffinity>  (32) 
-2.75490

>  <CNNscore>  (32) 
0.4840920568

>  <CNNaffinity>  (32) 
2.8706257343

>  <CNN_VS>  (32) 
1.3896471262

>  <CNNaffinity_variance>  (32) 
0.1581437141

$$$$
sars-lig-H_gnina_dock_sars-lig-H_29
     RDKit          3D

  6  6  0  0  0  0  0  0  0  0999 V2000
   -5.7089   -1.3997  -18.9751 C   0  0  0  0  0  0  0  0  0  0  0  0
   -6.1220   -0.3672  -19.8693 C   0  0  0  0  0  0  0  0  0  0  0  0
   -7.2891   -0.5950  -20.6535 C   0  0  0  0  0  0  0  0  0  0  0  0
   -7.9735   -1.8298  -20.4798 C   0  0  0  0  0  0  0  0  0  0  0  0
   -7.5843   -2.7878  -19.6477 N   0  0  0  0  0  0  0  0  0  0  0  0
   -6.4811   -2.5602  -18.9174 C   0  0  0  0  0  0  0  0  0  0  0  0
  1  6  2  0
  2  1  1  0
  2  3  2  0
  3  4  1  0
  4  5  2  0
  6  5  1  0
M  END
>  <minimizedAffinity>  (33) 
-2.72510

>  <CNNscore>  (33) 
0.4893873632

>  <CNNaffinity>  (33) 
2.8734984398

>  <CNN_VS>  (33) 
1.4062538147

>  <CNNaffinity_variance>  (33) 
0.1517510861

$$$$
sars-lig-H_gnina_dock_sars-lig-H_33
     RDKit          3D

  6  6  0  0  0  0  0  0  0  0999 V2000
   -5.7063   -1.3780  -18.9136 C   0  0  0  0  0  0  0  0  0  0  0  0
   -6.4003   -2.6246  -18.9390 C   0  0  0  0  0  0  0  0  0  0  0  0
   -7.5973   -2.7031  -19.7072 C   0  0  0  0  0  0  0  0  0  0  0  0
   -8.0109   -1.5380  -20.4106 C   0  0  0  0  0  0  0  0  0  0  0  0
   -7.3625   -0.3802  -20.3825 N   0  0  0  0  0  0  0  0  0  0  0  0
   -6.2378   -0.3203  -19.6521 C   0  0  0  0  0  0  0  0  0  0  0  0
  1  6  2  0
  2  1  1  0
  2  3  2  0
  3  4  1  0
  4  5  2  0
  6  5  1  0
M  END
>  <minimizedAffinity>  (34) 
-2.86903

>  <CNNscore>  (34) 
0.4818309844

>  <CNNaffinity>  (34) 
2.8551700115

>  <CNN_VS>  (34) 
1.3757094145

>  <CNNaffinity_variance>  (34) 
0.2126068175

$$$$
sars-lig-H_gnina_dock_sars-lig-H_29
     RDKit          3D

  6  6  0  0  0  0  0  0  0  0999 V2000
   -5.7089   -1.3997  -18.9751 C   0  0  0  0  0  0  0  0  0  0  0  0
   -6.1220   -0.3672  -19.8693 C   0  0  0  0  0  0  0  0  0  0  0  0
   -7.2891   -0.5950  -20.6535 C   0  0  0  0  0  0  0  0  0  0  0  0
   -7.9735   -1.8298  -20.4798 C   0  0  0  0  0  0  0  0  0  0  0  0
   -7.5843   -2.7878  -19.6477 N   0  0  0  0  0  0  0  0  0  0  0  0
   -6.4811   -2.5602  -18.9174 C   0  0  0  0  0  0  0  0  0  0  0  0
  1  6  2  0
  2  1  1  0
  2  3  2  0
  3  4  1  0
  4  5  2  0
  6  5  1  0
M  END
>  <minimizedAffinity>  (35) 
-2.72510

>  <CNNscore>  (35) 
0.4893873632

>  <CNNaffinity>  (35) 
2.8734984398

>  <CNN_VS>  (35) 
1.4062538147

>  <CNNaffinity_variance>  (35) 
0.1517510861

$$$$
sars-lig-H_gnina_dock_sars-lig-H_33
     RDKit          3D

  6  6  0  0  0  0  0  0  0  0999 V2000
   -5.7063   -1.3780  -18.9136 C   0  0  0  0  0  0  0  0  0  0  0  0
   -6.4003   -2.6246  -18.9390 C   0  0  0  0  0  0  0  0  0  0  0  0
   -7.5973   -2.7031  -19.7072 C   0  0  0  0  0  0  0  0  0  0  0  0
   -8.0109   -1.5380  -20.4106 C   0  0  0  0  0  0  0  0  0  0  0  0
   -7.3625   -0.3802  -20.3825 N   0  0  0  0  0  0  0  0  0  0  0  0
   -6.2378   -0.3203  -19.6521 C   0  0  0  0  0  0  0  0  0  0  0  0
  1  6  2  0
  2  1  1  0
  2  3  2  0
  3  4  1  0
  4  5  2  0
  6  5  1  0
M  END
>  <minimizedAffinity>  (36) 
-2.86903

>  <CNNscore>  (36) 
0.4818309844

>  <CNNaffinity>  (36) 
2.8551700115

>  <CNN_VS>  (36) 
1.3757094145

>  <CNNaffinity_variance>  (36) 
0.2126068175

$$$$
sars-lig-H_gnina_dock_sars-lig-H_0
     RDKit          3D

  6  6  0  0  0  0  0  0  0  0999 V2000
  -10.7603   -0.1579  -23.5803 C   0  0  0  0  0  0  0  0  0  0  0  0
  -11.6279    0.9113  -23.9549 C   0  0  0  0  0  0  0  0  0  0  0  0
  -13.0319    0.6765  -23.9045 C   0  0  0  0  0  0  0  0  0  0  0  0
  -13.4745   -0.6029  -23.4678 C   0  0  0  0  0  0  0  0  0  0  0  0
  -12.6633   -1.5948  -23.1218 N   0  0  0  0  0  0  0  0  0  0  0  0
  -11.3427   -1.3599  -23.1772 C   0  0  0  0  0  0  0  0  0  0  0  0
  1  6  2  0
  2  1  1  0
  2  3  2  0
  3  4  1  0
  4  5  2  0
  6  5  1  0
M  END
>  <minimizedAffinity>  (37) 
-2.38915

>  <CNNscore>  (37) 
0.7196004987

>  <CNNaffinity>  (37) 
2.8846600056

>  <CNN_VS>  (37) 
2.0758028030

>  <CNNaffinity_variance>  (37) 
0.2739871144

$$$$
sars-lig-H_gnina_dock_sars-lig-H_33
     RDKit          3D

  6  6  0  0  0  0  0  0  0  0999 V2000
   -5.7063   -1.3780  -18.9136 C   0  0  0  0  0  0  0  0  0  0  0  0
   -6.4003   -2.6246  -18.9390 C   0  0  0  0  0  0  0  0  0  0  0  0
   -7.5973   -2.7031  -19.7072 C   0  0  0  0  0  0  0  0  0  0  0  0
   -8.0109   -1.5380  -20.4106 C   0  0  0  0  0  0  0  0  0  0  0  0
   -7.3625   -0.3802  -20.3825 N   0  0  0  0  0  0  0  0  0  0  0  0
   -6.2378   -0.3203  -19.6521 C   0  0  0  0  0  0  0  0  0  0  0  0
  1  6  2  0
  2  1  1  0
  2  3  2  0
  3  4  1  0
  4  5  2  0
  6  5  1  0
M  END
>  <minimizedAffinity>  (38) 
-2.86903

>  <CNNscore>  (38) 
0.4818309844

>  <CNNaffinity>  (38) 
2.8551700115

>  <CNN_VS>  (38) 
1.3757094145

>  <CNNaffinity_variance>  (38) 
0.2126068175

$$$$
sars-lig-H_gnina_dock_sars-lig-H_32
     RDKit          3D

  6  6  0  0  0  0  0  0  0  0999 V2000
   -7.2910   -0.5876  -20.6564 C   0  0  0  0  0  0  0  0  0  0  0  0
   -6.1675   -0.4125  -19.7941 C   0  0  0  0  0  0  0  0  0  0  0  0
   -5.8412   -1.4755  -18.9039 C   0  0  0  0  0  0  0  0  0  0  0  0
   -6.6474   -2.6467  -18.9466 C   0  0  0  0  0  0  0  0  0  0  0  0
   -7.6925   -2.8040  -19.7497 N   0  0  0  0  0  0  0  0  0  0  0  0
   -7.9898   -1.7927  -20.5809 C   0  0  0  0  0  0  0  0  0  0  0  0
  1  6  2  0
  2  1  1  0
  2  3  2  0
  3  4  1  0
  4  5  2  0
  6  5  1  0
M  END
>  <minimizedAffinity>  (39) 
-2.75490

>  <CNNscore>  (39) 
0.4840920568

>  <CNNaffinity>  (39) 
2.8706257343

>  <CNN_VS>  (39) 
1.3896471262

>  <CNNaffinity_variance>  (39) 
0.1581437141

$$$$
sars-lig-H_gnina_dock_sars-lig-H_29
     RDKit          3D

  6  6  0  0  0  0  0  0  0  0999 V2000
   -5.7089   -1.3997  -18.9751 C   0  0  0  0  0  0  0  0  0  0  0  0
   -6.1220   -0.3672  -19.8693 C   0  0  0  0  0  0  0  0  0  0  0  0
   -7.2891   -0.5950  -20.6535 C   0  0  0  0  0  0  0  0  0  0  0  0
   -7.9735   -1.8298  -20.4798 C   0  0  0  0  0  0  0  0  0  0  0  0
   -7.5843   -2.7878  -19.6477 N   0  0  0  0  0  0  0  0  0  0  0  0
   -6.4811   -2.5602  -18.9174 C   0  0  0  0  0  0  0  0  0  0  0  0
  1  6  2  0
  2  1  1  0
  2  3  2  0
  3  4  1  0
  4  5  2  0
  6  5  1  0
M  END
>  <minimizedAffinity>  (40) 
-2.72510

>  <CNNscore>  (40) 
0.4893873632

>  <CNNaffinity>  (40) 
2.8734984398

>  <CNN_VS>  (40) 
1.4062538147

>  <CNNaffinity_variance>  (40) 
0.1517510861

$$$$
