new-core.pdb


  6  6  0  0  0  0  0  0  0  0999 V2000
  -10.7603   -0.1579  -23.5803 C   0  0  0  0  0  0  0  0  0  0  0  0
  -11.6279    0.9113  -23.9549 C   0  0  0  0  0  0  0  0  0  0  0  0
  -13.0319    0.6765  -23.9045 C   0  0  0  0  0  0  0  0  0  0  0  0
  -13.4745   -0.6029  -23.4678 C   0  0  0  0  0  0  0  0  0  0  0  0
  -12.6633   -1.5948  -23.1218 N   0  0  0  0  0  0  0  0  0  0  0  0
  -11.3427   -1.3599  -23.1772 C   0  0  0  0  0  0  0  0  0  0  0  0
  1  6  1  0
  2  1  2  0
  2  3  1  0
  3  4  2  0
  4  5  1  0
  6  5  2  0
M  END
> <minimizedAffinity>
-2.38915

> <CNNscore>
0.7196004987

> <CNNaffinity>
2.8846600056

> <CNN_VS>
2.0758028030

> <CNNaffinity_variance>
0.2739871144

$$$$
new-core.pdb


  6  6  0  0  0  0  0  0  0  0999 V2000
  -10.8363   -0.7607  -24.4127 C   0  0  0  0  0  0  0  0  0  0  0  0
  -11.1197   -1.4099  -23.1740 C   0  0  0  0  0  0  0  0  0  0  0  0
  -12.4840   -1.6667  -22.8553 C   0  0  0  0  0  0  0  0  0  0  0  0
  -13.4708   -1.2734  -23.8013 C   0  0  0  0  0  0  0  0  0  0  0  0
  -13.2021   -0.6682  -24.9517 N   0  0  0  0  0  0  0  0  0  0  0  0
  -11.9122   -0.4301  -25.2371 C   0  0  0  0  0  0  0  0  0  0  0  0
  1  6  1  0
  2  1  2  0
  2  3  1  0
  3  4  2  0
  4  5  1  0
  6  5  2  0
M  END
> <minimizedAffinity>
-2.44500

> <CNNscore>
0.7056155801

> <CNNaffinity>
2.8645474911

> <CNN_VS>
2.0212693214

> <CNNaffinity_variance>
0.2942554653

$$$$
new-core.pdb


  6  6  0  0  0  0  0  0  0  0999 V2000
  -11.6441    1.0047  -23.7295 C   0  0  0  0  0  0  0  0  0  0  0  0
  -13.0502    0.7723  -23.8024 C   0  0  0  0  0  0  0  0  0  0  0  0
  -13.5241   -0.5360  -23.4978 C   0  0  0  0  0  0  0  0  0  0  0  0
  -12.5649   -1.5181  -23.1252 C   0  0  0  0  0  0  0  0  0  0  0  0
  -11.2577   -1.2973  -23.0603 N   0  0  0  0  0  0  0  0  0  0  0  0
  -10.8255   -0.0604  -23.3529 C   0  0  0  0  0  0  0  0  0  0  0  0
  1  6  1  0
  2  1  2  0
  2  3  1  0
  3  4  2  0
  4  5  1  0
  6  5  2  0
M  END
> <minimizedAffinity>
-2.41722

> <CNNscore>
0.6875677705

> <CNNaffinity>
2.8259232044

> <CNN_VS>
1.9430136681

> <CNNaffinity_variance>
0.2499862462

$$$$
new-core.pdb


  6  6  0  0  0  0  0  0  0  0999 V2000
  -11.7954   -0.3916  -25.3144 C   0  0  0  0  0  0  0  0  0  0  0  0
  -12.8983   -0.6812  -24.4565 C   0  0  0  0  0  0  0  0  0  0  0  0
  -13.3301    0.3397  -23.5619 C   0  0  0  0  0  0  0  0  0  0  0  0
  -12.6432    1.5849  -23.5962 C   0  0  0  0  0  0  0  0  0  0  0  0
  -11.6167    1.8487  -24.3952 N   0  0  0  0  0  0  0  0  0  0  0  0
  -11.2190    0.8761  -25.2307 C   0  0  0  0  0  0  0  0  0  0  0  0
  1  6  1  0
  2  1  2  0
  2  3  1  0
  3  4  2  0
  4  5  1  0
  6  5  2  0
M  END
> <minimizedAffinity>
-2.53390

> <CNNscore>
0.6810040474

> <CNNaffinity>
2.7176833153

> <CNN_VS>
1.8507533073

> <CNNaffinity_variance>
0.2343432456

$$$$
new-core.pdb


  6  6  0  0  0  0  0  0  0  0999 V2000
  -11.9838    1.8704  -24.0076 C   0  0  0  0  0  0  0  0  0  0  0  0
  -11.3261    1.1037  -25.0155 C   0  0  0  0  0  0  0  0  0  0  0  0
  -11.7932   -0.2207  -25.2535 C   0  0  0  0  0  0  0  0  0  0  0  0
  -12.8947   -0.6836  -24.4817 C   0  0  0  0  0  0  0  0  0  0  0  0
  -13.5021    0.0331  -23.5440 N   0  0  0  0  0  0  0  0  0  0  0  0
  -13.0492    1.2783  -23.3288 C   0  0  0  0  0  0  0  0  0  0  0  0
  1  6  1  0
  2  1  2  0
  2  3  1  0
  3  4  2  0
  4  5  1  0
  6  5  2  0
M  END
> <minimizedAffinity>
-2.63459

> <CNNscore>
0.6786261797

> <CNNaffinity>
2.7795252800

> <CNN_VS>
1.8862586021

> <CNNaffinity_variance>
0.2563258111

$$$$
new-core.pdb


  6  6  0  0  0  0  0  0  0  0999 V2000
   -4.7815    0.2601  -19.5516 C   0  0  0  0  0  0  0  0  0  0  0  0
   -4.7965   -0.4233  -20.8042 C   0  0  0  0  0  0  0  0  0  0  0  0
   -5.2890   -1.7597  -20.8262 C   0  0  0  0  0  0  0  0  0  0  0  0
   -5.7483   -2.3168  -19.6006 C   0  0  0  0  0  0  0  0  0  0  0  0
   -5.7308   -1.6773  -18.4376 N   0  0  0  0  0  0  0  0  0  0  0  0
   -5.2612   -0.4197  -18.4318 C   0  0  0  0  0  0  0  0  0  0  0  0
  1  6  1  0
  2  1  2  0
  2  3  1  0
  3  4  2  0
  4  5  1  0
  6  5  2  0
M  END
> <minimizedAffinity>
-2.94527

> <CNNscore>
0.6770008206

> <CNNaffinity>
2.8937392235

> <CNN_VS>
1.9590638876

> <CNNaffinity_variance>
0.1426374614

$$$$
new-core.pdb


  6  6  0  0  0  0  0  0  0  0999 V2000
   -5.2767   -1.7912  -20.8525 C   0  0  0  0  0  0  0  0  0  0  0  0
   -4.8285   -0.4386  -20.7764 C   0  0  0  0  0  0  0  0  0  0  0  0
   -4.8771    0.2072  -19.5077 C   0  0  0  0  0  0  0  0  0  0  0  0
   -5.3535   -0.5456  -18.3989 C   0  0  0  0  0  0  0  0  0  0  0  0
   -5.7709   -1.8033  -18.4751 N   0  0  0  0  0  0  0  0  0  0  0  0
   -5.7221   -2.3979  -19.6777 C   0  0  0  0  0  0  0  0  0  0  0  0
  1  6  1  0
  2  1  2  0
  2  3  1  0
  3  4  2  0
  4  5  1  0
  6  5  2  0
M  END
> <minimizedAffinity>
-2.93628

> <CNNscore>
0.6718329787

> <CNNaffinity>
2.8961489201

> <CNN_VS>
1.9457283020

> <CNNaffinity_variance>
0.1422714889

$$$$
new-core.pdb


  6  6  0  0  0  0  0  0  0  0999 V2000
  -11.2337    1.3030  -24.9475 C   0  0  0  0  0  0  0  0  0  0  0  0
  -11.6027   -0.0251  -25.3163 C   0  0  0  0  0  0  0  0  0  0  0  0
  -12.6815   -0.6344  -24.6136 C   0  0  0  0  0  0  0  0  0  0  0  0
  -13.3291    0.1288  -23.6029 C   0  0  0  0  0  0  0  0  0  0  0  0
  -12.9810    1.3636  -23.2625 N   0  0  0  0  0  0  0  0  0  0  0  0
  -11.9607    1.9238  -23.9313 C   0  0  0  0  0  0  0  0  0  0  0  0
  1  6  1  0
  2  1  2  0
  2  3  1  0
  3  4  2  0
  4  5  1  0
  6  5  2  0
M  END
> <minimizedAffinity>
-2.53919

> <CNNscore>
0.6620151401

> <CNNaffinity>
2.7622284889

> <CNN_VS>
1.8286371231

> <CNNaffinity_variance>
0.2207130939

$$$$
new-core.pdb


  6  6  0  0  0  0  0  0  0  0999 V2000
  -11.6818   -0.1807  -25.3408 C   0  0  0  0  0  0  0  0  0  0  0  0
  -11.2224    1.1372  -25.0436 C   0  0  0  0  0  0  0  0  0  0  0  0
  -11.9172    1.8727  -24.0410 C   0  0  0  0  0  0  0  0  0  0  0  0
  -13.0119    1.2371  -23.3920 C   0  0  0  0  0  0  0  0  0  0  0  0
  -13.4363    0.0114  -23.6733 N   0  0  0  0  0  0  0  0  0  0  0  0
  -12.7737   -0.6685  -24.6223 C   0  0  0  0  0  0  0  0  0  0  0  0
  1  6  1  0
  2  1  2  0
  2  3  1  0
  3  4  2  0
  4  5  1  0
  6  5  2  0
M  END
> <minimizedAffinity>
-2.59626

> <CNNscore>
0.6574589610

> <CNNaffinity>
2.7539105415

> <CNN_VS>
1.8105831146

> <CNNaffinity_variance>
0.2548347414

$$$$
new-core.pdb


  6  6  0  0  0  0  0  0  0  0999 V2000
   -6.2922   -0.3138  -19.9313 C   0  0  0  0  0  0  0  0  0  0  0  0
   -7.4611   -0.9299  -20.4703 C   0  0  0  0  0  0  0  0  0  0  0  0
   -7.7983   -2.2340  -20.0071 C   0  0  0  0  0  0  0  0  0  0  0  0
   -6.9562   -2.8272  -19.0261 C   0  0  0  0  0  0  0  0  0  0  0  0
   -5.8690   -2.2504  -18.5290 N   0  0  0  0  0  0  0  0  0  0  0  0
   -5.5620   -1.0227  -18.9770 C   0  0  0  0  0  0  0  0  0  0  0  0
  1  6  1  0
  2  1  2  0
  2  3  1  0
  3  4  2  0
  4  5  1  0
  6  5  2  0
M  END
> <minimizedAffinity>
-2.99421

> <CNNscore>
0.6559029222

> <CNNaffinity>
3.0810379982

> <CNN_VS>
2.0208618641

> <CNNaffinity_variance>
0.1902771294

$$$$
new-core.pdb


  6  6  0  0  0  0  0  0  0  0999 V2000
  -13.1320    1.0490  -23.5237 C   0  0  0  0  0  0  0  0  0  0  0  0
  -13.1086   -0.2354  -24.1450 C   0  0  0  0  0  0  0  0  0  0  0  0
  -12.0940   -0.4870  -25.1127 C   0  0  0  0  0  0  0  0  0  0  0  0
  -11.1624    0.5537  -25.3819 C   0  0  0  0  0  0  0  0  0  0  0  0
  -11.1895    1.7475  -24.8023 N   0  0  0  0  0  0  0  0  0  0  0  0
  -12.1530    1.9711  -23.8947 C   0  0  0  0  0  0  0  0  0  0  0  0
  1  6  1  0
  2  1  2  0
  2  3  1  0
  3  4  2  0
  4  5  1  0
  6  5  2  0
M  END
> <minimizedAffinity>
-2.51383

> <CNNscore>
0.6528321505

> <CNNaffinity>
2.6741468906

> <CNN_VS>
1.7457690239

> <CNNaffinity_variance>
0.2371398509

$$$$
new-core.pdb


  6  6  0  0  0  0  0  0  0  0999 V2000
   -7.8024   -2.2970  -19.9789 C   0  0  0  0  0  0  0  0  0  0  0  0
   -7.5284   -1.0081  -20.5267 C   0  0  0  0  0  0  0  0  0  0  0  0
   -6.3755   -0.3172  -20.0552 C   0  0  0  0  0  0  0  0  0  0  0  0
   -5.5658   -0.9661  -19.0822 C   0  0  0  0  0  0  0  0  0  0  0  0
   -5.8259   -2.1646  -18.5746 N   0  0  0  0  0  0  0  0  0  0  0  0
   -6.9174   -2.8025  -19.0262 C   0  0  0  0  0  0  0  0  0  0  0  0
  1  6  1  0
  2  1  2  0
  2  3  1  0
  3  4  2  0
  4  5  1  0
  6  5  2  0
M  END
> <minimizedAffinity>
-2.99711

> <CNNscore>
0.6363412142

> <CNNaffinity>
3.0484235287

> <CNN_VS>
1.9398375750

> <CNNaffinity_variance>
0.1965121180

$$$$
new-core.pdb


  6  6  0  0  0  0  0  0  0  0999 V2000
  -11.1164    3.7284  -23.8784 C   0  0  0  0  0  0  0  0  0  0  0  0
  -11.7419    4.8920  -23.3387 C   0  0  0  0  0  0  0  0  0  0  0  0
  -12.7736    4.7051  -22.3746 C   0  0  0  0  0  0  0  0  0  0  0  0
  -13.0992    3.3713  -22.0025 C   0  0  0  0  0  0  0  0  0  0  0  0
  -12.5153    2.2921  -22.5087 N   0  0  0  0  0  0  0  0  0  0  0  0
  -11.5469    2.4836  -23.4184 C   0  0  0  0  0  0  0  0  0  0  0  0
  1  6  1  0
  2  1  2  0
  2  3  1  0
  3  4  2  0
  4  5  1  0
  6  5  2  0
M  END
> <minimizedAffinity>
-2.47453

> <CNNscore>
0.6293146014

> <CNNaffinity>
2.6432929039

> <CNN_VS>
1.6634628773

> <CNNaffinity_variance>
0.1927798390

$$$$
new-core.pdb


  6  6  0  0  0  0  0  0  0  0999 V2000
  -13.1043    1.0719  -23.5197 C   0  0  0  0  0  0  0  0  0  0  0  0
  -12.0727    1.9825  -23.8975 C   0  0  0  0  0  0  0  0  0  0  0  0
  -11.1336    1.5527  -24.8786 C   0  0  0  0  0  0  0  0  0  0  0  0
  -11.2979    0.2508  -25.4276 C   0  0  0  0  0  0  0  0  0  0  0  0
  -12.2586   -0.5931  -25.0715 N   0  0  0  0  0  0  0  0  0  0  0  0
  -13.1343   -0.1755  -24.1438 C   0  0  0  0  0  0  0  0  0  0  0  0
  1  6  1  0
  2  1  2  0
  2  3  1  0
  3  4  2  0
  4  5  1  0
  6  5  2  0
M  END
> <minimizedAffinity>
-2.48785

> <CNNscore>
0.6191981435

> <CNNaffinity>
2.6216902733

> <CNN_VS>
1.6233457327

> <CNNaffinity_variance>
0.2611778080

$$$$
new-core.pdb


  6  6  0  0  0  0  0  0  0  0999 V2000
  -11.1153    1.5831  -24.8581 C   0  0  0  0  0  0  0  0  0  0  0  0
  -12.0879    1.9093  -23.8661 C   0  0  0  0  0  0  0  0  0  0  0  0
  -13.0914    0.9409  -23.5758 C   0  0  0  0  0  0  0  0  0  0  0  0
  -13.0460   -0.2927  -24.2825 C   0  0  0  0  0  0  0  0  0  0  0  0
  -12.1399   -0.5907  -25.2055 N   0  0  0  0  0  0  0  0  0  0  0  0
  -11.2023    0.3327  -25.4707 C   0  0  0  0  0  0  0  0  0  0  0  0
  1  6  1  0
  2  1  2  0
  2  3  1  0
  3  4  2  0
  4  5  1  0
  6  5  2  0
M  END
> <minimizedAffinity>
-2.48145

> <CNNscore>
0.6164862514

> <CNNaffinity>
2.6112923622

> <CNN_VS>
1.6098258495

> <CNNaffinity_variance>
0.2534975708

$$$$
new-core.pdb


  6  6  0  0  0  0  0  0  0  0999 V2000
   -5.5661   -2.4942  -20.9033 C   0  0  0  0  0  0  0  0  0  0  0  0
   -6.8775   -2.0798  -21.2836 C   0  0  0  0  0  0  0  0  0  0  0  0
   -7.9173   -2.1952  -20.3168 C   0  0  0  0  0  0  0  0  0  0  0  0
   -7.5743   -2.7002  -19.0320 C   0  0  0  0  0  0  0  0  0  0  0  0
   -6.3530   -3.0858  -18.6837 N   0  0  0  0  0  0  0  0  0  0  0  0
   -5.3840   -2.9741  -19.6060 C   0  0  0  0  0  0  0  0  0  0  0  0
  1  6  1  0
  2  1  2  0
  2  3  1  0
  3  4  2  0
  4  5  1  0
  6  5  2  0
M  END
> <minimizedAffinity>
-3.08781

> <CNNscore>
0.6060103774

> <CNNaffinity>
3.0107910633

> <CNN_VS>
1.8245706558

> <CNNaffinity_variance>
0.1225597858

$$$$
new-core.pdb


  6  6  0  0  0  0  0  0  0  0999 V2000
   -4.5800   -0.1997  -20.8898 C   0  0  0  0  0  0  0  0  0  0  0  0
   -4.5486    0.3790  -19.5858 C   0  0  0  0  0  0  0  0  0  0  0  0
   -5.2333   -0.3031  -18.5394 C   0  0  0  0  0  0  0  0  0  0  0  0
   -5.8881   -1.5241  -18.8618 C   0  0  0  0  0  0  0  0  0  0  0  0
   -5.9157   -2.0575  -20.0769 N   0  0  0  0  0  0  0  0  0  0  0  0
   -5.2686   -1.4020  -21.0535 C   0  0  0  0  0  0  0  0  0  0  0  0
  1  6  1  0
  2  1  2  0
  2  3  1  0
  3  4  2  0
  4  5  1  0
  6  5  2  0
M  END
> <minimizedAffinity>
-2.73497

> <CNNscore>
0.5992816091

> <CNNaffinity>
2.7735404968

> <CNN_VS>
1.6621317863

> <CNNaffinity_variance>
0.1207872257

$$$$
new-core.pdb


  6  6  0  0  0  0  0  0  0  0999 V2000
   -5.6400   -0.2532  -21.1064 C   0  0  0  0  0  0  0  0  0  0  0  0
   -4.5424    0.1149  -20.2721 C   0  0  0  0  0  0  0  0  0  0  0  0
   -4.7499    0.1154  -18.8629 C   0  0  0  0  0  0  0  0  0  0  0  0
   -6.0327   -0.2673  -18.3818 C   0  0  0  0  0  0  0  0  0  0  0  0
   -7.0510   -0.6074  -19.1622 N   0  0  0  0  0  0  0  0  0  0  0  0
   -6.8416   -0.6005  -20.4882 C   0  0  0  0  0  0  0  0  0  0  0  0
  1  6  1  0
  2  1  2  0
  2  3  1  0
  3  4  2  0
  4  5  1  0
  6  5  2  0
M  END
> <minimizedAffinity>
-2.86911

> <CNNscore>
0.5919997692

> <CNNaffinity>
2.8000917435

> <CNN_VS>
1.6576536894

> <CNNaffinity_variance>
0.1313130856

$$$$
new-core.pdb


  6  6  0  0  0  0  0  0  0  0999 V2000
   -4.0939    0.2193  -21.7156 C   0  0  0  0  0  0  0  0  0  0  0  0
   -3.0053    0.8249  -22.4118 C   0  0  0  0  0  0  0  0  0  0  0  0
   -2.0865    1.6079  -21.6558 C   0  0  0  0  0  0  0  0  0  0  0  0
   -2.3068    1.7193  -20.2549 C   0  0  0  0  0  0  0  0  0  0  0  0
   -3.3219    1.1552  -19.6123 N   0  0  0  0  0  0  0  0  0  0  0  0
   -4.1814    0.4228  -20.3382 C   0  0  0  0  0  0  0  0  0  0  0  0
  1  6  1  0
  2  1  2  0
  2  3  1  0
  3  4  2  0
  4  5  1  0
  6  5  2  0
M  END
> <minimizedAffinity>
-2.34889

> <CNNscore>
0.5597425699

> <CNNaffinity>
2.4132452011

> <CNN_VS>
1.3507961035

> <CNNaffinity_variance>
0.1371738017

$$$$
new-core.pdb


  6  6  0  0  0  0  0  0  0  0999 V2000
   -4.4762    0.4688  -19.7900 C   0  0  0  0  0  0  0  0  0  0  0  0
   -5.0998   -0.0987  -18.6387 C   0  0  0  0  0  0  0  0  0  0  0  0
   -5.7753   -1.3430  -18.7945 C   0  0  0  0  0  0  0  0  0  0  0  0
   -5.7683   -1.9440  -20.0838 C   0  0  0  0  0  0  0  0  0  0  0  0
   -5.1881   -1.4111  -21.1520 N   0  0  0  0  0  0  0  0  0  0  0  0
   -4.5578   -0.2369  -20.9907 C   0  0  0  0  0  0  0  0  0  0  0  0
  1  6  1  0
  2  1  2  0
  2  3  1  0
  3  4  2  0
  4  5  1  0
  6  5  2  0
M  END
> <minimizedAffinity>
-2.74816

> <CNNscore>
0.5543711185

> <CNNaffinity>
2.6831951141

> <CNN_VS>
1.4874858856

> <CNNaffinity_variance>
0.1605925858

$$$$
new-core.pdb


  6  6  0  0  0  0  0  0  0  0999 V2000
   -4.7236    0.0958  -19.0687 C   0  0  0  0  0  0  0  0  0  0  0  0
   -4.6938    0.2154  -20.4903 C   0  0  0  0  0  0  0  0  0  0  0  0
   -5.8789   -0.1120  -21.2096 C   0  0  0  0  0  0  0  0  0  0  0  0
   -7.0172   -0.5200  -20.4606 C   0  0  0  0  0  0  0  0  0  0  0  0
   -7.0393   -0.6311  -19.1381 N   0  0  0  0  0  0  0  0  0  0  0  0
   -5.9144   -0.3221  -18.4739 C   0  0  0  0  0  0  0  0  0  0  0  0
  1  6  1  0
  2  1  2  0
  2  3  1  0
  3  4  2  0
  4  5  1  0
  6  5  2  0
M  END
> <minimizedAffinity>
-2.90788

> <CNNscore>
0.5499534607

> <CNNaffinity>
2.7549035549

> <CNN_VS>
1.5150687695

> <CNNaffinity_variance>
0.1262882054

$$$$
new-core.pdb


  6  6  0  0  0  0  0  0  0  0999 V2000
   -5.9368   -6.9625  -23.5622 C   0  0  0  0  0  0  0  0  0  0  0  0
   -7.3114   -6.6063  -23.7033 C   0  0  0  0  0  0  0  0  0  0  0  0
   -7.6669   -5.2403  -23.5121 C   0  0  0  0  0  0  0  0  0  0  0  0
   -6.6248   -4.3205  -23.2098 C   0  0  0  0  0  0  0  0  0  0  0  0
   -5.3476   -4.6571  -23.0782 N   0  0  0  0  0  0  0  0  0  0  0  0
   -5.0281   -5.9485  -23.2582 C   0  0  0  0  0  0  0  0  0  0  0  0
  1  6  1  0
  2  1  2  0
  2  3  1  0
  3  4  2  0
  4  5  1  0
  6  5  2  0
M  END
> <minimizedAffinity>
-2.25621

> <CNNscore>
0.5478302240

> <CNNaffinity>
2.8022987843

> <CNN_VS>
1.5351840258

> <CNNaffinity_variance>
0.1198992357

$$$$
new-core.pdb


  6  6  0  0  0  0  0  0  0  0999 V2000
  -12.8775    4.7681  -22.3217 C   0  0  0  0  0  0  0  0  0  0  0  0
  -13.2170    3.4395  -21.9271 C   0  0  0  0  0  0  0  0  0  0  0  0
  -12.5054    2.3642  -22.5324 C   0  0  0  0  0  0  0  0  0  0  0  0
  -11.4926    2.6886  -23.4771 C   0  0  0  0  0  0  0  0  0  0  0  0
  -11.1816    3.9263  -23.8420 N   0  0  0  0  0  0  0  0  0  0  0  0
  -11.8627    4.9292  -23.2654 C   0  0  0  0  0  0  0  0  0  0  0  0
  1  6  1  0
  2  1  2  0
  2  3  1  0
  3  4  2  0
  4  5  1  0
  6  5  2  0
M  END
> <minimizedAffinity>
-2.58883

> <CNNscore>
0.5452274084

> <CNNaffinity>
2.5574553013

> <CNN_VS>
1.3943947554

> <CNNaffinity_variance>
0.2800141871

$$$$
new-core.pdb


  6  6  0  0  0  0  0  0  0  0999 V2000
  -12.5269    2.3173  -22.5807 C   0  0  0  0  0  0  0  0  0  0  0  0
  -13.2104    3.3840  -21.9242 C   0  0  0  0  0  0  0  0  0  0  0  0
  -12.8484    4.7176  -22.2699 C   0  0  0  0  0  0  0  0  0  0  0  0
  -11.8414    4.8956  -23.2587 C   0  0  0  0  0  0  0  0  0  0  0  0
  -11.2074    3.8998  -23.8655 N   0  0  0  0  0  0  0  0  0  0  0  0
  -11.5571    2.6486  -23.5274 C   0  0  0  0  0  0  0  0  0  0  0  0
  1  6  1  0
  2  1  2  0
  2  3  1  0
  3  4  2  0
  4  5  1  0
  6  5  2  0
M  END
> <minimizedAffinity>
-2.59585

> <CNNscore>
0.5389731526

> <CNNaffinity>
2.5552215576

> <CNN_VS>
1.3771958351

> <CNNaffinity_variance>
0.2823698223

$$$$
new-core.pdb


  6  6  0  0  0  0  0  0  0  0999 V2000
   -9.1046   -6.4545  -25.5449 C   0  0  0  0  0  0  0  0  0  0  0  0
   -8.0858   -6.2007  -24.5786 C   0  0  0  0  0  0  0  0  0  0  0  0
   -6.7344   -6.4416  -24.9589 C   0  0  0  0  0  0  0  0  0  0  0  0
   -6.4907   -6.9029  -26.2823 C   0  0  0  0  0  0  0  0  0  0  0  0
   -7.4422   -7.1389  -27.1771 N   0  0  0  0  0  0  0  0  0  0  0  0
   -8.7111   -6.9103  -26.8035 C   0  0  0  0  0  0  0  0  0  0  0  0
  1  6  1  0
  2  1  2  0
  2  3  1  0
  3  4  2  0
  4  5  1  0
  6  5  2  0
M  END
> <minimizedAffinity>
-2.39211

> <CNNscore>
0.5218339562

> <CNNaffinity>
2.6537818909

> <CNN_VS>
1.3848334551

> <CNNaffinity_variance>
0.2982605398

$$$$
new-core.pdb


  6  6  0  0  0  0  0  0  0  0999 V2000
   -5.8624   -1.2560  -18.7291 C   0  0  0  0  0  0  0  0  0  0  0  0
   -5.6989   -1.5339  -20.1192 C   0  0  0  0  0  0  0  0  0  0  0  0
   -4.8777   -0.6536  -20.8807 C   0  0  0  0  0  0  0  0  0  0  0  0
   -4.2625    0.4334  -20.2001 C   0  0  0  0  0  0  0  0  0  0  0  0
   -4.4190    0.6885  -18.9070 N   0  0  0  0  0  0  0  0  0  0  0  0
   -5.1980   -0.1478  -18.2028 C   0  0  0  0  0  0  0  0  0  0  0  0
  1  6  1  0
  2  1  2  0
  2  3  1  0
  3  4  2  0
  4  5  1  0
  6  5  2  0
M  END
> <minimizedAffinity>
-3.10628

> <CNNscore>
0.5160735846

> <CNNaffinity>
2.7056980133

> <CNN_VS>
1.3963392973

> <CNNaffinity_variance>
0.2387762964

$$$$
new-core.pdb


  6  6  0  0  0  0  0  0  0  0999 V2000
   -4.8309   -0.6609  -20.9454 C   0  0  0  0  0  0  0  0  0  0  0  0
   -5.6289   -1.5568  -20.1729 C   0  0  0  0  0  0  0  0  0  0  0  0
   -5.7844   -1.2794  -18.7844 C   0  0  0  0  0  0  0  0  0  0  0  0
   -5.1472   -0.1185  -18.2653 C   0  0  0  0  0  0  0  0  0  0  0  0
   -4.4046    0.7111  -18.9879 N   0  0  0  0  0  0  0  0  0  0  0  0
   -4.2646    0.4353  -20.2942 C   0  0  0  0  0  0  0  0  0  0  0  0
  1  6  1  0
  2  1  2  0
  2  3  1  0
  3  4  2  0
  4  5  1  0
  6  5  2  0
M  END
> <minimizedAffinity>
-3.09254

> <CNNscore>
0.5058740973

> <CNNaffinity>
2.6838307381

> <CNN_VS>
1.3576804399

> <CNNaffinity_variance>
0.2345877439

$$$$
new-core.pdb


  6  6  0  0  0  0  0  0  0  0999 V2000
   -6.5420   -6.5933  -25.0742 C   0  0  0  0  0  0  0  0  0  0  0  0
   -7.8504   -6.3984  -24.5390 C   0  0  0  0  0  0  0  0  0  0  0  0
   -8.9592   -6.5639  -25.4178 C   0  0  0  0  0  0  0  0  0  0  0  0
   -8.6877   -6.9288  -26.7656 C   0  0  0  0  0  0  0  0  0  0  0  0
   -7.4685   -7.1074  -27.2589 N   0  0  0  0  0  0  0  0  0  0  0  0
   -6.4333   -6.9452  -26.4198 C   0  0  0  0  0  0  0  0  0  0  0  0
  1  6  1  0
  2  1  2  0
  2  3  1  0
  3  4  2  0
  4  5  1  0
  6  5  2  0
M  END
> <minimizedAffinity>
-2.36936

> <CNNscore>
0.4943830073

> <CNNaffinity>
2.6233487129

> <CNN_VS>
1.2969390154

> <CNNaffinity_variance>
0.3058461547

$$$$
new-core.pdb


  6  6  0  0  0  0  0  0  0  0999 V2000
   -6.8533   -2.7644  -21.5985 C   0  0  0  0  0  0  0  0  0  0  0  0
   -7.9075   -2.5072  -20.6718 C   0  0  0  0  0  0  0  0  0  0  0  0
   -7.5980   -2.5580  -19.2823 C   0  0  0  0  0  0  0  0  0  0  0  0
   -6.2547   -2.8453  -18.9128 C   0  0  0  0  0  0  0  0  0  0  0  0
   -5.2779   -3.0853  -19.7789 N   0  0  0  0  0  0  0  0  0  0  0  0
   -5.5852   -3.0369  -21.0847 C   0  0  0  0  0  0  0  0  0  0  0  0
  1  6  1  0
  2  1  2  0
  2  3  1  0
  3  4  2  0
  4  5  1  0
  6  5  2  0
M  END
> <minimizedAffinity>
-2.94881

> <CNNscore>
0.4936762154

> <CNNaffinity>
2.8779604435

> <CNN_VS>
1.4207806587

> <CNNaffinity_variance>
0.1864698678

$$$$
new-core.pdb


  6  6  0  0  0  0  0  0  0  0999 V2000
   -5.7089   -1.3997  -18.9751 C   0  0  0  0  0  0  0  0  0  0  0  0
   -6.1220   -0.3672  -19.8693 C   0  0  0  0  0  0  0  0  0  0  0  0
   -7.2891   -0.5950  -20.6535 C   0  0  0  0  0  0  0  0  0  0  0  0
   -7.9735   -1.8298  -20.4798 C   0  0  0  0  0  0  0  0  0  0  0  0
   -7.5843   -2.7878  -19.6477 N   0  0  0  0  0  0  0  0  0  0  0  0
   -6.4811   -2.5602  -18.9174 C   0  0  0  0  0  0  0  0  0  0  0  0
  1  6  1  0
  2  1  2  0
  2  3  1  0
  3  4  2  0
  4  5  1  0
  6  5  2  0
M  END
> <minimizedAffinity>
-2.72510

> <CNNscore>
0.4893873632

> <CNNaffinity>
2.8734984398

> <CNN_VS>
1.4062538147

> <CNNaffinity_variance>
0.1517510861

$$$$
new-core.pdb


  6  6  0  0  0  0  0  0  0  0999 V2000
   -4.6586    0.1961  -19.2618 C   0  0  0  0  0  0  0  0  0  0  0  0
   -5.5946   -0.5838  -18.5189 C   0  0  0  0  0  0  0  0  0  0  0  0
   -6.8270   -0.9204  -19.1489 C   0  0  0  0  0  0  0  0  0  0  0  0
   -7.0342   -0.4704  -20.4823 C   0  0  0  0  0  0  0  0  0  0  0  0
   -6.1608    0.2563  -21.1685 N   0  0  0  0  0  0  0  0  0  0  0  0
   -5.0051    0.5683  -20.5609 C   0  0  0  0  0  0  0  0  0  0  0  0
  1  6  1  0
  2  1  2  0
  2  3  1  0
  3  4  2  0
  4  5  1  0
  6  5  2  0
M  END
> <minimizedAffinity>
-2.71808

> <CNNscore>
0.4877258241

> <CNNaffinity>
2.6756148338

> <CNN_VS>
1.3049664497

> <CNNaffinity_variance>
0.2008228302

$$$$
new-core.pdb


  6  6  0  0  0  0  0  0  0  0999 V2000
   -7.0652   -0.4531  -20.4677 C   0  0  0  0  0  0  0  0  0  0  0  0
   -6.8205   -0.9444  -19.1505 C   0  0  0  0  0  0  0  0  0  0  0  0
   -5.5848   -0.5993  -18.5316 C   0  0  0  0  0  0  0  0  0  0  0  0
   -4.6855    0.2258  -19.2622 C   0  0  0  0  0  0  0  0  0  0  0  0
   -4.9172    0.6790  -20.4880 N   0  0  0  0  0  0  0  0  0  0  0  0
   -6.0845    0.3432  -21.0597 C   0  0  0  0  0  0  0  0  0  0  0  0
  1  6  1  0
  2  1  2  0
  2  3  1  0
  3  4  2  0
  4  5  1  0
  6  5  2  0
M  END
> <minimizedAffinity>
-2.69560

> <CNNscore>
0.4877034128

> <CNNaffinity>
2.6845173836

> <CNN_VS>
1.3092483282

> <CNNaffinity_variance>
0.1981959045

$$$$
new-core.pdb


  6  6  0  0  0  0  0  0  0  0999 V2000
   -7.2910   -0.5876  -20.6564 C   0  0  0  0  0  0  0  0  0  0  0  0
   -6.1675   -0.4125  -19.7941 C   0  0  0  0  0  0  0  0  0  0  0  0
   -5.8412   -1.4755  -18.9039 C   0  0  0  0  0  0  0  0  0  0  0  0
   -6.6474   -2.6467  -18.9466 C   0  0  0  0  0  0  0  0  0  0  0  0
   -7.6925   -2.8040  -19.7497 N   0  0  0  0  0  0  0  0  0  0  0  0
   -7.9898   -1.7927  -20.5809 C   0  0  0  0  0  0  0  0  0  0  0  0
  1  6  1  0
  2  1  2  0
  2  3  1  0
  3  4  2  0
  4  5  1  0
  6  5  2  0
M  END
> <minimizedAffinity>
-2.75490

> <CNNscore>
0.4840920568

> <CNNaffinity>
2.8706257343

> <CNN_VS>
1.3896471262

> <CNNaffinity_variance>
0.1581437141

$$$$
new-core.pdb


  6  6  0  0  0  0  0  0  0  0999 V2000
   -5.7063   -1.3780  -18.9136 C   0  0  0  0  0  0  0  0  0  0  0  0
   -6.4003   -2.6246  -18.9390 C   0  0  0  0  0  0  0  0  0  0  0  0
   -7.5973   -2.7031  -19.7072 C   0  0  0  0  0  0  0  0  0  0  0  0
   -8.0109   -1.5380  -20.4106 C   0  0  0  0  0  0  0  0  0  0  0  0
   -7.3625   -0.3802  -20.3825 N   0  0  0  0  0  0  0  0  0  0  0  0
   -6.2378   -0.3203  -19.6521 C   0  0  0  0  0  0  0  0  0  0  0  0
  1  6  1  0
  2  1  2  0
  2  3  1  0
  3  4  2  0
  4  5  1  0
  6  5  2  0
M  END
> <minimizedAffinity>
-2.86903

> <CNNscore>
0.4818309844

> <CNNaffinity>
2.8551700115

> <CNN_VS>
1.3757094145

> <CNNaffinity_variance>
0.2126068175

$$$$
new-core.pdb


  6  6  0  0  0  0  0  0  0  0999 V2000
   -7.6488   -2.7027  -19.8182 C   0  0  0  0  0  0  0  0  0  0  0  0
   -6.5122   -2.6754  -18.9557 C   0  0  0  0  0  0  0  0  0  0  0  0
   -5.8050   -1.4456  -18.8273 C   0  0  0  0  0  0  0  0  0  0  0  0
   -6.2898   -0.3234  -19.5547 C   0  0  0  0  0  0  0  0  0  0  0  0
   -7.3467   -0.3544  -20.3569 N   0  0  0  0  0  0  0  0  0  0  0  0
   -8.0014   -1.5209  -20.4704 C   0  0  0  0  0  0  0  0  0  0  0  0
  1  6  1  0
  2  1  2  0
  2  3  1  0
  3  4  2  0
  4  5  1  0
  6  5  2  0
M  END
> <minimizedAffinity>
-2.88163

> <CNNscore>
0.4794751406

> <CNNaffinity>
2.8542590141

> <CNN_VS>
1.3685462475

> <CNNaffinity_variance>
0.2139319927

$$$$
new-core.pdb


  6  6  0  0  0  0  0  0  0  0999 V2000
   -8.4086   -1.4289  -21.4017 C   0  0  0  0  0  0  0  0  0  0  0  0
   -9.4848   -1.0463  -22.2571 C   0  0  0  0  0  0  0  0  0  0  0  0
  -10.2224   -2.0812  -22.9005 C   0  0  0  0  0  0  0  0  0  0  0  0
   -9.8467   -3.4270  -22.6335 C   0  0  0  0  0  0  0  0  0  0  0  0
   -8.8437   -3.7776  -21.8380 N   0  0  0  0  0  0  0  0  0  0  0  0
   -8.1558   -2.7915  -21.2409 C   0  0  0  0  0  0  0  0  0  0  0  0
  1  6  1  0
  2  1  2  0
  2  3  1  0
  3  4  2  0
  4  5  1  0
  6  5  2  0
M  END
> <minimizedAffinity>
-2.24250

> <CNNscore>
0.4712045789

> <CNNaffinity>
2.8220231533

> <CNN_VS>
1.3297501802

> <CNNaffinity_variance>
0.2408005446

$$$$
new-core.pdb


  6  6  0  0  0  0  0  0  0  0999 V2000
  -11.2427    3.4085  -23.7360 C   0  0  0  0  0  0  0  0  0  0  0  0
  -11.7123    2.0844  -23.9859 C   0  0  0  0  0  0  0  0  0  0  0  0
  -13.0552    1.7763  -23.6246 C   0  0  0  0  0  0  0  0  0  0  0  0
  -13.8428    2.8146  -23.0544 C   0  0  0  0  0  0  0  0  0  0  0  0
  -13.4008    4.0445  -22.8225 N   0  0  0  0  0  0  0  0  0  0  0  0
  -12.1323    4.3193  -23.1654 C   0  0  0  0  0  0  0  0  0  0  0  0
  1  6  1  0
  2  1  2  0
  2  3  1  0
  3  4  2  0
  4  5  1  0
  6  5  2  0
M  END
> <minimizedAffinity>
-2.37834

> <CNNscore>
0.4709919095

> <CNNaffinity>
2.5515847206

> <CNN_VS>
1.2017757893

> <CNNaffinity_variance>
0.2795750499

$$$$
new-core.pdb


  6  6  0  0  0  0  0  0  0  0999 V2000
   -5.4287   -0.8942  -20.1039 C   0  0  0  0  0  0  0  0  0  0  0  0
   -4.9484   -0.7397  -21.4387 C   0  0  0  0  0  0  0  0  0  0  0  0
   -3.9729    0.2695  -21.6811 C   0  0  0  0  0  0  0  0  0  0  0  0
   -3.5310    1.0439  -20.5728 C   0  0  0  0  0  0  0  0  0  0  0  0
   -3.9821    0.8972  -19.3331 N   0  0  0  0  0  0  0  0  0  0  0  0
   -4.9034   -0.0557  -19.1203 C   0  0  0  0  0  0  0  0  0  0  0  0
  1  6  1  0
  2  1  2  0
  2  3  1  0
  3  4  2  0
  4  5  1  0
  6  5  2  0
M  END
> <minimizedAffinity>
-2.70383

> <CNNscore>
0.4643878639

> <CNNaffinity>
2.4869856834

> <CNN_VS>
1.1549259424

> <CNNaffinity_variance>
0.1842559278

$$$$
new-core.pdb


  6  6  0  0  0  0  0  0  0  0999 V2000
   -5.5913   -0.6391  -18.5922 C   0  0  0  0  0  0  0  0  0  0  0  0
   -4.7226    0.1522  -19.4019 C   0  0  0  0  0  0  0  0  0  0  0  0
   -5.2205    0.6169  -20.6529 C   0  0  0  0  0  0  0  0  0  0  0  0
   -6.5561    0.2747  -21.0030 C   0  0  0  0  0  0  0  0  0  0  0  0
   -7.3597   -0.4630  -20.2468 N   0  0  0  0  0  0  0  0  0  0  0  0
   -6.8759   -0.8964  -19.0720 C   0  0  0  0  0  0  0  0  0  0  0  0
  1  6  1  0
  2  1  2  0
  2  3  1  0
  3  4  2  0
  4  5  1  0
  6  5  2  0
M  END
> <minimizedAffinity>
-2.98585

> <CNNscore>
0.4560323358

> <CNNaffinity>
2.6728987694

> <CNN_VS>
1.2189282179

> <CNNaffinity_variance>
0.1729403287

$$$$
new-core.pdb


  6  6  0  0  0  0  0  0  0  0999 V2000
   -4.0257    2.8436  -21.6082 C   0  0  0  0  0  0  0  0  0  0  0  0
   -5.2496    2.1099  -21.6019 C   0  0  0  0  0  0  0  0  0  0  0  0
   -5.3133    0.9306  -20.8056 C   0  0  0  0  0  0  0  0  0  0  0  0
   -4.1576    0.5733  -20.0572 C   0  0  0  0  0  0  0  0  0  0  0  0
   -3.0208    1.2584  -20.0676 N   0  0  0  0  0  0  0  0  0  0  0  0
   -2.9746    2.3658  -20.8250 C   0  0  0  0  0  0  0  0  0  0  0  0
  1  6  1  0
  2  1  2  0
  2  3  1  0
  3  4  2  0
  4  5  1  0
  6  5  2  0
M  END
> <minimizedAffinity>
-2.30026

> <CNNscore>
0.4551501870

> <CNNaffinity>
2.3981447220

> <CNN_VS>
1.0915160179

> <CNNaffinity_variance>
0.1363928616

$$$$
