
     RDKit          3D

 70 75  0  0  0  0  0  0  0  0999 V2000
    7.3398    4.5108   22.4283 C   0  0  0  0  0  0  0  0  0  0  0  0
    8.1954    3.6599   23.2590 N   0  0  0  0  0  4  0  0  0  0  0  0
    7.6072    3.4120   24.5993 C   0  0  0  0  0  0  0  0  0  0  0  0
    8.4478    2.4254   25.4316 C   0  0  0  0  0  0  0  0  0  0  0  0
    9.2552    1.5435   24.6064 N   0  0  0  0  0  0  0  0  0  0  0  0
    8.7630    0.2251   24.2795 C   0  0  0  0  0  0  0  0  0  0  0  0
    9.2927   -0.3191   22.9260 C   0  0  2  0  0  0  0  0  0  0  0  0
    8.6824    0.4845   21.7591 C   0  0  0  0  0  0  0  0  0  0  0  0
    8.9035    1.6666   21.5203 O   0  0  0  0  0  0  0  0  0  0  0  0
    7.8026   -0.2867   21.0492 N   0  0  0  0  0  0  0  0  0  0  0  0
    6.9624    0.2809   20.0399 C   0  0  0  0  0  0  0  0  0  0  0  0
    7.2110    0.0222   18.7175 C   0  0  0  0  0  0  0  0  0  0  0  0
    6.4771    0.5042   17.6815 N   0  0  0  0  0  0  0  0  0  0  0  0
    5.4470    1.2662   17.9695 C   0  0  0  0  0  0  0  0  0  0  0  0
    5.0622    1.6047   19.2963 C   0  0  0  0  0  0  0  0  0  0  0  0
    3.9295    2.4237   19.5604 C   0  0  0  0  0  0  0  0  0  0  0  0
    3.5763    2.7218   20.8503 C   0  0  0  0  0  0  0  0  0  0  0  0
    4.3423    2.2225   21.9272 C   0  0  0  0  0  0  0  0  0  0  0  0
    5.4508    1.4450   21.6980 C   0  0  0  0  0  0  0  0  0  0  0  0
    5.8413    1.1082   20.3698 C   0  0  0  0  0  0  0  0  0  0  0  0
    7.5206   -1.5534   21.7040 C   0  0  0  0  0  0  0  0  0  0  0  0
    8.7147   -1.7470   22.6683 C   0  0  2  0  0  0  0  0  0  0  0  0
    8.3060   -2.5469   23.9260 C   0  0  0  0  0  0  0  0  0  0  0  0
    7.8935   -3.8729   23.6409 O   0  0  0  0  0  0  0  0  0  0  0  0
    8.9234   -4.8296   23.8001 C   0  0  0  0  0  0  0  0  0  0  0  0
    8.6728   -6.0084   22.8866 C   0  0  0  0  0  0  0  0  0  0  0  0
    7.3325   -6.7603   22.8676 C   0  0  0  0  0  0  0  0  0  0  0  0
    7.1138   -6.4190   21.4899 O   0  0  0  0  0  0  0  0  0  0  0  0
    8.3013   -5.6182   21.4603 C   0  0  0  0  0  0  0  0  0  0  0  0
   10.8097   -0.1445   22.9333 C   0  0  0  0  0  0  0  0  0  0  0  0
   11.6898   -1.0140   22.2707 C   0  0  0  0  0  0  0  0  0  0  0  0
   13.0515   -0.7501   22.2782 C   0  0  0  0  0  0  0  0  0  0  0  0
   14.1344   -1.8673   21.4980 Cl  0  0  0  0  0  0  0  0  0  0  0  0
   13.5851    0.3880   22.8800 C   0  0  0  0  0  0  0  0  0  0  0  0
   12.7182    1.2744   23.4882 C   0  0  0  0  0  0  0  0  0  0  0  0
   11.3511    1.0123   23.5253 C   0  0  0  0  0  0  0  0  0  0  0  0
   10.4644    2.0049   24.2034 C   0  0  0  0  0  0  0  0  0  0  0  0
   10.7950    3.1810   24.3793 O   0  0  0  0  0  0  0  0  0  0  0  0
    6.3173    4.1187   22.4212 H   0  0  0  0  0  0  0  0  0  0  0  0
    7.6939    4.5269   21.3968 H   0  0  0  0  0  0  0  0  0  0  0  0
    7.3131    5.5299   22.8253 H   0  0  0  0  0  0  0  0  0  0  0  0
    9.1270    4.0829   23.4011 H   0  0  0  0  0  0  0  0  0  0  0  0
    8.3729    2.7700   22.7593 H   0  0  0  0  0  0  0  0  0  0  0  0
    6.5868    3.0238   24.4765 H   0  0  0  0  0  0  0  0  0  0  0  0
    7.5182    4.3640   25.1385 H   0  0  0  0  0  0  0  0  0  0  0  0
    7.7993    1.8118   26.0664 H   0  0  0  0  0  0  0  0  0  0  0  0
    9.1352    2.9482   26.1010 H   0  0  0  0  0  0  0  0  0  0  0  0
    7.6668    0.2738   24.2356 H   0  0  0  0  0  0  0  0  0  0  0  0
    9.0742   -0.4707   25.0675 H   0  0  0  0  0  0  0  0  0  0  0  0
    8.0549   -0.5995   18.4239 H   0  0  0  0  0  0  0  0  0  0  0  0
    4.8604    1.6585   17.1351 H   0  0  0  0  0  0  0  0  0  0  0  0
    3.3615    2.8150   18.7212 H   0  0  0  0  0  0  0  0  0  0  0  0
    2.7130    3.3479   21.0557 H   0  0  0  0  0  0  0  0  0  0  0  0
    4.0696    2.4829   22.9479 H   0  0  0  0  0  0  0  0  0  0  0  0
    6.0475    1.0887   22.5338 H   0  0  0  0  0  0  0  0  0  0  0  0
    6.5829   -1.5156   22.2832 H   0  0  0  0  0  0  0  0  0  0  0  0
    7.4383   -2.3581   20.9661 H   0  0  0  0  0  0  0  0  0  0  0  0
    9.4665   -2.3352   22.1433 H   0  0  0  0  0  0  0  0  0  0  0  0
    7.4383   -2.0704   24.3940 H   0  0  0  0  0  0  0  0  0  0  0  0
    9.1155   -2.5805   24.6705 H   0  0  0  0  0  0  0  0  0  0  0  0
    9.0143   -5.1589   24.8481 H   0  0  0  0  0  0  0  0  0  0  0  0
    9.8707   -4.3525   23.5102 H   0  0  0  0  0  0  0  0  0  0  0  0
    9.5067   -6.7110   22.9534 H   0  0  0  0  0  0  0  0  0  0  0  0
    6.5469   -6.3841   23.5323 H   0  0  0  0  0  0  0  0  0  0  0  0
    7.4119   -7.8457   22.9864 H   0  0  0  0  0  0  0  0  0  0  0  0
    9.0104   -5.8992   20.6784 H   0  0  0  0  0  0  0  0  0  0  0  0
    8.0551   -4.5582   21.3464 H   0  0  0  0  0  0  0  0  0  0  0  0
   11.3328   -1.8781   21.7194 H   0  0  0  0  0  0  0  0  0  0  0  0
   14.6535    0.5802   22.8444 H   0  0  0  0  0  0  0  0  0  0  0  0
   13.0807    2.1913   23.9421 H   0  0  0  0  0  0  0  0  0  0  0  0
  1  2  1  0
  2  3  1  0
  3  4  1  0
  4  5  1  0
  5  6  1  0
  7  6  1  1
  7  8  1  0
  8  9  2  0
  8 10  1  0
 10 11  1  0
 11 12  2  0
 12 13  1  0
 13 14  2  0
 14 15  1  0
 15 16  2  0
 16 17  1  0
 17 18  2  0
 18 19  1  0
 19 20  2  0
 10 21  1  0
 21 22  1  0
 22 23  1  0
 23 24  1  0
 24 25  1  0
 25 26  1  0
 26 27  1  0
 27 28  1  0
 28 29  1  0
  7 30  1  0
 30 31  2  0
 31 32  1  0
 32 33  1  0
 32 34  2  0
 34 35  1  0
 35 36  2  0
 36 37  1  0
 37 38  2  0
 37  5  1  0
 22  7  1  0
 29 26  1  0
 36 30  1  0
 20 11  1  0
 20 15  1  0
  1 39  1  0
  1 40  1  0
  1 41  1  0
  2 42  1  0
  2 43  1  0
  3 44  1  0
  3 45  1  0
  4 46  1  0
  4 47  1  0
  6 48  1  0
  6 49  1  0
 12 50  1  0
 14 51  1  0
 16 52  1  0
 17 53  1  0
 18 54  1  0
 19 55  1  0
 21 56  1  0
 21 57  1  0
 22 58  1  6
 23 59  1  0
 23 60  1  0
 25 61  1  0
 25 62  1  0
 26 63  1  0
 27 64  1  0
 27 65  1  0
 29 66  1  0
 29 67  1  0
 31 68  1  0
 34 69  1  0
 35 70  1  0
M  CHG  1   2   1
M  END
$$$$
