
     RDKit          3D

 44 47  0  0  0  0  0  0  0  0999 V2000
    9.9327    0.8181   20.7705 O   0  0  0  0  0  0  0  0  0  0  0  0
    9.0783    0.5738   21.6011 C   0  0  0  0  0  0  0  0  0  0  0  0
    7.7607    1.3143   21.5569 C   0  0  0  0  0  0  0  0  0  0  0  0
    6.9104    0.9567   20.3708 C   0  0  0  0  0  0  0  0  0  0  0  0
    7.4492    0.6503   19.1430 C   0  0  0  0  0  0  0  0  0  0  0  0
    6.7355    0.5738   17.9855 N   0  0  0  0  0  0  0  0  0  0  0  0
    5.4607    0.8620   18.0692 C   0  0  0  0  0  0  0  0  0  0  0  0
    4.7900    1.2371   19.2639 C   0  0  0  0  0  0  0  0  0  0  0  0
    3.4618    1.7223   19.2648 C   0  0  0  0  0  0  0  0  0  0  0  0
    2.8042    1.9573   20.4388 C   0  0  0  0  0  0  0  0  0  0  0  0
    3.4634    1.7239   21.6697 C   0  0  0  0  0  0  0  0  0  0  0  0
    4.7871    1.3579   21.6886 C   0  0  0  0  0  0  0  0  0  0  0  0
    5.5030    1.1672   20.4749 C   0  0  0  0  0  0  0  0  0  0  0  0
    9.2568   -0.3693   22.6055 N   0  0  0  0  0  0  0  0  0  0  0  0
    8.6825   -0.1079   23.9341 C   0  0  0  0  0  0  0  0  0  0  0  0
    9.2304    1.2128   24.4893 C   0  0  0  0  0  0  0  0  0  0  0  0
   10.6964    1.4105   24.0710 C   0  0  0  0  0  0  0  0  0  0  0  0
   10.9150    2.5180   23.0011 C   0  0  0  0  0  0  0  0  0  0  0  0
   11.4527    3.4840   24.0716 C   0  0  0  0  0  0  0  0  0  0  0  0
   11.4553    2.3001   25.0663 C   0  0  0  0  0  0  0  0  0  0  0  0
   11.4088    0.0814   23.7581 C   0  0  0  0  0  0  0  0  0  0  0  0
   10.6416   -0.8233   22.7606 C   0  0  0  0  0  0  0  0  0  0  0  0
    8.0084    2.3884   21.4727 H   0  0  0  0  0  0  0  0  0  0  0  0
    7.2116    1.1581   22.4798 H   0  0  0  0  0  0  0  0  0  0  0  0
    8.5214    0.4967   19.0450 H   0  0  0  0  0  0  0  0  0  0  0  0
    4.8819    0.8286   17.1493 H   0  0  0  0  0  0  0  0  0  0  0  0
    3.0004    1.9247   18.3063 H   0  0  0  0  0  0  0  0  0  0  0  0
    1.7817    2.3293   20.4303 H   0  0  0  0  0  0  0  0  0  0  0  0
    2.9324    1.8795   22.6061 H   0  0  0  0  0  0  0  0  0  0  0  0
    5.2912    1.2105   22.6421 H   0  0  0  0  0  0  0  0  0  0  0  0
    9.0218   -0.9253   24.5791 H   0  0  0  0  0  0  0  0  0  0  0  0
    7.5889   -0.1635   23.9182 H   0  0  0  0  0  0  0  0  0  0  0  0
    8.6503    2.0721   24.1262 H   0  0  0  0  0  0  0  0  0  0  0  0
    9.1238    1.2079   25.5829 H   0  0  0  0  0  0  0  0  0  0  0  0
   11.6729    2.2055   22.2903 H   0  0  0  0  0  0  0  0  0  0  0  0
   10.0311    2.8362   22.4427 H   0  0  0  0  0  0  0  0  0  0  0  0
   12.4283    3.9386   23.8751 H   0  0  0  0  0  0  0  0  0  0  0  0
   10.7612    4.2942   24.3226 H   0  0  0  0  0  0  0  0  0  0  0  0
   12.4530    1.9106   25.2663 H   0  0  0  0  0  0  0  0  0  0  0  0
   10.9289    2.4339   26.0105 H   0  0  0  0  0  0  0  0  0  0  0  0
   11.5632   -0.4465   24.7134 H   0  0  0  0  0  0  0  0  0  0  0  0
   12.4055    0.3090   23.3591 H   0  0  0  0  0  0  0  0  0  0  0  0
   10.6182   -1.8587   23.1210 H   0  0  0  0  0  0  0  0  0  0  0  0
   11.0699   -0.8336   21.7575 H   0  0  0  0  0  0  0  0  0  0  0  0
  1  2  2  0
  2  3  1  0
  3  4  1  0
  4  5  2  0
  5  6  1  0
  6  7  2  0
  7  8  1  0
  8  9  2  0
  9 10  1  0
 10 11  2  0
 11 12  1  0
 12 13  2  0
  2 14  1  0
 14 15  1  0
 15 16  1  0
 16 17  1  0
 17 18  1  0
 18 19  1  0
 19 20  1  0
 17 21  1  0
 21 22  1  0
 13  4  1  0
 22 14  1  0
 13  8  1  0
 20 17  1  0
  3 23  1  0
  3 24  1  0
  5 25  1  0
  7 26  1  0
  9 27  1  0
 10 28  1  0
 11 29  1  0
 12 30  1  0
 15 31  1  0
 15 32  1  0
 16 33  1  0
 16 34  1  0
 18 35  1  0
 18 36  1  0
 19 37  1  0
 19 38  1  0
 20 39  1  0
 20 40  1  0
 21 41  1  0
 21 42  1  0
 22 43  1  0
 22 44  1  0
M  END
$$$$
