
     RDKit          3D

 37 39  0  0  0  0  0  0  0  0999 V2000
   10.1828    0.7195   20.9629 O   0  0  0  0  0  0  0  0  0  0  0  0
    9.2594    0.6479   21.7628 C   0  0  0  0  0  0  0  0  0  0  0  0
    8.0168    1.4989   21.5576 C   0  0  0  0  0  0  0  0  0  0  0  0
    7.1217    1.0591   20.4091 C   0  0  0  0  0  0  0  0  0  0  0  0
    7.6245    0.6746   19.1941 C   0  0  0  0  0  0  0  0  0  0  0  0
    6.8891    0.4829   18.0594 N   0  0  0  0  0  0  0  0  0  0  0  0
    5.6081    0.7594   18.1160 C   0  0  0  0  0  0  0  0  0  0  0  0
    4.9543    1.2079   19.3000 C   0  0  0  0  0  0  0  0  0  0  0  0
    3.6309    1.7286   19.3124 C   0  0  0  0  0  0  0  0  0  0  0  0
    3.0027    1.9587   20.5075 C   0  0  0  0  0  0  0  0  0  0  0  0
    3.6630    1.6757   21.7271 C   0  0  0  0  0  0  0  0  0  0  0  0
    4.9866    1.3155   21.7331 C   0  0  0  0  0  0  0  0  0  0  0  0
    5.6973    1.1819   20.5100 C   0  0  0  0  0  0  0  0  0  0  0  0
    9.3373   -0.1966   22.8601 N   0  0  0  0  0  0  0  0  0  0  0  0
    8.6151    0.0795   24.1070 C   0  0  0  0  0  0  0  0  0  0  0  0
    9.2806    1.2447   24.8471 C   0  0  0  0  0  0  0  0  0  0  0  0
   10.7625    0.9427   25.0994 C   0  0  0  0  0  0  0  0  0  0  0  0
   11.4804    0.4848   23.8267 C   0  0  0  0  0  0  0  0  0  0  0  0
   10.7038   -0.6485   23.1508 C   0  0  0  0  0  0  0  0  0  0  0  0
    8.3984    2.5130   21.3555 H   0  0  0  0  0  0  0  0  0  0  0  0
    7.4556    1.5802   22.4836 H   0  0  0  0  0  0  0  0  0  0  0  0
    8.6897    0.4901   19.0736 H   0  0  0  0  0  0  0  0  0  0  0  0
    5.0402    0.6368   17.1865 H   0  0  0  0  0  0  0  0  0  0  0  0
    3.1421    1.9821   18.3722 H   0  0  0  0  0  0  0  0  0  0  0  0
    1.9958    2.3659   20.5336 H   0  0  0  0  0  0  0  0  0  0  0  0
    3.1417    1.8062   22.6723 H   0  0  0  0  0  0  0  0  0  0  0  0
    5.4901    1.1317   22.6821 H   0  0  0  0  0  0  0  0  0  0  0  0
    8.6610   -0.8361   24.7172 H   0  0  0  0  0  0  0  0  0  0  0  0
    7.5546    0.2542   23.9022 H   0  0  0  0  0  0  0  0  0  0  0  0
    9.1802    2.1523   24.2353 H   0  0  0  0  0  0  0  0  0  0  0  0
    8.7718    1.4363   25.7989 H   0  0  0  0  0  0  0  0  0  0  0  0
   11.2542    1.8293   25.5215 H   0  0  0  0  0  0  0  0  0  0  0  0
   10.8278    0.1385   25.8478 H   0  0  0  0  0  0  0  0  0  0  0  0
   11.5383    1.3158   23.1108 H   0  0  0  0  0  0  0  0  0  0  0  0
   12.5040    0.1710   24.0668 H   0  0  0  0  0  0  0  0  0  0  0  0
   10.6559   -1.5256   23.8087 H   0  0  0  0  0  0  0  0  0  0  0  0
   11.1716   -0.9386   22.2104 H   0  0  0  0  0  0  0  0  0  0  0  0
  1  2  2  0
  2  3  1  0
  3  4  1  0
  4  5  2  0
  5  6  1  0
  6  7  2  0
  7  8  1  0
  8  9  2  0
  9 10  1  0
 10 11  2  0
 11 12  1  0
 12 13  2  0
  2 14  1  0
 14 15  1  0
 15 16  1  0
 16 17  1  0
 17 18  1  0
 18 19  1  0
 13  4  1  0
 19 14  1  0
 13  8  1  0
  3 20  1  0
  3 21  1  0
  5 22  1  0
  7 23  1  0
  9 24  1  0
 10 25  1  0
 11 26  1  0
 12 27  1  0
 15 28  1  0
 15 29  1  0
 16 30  1  0
 16 31  1  0
 17 32  1  0
 17 33  1  0
 18 34  1  0
 18 35  1  0
 19 36  1  0
 19 37  1  0
M  END
$$$$
