
     RDKit          3D

 66 71  0  0  0  0  0  0  0  0999 V2000
    8.8503   -2.7964   23.6499 C   0  0  0  0  0  0  0  0  0  0  0  0
    8.9095   -1.7943   22.5045 C   0  0  1  0  0  0  0  0  0  0  0  0
    7.5668   -1.5472   21.8055 C   0  0  0  0  0  0  0  0  0  0  0  0
    7.7795   -0.2653   21.1565 N   0  0  0  0  0  0  0  0  0  0  0  0
    6.9417    0.2666   20.1395 C   0  0  0  0  0  0  0  0  0  0  0  0
    7.2116   -0.0134   18.8250 C   0  0  0  0  0  0  0  0  0  0  0  0
    6.4863    0.4439   17.7728 N   0  0  0  0  0  0  0  0  0  0  0  0
    5.4493    1.2046   18.0396 C   0  0  0  0  0  0  0  0  0  0  0  0
    5.0337    1.5543   19.3579 C   0  0  0  0  0  0  0  0  0  0  0  0
    3.9056    2.3861   19.6097 C   0  0  0  0  0  0  0  0  0  0  0  0
    3.5418    2.6886   20.8942 C   0  0  0  0  0  0  0  0  0  0  0  0
    4.2757    2.1745   21.9883 C   0  0  0  0  0  0  0  0  0  0  0  0
    5.3784    1.3850   21.7730 C   0  0  0  0  0  0  0  0  0  0  0  0
    5.7929    1.0623   20.4502 C   0  0  0  0  0  0  0  0  0  0  0  0
    8.8164    0.4598   21.7025 C   0  0  0  0  0  0  0  0  0  0  0  0
    9.1527    1.5661   21.3271 O   0  0  0  0  0  0  0  0  0  0  0  0
    9.4267   -0.3715   22.8598 C   0  0  1  0  0  0  0  0  0  0  0  0
    8.8453    0.1284   24.2095 C   0  0  0  0  0  0  0  0  0  0  0  0
    9.2511    1.4923   24.4971 N   0  0  0  0  0  0  0  0  0  0  0  0
    8.3940    2.3147   25.3294 C   0  0  0  0  0  0  0  0  0  0  0  0
    7.6438    3.4528   24.6304 C   0  0  0  0  0  0  0  0  0  0  0  0
    6.7870    4.0726   25.2440 O   0  0  0  0  0  0  0  0  0  0  0  0
    7.9270    3.6663   23.3235 N   0  0  0  0  0  0  0  0  0  0  0  0
    7.1653    4.6388   22.5645 C   0  0  0  0  0  0  0  0  0  0  0  0
    7.5641    6.0428   22.8904 C   0  0  0  0  0  0  0  0  0  0  0  0
    8.8321    6.5730   22.8418 C   0  0  0  0  0  0  0  0  0  0  0  0
    8.6598    7.9090   23.2302 C   0  0  0  0  0  0  0  0  0  0  0  0
    7.3909    8.1908   23.5094 N   0  0  0  0  0  0  0  0  0  0  0  0
    6.7345    7.0395   23.2877 N   0  0  0  0  0  0  0  0  0  0  0  0
    5.3062    6.9275   23.4946 C   0  0  0  0  0  0  0  0  0  0  0  0
   10.5325    1.9187   24.2771 C   0  0  0  0  0  0  0  0  0  0  0  0
   10.9014    3.0307   24.6299 O   0  0  0  0  0  0  0  0  0  0  0  0
   11.4406    0.9589   23.5592 C   0  0  0  0  0  0  0  0  0  0  0  0
   12.8075    1.2470   23.5236 C   0  0  0  0  0  0  0  0  0  0  0  0
   13.6800    0.3911   22.8711 C   0  0  0  0  0  0  0  0  0  0  0  0
   13.1873   -0.7651   22.2573 C   0  0  0  0  0  0  0  0  0  0  0  0
   11.8312   -1.0475   22.2897 C   0  0  0  0  0  0  0  0  0  0  0  0
   10.9298   -0.1878   22.9274 C   0  0  0  0  0  0  0  0  0  0  0  0
    8.0970   -2.5082   24.3895 H   0  0  0  0  0  0  0  0  0  0  0  0
    9.8073   -2.8635   24.1780 H   0  0  0  0  0  0  0  0  0  0  0  0
    8.5955   -3.7998   23.2937 H   0  0  0  0  0  0  0  0  0  0  0  0
    9.5720   -2.1982   21.7353 H   0  0  0  0  0  0  0  0  0  0  0  0
    6.7451   -1.5296   22.5435 H   0  0  0  0  0  0  0  0  0  0  0  0
    7.3295   -2.3166   21.0666 H   0  0  0  0  0  0  0  0  0  0  0  0
    8.0697   -0.6321   18.5704 H   0  0  0  0  0  0  0  0  0  0  0  0
    4.8738    1.5827   17.1917 H   0  0  0  0  0  0  0  0  0  0  0  0
    3.3467    2.7845   18.7645 H   0  0  0  0  0  0  0  0  0  0  0  0
    2.6893    3.3343   21.0896 H   0  0  0  0  0  0  0  0  0  0  0  0
    3.9946    2.4366   23.0062 H   0  0  0  0  0  0  0  0  0  0  0  0
    5.9514    1.0024   22.6146 H   0  0  0  0  0  0  0  0  0  0  0  0
    9.1727   -0.5379   25.0218 H   0  0  0  0  0  0  0  0  0  0  0  0
    7.7510    0.1026   24.1679 H   0  0  0  0  0  0  0  0  0  0  0  0
    7.6257    1.6732   25.7751 H   0  0  0  0  0  0  0  0  0  0  0  0
    8.9725    2.7348   26.1597 H   0  0  0  0  0  0  0  0  0  0  0  0
    8.7923    3.3429   22.9159 H   0  0  0  0  0  0  0  0  0  0  0  0
    7.3705    4.4226   21.5075 H   0  0  0  0  0  0  0  0  0  0  0  0
    6.0984    4.4648   22.7337 H   0  0  0  0  0  0  0  0  0  0  0  0
    9.7356    6.0473   22.5477 H   0  0  0  0  0  0  0  0  0  0  0  0
    9.4235    8.6660   23.3129 H   0  0  0  0  0  0  0  0  0  0  0  0
    5.0749    6.1820   24.2608 H   0  0  0  0  0  0  0  0  0  0  0  0
    4.9280    7.8980   23.8023 H   0  0  0  0  0  0  0  0  0  0  0  0
    4.8019    6.6340   22.5695 H   0  0  0  0  0  0  0  0  0  0  0  0
   13.1680    2.1469   24.0163 H   0  0  0  0  0  0  0  0  0  0  0  0
   14.7438    0.6159   22.8246 H   0  0  0  0  0  0  0  0  0  0  0  0
   13.8557   -1.4449   21.7337 H   0  0  0  0  0  0  0  0  0  0  0  0
   11.4716   -1.9552   21.8137 H   0  0  0  0  0  0  0  0  0  0  0  0
  1  2  1  0
  2  3  1  0
  3  4  1  0
  4  5  1  0
  5  6  2  0
  6  7  1  0
  7  8  2  0
  8  9  1  0
  9 10  2  0
 10 11  1  0
 11 12  2  0
 12 13  1  0
 13 14  2  0
  4 15  1  0
 15 16  2  0
 15 17  1  0
 17 18  1  1
 18 19  1  0
 19 20  1  0
 20 21  1  0
 21 22  2  0
 21 23  1  0
 23 24  1  0
 24 25  1  0
 25 26  2  0
 26 27  1  0
 27 28  2  0
 28 29  1  0
 29 30  1  0
 19 31  1  0
 31 32  2  0
 31 33  1  0
 33 34  2  0
 34 35  1  0
 35 36  2  0
 36 37  1  0
 37 38  2  0
 17  2  1  0
 29 25  1  0
 38 33  1  0
 14  5  1  0
 38 17  1  0
 14  9  1  0
  1 39  1  0
  1 40  1  0
  1 41  1  0
  2 42  1  6
  3 43  1  0
  3 44  1  0
  6 45  1  0
  8 46  1  0
 10 47  1  0
 11 48  1  0
 12 49  1  0
 13 50  1  0
 18 51  1  0
 18 52  1  0
 20 53  1  0
 20 54  1  0
 23 55  1  0
 24 56  1  0
 24 57  1  0
 26 58  1  0
 27 59  1  0
 30 60  1  0
 30 61  1  0
 30 62  1  0
 34 63  1  0
 35 64  1  0
 36 65  1  0
 37 66  1  0
M  END
$$$$
