
     RDKit          3D

 67 72  0  0  0  0  0  0  0  0999 V2000
    7.1701    4.6487   22.5719 C   0  0  0  0  0  0  0  0  0  0  0  0
    7.9535    3.7010   23.3386 N   0  0  0  0  0  0  0  0  0  0  0  0
    7.6469    3.4561   24.6300 C   0  0  0  0  0  0  0  0  0  0  0  0
    6.7942    4.0779   25.2515 O   0  0  0  0  0  0  0  0  0  0  0  0
    8.3951    2.3124   25.3254 C   0  0  0  0  0  0  0  0  0  0  0  0
    9.2544    1.4926   24.4953 N   0  0  0  0  0  0  0  0  0  0  0  0
    8.8463    0.1296   24.2116 C   0  0  0  0  0  0  0  0  0  0  0  0
    9.4272   -0.3733   22.8639 C   0  0  2  0  0  0  0  0  0  0  0  0
    8.8176    0.4596   21.7066 C   0  0  0  0  0  0  0  0  0  0  0  0
    9.1557    1.5629   21.3313 O   0  0  0  0  0  0  0  0  0  0  0  0
    7.7769   -0.2679   21.1639 N   0  0  0  0  0  0  0  0  0  0  0  0
    6.9411    0.2610   20.1414 C   0  0  0  0  0  0  0  0  0  0  0  0
    7.2120   -0.0146   18.8275 C   0  0  0  0  0  0  0  0  0  0  0  0
    6.4864    0.4444   17.7733 N   0  0  0  0  0  0  0  0  0  0  0  0
    5.4502    1.2037   18.0409 C   0  0  0  0  0  0  0  0  0  0  0  0
    5.0349    1.5545   19.3586 C   0  0  0  0  0  0  0  0  0  0  0  0
    3.9067    2.3863   19.6107 C   0  0  0  0  0  0  0  0  0  0  0  0
    3.5431    2.6895   20.8943 C   0  0  0  0  0  0  0  0  0  0  0  0
    4.2788    2.1778   21.9895 C   0  0  0  0  0  0  0  0  0  0  0  0
    5.3791    1.3874   21.7725 C   0  0  0  0  0  0  0  0  0  0  0  0
    5.7937    1.0609   20.4506 C   0  0  0  0  0  0  0  0  0  0  0  0
    7.5677   -1.5548   21.8037 C   0  0  0  0  0  0  0  0  0  0  0  0
    8.9120   -1.7925   22.5035 C   0  0  2  0  0  0  0  0  0  0  0  0
    8.8596   -2.8069   23.6505 C   0  0  0  0  0  0  0  0  0  0  0  0
    8.6159   -4.1693   23.2157 N   0  0  0  0  0  0  0  0  0  0  0  0
    7.4058   -4.6263   22.7510 C   0  0  0  0  0  0  0  0  0  0  0  0
    7.2534   -5.5019   21.2471 S   0  0  0  0  0  0  0  0  0  0  0  0
    5.5688   -5.6518   21.5694 C   0  0  0  0  0  0  0  0  0  0  0  0
    5.1499   -5.1399   22.6731 N   0  0  0  0  0  0  0  0  0  0  0  0
    6.1876   -4.5745   23.3703 C   0  0  0  0  0  0  0  0  0  0  0  0
    5.9241   -3.9759   24.7166 C   0  0  0  0  0  0  0  0  0  0  0  0
   10.9270   -0.1882   22.9302 C   0  0  0  0  0  0  0  0  0  0  0  0
   11.8225   -1.0512   22.2869 C   0  0  0  0  0  0  0  0  0  0  0  0
   13.1721   -0.7511   22.2548 C   0  0  0  0  0  0  0  0  0  0  0  0
   14.2498   -1.8159   21.3959 Cl  0  0  0  0  0  0  0  0  0  0  0  0
   13.6825    0.3949   22.8687 C   0  0  0  0  0  0  0  0  0  0  0  0
   12.8058    1.2411   23.5227 C   0  0  0  0  0  0  0  0  0  0  0  0
   11.4403    0.9574   23.5611 C   0  0  0  0  0  0  0  0  0  0  0  0
   10.5364    1.9183   24.2798 C   0  0  0  0  0  0  0  0  0  0  0  0
   10.9056    3.0306   24.6344 O   0  0  0  0  0  0  0  0  0  0  0  0
    7.5895    4.6991   21.5637 H   0  0  0  0  0  0  0  0  0  0  0  0
    7.1825    5.6462   23.0239 H   0  0  0  0  0  0  0  0  0  0  0  0
    6.1282    4.3149   22.4971 H   0  0  0  0  0  0  0  0  0  0  0  0
    8.7700    3.2967   22.9073 H   0  0  0  0  0  0  0  0  0  0  0  0
    8.9707    2.7371   26.1539 H   0  0  0  0  0  0  0  0  0  0  0  0
    7.6257    1.6737   25.7721 H   0  0  0  0  0  0  0  0  0  0  0  0
    9.1730   -0.5341   25.0257 H   0  0  0  0  0  0  0  0  0  0  0  0
    7.7514    0.1069   24.1696 H   0  0  0  0  0  0  0  0  0  0  0  0
    8.0710   -0.6327   18.5701 H   0  0  0  0  0  0  0  0  0  0  0  0
    4.8743    1.5824   17.1924 H   0  0  0  0  0  0  0  0  0  0  0  0
    3.3473    2.7836   18.7654 H   0  0  0  0  0  0  0  0  0  0  0  0
    2.6902    3.3333   21.0905 H   0  0  0  0  0  0  0  0  0  0  0  0
    3.9956    2.4389   23.0067 H   0  0  0  0  0  0  0  0  0  0  0  0
    5.9492    1.0042   22.6150 H   0  0  0  0  0  0  0  0  0  0  0  0
    7.3255   -2.3319   21.0751 H   0  0  0  0  0  0  0  0  0  0  0  0
    6.7417   -1.5293   22.5362 H   0  0  0  0  0  0  0  0  0  0  0  0
    9.5697   -2.1995   21.7308 H   0  0  0  0  0  0  0  0  0  0  0  0
    8.0795   -2.5273   24.3600 H   0  0  0  0  0  0  0  0  0  0  0  0
    9.8073   -2.7937   24.2009 H   0  0  0  0  0  0  0  0  0  0  0  0
    9.4229   -4.6365   22.8343 H   0  0  0  0  0  0  0  0  0  0  0  0
    4.9420   -6.1740   20.8642 H   0  0  0  0  0  0  0  0  0  0  0  0
    5.0079   -4.3843   25.1487 H   0  0  0  0  0  0  0  0  0  0  0  0
    6.7532   -4.1637   25.4044 H   0  0  0  0  0  0  0  0  0  0  0  0
    5.7918   -2.8898   24.6479 H   0  0  0  0  0  0  0  0  0  0  0  0
   11.4780   -1.9621   21.8074 H   0  0  0  0  0  0  0  0  0  0  0  0
   14.7459    0.6120   22.8148 H   0  0  0  0  0  0  0  0  0  0  0  0
   13.1693    2.1394   24.0114 H   0  0  0  0  0  0  0  0  0  0  0  0
  1  2  1  0
  2  3  1  0
  3  4  2  0
  3  5  1  0
  5  6  1  0
  6  7  1  0
  8  7  1  1
  8  9  1  0
  9 10  2  0
  9 11  1  0
 11 12  1  0
 12 13  2  0
 13 14  1  0
 14 15  2  0
 15 16  1  0
 16 17  2  0
 17 18  1  0
 18 19  2  0
 19 20  1  0
 20 21  2  0
 11 22  1  0
 22 23  1  0
 23 24  1  0
 24 25  1  0
 25 26  1  0
 26 27  1  0
 27 28  1  0
 28 29  2  0
 29 30  1  0
 30 31  1  0
  8 32  1  0
 32 33  2  0
 33 34  1  0
 34 35  1  0
 34 36  2  0
 36 37  1  0
 37 38  2  0
 38 39  1  0
 39 40  2  0
 39  6  1  0
 23  8  1  0
 30 26  2  0
 38 32  1  0
 21 12  1  0
 21 16  1  0
  1 41  1  0
  1 42  1  0
  1 43  1  0
  2 44  1  0
  5 45  1  0
  5 46  1  0
  7 47  1  0
  7 48  1  0
 13 49  1  0
 15 50  1  0
 17 51  1  0
 18 52  1  0
 19 53  1  0
 20 54  1  0
 22 55  1  0
 22 56  1  0
 23 57  1  6
 24 58  1  0
 24 59  1  0
 25 60  1  0
 28 61  1  0
 31 62  1  0
 31 63  1  0
 31 64  1  0
 33 65  1  0
 36 66  1  0
 37 67  1  0
M  END
$$$$
