
     RDKit          3D

 41 47  0  0  0  0  0  0  0  0999 V2000
    4.6380   -0.8447    1.5496 O   0  0  0  0  0  0  0  0  0  0  0  0
    3.5437   -0.7384    0.9349 C   0  0  0  0  0  0  0  0  0  0  0  0
    2.6323   -1.8701    0.8502 C   0  0  0  0  0  0  0  0  0  0  0  0
    3.0967   -3.0820    1.2972 C   0  0  0  0  0  0  0  0  0  0  0  0
    2.3156   -4.2041    1.0431 C   0  0  0  0  0  0  0  0  0  0  0  0
    1.1042   -4.0744    0.3536 C   0  0  0  0  0  0  0  0  0  0  0  0
    0.1077   -5.4896    0.0218 Cl  0  0  0  0  0  0  0  0  0  0  0  0
    0.7041   -2.8263   -0.0609 C   0  0  0  0  0  0  0  0  0  0  0  0
    1.4519   -1.6816    0.1768 C   0  0  0  0  0  0  0  0  0  0  0  0
    0.9428   -0.3104   -0.2072 C   0  0  1  0  0  0  0  0  0  0  0  0
    2.1281    0.4092   -0.7290 C   0  0  0  0  0  0  0  0  0  0  0  0
    3.1478    0.4942    0.2944 N   0  0  0  0  0  0  0  0  0  0  0  0
    3.8475    1.6774    0.7094 C   0  0  0  0  0  0  0  0  0  0  0  0
    5.0817    1.8868   -0.1550 C   0  0  0  0  0  0  0  0  0  0  0  0
    5.1067    2.5851   -1.3074 N   0  0  0  0  0  0  0  0  0  0  0  0
    6.3562    2.5583   -1.7915 N   0  0  0  0  0  0  0  0  0  0  0  0
    7.0963    1.8293   -0.9124 C   0  0  0  0  0  0  0  0  0  0  0  0
    6.2840    1.4391    0.0689 O   0  0  0  0  0  0  0  0  0  0  0  0
   -0.1796   -0.5638   -1.0999 C   0  0  0  0  0  0  0  0  0  0  0  0
   -0.1199   -0.6820   -2.3391 O   0  0  0  0  0  0  0  0  0  0  0  0
   -1.3850   -0.6544   -0.2863 N   0  0  0  0  0  0  0  0  0  0  0  0
   -2.6843   -0.7091   -0.8503 C   0  0  0  0  0  0  0  0  0  0  0  0
   -3.2234    0.3776   -1.5580 C   0  0  0  0  0  0  0  0  0  0  0  0
   -4.4574    0.3478   -2.0799 N   0  0  0  0  0  0  0  0  0  0  0  0
   -5.2868   -0.7039   -1.9802 C   0  0  0  0  0  0  0  0  0  0  0  0
   -4.8089   -1.8040   -1.2921 C   0  0  0  0  0  0  0  0  0  0  0  0
   -5.6572   -2.8775   -1.1721 C   0  0  0  0  0  0  0  0  0  0  0  0
   -5.2588   -4.0182   -0.4790 C   0  0  0  0  0  0  0  0  0  0  0  0
   -3.9983   -3.9969    0.0607 C   0  0  0  0  0  0  0  0  0  0  0  0
   -3.1544   -2.9244   -0.0612 C   0  0  0  0  0  0  0  0  0  0  0  0
   -3.5290   -1.7947   -0.7410 C   0  0  0  0  0  0  0  0  0  0  0  0
   -0.9305   -0.6952    1.0811 C   0  0  0  0  0  0  0  0  0  0  0  0
    0.2805    0.2890    0.9613 C   0  0  2  0  0  0  0  0  0  0  0  0
   -0.4097    1.5876    0.8704 C   0  0  0  0  0  0  0  0  0  0  0  0
    0.2245    2.7762    0.4819 N   0  0  0  0  0  0  0  0  0  0  0  0
   -0.5805    3.9927    0.5290 C   0  0  0  0  0  0  0  0  0  0  0  0
   -1.3317    4.3700   -0.5182 N   0  0  0  0  0  0  0  0  0  0  0  0
   -2.0812    5.5010   -0.4791 C   0  0  0  0  0  0  0  0  0  0  0  0
   -2.0813    6.2766    0.6354 N   0  0  0  0  0  0  0  0  0  0  0  0
   -1.3390    5.9083    1.6773 C   0  0  0  0  0  0  0  0  0  0  0  0
   -0.5874    4.7680    1.6289 N   0  0  0  0  0  0  0  0  0  0  0  0
  1  2  2  0
  2  3  1  0
  3  4  2  0
  4  5  1  0
  5  6  2  0
  6  7  1  0
  6  8  1  0
  8  9  2  0
  9 10  1  0
 10 11  1  6
 11 12  1  0
 12 13  1  0
 13 14  1  0
 14 15  2  0
 15 16  1  0
 16 17  2  0
 17 18  1  0
 10 19  1  0
 19 20  2  0
 19 21  1  0
 21 22  1  0
 22 23  2  0
 23 24  1  0
 24 25  2  0
 25 26  1  0
 26 27  2  0
 27 28  1  0
 28 29  2  0
 29 30  1  0
 30 31  2  0
 21 32  1  0
 32 33  1  0
 33 34  1  6
 34 35  1  0
 35 36  1  0
 36 37  2  0
 37 38  1  0
 38 39  2  0
 39 40  1  0
 40 41  2  0
 12  2  1  0
 18 14  1  0
 31 22  1  0
 41 36  1  0
  9  3  1  0
 33 10  1  0
 31 26  1  0
M  END
$$$$

     RDKit          3D

 30 33  0  0  0  0  0  0  0  0999 V2000
   -4.7023   -4.4063   -0.5784 C   0  0  0  0  0  0  0  0  0  0  0  0
   -4.4310   -3.3573    0.3154 O   0  0  0  0  0  0  0  0  0  0  0  0
   -3.4792   -2.3842    0.0402 C   0  0  0  0  0  0  0  0  0  0  0  0
   -3.2951   -1.3911    1.0012 C   0  0  0  0  0  0  0  0  0  0  0  0
   -2.3588   -0.4058    0.7657 C   0  0  0  0  0  0  0  0  0  0  0  0
   -1.5938   -0.3736   -0.4010 C   0  0  0  0  0  0  0  0  0  0  0  0
   -0.6226    0.6737   -0.6129 N   0  0  0  0  0  0  0  0  0  0  0  0
   -1.0531    1.8891   -1.2802 C   0  0  0  0  0  0  0  0  0  0  0  0
   -1.5517    2.9277   -0.3602 C   0  0  0  0  0  0  0  0  0  0  0  0
   -2.8824    3.0291    0.0196 C   0  0  0  0  0  0  0  0  0  0  0  0
   -3.3282    4.0144    0.8858 C   0  0  0  0  0  0  0  0  0  0  0  0
   -2.4375    4.9346    1.3992 C   0  0  0  0  0  0  0  0  0  0  0  0
   -1.1061    4.8592    1.0393 C   0  0  0  0  0  0  0  0  0  0  0  0
    0.0513    6.0294    1.6860 Cl  0  0  0  0  0  0  0  0  0  0  0  0
   -0.6838    3.8584    0.1664 C   0  0  0  0  0  0  0  0  0  0  0  0
    0.7272    0.5320   -0.1843 C   0  0  0  0  0  0  0  0  0  0  0  0
    1.6038    1.4205   -0.3488 O   0  0  0  0  0  0  0  0  0  0  0  0
    1.1214   -0.7357    0.4948 C   0  0  0  0  0  0  0  0  0  0  0  0
    2.5571   -0.7204    0.8774 C   0  0  0  0  0  0  0  0  0  0  0  0
    2.9234   -0.5173    2.1922 C   0  0  0  0  0  0  0  0  0  0  0  0
    4.2232   -0.4980    2.5718 N   0  0  0  0  0  0  0  0  0  0  0  0
    5.1919   -0.6818    1.6447 C   0  0  0  0  0  0  0  0  0  0  0  0
    4.8323   -0.8874    0.3168 C   0  0  0  0  0  0  0  0  0  0  0  0
    5.8731   -1.0686   -0.5824 C   0  0  0  0  0  0  0  0  0  0  0  0
    5.5638   -1.2769   -1.9188 C   0  0  0  0  0  0  0  0  0  0  0  0
    4.2389   -1.2983   -2.3170 C   0  0  0  0  0  0  0  0  0  0  0  0
    3.1991   -1.1158   -1.4099 C   0  0  0  0  0  0  0  0  0  0  0  0
    3.5151   -0.9117   -0.0977 C   0  0  0  0  0  0  0  0  0  0  0  0
   -1.7843   -1.3629   -1.3474 C   0  0  0  0  0  0  0  0  0  0  0  0
   -2.7297   -2.3646   -1.1180 C   0  0  0  0  0  0  0  0  0  0  0  0
  1  2  1  0
  2  3  1  0
  3  4  2  0
  4  5  1  0
  5  6  2  0
  6  7  1  0
  7  8  1  0
  8  9  1  0
  9 10  2  0
 10 11  1  0
 11 12  2  0
 12 13  1  0
 13 14  1  0
 13 15  2  0
  7 16  1  0
 16 17  2  0
 16 18  1  0
 18 19  1  0
 19 20  2  0
 20 21  1  0
 21 22  2  0
 22 23  1  0
 23 24  2  0
 24 25  1  0
 25 26  2  0
 26 27  1  0
 27 28  2  0
  6 29  1  0
 29 30  2  0
 30  3  1  0
 15  9  1  0
 28 19  1  0
 28 23  1  0
M  END
$$$$

     RDKit          3D

 33 37  0  0  0  0  0  0  0  0999 V2000
    4.8816    3.1122    2.8010 C   0  0  0  0  0  0  0  0  0  0  0  0
    3.8005    2.9316    1.8508 N   0  0  0  0  0  0  0  0  0  0  0  0
    3.4907    1.6338    1.3587 C   0  0  0  0  0  0  0  0  0  0  0  0
    4.1118    0.5949    1.7030 O   0  0  0  0  0  0  0  0  0  0  0  0
    2.3761    1.4848    0.3856 C   0  0  0  0  0  0  0  0  0  0  0  0
    2.2581    0.0986    0.0417 N   0  0  0  0  0  0  0  0  0  0  0  0
    1.4042   -0.8096    0.7958 C   0  0  0  0  0  0  0  0  0  0  0  0
    0.4242   -1.4208   -0.1514 C   0  0  2  0  0  0  0  0  0  0  0  0
   -0.3949   -0.2767   -0.6957 C   0  0  0  0  0  0  0  0  0  0  0  0
   -0.2903    0.3140   -1.7846 O   0  0  0  0  0  0  0  0  0  0  0  0
   -1.3590    0.0033    0.3404 N   0  0  0  0  0  0  0  0  0  0  0  0
   -2.1319    1.1815    0.5031 C   0  0  0  0  0  0  0  0  0  0  0  0
   -1.7134    2.2694    1.2476 C   0  0  0  0  0  0  0  0  0  0  0  0
   -2.4704    3.3716    1.3806 N   0  0  0  0  0  0  0  0  0  0  0  0
   -3.6794    3.4690    0.7916 C   0  0  0  0  0  0  0  0  0  0  0  0
   -4.1493    2.4147    0.0363 C   0  0  0  0  0  0  0  0  0  0  0  0
   -5.3903    2.5541   -0.5494 C   0  0  0  0  0  0  0  0  0  0  0  0
   -5.8934    1.5050   -1.3198 C   0  0  0  0  0  0  0  0  0  0  0  0
   -5.1146    0.3615   -1.4613 C   0  0  0  0  0  0  0  0  0  0  0  0
   -3.8701    0.2466   -0.8619 C   0  0  0  0  0  0  0  0  0  0  0  0
   -3.3690    1.2862   -0.0972 C   0  0  0  0  0  0  0  0  0  0  0  0
   -1.4466   -1.1272    1.2431 C   0  0  0  0  0  0  0  0  0  0  0  0
   -0.6420   -2.2248    0.5236 C   0  0  2  0  0  0  0  0  0  0  0  0
   -0.1712   -3.1279    1.5290 N   0  0  0  0  0  0  0  0  0  0  0  0
    1.1215   -2.0677   -1.2574 C   0  0  0  0  0  0  0  0  0  0  0  0
    0.6180   -3.1763   -1.9503 C   0  0  0  0  0  0  0  0  0  0  0  0
    1.2992   -3.7535   -2.9988 C   0  0  0  0  0  0  0  0  0  0  0  0
    0.6123   -5.1516   -3.8348 Cl  0  0  0  0  0  0  0  0  0  0  0  0
    2.5165   -3.2708   -3.4248 C   0  0  0  0  0  0  0  0  0  0  0  0
    3.0302   -2.1801   -2.7558 C   0  0  0  0  0  0  0  0  0  0  0  0
    2.3497   -1.6116   -1.7158 C   0  0  0  0  0  0  0  0  0  0  0  0
    2.9728   -0.4694   -1.0505 C   0  0  0  0  0  0  0  0  0  0  0  0
    4.0804    0.0152   -1.3958 O   0  0  0  0  0  0  0  0  0  0  0  0
  1  2  1  0
  2  3  1  0
  3  4  2  0
  3  5  1  0
  5  6  1  0
  6  7  1  0
  8  7  1  1
  8  9  1  0
  9 10  2  0
  9 11  1  0
 11 12  1  0
 12 13  2  0
 13 14  1  0
 14 15  2  0
 15 16  1  0
 16 17  2  0
 17 18  1  0
 18 19  2  0
 19 20  1  0
 20 21  2  0
 11 22  1  0
 22 23  1  0
 23 24  1  1
  8 25  1  0
 25 26  2  0
 26 27  1  0
 27 28  1  0
 27 29  2  0
 29 30  1  0
 30 31  2  0
 31 32  1  0
 32 33  2  0
 32  6  1  0
 23  8  1  0
 31 25  1  0
 21 12  1  0
 21 16  1  0
M  CHG  1  24   1
M  END
$$$$

     RDKit          3D

 42 48  0  0  0  0  0  0  0  0999 V2000
    3.4318   -0.9132    2.1003 O   0  0  0  0  0  0  0  0  0  0  0  0
    2.3520   -0.5020    1.5939 C   0  0  0  0  0  0  0  0  0  0  0  0
    1.1032   -0.3990    2.3320 C   0  0  0  0  0  0  0  0  0  0  0  0
    1.1441   -0.7586    3.6695 C   0  0  0  0  0  0  0  0  0  0  0  0
    0.0478   -0.6913    4.4813 C   0  0  0  0  0  0  0  0  0  0  0  0
   -1.1335   -0.2413    3.9088 C   0  0  0  0  0  0  0  0  0  0  0  0
   -2.5622   -0.1404    4.9181 Cl  0  0  0  0  0  0  0  0  0  0  0  0
   -1.1877    0.1249    2.5568 C   0  0  0  0  0  0  0  0  0  0  0  0
   -0.0836    0.0546    1.7493 C   0  0  0  0  0  0  0  0  0  0  0  0
   -0.0636    0.3973    0.3059 C   0  0  1  0  0  0  0  0  0  0  0  0
    1.3037    0.9052   -0.1073 C   0  0  0  0  0  0  0  0  0  0  0  0
    2.3245   -0.1118    0.2247 N   0  0  0  0  0  0  0  0  0  0  0  0
    3.2129   -0.6574   -0.7729 C   0  0  0  0  0  0  0  0  0  0  0  0
    4.4711    0.0632   -0.9534 C   0  0  0  0  0  0  0  0  0  0  0  0
    5.6006   -0.2841   -0.2365 C   0  0  0  0  0  0  0  0  0  0  0  0
    6.7730    0.4402   -0.4504 C   0  0  0  0  0  0  0  0  0  0  0  0
    6.8094    1.4597   -1.3374 N   0  0  0  0  0  0  0  0  0  0  0  0
    5.7209    1.7918   -2.0259 N   0  0  0  0  0  0  0  0  0  0  0  0
    4.5457    1.1148   -1.8550 C   0  0  0  0  0  0  0  0  0  0  0  0
   -0.2970   -0.9599   -0.3577 C   0  0  0  0  0  0  0  0  0  0  0  0
    0.5980   -1.8680   -0.4531 O   0  0  0  0  0  0  0  0  0  0  0  0
   -1.6384   -1.0093   -0.8237 N   0  0  0  0  0  0  0  0  0  0  0  0
   -2.4245   -2.1930   -0.8624 C   0  0  0  0  0  0  0  0  0  0  0  0
   -3.2322   -2.5174    0.2275 C   0  0  0  0  0  0  0  0  0  0  0  0
   -3.9938   -3.6031    0.2783 N   0  0  0  0  0  0  0  0  0  0  0  0
   -4.0234   -4.4563   -0.7351 C   0  0  0  0  0  0  0  0  0  0  0  0
   -3.2435   -4.1838   -1.8383 C   0  0  0  0  0  0  0  0  0  0  0  0
   -3.2806   -5.0807   -2.8853 C   0  0  0  0  0  0  0  0  0  0  0  0
   -2.5026   -4.8420   -4.0192 C   0  0  0  0  0  0  0  0  0  0  0  0
   -1.6970   -3.6987   -4.0796 C   0  0  0  0  0  0  0  0  0  0  0  0
   -1.6554   -2.7961   -3.0344 C   0  0  0  0  0  0  0  0  0  0  0  0
   -2.4391   -3.0655   -1.9277 C   0  0  0  0  0  0  0  0  0  0  0  0
   -1.9618    0.3421   -1.2049 C   0  0  0  0  0  0  0  0  0  0  0  0
   -1.1612    1.2227   -0.2054 C   0  0  2  0  0  0  0  0  0  0  0  0
   -0.8542    2.4867   -0.9243 C   0  0  0  0  0  0  0  0  0  0  0  0
   -0.1416    3.4746   -0.1754 N   0  0  0  0  0  0  0  0  0  0  0  0
   -0.6079    4.1942    0.9449 C   0  0  0  0  0  0  0  0  0  0  0  0
   -1.9009    4.1883    1.4045 C   0  0  0  0  0  0  0  0  0  0  0  0
   -2.2992    4.9087    2.5372 C   0  0  0  0  0  0  0  0  0  0  0  0
   -1.3576    5.6239    3.1766 N   0  0  0  0  0  0  0  0  0  0  0  0
   -0.0876    5.6374    2.7344 C   0  0  0  0  0  0  0  0  0  0  0  0
    0.2705    4.9420    1.6516 N   0  0  0  0  0  0  0  0  0  0  0  0
  1  2  2  0
  2  3  1  0
  3  4  2  0
  4  5  1  0
  5  6  2  0
  6  7  1  0
  6  8  1  0
  8  9  2  0
  9 10  1  0
 10 11  1  6
 11 12  1  0
 12 13  1  0
 13 14  1  0
 14 15  2  0
 15 16  1  0
 16 17  2  0
 17 18  1  0
 18 19  2  0
 10 20  1  0
 20 21  2  0
 20 22  1  0
 22 23  1  0
 23 24  2  0
 24 25  1  0
 25 26  2  0
 26 27  1  0
 27 28  2  0
 28 29  1  0
 29 30  2  0
 30 31  1  0
 31 32  2  0
 22 33  1  0
 33 34  1  0
 34 35  1  6
 35 36  1  0
 36 37  1  0
 37 38  2  0
 38 39  1  0
 39 40  2  0
 40 41  1  0
 41 42  2  0
 12  2  1  0
 19 14  1  0
 32 23  1  0
 42 37  1  0
  9  3  1  0
 34 10  1  0
 32 27  1  0
M  END
$$$$

     RDKit          3D

 23 26  0  0  0  0  0  0  0  0999 V2000
   -3.7459   -0.0462   -1.6103 C   0  0  0  0  0  0  0  0  0  0  0  0
   -2.5917    0.4285   -0.7968 C   0  0  1  0  0  0  0  0  0  0  0  0
   -2.9858    0.6978    0.6438 C   0  0  0  0  0  0  0  0  0  0  0  0
   -3.1473    1.8153    1.2977 C   0  0  0  0  0  0  0  0  0  0  0  0
   -3.5089    1.7833    2.6486 C   0  0  0  0  0  0  0  0  0  0  0  0
   -3.6266   -0.0621    3.0042 S   0  0  0  0  0  0  0  0  0  0  0  0
   -3.1919   -0.5283    1.3554 C   0  0  0  0  0  0  0  0  0  0  0  0
   -3.0317   -1.8273    0.6749 C   0  0  0  0  0  0  0  0  0  0  0  0
   -1.8952   -1.8786   -0.3093 C   0  0  0  0  0  0  0  0  0  0  0  0
   -1.4928   -0.5646   -0.7409 N   0  0  0  0  0  0  0  0  0  0  0  0
   -0.1599   -0.1973   -1.0872 C   0  0  0  0  0  0  0  0  0  0  0  0
   -0.0138    1.0285   -1.4355 O   0  0  0  0  0  0  0  0  0  0  0  0
    0.9767   -1.1488   -1.0474 C   0  0  0  0  0  0  0  0  0  0  0  0
    1.9964   -0.8043   -0.0265 C   0  0  0  0  0  0  0  0  0  0  0  0
    1.8610   -1.4660    1.2043 C   0  0  0  0  0  0  0  0  0  0  0  0
    2.6969   -1.1927    2.2189 N   0  0  0  0  0  0  0  0  0  0  0  0
    3.6913   -0.2796    2.0957 C   0  0  0  0  0  0  0  0  0  0  0  0
    3.8299    0.3793    0.8740 C   0  0  0  0  0  0  0  0  0  0  0  0
    4.8705    1.3076    0.7674 C   0  0  0  0  0  0  0  0  0  0  0  0
    5.0064    1.9497   -0.4640 C   0  0  0  0  0  0  0  0  0  0  0  0
    4.1526    1.6761   -1.5162 C   0  0  0  0  0  0  0  0  0  0  0  0
    3.1382    0.7569   -1.3767 C   0  0  0  0  0  0  0  0  0  0  0  0
    2.9887    0.1242   -0.1928 C   0  0  0  0  0  0  0  0  0  0  0  0
  2  1  1  6
  2  3  1  0
  3  4  1  0
  4  5  2  0
  5  6  1  0
  6  7  1  0
  7  8  1  0
  8  9  1  0
  9 10  1  0
 10 11  1  0
 11 12  2  0
 11 13  1  0
 13 14  1  0
 14 15  2  0
 15 16  1  0
 16 17  2  0
 17 18  1  0
 18 19  2  0
 19 20  1  0
 20 21  2  0
 21 22  1  0
 22 23  2  0
 10  2  1  0
 23 14  1  0
  7  3  2  0
 23 18  1  0
M  END
$$$$

     RDKit          3D

 31 35  0  0  0  0  0  0  0  0999 V2000
   -1.5747   -0.3149   -2.9020 C   0  0  0  0  0  0  0  0  0  0  0  0
   -0.7082   -0.7776   -1.7823 C   0  0  1  0  0  0  0  0  0  0  0  0
    0.6574   -0.0720   -1.7906 C   0  0  0  0  0  0  0  0  0  0  0  0
    1.1566   -0.5390   -0.4878 N   0  0  0  0  0  0  0  0  0  0  0  0
    2.5105   -0.8388   -0.1687 C   0  0  0  0  0  0  0  0  0  0  0  0
    2.9066   -2.1592   -0.3924 C   0  0  0  0  0  0  0  0  0  0  0  0
    4.1744   -2.5669   -0.1262 N   0  0  0  0  0  0  0  0  0  0  0  0
    5.0657   -1.6720    0.3649 C   0  0  0  0  0  0  0  0  0  0  0  0
    4.6837   -0.3647    0.5895 C   0  0  0  0  0  0  0  0  0  0  0  0
    5.6236    0.5092    1.0894 C   0  0  0  0  0  0  0  0  0  0  0  0
    5.2213    1.8220    1.3093 C   0  0  0  0  0  0  0  0  0  0  0  0
    3.9380    2.2546    1.0449 C   0  0  0  0  0  0  0  0  0  0  0  0
    2.9905    1.3736    0.5409 C   0  0  0  0  0  0  0  0  0  0  0  0
    3.3995    0.0833    0.3288 C   0  0  0  0  0  0  0  0  0  0  0  0
    0.0098   -0.6305    0.3862 C   0  0  0  0  0  0  0  0  0  0  0  0
    0.0592   -0.9550    1.6046 O   0  0  0  0  0  0  0  0  0  0  0  0
   -1.2162   -0.2736   -0.4189 C   0  0  1  0  0  0  0  0  0  0  0  0
   -1.3230    1.2093   -0.4124 C   0  0  0  0  0  0  0  0  0  0  0  0
   -2.4023    1.7619    0.3657 N   0  0  0  0  0  0  0  0  0  0  0  0
   -2.2986    3.1772    0.7437 C   0  0  0  0  0  0  0  0  0  0  0  0
   -1.6138    3.3131    2.0306 C   0  0  0  0  0  0  0  0  0  0  0  0
   -1.0618    3.4286    3.0440 N   0  0  0  0  0  0  0  0  0  0  0  0
   -3.5458    1.0363    0.7852 C   0  0  0  0  0  0  0  0  0  0  0  0
   -4.5441    1.5946    1.2939 O   0  0  0  0  0  0  0  0  0  0  0  0
   -3.5202   -0.4096    0.6010 C   0  0  0  0  0  0  0  0  0  0  0  0
   -4.6170   -1.1165    1.0121 C   0  0  0  0  0  0  0  0  0  0  0  0
   -4.6738   -2.4814    0.8847 C   0  0  0  0  0  0  0  0  0  0  0  0
   -3.5782   -3.1056    0.3252 C   0  0  0  0  0  0  0  0  0  0  0  0
   -3.6191   -4.4651    0.1915 F   0  0  0  0  0  0  0  0  0  0  0  0
   -2.4547   -2.3812   -0.0960 C   0  0  0  0  0  0  0  0  0  0  0  0
   -2.3954   -1.0099    0.0306 C   0  0  0  0  0  0  0  0  0  0  0  0
  2  1  1  6
  2  3  1  0
  3  4  1  0
  4  5  1  0
  5  6  2  0
  6  7  1  0
  7  8  2  0
  8  9  1  0
  9 10  2  0
 10 11  1  0
 11 12  2  0
 12 13  1  0
 13 14  2  0
  4 15  1  0
 15 16  2  0
 15 17  1  0
 17 18  1  6
 18 19  1  0
 19 20  1  0
 20 21  1  0
 21 22  3  0
 19 23  1  0
 23 24  2  0
 23 25  1  0
 25 26  2  0
 26 27  1  0
 27 28  2  0
 28 29  1  0
 28 30  1  0
 30 31  2  0
 17  2  1  0
 31 25  1  0
 14  5  1  0
 31 17  1  0
 14  9  1  0
M  END
$$$$

     RDKit          3D

 36 40  0  0  0  0  0  0  0  0999 V2000
   -6.2929    0.4754   -0.5642 C   0  0  0  0  0  0  0  0  0  0  0  0
   -5.8130   -0.9881   -0.8676 C   0  0  0  0  0  0  0  0  0  0  0  0
   -4.3929   -1.1000   -0.6455 C   0  0  0  0  0  0  0  0  0  0  0  0
   -3.8869   -0.0093   -0.2316 O   0  0  0  0  0  0  0  0  0  0  0  0
   -3.3678   -2.0362   -0.7365 N   0  0  1  0  0  0  0  0  0  0  0  0
   -2.5354   -1.8345   -1.8652 C   0  0  0  0  0  0  0  0  0  0  0  0
   -2.2407   -0.4169   -2.1646 C   0  0  0  0  0  0  0  0  0  0  0  0
   -1.2840    0.0690   -1.0941 C   0  0  0  0  0  0  0  0  0  0  0  0
   -1.3718   -0.7955    0.0922 C   0  0  0  0  0  0  0  0  0  0  0  0
   -0.4338   -0.6207    1.0862 C   0  0  0  0  0  0  0  0  0  0  0  0
    0.6047    0.3878    1.0212 N   0  0  0  0  0  0  0  0  0  0  0  0
    0.4812    1.6344    1.6996 C   0  0  0  0  0  0  0  0  0  0  0  0
   -0.1889    2.7375    1.0305 C   0  0  0  0  0  0  0  0  0  0  0  0
    0.3736    3.6625    0.2006 C   0  0  0  0  0  0  0  0  0  0  0  0
   -0.3383    4.7035   -0.3867 C   0  0  0  0  0  0  0  0  0  0  0  0
   -1.6750    4.8343   -0.1385 C   0  0  0  0  0  0  0  0  0  0  0  0
   -2.2840    3.9203    0.6957 C   0  0  0  0  0  0  0  0  0  0  0  0
   -4.0003    4.1294    0.9846 Cl  0  0  0  0  0  0  0  0  0  0  0  0
   -1.5637    2.8911    1.2717 C   0  0  0  0  0  0  0  0  0  0  0  0
    1.7527   -0.0124    0.2726 C   0  0  0  0  0  0  0  0  0  0  0  0
    1.7978   -1.1830   -0.2244 O   0  0  0  0  0  0  0  0  0  0  0  0
    2.9281    0.8484    0.0226 C   0  0  0  0  0  0  0  0  0  0  0  0
    3.9743    0.1123   -0.7506 C   0  0  0  0  0  0  0  0  0  0  0  0
    4.2159    0.2953   -2.0750 C   0  0  0  0  0  0  0  0  0  0  0  0
    5.1748   -0.4067   -2.6998 N   0  0  0  0  0  0  0  0  0  0  0  0
    5.9396   -1.3172   -2.0612 C   0  0  0  0  0  0  0  0  0  0  0  0
    5.7315   -1.5405   -0.7072 C   0  0  0  0  0  0  0  0  0  0  0  0
    6.4691   -2.4480    0.0059 C   0  0  0  0  0  0  0  0  0  0  0  0
    6.2980   -2.7010    1.3459 C   0  0  0  0  0  0  0  0  0  0  0  0
    5.3100   -1.9791    1.9940 C   0  0  0  0  0  0  0  0  0  0  0  0
    4.5627   -1.0629    1.2820 C   0  0  0  0  0  0  0  0  0  0  0  0
    4.7374   -0.8130   -0.0586 C   0  0  0  0  0  0  0  0  0  0  0  0
   -0.4010   -1.3822    2.2473 C   0  0  0  0  0  0  0  0  0  0  0  0
   -1.3374   -2.3695    2.4484 C   0  0  0  0  0  0  0  0  0  0  0  0
   -2.2754   -2.5349    1.4415 C   0  0  0  0  0  0  0  0  0  0  0  0
   -2.3096   -1.7843    0.2938 C   0  0  0  0  0  0  0  0  0  0  0  0
  1  2  1  0
  2  3  1  0
  3  4  2  0
  5  3  1  1
  5  6  1  0
  6  7  1  0
  7  8  1  0
  8  9  1  0
  9 10  2  0
 10 11  1  0
 11 12  1  0
 12 13  1  0
 13 14  2  0
 14 15  1  0
 15 16  2  0
 16 17  1  0
 17 18  1  0
 17 19  2  0
 11 20  1  0
 20 21  2  0
 20 22  1  0
 22 23  1  0
 23 24  2  0
 24 25  1  0
 25 26  2  0
 26 27  1  0
 27 28  2  0
 28 29  1  0
 29 30  2  0
 30 31  1  0
 31 32  2  0
 10 33  1  0
 33 34  2  0
 34 35  1  0
 35 36  2  0
 36  5  1  0
 36  9  1  0
 19 13  1  0
 32 23  1  0
 32 27  1  0
M  CHG  1   5   1
M  END
$$$$

     RDKit          3D

 19 21  0  0  0  0  0  0  0  0999 V2000
    0.1433    0.2558   -1.2384 O   0  0  0  0  0  0  0  0  0  0  0  0
   -0.4560   -0.1524   -0.2096 C   0  0  0  0  0  0  0  0  0  0  0  0
    0.2477   -1.0936    0.6693 C   0  0  0  0  0  0  0  0  0  0  0  0
    1.5811   -1.3332    0.0637 C   0  0  0  0  0  0  0  0  0  0  0  0
    1.8953   -2.5027   -0.6184 C   0  0  0  0  0  0  0  0  0  0  0  0
    3.1216   -2.6815   -1.1545 N   0  0  0  0  0  0  0  0  0  0  0  0
    4.0999   -1.7621   -1.0672 C   0  0  0  0  0  0  0  0  0  0  0  0
    3.8174   -0.5971   -0.3990 C   0  0  0  0  0  0  0  0  0  0  0  0
    4.8386    0.3542   -0.3118 C   0  0  0  0  0  0  0  0  0  0  0  0
    4.5961    1.5326    0.3486 C   0  0  0  0  0  0  0  0  0  0  0  0
    3.3463    1.7347    0.9047 C   0  0  0  0  0  0  0  0  0  0  0  0
    2.3272    0.8154    0.8323 C   0  0  0  0  0  0  0  0  0  0  0  0
    2.5738   -0.3724    0.1656 C   0  0  0  0  0  0  0  0  0  0  0  0
   -1.7734    0.3344    0.0188 N   0  0  0  0  0  0  0  0  0  0  0  0
   -2.3230    1.2668   -0.9529 C   0  0  0  0  0  0  0  0  0  0  0  0
   -3.6829    0.7139   -1.3501 C   0  0  0  0  0  0  0  0  0  0  0  0
   -4.5402    0.7700   -0.1018 C   0  0  0  0  0  0  0  0  0  0  0  0
   -4.0040   -0.2331    0.8848 C   0  0  0  0  0  0  0  0  0  0  0  0
   -2.5402   -0.0724    1.1608 C   0  0  0  0  0  0  0  0  0  0  0  0
  1  2  2  0
  2  3  1  0
  3  4  1  0
  4  5  2  0
  5  6  1  0
  6  7  2  0
  7  8  1  0
  8  9  2  0
  9 10  1  0
 10 11  2  0
 11 12  1  0
 12 13  2  0
  2 14  1  0
 14 15  1  0
 15 16  1  0
 16 17  1  0
 17 18  1  0
 18 19  1  0
 13  4  1  0
 19 14  1  0
 13  8  1  0
M  END
$$$$

     RDKit          3D

 38 43  0  0  0  0  0  0  0  0999 V2000
   -0.6253   -1.7788    2.5011 C   0  0  0  0  0  0  0  0  0  0  0  0
   -1.7305   -1.5910    1.5080 C   0  0  1  0  0  0  0  0  0  0  0  0
   -2.4138   -0.2261    1.6700 C   0  0  0  0  0  0  0  0  0  0  0  0
   -3.2098   -0.2263    0.4555 N   0  0  0  0  0  0  0  0  0  0  0  0
   -4.5073    0.3534    0.3723 C   0  0  0  0  0  0  0  0  0  0  0  0
   -5.6247   -0.4099    0.6514 C   0  0  0  0  0  0  0  0  0  0  0  0
   -6.8799    0.0722    0.5927 N   0  0  0  0  0  0  0  0  0  0  0  0
   -7.0411    1.3579    0.2452 C   0  0  0  0  0  0  0  0  0  0  0  0
   -5.9902    2.2045   -0.0530 C   0  0  0  0  0  0  0  0  0  0  0  0
   -6.1713    3.5239   -0.4087 C   0  0  0  0  0  0  0  0  0  0  0  0
   -5.0807    4.3248   -0.6966 C   0  0  0  0  0  0  0  0  0  0  0  0
   -3.7910    3.8071   -0.6301 C   0  0  0  0  0  0  0  0  0  0  0  0
   -3.6623    2.4771   -0.2684 C   0  0  0  0  0  0  0  0  0  0  0  0
   -4.7204    1.6702    0.0192 C   0  0  0  0  0  0  0  0  0  0  0  0
   -2.4500   -0.8887   -0.5509 C   0  0  0  0  0  0  0  0  0  0  0  0
   -2.7983   -1.0130   -1.7629 O   0  0  0  0  0  0  0  0  0  0  0  0
   -1.1872   -1.3972    0.0920 C   0  0  1  0  0  0  0  0  0  0  0  0
   -0.1735   -0.3169    0.1193 C   0  0  0  0  0  0  0  0  0  0  0  0
    0.9421   -0.4561   -0.7598 N   0  0  0  0  0  0  0  0  0  0  0  0
    1.7045    0.7061   -1.1195 C   0  0  0  0  0  0  0  0  0  0  0  0
    2.8358    0.9369   -0.1535 C   0  0  0  0  0  0  0  0  0  0  0  0
    2.9738    0.1320    0.8014 O   0  0  0  0  0  0  0  0  0  0  0  0
    3.7014    2.0430   -0.3483 N   0  0  0  0  0  0  0  0  0  0  0  0
    4.8184    2.3569    0.5186 C   0  0  0  0  0  0  0  0  0  0  0  0
    5.8333    1.2762    0.5853 C   0  0  0  0  0  0  0  0  0  0  0  0
    5.9405    0.2131    1.4554 C   0  0  0  0  0  0  0  0  0  0  0  0
    7.0536   -0.5344    1.1254 C   0  0  0  0  0  0  0  0  0  0  0  0
    7.6014    0.0747    0.0743 N   0  0  0  0  0  0  0  0  0  0  0  0
    6.8777    1.1556   -0.2524 N   0  0  0  0  0  0  0  0  0  0  0  0
    7.2144    2.0386   -1.3613 C   0  0  0  0  0  0  0  0  0  0  0  0
    1.3489   -1.7124   -1.3111 C   0  0  0  0  0  0  0  0  0  0  0  0
    2.4594   -1.8336   -1.9202 O   0  0  0  0  0  0  0  0  0  0  0  0
    0.4595   -2.8436   -1.1556 C   0  0  0  0  0  0  0  0  0  0  0  0
    0.8513   -4.0488   -1.6861 C   0  0  0  0  0  0  0  0  0  0  0  0
    0.0381   -5.1560   -1.5646 C   0  0  0  0  0  0  0  0  0  0  0  0
   -1.1489   -5.0020   -0.9067 C   0  0  0  0  0  0  0  0  0  0  0  0
   -1.5466   -3.7775   -0.3680 C   0  0  0  0  0  0  0  0  0  0  0  0
   -0.7412   -2.6638   -0.4836 C   0  0  0  0  0  0  0  0  0  0  0  0
  2  1  1  1
  2  3  1  0
  3  4  1  0
  4  5  1  0
  5  6  2  0
  6  7  1  0
  7  8  2  0
  8  9  1  0
  9 10  2  0
 10 11  1  0
 11 12  2  0
 12 13  1  0
 13 14  2  0
  4 15  1  0
 15 16  2  0
 15 17  1  0
 17 18  1  1
 18 19  1  0
 19 20  1  0
 20 21  1  0
 21 22  2  0
 21 23  1  0
 23 24  1  0
 24 25  1  0
 25 26  2  0
 26 27  1  0
 27 28  2  0
 28 29  1  0
 29 30  1  0
 19 31  1  0
 31 32  2  0
 31 33  1  0
 33 34  2  0
 34 35  1  0
 35 36  2  0
 36 37  1  0
 37 38  2  0
 17  2  1  0
 29 25  1  0
 38 33  1  0
 14  5  1  0
 38 17  1  0
 14  9  1  0
M  END
$$$$

     RDKit          3D

 35 40  0  0  0  0  0  0  0  0999 V2000
    7.1713    0.7961    2.2592 C   0  0  0  0  0  0  0  0  0  0  0  0
    6.1735    1.2094    1.2405 C   0  0  0  0  0  0  0  0  0  0  0  0
    4.8140    1.1877    1.4719 C   0  0  0  0  0  0  0  0  0  0  0  0
    4.2371    1.6381    0.2976 C   0  0  0  0  0  0  0  0  0  0  0  0
    2.8108    1.8268   -0.0450 C   0  0  0  0  0  0  0  0  0  0  0  0
    2.2252    0.6276   -0.6300 N   0  0  0  0  0  0  0  0  0  0  0  0
    1.5919   -0.4047    0.1658 C   0  0  0  0  0  0  0  0  0  0  0  0
    0.2483   -0.8098   -0.3751 C   0  0  2  0  0  0  0  0  0  0  0  0
   -0.8010    0.2165   -0.0750 C   0  0  0  0  0  0  0  0  0  0  0  0
   -0.6825    1.4698   -0.0492 O   0  0  0  0  0  0  0  0  0  0  0  0
   -2.0199   -0.5098    0.1900 N   0  0  0  0  0  0  0  0  0  0  0  0
   -3.3303   -0.0221   -0.0737 C   0  0  0  0  0  0  0  0  0  0  0  0
   -3.9370   -0.2554   -1.3040 C   0  0  0  0  0  0  0  0  0  0  0  0
   -5.1760    0.1958   -1.5776 N   0  0  0  0  0  0  0  0  0  0  0  0
   -5.8614    0.9000   -0.6313 C   0  0  0  0  0  0  0  0  0  0  0  0
   -5.2811    1.1442    0.5963 C   0  0  0  0  0  0  0  0  0  0  0  0
   -5.9789    1.8626    1.5633 C   0  0  0  0  0  0  0  0  0  0  0  0
   -5.4225    2.1266    2.8125 C   0  0  0  0  0  0  0  0  0  0  0  0
   -4.1355    1.6476    3.0716 C   0  0  0  0  0  0  0  0  0  0  0  0
   -3.4243    0.9354    2.1344 C   0  0  0  0  0  0  0  0  0  0  0  0
   -4.0128    0.6903    0.8954 C   0  0  0  0  0  0  0  0  0  0  0  0
   -1.6415   -1.8023    0.7642 C   0  0  0  0  0  0  0  0  0  0  0  0
   -0.2273   -2.0557    0.2971 C   0  0  2  0  0  0  0  0  0  0  0  0
    0.5859   -2.3982    1.5336 C   0  0  0  0  0  0  0  0  0  0  0  0
    0.2743   -1.0264   -1.8300 C   0  0  0  0  0  0  0  0  0  0  0  0
   -0.6918   -1.8440   -2.4157 C   0  0  0  0  0  0  0  0  0  0  0  0
   -0.6429   -2.0291   -3.7823 C   0  0  0  0  0  0  0  0  0  0  0  0
   -1.5936   -2.8308   -4.3402 F   0  0  0  0  0  0  0  0  0  0  0  0
    0.3151   -1.4430   -4.5865 C   0  0  0  0  0  0  0  0  0  0  0  0
    1.2804   -0.6257   -3.9997 C   0  0  0  0  0  0  0  0  0  0  0  0
    1.2363   -0.4358   -2.6252 C   0  0  0  0  0  0  0  0  0  0  0  0
    2.2542    0.4195   -2.0468 C   0  0  0  0  0  0  0  0  0  0  0  0
    3.1549    0.9818   -2.7341 O   0  0  0  0  0  0  0  0  0  0  0  0
    5.2127    1.8984   -0.5460 O   0  0  0  0  0  0  0  0  0  0  0  0
    6.3589    1.6539   -0.0136 N   0  0  0  0  0  0  0  0  0  0  0  0
  1  2  1  0
  2  3  1  0
  3  4  2  0
  4  5  1  0
  5  6  1  0
  6  7  1  0
  8  7  1  1
  8  9  1  0
  9 10  2  0
  9 11  1  0
 11 12  1  0
 12 13  2  0
 13 14  1  0
 14 15  2  0
 15 16  1  0
 16 17  2  0
 17 18  1  0
 18 19  2  0
 19 20  1  0
 20 21  2  0
 11 22  1  0
 22 23  1  0
 23 24  1  1
  8 25  1  0
 25 26  2  0
 26 27  1  0
 27 28  1  0
 27 29  2  0
 29 30  1  0
 30 31  2  0
 31 32  1  0
 32 33  2  0
  4 34  1  0
 34 35  1  0
 35  2  2  0
 32  6  1  0
 23  8  1  0
 31 25  1  0
 21 12  1  0
 21 16  1  0
M  END
$$$$

     RDKit          3D

 38 43  0  0  0  0  0  0  0  0999 V2000
   -7.2786    0.5615   -2.2783 C   0  0  0  0  0  0  0  0  0  0  0  0
   -6.3840    0.7736   -1.0747 C   0  0  1  0  0  0  0  0  0  0  0  0
   -5.0471    0.1630   -1.4324 C   0  0  0  0  0  0  0  0  0  0  0  0
   -4.0338    0.8510   -0.6640 N   0  0  0  0  0  0  0  0  0  0  0  0
   -2.8311    0.0598   -0.5299 C   0  0  0  0  0  0  0  0  0  0  0  0
   -2.1554    0.2288    0.8216 C   0  0  0  0  0  0  0  0  0  0  0  0
   -0.9764   -0.6229    0.7989 N   0  0  0  0  0  0  0  0  0  0  0  0
    0.2638   -0.0572    0.3228 C   0  0  0  0  0  0  0  0  0  0  0  0
    1.3818   -1.0126    0.1195 C   0  0  2  0  0  0  0  0  0  0  0  0
    2.6340   -0.5032    0.7996 C   0  0  0  0  0  0  0  0  0  0  0  0
    2.8258   -0.3897    2.0405 O   0  0  0  0  0  0  0  0  0  0  0  0
    3.6010   -0.1566   -0.1814 N   0  0  0  0  0  0  0  0  0  0  0  0
    5.0031   -0.0738    0.0476 C   0  0  0  0  0  0  0  0  0  0  0  0
    5.8139   -1.1960   -0.1340 C   0  0  0  0  0  0  0  0  0  0  0  0
    7.1420   -1.1242    0.0816 N   0  0  0  0  0  0  0  0  0  0  0  0
    7.7656   -0.0076    0.4735 C   0  0  0  0  0  0  0  0  0  0  0  0
    6.9902    1.1246    0.6629 C   0  0  0  0  0  0  0  0  0  0  0  0
    7.6203    2.2999    1.0716 C   0  0  0  0  0  0  0  0  0  0  0  0
    6.8677    3.4399    1.2665 C   0  0  0  0  0  0  0  0  0  0  0  0
    5.5121    3.3983    1.0550 C   0  0  0  0  0  0  0  0  0  0  0  0
    4.8944    2.2320    0.6506 C   0  0  0  0  0  0  0  0  0  0  0  0
    5.6237    1.0936    0.4527 C   0  0  0  0  0  0  0  0  0  0  0  0
    2.8794    0.0900   -1.4395 C   0  0  0  0  0  0  0  0  0  0  0  0
    1.8119   -0.9828   -1.3327 C   0  0  2  0  0  0  0  0  0  0  0  0
    0.7042   -0.5877   -2.2792 C   0  0  0  0  0  0  0  0  0  0  0  0
    1.1601   -2.3740    0.6076 C   0  0  0  0  0  0  0  0  0  0  0  0
    2.2228   -3.2678    0.5221 C   0  0  0  0  0  0  0  0  0  0  0  0
    2.1186   -4.5641    0.9484 C   0  0  0  0  0  0  0  0  0  0  0  0
    3.4749   -5.6762    0.8306 Cl  0  0  0  0  0  0  0  0  0  0  0  0
    0.9484   -5.0537    1.4874 C   0  0  0  0  0  0  0  0  0  0  0  0
   -0.1138   -4.1722    1.5765 C   0  0  0  0  0  0  0  0  0  0  0  0
   -0.0049   -2.8622    1.1447 C   0  0  0  0  0  0  0  0  0  0  0  0
   -1.1364   -1.9531    1.2513 C   0  0  0  0  0  0  0  0  0  0  0  0
   -2.2192   -2.3374    1.7294 O   0  0  0  0  0  0  0  0  0  0  0  0
   -4.5926    1.3075    0.5688 C   0  0  0  0  0  0  0  0  0  0  0  0
   -5.5324    2.4734    0.2314 C   0  0  2  0  0  0  0  0  0  0  0  0
   -6.3939    2.8178    1.4265 C   0  0  0  0  0  0  0  0  0  0  0  0
   -6.2772    2.1323   -0.8761 O   0  0  0  0  0  0  0  0  0  0  0  0
  2  1  1  6
  2  3  1  0
  3  4  1  0
  4  5  1  0
  5  6  1  0
  6  7  1  0
  7  8  1  0
  9  8  1  6
  9 10  1  0
 10 11  2  0
 10 12  1  0
 12 13  1  0
 13 14  2  0
 14 15  1  0
 15 16  2  0
 16 17  1  0
 17 18  2  0
 18 19  1  0
 19 20  2  0
 20 21  1  0
 21 22  2  0
 12 23  1  0
 23 24  1  0
 24 25  1  6
  9 26  1  0
 26 27  2  0
 27 28  1  0
 28 29  1  0
 28 30  2  0
 30 31  1  0
 31 32  2  0
 32 33  1  0
 33 34  2  0
  4 35  1  0
 35 36  1  0
 36 37  1  1
 36 38  1  0
 38  2  1  0
 33  7  1  0
 24  9  1  0
 32 26  1  0
 22 13  1  0
 22 17  1  0
M  CHG  1   4   1
M  END
$$$$

     RDKit          3D

 28 31  0  0  0  0  0  0  0  0999 V2000
   -1.7336    0.7390    3.1915 C   0  0  0  0  0  0  0  0  0  0  0  0
   -1.5566   -0.0044    1.9995 O   0  0  0  0  0  0  0  0  0  0  0  0
   -2.4810    0.1951    0.9830 C   0  0  0  0  0  0  0  0  0  0  0  0
   -3.5396    1.0742    1.0975 C   0  0  0  0  0  0  0  0  0  0  0  0
   -4.4624    1.2783    0.0918 C   0  0  0  0  0  0  0  0  0  0  0  0
   -4.3413    0.5795   -1.0973 C   0  0  0  0  0  0  0  0  0  0  0  0
   -3.2842   -0.3033   -1.2213 C   0  0  0  0  0  0  0  0  0  0  0  0
   -2.3607   -0.4998   -0.1995 C   0  0  0  0  0  0  0  0  0  0  0  0
   -1.2743   -1.4735   -0.4530 C   0  0  2  0  0  0  0  0  0  0  0  0
   -1.6314   -2.8701   -0.0474 C   0  0  0  0  0  0  0  0  0  0  0  0
   -0.4304   -3.7529   -0.4140 C   0  0  2  0  0  0  0  0  0  0  0  0
   -0.8362   -5.1805   -0.2191 C   0  0  0  0  0  0  0  0  0  0  0  0
    0.7557   -3.4220    0.4657 C   0  0  0  0  0  0  0  0  0  0  0  0
    0.5566   -2.0799    1.1665 C   0  0  0  0  0  0  0  0  0  0  0  0
   -0.0518   -1.1160    0.2890 N   0  0  0  0  0  0  0  0  0  0  0  0
    0.4413    0.1935    0.0698 C   0  0  0  0  0  0  0  0  0  0  0  0
   -0.0999    1.0297   -0.7003 O   0  0  0  0  0  0  0  0  0  0  0  0
    1.6643    0.6013    0.7889 C   0  0  0  0  0  0  0  0  0  0  0  0
    2.0584    2.0062    0.4592 C   0  0  0  0  0  0  0  0  0  0  0  0
    1.8321    3.0367    1.3448 C   0  0  0  0  0  0  0  0  0  0  0  0
    2.1789    4.3209    1.0747 N   0  0  0  0  0  0  0  0  0  0  0  0
    2.7741    4.6587   -0.0973 C   0  0  0  0  0  0  0  0  0  0  0  0
    3.0232    3.6478   -1.0253 C   0  0  0  0  0  0  0  0  0  0  0  0
    3.6308    3.9249   -2.2474 C   0  0  0  0  0  0  0  0  0  0  0  0
    3.8877    2.9430   -3.1817 C   0  0  0  0  0  0  0  0  0  0  0  0
    3.5142    1.6524   -2.8558 C   0  0  0  0  0  0  0  0  0  0  0  0
    2.9092    1.3286   -1.6570 C   0  0  0  0  0  0  0  0  0  0  0  0
    2.6653    2.3341   -0.7423 C   0  0  0  0  0  0  0  0  0  0  0  0
  1  2  1  0
  2  3  1  0
  3  4  2  0
  4  5  1  0
  5  6  2  0
  6  7  1  0
  7  8  2  0
  9  8  1  1
  9 10  1  0
 10 11  1  0
 11 12  1  1
 11 13  1  0
 13 14  1  0
 14 15  1  0
 15 16  1  0
 16 17  2  0
 16 18  1  0
 18 19  1  0
 19 20  2  0
 20 21  1  0
 21 22  2  0
 22 23  1  0
 23 24  2  0
 24 25  1  0
 25 26  2  0
 26 27  1  0
 27 28  2  0
  8  3  1  0
 15  9  1  0
 28 19  1  0
 28 23  1  0
M  END
$$$$

     RDKit          3D

 24 27  0  0  0  0  0  0  0  0999 V2000
    0.9640    0.0598    2.0493 O   0  0  0  0  0  0  0  0  0  0  0  0
    0.6703   -0.7376    1.0865 C   0  0  0  0  0  0  0  0  0  0  0  0
    1.7208   -1.6583    0.5226 C   0  0  0  0  0  0  0  0  0  0  0  0
    2.7065   -0.9185   -0.2848 C   0  0  0  0  0  0  0  0  0  0  0  0
    2.4647   -0.8906   -1.6662 C   0  0  0  0  0  0  0  0  0  0  0  0
    3.2527   -0.1931   -2.5129 N   0  0  0  0  0  0  0  0  0  0  0  0
    4.3112    0.4980   -1.9977 C   0  0  0  0  0  0  0  0  0  0  0  0
    4.5641    0.4806   -0.6525 C   0  0  0  0  0  0  0  0  0  0  0  0
    5.6490    1.2010   -0.2025 C   0  0  0  0  0  0  0  0  0  0  0  0
    5.9061    1.1834    1.1497 C   0  0  0  0  0  0  0  0  0  0  0  0
    5.1281    0.4817    2.0582 C   0  0  0  0  0  0  0  0  0  0  0  0
    4.0499   -0.2250    1.5534 C   0  0  0  0  0  0  0  0  0  0  0  0
    3.7785   -0.2197    0.2314 C   0  0  0  0  0  0  0  0  0  0  0  0
   -0.6688   -0.7272    0.5551 N   0  0  0  0  0  0  0  0  0  0  0  0
   -1.2055   -1.5003   -0.5454 C   0  0  0  0  0  0  0  0  0  0  0  0
   -2.6937   -1.3359   -0.3876 C   0  0  2  0  0  0  0  0  0  0  0  0
   -3.2907   -1.5360   -1.7648 C   0  0  0  0  0  0  0  0  0  0  0  0
   -4.6592   -1.4132   -1.7758 F   0  0  0  0  0  0  0  0  0  0  0  0
   -2.8577    0.0285    0.1610 C   0  0  0  0  0  0  0  0  0  0  0  0
   -4.1891    0.2528    0.8488 C   0  0  0  0  0  0  0  0  0  0  0  0
   -4.5570    1.7016    0.6456 C   0  0  0  0  0  0  0  0  0  0  0  0
   -3.3152    2.3188    0.0418 C   0  0  0  0  0  0  0  0  0  0  0  0
   -2.8126    1.1601   -0.8104 C   0  0  0  0  0  0  0  0  0  0  0  0
   -1.7072    0.1415    1.1076 C   0  0  0  0  0  0  0  0  0  0  0  0
  1  2  2  0
  2  3  1  0
  3  4  1  0
  4  5  2  0
  5  6  1  0
  6  7  2  0
  7  8  1  0
  8  9  2  0
  9 10  1  0
 10 11  2  0
 11 12  1  0
 12 13  2  0
  2 14  1  0
 14 15  1  0
 15 16  1  0
 16 17  1  6
 17 18  1  0
 16 19  1  0
 19 20  1  0
 20 21  1  0
 21 22  1  0
 22 23  1  0
 19 24  1  0
 13  4  1  0
 24 14  1  0
 13  8  1  0
 23 19  1  0
M  END
$$$$

     RDKit          3D

 38 43  0  0  0  0  0  0  0  0999 V2000
    5.3241   -3.6091   -1.8615 C   0  0  0  0  0  0  0  0  0  0  0  0
    4.1134   -3.2090   -1.1498 N   0  0  0  0  0  0  0  0  0  0  0  0
    2.9182   -3.8894   -1.5050 C   0  0  0  0  0  0  0  0  0  0  0  0
    2.9229   -4.7962   -2.3982 O   0  0  0  0  0  0  0  0  0  0  0  0
    1.6002   -3.6060   -0.8801 C   0  0  0  0  0  0  0  0  0  0  0  0
    1.6695   -2.5617    0.1287 N   0  0  0  0  0  0  0  0  0  0  0  0
    1.4855   -1.1572   -0.1715 C   0  0  0  0  0  0  0  0  0  0  0  0
    0.4070   -0.5202    0.7137 C   0  0  2  0  0  0  0  0  0  0  0  0
   -0.9422   -0.9754    0.2788 C   0  0  0  0  0  0  0  0  0  0  0  0
   -1.3093   -2.1880    0.3249 O   0  0  0  0  0  0  0  0  0  0  0  0
   -1.7186    0.1250   -0.1773 N   0  0  0  0  0  0  0  0  0  0  0  0
   -2.8946    0.0102   -0.9805 C   0  0  0  0  0  0  0  0  0  0  0  0
   -2.6819    0.0276   -2.3582 C   0  0  0  0  0  0  0  0  0  0  0  0
   -3.6974   -0.0720   -3.2373 N   0  0  0  0  0  0  0  0  0  0  0  0
   -4.9401   -0.1904   -2.7550 C   0  0  0  0  0  0  0  0  0  0  0  0
   -5.2029   -0.2126   -1.3910 C   0  0  0  0  0  0  0  0  0  0  0  0
   -6.4936   -0.3357   -0.9261 C   0  0  0  0  0  0  0  0  0  0  0  0
   -6.7207   -0.3544    0.4407 C   0  0  0  0  0  0  0  0  0  0  0  0
   -5.6544   -0.2499    1.3195 C   0  0  0  0  0  0  0  0  0  0  0  0
   -4.3473   -0.1253    0.8691 C   0  0  0  0  0  0  0  0  0  0  0  0
   -4.1527   -0.1096   -0.4818 C   0  0  0  0  0  0  0  0  0  0  0  0
   -1.0963    1.3428    0.3204 C   0  0  0  0  0  0  0  0  0  0  0  0
    0.3529    0.9557    0.5390 C   0  0  2  0  0  0  0  0  0  0  0  0
    1.1109    1.4705   -0.6535 C   0  0  0  0  0  0  0  0  0  0  0  0
    0.9274    2.8731   -0.6277 O   0  0  0  0  0  0  0  0  0  0  0  0
    1.5594    3.5179   -1.6592 C   0  0  0  0  0  0  0  0  0  0  0  0
    1.2700    5.0152   -1.4954 C   0  0  0  0  0  0  0  0  0  0  0  0
    1.7797    5.5844   -0.1623 C   0  0  0  0  0  0  0  0  0  0  0  0
    2.3856    5.9833   -1.4554 C   0  0  0  0  0  0  0  0  0  0  0  0
    0.6673   -0.8653    2.1324 C   0  0  0  0  0  0  0  0  0  0  0  0
    0.2124   -0.0923    3.1901 C   0  0  0  0  0  0  0  0  0  0  0  0
    0.4528   -0.4132    4.5101 C   0  0  0  0  0  0  0  0  0  0  0  0
   -0.1356    0.5845    5.8287 Cl  0  0  0  0  0  0  0  0  0  0  0  0
    1.1715   -1.5414    4.8428 C   0  0  0  0  0  0  0  0  0  0  0  0
    1.6365   -2.3295    3.8115 C   0  0  0  0  0  0  0  0  0  0  0  0
    1.3926   -2.0023    2.5021 C   0  0  0  0  0  0  0  0  0  0  0  0
    1.9311   -2.9112    1.4843 C   0  0  0  0  0  0  0  0  0  0  0  0
    2.5883   -3.9448    1.7719 O   0  0  0  0  0  0  0  0  0  0  0  0
  1  2  1  0
  2  3  1  0
  3  4  2  0
  3  5  1  0
  5  6  1  0
  6  7  1  0
  8  7  1  6
  8  9  1  0
  9 10  2  0
  9 11  1  0
 11 12  1  0
 12 13  2  0
 13 14  1  0
 14 15  2  0
 15 16  1  0
 16 17  2  0
 17 18  1  0
 18 19  2  0
 19 20  1  0
 20 21  2  0
 11 22  1  0
 22 23  1  0
 23 24  1  6
 24 25  1  0
 25 26  1  0
 26 27  1  0
 27 28  1  0
 28 29  1  0
  8 30  1  0
 30 31  2  0
 31 32  1  0
 32 33  1  0
 32 34  2  0
 34 35  1  0
 35 36  2  0
 36 37  1  0
 37 38  2  0
 37  6  1  0
 23  8  1  0
 29 27  1  0
 36 30  1  0
 21 12  1  0
 21 16  1  0
M  END
$$$$

     RDKit          3D

 37 43  0  0  0  0  0  0  0  0999 V2000
    0.6590    0.8323    2.1598 C   0  0  0  0  0  0  0  0  0  0  0  0
    1.2465    1.5362    0.9545 C   0  0  1  0  0  0  0  0  0  0  0  0
    2.7471    1.3629    1.0296 C   0  0  0  0  0  0  0  0  0  0  0  0
    2.9214    0.0063    0.5538 N   0  0  0  0  0  0  0  0  0  0  0  0
    3.8635   -0.9817    0.9385 C   0  0  0  0  0  0  0  0  0  0  0  0
    3.5770   -1.8700    1.9777 C   0  0  0  0  0  0  0  0  0  0  0  0
    4.4523   -2.8166    2.3629 N   0  0  0  0  0  0  0  0  0  0  0  0
    5.6554   -2.9809    1.7869 C   0  0  0  0  0  0  0  0  0  0  0  0
    5.9943   -2.1286    0.7508 C   0  0  0  0  0  0  0  0  0  0  0  0
    7.2215   -2.2742    0.1421 C   0  0  0  0  0  0  0  0  0  0  0  0
    7.5793   -1.4377   -0.8898 C   0  0  0  0  0  0  0  0  0  0  0  0
    6.6882   -0.4646   -1.2910 C   0  0  0  0  0  0  0  0  0  0  0  0
    5.4630   -0.3058   -0.6964 C   0  0  0  0  0  0  0  0  0  0  0  0
    5.0942   -1.1403    0.3402 C   0  0  0  0  0  0  0  0  0  0  0  0
    1.9246   -0.2063   -0.4346 C   0  0  0  0  0  0  0  0  0  0  0  0
    1.9120   -1.1075   -1.3409 O   0  0  0  0  0  0  0  0  0  0  0  0
    0.8579    0.7876   -0.2775 C   0  0  1  0  0  0  0  0  0  0  0  0
   -0.4655    0.0868   -0.1631 C   0  0  0  0  0  0  0  0  0  0  0  0
   -1.6209    0.8961   -0.3179 N   0  0  0  0  0  0  0  0  0  0  0  0
   -2.8355    0.7855    0.4961 C   0  0  0  0  0  0  0  0  0  0  0  0
   -3.8031   -0.2024   -0.1374 C   0  0  0  0  0  0  0  0  0  0  0  0
   -4.9957   -0.2961    0.6822 N   0  0  2  0  0  0  0  0  0  0  0  0
   -4.9356   -1.4898    1.5437 C   0  0  0  0  0  0  0  0  0  0  0  0
   -5.9778   -2.4323    1.0179 C   0  0  2  0  0  0  0  0  0  0  0  0
   -6.0262   -1.9790   -0.4440 C   0  0  0  0  0  0  0  0  0  0  0  0
   -6.2038   -0.5002   -0.0598 C   0  0  1  0  0  0  0  0  0  0  0  0
   -7.3222   -0.6749    0.9331 C   0  0  0  0  0  0  0  0  0  0  0  0
   -7.2115   -1.9640    1.4585 O   0  0  0  0  0  0  0  0  0  0  0  0
   -1.6437    1.8818   -1.3361 C   0  0  0  0  0  0  0  0  0  0  0  0
   -2.7454    2.3663   -1.7318 O   0  0  0  0  0  0  0  0  0  0  0  0
   -0.3642    2.2985   -1.8905 C   0  0  0  0  0  0  0  0  0  0  0  0
   -0.4108    3.2144   -2.9286 C   0  0  0  0  0  0  0  0  0  0  0  0
    0.7398    3.6153   -3.5515 C   0  0  0  0  0  0  0  0  0  0  0  0
    1.9259    3.0753   -3.1066 C   0  0  0  0  0  0  0  0  0  0  0  0
    3.3924    3.5998   -3.9187 Cl  0  0  0  0  0  0  0  0  0  0  0  0
    1.9707    2.1499   -2.0564 C   0  0  0  0  0  0  0  0  0  0  0  0
    0.7966    1.7405   -1.4178 C   0  0  0  0  0  0  0  0  0  0  0  0
  2  1  1  1
  2  3  1  0
  3  4  1  0
  4  5  1  0
  5  6  2  0
  6  7  1  0
  7  8  2  0
  8  9  1  0
  9 10  2  0
 10 11  1  0
 11 12  2  0
 12 13  1  0
 13 14  2  0
  4 15  1  0
 15 16  2  0
 15 17  1  0
 17 18  1  1
 18 19  1  0
 19 20  1  0
 20 21  1  0
 22 21  1  6
 22 23  1  0
 24 23  1  1
 24 25  1  0
 25 26  1  0
 26 27  1  1
 27 28  1  0
 19 29  1  0
 29 30  2  0
 29 31  1  0
 31 32  2  0
 32 33  1  0
 33 34  2  0
 34 35  1  0
 34 36  1  0
 36 37  2  0
 17  2  1  0
 26 22  1  0
 37 31  1  0
 14  5  1  0
 37 17  1  0
 14  9  1  0
 28 24  1  0
M  CHG  1  22   1
M  END
$$$$

     RDKit          3D

 38 43  0  0  0  0  0  0  0  0999 V2000
   -6.1043   -0.9890    2.3310 C   0  0  0  0  0  0  0  0  0  0  0  0
   -5.2090    0.1712    1.9463 C   0  0  1  0  0  0  0  0  0  0  0  0
   -4.2641   -0.2909    0.8926 C   0  0  0  0  0  0  0  0  0  0  0  0
   -3.6046    0.7464    0.1482 N   0  0  2  0  0  0  0  0  0  0  0  0
   -2.3893    1.2006    0.7186 C   0  0  0  0  0  0  0  0  0  0  0  0
   -1.2241    0.2865    0.7514 C   0  0  0  0  0  0  0  0  0  0  0  0
   -0.7326   -0.1816   -0.4937 N   0  0  0  0  0  0  0  0  0  0  0  0
    0.2112    0.6439   -1.2268 C   0  0  0  0  0  0  0  0  0  0  0  0
    1.3988   -0.1747   -1.5694 C   0  0  2  0  0  0  0  0  0  0  0  0
    1.9932   -0.6020   -0.2455 C   0  0  0  0  0  0  0  0  0  0  0  0
    1.8755   -1.6850    0.3473 O   0  0  0  0  0  0  0  0  0  0  0  0
    2.7556    0.5303    0.2218 N   0  0  0  0  0  0  0  0  0  0  0  0
    3.2246    0.7579    1.5372 C   0  0  0  0  0  0  0  0  0  0  0  0
    2.5365    1.4232    2.5108 C   0  0  0  0  0  0  0  0  0  0  0  0
    3.0976    1.5720    3.7267 N   0  0  0  0  0  0  0  0  0  0  0  0
    4.3230    1.0858    4.0241 C   0  0  0  0  0  0  0  0  0  0  0  0
    5.0707    0.4002    3.0749 C   0  0  0  0  0  0  0  0  0  0  0  0
    6.3242   -0.1100    3.3418 C   0  0  0  0  0  0  0  0  0  0  0  0
    7.0383   -0.7918    2.3567 C   0  0  0  0  0  0  0  0  0  0  0  0
    6.4755   -0.9528    1.1028 C   0  0  0  0  0  0  0  0  0  0  0  0
    5.2202   -0.4294    0.8716 C   0  0  0  0  0  0  0  0  0  0  0  0
    4.4946    0.2492    1.8310 C   0  0  0  0  0  0  0  0  0  0  0  0
    2.9731    1.4234   -0.8986 C   0  0  0  0  0  0  0  0  0  0  0  0
    2.5513    0.5985   -2.1241 C   0  0  2  0  0  0  0  0  0  0  0  0
    2.2261    1.5159   -3.2521 C   0  0  0  0  0  0  0  0  0  0  0  0
    1.0383   -1.4013   -2.2638 C   0  0  0  0  0  0  0  0  0  0  0  0
    1.8671   -2.0473   -3.1834 C   0  0  0  0  0  0  0  0  0  0  0  0
    1.5010   -3.2218   -3.8058 C   0  0  0  0  0  0  0  0  0  0  0  0
    2.5760   -4.0155   -4.9672 Cl  0  0  0  0  0  0  0  0  0  0  0  0
    0.2859   -3.8218   -3.5476 C   0  0  0  0  0  0  0  0  0  0  0  0
   -0.5385   -3.1898   -2.6410 C   0  0  0  0  0  0  0  0  0  0  0  0
   -0.1723   -2.0185   -2.0216 C   0  0  0  0  0  0  0  0  0  0  0  0
   -1.1198   -1.4054   -1.0979 C   0  0  0  0  0  0  0  0  0  0  0  0
   -2.1965   -1.9664   -0.8822 O   0  0  0  0  0  0  0  0  0  0  0  0
   -4.4800    1.9018   -0.0532 C   0  0  1  0  0  0  0  0  0  0  0  0
   -5.5042    1.4598   -1.1069 C   0  0  0  0  0  0  0  0  0  0  0  0
   -5.1971    2.2636    1.2047 C   0  0  0  0  0  0  0  0  0  0  0  0
   -6.0587    1.1865    1.5166 O   0  0  0  0  0  0  0  0  0  0  0  0
  2  1  1  6
  2  3  1  0
  3  4  1  0
  4  5  1  1
  5  6  1  0
  6  7  1  0
  7  8  1  0
  9  8  1  1
  9 10  1  0
 10 11  2  0
 10 12  1  0
 12 13  1  0
 13 14  2  0
 14 15  1  0
 15 16  2  0
 16 17  1  0
 17 18  2  0
 18 19  1  0
 19 20  2  0
 20 21  1  0
 21 22  2  0
 12 23  1  0
 23 24  1  0
 24 25  1  6
  9 26  1  0
 26 27  2  0
 27 28  1  0
 28 29  1  0
 28 30  2  0
 30 31  1  0
 31 32  2  0
 32 33  1  0
 33 34  2  0
  4 35  1  0
 35 36  1  6
 35 37  1  0
 37 38  1  0
 38  2  1  0
 33  7  1  0
 24  9  1  0
 32 26  1  0
 22 13  1  0
 22 17  1  0
M  CHG  1   4   1
M  END
$$$$

     RDKit          3D

 25 28  0  0  0  0  0  0  0  0999 V2000
   -1.4619   -1.8922    3.0273 C   0  0  0  0  0  0  0  0  0  0  0  0
   -2.2060   -0.9709    2.0817 C   0  0  1  0  0  0  0  0  0  0  0  0
   -1.9128    0.4730    2.3730 C   0  0  0  0  0  0  0  0  0  0  0  0
   -1.5912    1.1096    1.0349 C   0  0  2  0  0  0  0  0  0  0  0  0
   -2.7560    1.5501    0.2732 C   0  0  0  0  0  0  0  0  0  0  0  0
   -4.0058    1.8084    0.7924 C   0  0  0  0  0  0  0  0  0  0  0  0
   -5.0702    2.2254   -0.0091 C   0  0  0  0  0  0  0  0  0  0  0  0
   -4.9058    2.3954   -1.3646 C   0  0  0  0  0  0  0  0  0  0  0  0
   -3.6474    2.1384   -1.9056 C   0  0  0  0  0  0  0  0  0  0  0  0
   -2.6107    1.7271   -1.0932 C   0  0  0  0  0  0  0  0  0  0  0  0
   -0.8723    0.0224    0.3690 N   0  0  0  0  0  0  0  0  0  0  0  0
    0.3404    0.0821   -0.3703 C   0  0  0  0  0  0  0  0  0  0  0  0
    0.9128    1.1927   -0.4964 O   0  0  0  0  0  0  0  0  0  0  0  0
    0.8561   -1.1840   -0.9501 C   0  0  0  0  0  0  0  0  0  0  0  0
    2.1363   -0.9203   -1.6788 C   0  0  0  0  0  0  0  0  0  0  0  0
    2.2000   -0.8560   -3.0579 C   0  0  0  0  0  0  0  0  0  0  0  0
    3.3321   -0.6214   -3.7314 N   0  0  0  0  0  0  0  0  0  0  0  0
    4.4852   -0.4336   -3.0691 C   0  0  0  0  0  0  0  0  0  0  0  0
    4.4574   -0.4916   -1.6891 C   0  0  0  0  0  0  0  0  0  0  0  0
    5.6302   -0.3023   -0.9834 C   0  0  0  0  0  0  0  0  0  0  0  0
    5.6833   -0.3462    0.4019 C   0  0  0  0  0  0  0  0  0  0  0  0
    4.5144   -0.5893    1.1085 C   0  0  0  0  0  0  0  0  0  0  0  0
    3.3378   -0.7793    0.4134 C   0  0  0  0  0  0  0  0  0  0  0  0
    3.3064   -0.7315   -0.9706 C   0  0  0  0  0  0  0  0  0  0  0  0
   -1.7003   -1.1596    0.6471 C   0  0  0  0  0  0  0  0  0  0  0  0
  2  1  1  1
  2  3  1  0
  3  4  1  0
  4  5  1  6
  5  6  2  0
  6  7  1  0
  7  8  2  0
  8  9  1  0
  9 10  2  0
  4 11  1  0
 11 12  1  0
 12 13  2  0
 12 14  1  0
 14 15  1  0
 15 16  2  0
 16 17  1  0
 17 18  2  0
 18 19  1  0
 19 20  2  0
 20 21  1  0
 21 22  2  0
 22 23  1  0
 23 24  2  0
 11 25  1  0
 25  2  1  0
 10  5  1  0
 24 15  1  0
 24 19  1  0
M  END
$$$$

     RDKit          3D

 35 40  0  0  0  0  0  0  0  0999 V2000
    0.4021    0.7329    2.6151 C   0  0  0  0  0  0  0  0  0  0  0  0
   -0.0999   -0.5631    1.9537 C   0  0  1  0  0  0  0  0  0  0  0  0
   -1.5641   -0.4078    1.7792 C   0  0  0  0  0  0  0  0  0  0  0  0
   -1.7685   -0.3212    0.3556 N   0  0  0  0  0  0  0  0  0  0  0  0
   -3.0438   -0.5202   -0.2928 C   0  0  0  0  0  0  0  0  0  0  0  0
   -3.4531   -1.7650   -0.7236 C   0  0  0  0  0  0  0  0  0  0  0  0
   -4.6438   -1.9389   -1.3268 N   0  0  0  0  0  0  0  0  0  0  0  0
   -5.4591   -0.9027   -1.5220 C   0  0  0  0  0  0  0  0  0  0  0  0
   -5.1287    0.3710   -1.1235 C   0  0  0  0  0  0  0  0  0  0  0  0
   -5.9948    1.4243   -1.3399 C   0  0  0  0  0  0  0  0  0  0  0  0
   -5.6056    2.6775   -0.9171 C   0  0  0  0  0  0  0  0  0  0  0  0
   -4.3860    2.8519   -0.3000 C   0  0  0  0  0  0  0  0  0  0  0  0
   -3.5108    1.7965   -0.0797 C   0  0  0  0  0  0  0  0  0  0  0  0
   -3.9072    0.5513   -0.5044 C   0  0  0  0  0  0  0  0  0  0  0  0
   -0.5307   -0.0124   -0.2652 C   0  0  0  0  0  0  0  0  0  0  0  0
   -0.4054    0.6753   -1.3076 O   0  0  0  0  0  0  0  0  0  0  0  0
    0.4987   -0.6688    0.5806 C   0  0  1  0  0  0  0  0  0  0  0  0
    1.7936    0.1071    0.5865 C   0  0  0  0  0  0  0  0  0  0  0  0
    2.5217   -0.0228   -0.6651 N   0  0  0  0  0  0  0  0  0  0  0  0
    3.0211    1.1173   -1.4099 C   0  0  0  0  0  0  0  0  0  0  0  0
    4.4133    1.4749   -0.9735 C   0  0  0  0  0  0  0  0  0  0  0  0
    5.5780    1.0092   -1.4770 N   0  0  0  0  0  0  0  0  0  0  0  0
    6.6101    1.5294   -0.8637 N   0  0  0  0  0  0  0  0  0  0  0  0
    6.1350    2.3622    0.0717 C   0  0  0  0  0  0  0  0  0  0  0  0
    4.7758    2.3270    0.0022 N   0  0  0  0  0  0  0  0  0  0  0  0
    3.8837    3.0924    0.8521 C   0  0  0  0  0  0  0  0  0  0  0  0
    2.7224   -1.3734   -1.1266 C   0  0  0  0  0  0  0  0  0  0  0  0
    3.7110   -1.6144   -1.8785 O   0  0  0  0  0  0  0  0  0  0  0  0
    1.7759   -2.4003   -0.7055 C   0  0  0  0  0  0  0  0  0  0  0  0
    1.9817   -3.6890   -1.1454 C   0  0  0  0  0  0  0  0  0  0  0  0
    1.1286   -4.7139   -0.7794 C   0  0  0  0  0  0  0  0  0  0  0  0
    0.0697   -4.4092    0.0359 C   0  0  0  0  0  0  0  0  0  0  0  0
   -0.8042   -5.3950    0.4257 F   0  0  0  0  0  0  0  0  0  0  0  0
   -0.1267   -3.1132    0.4706 C   0  0  0  0  0  0  0  0  0  0  0  0
    0.6998   -2.0667    0.1281 C   0  0  0  0  0  0  0  0  0  0  0  0
  2  1  1  6
  2  3  1  0
  3  4  1  0
  4  5  1  0
  5  6  2  0
  6  7  1  0
  7  8  2  0
  8  9  1  0
  9 10  2  0
 10 11  1  0
 11 12  2  0
 12 13  1  0
 13 14  2  0
  4 15  1  0
 15 16  2  0
 15 17  1  0
 17 18  1  1
 18 19  1  0
 19 20  1  0
 20 21  1  0
 21 22  2  0
 22 23  1  0
 23 24  2  0
 24 25  1  0
 25 26  1  0
 19 27  1  0
 27 28  2  0
 27 29  1  0
 29 30  2  0
 30 31  1  0
 31 32  2  0
 32 33  1  0
 32 34  1  0
 34 35  2  0
 17  2  1  0
 25 21  1  0
 35 29  1  0
 14  5  1  0
 35 17  1  0
 14  9  1  0
M  END
$$$$

     RDKit          3D

 24 27  0  0  0  0  0  0  0  0999 V2000
   -6.4901    0.2952    0.5654 C   0  0  0  0  0  0  0  0  0  0  0  0
   -5.1332   -0.4021    0.5021 C   0  0  1  0  0  0  0  0  0  0  0  0
   -4.7012   -0.6371   -0.9276 C   0  0  0  0  0  0  0  0  0  0  0  0
   -3.3354   -1.3224   -0.8294 C   0  0  0  0  0  0  0  0  0  0  0  0
   -2.3662   -0.2893   -0.3710 C   0  0  2  0  0  0  0  0  0  0  0  0
   -1.5167    0.2538   -1.5158 C   0  0  0  0  0  0  0  0  0  0  0  0
   -0.3579    0.8299   -0.7199 C   0  0  0  0  0  0  0  0  0  0  0  0
   -0.1637   -0.1445    0.3238 N   0  0  0  0  0  0  0  0  0  0  0  0
    1.0508   -0.3031    1.0499 C   0  0  0  0  0  0  0  0  0  0  0  0
    1.1724   -1.1841    1.9479 O   0  0  0  0  0  0  0  0  0  0  0  0
    2.2320    0.5526    0.7931 C   0  0  0  0  0  0  0  0  0  0  0  0
    3.3267   -0.3056    0.2704 C   0  0  0  0  0  0  0  0  0  0  0  0
    3.1153   -1.6426   -0.0829 C   0  0  0  0  0  0  0  0  0  0  0  0
    4.1059   -2.4113   -0.5647 N   0  0  0  0  0  0  0  0  0  0  0  0
    5.3250   -1.8705   -0.7069 C   0  0  0  0  0  0  0  0  0  0  0  0
    5.5706   -0.5585   -0.3698 C   0  0  0  0  0  0  0  0  0  0  0  0
    6.8437   -0.0157   -0.5174 C   0  0  0  0  0  0  0  0  0  0  0  0
    7.1079    1.3091   -0.1738 C   0  0  0  0  0  0  0  0  0  0  0  0
    6.0902    2.1298    0.3308 C   0  0  0  0  0  0  0  0  0  0  0  0
    4.8243    1.5769    0.4736 C   0  0  0  0  0  0  0  0  0  0  0  0
    4.5865    0.2649    0.1278 C   0  0  0  0  0  0  0  0  0  0  0  0
   -1.3462   -0.9465    0.5537 C   0  0  0  0  0  0  0  0  0  0  0  0
   -2.9600    0.8669    0.3682 C   0  0  0  0  0  0  0  0  0  0  0  0
   -4.0823    0.3810    1.2314 C   0  0  0  0  0  0  0  0  0  0  0  0
  2  1  1  6
  2  3  1  0
  3  4  1  0
  5  4  1  6
  5  6  1  0
  6  7  1  0
  7  8  1  0
  8  9  1  0
  9 10  2  0
  9 11  1  0
 11 12  1  0
 12 13  2  0
 13 14  1  0
 14 15  2  0
 15 16  1  0
 16 17  2  0
 17 18  1  0
 18 19  2  0
 19 20  1  0
 20 21  2  0
  8 22  1  0
  5 23  1  0
 23 24  1  0
 24  2  1  0
 22  5  1  0
 21 12  1  0
 21 16  1  0
M  END
$$$$

     RDKit          3D

 39 43  0  0  0  0  0  0  0  0999 V2000
   -2.6355    1.8758    1.0547 O   0  0  0  0  0  0  0  0  0  0  0  0
   -1.9792    0.8755    0.6243 C   0  0  0  0  0  0  0  0  0  0  0  0
   -0.5233    0.9918    0.4889 C   0  0  0  0  0  0  0  0  0  0  0  0
    0.1484   -0.1709    0.0000 N   0  0  1  0  0  0  0  0  0  0  0  0
    0.1740   -0.3126   -1.4232 C   0  0  0  0  0  0  0  0  0  0  0  0
    0.8684    0.8356   -2.0700 C   0  0  0  0  0  0  0  0  0  0  0  0
    0.5163    1.2010   -3.3495 C   0  0  0  0  0  0  0  0  0  0  0  0
    1.1647    2.2669   -3.9412 C   0  0  0  0  0  0  0  0  0  0  0  0
    2.1395    2.9201   -3.2215 C   0  0  0  0  0  0  0  0  0  0  0  0
    2.9599    4.2720   -3.9758 Cl  0  0  0  0  0  0  0  0  0  0  0  0
    2.4831    2.5351   -1.9248 C   0  0  0  0  0  0  0  0  0  0  0  0
    1.8384    1.4718   -1.3305 C   0  0  0  0  0  0  0  0  0  0  0  0
    2.2125    1.0707    0.0507 C   0  0  2  0  0  0  0  0  0  0  0  0
    3.6943    0.9664    0.1140 C   0  0  0  0  0  0  0  0  0  0  0  0
    4.4470    1.1897   -0.8694 O   0  0  0  0  0  0  0  0  0  0  0  0
    4.3530    0.5960    1.3326 N   0  0  0  0  0  0  0  0  0  0  0  0
    5.7791    0.5293    1.2695 C   0  0  0  0  0  0  0  0  0  0  0  0
    6.4529    1.7124    1.5724 C   0  0  0  0  0  0  0  0  0  0  0  0
    7.7999    1.7593    1.5429 N   0  0  0  0  0  0  0  0  0  0  0  0
    8.4828    0.6458    1.2164 C   0  0  0  0  0  0  0  0  0  0  0  0
    7.8407   -0.5533    0.9080 C   0  0  0  0  0  0  0  0  0  0  0  0
    8.5724   -1.6611    0.5815 C   0  0  0  0  0  0  0  0  0  0  0  0
    7.8966   -2.8330    0.2816 C   0  0  0  0  0  0  0  0  0  0  0  0
    6.5052   -2.8861    0.3109 C   0  0  0  0  0  0  0  0  0  0  0  0
    5.7558   -1.7693    0.6404 C   0  0  0  0  0  0  0  0  0  0  0  0
    6.4603   -0.6211    0.9328 C   0  0  0  0  0  0  0  0  0  0  0  0
    1.5289   -0.1843    0.4810 C   0  0  0  0  0  0  0  0  0  0  0  0
   -2.7344   -0.2854    0.3083 N   0  0  0  0  0  0  0  0  0  0  0  0
   -4.1682   -0.2192    0.5052 C   0  0  0  0  0  0  0  0  0  0  0  0
   -4.8336   -1.5255    0.1273 C   0  0  0  0  0  0  0  0  0  0  0  0
   -6.3027   -1.3123    0.3796 C   0  0  0  0  0  0  0  0  0  0  0  0
   -6.8792   -1.5944    1.5993 C   0  0  0  0  0  0  0  0  0  0  0  0
   -8.2347   -1.3630    1.7261 C   0  0  0  0  0  0  0  0  0  0  0  0
   -9.0107   -0.8687    0.6902 C   0  0  0  0  0  0  0  0  0  0  0  0
  -10.4605   -0.6487    0.9103 C   0  0  0  0  0  0  0  0  0  0  0  0
  -10.7173    0.1847    1.9674 F   0  0  0  0  0  0  0  0  0  0  0  0
  -11.0600   -1.8776    1.1200 F   0  0  0  0  0  0  0  0  0  0  0  0
   -8.3961   -0.5970   -0.5208 C   0  0  0  0  0  0  0  0  0  0  0  0
   -7.0341   -0.8163   -0.6887 C   0  0  0  0  0  0  0  0  0  0  0  0
  1  2  2  0
  2  3  1  0
  4  3  1  6
  4  5  1  0
  5  6  1  0
  6  7  2  0
  7  8  1  0
  8  9  2  0
  9 10  1  0
  9 11  1  0
 11 12  2  0
 12 13  1  0
 13 14  1  6
 14 15  2  0
 14 16  1  0
 16 17  1  0
 17 18  2  0
 18 19  1  0
 19 20  2  0
 20 21  1  0
 21 22  2  0
 22 23  1  0
 23 24  2  0
 24 25  1  0
 25 26  2  0
 13 27  1  0
  2 28  1  0
 28 29  1  0
 29 30  1  0
 30 31  1  0
 31 32  2  0
 32 33  1  0
 33 34  2  0
 34 35  1  0
 35 36  1  0
 35 37  1  0
 34 38  1  0
 38 39  2  0
 27  4  1  0
 39 31  1  0
 12  6  1  0
 26 17  1  0
 26 21  1  0
M  CHG  1   4   1
M  END
$$$$

     RDKit          3D

 37 41  0  0  0  0  0  0  0  0999 V2000
    6.3443    1.4685    1.2304 C   0  0  0  0  0  0  0  0  0  0  0  0
    5.9308    0.9491   -0.1060 C   0  0  0  0  0  0  0  0  0  0  0  0
    4.5947    0.2487   -0.0312 C   0  0  0  0  0  0  0  0  0  0  0  0
    4.0717    0.2194    1.1051 O   0  0  0  0  0  0  0  0  0  0  0  0
    4.0430   -0.3073   -1.2065 N   0  0  0  0  0  0  0  0  0  0  0  0
    4.8068   -0.2350   -2.4614 C   0  0  0  0  0  0  0  0  0  0  0  0
    4.3534   -1.2629   -3.4364 C   0  0  0  0  0  0  0  0  0  0  0  0
    3.6889   -2.4699   -2.8130 C   0  0  0  0  0  0  0  0  0  0  0  0
    2.5640   -2.0481   -1.9689 C   0  0  0  0  0  0  0  0  0  0  0  0
    1.3354   -2.6538   -1.9155 C   0  0  0  0  0  0  0  0  0  0  0  0
    0.3456   -2.1577   -1.0765 C   0  0  0  0  0  0  0  0  0  0  0  0
    0.5189   -1.0609   -0.2660 C   0  0  0  0  0  0  0  0  0  0  0  0
   -0.4406   -0.5264    0.6003 N   0  0  0  0  0  0  0  0  0  0  0  0
   -1.7478   -1.0229    0.8215 C   0  0  0  0  0  0  0  0  0  0  0  0
   -2.2403   -2.0328    0.2627 O   0  0  0  0  0  0  0  0  0  0  0  0
   -2.6516   -0.3224    1.7892 C   0  0  0  0  0  0  0  0  0  0  0  0
   -3.9606   -0.9792    1.8871 C   0  0  0  0  0  0  0  0  0  0  0  0
   -4.2636   -1.7728    2.9986 C   0  0  0  0  0  0  0  0  0  0  0  0
   -5.4476   -2.3910    3.1281 N   0  0  0  0  0  0  0  0  0  0  0  0
   -6.4080   -2.2786    2.1912 C   0  0  0  0  0  0  0  0  0  0  0  0
   -6.1426   -1.5037    1.0824 C   0  0  0  0  0  0  0  0  0  0  0  0
   -7.1474   -1.4063    0.1372 C   0  0  0  0  0  0  0  0  0  0  0  0
   -6.9390   -0.6357   -1.0084 C   0  0  0  0  0  0  0  0  0  0  0  0
   -5.7203    0.0060   -1.1510 C   0  0  0  0  0  0  0  0  0  0  0  0
   -4.7145   -0.0945   -0.1995 C   0  0  0  0  0  0  0  0  0  0  0  0
   -4.9364   -0.8619    0.9298 C   0  0  0  0  0  0  0  0  0  0  0  0
   -0.0826    0.6258    1.3350 N   0  0  0  0  0  0  0  0  0  0  0  0
    0.5490    0.5629    2.6300 C   0  0  0  0  0  0  0  0  0  0  0  0
   -0.3692    1.8948    0.7569 C   0  0  0  0  0  0  0  0  0  0  0  0
   -0.0372    3.0469    1.4450 C   0  0  0  0  0  0  0  0  0  0  0  0
   -0.3213    4.2899    0.8786 C   0  0  0  0  0  0  0  0  0  0  0  0
   -0.9274    4.4145   -0.3547 C   0  0  0  0  0  0  0  0  0  0  0  0
   -1.2480    3.2498   -1.0198 C   0  0  0  0  0  0  0  0  0  0  0  0
   -2.0254    3.2743   -2.6035 Cl  0  0  0  0  0  0  0  0  0  0  0  0
   -0.9750    2.0139   -0.4762 C   0  0  0  0  0  0  0  0  0  0  0  0
    1.7879   -0.4627   -0.3434 C   0  0  0  0  0  0  0  0  0  0  0  0
    2.7687   -0.9342   -1.1580 C   0  0  0  0  0  0  0  0  0  0  0  0
  1  2  1  0
  2  3  1  0
  3  4  2  0
  3  5  1  0
  5  6  1  0
  6  7  1  0
  7  8  1  0
  8  9  1  0
  9 10  2  0
 10 11  1  0
 11 12  2  0
 12 13  1  0
 13 14  1  0
 14 15  2  0
 14 16  1  0
 16 17  1  0
 17 18  2  0
 18 19  1  0
 19 20  2  0
 20 21  1  0
 21 22  2  0
 22 23  1  0
 23 24  2  0
 24 25  1  0
 25 26  2  0
 13 27  1  0
 27 28  1  0
 27 29  1  0
 29 30  2  0
 30 31  1  0
 31 32  2  0
 32 33  1  0
 33 34  1  0
 33 35  2  0
 12 36  1  0
 36 37  2  0
 37  5  1  0
 37  9  1  0
 26 17  1  0
 35 29  1  0
 26 21  1  0
M  END
$$$$

     RDKit          3D

 35 40  0  0  0  0  0  0  0  0999 V2000
   -0.4874   -3.4235    0.7942 C   0  0  0  0  0  0  0  0  0  0  0  0
   -0.9783   -2.2882   -0.0780 C   0  0  1  0  0  0  0  0  0  0  0  0
   -1.8030   -1.3545    0.8221 C   0  0  0  0  0  0  0  0  0  0  0  0
   -1.7357   -0.0703    0.1525 N   0  0  0  0  0  0  0  0  0  0  0  0
   -2.5567    1.0280    0.5062 C   0  0  0  0  0  0  0  0  0  0  0  0
   -2.2121    1.9721    1.4510 C   0  0  0  0  0  0  0  0  0  0  0  0
   -3.0131    3.0115    1.7704 N   0  0  0  0  0  0  0  0  0  0  0  0
   -4.2105    3.1597    1.1547 C   0  0  0  0  0  0  0  0  0  0  0  0
   -4.5922    2.2365    0.2036 C   0  0  0  0  0  0  0  0  0  0  0  0
   -5.8360    2.4280   -0.4067 C   0  0  0  0  0  0  0  0  0  0  0  0
   -6.2521    1.5218   -1.3655 C   0  0  0  0  0  0  0  0  0  0  0  0
   -5.4551    0.4354   -1.7241 C   0  0  0  0  0  0  0  0  0  0  0  0
   -4.2171    0.2707   -1.0964 C   0  0  0  0  0  0  0  0  0  0  0  0
   -3.7872    1.1600   -0.1422 C   0  0  0  0  0  0  0  0  0  0  0  0
   -0.7283   -0.1440   -0.8763 C   0  0  0  0  0  0  0  0  0  0  0  0
   -0.5856    0.6695   -1.8055 O   0  0  0  0  0  0  0  0  0  0  0  0
    0.0788   -1.3847   -0.5770 C   0  0  1  0  0  0  0  0  0  0  0  0
    1.0666   -0.9546    0.4770 C   0  0  0  0  0  0  0  0  0  0  0  0
    1.8409    0.1524   -0.1060 N   0  0  0  0  0  0  0  0  0  0  0  0
    1.8680    1.4690    0.4663 C   0  0  0  0  0  0  0  0  0  0  0  0
    3.0049    1.5056    1.4519 C   0  0  0  0  0  0  0  0  0  0  0  0
    2.9227    1.1844    2.7980 C   0  0  0  0  0  0  0  0  0  0  0  0
    4.1504    1.3489    3.3069 N   0  0  0  0  0  0  0  0  0  0  0  0
    5.0095    1.7500    2.3901 N   0  0  0  0  0  0  0  0  0  0  0  0
    6.4333    2.0401    2.5381 C   0  0  0  0  0  0  0  0  0  0  0  0
    4.3189    1.8559    1.2210 C   0  0  0  0  0  0  0  0  0  0  0  0
    2.5743   -0.1684   -1.2825 C   0  0  0  0  0  0  0  0  0  0  0  0
    3.6506    0.4190   -1.5217 O   0  0  0  0  0  0  0  0  0  0  0  0
    1.9945   -1.1943   -2.1519 C   0  0  0  0  0  0  0  0  0  0  0  0
    2.6825   -1.5286   -3.2770 C   0  0  0  0  0  0  0  0  0  0  0  0
    2.2110   -2.4932   -4.1419 C   0  0  0  0  0  0  0  0  0  0  0  0
    1.0178   -3.0980   -3.8142 C   0  0  0  0  0  0  0  0  0  0  0  0
    0.5385   -4.0497   -4.6534 F   0  0  0  0  0  0  0  0  0  0  0  0
    0.3235   -2.7564   -2.6734 C   0  0  0  0  0  0  0  0  0  0  0  0
    0.7903   -1.7786   -1.7863 C   0  0  0  0  0  0  0  0  0  0  0  0
  2  1  1  1
  2  3  1  0
  3  4  1  0
  4  5  1  0
  5  6  2  0
  6  7  1  0
  7  8  2  0
  8  9  1  0
  9 10  2  0
 10 11  1  0
 11 12  2  0
 12 13  1  0
 13 14  2  0
  4 15  1  0
 15 16  2  0
 15 17  1  0
 17 18  1  1
 18 19  1  0
 19 20  1  0
 20 21  1  0
 21 22  1  0
 22 23  2  0
 23 24  1  0
 24 25  1  0
 24 26  1  0
 19 27  1  0
 27 28  2  0
 27 29  1  0
 29 30  2  0
 30 31  1  0
 31 32  2  0
 32 33  1  0
 32 34  1  0
 34 35  2  0
 17  2  1  0
 26 21  2  0
 35 29  1  0
 14  5  1  0
 35 17  1  0
 14  9  1  0
M  END
$$$$

     RDKit          3D

 24 27  0  0  0  0  0  0  0  0999 V2000
   -0.3809    1.2770    0.1931 O   0  0  0  0  0  0  0  0  0  0  0  0
   -0.1411    0.0934   -0.1631 C   0  0  0  0  0  0  0  0  0  0  0  0
   -1.2248   -0.9174   -0.0355 C   0  0  0  0  0  0  0  0  0  0  0  0
   -2.4082   -0.2023    0.5297 C   0  0  0  0  0  0  0  0  0  0  0  0
   -2.7581   -0.3636    1.8711 C   0  0  0  0  0  0  0  0  0  0  0  0
   -3.8267    0.2751    2.4046 N   0  0  0  0  0  0  0  0  0  0  0  0
   -4.5812    1.0895    1.6366 C   0  0  0  0  0  0  0  0  0  0  0  0
   -4.2402    1.2533    0.3085 C   0  0  0  0  0  0  0  0  0  0  0  0
   -5.0413    2.0993   -0.4457 C   0  0  0  0  0  0  0  0  0  0  0  0
   -4.7284    2.2863   -1.7784 C   0  0  0  0  0  0  0  0  0  0  0  0
   -3.6563    1.6699   -2.3904 C   0  0  0  0  0  0  0  0  0  0  0  0
   -2.8786    0.8293   -1.5970 C   0  0  0  0  0  0  0  0  0  0  0  0
   -3.1649    0.6252   -0.2745 C   0  0  0  0  0  0  0  0  0  0  0  0
    1.1152   -0.3251   -0.6817 N   0  0  0  0  0  0  0  0  0  0  0  0
    1.3930   -1.6881   -1.0922 C   0  0  0  0  0  0  0  0  0  0  0  0
    2.5269   -2.2908   -0.2944 C   0  0  0  0  0  0  0  0  0  0  0  0
    3.4293   -1.2657    0.2878 C   0  0  0  0  0  0  0  0  0  0  0  0
    4.4448   -1.7305    1.1078 C   0  0  0  0  0  0  0  0  0  0  0  0
    4.6239   -3.4648    1.4194 Cl  0  0  0  0  0  0  0  0  0  0  0  0
    5.3318   -0.8517    1.6938 C   0  0  0  0  0  0  0  0  0  0  0  0
    5.2087    0.5021    1.4629 C   0  0  0  0  0  0  0  0  0  0  0  0
    4.1959    0.9605    0.6455 C   0  0  0  0  0  0  0  0  0  0  0  0
    3.3056    0.0840    0.0567 C   0  0  0  0  0  0  0  0  0  0  0  0
    2.2144    0.6268   -0.8279 C   0  0  0  0  0  0  0  0  0  0  0  0
  1  2  2  0
  2  3  1  0
  3  4  1  0
  4  5  2  0
  5  6  1  0
  6  7  2  0
  7  8  1  0
  8  9  2  0
  9 10  1  0
 10 11  2  0
 11 12  1  0
 12 13  2  0
  2 14  1  0
 14 15  1  0
 15 16  1  0
 16 17  1  0
 17 18  2  0
 18 19  1  0
 18 20  1  0
 20 21  2  0
 21 22  1  0
 22 23  2  0
 23 24  1  0
 13  4  1  0
 24 14  1  0
 13  8  1  0
 23 17  1  0
M  END
$$$$

     RDKit          3D

 37 42  0  0  0  0  0  0  0  0999 V2000
    7.5814    1.7795   -0.8330 C   0  0  0  0  0  0  0  0  0  0  0  0
    6.3812    2.4877   -0.2299 C   0  0  1  0  0  0  0  0  0  0  0  0
    5.0871    1.9759   -0.7772 C   0  0  0  0  0  0  0  0  0  0  0  0
    4.4356    1.1064    0.1936 N   0  0  1  0  0  0  0  0  0  0  0  0
    3.4423    0.2633   -0.4249 C   0  0  0  0  0  0  0  0  0  0  0  0
    2.2966   -0.0491    0.5318 C   0  0  0  0  0  0  0  0  0  0  0  0
    1.3088   -0.8916   -0.0927 N   0  0  0  0  0  0  0  0  0  0  0  0
    0.1680   -0.3938   -0.8340 C   0  0  0  0  0  0  0  0  0  0  0  0
   -1.0830   -0.9464   -0.2575 C   0  0  2  0  0  0  0  0  0  0  0  0
   -2.3070   -0.5082   -0.9742 C   0  0  0  0  0  0  0  0  0  0  0  0
   -2.3554   -0.1995   -2.1842 O   0  0  0  0  0  0  0  0  0  0  0  0
   -3.3984   -0.4995   -0.0643 N   0  0  0  0  0  0  0  0  0  0  0  0
   -4.7850   -0.2541   -0.3240 C   0  0  0  0  0  0  0  0  0  0  0  0
   -5.6842   -1.2493   -0.6139 C   0  0  0  0  0  0  0  0  0  0  0  0
   -6.9863   -1.0011   -0.8581 N   0  0  0  0  0  0  0  0  0  0  0  0
   -7.5139    0.2268   -0.8397 C   0  0  0  0  0  0  0  0  0  0  0  0
   -6.6582    1.2747   -0.5534 C   0  0  0  0  0  0  0  0  0  0  0  0
   -7.1497    2.5526   -0.5243 C   0  0  0  0  0  0  0  0  0  0  0  0
   -6.3430    3.6432   -0.2458 C   0  0  0  0  0  0  0  0  0  0  0  0
   -4.9855    3.4233    0.0124 C   0  0  0  0  0  0  0  0  0  0  0  0
   -4.5073    2.1302   -0.0210 C   0  0  0  0  0  0  0  0  0  0  0  0
   -5.3074    1.0452   -0.2973 C   0  0  0  0  0  0  0  0  0  0  0  0
   -2.8843   -0.7960    1.2520 C   0  0  0  0  0  0  0  0  0  0  0  0
   -1.3812   -0.5688    1.1553 C   0  0  2  0  0  0  0  0  0  0  0  0
   -1.0794    0.8897    1.4187 C   0  0  0  0  0  0  0  0  0  0  0  0
   -0.9776   -2.4468   -0.2872 C   0  0  0  0  0  0  0  0  0  0  0  0
   -2.0975   -3.2487   -0.4479 C   0  0  0  0  0  0  0  0  0  0  0  0
   -2.0085   -4.6383   -0.4366 C   0  0  0  0  0  0  0  0  0  0  0  0
   -3.4424   -5.6177   -0.6417 Cl  0  0  0  0  0  0  0  0  0  0  0  0
   -0.7786   -5.2490   -0.2619 C   0  0  0  0  0  0  0  0  0  0  0  0
    0.3512   -4.4721   -0.1013 C   0  0  0  0  0  0  0  0  0  0  0  0
    0.2200   -3.1066   -0.1195 C   0  0  0  0  0  0  0  0  0  0  0  0
    1.4391   -2.3156   -0.0111 C   0  0  0  0  0  0  0  0  0  0  0  0
    2.5862   -2.8589    0.1511 O   0  0  0  0  0  0  0  0  0  0  0  0
    5.4745    0.3290    0.8399 C   0  0  0  0  0  0  0  0  0  0  0  0
    6.2661    1.2377    1.7214 C   0  0  0  0  0  0  0  0  0  0  0  0
    6.4842    2.4648    1.1444 O   0  0  0  0  0  0  0  0  0  0  0  0
  2  1  1  6
  2  3  1  0
  3  4  1  0
  4  5  1  6
  5  6  1  0
  6  7  1  0
  7  8  1  0
  9  8  1  6
  9 10  1  0
 10 11  2  0
 10 12  1  0
 12 13  1  0
 13 14  2  0
 14 15  1  0
 15 16  2  0
 16 17  1  0
 17 18  2  0
 18 19  1  0
 19 20  2  0
 20 21  1  0
 21 22  2  0
 12 23  1  0
 23 24  1  0
 24 25  1  6
  9 26  1  0
 26 27  2  0
 27 28  1  0
 28 29  1  0
 28 30  2  0
 30 31  1  0
 31 32  2  0
 32 33  1  0
 33 34  2  0
  4 35  1  0
 35 36  1  0
 36 37  1  0
 37  2  1  0
 33  7  1  0
 24  9  1  0
 32 26  1  0
 22 13  1  0
 22 17  1  0
M  CHG  1   4   1
M  END
$$$$

     RDKit          3D

 38 43  0  0  0  0  0  0  0  0999 V2000
   -2.8798   -5.3787    2.2099 C   0  0  0  0  0  0  0  0  0  0  0  0
   -1.5577   -4.8261    2.0146 N   0  0  0  0  0  0  0  0  0  0  0  0
   -1.6251   -3.6040    1.1944 C   0  0  0  0  0  0  0  0  0  0  0  0
   -1.2537   -3.8737   -0.2221 C   0  0  0  0  0  0  0  0  0  0  0  0
   -1.3088   -2.6961   -1.0439 N   0  0  0  0  0  0  0  0  0  0  0  0
   -0.2089   -1.8332   -1.3871 C   0  0  0  0  0  0  0  0  0  0  0  0
   -0.5751   -0.4245   -1.0431 C   0  0  2  0  0  0  0  0  0  0  0  0
    0.4616    0.6007   -1.3806 C   0  0  0  0  0  0  0  0  0  0  0  0
    1.2974    0.4156   -2.2872 O   0  0  0  0  0  0  0  0  0  0  0  0
    0.2821    1.7407   -0.4988 N   0  0  0  0  0  0  0  0  0  0  0  0
    1.1240    2.8709   -0.5998 C   0  0  0  0  0  0  0  0  0  0  0  0
    2.4092    2.7442   -1.1504 C   0  0  0  0  0  0  0  0  0  0  0  0
    3.2330    3.8031   -1.2853 N   0  0  0  0  0  0  0  0  0  0  0  0
    2.9204    5.0472   -0.9189 C   0  0  0  0  0  0  0  0  0  0  0  0
    1.6587    5.2310   -0.3675 C   0  0  0  0  0  0  0  0  0  0  0  0
    1.3280    6.5066   -0.0000 C   0  0  0  0  0  0  0  0  0  0  0  0
    0.0922    6.7866    0.5449 C   0  0  0  0  0  0  0  0  0  0  0  0
   -0.7716    5.7217    0.6926 C   0  0  0  0  0  0  0  0  0  0  0  0
   -0.4393    4.4456    0.3248 C   0  0  0  0  0  0  0  0  0  0  0  0
    0.7841    4.1472   -0.2172 C   0  0  0  0  0  0  0  0  0  0  0  0
   -0.7838    1.3684    0.3887 C   0  0  0  0  0  0  0  0  0  0  0  0
   -0.6570   -0.1912    0.4411 C   0  0  2  0  0  0  0  0  0  0  0  0
    0.6577   -0.3804    1.1671 C   0  0  0  0  0  0  0  0  0  0  0  0
    1.2368   -1.6097    1.0853 O   0  0  0  0  0  0  0  0  0  0  0  0
    2.4278   -1.7778    1.7445 C   0  0  0  0  0  0  0  0  0  0  0  0
    3.5417   -0.8838    1.3088 C   0  0  0  0  0  0  0  0  0  0  0  0
    4.7871   -1.2044    2.1429 C   0  0  0  0  0  0  0  0  0  0  0  0
    5.5984   -1.1600    1.0091 O   0  0  0  0  0  0  0  0  0  0  0  0
    4.4672   -1.4647    0.2455 C   0  0  0  0  0  0  0  0  0  0  0  0
   -1.8249   -0.0404   -1.7434 C   0  0  0  0  0  0  0  0  0  0  0  0
   -2.1023    1.2319   -2.1949 C   0  0  0  0  0  0  0  0  0  0  0  0
   -3.3001    1.5506   -2.8374 C   0  0  0  0  0  0  0  0  0  0  0  0
   -3.5975    3.2025   -3.3927 Cl  0  0  0  0  0  0  0  0  0  0  0  0
   -4.2634    0.6015   -3.0508 C   0  0  0  0  0  0  0  0  0  0  0  0
   -4.0064   -0.6779   -2.6100 C   0  0  0  0  0  0  0  0  0  0  0  0
   -2.8305   -0.9855   -1.9817 C   0  0  0  0  0  0  0  0  0  0  0  0
   -2.5814   -2.3758   -1.6215 C   0  0  0  0  0  0  0  0  0  0  0  0
   -3.4653   -3.2788   -1.8132 O   0  0  0  0  0  0  0  0  0  0  0  0
  1  2  1  0
  2  3  1  0
  3  4  1  0
  4  5  1  0
  5  6  1  0
  7  6  1  1
  7  8  1  0
  8  9  2  0
  8 10  1  0
 10 11  1  0
 11 12  2  0
 12 13  1  0
 13 14  2  0
 14 15  1  0
 15 16  2  0
 16 17  1  0
 17 18  2  0
 18 19  1  0
 19 20  2  0
 10 21  1  0
 21 22  1  0
 22 23  1  1
 23 24  1  0
 24 25  1  0
 25 26  1  0
 26 27  1  0
 27 28  1  0
 28 29  1  0
  7 30  1  0
 30 31  2  0
 31 32  1  0
 32 33  1  0
 32 34  2  0
 34 35  1  0
 35 36  2  0
 36 37  1  0
 37 38  2  0
 37  5  1  0
 22  7  1  0
 29 26  1  0
 36 30  1  0
 20 11  1  0
 20 15  1  0
M  CHG  1   2   1
M  END
$$$$

     RDKit          3D

 40 45  0  0  0  0  0  0  0  0999 V2000
    6.1659    0.0198    3.1266 C   0  0  0  0  0  0  0  0  0  0  0  0
    5.0788   -0.8297    2.7061 N   0  0  0  0  0  0  0  0  0  0  0  0
    4.3548   -0.4498    1.5435 C   0  0  0  0  0  0  0  0  0  0  0  0
    4.6221    0.5883    0.8730 O   0  0  0  0  0  0  0  0  0  0  0  0
    3.2352   -1.3383    1.1232 C   0  0  0  0  0  0  0  0  0  0  0  0
    2.5921   -0.8233   -0.0753 N   0  0  0  0  0  0  0  0  0  0  0  0
    1.4881    0.0906    0.1156 C   0  0  0  0  0  0  0  0  0  0  0  0
    0.5520    0.2077   -1.0335 C   0  0  2  0  0  0  0  0  0  0  0  0
    0.1567    1.6625   -1.1155 C   0  0  0  0  0  0  0  0  0  0  0  0
    0.9019    2.5523   -1.6154 O   0  0  0  0  0  0  0  0  0  0  0  0
   -1.1379    1.8373   -0.5572 N   0  0  0  0  0  0  0  0  0  0  0  0
   -1.9756    2.9777   -0.6933 C   0  0  0  0  0  0  0  0  0  0  0  0
   -2.8941    3.1286   -1.7116 C   0  0  0  0  0  0  0  0  0  0  0  0
   -3.6496    4.2261   -1.7803 N   0  0  0  0  0  0  0  0  0  0  0  0
   -3.5164    5.1797   -0.8621 C   0  0  0  0  0  0  0  0  0  0  0  0
   -2.6208    5.1031    0.1865 C   0  0  0  0  0  0  0  0  0  0  0  0
   -2.5013    6.1174    1.1357 C   0  0  0  0  0  0  0  0  0  0  0  0
   -1.5888    5.9887    2.1638 C   0  0  0  0  0  0  0  0  0  0  0  0
   -0.7838    4.8529    2.2636 C   0  0  0  0  0  0  0  0  0  0  0  0
   -0.9242    3.8613    1.3066 C   0  0  0  0  0  0  0  0  0  0  0  0
   -1.8194    3.9653    0.2802 C   0  0  0  0  0  0  0  0  0  0  0  0
   -1.4083    0.6112    0.1713 C   0  0  0  0  0  0  0  0  0  0  0  0
   -0.7993   -0.4134   -0.7580 C   0  0  2  0  0  0  0  0  0  0  0  0
   -0.7229   -1.7797   -0.1290 C   0  0  0  0  0  0  0  0  0  0  0  0
   -2.0996   -2.2322    0.0680 N   0  0  0  0  0  0  0  0  0  0  0  0
   -2.3121   -3.5066    0.6511 C   0  0  0  0  0  0  0  0  0  0  0  0
   -1.3408   -4.4035    1.0700 C   0  0  0  0  0  0  0  0  0  0  0  0
   -1.9891   -5.4751    1.5566 N   0  0  0  0  0  0  0  0  0  0  0  0
   -3.2946   -5.3173    1.4743 N   0  0  0  0  0  0  0  0  0  0  0  0
   -4.3352   -6.2441    1.8916 C   0  0  0  0  0  0  0  0  0  0  0  0
   -3.5262   -4.1102    0.9188 C   0  0  0  0  0  0  0  0  0  0  0  0
    1.1003   -0.2482   -2.3348 C   0  0  0  0  0  0  0  0  0  0  0  0
    0.3431    0.0455   -3.4607 C   0  0  0  0  0  0  0  0  0  0  0  0
    0.7986   -0.3520   -4.7106 C   0  0  0  0  0  0  0  0  0  0  0  0
   -0.1172   -0.0090   -6.1786 Cl  0  0  0  0  0  0  0  0  0  0  0  0
    1.9876   -1.0348   -4.8779 C   0  0  0  0  0  0  0  0  0  0  0  0
    2.7297   -1.3183   -3.7361 C   0  0  0  0  0  0  0  0  0  0  0  0
    2.2634   -0.9177   -2.5115 C   0  0  0  0  0  0  0  0  0  0  0  0
    3.0737   -1.2368   -1.3438 C   0  0  0  0  0  0  0  0  0  0  0  0
    4.1607   -1.8485   -1.3870 O   0  0  0  0  0  0  0  0  0  0  0  0
  1  2  1  0
  2  3  1  0
  3  4  2  0
  3  5  1  0
  5  6  1  0
  6  7  1  0
  8  7  1  1
  8  9  1  0
  9 10  2  0
  9 11  1  0
 11 12  1  0
 12 13  2  0
 13 14  1  0
 14 15  2  0
 15 16  1  0
 16 17  2  0
 17 18  1  0
 18 19  2  0
 19 20  1  0
 20 21  2  0
 11 22  1  0
 22 23  1  0
 23 24  1  1
 24 25  1  0
 25 26  1  0
 26 27  1  0
 27 28  2  0
 28 29  1  0
 29 30  1  0
 29 31  1  0
  8 32  1  0
 32 33  2  0
 33 34  1  0
 34 35  1  0
 34 36  2  0
 36 37  1  0
 37 38  2  0
 38 39  1  0
 39 40  2  0
 39  6  1  0
 23  8  1  0
 31 26  2  0
 38 32  1  0
 21 12  1  0
 21 16  1  0
M  END
$$$$

     RDKit          3D

 27 31  0  0  0  0  0  0  0  0999 V2000
    1.7284   -1.6644   -2.6407 O   0  0  0  0  0  0  0  0  0  0  0  0
    1.0435   -1.4738   -1.6023 C   0  0  0  0  0  0  0  0  0  0  0  0
   -0.3963   -1.4126   -1.5199 N   0  0  0  0  0  0  0  0  0  0  0  0
   -0.6896   -0.9656   -0.2065 C   0  0  1  0  0  0  0  0  0  0  0  0
   -1.4299    0.3801   -0.1286 C   0  0  0  0  0  0  0  0  0  0  0  0
   -2.6679   -0.4951   -0.4338 C   0  0  2  0  0  0  0  0  0  0  0  0
   -3.8984    0.1495   -0.0237 C   0  0  0  0  0  0  0  0  0  0  0  0
   -4.3481    1.2080   -0.8405 C   0  0  0  0  0  0  0  0  0  0  0  0
   -5.4920    1.9103   -0.5489 C   0  0  0  0  0  0  0  0  0  0  0  0
   -6.2560    1.6129    0.5585 C   0  0  0  0  0  0  0  0  0  0  0  0
   -5.8237    0.5834    1.3574 C   0  0  0  0  0  0  0  0  0  0  0  0
   -4.6713   -0.1236    1.0623 C   0  0  0  0  0  0  0  0  0  0  0  0
   -4.2430   -1.4223    2.1421 Cl  0  0  0  0  0  0  0  0  0  0  0  0
   -1.9995   -1.5115    0.4157 C   0  0  0  0  0  0  0  0  0  0  0  0
    0.5024   -1.0983    0.6094 C   0  0  0  0  0  0  0  0  0  0  0  0
    0.6376   -1.0715    1.8407 O   0  0  0  0  0  0  0  0  0  0  0  0
    1.5966   -1.2807   -0.2940 N   0  0  0  0  0  0  0  0  0  0  0  0
    2.9817   -1.2705    0.0552 C   0  0  0  0  0  0  0  0  0  0  0  0
    3.6678   -2.4096    0.4228 C   0  0  0  0  0  0  0  0  0  0  0  0
    4.9645   -2.3416    0.7398 N   0  0  0  0  0  0  0  0  0  0  0  0
    5.5852   -1.1527    0.6948 C   0  0  0  0  0  0  0  0  0  0  0  0
    4.9539    0.0186    0.3356 C   0  0  0  0  0  0  0  0  0  0  0  0
    5.5855    1.2379    0.2883 C   0  0  0  0  0  0  0  0  0  0  0  0
    4.9427    2.4023   -0.0727 C   0  0  0  0  0  0  0  0  0  0  0  0
    3.6235    2.3435   -0.3970 C   0  0  0  0  0  0  0  0  0  0  0  0
    2.9488    1.1199   -0.3598 C   0  0  0  0  0  0  0  0  0  0  0  0
    3.6179   -0.0431    0.0076 C   0  0  0  0  0  0  0  0  0  0  0  0
  1  2  2  0
  2  3  1  0
  3  4  1  0
  4  5  1  6
  5  6  1  0
  6  7  1  1
  7  8  2  0
  8  9  1  0
  9 10  2  0
 10 11  1  0
 11 12  2  0
 12 13  1  0
  6 14  1  0
  4 15  1  0
 15 16  2  0
 15 17  1  0
 17 18  1  0
 18 19  2  0
 19 20  1  0
 20 21  2  0
 21 22  1  0
 22 23  2  0
 23 24  1  0
 24 25  2  0
 25 26  1  0
 26 27  2  0
 17  2  1  0
 27 18  1  0
 14  4  1  0
 27 22  1  0
 12  7  1  0
M  END
$$$$

     RDKit          3D

 25 27  0  0  0  0  0  0  0  0999 V2000
    2.9970   -2.0866   -1.5505 C   0  0  0  0  0  0  0  0  0  0  0  0
    1.9250   -1.0925   -1.1032 C   0  0  0  0  0  0  0  0  0  0  0  0
    1.9967   -0.9415    0.4006 C   0  0  1  0  0  0  0  0  0  0  0  0
    3.2946   -0.4382    0.8852 C   0  0  0  0  0  0  0  0  0  0  0  0
    3.3208    1.0386    1.1813 C   0  0  1  0  0  0  0  0  0  0  0  0
    4.4385    1.7422    0.4285 C   0  0  0  0  0  0  0  0  0  0  0  0
    4.3466    3.0822    0.7892 F   0  0  0  0  0  0  0  0  0  0  0  0
    5.6911    1.3351    0.8313 F   0  0  0  0  0  0  0  0  0  0  0  0
    4.2501    1.6828   -0.9388 F   0  0  0  0  0  0  0  0  0  0  0  0
    2.0556    1.7227    0.7850 C   0  0  0  0  0  0  0  0  0  0  0  0
    0.8161    1.1037    1.3137 C   0  0  0  0  0  0  0  0  0  0  0  0
    0.8022   -0.3071    0.9526 N   0  0  0  0  0  0  0  0  0  0  0  0
   -0.3176   -1.1499    1.1272 C   0  0  0  0  0  0  0  0  0  0  0  0
   -0.2011   -2.3734    0.6884 O   0  0  0  0  0  0  0  0  0  0  0  0
   -1.6274   -0.8833    1.7395 C   0  0  0  0  0  0  0  0  0  0  0  0
   -2.7416   -1.0189    0.7768 C   0  0  0  0  0  0  0  0  0  0  0  0
   -3.2153   -2.3175    0.5269 C   0  0  0  0  0  0  0  0  0  0  0  0
   -4.1393   -2.5130   -0.4248 N   0  0  0  0  0  0  0  0  0  0  0  0
   -4.6631   -1.5199   -1.1821 C   0  0  0  0  0  0  0  0  0  0  0  0
   -4.2266   -0.2407   -0.9630 C   0  0  0  0  0  0  0  0  0  0  0  0
   -4.7294    0.8535   -1.6702 C   0  0  0  0  0  0  0  0  0  0  0  0
   -4.3067    2.1449   -1.4180 C   0  0  0  0  0  0  0  0  0  0  0  0
   -3.3719    2.3539   -0.4508 C   0  0  0  0  0  0  0  0  0  0  0  0
   -2.8879    1.2635    0.2339 C   0  0  0  0  0  0  0  0  0  0  0  0
   -3.2755   -0.0275    0.0148 C   0  0  0  0  0  0  0  0  0  0  0  0
  1  2  1  0
  3  2  1  6
  3  4  1  0
  4  5  1  0
  5  6  1  6
  6  7  1  0
  6  8  1  0
  6  9  1  0
  5 10  1  0
 10 11  1  0
 11 12  1  0
 12 13  1  0
 13 14  2  0
 13 15  1  0
 15 16  1  0
 16 17  2  0
 17 18  1  0
 18 19  2  0
 19 20  1  0
 20 21  2  0
 21 22  1  0
 22 23  2  0
 23 24  1  0
 24 25  2  0
 12  3  1  0
 25 16  1  0
 25 20  1  0
M  END
$$$$

     RDKit          3D

 39 44  0  0  0  0  0  0  0  0999 V2000
    6.7102    1.7396   -2.5664 C   0  0  0  0  0  0  0  0  0  0  0  0
    5.3132    1.7986   -2.9507 N   0  0  0  0  0  0  0  0  0  0  0  0
    4.4409    1.8535   -1.7917 C   0  0  0  0  0  0  0  0  0  0  0  0
    3.8291    0.4829   -1.6114 C   0  0  0  0  0  0  0  0  0  0  0  0
    2.9328    0.4514   -0.4604 N   0  0  0  0  0  0  0  0  0  0  0  0
    1.5476    0.7717   -0.6494 C   0  0  0  0  0  0  0  0  0  0  0  0
    0.5884    0.0119    0.2340 C   0  0  2  0  0  0  0  0  0  0  0  0
    0.1780   -1.1884   -0.5409 C   0  0  0  0  0  0  0  0  0  0  0  0
    1.0133   -1.9952   -1.0262 O   0  0  0  0  0  0  0  0  0  0  0  0
   -1.2062   -1.3120   -0.6640 N   0  0  0  0  0  0  0  0  0  0  0  0
   -1.9588   -2.3501   -1.2530 C   0  0  0  0  0  0  0  0  0  0  0  0
   -2.2827   -2.2840   -2.6136 C   0  0  0  0  0  0  0  0  0  0  0  0
   -3.0026   -3.2619   -3.2097 N   0  0  0  0  0  0  0  0  0  0  0  0
   -3.4442   -4.3385   -2.5461 C   0  0  0  0  0  0  0  0  0  0  0  0
   -3.1515   -4.4521   -1.2005 C   0  0  0  0  0  0  0  0  0  0  0  0
   -3.5873   -5.5498   -0.4683 C   0  0  0  0  0  0  0  0  0  0  0  0
   -3.2840   -5.6448    0.8789 C   0  0  0  0  0  0  0  0  0  0  0  0
   -2.5450   -4.6613    1.5348 C   0  0  0  0  0  0  0  0  0  0  0  0
   -2.1226   -3.5737    0.7740 C   0  0  0  0  0  0  0  0  0  0  0  0
   -2.4150   -3.4601   -0.5723 C   0  0  0  0  0  0  0  0  0  0  0  0
   -1.7914   -0.1392   -0.0576 C   0  0  0  0  0  0  0  0  0  0  0  0
   -0.7050    0.7356    0.4435 C   0  0  2  0  0  0  0  0  0  0  0  0
   -0.7370    2.1284   -0.1458 C   0  0  0  0  0  0  0  0  0  0  0  0
   -1.9208    2.8005    0.0180 O   0  0  0  0  0  0  0  0  0  0  0  0
   -2.2872    2.9975    1.3355 C   0  0  0  0  0  0  0  0  0  0  0  0
   -3.5911    3.7635    1.4553 C   0  0  0  0  0  0  0  0  0  0  0  0
   -3.9272    3.9429    2.7744 F   0  0  0  0  0  0  0  0  0  0  0  0
   -3.6149    4.9665    0.5678 C   0  0  0  0  0  0  0  0  0  0  0  0
   -4.1742    4.1760   -0.4384 O   0  0  0  0  0  0  0  0  0  0  0  0
   -4.6830    3.3045    0.5489 C   0  0  0  0  0  0  0  0  0  0  0  0
    1.1688   -0.3630    1.5467 C   0  0  0  0  0  0  0  0  0  0  0  0
    0.3436   -0.7896    2.5694 C   0  0  0  0  0  0  0  0  0  0  0  0
    0.8715   -1.1437    3.8168 C   0  0  0  0  0  0  0  0  0  0  0  0
   -0.1990   -1.6861    5.1115 Cl  0  0  0  0  0  0  0  0  0  0  0  0
    2.2054   -1.0858    4.0787 C   0  0  0  0  0  0  0  0  0  0  0  0
    3.0430   -0.6608    3.0631 C   0  0  0  0  0  0  0  0  0  0  0  0
    2.5172   -0.3123    1.8331 C   0  0  0  0  0  0  0  0  0  0  0  0
    3.4694    0.1081    0.8115 C   0  0  0  0  0  0  0  0  0  0  0  0
    4.7035    0.1624    1.0500 O   0  0  0  0  0  0  0  0  0  0  0  0
  1  2  1  0
  2  3  1  0
  3  4  1  0
  4  5  1  0
  5  6  1  0
  7  6  1  6
  7  8  1  0
  8  9  2  0
  8 10  1  0
 10 11  1  0
 11 12  2  0
 12 13  1  0
 13 14  2  0
 14 15  1  0
 15 16  2  0
 16 17  1  0
 17 18  2  0
 18 19  1  0
 19 20  2  0
 10 21  1  0
 21 22  1  0
 22 23  1  6
 23 24  1  0
 24 25  1  0
 25 26  1  0
 26 27  1  0
 26 28  1  0
 28 29  1  0
 29 30  1  0
  7 31  1  0
 31 32  2  0
 32 33  1  0
 33 34  1  0
 33 35  2  0
 35 36  1  0
 36 37  2  0
 37 38  1  0
 38 39  2  0
 38  5  1  0
 22  7  1  0
 30 26  1  0
 37 31  1  0
 20 11  1  0
 20 15  1  0
M  CHG  1   2   1
M  END
$$$$

     RDKit          3D

 39 44  0  0  0  0  0  0  0  0999 V2000
    5.8941   -1.3370   -2.7588 C   0  0  0  0  0  0  0  0  0  0  0  0
    4.5228   -1.3915   -3.1743 N   0  0  0  0  0  0  0  0  0  0  0  0
    3.6059   -1.7286   -2.1119 C   0  0  0  0  0  0  0  0  0  0  0  0
    3.2137   -0.5567   -1.2577 C   0  0  0  0  0  0  0  0  0  0  0  0
    2.2914   -0.8876   -0.1861 N   0  0  0  0  0  0  0  0  0  0  0  0
    0.8500   -0.8314   -0.3800 C   0  0  0  0  0  0  0  0  0  0  0  0
    0.0620   -0.5268    0.8387 C   0  0  2  0  0  0  0  0  0  0  0  0
   -1.2206   -1.3039    0.7297 C   0  0  0  0  0  0  0  0  0  0  0  0
   -1.3447   -2.5554    0.9549 O   0  0  0  0  0  0  0  0  0  0  0  0
   -2.2692   -0.4121    0.3345 N   0  0  0  0  0  0  0  0  0  0  0  0
   -3.6718   -0.6436    0.4124 C   0  0  0  0  0  0  0  0  0  0  0  0
   -4.2928   -0.2552    1.5924 C   0  0  0  0  0  0  0  0  0  0  0  0
   -5.6175   -0.4249    1.7801 N   0  0  0  0  0  0  0  0  0  0  0  0
   -6.3690   -0.9892    0.7946 C   0  0  0  0  0  0  0  0  0  0  0  0
   -5.7554   -1.3789   -0.3850 C   0  0  0  0  0  0  0  0  0  0  0  0
   -6.5180   -1.9516   -1.3853 C   0  0  0  0  0  0  0  0  0  0  0  0
   -5.9167   -2.3389   -2.5538 C   0  0  0  0  0  0  0  0  0  0  0  0
   -4.5503   -2.1662   -2.7530 C   0  0  0  0  0  0  0  0  0  0  0  0
   -3.7684   -1.5949   -1.7647 C   0  0  0  0  0  0  0  0  0  0  0  0
   -4.4008   -1.2185   -0.6076 C   0  0  0  0  0  0  0  0  0  0  0  0
   -1.6159    0.8047   -0.1739 C   0  0  0  0  0  0  0  0  0  0  0  0
   -0.4876    0.8757    0.8409 C   0  0  2  0  0  0  0  0  0  0  0  0
    0.5410    1.9103    0.4857 C   0  0  0  0  0  0  0  0  0  0  0  0
   -0.1272    3.2110    0.5271 N   0  0  0  0  0  0  0  0  0  0  0  0
    0.5998    4.3950    0.2332 C   0  0  0  0  0  0  0  0  0  0  0  0
    0.6595    4.8360   -1.0225 N   0  0  0  0  0  0  0  0  0  0  0  0
    1.3499    5.9614   -1.3049 C   0  0  0  0  0  0  0  0  0  0  0  0
    1.9863    6.6568   -0.3398 N   0  0  0  0  0  0  0  0  0  0  0  0
    1.9295    6.2182    0.9229 C   0  0  0  0  0  0  0  0  0  0  0  0
    1.2422    5.0960    1.2108 N   0  0  0  0  0  0  0  0  0  0  0  0
    0.6887   -0.9211    2.1025 C   0  0  0  0  0  0  0  0  0  0  0  0
   -0.1078   -0.9383    3.2427 C   0  0  0  0  0  0  0  0  0  0  0  0
    0.4450   -1.3061    4.4637 C   0  0  0  0  0  0  0  0  0  0  0  0
   -0.6210   -1.3078    5.8764 Cl  0  0  0  0  0  0  0  0  0  0  0  0
    1.7707   -1.6618    4.6018 C   0  0  0  0  0  0  0  0  0  0  0  0
    2.5513   -1.6411    3.4644 C   0  0  0  0  0  0  0  0  0  0  0  0
    2.0168   -1.2779    2.2440 C   0  0  0  0  0  0  0  0  0  0  0  0
    2.8789   -1.2692    1.0620 C   0  0  0  0  0  0  0  0  0  0  0  0
    4.0987   -1.5814    1.1097 O   0  0  0  0  0  0  0  0  0  0  0  0
  1  2  1  0
  2  3  1  0
  3  4  1  0
  4  5  1  0
  5  6  1  0
  7  6  1  6
  7  8  1  0
  8  9  2  0
  8 10  1  0
 10 11  1  0
 11 12  2  0
 12 13  1  0
 13 14  2  0
 14 15  1  0
 15 16  2  0
 16 17  1  0
 17 18  2  0
 18 19  1  0
 19 20  2  0
 10 21  1  0
 21 22  1  0
 22 23  1  6
 23 24  1  0
 24 25  1  0
 25 26  2  0
 26 27  1  0
 27 28  2  0
 28 29  1  0
 29 30  2  0
  7 31  1  0
 31 32  2  0
 32 33  1  0
 33 34  1  0
 33 35  2  0
 35 36  1  0
 36 37  2  0
 37 38  1  0
 38 39  2  0
 38  5  1  0
 22  7  1  0
 30 25  1  0
 37 31  1  0
 20 11  1  0
 20 15  1  0
M  CHG  1   2   1
M  END
$$$$

     RDKit          3D

 39 44  0  0  0  0  0  0  0  0999 V2000
    1.6515   -6.0376   -2.6430 C   0  0  0  0  0  0  0  0  0  0  0  0
    1.4718   -5.0949   -1.5384 N   0  0  0  0  0  0  0  0  0  0  0  0
    1.8522   -3.7291   -1.6734 C   0  0  0  0  0  0  0  0  0  0  0  0
    2.3554   -3.2540   -2.7245 O   0  0  0  0  0  0  0  0  0  0  0  0
    1.6189   -2.8544   -0.4687 C   0  0  0  0  0  0  0  0  0  0  0  0
    2.0557   -1.5063   -0.7679 N   0  0  0  0  0  0  0  0  0  0  0  0
    1.1775   -0.5052   -1.3499 C   0  0  0  0  0  0  0  0  0  0  0  0
    1.1347    0.6585   -0.4287 C   0  0  2  0  0  0  0  0  0  0  0  0
    0.7026    0.0577    0.8935 C   0  0  0  0  0  0  0  0  0  0  0  0
    1.4292   -0.5664    1.7149 O   0  0  0  0  0  0  0  0  0  0  0  0
   -0.6850    0.3020    1.0897 N   0  0  0  0  0  0  0  0  0  0  0  0
   -1.4857    0.1082    2.2488 C   0  0  0  0  0  0  0  0  0  0  0  0
   -1.6364    1.1265    3.1950 C   0  0  0  0  0  0  0  0  0  0  0  0
   -2.3911    0.9555    4.2952 N   0  0  0  0  0  0  0  0  0  0  0  0
   -3.0457   -0.2034    4.5517 C   0  0  0  0  0  0  0  0  0  0  0  0
   -2.9341   -1.2442    3.6529 C   0  0  0  0  0  0  0  0  0  0  0  0
   -3.5858   -2.4604    3.8643 C   0  0  0  0  0  0  0  0  0  0  0  0
   -3.4753   -3.5043    2.9640 C   0  0  0  0  0  0  0  0  0  0  0  0
   -2.6994   -3.3279    1.8331 C   0  0  0  0  0  0  0  0  0  0  0  0
   -2.0671   -2.1181    1.6487 C   0  0  0  0  0  0  0  0  0  0  0  0
   -2.1571   -1.0635    2.5233 C   0  0  0  0  0  0  0  0  0  0  0  0
   -1.1552    0.8185   -0.1948 C   0  0  0  0  0  0  0  0  0  0  0  0
    0.0756    1.6346   -0.6304 C   0  0  2  0  0  0  0  0  0  0  0  0
   -0.1233    2.2509   -1.9673 C   0  0  0  0  0  0  0  0  0  0  0  0
   -1.2720    3.2143   -1.9007 C   0  0  0  0  0  0  0  0  0  0  0  0
   -2.5758    2.7814   -2.1654 C   0  0  0  0  0  0  0  0  0  0  0  0
   -3.6255    3.6776   -2.1010 C   0  0  0  0  0  0  0  0  0  0  0  0
   -3.4424    4.9984   -1.7829 C   0  0  0  0  0  0  0  0  0  0  0  0
   -2.1482    5.4387   -1.5178 C   0  0  0  0  0  0  0  0  0  0  0  0
   -1.0872    4.5490   -1.5793 C   0  0  0  0  0  0  0  0  0  0  0  0
    2.4945    1.1461   -0.1852 C   0  0  0  0  0  0  0  0  0  0  0  0
    2.7639    2.4914    0.0965 C   0  0  0  0  0  0  0  0  0  0  0  0
    4.0453    2.9424    0.3379 C   0  0  0  0  0  0  0  0  0  0  0  0
    4.3457    4.6422    0.6889 Cl  0  0  0  0  0  0  0  0  0  0  0  0
    5.1326    2.0993    0.3165 C   0  0  0  0  0  0  0  0  0  0  0  0
    4.8841    0.7698    0.0400 C   0  0  0  0  0  0  0  0  0  0  0  0
    3.6039    0.3202   -0.2013 C   0  0  0  0  0  0  0  0  0  0  0  0
    3.3979   -1.0939   -0.5069 C   0  0  0  0  0  0  0  0  0  0  0  0
    4.3337   -1.9362   -0.5466 O   0  0  0  0  0  0  0  0  0  0  0  0
  1  2  1  0
  2  3  1  0
  3  4  2  0
  3  5  1  0
  5  6  1  0
  6  7  1  0
  8  7  1  6
  8  9  1  0
  9 10  2  0
  9 11  1  0
 11 12  1  0
 12 13  2  0
 13 14  1  0
 14 15  2  0
 15 16  1  0
 16 17  2  0
 17 18  1  0
 18 19  2  0
 19 20  1  0
 20 21  2  0
 11 22  1  0
 22 23  1  0
 23 24  1  6
 24 25  1  0
 25 26  2  0
 26 27  1  0
 27 28  2  0
 28 29  1  0
 29 30  2  0
  8 31  1  0
 31 32  2  0
 32 33  1  0
 33 34  1  0
 33 35  2  0
 35 36  1  0
 36 37  2  0
 37 38  1  0
 38 39  2  0
 38  6  1  0
 23  8  1  0
 30 25  1  0
 37 31  1  0
 21 12  1  0
 21 16  1  0
M  END
$$$$

     RDKit          3D

 41 47  0  0  0  0  0  0  0  0999 V2000
    5.2403    0.4628   -1.0914 O   0  0  0  0  0  0  0  0  0  0  0  0
    3.9827    0.2719   -1.0700 C   0  0  0  0  0  0  0  0  0  0  0  0
    3.3620   -0.9571   -1.5304 C   0  0  0  0  0  0  0  0  0  0  0  0
    4.1885   -1.9293   -2.0469 C   0  0  0  0  0  0  0  0  0  0  0  0
    3.6673   -3.1041   -2.5418 C   0  0  0  0  0  0  0  0  0  0  0  0
    2.2988   -3.2492   -2.4924 C   0  0  0  0  0  0  0  0  0  0  0  0
    1.6116   -4.7534   -3.1254 Cl  0  0  0  0  0  0  0  0  0  0  0  0
    1.4784   -2.2695   -1.9725 C   0  0  0  0  0  0  0  0  0  0  0  0
    1.9899   -1.0674   -1.4628 C   0  0  0  0  0  0  0  0  0  0  0  0
    1.1020   -0.0205   -0.8875 C   0  0  1  0  0  0  0  0  0  0  0  0
    1.7684    1.3128   -1.0868 C   0  0  0  0  0  0  0  0  0  0  0  0
    3.0915    1.3017   -0.5706 N   0  0  0  0  0  0  0  0  0  0  0  0
    3.6987    2.2272    0.3535 C   0  0  0  0  0  0  0  0  0  0  0  0
    3.6760    1.8486    1.7675 C   0  0  0  0  0  0  0  0  0  0  0  0
    2.8503    2.1195    2.7833 N   0  0  0  0  0  0  0  0  0  0  0  0
    3.2487    1.5400    3.9045 N   0  0  0  0  0  0  0  0  0  0  0  0
    4.3743    0.8770    3.5752 C   0  0  0  0  0  0  0  0  0  0  0  0
    4.6108    1.0728    2.3029 O   0  0  0  0  0  0  0  0  0  0  0  0
   -0.1693   -0.1250   -1.6637 C   0  0  0  0  0  0  0  0  0  0  0  0
   -0.2676    0.1199   -2.9111 O   0  0  0  0  0  0  0  0  0  0  0  0
   -1.2429   -0.5344   -0.8119 N   0  0  0  0  0  0  0  0  0  0  0  0
   -2.6470   -0.3938   -1.0626 C   0  0  0  0  0  0  0  0  0  0  0  0
   -3.3324    0.7824   -0.7795 C   0  0  0  0  0  0  0  0  0  0  0  0
   -4.6711    0.8969   -1.0157 N   0  0  0  0  0  0  0  0  0  0  0  0
   -5.4117   -0.0816   -1.5233 C   0  0  0  0  0  0  0  0  0  0  0  0
   -4.7826   -1.2720   -1.8230 C   0  0  0  0  0  0  0  0  0  0  0  0
   -5.5396   -2.3002   -2.3464 C   0  0  0  0  0  0  0  0  0  0  0  0
   -4.9677   -3.5161   -2.6608 C   0  0  0  0  0  0  0  0  0  0  0  0
   -3.6175   -3.6693   -2.4350 C   0  0  0  0  0  0  0  0  0  0  0  0
   -2.8746   -2.6341   -1.9122 C   0  0  0  0  0  0  0  0  0  0  0  0
   -3.4149   -1.4141   -1.5904 C   0  0  0  0  0  0  0  0  0  0  0  0
   -0.5744   -1.1297    0.3298 C   0  0  0  0  0  0  0  0  0  0  0  0
    0.6456   -0.2573    0.4994 C   0  0  2  0  0  0  0  0  0  0  0  0
    0.1245    1.0282    1.1142 C   0  0  0  0  0  0  0  0  0  0  0  0
   -0.3230    0.7889    2.4953 N   0  0  0  0  0  0  0  0  0  0  0  0
   -0.8395    1.9115    3.2006 C   0  0  0  0  0  0  0  0  0  0  0  0
   -0.8929    3.1339    2.5702 C   0  0  0  0  0  0  0  0  0  0  0  0
   -1.3944    4.2540    3.2357 C   0  0  0  0  0  0  0  0  0  0  0  0
   -1.8200    4.1047    4.5000 N   0  0  0  0  0  0  0  0  0  0  0  0
   -1.7594    2.9027    5.0977 C   0  0  0  0  0  0  0  0  0  0  0  0
   -1.2750    1.7993    4.4684 N   0  0  0  0  0  0  0  0  0  0  0  0
  1  2  2  0
  2  3  1  0
  3  4  2  0
  4  5  1  0
  5  6  2  0
  6  7  1  0
  6  8  1  0
  8  9  2  0
  9 10  1  0
 10 11  1  1
 11 12  1  0
 12 13  1  0
 13 14  1  0
 14 15  2  0
 15 16  1  0
 16 17  2  0
 17 18  1  0
 10 19  1  0
 19 20  2  0
 19 21  1  0
 21 22  1  0
 22 23  2  0
 23 24  1  0
 24 25  2  0
 25 26  1  0
 26 27  2  0
 27 28  1  0
 28 29  2  0
 29 30  1  0
 30 31  2  0
 21 32  1  0
 32 33  1  0
 33 34  1  6
 34 35  1  0
 35 36  1  0
 36 37  2  0
 37 38  1  0
 38 39  2  0
 39 40  1  0
 40 41  2  0
 12  2  1  0
 18 14  1  0
 31 22  1  0
 41 36  1  0
  9  3  1  0
 33 10  1  0
 31 26  1  0
M  END
$$$$

     RDKit          3D

 38 43  0  0  0  0  0  0  0  0999 V2000
   -0.9389   -1.4050    2.2750 C   0  0  0  0  0  0  0  0  0  0  0  0
   -1.9287   -1.6838    1.1690 C   0  0  1  0  0  0  0  0  0  0  0  0
   -3.1782   -0.8676    1.2998 C   0  0  0  0  0  0  0  0  0  0  0  0
   -3.5381   -0.4824   -0.0315 N   0  0  0  0  0  0  0  0  0  0  0  0
   -4.8079   -0.0167   -0.4783 C   0  0  0  0  0  0  0  0  0  0  0  0
   -5.7988   -0.8549   -0.9433 C   0  0  0  0  0  0  0  0  0  0  0  0
   -6.9586   -0.3017   -1.3390 N   0  0  0  0  0  0  0  0  0  0  0  0
   -7.1690    1.0201   -1.2925 C   0  0  0  0  0  0  0  0  0  0  0  0
   -6.1908    1.9056   -0.8278 C   0  0  0  0  0  0  0  0  0  0  0  0
   -6.3898    3.2616   -0.7738 C   0  0  0  0  0  0  0  0  0  0  0  0
   -5.3935    4.1102   -0.3060 C   0  0  0  0  0  0  0  0  0  0  0  0
   -4.1929    3.5644    0.1061 C   0  0  0  0  0  0  0  0  0  0  0  0
   -3.9866    2.2010    0.0542 C   0  0  0  0  0  0  0  0  0  0  0  0
   -4.9918    1.3693   -0.4153 C   0  0  0  0  0  0  0  0  0  0  0  0
   -2.4233   -0.6253   -0.9013 C   0  0  0  0  0  0  0  0  0  0  0  0
   -2.2813   -0.1864   -2.0677 O   0  0  0  0  0  0  0  0  0  0  0  0
   -1.3867   -1.4163   -0.1895 C   0  0  1  0  0  0  0  0  0  0  0  0
   -0.0949   -0.6479   -0.1919 C   0  0  0  0  0  0  0  0  0  0  0  0
    1.0919   -1.4416   -0.1501 N   0  0  0  0  0  0  0  0  0  0  0  0
    2.2810   -0.9875    0.5899 C   0  0  0  0  0  0  0  0  0  0  0  0
    3.1017   -0.1995   -0.3720 C   0  0  0  0  0  0  0  0  0  0  0  0
    4.3225    0.3346    0.1776 N   0  0  1  0  0  0  0  0  0  0  0  0
    5.0366    0.9238   -0.9612 C   0  0  0  0  0  0  0  0  0  0  0  0
    6.4422    1.1834   -0.5311 C   0  0  0  0  0  0  0  0  0  0  0  0
    6.5067    1.4693    0.8081 O   0  0  0  0  0  0  0  0  0  0  0  0
    5.3841    2.1697    1.2688 C   0  0  0  0  0  0  0  0  0  0  0  0
    5.2330    3.5045    0.5891 C   0  0  0  0  0  0  0  0  0  0  0  0
    5.6816    2.4857    2.7407 C   0  0  0  0  0  0  0  0  0  0  0  0
    4.1324    1.3209    1.1876 C   0  0  0  0  0  0  0  0  0  0  0  0
    1.1742   -2.6947   -0.8178 C   0  0  0  0  0  0  0  0  0  0  0  0
    2.2762   -3.2043   -1.0651 O   0  0  0  0  0  0  0  0  0  0  0  0
   -0.0858   -3.3335   -1.1874 C   0  0  0  0  0  0  0  0  0  0  0  0
   -0.0670   -4.5636   -1.8456 C   0  0  0  0  0  0  0  0  0  0  0  0
   -1.2822   -5.1649   -2.1956 C   0  0  0  0  0  0  0  0  0  0  0  0
   -2.4949   -4.5558   -1.8974 C   0  0  0  0  0  0  0  0  0  0  0  0
   -4.0194   -5.3116   -2.3373 Cl  0  0  0  0  0  0  0  0  0  0  0  0
   -2.4714   -3.3463   -1.2492 C   0  0  0  0  0  0  0  0  0  0  0  0
   -1.2923   -2.7313   -0.8928 C   0  0  0  0  0  0  0  0  0  0  0  0
  2  1  1  1
  2  3  1  0
  3  4  1  0
  4  5  1  0
  5  6  2  0
  6  7  1  0
  7  8  2  0
  8  9  1  0
  9 10  2  0
 10 11  1  0
 11 12  2  0
 12 13  1  0
 13 14  2  0
  4 15  1  0
 15 16  2  0
 15 17  1  0
 17 18  1  1
 18 19  1  0
 19 20  1  0
 20 21  1  0
 22 21  1  6
 22 23  1  0
 23 24  1  0
 24 25  1  0
 25 26  1  0
 26 27  1  0
 26 28  1  0
 26 29  1  0
 19 30  1  0
 30 31  2  0
 30 32  1  0
 32 33  2  0
 33 34  1  0
 34 35  2  0
 35 36  1  0
 35 37  1  0
 37 38  2  0
 17  2  1  0
 29 22  1  0
 38 32  1  0
 14  5  1  0
 38 17  1  0
 14  9  1  0
M  CHG  1  22   1
M  END
$$$$

     RDKit          3D

 25 28  0  0  0  0  0  0  0  0999 V2000
   -1.1298   -1.2211    1.3648 O   0  0  0  0  0  0  0  0  0  0  0  0
   -0.4386   -1.0980    0.3060 C   0  0  0  0  0  0  0  0  0  0  0  0
   -1.0288   -0.8662   -1.0186 C   0  0  0  0  0  0  0  0  0  0  0  0
   -2.5105   -0.7975   -0.9796 C   0  0  0  0  0  0  0  0  0  0  0  0
   -3.2062   -1.9099   -1.4390 C   0  0  0  0  0  0  0  0  0  0  0  0
   -4.5574   -1.9022   -1.4264 N   0  0  0  0  0  0  0  0  0  0  0  0
   -5.2415   -0.8168   -0.9687 C   0  0  0  0  0  0  0  0  0  0  0  0
   -4.5425    0.2866   -0.5132 C   0  0  0  0  0  0  0  0  0  0  0  0
   -5.2559    1.3817   -0.0513 C   0  0  0  0  0  0  0  0  0  0  0  0
   -4.5886    2.5019    0.4114 C   0  0  0  0  0  0  0  0  0  0  0  0
   -3.1932    2.5098    0.4050 C   0  0  0  0  0  0  0  0  0  0  0  0
   -2.4805    1.4177   -0.0556 C   0  0  0  0  0  0  0  0  0  0  0  0
   -3.1556    0.3253   -0.5067 C   0  0  0  0  0  0  0  0  0  0  0  0
    0.9671   -1.1974    0.4648 N   0  0  0  0  0  0  0  0  0  0  0  0
    1.7107   -1.4229    1.6894 C   0  0  0  0  0  0  0  0  0  0  0  0
    3.0283   -2.0603    1.3077 C   0  0  0  0  0  0  0  0  0  0  0  0
    2.8434   -2.2963   -0.1745 C   0  0  0  0  0  0  0  0  0  0  0  0
    2.0086   -1.0987   -0.5718 C   0  0  2  0  0  0  0  0  0  0  0  0
    2.7341    0.1696   -0.4393 C   0  0  0  0  0  0  0  0  0  0  0  0
    2.0481    1.3635   -0.2325 C   0  0  0  0  0  0  0  0  0  0  0  0
    2.7274    2.5755   -0.1049 C   0  0  0  0  0  0  0  0  0  0  0  0
    4.1036    2.6372   -0.1787 C   0  0  0  0  0  0  0  0  0  0  0  0
    4.7951    1.4512   -0.3847 C   0  0  0  0  0  0  0  0  0  0  0  0
    6.1495    1.4592   -0.4648 F   0  0  0  0  0  0  0  0  0  0  0  0
    4.1017    0.2542   -0.5094 C   0  0  0  0  0  0  0  0  0  0  0  0
  1  2  2  0
  2  3  1  0
  3  4  1  0
  4  5  2  0
  5  6  1  0
  6  7  2  0
  7  8  1  0
  8  9  2  0
  9 10  1  0
 10 11  2  0
 11 12  1  0
 12 13  2  0
  2 14  1  0
 14 15  1  0
 15 16  1  0
 16 17  1  0
 17 18  1  0
 18 19  1  1
 19 20  2  0
 20 21  1  0
 21 22  2  0
 22 23  1  0
 23 24  1  0
 23 25  2  0
 13  4  1  0
 18 14  1  0
 25 19  1  0
 13  8  1  0
M  END
$$$$

     RDKit          3D

 35 40  0  0  0  0  0  0  0  0999 V2000
   -0.8903   -1.2630    2.7712 C   0  0  0  0  0  0  0  0  0  0  0  0
   -0.9676   -1.9238    1.3921 C   0  0  1  0  0  0  0  0  0  0  0  0
   -2.2841   -1.5245    0.8143 C   0  0  0  0  0  0  0  0  0  0  0  0
   -2.0277   -0.1981    0.2977 N   0  0  0  0  0  0  0  0  0  0  0  0
   -2.8635    0.9497    0.2627 C   0  0  0  0  0  0  0  0  0  0  0  0
   -2.9086    1.8991    1.2574 C   0  0  0  0  0  0  0  0  0  0  0  0
   -3.7290    2.9715    1.1637 N   0  0  0  0  0  0  0  0  0  0  0  0
   -4.5322    3.1556    0.0997 C   0  0  0  0  0  0  0  0  0  0  0  0
   -4.5275    2.2289   -0.9333 C   0  0  0  0  0  0  0  0  0  0  0  0
   -5.3477    2.3984   -2.0407 C   0  0  0  0  0  0  0  0  0  0  0  0
   -5.3547    1.4765   -3.0869 C   0  0  0  0  0  0  0  0  0  0  0  0
   -4.5117    0.3850   -2.9789 C   0  0  0  0  0  0  0  0  0  0  0  0
   -3.7014    0.2140   -1.8891 C   0  0  0  0  0  0  0  0  0  0  0  0
   -3.6818    1.1176   -0.8432 C   0  0  0  0  0  0  0  0  0  0  0  0
   -0.7030   -0.2583   -0.2095 C   0  0  0  0  0  0  0  0  0  0  0  0
   -0.1947    0.4438   -1.1500 O   0  0  0  0  0  0  0  0  0  0  0  0
    0.0494   -1.2950    0.5338 C   0  0  1  0  0  0  0  0  0  0  0  0
    1.1807   -0.6506    1.3332 C   0  0  0  0  0  0  0  0  0  0  0  0
    2.0460    0.0366    0.3951 N   0  0  0  0  0  0  0  0  0  0  0  0
    2.2781    1.4565    0.3936 C   0  0  0  0  0  0  0  0  0  0  0  0
    3.4297    1.8351    1.2524 C   0  0  0  0  0  0  0  0  0  0  0  0
    3.4571    2.1670    2.5911 C   0  0  0  0  0  0  0  0  0  0  0  0
    4.7413    2.4243    2.8760 N   0  0  0  0  0  0  0  0  0  0  0  0
    5.4777    2.2662    1.7915 N   0  0  0  0  0  0  0  0  0  0  0  0
    6.9139    2.4357    1.6275 C   0  0  0  0  0  0  0  0  0  0  0  0
    4.7003    1.9035    0.7746 N   0  0  0  0  0  0  0  0  0  0  0  0
    2.6982   -0.8053   -0.5797 C   0  0  0  0  0  0  0  0  0  0  0  0
    3.8277   -0.5077   -1.0246 O   0  0  0  0  0  0  0  0  0  0  0  0
    1.9442   -1.9899   -0.9823 C   0  0  0  0  0  0  0  0  0  0  0  0
    2.5403   -2.8324   -1.8866 C   0  0  0  0  0  0  0  0  0  0  0  0
    1.9050   -3.9843   -2.2962 C   0  0  0  0  0  0  0  0  0  0  0  0
    0.6616   -4.2587   -1.7712 C   0  0  0  0  0  0  0  0  0  0  0  0
    0.0026   -5.3960   -2.1569 F   0  0  0  0  0  0  0  0  0  0  0  0
    0.0653   -3.3901   -0.8498 C   0  0  0  0  0  0  0  0  0  0  0  0
    0.6885   -2.2329   -0.4306 C   0  0  0  0  0  0  0  0  0  0  0  0
  2  1  1  1
  2  3  1  0
  3  4  1  0
  4  5  1  0
  5  6  2  0
  6  7  1  0
  7  8  2  0
  8  9  1  0
  9 10  2  0
 10 11  1  0
 11 12  2  0
 12 13  1  0
 13 14  2  0
  4 15  1  0
 15 16  2  0
 15 17  1  0
 17 18  1  1
 18 19  1  0
 19 20  1  0
 20 21  1  0
 21 22  1  0
 22 23  2  0
 23 24  1  0
 24 25  1  0
 24 26  1  0
 19 27  1  0
 27 28  2  0
 27 29  1  0
 29 30  2  0
 30 31  1  0
 31 32  2  0
 32 33  1  0
 32 34  1  0
 34 35  2  0
 17  2  1  0
 26 21  2  0
 35 29  1  0
 14  5  1  0
 35 17  1  0
 14  9  1  0
M  END
$$$$

     RDKit          3D

 31 34  0  0  0  0  0  0  0  0999 V2000
    3.4994    5.3861    1.7741 N   0  0  0  0  0  0  0  0  0  0  0  0
    3.8539    4.7195    0.9063 C   0  0  0  0  0  0  0  0  0  0  0  0
    4.2918    3.8630   -0.1994 C   0  0  0  0  0  0  0  0  0  0  0  0
    3.2619    2.8138   -0.3827 C   0  0  0  0  0  0  0  0  0  0  0  0
    2.1736    2.9626   -1.2306 C   0  0  0  0  0  0  0  0  0  0  0  0
    1.2378    1.9370   -1.3591 C   0  0  0  0  0  0  0  0  0  0  0  0
    1.3969    0.7707   -0.6394 C   0  0  0  0  0  0  0  0  0  0  0  0
    0.4376   -0.2981   -0.7624 N   0  0  0  0  0  0  0  0  0  0  0  0
    0.6740   -1.2749   -1.7672 C   0  0  0  0  0  0  0  0  0  0  0  0
    1.4894   -2.4286   -1.3900 C   0  0  0  0  0  0  0  0  0  0  0  0
    1.0416   -3.6169   -0.9019 C   0  0  0  0  0  0  0  0  0  0  0  0
    1.9126   -4.6343   -0.5758 C   0  0  0  0  0  0  0  0  0  0  0  0
    3.2812   -4.5174   -0.7209 C   0  0  0  0  0  0  0  0  0  0  0  0
    3.7447   -3.3079   -1.2184 C   0  0  0  0  0  0  0  0  0  0  0  0
    5.4832   -3.0725   -1.4352 Cl  0  0  0  0  0  0  0  0  0  0  0  0
    2.8773   -2.3003   -1.5410 C   0  0  0  0  0  0  0  0  0  0  0  0
   -0.6494   -0.2598    0.1410 C   0  0  0  0  0  0  0  0  0  0  0  0
   -0.6743    0.7048    0.9666 O   0  0  0  0  0  0  0  0  0  0  0  0
   -1.7429   -1.2624    0.1795 C   0  0  0  0  0  0  0  0  0  0  0  0
   -2.7215   -0.8991    1.2469 C   0  0  0  0  0  0  0  0  0  0  0  0
   -2.7800   -1.5479    2.4620 C   0  0  0  0  0  0  0  0  0  0  0  0
   -3.6609   -1.2206    3.4264 N   0  0  0  0  0  0  0  0  0  0  0  0
   -4.5590   -0.2233    3.2704 C   0  0  0  0  0  0  0  0  0  0  0  0
   -4.5462    0.4624    2.0710 C   0  0  0  0  0  0  0  0  0  0  0  0
   -5.4705    1.4770    1.9302 C   0  0  0  0  0  0  0  0  0  0  0  0
   -5.4714    2.1713    0.7392 C   0  0  0  0  0  0  0  0  0  0  0  0
   -4.5892    1.8776   -0.2854 C   0  0  0  0  0  0  0  0  0  0  0  0
   -3.6651    0.8515   -0.1242 C   0  0  0  0  0  0  0  0  0  0  0  0
   -3.6409    0.1388    1.0580 C   0  0  0  0  0  0  0  0  0  0  0  0
    2.4798    0.6093    0.2111 C   0  0  0  0  0  0  0  0  0  0  0  0
    3.4041    1.6349    0.3316 C   0  0  0  0  0  0  0  0  0  0  0  0
  1  2  3  0
  2  3  1  0
  3  4  1  0
  4  5  2  0
  5  6  1  0
  6  7  2  0
  7  8  1  0
  8  9  1  0
  9 10  1  0
 10 11  2  0
 11 12  1  0
 12 13  2  0
 13 14  1  0
 14 15  1  0
 14 16  2  0
  8 17  1  0
 17 18  2  0
 17 19  1  0
 19 20  1  0
 20 21  2  0
 21 22  1  0
 22 23  2  0
 23 24  1  0
 24 25  2  0
 25 26  1  0
 26 27  2  0
 27 28  1  0
 28 29  2  0
  7 30  1  0
 30 31  2  0
 31  4  1  0
 16 10  1  0
 29 20  1  0
 29 24  1  0
M  END
$$$$

     RDKit          3D

 35 40  0  0  0  0  0  0  0  0999 V2000
    0.0909   -2.9293    2.1218 C   0  0  0  0  0  0  0  0  0  0  0  0
   -0.7817   -2.3566    1.0261 C   0  0  1  0  0  0  0  0  0  0  0  0
   -1.5610   -1.1896    1.6525 C   0  0  0  0  0  0  0  0  0  0  0  0
   -2.0519   -0.5291    0.4599 N   0  0  0  0  0  0  0  0  0  0  0  0
   -3.3006    0.1593    0.3324 C   0  0  0  0  0  0  0  0  0  0  0  0
   -4.3722   -0.6367   -0.0860 C   0  0  0  0  0  0  0  0  0  0  0  0
   -5.6154   -0.0961   -0.2453 N   0  0  0  0  0  0  0  0  0  0  0  0
   -5.7980    1.2213    0.0070 C   0  0  0  0  0  0  0  0  0  0  0  0
   -4.7413    2.0117    0.4208 C   0  0  0  0  0  0  0  0  0  0  0  0
   -4.9662    3.3528    0.6687 C   0  0  0  0  0  0  0  0  0  0  0  0
   -3.9009    4.1068    1.0761 C   0  0  0  0  0  0  0  0  0  0  0  0
   -2.6191    3.5848    1.2484 C   0  0  0  0  0  0  0  0  0  0  0  0
   -2.3953    2.2409    0.9996 C   0  0  0  0  0  0  0  0  0  0  0  0
   -3.4605    1.4914    0.5931 C   0  0  0  0  0  0  0  0  0  0  0  0
   -1.0510   -0.6988   -0.5649 C   0  0  0  0  0  0  0  0  0  0  0  0
   -1.0362   -0.1088   -1.6929 O   0  0  0  0  0  0  0  0  0  0  0  0
   -0.0342   -1.6924   -0.0624 C   0  0  1  0  0  0  0  0  0  0  0  0
    1.1315   -0.8637    0.4173 C   0  0  0  0  0  0  0  0  0  0  0  0
    1.6426   -0.0894   -0.6952 N   0  0  0  0  0  0  0  0  0  0  0  0
    1.7386    1.3571   -0.6878 C   0  0  0  0  0  0  0  0  0  0  0  0
    3.0567    1.8056   -0.1512 C   0  0  0  0  0  0  0  0  0  0  0  0
    4.1986    2.0255   -0.8873 C   0  0  0  0  0  0  0  0  0  0  0  0
    5.2189    2.4307   -0.0533 C   0  0  0  0  0  0  0  0  0  0  0  0
    4.6610    2.4462    1.1842 N   0  0  0  0  0  0  0  0  0  0  0  0
    5.4539    2.8343    2.3576 C   0  0  0  0  0  0  0  0  0  0  0  0
    3.3975    2.0811    1.1278 N   0  0  0  0  0  0  0  0  0  0  0  0
    2.0693   -0.8223   -1.8417 C   0  0  0  0  0  0  0  0  0  0  0  0
    2.9796   -0.3937   -2.5886 O   0  0  0  0  0  0  0  0  0  0  0  0
    1.3728   -2.0965   -2.0783 C   0  0  0  0  0  0  0  0  0  0  0  0
    1.7679   -2.8250   -3.1603 C   0  0  0  0  0  0  0  0  0  0  0  0
    1.1867   -4.0376   -3.4632 C   0  0  0  0  0  0  0  0  0  0  0  0
    0.1886   -4.4774   -2.6211 C   0  0  0  0  0  0  0  0  0  0  0  0
   -0.4113   -5.6745   -2.8889 F   0  0  0  0  0  0  0  0  0  0  0  0
   -0.2102   -3.7390   -1.5270 C   0  0  0  0  0  0  0  0  0  0  0  0
    0.3636   -2.5111   -1.2026 C   0  0  0  0  0  0  0  0  0  0  0  0
  2  1  1  1
  2  3  1  0
  3  4  1  0
  4  5  1  0
  5  6  2  0
  6  7  1  0
  7  8  2  0
  8  9  1  0
  9 10  2  0
 10 11  1  0
 11 12  2  0
 12 13  1  0
 13 14  2  0
  4 15  1  0
 15 16  2  0
 15 17  1  0
 17 18  1  1
 18 19  1  0
 19 20  1  0
 20 21  1  0
 21 22  1  0
 22 23  2  0
 23 24  1  0
 24 25  1  0
 24 26  1  0
 19 27  1  0
 27 28  2  0
 27 29  1  0
 29 30  2  0
 30 31  1  0
 31 32  2  0
 32 33  1  0
 32 34  1  0
 34 35  2  0
 17  2  1  0
 26 21  2  0
 35 29  1  0
 14  5  1  0
 35 17  1  0
 14  9  1  0
M  END
$$$$

     RDKit          3D

 30 33  0  0  0  0  0  0  0  0999 V2000
    3.2785    3.7894   -5.3231 N   0  0  0  0  0  0  0  0  0  0  0  0
    2.9337    3.2793   -4.3449 C   0  0  0  0  0  0  0  0  0  0  0  0
    2.4949    2.6274   -3.1409 C   0  0  0  0  0  0  0  0  0  0  0  0
    2.0139    1.3234   -3.1886 C   0  0  0  0  0  0  0  0  0  0  0  0
    1.5899    0.6863   -2.0409 C   0  0  0  0  0  0  0  0  0  0  0  0
    1.6623    1.3960   -0.8416 C   0  0  0  0  0  0  0  0  0  0  0  0
    1.2226    0.7525    0.3865 N   0  0  0  0  0  0  0  0  0  0  0  0
    2.2158    0.0300    1.1059 C   0  0  0  0  0  0  0  0  0  0  0  0
    2.4173   -1.3703    0.7503 C   0  0  0  0  0  0  0  0  0  0  0  0
    3.3315   -1.6473   -0.2736 C   0  0  0  0  0  0  0  0  0  0  0  0
    3.5842   -2.9555   -0.6681 C   0  0  0  0  0  0  0  0  0  0  0  0
    2.9430   -4.0236   -0.0643 C   0  0  0  0  0  0  0  0  0  0  0  0
    2.0430   -3.7556    0.9435 C   0  0  0  0  0  0  0  0  0  0  0  0
    1.1924   -5.0629    1.7545 Cl  0  0  0  0  0  0  0  0  0  0  0  0
    1.7989   -2.4516    1.3284 C   0  0  0  0  0  0  0  0  0  0  0  0
   -0.1229    0.9170    0.7152 C   0  0  0  0  0  0  0  0  0  0  0  0
   -0.8407    1.6062   -0.0854 O   0  0  0  0  0  0  0  0  0  0  0  0
   -0.8107    0.3737    1.9029 C   0  0  0  0  0  0  0  0  0  0  0  0
   -2.2464    0.7578    1.9431 C   0  0  0  0  0  0  0  0  0  0  0  0
   -2.7302    1.7411    2.7857 C   0  0  0  0  0  0  0  0  0  0  0  0
   -4.0457    1.9977    2.7301 N   0  0  0  0  0  0  0  0  0  0  0  0
   -4.9125    1.3756    1.9252 C   0  0  0  0  0  0  0  0  0  0  0  0
   -4.4582    0.3912    1.0747 C   0  0  0  0  0  0  0  0  0  0  0  0
   -5.3476   -0.2496    0.2464 C   0  0  0  0  0  0  0  0  0  0  0  0
   -4.8381   -1.2303   -0.5878 C   0  0  0  0  0  0  0  0  0  0  0  0
   -3.4947   -1.5565   -0.5932 C   0  0  0  0  0  0  0  0  0  0  0  0
   -2.6390   -0.8944    0.2479 C   0  0  0  0  0  0  0  0  0  0  0  0
   -3.1203    0.0977    1.0997 C   0  0  0  0  0  0  0  0  0  0  0  0
    2.1374    2.6891   -0.7823 C   0  0  0  0  0  0  0  0  0  0  0  0
    2.5611    3.3226   -1.9363 C   0  0  0  0  0  0  0  0  0  0  0  0
  1  2  3  0
  2  3  1  0
  3  4  2  0
  4  5  1  0
  5  6  2  0
  6  7  1  0
  7  8  1  0
  8  9  1  0
  9 10  2  0
 10 11  1  0
 11 12  2  0
 12 13  1  0
 13 14  1  0
 13 15  2  0
  7 16  1  0
 16 17  2  0
 16 18  1  0
 18 19  1  0
 19 20  2  0
 20 21  1  0
 21 22  2  0
 22 23  1  0
 23 24  2  0
 24 25  1  0
 25 26  2  0
 26 27  1  0
 27 28  2  0
  6 29  1  0
 29 30  2  0
 30  3  1  0
 15  9  1  0
 28 19  1  0
 28 23  1  0
M  END
$$$$

     RDKit          3D

 40 45  0  0  0  0  0  0  0  0999 V2000
   -0.5689   -5.6500   -0.5964 C   0  0  0  0  0  0  0  0  0  0  0  0
   -0.7035   -4.2177   -0.8704 N   0  0  0  0  0  0  0  0  0  0  0  0
   -1.6042   -3.9699   -1.9495 C   0  0  0  0  0  0  0  0  0  0  0  0
   -1.4799   -2.6241   -2.6113 C   0  0  0  0  0  0  0  0  0  0  0  0
   -1.7315   -1.5169   -1.7117 N   0  0  0  0  0  0  0  0  0  0  0  0
   -0.6562   -0.8650   -1.0251 C   0  0  0  0  0  0  0  0  0  0  0  0
   -0.9273    0.4256   -0.3551 C   0  0  2  0  0  0  0  0  0  0  0  0
   -0.3660    1.5638   -1.1964 C   0  0  0  0  0  0  0  0  0  0  0  0
   -0.9115    1.9162   -2.2896 O   0  0  0  0  0  0  0  0  0  0  0  0
    0.7799    2.1137   -0.5881 N   0  0  0  0  0  0  0  0  0  0  0  0
    1.7568    2.8564   -1.3315 C   0  0  0  0  0  0  0  0  0  0  0  0
    2.8673    2.2576   -1.8962 C   0  0  0  0  0  0  0  0  0  0  0  0
    3.7723    2.9828   -2.6095 N   0  0  0  0  0  0  0  0  0  0  0  0
    3.5922    4.3255   -2.7787 C   0  0  0  0  0  0  0  0  0  0  0  0
    2.4667    4.9212   -2.2055 C   0  0  0  0  0  0  0  0  0  0  0  0
    2.3072    6.2752   -2.3914 C   0  0  0  0  0  0  0  0  0  0  0  0
    1.2039    6.8691   -1.8314 C   0  0  0  0  0  0  0  0  0  0  0  0
    0.2577    6.1470   -1.0934 C   0  0  0  0  0  0  0  0  0  0  0  0
    0.4175    4.7916   -0.9083 C   0  0  0  0  0  0  0  0  0  0  0  0
    1.5434    4.2118   -1.4832 C   0  0  0  0  0  0  0  0  0  0  0  0
    0.7503    1.7953    0.7912 C   0  0  0  0  0  0  0  0  0  0  0  0
   -0.2399    0.6687    0.9505 C   0  0  2  0  0  0  0  0  0  0  0  0
    0.5047   -0.5073    1.4880 C   0  0  0  0  0  0  0  0  0  0  0  0
   -0.2023   -1.6265    1.7700 O   0  0  0  0  0  0  0  0  0  0  0  0
    0.5319   -2.6660    2.2388 C   0  0  0  0  0  0  0  0  0  0  0  0
    1.2926   -2.4799    3.5035 C   0  0  0  0  0  0  0  0  0  0  0  0
    2.0279   -3.7915    3.8342 C   0  0  0  0  0  0  0  0  0  0  0  0
    3.5214   -2.9546    4.2167 S   0  0  0  0  0  0  0  0  0  0  0  0
    4.7086   -3.3668    3.3844 O   0  0  0  0  0  0  0  0  0  0  0  0
    3.8231   -2.7456    5.6661 O   0  0  0  0  0  0  0  0  0  0  0  0
    2.5401   -1.6652    3.4883 C   0  0  0  0  0  0  0  0  0  0  0  0
   -2.3810    0.7627   -0.2765 C   0  0  0  0  0  0  0  0  0  0  0  0
   -2.7023    1.9158    0.4442 C   0  0  0  0  0  0  0  0  0  0  0  0
   -4.0276    2.3320    0.5818 C   0  0  0  0  0  0  0  0  0  0  0  0
   -4.3815    3.7846    1.4949 Cl  0  0  0  0  0  0  0  0  0  0  0  0
   -5.0342    1.6110    0.0080 C   0  0  0  0  0  0  0  0  0  0  0  0
   -4.6919    0.4791   -0.6973 C   0  0  0  0  0  0  0  0  0  0  0  0
   -3.4026    0.0712   -0.8327 C   0  0  0  0  0  0  0  0  0  0  0  0
   -3.1136   -1.1270   -1.5927 C   0  0  0  0  0  0  0  0  0  0  0  0
   -4.0304   -1.7965   -2.1239 O   0  0  0  0  0  0  0  0  0  0  0  0
  1  2  1  0
  2  3  1  0
  3  4  1  0
  4  5  1  0
  5  6  1  0
  7  6  1  6
  7  8  1  0
  8  9  2  0
  8 10  1  0
 10 11  1  0
 11 12  2  0
 12 13  1  0
 13 14  2  0
 14 15  1  0
 15 16  2  0
 16 17  1  0
 17 18  2  0
 18 19  1  0
 19 20  2  0
 10 21  1  0
 21 22  1  0
 22 23  1  6
 23 24  1  0
 24 25  1  0
 25 26  1  0
 26 27  1  0
 27 28  1  0
 28 29  2  0
 28 30  2  0
 28 31  1  0
  7 32  1  0
 32 33  2  0
 33 34  1  0
 34 35  1  0
 34 36  2  0
 36 37  1  0
 37 38  2  0
 38 39  1  0
 39 40  2  0
 39  5  1  0
 22  7  1  0
 31 26  1  0
 38 32  1  0
 20 11  1  0
 20 15  1  0
M  CHG  1   2   1
M  END
$$$$

     RDKit          3D

 35 39  0  0  0  0  0  0  0  0999 V2000
   -1.5529    3.4239   -2.4297 C   0  0  0  0  0  0  0  0  0  0  0  0
   -0.0735    3.2989   -2.1072 C   0  0  0  0  0  0  0  0  0  0  0  0
    0.2642    1.9783   -1.7925 O   0  0  0  0  0  0  0  0  0  0  0  0
   -0.4197    1.5017   -0.7096 C   0  0  1  0  0  0  0  0  0  0  0  0
   -1.2354    0.2260   -1.0356 C   0  0  0  0  0  0  0  0  0  0  0  0
   -1.6514   -0.1801    0.2811 N   0  0  0  0  0  0  0  0  0  0  0  0
   -2.8205   -0.7879    0.7864 C   0  0  0  0  0  0  0  0  0  0  0  0
   -3.2460   -0.4685    2.0840 C   0  0  0  0  0  0  0  0  0  0  0  0
   -4.3540   -1.0389    2.6197 N   0  0  0  0  0  0  0  0  0  0  0  0
   -5.1153   -1.9291    1.9773 C   0  0  0  0  0  0  0  0  0  0  0  0
   -4.7299   -2.2724    0.6947 C   0  0  0  0  0  0  0  0  0  0  0  0
   -5.5098   -3.1996    0.0429 C   0  0  0  0  0  0  0  0  0  0  0  0
   -5.1806   -3.6059   -1.2391 C   0  0  0  0  0  0  0  0  0  0  0  0
   -4.0642   -3.0440   -1.7987 C   0  0  0  0  0  0  0  0  0  0  0  0
   -3.2821   -2.1144   -1.1464 C   0  0  0  0  0  0  0  0  0  0  0  0
   -3.5962   -1.7023    0.1203 C   0  0  0  0  0  0  0  0  0  0  0  0
   -0.5806    0.2227    1.1683 C   0  0  0  0  0  0  0  0  0  0  0  0
   -0.4842    0.0869    2.4054 O   0  0  0  0  0  0  0  0  0  0  0  0
    0.4969    0.8801    0.3576 C   0  0  1  0  0  0  0  0  0  0  0  0
    1.3129   -0.2253   -0.2189 C   0  0  0  0  0  0  0  0  0  0  0  0
    2.5594   -0.4219    0.4441 N   0  0  0  0  0  0  0  0  0  0  0  0
    3.1847   -1.7503    0.3704 C   0  0  0  0  0  0  0  0  0  0  0  0
    4.0723   -1.8451   -0.8011 C   0  0  0  0  0  0  0  0  0  0  0  0
    4.2655   -0.9184   -1.6204 O   0  0  0  0  0  0  0  0  0  0  0  0
    4.7563   -3.0728   -1.0161 N   0  0  0  0  0  0  0  0  0  0  0  0
    5.6464   -3.2343   -2.1513 C   0  0  0  0  0  0  0  0  0  0  0  0
    3.2682    0.5597    1.1775 C   0  0  0  0  0  0  0  0  0  0  0  0
    4.4678    0.3888    1.5121 O   0  0  0  0  0  0  0  0  0  0  0  0
    2.5469    1.7774    1.5282 C   0  0  0  0  0  0  0  0  0  0  0  0
    3.2110    2.7303    2.2383 C   0  0  0  0  0  0  0  0  0  0  0  0
    2.5825    3.8994    2.6047 C   0  0  0  0  0  0  0  0  0  0  0  0
    1.2691    4.0500    2.2208 C   0  0  0  0  0  0  0  0  0  0  0  0
    0.4644    5.5355    2.6844 Cl  0  0  0  0  0  0  0  0  0  0  0  0
    0.5904    3.0683    1.4910 C   0  0  0  0  0  0  0  0  0  0  0  0
    1.2212    1.8924    1.1217 C   0  0  0  0  0  0  0  0  0  0  0  0
  1  2  1  0
  2  3  1  0
  4  3  1  6
  4  5  1  0
  5  6  1  0
  6  7  1  0
  7  8  2  0
  8  9  1  0
  9 10  2  0
 10 11  1  0
 11 12  2  0
 12 13  1  0
 13 14  2  0
 14 15  1  0
 15 16  2  0
  6 17  1  0
 17 18  2  0
 17 19  1  0
 19 20  1  6
 20 21  1  0
 21 22  1  0
 22 23  1  0
 23 24  2  0
 23 25  1  0
 25 26  1  0
 21 27  1  0
 27 28  2  0
 27 29  1  0
 29 30  2  0
 30 31  1  0
 31 32  2  0
 32 33  1  0
 32 34  1  0
 34 35  2  0
 19  4  1  0
 35 29  1  0
 16  7  1  0
 35 19  1  0
 16 11  1  0
M  END
$$$$

     RDKit          3D

 35 39  0  0  0  0  0  0  0  0999 V2000
   -3.4485    3.5144    0.2223 C   0  0  0  0  0  0  0  0  0  0  0  0
   -3.2186    2.1245   -0.1865 N   0  0  0  0  0  0  0  0  0  0  0  0
   -3.8299    1.6417   -1.3772 C   0  0  0  0  0  0  0  0  0  0  0  0
   -4.5629    2.4392   -2.0546 O   0  0  0  0  0  0  0  0  0  0  0  0
   -3.6344    0.2467   -1.8410 C   0  0  0  0  0  0  0  0  0  0  0  0
   -2.7652   -0.5206   -0.9405 N   0  0  0  0  0  0  0  0  0  0  0  0
   -1.3563   -0.4846   -1.2294 C   0  0  0  0  0  0  0  0  0  0  0  0
   -0.4984   -1.1489   -0.2232 C   0  0  2  0  0  0  0  0  0  0  0  0
    0.4036   -0.0640    0.3431 C   0  0  0  0  0  0  0  0  0  0  0  0
    0.0210    0.6944    1.2993 O   0  0  0  0  0  0  0  0  0  0  0  0
    1.6254   -0.0771   -0.3455 N   0  0  0  0  0  0  0  0  0  0  0  0
    2.4057    1.1041   -0.5777 C   0  0  0  0  0  0  0  0  0  0  0  0
    2.2326    1.8834   -1.7120 C   0  0  0  0  0  0  0  0  0  0  0  0
    2.9529    2.9863   -1.9408 N   0  0  0  0  0  0  0  0  0  0  0  0
    3.8937    3.4148   -1.0869 C   0  0  0  0  0  0  0  0  0  0  0  0
    4.1076    2.6636    0.0737 C   0  0  0  0  0  0  0  0  0  0  0  0
    5.0865    3.1176    0.9529 C   0  0  0  0  0  0  0  0  0  0  0  0
    5.2995    2.3766    2.1005 C   0  0  0  0  0  0  0  0  0  0  0  0
    4.5783    1.2409    2.3652 C   0  0  0  0  0  0  0  0  0  0  0  0
    3.5952    0.7822    1.4854 C   0  0  0  0  0  0  0  0  0  0  0  0
    3.3768    1.5189    0.3349 C   0  0  0  0  0  0  0  0  0  0  0  0
    1.8776   -1.4368   -0.7244 C   0  0  0  0  0  0  0  0  0  0  0  0
    0.5337   -2.0717   -0.8209 C   0  0  2  0  0  0  0  0  0  0  0  0
    0.2432   -2.5415   -2.2103 C   0  0  0  0  0  0  0  0  0  0  0  0
   -1.0191   -3.2784   -2.2922 C   0  0  0  0  0  0  0  0  0  0  0  0
   -2.0286   -3.8457   -2.3638 N   0  0  0  0  0  0  0  0  0  0  0  0
   -1.1825   -1.8513    0.8768 C   0  0  0  0  0  0  0  0  0  0  0  0
   -0.3944   -2.5120    1.7993 C   0  0  0  0  0  0  0  0  0  0  0  0
   -0.9936   -3.1954    2.8549 C   0  0  0  0  0  0  0  0  0  0  0  0
    0.0093   -4.0414    4.0364 Cl  0  0  0  0  0  0  0  0  0  0  0  0
   -2.3602   -3.2436    3.0246 C   0  0  0  0  0  0  0  0  0  0  0  0
   -3.1469   -2.5838    2.1039 C   0  0  0  0  0  0  0  0  0  0  0  0
   -2.5404   -1.9113    1.0640 C   0  0  0  0  0  0  0  0  0  0  0  0
   -3.3823   -1.2182    0.1182 C   0  0  0  0  0  0  0  0  0  0  0  0
   -4.6292   -1.2420    0.2435 O   0  0  0  0  0  0  0  0  0  0  0  0
  1  2  1  0
  2  3  1  0
  3  4  2  0
  3  5  1  0
  5  6  1  0
  6  7  1  0
  8  7  1  6
  8  9  1  0
  9 10  2  0
  9 11  1  0
 11 12  1  0
 12 13  2  0
 13 14  1  0
 14 15  2  0
 15 16  1  0
 16 17  2  0
 17 18  1  0
 18 19  2  0
 19 20  1  0
 20 21  2  0
 11 22  1  0
 22 23  1  0
 23 24  1  6
 24 25  1  0
 25 26  3  0
  8 27  1  0
 27 28  2  0
 28 29  1  0
 29 30  1  0
 29 31  2  0
 31 32  1  0
 32 33  2  0
 33 34  1  0
 34 35  2  0
 34  6  1  0
 23  8  1  0
 33 27  1  0
 21 12  1  0
 21 16  1  0
M  END
$$$$

     RDKit          3D

 38 43  0  0  0  0  0  0  0  0999 V2000
    0.9577   -0.0419    3.4791 C   0  0  0  0  0  0  0  0  0  0  0  0
    1.8085    0.4763    2.3065 C   0  0  1  0  0  0  0  0  0  0  0  0
    2.6570   -0.6719    1.8789 C   0  0  0  0  0  0  0  0  0  0  0  0
    2.4384   -0.8679    0.4617 N   0  0  0  0  0  0  0  0  0  0  0  0
    3.1839   -1.8114   -0.3047 C   0  0  0  0  0  0  0  0  0  0  0  0
    2.7562   -3.1208   -0.4740 C   0  0  0  0  0  0  0  0  0  0  0  0
    3.4884   -3.9992   -1.2097 N   0  0  0  0  0  0  0  0  0  0  0  0
    4.6518   -3.5981   -1.7884 C   0  0  0  0  0  0  0  0  0  0  0  0
    5.1170   -2.2995   -1.6457 C   0  0  0  0  0  0  0  0  0  0  0  0
    6.3153   -1.8908   -2.2424 C   0  0  0  0  0  0  0  0  0  0  0  0
    6.7763   -0.5969   -2.0979 C   0  0  0  0  0  0  0  0  0  0  0  0
    6.0179    0.2767   -1.3474 C   0  0  0  0  0  0  0  0  0  0  0  0
    4.8222   -0.1040   -0.7427 C   0  0  0  0  0  0  0  0  0  0  0  0
    4.3716   -1.4095   -0.8977 C   0  0  0  0  0  0  0  0  0  0  0  0
    1.4087    0.0167    0.0543 C   0  0  0  0  0  0  0  0  0  0  0  0
    0.9616    0.0647   -1.1399 O   0  0  0  0  0  0  0  0  0  0  0  0
    0.9209    0.8613    1.1477 C   0  0  1  0  0  0  0  0  0  0  0  0
   -0.5391    0.6178    1.4649 C   0  0  0  0  0  0  0  0  0  0  0  0
   -1.3550    1.0487    0.3637 N   0  0  0  0  0  0  0  0  0  0  0  0
   -2.2957    0.1552   -0.3275 C   0  0  0  0  0  0  0  0  0  0  0  0
   -3.6143    0.2670    0.3859 C   0  0  0  0  0  0  0  0  0  0  0  0
   -4.6480   -0.5675   -0.1895 N   0  0  0  0  0  0  0  0  0  0  0  0
   -5.0652   -0.1323   -1.5057 C   0  0  0  0  0  0  0  0  0  0  0  0
   -5.7209   -1.2806   -2.2283 C   0  0  0  0  0  0  0  0  0  0  0  0
   -6.1496   -2.5720   -1.1073 S   0  0  0  0  0  0  0  0  0  0  0  0
   -5.0346   -3.5936   -1.1688 O   0  0  0  0  0  0  0  0  0  0  0  0
   -7.4113   -3.2489   -1.5636 O   0  0  0  0  0  0  0  0  0  0  0  0
   -6.3932   -1.9932    0.5553 C   0  0  0  0  0  0  0  0  0  0  0  0
   -5.8375   -0.5696    0.6592 C   0  0  0  0  0  0  0  0  0  0  0  0
   -1.2289    2.4068   -0.0541 C   0  0  0  0  0  0  0  0  0  0  0  0
   -2.2058    3.0071   -0.5636 O   0  0  0  0  0  0  0  0  0  0  0  0
    0.0817    3.0237    0.1506 C   0  0  0  0  0  0  0  0  0  0  0  0
    0.2256    4.3267   -0.2493 C   0  0  0  0  0  0  0  0  0  0  0  0
    1.4337    4.9661   -0.0918 C   0  0  0  0  0  0  0  0  0  0  0  0
    2.4694    4.2503    0.4743 C   0  0  0  0  0  0  0  0  0  0  0  0
    4.0084    5.0744    0.6705 Cl  0  0  0  0  0  0  0  0  0  0  0  0
    2.3103    2.9379    0.8723 C   0  0  0  0  0  0  0  0  0  0  0  0
    1.0870    2.2716    0.7200 C   0  0  0  0  0  0  0  0  0  0  0  0
  2  1  1  1
  2  3  1  0
  3  4  1  0
  4  5  1  0
  5  6  2  0
  6  7  1  0
  7  8  2  0
  8  9  1  0
  9 10  2  0
 10 11  1  0
 11 12  2  0
 12 13  1  0
 13 14  2  0
  4 15  1  0
 15 16  2  0
 15 17  1  0
 17 18  1  1
 18 19  1  0
 19 20  1  0
 20 21  1  0
 21 22  1  0
 22 23  1  0
 23 24  1  0
 24 25  1  0
 25 26  2  0
 25 27  2  0
 25 28  1  0
 28 29  1  0
 19 30  1  0
 30 31  2  0
 30 32  1  0
 32 33  2  0
 33 34  1  0
 34 35  2  0
 35 36  1  0
 35 37  1  0
 37 38  2  0
 17  2  1  0
 29 22  1  0
 38 32  1  0
 14  5  1  0
 38 17  1  0
 14  9  1  0
M  END
$$$$

     RDKit          3D

 38 43  0  0  0  0  0  0  0  0999 V2000
    4.7997    3.2605    1.7081 C   0  0  0  0  0  0  0  0  0  0  0  0
    4.3243    1.9258    1.9809 N   0  0  0  0  0  0  0  0  0  0  0  0
    3.5043    1.2866    0.9967 C   0  0  0  0  0  0  0  0  0  0  0  0
    3.1882    1.8480   -0.0891 O   0  0  0  0  0  0  0  0  0  0  0  0
    3.0318   -0.0938    1.3148 C   0  0  0  0  0  0  0  0  0  0  0  0
    2.2134   -0.5429    0.1675 N   0  0  0  0  0  0  0  0  0  0  0  0
    0.8026   -0.2779    0.1482 C   0  0  0  0  0  0  0  0  0  0  0  0
    0.0283   -1.2456   -0.6293 C   0  0  2  0  0  0  0  0  0  0  0  0
   -1.0037   -0.3705   -1.3619 C   0  0  0  0  0  0  0  0  0  0  0  0
   -0.9138    0.0599   -2.5356 O   0  0  0  0  0  0  0  0  0  0  0  0
   -2.0906   -0.1439   -0.4351 N   0  0  0  0  0  0  0  0  0  0  0  0
   -3.1493    0.7953   -0.5760 C   0  0  0  0  0  0  0  0  0  0  0  0
   -4.2915    0.3410   -1.2413 C   0  0  0  0  0  0  0  0  0  0  0  0
   -5.3621    1.1370   -1.4373 N   0  0  0  0  0  0  0  0  0  0  0  0
   -5.3377    2.4191   -0.9778 C   0  0  0  0  0  0  0  0  0  0  0  0
   -4.2137    2.8801   -0.3182 C   0  0  0  0  0  0  0  0  0  0  0  0
   -4.2076    4.1885    0.1432 C   0  0  0  0  0  0  0  0  0  0  0  0
   -3.0840    4.6564    0.8059 C   0  0  0  0  0  0  0  0  0  0  0  0
   -1.9811    3.8279    1.0049 C   0  0  0  0  0  0  0  0  0  0  0  0
   -1.9815    2.5257    0.5483 C   0  0  0  0  0  0  0  0  0  0  0  0
   -3.1065    2.0807   -0.1071 C   0  0  0  0  0  0  0  0  0  0  0  0
   -1.8872   -1.0699    0.6707 C   0  0  0  0  0  0  0  0  0  0  0  0
   -0.9565   -2.1032    0.0668 C   0  0  2  0  0  0  0  0  0  0  0  0
   -0.6067   -3.1074    1.0476 C   0  0  0  0  0  0  0  0  0  0  0  0
    0.0913   -2.7320    2.2729 C   0  0  0  0  0  0  0  0  0  0  0  0
   -0.4304   -2.3575    3.4555 N   0  0  0  0  0  0  0  0  0  0  0  0
    0.5414   -2.1187    4.3136 N   0  0  0  0  0  0  0  0  0  0  0  0
    1.6676   -2.3335    3.7007 N   0  0  0  0  0  0  0  0  0  0  0  0
    1.4241   -2.7076    2.4580 N   0  0  0  0  0  0  0  0  0  0  0  0
    0.7794   -1.8737   -1.7002 C   0  0  0  0  0  0  0  0  0  0  0  0
    0.0549   -2.5391   -2.6876 C   0  0  0  0  0  0  0  0  0  0  0  0
    0.6931   -3.1892   -3.7413 C   0  0  0  0  0  0  0  0  0  0  0  0
   -0.2539   -4.0198   -4.9707 Cl  0  0  0  0  0  0  0  0  0  0  0  0
    2.0662   -3.2095   -3.8641 C   0  0  0  0  0  0  0  0  0  0  0  0
    2.7874   -2.5529   -2.8913 C   0  0  0  0  0  0  0  0  0  0  0  0
    2.1473   -1.9129   -1.8538 C   0  0  0  0  0  0  0  0  0  0  0  0
    2.9366   -1.2030   -0.8564 C   0  0  0  0  0  0  0  0  0  0  0  0
    4.1734   -1.1986   -0.9317 O   0  0  0  0  0  0  0  0  0  0  0  0
  1  2  1  0
  2  3  1  0
  3  4  2  0
  3  5  1  0
  5  6  1  0
  6  7  1  0
  8  7  1  1
  8  9  1  0
  9 10  2  0
  9 11  1  0
 11 12  1  0
 12 13  2  0
 13 14  1  0
 14 15  2  0
 15 16  1  0
 16 17  2  0
 17 18  1  0
 18 19  2  0
 19 20  1  0
 20 21  2  0
 11 22  1  0
 22 23  1  0
 23 24  1  1
 24 25  1  0
 25 26  1  0
 26 27  2  0
 27 28  1  0
 28 29  1  0
  8 30  1  0
 30 31  2  0
 31 32  1  0
 32 33  1  0
 32 34  2  0
 34 35  1  0
 35 36  2  0
 36 37  1  0
 37 38  2  0
 37  6  1  0
 23  8  1  0
 29 25  2  0
 36 30  1  0
 21 12  1  0
 21 16  1  0
M  CHG  1  28  -1
M  END
$$$$

     RDKit          3D

 36 41  0  0  0  0  0  0  0  0999 V2000
    5.9840    1.6693   -1.0374 C   0  0  0  0  0  0  0  0  0  0  0  0
    5.5181    2.6186    0.0403 C   0  0  0  0  0  0  0  0  0  0  0  0
    5.0188    1.8776    1.1863 N   0  0  0  0  0  0  0  0  0  0  0  0
    5.8907    1.4283    2.1120 N   0  0  0  0  0  0  0  0  0  0  0  0
    5.2323    0.7618    3.0652 C   0  0  0  0  0  0  0  0  0  0  0  0
    3.9073    0.8083    2.7040 C   0  0  0  0  0  0  0  0  0  0  0  0
    3.7791    1.5261    1.4982 C   0  0  0  0  0  0  0  0  0  0  0  0
    2.4586    1.7426    0.8936 C   0  0  0  0  0  0  0  0  0  0  0  0
    1.9763    0.6675    0.0692 N   0  0  0  0  0  0  0  0  0  0  0  0
    1.2573   -0.4293    0.7088 C   0  0  0  0  0  0  0  0  0  0  0  0
    0.0106   -0.8564    0.0073 C   0  0  2  0  0  0  0  0  0  0  0  0
   -1.1303    0.0730    0.2842 C   0  0  0  0  0  0  0  0  0  0  0  0
   -1.0436    1.3271    0.1783 O   0  0  0  0  0  0  0  0  0  0  0  0
   -2.2823   -0.6646    0.6711 N   0  0  0  0  0  0  0  0  0  0  0  0
   -3.5601   -0.0697    0.8584 C   0  0  0  0  0  0  0  0  0  0  0  0
   -3.8408    0.3933    2.1357 C   0  0  0  0  0  0  0  0  0  0  0  0
   -5.0266    0.9665    2.3885 N   0  0  0  0  0  0  0  0  0  0  0  0
   -5.9774    1.1129    1.4264 C   0  0  0  0  0  0  0  0  0  0  0  0
   -5.7238    0.6559    0.1287 C   0  0  0  0  0  0  0  0  0  0  0  0
   -6.6902    0.8052   -0.8469 C   0  0  0  0  0  0  0  0  0  0  0  0
   -6.4027    0.3422   -2.1125 C   0  0  0  0  0  0  0  0  0  0  0  0
   -5.1757   -0.2539   -2.3856 C   0  0  0  0  0  0  0  0  0  0  0  0
   -4.2052   -0.4036   -1.4049 C   0  0  0  0  0  0  0  0  0  0  0  0
   -4.4934    0.0568   -0.1497 C   0  0  0  0  0  0  0  0  0  0  0  0
   -1.9435   -2.0649    0.8348 C   0  0  0  0  0  0  0  0  0  0  0  0
   -0.4636   -2.1416    0.6500 C   0  0  2  0  0  0  0  0  0  0  0  0
    0.1468   -2.2594    2.0435 C   0  0  0  0  0  0  0  0  0  0  0  0
    0.2639   -0.9778   -1.4468 C   0  0  0  0  0  0  0  0  0  0  0  0
   -0.5345   -1.7963   -2.2530 C   0  0  0  0  0  0  0  0  0  0  0  0
   -0.3295   -1.9092   -3.6109 C   0  0  0  0  0  0  0  0  0  0  0  0
   -1.1118   -2.7092   -4.3921 F   0  0  0  0  0  0  0  0  0  0  0  0
    0.6797   -1.2155   -4.2432 C   0  0  0  0  0  0  0  0  0  0  0  0
    1.4716   -0.4089   -3.4666 C   0  0  0  0  0  0  0  0  0  0  0  0
    1.2664   -0.2963   -2.1067 C   0  0  0  0  0  0  0  0  0  0  0  0
    2.1633    0.5649   -1.3299 C   0  0  0  0  0  0  0  0  0  0  0  0
    3.0460    1.1703   -1.9254 O   0  0  0  0  0  0  0  0  0  0  0  0
  1  2  1  0
  2  3  1  0
  3  4  1  0
  4  5  2  0
  5  6  1  0
  6  7  2  0
  7  8  1  0
  8  9  1  0
  9 10  1  0
 11 10  1  1
 11 12  1  0
 12 13  2  0
 12 14  1  0
 14 15  1  0
 15 16  2  0
 16 17  1  0
 17 18  2  0
 18 19  1  0
 19 20  2  0
 20 21  1  0
 21 22  2  0
 22 23  1  0
 23 24  2  0
 14 25  1  0
 25 26  1  0
 26 27  1  1
 11 28  1  0
 28 29  2  0
 29 30  1  0
 30 31  1  0
 30 32  2  0
 32 33  1  0
 33 34  2  0
 34 35  1  0
 35 36  2  0
  7  3  1  0
 35  9  1  0
 26 11  1  0
 34 28  1  0
 24 15  1  0
 24 19  1  0
M  END
$$$$

     RDKit          3D

 34 38  0  0  0  0  0  0  0  0999 V2000
    5.1676    2.8085    2.8468 C   0  0  0  0  0  0  0  0  0  0  0  0
    4.2063    2.9497    1.7578 N   0  0  0  0  0  0  0  0  0  0  0  0
    3.6610    1.7882    1.1302 C   0  0  0  0  0  0  0  0  0  0  0  0
    4.0573    0.6804    1.5706 O   0  0  0  0  0  0  0  0  0  0  0  0
    2.7023    1.9828    0.0445 C   0  0  0  0  0  0  0  0  0  0  0  0
    2.1868    0.7641   -0.5442 N   0  0  0  0  0  0  0  0  0  0  0  0
    0.9784    0.2093    0.0101 C   0  0  0  0  0  0  0  0  0  0  0  0
    0.3923   -0.9726   -0.6387 C   0  0  2  0  0  0  0  0  0  0  0  0
   -1.0224   -0.5735   -1.0671 C   0  0  0  0  0  0  0  0  0  0  0  0
   -1.3776   -0.1550   -2.1816 O   0  0  0  0  0  0  0  0  0  0  0  0
   -1.8707   -0.7815    0.0916 N   0  0  0  0  0  0  0  0  0  0  0  0
   -3.2598   -0.5016    0.2050 C   0  0  0  0  0  0  0  0  0  0  0  0
   -4.1208   -1.5380   -0.1620 C   0  0  0  0  0  0  0  0  0  0  0  0
   -5.4650   -1.3728   -0.0902 N   0  0  0  0  0  0  0  0  0  0  0  0
   -5.9986   -0.1993    0.3388 C   0  0  0  0  0  0  0  0  0  0  0  0
   -5.1406    0.8201    0.6997 C   0  0  0  0  0  0  0  0  0  0  0  0
   -5.7013    2.0093    1.1355 C   0  0  0  0  0  0  0  0  0  0  0  0
   -4.8579    3.0469    1.5040 C   0  0  0  0  0  0  0  0  0  0  0  0
   -3.4762    2.8951    1.4368 C   0  0  0  0  0  0  0  0  0  0  0  0
   -2.9190    1.7108    1.0029 C   0  0  0  0  0  0  0  0  0  0  0  0
   -3.7654    0.7016    0.6446 C   0  0  0  0  0  0  0  0  0  0  0  0
   -1.0185   -1.3549    1.1575 C   0  0  0  0  0  0  0  0  0  0  0  0
   -0.0284   -2.0902    0.2967 C   0  0  2  0  0  0  0  0  0  0  0  0
    1.0260   -2.8483    0.9671 C   0  0  0  0  0  0  0  0  0  0  0  0
    2.1211   -1.9900    2.0176 Cl  0  0  0  0  0  0  0  0  0  0  0  0
    1.1460   -1.4685   -1.7868 C   0  0  0  0  0  0  0  0  0  0  0  0
    0.6512   -2.5805   -2.4793 C   0  0  0  0  0  0  0  0  0  0  0  0
    1.3364   -3.1089   -3.5733 C   0  0  0  0  0  0  0  0  0  0  0  0
    0.7031   -4.5021   -4.4293 Cl  0  0  0  0  0  0  0  0  0  0  0  0
    2.5165   -2.5747   -4.0244 C   0  0  0  0  0  0  0  0  0  0  0  0
    3.0102   -1.4803   -3.3499 C   0  0  0  0  0  0  0  0  0  0  0  0
    2.3295   -0.9625   -2.2706 C   0  0  0  0  0  0  0  0  0  0  0  0
    2.9045    0.2149   -1.6346 C   0  0  0  0  0  0  0  0  0  0  0  0
    3.9986    0.7117   -2.0515 O   0  0  0  0  0  0  0  0  0  0  0  0
  1  2  1  0
  2  3  1  0
  3  4  2  0
  3  5  1  0
  5  6  1  0
  6  7  1  0
  8  7  1  1
  8  9  1  0
  9 10  2  0
  9 11  1  0
 11 12  1  0
 12 13  2  0
 13 14  1  0
 14 15  2  0
 15 16  1  0
 16 17  2  0
 17 18  1  0
 18 19  2  0
 19 20  1  0
 20 21  2  0
 11 22  1  0
 22 23  1  0
 23 24  1  1
 24 25  1  0
  8 26  1  0
 26 27  2  0
 27 28  1  0
 28 29  1  0
 28 30  2  0
 30 31  1  0
 31 32  2  0
 32 33  1  0
 33 34  2  0
 33  6  1  0
 23  8  1  0
 32 26  1  0
 21 12  1  0
 21 16  1  0
M  END
$$$$

     RDKit          3D

 35 39  0  0  0  0  0  0  0  0999 V2000
   -5.4521   -1.9652    2.7343 C   0  0  0  0  0  0  0  0  0  0  0  0
   -4.5443   -1.0905    1.9942 N   0  0  0  0  0  0  0  0  0  0  0  0
   -4.3617    0.2360    2.4496 C   0  0  0  0  0  0  0  0  0  0  0  0
   -4.9921    0.6023    3.4747 O   0  0  0  0  0  0  0  0  0  0  0  0
   -3.4663    1.2210    1.7840 C   0  0  0  0  0  0  0  0  0  0  0  0
   -2.8142    0.6429    0.6210 N   0  0  0  0  0  0  0  0  0  0  0  0
   -1.5557   -0.0462    0.6622 C   0  0  0  0  0  0  0  0  0  0  0  0
   -0.6370    0.3727   -0.4086 C   0  0  2  0  0  0  0  0  0  0  0  0
    0.4579   -0.6034   -0.6663 C   0  0  0  0  0  0  0  0  0  0  0  0
    0.3016   -1.8494   -0.6290 O   0  0  0  0  0  0  0  0  0  0  0  0
    1.6751    0.0339   -0.9535 N   0  0  0  0  0  0  0  0  0  0  0  0
    2.9247   -0.5063   -1.4036 C   0  0  0  0  0  0  0  0  0  0  0  0
    3.2593   -0.5544   -2.7551 C   0  0  0  0  0  0  0  0  0  0  0  0
    4.4244   -1.0641   -3.1952 N   0  0  0  0  0  0  0  0  0  0  0  0
    5.3304   -1.5561   -2.3428 C   0  0  0  0  0  0  0  0  0  0  0  0
    5.0817   -1.5479   -0.9964 C   0  0  0  0  0  0  0  0  0  0  0  0
    6.0197   -2.0604   -0.1226 C   0  0  0  0  0  0  0  0  0  0  0  0
    5.7901   -2.0677    1.2524 C   0  0  0  0  0  0  0  0  0  0  0  0
    4.5952   -1.5436    1.6770 C   0  0  0  0  0  0  0  0  0  0  0  0
    3.6747   -1.0399    0.8112 C   0  0  0  0  0  0  0  0  0  0  0  0
    3.8702   -1.0182   -0.5389 C   0  0  0  0  0  0  0  0  0  0  0  0
    1.4689    1.4344   -0.7351 C   0  0  0  0  0  0  0  0  0  0  0  0
    0.1012    1.6513   -0.1950 C   0  0  2  0  0  0  0  0  0  0  0  0
    0.2205    1.9818    1.2733 C   0  0  0  0  0  0  0  0  0  0  0  0
    0.8741    1.0563    2.0350 O   0  0  0  0  0  0  0  0  0  0  0  0
    0.9238    1.4685    3.3774 C   0  0  0  0  0  0  0  0  0  0  0  0
   -1.3922    0.4129   -1.7167 C   0  0  0  0  0  0  0  0  0  0  0  0
   -0.6991    0.2535   -2.9254 C   0  0  0  0  0  0  0  0  0  0  0  0
   -1.3352    0.3167   -4.1452 C   0  0  0  0  0  0  0  0  0  0  0  0
   -0.4312    0.1117   -5.6421 Cl  0  0  0  0  0  0  0  0  0  0  0  0
   -2.6940    0.5422   -4.2109 C   0  0  0  0  0  0  0  0  0  0  0  0
   -3.3962    0.7012   -3.0321 C   0  0  0  0  0  0  0  0  0  0  0  0
   -2.7323    0.6322   -1.8291 C   0  0  0  0  0  0  0  0  0  0  0  0
   -3.5185    0.7620   -0.6144 C   0  0  0  0  0  0  0  0  0  0  0  0
   -4.7393    0.9658   -0.6331 O   0  0  0  0  0  0  0  0  0  0  0  0
  1  2  1  0
  2  3  1  0
  3  4  2  0
  3  5  1  0
  5  6  1  0
  6  7  1  0
  8  7  1  1
  8  9  1  0
  9 10  2  0
  9 11  1  0
 11 12  1  0
 12 13  2  0
 13 14  1  0
 14 15  2  0
 15 16  1  0
 16 17  2  0
 17 18  1  0
 18 19  2  0
 19 20  1  0
 20 21  2  0
 11 22  1  0
 22 23  1  0
 23 24  1  1
 24 25  1  0
 25 26  1  0
  8 27  1  0
 27 28  2  0
 28 29  1  0
 29 30  1  0
 29 31  2  0
 31 32  1  0
 32 33  2  0
 33 34  1  0
 34 35  2  0
 34  6  1  0
 23  8  1  0
 33 27  1  0
 21 12  1  0
 21 16  1  0
M  END
$$$$

     RDKit          3D

 38 42  0  0  0  0  0  0  0  0999 V2000
    0.2818    4.5816   -0.6892 C   0  0  0  0  0  0  0  0  0  0  0  0
    0.0355    4.3354   -2.1340 C   0  0  0  0  0  0  0  0  0  0  0  0
   -1.2856    3.2418   -2.5269 S   0  0  0  0  0  0  0  0  0  0  0  0
   -2.5502    3.8769   -1.9984 O   0  0  0  0  0  0  0  0  0  0  0  0
   -1.3412    3.2175   -4.0529 O   0  0  0  0  0  0  0  0  0  0  0  0
   -1.0168    1.6973   -1.8869 N   0  0  0  0  0  0  0  0  0  0  0  0
   -0.9250    1.5562   -0.4802 C   0  0  1  0  0  0  0  0  0  0  0  0
   -2.1569    0.8042    0.0725 C   0  0  0  0  0  0  0  0  0  0  0  0
   -1.7091   -0.5701    0.1439 N   0  0  0  0  0  0  0  0  0  0  0  0
   -2.4170   -1.7765   -0.1092 C   0  0  0  0  0  0  0  0  0  0  0  0
   -2.3924   -2.2613   -1.4018 C   0  0  0  0  0  0  0  0  0  0  0  0
   -3.0163   -3.3824   -1.7669 N   0  0  0  0  0  0  0  0  0  0  0  0
   -3.7069   -4.0810   -0.8317 C   0  0  0  0  0  0  0  0  0  0  0  0
   -3.7511   -3.6203    0.4768 C   0  0  0  0  0  0  0  0  0  0  0  0
   -4.4589   -4.3532    1.3945 C   0  0  0  0  0  0  0  0  0  0  0  0
   -4.4986   -3.8881    2.6968 C   0  0  0  0  0  0  0  0  0  0  0  0
   -3.8510   -2.7249    3.0750 C   0  0  0  0  0  0  0  0  0  0  0  0
   -3.1316   -1.9768    2.1504 C   0  0  0  0  0  0  0  0  0  0  0  0
   -3.1115   -2.4673    0.8608 C   0  0  0  0  0  0  0  0  0  0  0  0
   -0.3476   -0.4770    0.5384 C   0  0  0  0  0  0  0  0  0  0  0  0
    0.3408   -1.3471    1.1562 O   0  0  0  0  0  0  0  0  0  0  0  0
    0.2107    0.8505    0.1121 C   0  0  1  0  0  0  0  0  0  0  0  0
    1.3109    0.5004   -0.8554 C   0  0  0  0  0  0  0  0  0  0  0  0
    2.2763   -0.3469   -0.1653 N   0  0  0  0  0  0  0  0  0  0  0  0
    2.5986   -1.6774   -0.6538 C   0  0  0  0  0  0  0  0  0  0  0  0
    3.7383   -1.5183   -1.6045 C   0  0  0  0  0  0  0  0  0  0  0  0
    4.2541   -0.4061   -1.8688 O   0  0  0  0  0  0  0  0  0  0  0  0
    4.2279   -2.7056   -2.2133 N   0  0  0  0  0  0  0  0  0  0  0  0
    5.3302   -2.6823   -3.1536 C   0  0  0  0  0  0  0  0  0  0  0  0
    2.8953    0.1788    0.9928 C   0  0  0  0  0  0  0  0  0  0  0  0
    4.0519   -0.1590    1.3002 O   0  0  0  0  0  0  0  0  0  0  0  0
    2.0869    1.1262    1.7796 C   0  0  0  0  0  0  0  0  0  0  0  0
    2.6587    1.6387    2.9018 C   0  0  0  0  0  0  0  0  0  0  0  0
    1.9686    2.5230    3.6985 C   0  0  0  0  0  0  0  0  0  0  0  0
    0.6926    2.8546    3.3061 C   0  0  0  0  0  0  0  0  0  0  0  0
   -0.1903    3.9833    4.3218 Cl  0  0  0  0  0  0  0  0  0  0  0  0
    0.1101    2.3210    2.1463 C   0  0  0  0  0  0  0  0  0  0  0  0
    0.8035    1.4284    1.3391 C   0  0  0  0  0  0  0  0  0  0  0  0
  1  2  1  0
  2  3  1  0
  3  4  2  0
  3  5  2  0
  3  6  1  0
  7  6  1  6
  7  8  1  0
  8  9  1  0
  9 10  1  0
 10 11  2  0
 11 12  1  0
 12 13  2  0
 13 14  1  0
 14 15  2  0
 15 16  1  0
 16 17  2  0
 17 18  1  0
 18 19  2  0
  9 20  1  0
 20 21  2  0
 20 22  1  0
 22 23  1  6
 23 24  1  0
 24 25  1  0
 25 26  1  0
 26 27  2  0
 26 28  1  0
 28 29  1  0
 24 30  1  0
 30 31  2  0
 30 32  1  0
 32 33  2  0
 33 34  1  0
 34 35  2  0
 35 36  1  0
 35 37  1  0
 37 38  2  0
 22  7  1  0
 38 32  1  0
 19 10  1  0
 38 22  1  0
 19 14  1  0
M  END
$$$$

     RDKit          3D

 33 37  0  0  0  0  0  0  0  0999 V2000
   -5.6484    3.2393    1.5999 C   0  0  0  0  0  0  0  0  0  0  0  0
   -4.5864    2.3407    2.0096 N   0  0  0  0  0  0  0  0  0  0  0  0
   -3.9959    1.5327    1.0104 C   0  0  0  0  0  0  0  0  0  0  0  0
   -4.3509    1.5625   -0.2037 O   0  0  0  0  0  0  0  0  0  0  0  0
   -2.8940    0.6003    1.4357 C   0  0  0  0  0  0  0  0  0  0  0  0
   -2.3957   -0.1545    0.3017 N   0  0  0  0  0  0  0  0  0  0  0  0
   -1.3019    0.3519   -0.5002 C   0  0  0  0  0  0  0  0  0  0  0  0
   -0.3155   -0.7077   -0.9183 C   0  0  2  0  0  0  0  0  0  0  0  0
    0.7019   -0.7689    0.1934 C   0  0  0  0  0  0  0  0  0  0  0  0
    0.8598   -1.6366    1.0630 O   0  0  0  0  0  0  0  0  0  0  0  0
    1.4625    0.4459    0.0008 N   0  0  0  0  0  0  0  0  0  0  0  0
    2.3215    1.0232    0.9789 C   0  0  0  0  0  0  0  0  0  0  0  0
    1.8205    1.9380    1.8718 C   0  0  0  0  0  0  0  0  0  0  0  0
    2.6377    2.4862    2.8011 N   0  0  0  0  0  0  0  0  0  0  0  0
    3.9552    2.1697    2.8958 C   0  0  0  0  0  0  0  0  0  0  0  0
    4.4687    1.2499    2.0016 C   0  0  0  0  0  0  0  0  0  0  0  0
    5.8093    0.9088    2.0758 C   0  0  0  0  0  0  0  0  0  0  0  0
    6.3667   -0.0128    1.1948 C   0  0  0  0  0  0  0  0  0  0  0  0
    5.5320   -0.5758    0.2421 C   0  0  0  0  0  0  0  0  0  0  0  0
    4.1945   -0.2606    0.1387 C   0  0  0  0  0  0  0  0  0  0  0  0
    3.6688    0.6556    1.0246 C   0  0  0  0  0  0  0  0  0  0  0  0
    1.2105    0.9693   -1.3284 C   0  0  0  0  0  0  0  0  0  0  0  0
    0.5966   -0.2363   -2.0182 C   0  0  2  0  0  0  0  0  0  0  0  0
   -0.0617    0.0508   -3.3108 C   0  0  0  0  0  0  0  0  0  0  0  0
   -0.9132   -1.9921   -1.2470 C   0  0  0  0  0  0  0  0  0  0  0  0
   -0.2705   -2.9542   -1.9944 C   0  0  0  0  0  0  0  0  0  0  0  0
   -0.8622   -4.1822   -2.3005 C   0  0  0  0  0  0  0  0  0  0  0  0
   -0.2035   -5.1066   -3.0376 F   0  0  0  0  0  0  0  0  0  0  0  0
   -2.1331   -4.4873   -1.8609 C   0  0  0  0  0  0  0  0  0  0  0  0
   -2.7838   -3.5385   -1.1160 C   0  0  0  0  0  0  0  0  0  0  0  0
   -2.2029   -2.3315   -0.8148 C   0  0  0  0  0  0  0  0  0  0  0  0
   -3.0017   -1.4023   -0.0092 C   0  0  0  0  0  0  0  0  0  0  0  0
   -4.1547   -1.6651    0.3964 O   0  0  0  0  0  0  0  0  0  0  0  0
  1  2  1  0
  2  3  1  0
  3  4  2  0
  3  5  1  0
  5  6  1  0
  6  7  1  0
  8  7  1  1
  8  9  1  0
  9 10  2  0
  9 11  1  0
 11 12  1  0
 12 13  2  0
 13 14  1  0
 14 15  2  0
 15 16  1  0
 16 17  2  0
 17 18  1  0
 18 19  2  0
 19 20  1  0
 20 21  2  0
 11 22  1  0
 22 23  1  0
 23 24  1  6
  8 25  1  0
 25 26  2  0
 26 27  1  0
 27 28  1  0
 27 29  2  0
 29 30  1  0
 30 31  2  0
 31 32  1  0
 32 33  2  0
 32  6  1  0
 23  8  1  0
 31 25  1  0
 21 12  1  0
 21 16  1  0
M  END
$$$$

     RDKit          3D

 21 23  0  0  0  0  0  0  0  0999 V2000
    5.4803    0.9653   -0.2075 C   0  0  0  0  0  0  0  0  0  0  0  0
    4.2254    0.2960    0.3456 C   0  0  1  0  0  0  0  0  0  0  0  0
    3.3009    1.2409    1.0237 C   0  0  0  0  0  0  0  0  0  0  0  0
    1.8910    1.2598    0.5659 C   0  0  0  0  0  0  0  0  0  0  0  0
    1.2994   -0.0121    0.2526 N   0  0  0  0  0  0  0  0  0  0  0  0
   -0.0301    0.0920   -0.2365 C   0  0  0  0  0  0  0  0  0  0  0  0
   -0.5036    1.2683   -0.3149 O   0  0  0  0  0  0  0  0  0  0  0  0
   -0.8655   -1.0443   -0.6439 C   0  0  0  0  0  0  0  0  0  0  0  0
   -2.2256   -0.5996   -1.0977 C   0  0  0  0  0  0  0  0  0  0  0  0
   -2.5708   -0.5302   -2.4308 C   0  0  0  0  0  0  0  0  0  0  0  0
   -3.7873   -0.1244   -2.8482 N   0  0  0  0  0  0  0  0  0  0  0  0
   -4.7444    0.2407   -1.9578 C   0  0  0  0  0  0  0  0  0  0  0  0
   -4.4199    0.1777   -0.6200 C   0  0  0  0  0  0  0  0  0  0  0  0
   -5.4069    0.5491    0.2979 C   0  0  0  0  0  0  0  0  0  0  0  0
   -5.1171    0.4940    1.6610 C   0  0  0  0  0  0  0  0  0  0  0  0
   -3.9009    0.0894    2.1208 C   0  0  0  0  0  0  0  0  0  0  0  0
   -2.9283   -0.2765    1.2019 C   0  0  0  0  0  0  0  0  0  0  0  0
   -3.1835   -0.2343   -0.1760 C   0  0  0  0  0  0  0  0  0  0  0  0
    1.7813   -1.3817    0.3359 C   0  0  0  0  0  0  0  0  0  0  0  0
    3.1369   -1.5167   -0.3313 C   0  0  0  0  0  0  0  0  0  0  0  0
    3.5954   -0.2648   -0.7536 O   0  0  0  0  0  0  0  0  0  0  0  0
  2  1  1  6
  2  3  1  0
  3  4  1  0
  4  5  1  0
  5  6  1  0
  6  7  2  0
  6  8  1  0
  8  9  1  0
  9 10  2  0
 10 11  1  0
 11 12  2  0
 12 13  1  0
 13 14  2  0
 14 15  1  0
 15 16  2  0
 16 17  1  0
 17 18  2  0
  5 19  1  0
 19 20  1  0
 20 21  1  0
 21  2  1  0
 18  9  1  0
 18 13  1  0
M  END
$$$$

     RDKit          3D

 26 29  0  0  0  0  0  0  0  0999 V2000
    3.2674   -2.0737   -2.5887 C   0  0  0  0  0  0  0  0  0  0  0  0
    3.1245   -1.4762   -1.2815 N   0  0  0  0  0  0  0  0  0  0  0  0
    1.9556   -1.7334   -0.4212 C   0  0  0  0  0  0  0  0  0  0  0  0
    1.3219   -0.3647   -0.2098 C   0  0  1  0  0  0  0  0  0  0  0  0
   -0.0276   -0.4298    0.3646 C   0  0  0  0  0  0  0  0  0  0  0  0
   -0.4264   -1.5018    0.9174 O   0  0  0  0  0  0  0  0  0  0  0  0
   -0.8897    0.6844    0.3089 N   0  0  0  0  0  0  0  0  0  0  0  0
   -2.2087    0.5879    0.8856 C   0  0  0  0  0  0  0  0  0  0  0  0
   -2.4399    0.9203    2.2074 C   0  0  0  0  0  0  0  0  0  0  0  0
   -3.6929    0.8173    2.7156 N   0  0  0  0  0  0  0  0  0  0  0  0
   -4.6962    0.3929    1.9281 C   0  0  0  0  0  0  0  0  0  0  0  0
   -4.5212    0.0499    0.6082 C   0  0  0  0  0  0  0  0  0  0  0  0
   -5.5793   -0.3892   -0.1928 C   0  0  0  0  0  0  0  0  0  0  0  0
   -5.3495   -0.7263   -1.5297 C   0  0  0  0  0  0  0  0  0  0  0  0
   -4.0731   -0.6227   -2.0523 C   0  0  0  0  0  0  0  0  0  0  0  0
   -3.0093   -0.1848   -1.2594 C   0  0  0  0  0  0  0  0  0  0  0  0
   -3.2382    0.1472    0.0592 C   0  0  0  0  0  0  0  0  0  0  0  0
    2.2534    0.5438    0.4576 C   0  0  0  0  0  0  0  0  0  0  0  0
    1.8996    1.5338    1.3497 C   0  0  0  0  0  0  0  0  0  0  0  0
    2.8446    2.3768    1.9307 C   0  0  0  0  0  0  0  0  0  0  0  0
    2.3505    3.6266    3.0631 Cl  0  0  0  0  0  0  0  0  0  0  0  0
    4.1752    2.2530    1.6352 C   0  0  0  0  0  0  0  0  0  0  0  0
    4.5452    1.2668    0.7453 C   0  0  0  0  0  0  0  0  0  0  0  0
    3.6059    0.4361    0.1745 C   0  0  0  0  0  0  0  0  0  0  0  0
    4.1003   -0.5990   -0.7258 C   0  0  0  0  0  0  0  0  0  0  0  0
    5.2982   -0.7589   -1.0320 O   0  0  0  0  0  0  0  0  0  0  0  0
  1  2  1  0
  2  3  1  0
  3  4  1  0
  4  5  1  1
  5  6  2  0
  5  7  1  0
  7  8  1  0
  8  9  2  0
  9 10  1  0
 10 11  2  0
 11 12  1  0
 12 13  2  0
 13 14  1  0
 14 15  2  0
 15 16  1  0
 16 17  2  0
  4 18  1  0
 18 19  2  0
 19 20  1  0
 20 21  1  0
 20 22  2  0
 22 23  1  0
 23 24  2  0
 24 25  1  0
 25 26  2  0
 25  2  1  0
 17  8  1  0
 24 18  1  0
 17 12  1  0
M  END
$$$$

     RDKit          3D

 22 25  0  0  0  0  0  0  0  0999 V2000
   -0.1773   -0.0070    1.2679 O   0  0  0  0  0  0  0  0  0  0  0  0
    0.3089   -0.0941    0.1094 C   0  0  0  0  0  0  0  0  0  0  0  0
   -0.4497    0.5017   -1.0190 C   0  0  0  0  0  0  0  0  0  0  0  0
   -1.7075    1.1204   -0.5291 C   0  0  0  0  0  0  0  0  0  0  0  0
   -1.8544    2.5008   -0.3914 C   0  0  0  0  0  0  0  0  0  0  0  0
   -2.9820    3.0688    0.0489 N   0  0  0  0  0  0  0  0  0  0  0  0
   -4.0576    2.3625    0.3919 C   0  0  0  0  0  0  0  0  0  0  0  0
   -3.9838    0.9848    0.2807 C   0  0  0  0  0  0  0  0  0  0  0  0
   -5.0803    0.2127    0.6281 C   0  0  0  0  0  0  0  0  0  0  0  0
   -5.0057   -1.1641    0.5177 C   0  0  0  0  0  0  0  0  0  0  0  0
   -3.8477   -1.7508    0.0656 C   0  0  0  0  0  0  0  0  0  0  0  0
   -2.7335   -1.0067   -0.2902 C   0  0  0  0  0  0  0  0  0  0  0  0
   -2.8196    0.3624   -0.1760 C   0  0  0  0  0  0  0  0  0  0  0  0
    1.5507   -0.7360   -0.1688 N   0  0  0  0  0  0  0  0  0  0  0  0
    2.0748   -0.8148   -1.5188 C   0  0  0  0  0  0  0  0  0  0  0  0
    3.5291   -0.5324   -1.6268 C   0  0  0  0  0  0  0  0  0  0  0  0
    4.0991   -0.1945   -0.3480 C   0  0  0  0  0  0  0  0  0  0  0  0
    5.6111    0.7736   -0.0607 S   0  0  0  0  0  0  0  0  0  0  0  0
    5.4709    0.6376    1.8186 C   0  0  0  0  0  0  0  0  0  0  0  0
    4.3267   -0.1040    1.9703 C   0  0  0  0  0  0  0  0  0  0  0  0
    3.6553   -0.5109    0.8874 C   0  0  0  0  0  0  0  0  0  0  0  0
    2.3638   -1.3463    0.8764 C   0  0  0  0  0  0  0  0  0  0  0  0
  1  2  2  0
  2  3  1  0
  3  4  1  0
  4  5  2  0
  5  6  1  0
  6  7  2  0
  7  8  1  0
  8  9  2  0
  9 10  1  0
 10 11  2  0
 11 12  1  0
 12 13  2  0
  2 14  1  0
 14 15  1  0
 15 16  1  0
 16 17  1  0
 17 18  1  0
 18 19  1  0
 19 20  2  0
 20 21  1  0
 21 22  1  0
 13  4  1  0
 22 14  1  0
 13  8  1  0
 21 17  2  0
M  END
$$$$

     RDKit          3D

 42 48  0  0  0  0  0  0  0  0999 V2000
    7.2236   -0.5005   -2.6009 C   0  0  0  0  0  0  0  0  0  0  0  0
    5.7339   -0.6644   -2.5302 C   0  0  0  0  0  0  0  0  0  0  0  0
    4.8040   -0.3291   -3.4296 N   0  0  0  0  0  0  0  0  0  0  0  0
    3.6209   -0.6753   -2.9075 N   0  0  0  0  0  0  0  0  0  0  0  0
    3.8228   -1.2202   -1.6943 C   0  0  0  0  0  0  0  0  0  0  0  0
    2.8235   -1.7576   -0.7250 C   0  0  0  0  0  0  0  0  0  0  0  0
    2.3889   -0.7176    0.1566 N   0  0  0  0  0  0  0  0  0  0  0  0
    1.2439    0.1183   -0.1695 C   0  0  0  0  0  0  0  0  0  0  0  0
    0.2611    0.0970    1.0003 C   0  0  2  0  0  0  0  0  0  0  0  0
   -0.3432   -1.2850    0.9431 C   0  0  0  0  0  0  0  0  0  0  0  0
   -0.1216   -2.2498    1.6976 O   0  0  0  0  0  0  0  0  0  0  0  0
   -1.2384   -1.2529   -0.1782 N   0  0  0  0  0  0  0  0  0  0  0  0
   -1.7111   -2.3750   -0.9128 C   0  0  0  0  0  0  0  0  0  0  0  0
   -1.0635   -2.8838   -2.0200 C   0  0  0  0  0  0  0  0  0  0  0  0
   -1.5294   -3.9501   -2.7032 N   0  0  0  0  0  0  0  0  0  0  0  0
   -2.6687   -4.5771   -2.3277 C   0  0  0  0  0  0  0  0  0  0  0  0
   -3.3611   -4.1086   -1.2218 C   0  0  0  0  0  0  0  0  0  0  0  0
   -4.5396   -4.7146   -0.7895 C   0  0  0  0  0  0  0  0  0  0  0  0
   -5.1954   -4.2129    0.3178 C   0  0  0  0  0  0  0  0  0  0  0  0
   -4.7201   -3.1197    1.0201 C   0  0  0  0  0  0  0  0  0  0  0  0
   -3.5424   -2.5095    0.5929 C   0  0  0  0  0  0  0  0  0  0  0  0
   -2.8906   -3.0136   -0.5132 C   0  0  0  0  0  0  0  0  0  0  0  0
   -1.6062    0.1384   -0.4662 C   0  0  0  0  0  0  0  0  0  0  0  0
   -0.9645    0.9129    0.6793 C   0  0  2  0  0  0  0  0  0  0  0  0
   -0.6881    2.3052    0.2230 C   0  0  0  0  0  0  0  0  0  0  0  0
   -1.9712    2.9526   -0.0438 N   0  0  0  0  0  0  0  0  0  0  0  0
   -1.9873    4.3073   -0.4987 C   0  0  0  0  0  0  0  0  0  0  0  0
   -3.1736    4.9627   -0.7643 C   0  0  0  0  0  0  0  0  0  0  0  0
   -3.2250    6.2698   -1.2047 C   0  0  0  0  0  0  0  0  0  0  0  0
   -2.0409    6.8961   -1.3691 N   0  0  0  0  0  0  0  0  0  0  0  0
   -0.8659    6.2715   -1.1142 C   0  0  0  0  0  0  0  0  0  0  0  0
   -0.8331    4.9815   -0.6803 N   0  0  0  0  0  0  0  0  0  0  0  0
    0.8681    0.4245    2.2763 C   0  0  0  0  0  0  0  0  0  0  0  0
    0.2341    0.9834    3.3630 C   0  0  0  0  0  0  0  0  0  0  0  0
    0.8770    1.2644    4.5562 C   0  0  0  0  0  0  0  0  0  0  0  0
   -0.0073    1.9763    5.8887 Cl  0  0  0  0  0  0  0  0  0  0  0  0
    2.2202    0.9852    4.7036 C   0  0  0  0  0  0  0  0  0  0  0  0
    2.8749    0.4317    3.6449 C   0  0  0  0  0  0  0  0  0  0  0  0
    2.2331    0.1534    2.4594 C   0  0  0  0  0  0  0  0  0  0  0  0
    3.0425   -0.4323    1.3945 C   0  0  0  0  0  0  0  0  0  0  0  0
    4.2625   -0.6938    1.5087 O   0  0  0  0  0  0  0  0  0  0  0  0
    5.1365   -1.1903   -1.5093 O   0  0  0  0  0  0  0  0  0  0  0  0
  1  2  1  0
  2  3  2  0
  3  4  1  0
  4  5  2  0
  5  6  1  0
  6  7  1  0
  7  8  1  0
  9  8  1  6
  9 10  1  0
 10 11  2  0
 10 12  1  0
 12 13  1  0
 13 14  2  0
 14 15  1  0
 15 16  2  0
 16 17  1  0
 17 18  2  0
 18 19  1  0
 19 20  2  0
 20 21  1  0
 21 22  2  0
 12 23  1  0
 23 24  1  0
 24 25  1  6
 25 26  1  0
 26 27  1  0
 27 28  2  0
 28 29  1  0
 29 30  2  0
 30 31  1  0
 31 32  2  0
  9 33  1  0
 33 34  2  0
 34 35  1  0
 35 36  1  0
 35 37  2  0
 37 38  1  0
 38 39  2  0
 39 40  1  0
 40 41  2  0
  5 42  1  0
 42  2  1  0
 40  7  1  0
 24  9  1  0
 32 27  1  0
 39 33  1  0
 22 13  1  0
 22 17  1  0
M  END
$$$$

     RDKit          3D

 40 45  0  0  0  0  0  0  0  0999 V2000
    7.0783    1.3550   -0.6266 C   0  0  0  0  0  0  0  0  0  0  0  0
    5.8981    0.7816   -1.2669 N   0  0  0  0  0  0  0  0  0  0  0  0
    4.8776    0.2699   -0.4569 C   0  0  0  0  0  0  0  0  0  0  0  0
    4.9707    0.3008    0.8164 O   0  0  0  0  0  0  0  0  0  0  0  0
    3.6616   -0.3216   -1.0553 C   0  0  0  0  0  0  0  0  0  0  0  0
    2.7446   -0.7849   -0.0272 N   0  0  0  0  0  0  0  0  0  0  0  0
    1.7316    0.1032    0.5029 C   0  0  0  0  0  0  0  0  0  0  0  0
    0.3617   -0.5395    0.5062 C   0  0  2  0  0  0  0  0  0  0  0  0
   -0.1955   -0.6290   -0.8690 C   0  0  0  0  0  0  0  0  0  0  0  0
    0.4717   -1.0835   -1.8375 O   0  0  0  0  0  0  0  0  0  0  0  0
   -1.5097   -0.1578   -0.9358 N   0  0  0  0  0  0  0  0  0  0  0  0
   -2.4171   -0.1585   -2.0346 C   0  0  0  0  0  0  0  0  0  0  0  0
   -2.4705    0.9059   -2.9115 C   0  0  0  0  0  0  0  0  0  0  0  0
   -3.3176    0.9436   -3.9664 N   0  0  0  0  0  0  0  0  0  0  0  0
   -4.1469   -0.1048   -4.1709 C   0  0  0  0  0  0  0  0  0  0  0  0
   -4.1408   -1.1898   -3.3355 C   0  0  0  0  0  0  0  0  0  0  0  0
   -5.0061   -2.2418   -3.5808 C   0  0  0  0  0  0  0  0  0  0  0  0
   -4.9819   -3.3275   -2.7229 C   0  0  0  0  0  0  0  0  0  0  0  0
   -4.1266   -3.3970   -1.6338 C   0  0  0  0  0  0  0  0  0  0  0  0
   -3.2781   -2.3257   -1.4236 C   0  0  0  0  0  0  0  0  0  0  0  0
   -3.2734   -1.2180   -2.2633 C   0  0  0  0  0  0  0  0  0  0  0  0
   -1.8883    0.3876    0.3670 C   0  0  0  0  0  0  0  0  0  0  0  0
   -0.6452    0.3024    1.2142 C   0  0  2  0  0  0  0  0  0  0  0  0
   -0.1746    1.7263    1.4296 C   0  0  0  0  0  0  0  0  0  0  0  0
   -1.2562    2.4211    2.1265 N   0  0  0  0  0  0  0  0  0  0  0  0
   -1.0264    3.7967    2.4362 C   0  0  0  0  0  0  0  0  0  0  0  0
    0.1691    4.3735    2.0704 C   0  0  0  0  0  0  0  0  0  0  0  0
    0.4052    5.7169    2.3675 C   0  0  0  0  0  0  0  0  0  0  0  0
   -0.5361    6.4305    3.0064 N   0  0  0  0  0  0  0  0  0  0  0  0
   -1.7100    5.8597    3.3643 C   0  0  0  0  0  0  0  0  0  0  0  0
   -1.9390    4.5516    3.0746 N   0  0  0  0  0  0  0  0  0  0  0  0
    0.4223   -1.9328    1.0383 C   0  0  0  0  0  0  0  0  0  0  0  0
   -0.6879   -2.5537    1.5760 C   0  0  0  0  0  0  0  0  0  0  0  0
   -0.6452   -3.8522    2.0757 C   0  0  0  0  0  0  0  0  0  0  0  0
   -2.0700   -4.5902    2.7425 Cl  0  0  0  0  0  0  0  0  0  0  0  0
    0.5346   -4.5659    2.0448 C   0  0  0  0  0  0  0  0  0  0  0  0
    1.6604   -3.9682    1.5121 C   0  0  0  0  0  0  0  0  0  0  0  0
    1.5915   -2.6797    1.0233 C   0  0  0  0  0  0  0  0  0  0  0  0
    2.8260   -2.1198    0.4767 C   0  0  0  0  0  0  0  0  0  0  0  0
    3.9101   -2.7296    0.4302 O   0  0  0  0  0  0  0  0  0  0  0  0
  1  2  1  0
  2  3  1  0
  3  4  2  0
  3  5  1  0
  5  6  1  0
  6  7  1  0
  8  7  1  6
  8  9  1  0
  9 10  2  0
  9 11  1  0
 11 12  1  0
 12 13  2  0
 13 14  1  0
 14 15  2  0
 15 16  1  0
 16 17  2  0
 17 18  1  0
 18 19  2  0
 19 20  1  0
 20 21  2  0
 11 22  1  0
 22 23  1  0
 23 24  1  6
 24 25  1  0
 25 26  1  0
 26 27  2  0
 27 28  1  0
 28 29  2  0
 29 30  1  0
 30 31  2  0
  8 32  1  0
 32 33  2  0
 33 34  1  0
 34 35  1  0
 34 36  2  0
 36 37  1  0
 37 38  2  0
 38 39  1  0
 39 40  2  0
 39  6  1  0
 23  8  1  0
 31 26  1  0
 38 32  1  0
 21 12  1  0
 21 16  1  0
M  END
$$$$

     RDKit          3D

 44 51  0  0  0  0  0  0  0  0999 V2000
    2.7354   -2.4722   -0.5030 O   0  0  0  0  0  0  0  0  0  0  0  0
    1.6966   -1.7713   -0.5952 C   0  0  0  0  0  0  0  0  0  0  0  0
    0.9230   -1.9194   -1.8273 C   0  0  0  0  0  0  0  0  0  0  0  0
    1.3608   -2.7743   -2.8169 C   0  0  0  0  0  0  0  0  0  0  0  0
    0.6488   -2.9034   -3.9896 C   0  0  0  0  0  0  0  0  0  0  0  0
   -0.4951   -2.1496   -4.1140 C   0  0  0  0  0  0  0  0  0  0  0  0
   -1.4051   -2.3134   -5.6116 Cl  0  0  0  0  0  0  0  0  0  0  0  0
   -0.9371   -1.2855   -3.1124 C   0  0  0  0  0  0  0  0  0  0  0  0
   -0.2186   -1.1576   -1.9323 C   0  0  0  0  0  0  0  0  0  0  0  0
   -0.7358   -0.2519   -0.9109 C   0  0  1  0  0  0  0  0  0  0  0  0
    0.1202    0.0189    0.2594 C   0  0  0  0  0  0  0  0  0  0  0  0
    1.2491   -0.8728    0.4053 N   0  0  0  0  0  0  0  0  0  0  0  0
    1.9609   -0.8049    1.6721 C   0  0  0  0  0  0  0  0  0  0  0  0
    3.0357    0.2273    1.7240 C   0  0  0  0  0  0  0  0  0  0  0  0
    4.0679    0.0492    0.7557 N   0  0  0  0  0  0  0  0  0  0  0  0
    5.1314   -0.8694    1.1174 C   0  0  0  0  0  0  0  0  0  0  0  0
    6.0868    0.0929    0.5130 C   0  0  0  0  0  0  0  0  0  0  0  0
    6.6375   -0.1320   -0.8318 C   0  0  0  0  0  0  0  0  0  0  0  0
    7.8751   -0.3979   -0.1968 O   0  0  0  0  0  0  0  0  0  0  0  0
    7.4681    0.2046    1.0187 C   0  0  0  0  0  0  0  0  0  0  0  0
    5.0905    1.1252    0.7925 C   0  0  0  0  0  0  0  0  0  0  0  0
   -1.1082    1.0896   -1.4994 C   0  0  0  0  0  0  0  0  0  0  0  0
   -0.4125    1.6525   -2.3799 O   0  0  0  0  0  0  0  0  0  0  0  0
   -2.3137    1.5359   -0.8911 N   0  0  0  0  0  0  0  0  0  0  0  0
   -2.9407    2.7877   -1.1517 C   0  0  0  0  0  0  0  0  0  0  0  0
   -3.8748    2.8793   -2.1661 C   0  0  0  0  0  0  0  0  0  0  0  0
   -4.4993    4.0444   -2.4543 N   0  0  0  0  0  0  0  0  0  0  0  0
   -4.2465    5.1576   -1.7778 C   0  0  0  0  0  0  0  0  0  0  0  0
   -3.3085    5.1070   -0.7445 C   0  0  0  0  0  0  0  0  0  0  0  0
   -3.0363    6.2717   -0.0281 C   0  0  0  0  0  0  0  0  0  0  0  0
   -2.1040    6.1714    0.9813 C   0  0  0  0  0  0  0  0  0  0  0  0
   -1.4498    5.0089    1.3037 C   0  0  0  0  0  0  0  0  0  0  0  0
   -1.7220    3.8503    0.5894 C   0  0  0  0  0  0  0  0  0  0  0  0
   -2.6518    3.9281   -0.4251 C   0  0  0  0  0  0  0  0  0  0  0  0
   -2.7619    0.4977    0.0173 C   0  0  0  0  0  0  0  0  0  0  0  0
   -2.1269   -0.7315   -0.5424 C   0  0  2  0  0  0  0  0  0  0  0  0
   -2.1214   -1.8893    0.4251 C   0  0  0  0  0  0  0  0  0  0  0  0
   -3.5095   -2.2410    0.6864 N   0  0  0  0  0  0  0  0  0  0  0  0
   -3.8793   -3.2988    1.5613 C   0  0  0  0  0  0  0  0  0  0  0  0
   -4.0930   -3.1253    2.8799 N   0  0  0  0  0  0  0  0  0  0  0  0
   -4.4460   -4.1829    3.6645 C   0  0  0  0  0  0  0  0  0  0  0  0
   -4.5867   -5.4483    3.1025 C   0  0  0  0  0  0  0  0  0  0  0  0
   -4.3677   -5.6110    1.7663 C   0  0  0  0  0  0  0  0  0  0  0  0
   -4.0154   -4.5301    1.0096 N   0  0  0  0  0  0  0  0  0  0  0  0
  1  2  2  0
  2  3  1  0
  3  4  2  0
  4  5  1  0
  5  6  2  0
  6  7  1  0
  6  8  1  0
  8  9  2  0
  9 10  1  0
 10 11  1  1
 11 12  1  0
 12 13  1  0
 13 14  1  0
 14 15  1  0
 15 16  1  0
 16 17  1  0
 17 18  1  0
 18 19  1  0
 19 20  1  0
 17 21  1  0
 10 22  1  0
 22 23  2  0
 22 24  1  0
 24 25  1  0
 25 26  2  0
 26 27  1  0
 27 28  2  0
 28 29  1  0
 29 30  2  0
 30 31  1  0
 31 32  2  0
 32 33  1  0
 33 34  2  0
 24 35  1  0
 35 36  1  0
 36 37  1  1
 37 38  1  0
 38 39  1  0
 39 40  2  0
 40 41  1  0
 41 42  2  0
 42 43  1  0
 43 44  2  0
 12  2  1  0
 21 15  1  0
 34 25  1  0
 44 39  1  0
  9  3  1  0
 36 10  1  0
 20 17  1  0
 34 29  1  0
M  CHG  1  15   1
M  END
$$$$

     RDKit          3D

 40 45  0  0  0  0  0  0  0  0999 V2000
    5.2071   -1.1765   -3.5420 C   0  0  0  0  0  0  0  0  0  0  0  0
    4.4288   -0.8369   -2.3575 N   0  0  0  0  0  0  0  0  0  0  0  0
    4.5515    0.4209   -1.6966 C   0  0  0  0  0  0  0  0  0  0  0  0
    5.3742    1.2338   -2.1912 O   0  0  0  0  0  0  0  0  0  0  0  0
    3.7560    0.7606   -0.4902 C   0  0  0  0  0  0  0  0  0  0  0  0
    2.8735   -0.3170   -0.0937 N   0  0  0  0  0  0  0  0  0  0  0  0
    1.5223   -0.4774   -0.5667 C   0  0  0  0  0  0  0  0  0  0  0  0
    0.4700   -0.6391    0.4604 C   0  0  2  0  0  0  0  0  0  0  0  0
   -0.7631   -1.0714   -0.2418 C   0  0  0  0  0  0  0  0  0  0  0  0
   -0.8753   -2.0273   -1.0830 O   0  0  0  0  0  0  0  0  0  0  0  0
   -1.8815   -0.2769    0.1277 N   0  0  0  0  0  0  0  0  0  0  0  0
   -3.1588   -0.1634   -0.4931 C   0  0  0  0  0  0  0  0  0  0  0  0
   -3.4124    0.7727   -1.5001 C   0  0  0  0  0  0  0  0  0  0  0  0
   -4.6289    0.8731   -2.0824 N   0  0  0  0  0  0  0  0  0  0  0  0
   -5.6727    0.1003   -1.7509 C   0  0  0  0  0  0  0  0  0  0  0  0
   -5.4768   -0.8361   -0.7666 C   0  0  0  0  0  0  0  0  0  0  0  0
   -6.5452   -1.6545   -0.4003 C   0  0  0  0  0  0  0  0  0  0  0  0
   -6.3910   -2.6071    0.5835 C   0  0  0  0  0  0  0  0  0  0  0  0
   -5.1616   -2.7421    1.2047 C   0  0  0  0  0  0  0  0  0  0  0  0
   -4.1216   -1.9140    0.8178 C   0  0  0  0  0  0  0  0  0  0  0  0
   -4.2386   -0.9607   -0.1523 C   0  0  0  0  0  0  0  0  0  0  0  0
   -1.4672    0.4361    1.3221 C   0  0  0  0  0  0  0  0  0  0  0  0
    0.0611    0.5064    1.2708 C   0  0  2  0  0  0  0  0  0  0  0  0
    0.5277    1.8680    0.8921 C   0  0  0  0  0  0  0  0  0  0  0  0
    0.1185    2.3260   -0.4142 N   0  0  0  0  0  0  0  0  0  0  0  0
    0.5137    3.6306   -0.8872 C   0  0  0  0  0  0  0  0  0  0  0  0
   -0.2913    4.7354   -0.6058 C   0  0  0  0  0  0  0  0  0  0  0  0
    0.0376    5.9780   -1.0309 N   0  0  0  0  0  0  0  0  0  0  0  0
    1.1818    6.1167   -1.7437 C   0  0  0  0  0  0  0  0  0  0  0  0
    2.0019    5.0407   -2.0394 C   0  0  0  0  0  0  0  0  0  0  0  0
    1.6369    3.8247   -1.5975 N   0  0  0  0  0  0  0  0  0  0  0  0
    0.9476   -1.7073    1.4152 C   0  0  0  0  0  0  0  0  0  0  0  0
    0.0622   -2.4388    2.1831 C   0  0  0  0  0  0  0  0  0  0  0  0
    0.4771   -3.4161    3.0741 C   0  0  0  0  0  0  0  0  0  0  0  0
   -0.6486   -4.3388    4.0435 Cl  0  0  0  0  0  0  0  0  0  0  0  0
    1.8102   -3.6807    3.2124 C   0  0  0  0  0  0  0  0  0  0  0  0
    2.7086   -2.9771    2.4697 C   0  0  0  0  0  0  0  0  0  0  0  0
    2.2849   -2.0024    1.5816 C   0  0  0  0  0  0  0  0  0  0  0  0
    3.3446   -1.3183    0.8305 C   0  0  0  0  0  0  0  0  0  0  0  0
    4.5603   -1.5687    0.9672 O   0  0  0  0  0  0  0  0  0  0  0  0
  1  2  1  0
  2  3  1  0
  3  4  2  0
  3  5  1  0
  5  6  1  0
  6  7  1  0
  8  7  1  6
  8  9  1  0
  9 10  2  0
  9 11  1  0
 11 12  1  0
 12 13  2  0
 13 14  1  0
 14 15  2  0
 15 16  1  0
 16 17  2  0
 17 18  1  0
 18 19  2  0
 19 20  1  0
 20 21  2  0
 11 22  1  0
 22 23  1  0
 23 24  1  6
 24 25  1  0
 25 26  1  0
 26 27  2  0
 27 28  1  0
 28 29  2  0
 29 30  1  0
 30 31  2  0
  8 32  1  0
 32 33  2  0
 33 34  1  0
 34 35  1  0
 34 36  2  0
 36 37  1  0
 37 38  2  0
 38 39  1  0
 39 40  2  0
 39  6  1  0
 23  8  1  0
 31 26  1  0
 38 32  1  0
 21 12  1  0
 21 16  1  0
M  END
$$$$

     RDKit          3D

 34 39  0  0  0  0  0  0  0  0999 V2000
    6.8631    2.2905   -1.3692 C   0  0  0  0  0  0  0  0  0  0  0  0
    5.4876    2.2404   -0.8758 N   0  0  0  0  0  0  0  0  0  0  0  0
    4.5161    2.9958   -1.4071 C   0  0  0  0  0  0  0  0  0  0  0  0
    3.3574    2.7072   -0.7172 C   0  0  0  0  0  0  0  0  0  0  0  0
    3.7264    1.7525    0.2276 C   0  0  0  0  0  0  0  0  0  0  0  0
    2.7820    1.1649    1.1821 C   0  0  0  0  0  0  0  0  0  0  0  0
    2.2070   -0.0220    0.5651 N   0  0  0  0  0  0  0  0  0  0  0  0
    0.9797    0.0559   -0.2436 C   0  0  0  0  0  0  0  0  0  0  0  0
    0.0175   -0.9171    0.4079 C   0  0  1  0  0  0  0  0  0  0  0  0
   -0.3629   -0.2848    1.7304 C   0  0  0  0  0  0  0  0  0  0  0  0
   -1.7455   -0.8598    1.9524 C   0  0  0  0  0  0  0  0  0  0  0  0
   -2.2934   -0.8065    0.6097 N   0  0  0  0  0  0  0  0  0  0  0  0
   -3.6383   -0.5558    0.2557 C   0  0  0  0  0  0  0  0  0  0  0  0
   -4.5276   -1.6169    0.1315 C   0  0  0  0  0  0  0  0  0  0  0  0
   -5.8199   -1.4160   -0.2051 N   0  0  0  0  0  0  0  0  0  0  0  0
   -6.3113   -0.1680   -0.4380 C   0  0  0  0  0  0  0  0  0  0  0  0
   -5.4612    0.9266   -0.3264 C   0  0  0  0  0  0  0  0  0  0  0  0
   -5.9556    2.2097   -0.5631 C   0  0  0  0  0  0  0  0  0  0  0  0
   -5.0926    3.2937   -0.4474 C   0  0  0  0  0  0  0  0  0  0  0  0
   -3.7668    3.0930   -0.1026 C   0  0  0  0  0  0  0  0  0  0  0  0
   -3.3229    1.7955    0.1230 C   0  0  0  0  0  0  0  0  0  0  0  0
   -4.1525    0.7015    0.0164 C   0  0  0  0  0  0  0  0  0  0  0  0
   -1.2448   -1.0510   -0.3164 C   0  0  0  0  0  0  0  0  0  0  0  0
   -1.3245   -1.3354   -1.5469 O   0  0  0  0  0  0  0  0  0  0  0  0
    0.6112   -2.2568    0.5778 C   0  0  0  0  0  0  0  0  0  0  0  0
   -0.1925   -3.3905    0.5846 C   0  0  0  0  0  0  0  0  0  0  0  0
    0.3485   -4.6575    0.7433 C   0  0  0  0  0  0  0  0  0  0  0  0
   -0.6489   -6.0955    0.7541 Cl  0  0  0  0  0  0  0  0  0  0  0  0
    1.7218   -4.8417    0.9024 C   0  0  0  0  0  0  0  0  0  0  0  0
    2.5226   -3.7198    0.8963 C   0  0  0  0  0  0  0  0  0  0  0  0
    1.9679   -2.4814    0.7384 C   0  0  0  0  0  0  0  0  0  0  0  0
    2.8283   -1.2997    0.7334 C   0  0  0  0  0  0  0  0  0  0  0  0
    4.0725   -1.3473    0.8680 O   0  0  0  0  0  0  0  0  0  0  0  0
    5.0385    1.4878    0.1046 N   0  0  0  0  0  0  0  0  0  0  0  0
  1  2  1  0
  2  3  1  0
  3  4  2  0
  4  5  1  0
  5  6  1  0
  6  7  1  0
  7  8  1  0
  9  8  1  6
  9 10  1  0
 10 11  1  0
 11 12  1  0
 12 13  1  0
 13 14  2  0
 14 15  1  0
 15 16  2  0
 16 17  1  0
 17 18  2  0
 18 19  1  0
 19 20  2  0
 20 21  1  0
 21 22  2  0
 12 23  1  0
 23 24  2  0
  9 25  1  0
 25 26  2  0
 26 27  1  0
 27 28  1  0
 27 29  2  0
 29 30  1  0
 30 31  2  0
 31 32  1  0
 32 33  2  0
  5 34  2  0
 34  2  1  0
 32  7  1  0
 23  9  1  0
 31 25  1  0
 22 13  1  0
 22 17  1  0
M  END
$$$$

     RDKit          3D

 24 26  0  0  0  0  0  0  0  0999 V2000
    0.4244    0.9680    0.9039 O   0  0  0  0  0  0  0  0  0  0  0  0
   -0.1400   -0.0686    0.4344 C   0  0  0  0  0  0  0  0  0  0  0  0
    0.7401   -1.2371    0.1983 C   0  0  0  0  0  0  0  0  0  0  0  0
    2.1209   -0.8718    0.6155 C   0  0  0  0  0  0  0  0  0  0  0  0
    2.6593   -1.3393    1.8061 C   0  0  0  0  0  0  0  0  0  0  0  0
    3.9016   -1.0330    2.2157 N   0  0  0  0  0  0  0  0  0  0  0  0
    4.6506   -0.2322    1.4227 C   0  0  0  0  0  0  0  0  0  0  0  0
    4.1481    0.2538    0.2278 C   0  0  0  0  0  0  0  0  0  0  0  0
    4.9706    1.0697   -0.5360 C   0  0  0  0  0  0  0  0  0  0  0  0
    4.5000    1.5669   -1.7264 C   0  0  0  0  0  0  0  0  0  0  0  0
    3.2240    1.2687   -2.1744 C   0  0  0  0  0  0  0  0  0  0  0  0
    2.4168    0.4527   -1.3991 C   0  0  0  0  0  0  0  0  0  0  0  0
    2.8538   -0.0658   -0.1978 C   0  0  0  0  0  0  0  0  0  0  0  0
   -1.5519   -0.0911    0.1543 N   0  0  0  0  0  0  0  0  0  0  0  0
   -2.0004   -1.3418   -0.3713 C   0  0  0  0  0  0  0  0  0  0  0  0
   -3.3158   -1.3523   -1.0623 C   0  0  0  0  0  0  0  0  0  0  0  0
   -4.5144   -1.2313   -0.1771 C   0  0  0  0  0  0  0  0  0  0  0  0
   -4.8482    0.5013    0.1673 S   0  0  0  0  0  0  0  0  0  0  0  0
   -3.4078    1.4708   -0.3734 C   0  0  0  0  0  0  0  0  0  0  0  0
   -2.2019    1.1547    0.4699 C   0  0  1  0  0  0  0  0  0  0  0  0
   -2.5936    1.2043    1.9354 C   0  0  0  0  0  0  0  0  0  0  0  0
   -1.4412    1.0797    2.6826 F   0  0  0  0  0  0  0  0  0  0  0  0
   -3.5383    0.2828    2.2785 F   0  0  0  0  0  0  0  0  0  0  0  0
   -3.0747    2.4854    2.2173 F   0  0  0  0  0  0  0  0  0  0  0  0
  1  2  2  0
  2  3  1  0
  3  4  1  0
  4  5  2  0
  5  6  1  0
  6  7  2  0
  7  8  1  0
  8  9  2  0
  9 10  1  0
 10 11  2  0
 11 12  1  0
 12 13  2  0
  2 14  1  0
 14 15  1  0
 15 16  1  0
 16 17  1  0
 17 18  1  0
 18 19  1  0
 19 20  1  0
 20 21  1  1
 21 22  1  0
 21 23  1  0
 21 24  1  0
 13  4  1  0
 20 14  1  0
 13  8  1  0
M  END
$$$$

     RDKit          3D

 40 45  0  0  0  0  0  0  0  0999 V2000
   -1.3722    6.4394    1.8835 C   0  0  0  0  0  0  0  0  0  0  0  0
   -0.2797    5.5266    1.5537 N   0  0  0  0  0  0  0  0  0  0  0  0
   -0.5734    4.5039    0.6141 C   0  0  0  0  0  0  0  0  0  0  0  0
   -1.6900    4.3606    0.0786 O   0  0  0  0  0  0  0  0  0  0  0  0
    0.5193    3.5664    0.2642 C   0  0  0  0  0  0  0  0  0  0  0  0
    0.0571    2.5736   -0.7143 N   0  0  0  0  0  0  0  0  0  0  0  0
   -0.5204    1.3309   -0.2380 C   0  0  0  0  0  0  0  0  0  0  0  0
   -0.3514    0.1742   -1.1591 C   0  0  2  0  0  0  0  0  0  0  0  0
   -1.6288   -0.6267   -1.0461 C   0  0  0  0  0  0  0  0  0  0  0  0
   -2.6689   -0.3445   -1.6586 O   0  0  0  0  0  0  0  0  0  0  0  0
   -1.4206   -1.7117   -0.1480 N   0  0  0  0  0  0  0  0  0  0  0  0
   -2.2620   -2.8227    0.0898 C   0  0  0  0  0  0  0  0  0  0  0  0
   -2.1063   -3.9524   -0.6544 C   0  0  0  0  0  0  0  0  0  0  0  0
   -2.9010   -5.0323   -0.4460 N   0  0  0  0  0  0  0  0  0  0  0  0
   -3.8525   -5.0035    0.4966 C   0  0  0  0  0  0  0  0  0  0  0  0
   -4.0464   -3.8667    1.2819 C   0  0  0  0  0  0  0  0  0  0  0  0
   -5.0394   -3.8599    2.2535 C   0  0  0  0  0  0  0  0  0  0  0  0
   -5.1860   -2.7066    3.0012 C   0  0  0  0  0  0  0  0  0  0  0  0
   -4.3875   -1.5886    2.8091 C   0  0  0  0  0  0  0  0  0  0  0  0
   -3.4101   -1.6248    1.8373 C   0  0  0  0  0  0  0  0  0  0  0  0
   -3.2373   -2.7597    1.0737 C   0  0  0  0  0  0  0  0  0  0  0  0
   -0.1440   -1.4546    0.4967 C   0  0  0  0  0  0  0  0  0  0  0  0
    0.6263   -0.8414   -0.6553 C   0  0  2  0  0  0  0  0  0  0  0  0
    1.9733   -0.3627   -0.3001 C   0  0  0  0  0  0  0  0  0  0  0  0
    2.7638   -1.5005    0.1643 N   0  0  0  0  0  0  0  0  0  0  0  0
    4.1109   -1.3813    0.5836 C   0  0  0  0  0  0  0  0  0  0  0  0
    5.3147   -1.4593   -0.0148 C   0  0  0  0  0  0  0  0  0  0  0  0
    6.3467   -1.2766    0.7888 N   0  0  0  0  0  0  0  0  0  0  0  0
    6.4091   -1.0657    1.8917 C   0  0  0  0  0  0  0  0  0  0  0  0
    7.3915   -0.8184    3.0441 C   0  0  0  0  0  0  0  0  0  0  0  0
    4.5535   -1.0285    2.3761 S   0  0  0  0  0  0  0  0  0  0  0  0
   -0.2123    0.5086   -2.5727 C   0  0  0  0  0  0  0  0  0  0  0  0
   -0.3451   -0.5099   -3.5031 C   0  0  0  0  0  0  0  0  0  0  0  0
   -0.2198   -0.2332   -4.8459 C   0  0  0  0  0  0  0  0  0  0  0  0
   -0.4019   -1.5806   -5.9629 Cl  0  0  0  0  0  0  0  0  0  0  0  0
    0.0376    1.0370   -5.3287 C   0  0  0  0  0  0  0  0  0  0  0  0
    0.1703    2.0526   -4.4066 C   0  0  0  0  0  0  0  0  0  0  0  0
    0.0441    1.7668   -3.0760 C   0  0  0  0  0  0  0  0  0  0  0  0
    0.1883    2.8598   -2.1204 C   0  0  0  0  0  0  0  0  0  0  0  0
    0.4242    4.0413   -2.5069 O   0  0  0  0  0  0  0  0  0  0  0  0
  1  2  1  0
  2  3  1  0
  3  4  2  0
  3  5  1  0
  5  6  1  0
  6  7  1  0
  8  7  1  1
  8  9  1  0
  9 10  2  0
  9 11  1  0
 11 12  1  0
 12 13  2  0
 13 14  1  0
 14 15  2  0
 15 16  1  0
 16 17  2  0
 17 18  1  0
 18 19  2  0
 19 20  1  0
 20 21  2  0
 11 22  1  0
 22 23  1  0
 23 24  1  1
 24 25  1  0
 25 26  1  0
 26 27  2  0
 27 28  1  0
 28 29  2  0
 29 30  1  0
 29 31  1  0
  8 32  1  0
 32 33  2  0
 33 34  1  0
 34 35  1  0
 34 36  2  0
 36 37  1  0
 37 38  2  0
 38 39  1  0
 39 40  2  0
 39  6  1  0
 23  8  1  0
 31 26  1  0
 38 32  1  0
 21 12  1  0
 21 16  1  0
M  END
$$$$

     RDKit          3D

 35 40  0  0  0  0  0  0  0  0999 V2000
    0.1321   -1.8181    2.5021 C   0  0  0  0  0  0  0  0  0  0  0  0
   -0.6095   -1.2292    1.3352 C   0  0  1  0  0  0  0  0  0  0  0  0
   -1.2948    0.0579    1.6475 C   0  0  0  0  0  0  0  0  0  0  0  0
   -1.5290    0.6144    0.3288 N   0  0  0  0  0  0  0  0  0  0  0  0
   -2.5470    1.5635    0.0314 C   0  0  0  0  0  0  0  0  0  0  0  0
   -2.1768    2.9051    0.1615 C   0  0  0  0  0  0  0  0  0  0  0  0
   -3.0782    3.8911   -0.1001 N   0  0  0  0  0  0  0  0  0  0  0  0
   -4.3349    3.5620   -0.4869 C   0  0  0  0  0  0  0  0  0  0  0  0
   -4.7028    2.2375   -0.6161 C   0  0  0  0  0  0  0  0  0  0  0  0
   -5.9906    1.9388   -1.0119 C   0  0  0  0  0  0  0  0  0  0  0  0
   -6.3643    0.6076   -1.1428 C   0  0  0  0  0  0  0  0  0  0  0  0
   -5.4493   -0.4034   -0.8774 C   0  0  0  0  0  0  0  0  0  0  0  0
   -4.1490   -0.1233   -0.4781 C   0  0  0  0  0  0  0  0  0  0  0  0
   -3.8208    1.2102   -0.3609 C   0  0  0  0  0  0  0  0  0  0  0  0
   -0.5930    0.0654   -0.5897 C   0  0  0  0  0  0  0  0  0  0  0  0
   -0.5133    0.2686   -1.8428 O   0  0  0  0  0  0  0  0  0  0  0  0
    0.3228   -0.8322    0.2049 C   0  0  1  0  0  0  0  0  0  0  0  0
    1.4366    0.0158    0.6968 C   0  0  0  0  0  0  0  0  0  0  0  0
    2.7494   -0.5375    0.6005 N   0  0  0  0  0  0  0  0  0  0  0  0
    3.8178    0.1164    1.3506 C   0  0  0  0  0  0  0  0  0  0  0  0
    4.4694    1.1767    0.5247 C   0  0  0  0  0  0  0  0  0  0  0  0
    3.9277    2.4644    0.6082 C   0  0  0  0  0  0  0  0  0  0  0  0
    4.5046    3.4702   -0.1420 C   0  0  0  0  0  0  0  0  0  0  0  0
    5.5512    3.2065   -0.9223 N   0  0  0  0  0  0  0  0  0  0  0  0
    6.0405    1.9556   -0.9732 C   0  0  0  0  0  0  0  0  0  0  0  0
    5.5253    0.9366   -0.2696 N   0  0  0  0  0  0  0  0  0  0  0  0
    3.0989   -1.6795   -0.1716 C   0  0  0  0  0  0  0  0  0  0  0  0
    4.2933   -1.9981   -0.3021 O   0  0  0  0  0  0  0  0  0  0  0  0
    2.0173   -2.4279   -0.7792 C   0  0  0  0  0  0  0  0  0  0  0  0
    2.3590   -3.5386   -1.5289 C   0  0  0  0  0  0  0  0  0  0  0  0
    1.3559   -4.2794   -2.1242 C   0  0  0  0  0  0  0  0  0  0  0  0
    0.0486   -3.8737   -1.9418 C   0  0  0  0  0  0  0  0  0  0  0  0
   -0.9089   -4.6316   -2.5454 F   0  0  0  0  0  0  0  0  0  0  0  0
   -0.2785   -2.7498   -1.1816 C   0  0  0  0  0  0  0  0  0  0  0  0
    0.7215   -2.0111   -0.5879 C   0  0  0  0  0  0  0  0  0  0  0  0
  2  1  1  1
  2  3  1  0
  3  4  1  0
  4  5  1  0
  5  6  2  0
  6  7  1  0
  7  8  2  0
  8  9  1  0
  9 10  2  0
 10 11  1  0
 11 12  2  0
 12 13  1  0
 13 14  2  0
  4 15  1  0
 15 16  2  0
 15 17  1  0
 17 18  1  1
 18 19  1  0
 19 20  1  0
 20 21  1  0
 21 22  2  0
 22 23  1  0
 23 24  2  0
 24 25  1  0
 25 26  2  0
 19 27  1  0
 27 28  2  0
 27 29  1  0
 29 30  2  0
 30 31  1  0
 31 32  2  0
 32 33  1  0
 32 34  1  0
 34 35  2  0
 17  2  1  0
 26 21  1  0
 35 29  1  0
 14  5  1  0
 35 17  1  0
 14  9  1  0
M  END
$$$$

     RDKit          3D

 36 41  0  0  0  0  0  0  0  0999 V2000
    2.2207    4.3107    0.9694 C   0  0  0  0  0  0  0  0  0  0  0  0
    1.8431    3.3297    1.8678 O   0  0  0  0  0  0  0  0  0  0  0  0
    0.6448    2.7290    1.5705 C   0  0  0  0  0  0  0  0  0  0  0  0
    0.6277    2.0483    0.2320 C   0  0  1  0  0  0  0  0  0  0  0  0
    1.7253    0.9693    0.2565 C   0  0  0  0  0  0  0  0  0  0  0  0
    1.3821    0.1142   -0.8902 N   0  0  0  0  0  0  0  0  0  0  0  0
    2.3288   -0.6128   -1.6229 C   0  0  0  0  0  0  0  0  0  0  0  0
    2.9091   -0.0014   -2.7281 C   0  0  0  0  0  0  0  0  0  0  0  0
    3.8216   -0.6423   -3.4708 N   0  0  0  0  0  0  0  0  0  0  0  0
    4.2105   -1.8991   -3.1762 C   0  0  0  0  0  0  0  0  0  0  0  0
    3.6788   -2.5672   -2.0964 C   0  0  0  0  0  0  0  0  0  0  0  0
    4.0339   -3.8354   -1.7511 C   0  0  0  0  0  0  0  0  0  0  0  0
    3.4777   -4.4732   -0.6579 C   0  0  0  0  0  0  0  0  0  0  0  0
    2.5357   -3.8264    0.1183 C   0  0  0  0  0  0  0  0  0  0  0  0
    2.1966   -2.5386   -0.2594 C   0  0  0  0  0  0  0  0  0  0  0  0
    2.7406   -1.8955   -1.3408 C   0  0  0  0  0  0  0  0  0  0  0  0
   -0.0287    0.2230   -1.0301 C   0  0  0  0  0  0  0  0  0  0  0  0
   -0.6943   -0.4539   -1.8645 O   0  0  0  0  0  0  0  0  0  0  0  0
   -0.5630    1.2420   -0.0514 C   0  0  1  0  0  0  0  0  0  0  0  0
   -1.0931    0.4420    1.0920 C   0  0  0  0  0  0  0  0  0  0  0  0
   -2.0603   -0.5046    0.5694 N   0  0  0  0  0  0  0  0  0  0  0  0
   -1.9242   -1.9220    0.7321 C   0  0  0  0  0  0  0  0  0  0  0  0
   -2.6016   -2.3141    2.0195 C   0  0  0  0  0  0  0  0  0  0  0  0
   -3.9047   -2.6773    2.1732 N   0  0  0  0  0  0  0  0  0  0  0  0
   -4.1171   -2.9524    3.4808 C   0  0  0  0  0  0  0  0  0  0  0  0
   -2.9185   -2.7522    4.1346 C   0  0  0  0  0  0  0  0  0  0  0  0
   -2.0062   -2.3639    3.2308 N   0  0  0  0  0  0  0  0  0  0  0  0
   -3.1842    0.0626   -0.1205 C   0  0  0  0  0  0  0  0  0  0  0  0
   -4.2911   -0.5299   -0.1189 O   0  0  0  0  0  0  0  0  0  0  0  0
   -2.9429    1.3325   -0.7970 C   0  0  0  0  0  0  0  0  0  0  0  0
   -4.0088    1.9112   -1.4471 C   0  0  0  0  0  0  0  0  0  0  0  0
   -3.8742    3.1208   -2.0936 C   0  0  0  0  0  0  0  0  0  0  0  0
   -2.6299    3.7122   -2.0542 C   0  0  0  0  0  0  0  0  0  0  0  0
   -2.4448    5.2524   -2.8726 Cl  0  0  0  0  0  0  0  0  0  0  0  0
   -1.5578    3.1256   -1.3981 C   0  0  0  0  0  0  0  0  0  0  0  0
   -1.6837    1.8998   -0.7403 C   0  0  0  0  0  0  0  0  0  0  0  0
  1  2  1  0
  2  3  1  0
  4  3  1  1
  4  5  1  0
  5  6  1  0
  6  7  1  0
  7  8  2  0
  8  9  1  0
  9 10  2  0
 10 11  1  0
 11 12  2  0
 12 13  1  0
 13 14  2  0
 14 15  1  0
 15 16  2  0
  6 17  1  0
 17 18  2  0
 17 19  1  0
 19 20  1  1
 20 21  1  0
 21 22  1  0
 22 23  1  0
 23 24  2  0
 24 25  1  0
 25 26  2  0
 26 27  1  0
 21 28  1  0
 28 29  2  0
 28 30  1  0
 30 31  2  0
 31 32  1  0
 32 33  2  0
 33 34  1  0
 33 35  1  0
 35 36  2  0
 19  4  1  0
 27 23  1  0
 36 30  1  0
 16  7  1  0
 36 19  1  0
 16 11  1  0
M  END
$$$$

     RDKit          3D

 22 25  0  0  0  0  0  0  0  0999 V2000
   -0.4983   -2.3524    1.1314 O   0  0  0  0  0  0  0  0  0  0  0  0
   -0.5375   -1.0951    0.9097 C   0  0  0  0  0  0  0  0  0  0  0  0
    0.6570   -0.2591    1.1013 C   0  0  0  0  0  0  0  0  0  0  0  0
    1.7121   -0.7061    0.1586 C   0  0  0  0  0  0  0  0  0  0  0  0
    1.5582   -1.7112   -0.7576 C   0  0  0  0  0  0  0  0  0  0  0  0
    2.5337   -2.1045   -1.6116 N   0  0  0  0  0  0  0  0  0  0  0  0
    3.7213   -1.4911   -1.5759 C   0  0  0  0  0  0  0  0  0  0  0  0
    3.9647   -0.4629   -0.6811 C   0  0  0  0  0  0  0  0  0  0  0  0
    5.2101    0.1132   -0.7166 C   0  0  0  0  0  0  0  0  0  0  0  0
    5.4638    1.1354    0.1621 C   0  0  0  0  0  0  0  0  0  0  0  0
    4.4822    1.5533    1.0427 C   0  0  0  0  0  0  0  0  0  0  0  0
    3.2265    0.9629    1.0688 C   0  0  0  0  0  0  0  0  0  0  0  0
    2.9560   -0.0774    0.1816 C   0  0  0  0  0  0  0  0  0  0  0  0
   -1.8038   -0.6009    0.4719 N   0  0  0  0  0  0  0  0  0  0  0  0
   -2.8554   -1.6269    0.3339 C   0  0  0  0  0  0  0  0  0  0  0  0
   -3.8009   -1.1070   -0.7718 C   0  0  0  0  0  0  0  0  0  0  0  0
   -4.3919    0.1313   -0.0955 C   0  0  0  0  0  0  0  0  0  0  0  0
   -6.0093    0.6368    0.2320 S   0  0  0  0  0  0  0  0  0  0  0  0
   -5.4501    2.2082    1.0733 C   0  0  0  0  0  0  0  0  0  0  0  0
   -4.0715    2.1589    1.0022 C   0  0  0  0  0  0  0  0  0  0  0  0
   -3.5177    1.1009    0.4063 C   0  0  0  0  0  0  0  0  0  0  0  0
   -2.0568    0.7897    0.1764 C   0  0  0  0  0  0  0  0  0  0  0  0
  1  2  2  0
  2  3  1  0
  3  4  1  0
  4  5  2  0
  5  6  1  0
  6  7  2  0
  7  8  1  0
  8  9  2  0
  9 10  1  0
 10 11  2  0
 11 12  1  0
 12 13  2  0
  2 14  1  0
 14 15  1  0
 15 16  1  0
 16 17  1  0
 17 18  1  0
 18 19  1  0
 19 20  2  0
 20 21  1  0
 21 22  1  0
 13  4  1  0
 22 14  1  0
 13  8  1  0
 21 17  2  0
M  END
$$$$

     RDKit          3D

 41 47  0  0  0  0  0  0  0  0999 V2000
   -3.9432   -2.0811    1.2847 O   0  0  0  0  0  0  0  0  0  0  0  0
   -2.8950   -1.6336    0.7989 C   0  0  0  0  0  0  0  0  0  0  0  0
   -1.8407   -2.5095    0.2961 C   0  0  0  0  0  0  0  0  0  0  0  0
   -2.0722   -3.8701    0.3867 C   0  0  0  0  0  0  0  0  0  0  0  0
   -1.1282   -4.7731   -0.0675 C   0  0  0  0  0  0  0  0  0  0  0  0
    0.0259   -4.2715   -0.6018 C   0  0  0  0  0  0  0  0  0  0  0  0
    1.2267   -5.4021   -1.1794 Cl  0  0  0  0  0  0  0  0  0  0  0  0
    0.2538   -2.9034   -0.6906 C   0  0  0  0  0  0  0  0  0  0  0  0
   -0.6751   -1.9862   -0.2431 C   0  0  0  0  0  0  0  0  0  0  0  0
   -0.4623   -0.5263   -0.3216 C   0  0  1  0  0  0  0  0  0  0  0  0
   -1.7683    0.2391   -0.3227 C   0  0  0  0  0  0  0  0  0  0  0  0
   -2.6708   -0.2319    0.7093 N   0  0  0  0  0  0  0  0  0  0  0  0
   -3.3227    0.6935    1.6161 C   0  0  0  0  0  0  0  0  0  0  0  0
   -4.6141    1.1827    1.0949 C   0  0  0  0  0  0  0  0  0  0  0  0
   -4.6255    2.3314    0.2930 C   0  0  0  0  0  0  0  0  0  0  0  0
   -5.7952    2.8454   -0.2245 C   0  0  0  0  0  0  0  0  0  0  0  0
   -6.9527    2.2074    0.0622 N   0  0  0  0  0  0  0  0  0  0  0  0
   -6.9802    1.1214    0.8152 N   0  0  0  0  0  0  0  0  0  0  0  0
   -5.8277    0.6036    1.3331 C   0  0  0  0  0  0  0  0  0  0  0  0
    0.3343   -0.1521    0.8776 C   0  0  0  0  0  0  0  0  0  0  0  0
   -0.0992   -0.0747    2.0600 O   0  0  0  0  0  0  0  0  0  0  0  0
    1.6802    0.1166    0.5305 N   0  0  0  0  0  0  0  0  0  0  0  0
    2.7785    0.3780    1.3980 C   0  0  0  0  0  0  0  0  0  0  0  0
    3.0553    1.6834    1.7681 C   0  0  0  0  0  0  0  0  0  0  0  0
    4.0796    2.0043    2.5865 N   0  0  0  0  0  0  0  0  0  0  0  0
    4.8765    1.0337    3.0741 C   0  0  0  0  0  0  0  0  0  0  0  0
    4.6561   -0.3047    2.7428 C   0  0  0  0  0  0  0  0  0  0  0  0
    5.4880   -1.2811    3.2561 C   0  0  0  0  0  0  0  0  0  0  0  0
    5.2322   -2.5970    2.9007 C   0  0  0  0  0  0  0  0  0  0  0  0
    4.1794   -2.9161    2.0609 C   0  0  0  0  0  0  0  0  0  0  0  0
    3.3726   -1.9143    1.5697 C   0  0  0  0  0  0  0  0  0  0  0  0
    3.5977   -0.6101    1.9003 C   0  0  0  0  0  0  0  0  0  0  0  0
    1.8060    0.0904   -0.9145 C   0  0  0  0  0  0  0  0  0  0  0  0
    0.4264   -0.0921   -1.4486 C   0  0  2  0  0  0  0  0  0  0  0  0
   -0.0146    1.2822   -1.9643 C   0  0  0  0  0  0  0  0  0  0  0  0
    0.8410    1.7053   -3.0520 N   0  0  0  0  0  0  0  0  0  0  0  0
    0.5406    2.9819   -3.6291 C   0  0  0  0  0  0  0  0  0  0  0  0
   -0.1870    3.8862   -3.5546 N   0  0  0  0  0  0  0  0  0  0  0  0
   -0.2348    4.9771   -4.2435 N   0  0  0  0  0  0  0  0  0  0  0  0
    0.6571    5.1326   -5.1848 C   0  0  0  0  0  0  0  0  0  0  0  0
    1.6634    3.5377   -5.0564 S   0  0  0  0  0  0  0  0  0  0  0  0
  1  2  2  0
  2  3  1  0
  3  4  2  0
  4  5  1  0
  5  6  2  0
  6  7  1  0
  6  8  1  0
  8  9  2  0
  9 10  1  0
 10 11  1  1
 11 12  1  0
 12 13  1  0
 13 14  1  0
 14 15  2  0
 15 16  1  0
 16 17  2  0
 17 18  1  0
 18 19  2  0
 10 20  1  0
 20 21  2  0
 20 22  1  0
 22 23  1  0
 23 24  2  0
 24 25  1  0
 25 26  2  0
 26 27  1  0
 27 28  2  0
 28 29  1  0
 29 30  2  0
 30 31  1  0
 31 32  2  0
 22 33  1  0
 33 34  1  0
 34 35  1  1
 35 36  1  0
 36 37  1  0
 37 38  2  0
 38 39  1  0
 39 40  2  0
 40 41  1  0
 12  2  1  0
 19 14  1  0
 32 23  1  0
 41 37  1  0
  9  3  1  0
 34 10  1  0
 32 27  1  0
M  END
$$$$

     RDKit          3D

 38 44  0  0  0  0  0  0  0  0999 V2000
   -0.9129    2.4703    1.3385 C   0  0  0  0  0  0  0  0  0  0  0  0
   -1.9088    1.4162    0.9729 C   0  0  1  0  0  0  0  0  0  0  0  0
   -2.3535    1.5166   -0.4798 C   0  0  0  0  0  0  0  0  0  0  0  0
   -3.0573    0.2604   -0.6275 N   0  0  0  0  0  0  0  0  0  0  0  0
   -4.1539   -0.0362   -1.4568 C   0  0  0  0  0  0  0  0  0  0  0  0
   -3.9422   -0.5055   -2.7580 C   0  0  0  0  0  0  0  0  0  0  0  0
   -4.9665   -0.7998   -3.5814 N   0  0  0  0  0  0  0  0  0  0  0  0
   -6.2522   -0.6596   -3.2000 C   0  0  0  0  0  0  0  0  0  0  0  0
   -6.5307   -0.2001   -1.9264 C   0  0  0  0  0  0  0  0  0  0  0  0
   -7.8591   -0.0480   -1.5127 C   0  0  0  0  0  0  0  0  0  0  0  0
   -8.1250    0.4172   -0.2235 C   0  0  0  0  0  0  0  0  0  0  0  0
   -7.0658    0.7233    0.6328 C   0  0  0  0  0  0  0  0  0  0  0  0
   -5.7598    0.5561    0.1771 C   0  0  0  0  0  0  0  0  0  0  0  0
   -5.4758    0.1013   -1.0831 C   0  0  0  0  0  0  0  0  0  0  0  0
   -2.4392   -0.6836    0.2408 C   0  0  0  0  0  0  0  0  0  0  0  0
   -2.7435   -1.9024    0.3915 O   0  0  0  0  0  0  0  0  0  0  0  0
   -1.3254    0.0220    0.9794 C   0  0  1  0  0  0  0  0  0  0  0  0
   -0.1236   -0.0314    0.1121 C   0  0  0  0  0  0  0  0  0  0  0  0
    1.0314   -0.6915    0.6715 N   0  0  0  0  0  0  0  0  0  0  0  0
    2.2151   -0.8003   -0.1476 C   0  0  0  0  0  0  0  0  0  0  0  0
    3.1339    0.4013    0.0413 C   0  0  0  0  0  0  0  0  0  0  0  0
    4.3084    0.2582   -0.7930 N   0  0  2  0  0  0  0  0  0  0  0  0
    4.6930   -1.1060   -1.0353 C   0  0  0  0  0  0  0  0  0  0  0  0
    6.0745   -0.8928   -1.6693 C   0  0  0  0  0  0  0  0  0  0  0  0
    6.6280    0.1592   -0.7330 C   0  0  0  0  0  0  0  0  0  0  0  0
    7.6674   -0.3867    0.2221 C   0  0  0  0  0  0  0  0  0  0  0  0
    8.4644    0.7115   -0.1094 O   0  0  0  0  0  0  0  0  0  0  0  0
    7.7183    1.0292   -1.2672 C   0  0  0  0  0  0  0  0  0  0  0  0
    5.4534    0.8294   -0.0921 C   0  0  0  0  0  0  0  0  0  0  0  0
    1.0874   -1.2434    1.9772 C   0  0  0  0  0  0  0  0  0  0  0  0
    2.1211   -1.7950    2.4276 O   0  0  0  0  0  0  0  0  0  0  0  0
   -0.0908   -1.1715    2.8301 C   0  0  0  0  0  0  0  0  0  0  0  0
   -0.0286   -1.7081    4.0928 C   0  0  0  0  0  0  0  0  0  0  0  0
   -1.1308   -1.6537    4.9227 C   0  0  0  0  0  0  0  0  0  0  0  0
   -2.2644   -1.0435    4.4156 C   0  0  0  0  0  0  0  0  0  0  0  0
   -3.6816   -0.9645    5.4601 Cl  0  0  0  0  0  0  0  0  0  0  0  0
   -2.3178   -0.5056    3.1418 C   0  0  0  0  0  0  0  0  0  0  0  0
   -1.2125   -0.5603    2.3102 C   0  0  0  0  0  0  0  0  0  0  0  0
  2  1  1  6
  2  3  1  0
  3  4  1  0
  4  5  1  0
  5  6  2  0
  6  7  1  0
  7  8  2  0
  8  9  1  0
  9 10  2  0
 10 11  1  0
 11 12  2  0
 12 13  1  0
 13 14  2  0
  4 15  1  0
 15 16  2  0
 15 17  1  0
 17 18  1  6
 18 19  1  0
 19 20  1  0
 20 21  1  0
 22 21  1  1
 22 23  1  0
 23 24  1  0
 24 25  1  0
 25 26  1  0
 26 27  1  0
 27 28  1  0
 25 29  1  0
 19 30  1  0
 30 31  2  0
 30 32  1  0
 32 33  2  0
 33 34  1  0
 34 35  2  0
 35 36  1  0
 35 37  1  0
 37 38  2  0
 17  2  1  0
 29 22  1  0
 38 32  1  0
 14  5  1  0
 38 17  1  0
 14  9  1  0
 28 25  1  0
M  CHG  1  22   1
M  END
$$$$

     RDKit          3D

 34 39  0  0  0  0  0  0  0  0999 V2000
    5.6974    4.1281   -1.0315 C   0  0  0  0  0  0  0  0  0  0  0  0
    5.4241    2.7942   -0.5200 N   0  0  0  0  0  0  0  0  0  0  0  0
    6.2797    1.7473   -0.6323 C   0  0  0  0  0  0  0  0  0  0  0  0
    5.6591    0.6869   -0.0320 C   0  0  0  0  0  0  0  0  0  0  0  0
    4.4139    1.0930    0.4502 C   0  0  0  0  0  0  0  0  0  0  0  0
    3.4357    0.2315    1.1655 C   0  0  0  0  0  0  0  0  0  0  0  0
    2.5052   -0.4271    0.2676 N   0  0  0  0  0  0  0  0  0  0  0  0
    1.2342    0.1656   -0.1229 C   0  0  0  0  0  0  0  0  0  0  0  0
    0.1515   -0.8236    0.2017 C   0  0  1  0  0  0  0  0  0  0  0  0
   -0.1846   -0.8591    1.6599 C   0  0  0  0  0  0  0  0  0  0  0  0
   -1.2590    0.1983    1.7847 C   0  0  0  0  0  0  0  0  0  0  0  0
   -2.0993   -0.1484    0.6306 N   0  0  0  0  0  0  0  0  0  0  0  0
   -3.5179   -0.2068    0.5643 C   0  0  0  0  0  0  0  0  0  0  0  0
   -4.1023   -1.4279    0.8706 C   0  0  0  0  0  0  0  0  0  0  0  0
   -5.4364   -1.5857    0.8369 N   0  0  0  0  0  0  0  0  0  0  0  0
   -6.2415   -0.5562    0.5030 C   0  0  0  0  0  0  0  0  0  0  0  0
   -5.6731    0.6831    0.1907 C   0  0  0  0  0  0  0  0  0  0  0  0
   -6.5084    1.7257   -0.1485 C   0  0  0  0  0  0  0  0  0  0  0  0
   -5.9435    2.9560   -0.4585 C   0  0  0  0  0  0  0  0  0  0  0  0
   -4.5760    3.1145   -0.4230 C   0  0  0  0  0  0  0  0  0  0  0  0
   -3.7128    2.0729   -0.0824 C   0  0  0  0  0  0  0  0  0  0  0  0
   -4.3068    0.8708    0.2180 C   0  0  0  0  0  0  0  0  0  0  0  0
   -1.1578   -0.4143   -0.4130 C   0  0  0  0  0  0  0  0  0  0  0  0
   -1.4152   -0.3124   -1.6570 O   0  0  0  0  0  0  0  0  0  0  0  0
    0.4490   -2.1661   -0.3526 C   0  0  0  0  0  0  0  0  0  0  0  0
   -0.6028   -3.0245   -0.6574 C   0  0  0  0  0  0  0  0  0  0  0  0
   -0.3998   -4.2787   -1.1722 C   0  0  0  0  0  0  0  0  0  0  0  0
   -1.7759   -5.3044   -1.5315 Cl  0  0  0  0  0  0  0  0  0  0  0  0
    0.8962   -4.7024   -1.3952 C   0  0  0  0  0  0  0  0  0  0  0  0
    1.9696   -3.8682   -1.1011 C   0  0  0  0  0  0  0  0  0  0  0  0
    1.7286   -2.6257   -0.5895 C   0  0  0  0  0  0  0  0  0  0  0  0
    2.8338   -1.7064   -0.2623 C   0  0  0  0  0  0  0  0  0  0  0  0
    4.0332   -2.0337   -0.4425 O   0  0  0  0  0  0  0  0  0  0  0  0
    4.3335    2.3911    0.1186 N   0  0  0  0  0  0  0  0  0  0  0  0
  1  2  1  0
  2  3  1  0
  3  4  2  0
  4  5  1  0
  5  6  1  0
  6  7  1  0
  7  8  1  0
  9  8  1  1
  9 10  1  0
 10 11  1  0
 11 12  1  0
 12 13  1  0
 13 14  2  0
 14 15  1  0
 15 16  2  0
 16 17  1  0
 17 18  2  0
 18 19  1  0
 19 20  2  0
 20 21  1  0
 21 22  2  0
 12 23  1  0
 23 24  2  0
  9 25  1  0
 25 26  2  0
 26 27  1  0
 27 28  1  0
 27 29  2  0
 29 30  1  0
 30 31  2  0
 31 32  1  0
 32 33  2  0
  5 34  2  0
 34  2  1  0
 32  7  1  0
 23  9  1  0
 31 25  1  0
 22 13  1  0
 22 17  1  0
M  END
$$$$

     RDKit          3D

 36 41  0  0  0  0  0  0  0  0999 V2000
   -1.8409    2.6513   -1.9286 C   0  0  0  0  0  0  0  0  0  0  0  0
   -2.0423    2.1772   -0.5052 C   0  0  1  0  0  0  0  0  0  0  0  0
   -3.1510    1.1702   -0.4078 C   0  0  0  0  0  0  0  0  0  0  0  0
   -2.6607    0.1204    0.4615 N   0  0  0  0  0  0  0  0  0  0  0  0
   -3.4827   -0.7781    1.1885 C   0  0  0  0  0  0  0  0  0  0  0  0
   -3.9454   -0.5593    2.4539 C   0  0  0  0  0  0  0  0  0  0  0  0
   -4.7318   -1.5045    3.0472 N   0  0  0  0  0  0  0  0  0  0  0  0
   -5.0593   -2.6479    2.4075 C   0  0  0  0  0  0  0  0  0  0  0  0
   -4.6170   -2.9147    1.1296 C   0  0  0  0  0  0  0  0  0  0  0  0
   -4.9590   -4.0840    0.4908 C   0  0  0  0  0  0  0  0  0  0  0  0
   -4.5073   -4.3433   -0.7987 C   0  0  0  0  0  0  0  0  0  0  0  0
   -3.7067   -3.3727   -1.3925 C   0  0  0  0  0  0  0  0  0  0  0  0
   -3.3692   -2.2091   -0.7504 C   0  0  0  0  0  0  0  0  0  0  0  0
   -3.8227   -1.9627    0.5274 C   0  0  0  0  0  0  0  0  0  0  0  0
   -1.2396    0.1646    0.4436 C   0  0  0  0  0  0  0  0  0  0  0  0
   -0.5256   -0.8326    0.6919 O   0  0  0  0  0  0  0  0  0  0  0  0
   -0.8141    1.5629    0.0888 C   0  0  1  0  0  0  0  0  0  0  0  0
    0.3567    1.5309   -0.8304 C   0  0  0  0  0  0  0  0  0  0  0  0
    1.6495    1.6177   -0.1916 N   0  0  0  0  0  0  0  0  0  0  0  0
    2.8055    1.0119   -0.8333 C   0  0  0  0  0  0  0  0  0  0  0  0
    2.8891   -0.3986   -0.3304 C   0  0  0  0  0  0  0  0  0  0  0  0
    3.9940   -1.1425   -0.8780 N   0  0  0  0  0  0  0  0  0  0  0  0
    4.1906   -0.9090   -2.2888 C   0  0  0  0  0  0  0  0  0  0  0  0
    5.2748   -1.8712   -2.7393 C   0  0  0  0  0  0  0  0  0  0  0  0
    6.4693   -1.5429   -2.0795 O   0  0  0  0  0  0  0  0  0  0  0  0
    6.2869   -1.8131   -0.7313 C   0  0  0  0  0  0  0  0  0  0  0  0
    5.2055   -0.9467   -0.1177 C   0  0  0  0  0  0  0  0  0  0  0  0
    1.8693    2.2734    1.0529 C   0  0  0  0  0  0  0  0  0  0  0  0
    3.0392    2.5717    1.4505 O   0  0  0  0  0  0  0  0  0  0  0  0
    0.6825    2.5841    1.8458 C   0  0  0  0  0  0  0  0  0  0  0  0
    0.8793    3.2190    3.0540 C   0  0  0  0  0  0  0  0  0  0  0  0
   -0.1959    3.5411    3.8523 C   0  0  0  0  0  0  0  0  0  0  0  0
   -1.4539    3.2048    3.3944 C   0  0  0  0  0  0  0  0  0  0  0  0
   -2.8057    3.6321    4.4422 Cl  0  0  0  0  0  0  0  0  0  0  0  0
   -1.6547    2.5647    2.1765 C   0  0  0  0  0  0  0  0  0  0  0  0
   -0.5733    2.2460    1.3838 C   0  0  0  0  0  0  0  0  0  0  0  0
  2  1  1  6
  2  3  1  0
  3  4  1  0
  4  5  1  0
  5  6  2  0
  6  7  1  0
  7  8  2  0
  8  9  1  0
  9 10  2  0
 10 11  1  0
 11 12  2  0
 12 13  1  0
 13 14  2  0
  4 15  1  0
 15 16  2  0
 15 17  1  0
 17 18  1  6
 18 19  1  0
 19 20  1  0
 20 21  1  0
 21 22  1  0
 22 23  1  0
 23 24  1  0
 24 25  1  0
 25 26  1  0
 26 27  1  0
 19 28  1  0
 28 29  2  0
 28 30  1  0
 30 31  2  0
 31 32  1  0
 32 33  2  0
 33 34  1  0
 33 35  1  0
 35 36  2  0
 17  2  1  0
 27 22  1  0
 36 30  1  0
 14  5  1  0
 36 17  1  0
 14  9  1  0
M  CHG  1  22   1
M  END
$$$$

     RDKit          3D

 34 39  0  0  0  0  0  0  0  0999 V2000
   -5.7117    3.6948   -0.3184 C   0  0  0  0  0  0  0  0  0  0  0  0
   -5.5342    2.3371   -0.7966 N   0  0  0  0  0  0  0  0  0  0  0  0
   -4.3695    1.6045   -0.3505 C   0  0  0  0  0  0  0  0  0  0  0  0
   -3.6123    2.2193    0.4178 O   0  0  0  0  0  0  0  0  0  0  0  0
   -4.2227    0.2441   -0.8502 C   0  0  0  0  0  0  0  0  0  0  0  0
   -3.0667   -0.4894   -0.4029 N   0  0  0  0  0  0  0  0  0  0  0  0
   -2.9135   -1.3506    0.7387 C   0  0  0  0  0  0  0  0  0  0  0  0
   -3.4891   -1.2229    1.8431 O   0  0  0  0  0  0  0  0  0  0  0  0
   -1.9462   -2.3954    0.3175 C   0  0  0  0  0  0  0  0  0  0  0  0
   -1.7328   -3.6280    0.7270 C   0  0  0  0  0  0  0  0  0  0  0  0
   -0.6977   -4.4195    0.0918 C   0  0  0  0  0  0  0  0  0  0  0  0
    0.0001   -3.8990   -0.8875 C   0  0  0  0  0  0  0  0  0  0  0  0
    1.2562   -4.9130   -1.6178 Cl  0  0  0  0  0  0  0  0  0  0  0  0
   -0.2035   -2.5685   -1.4766 C   0  0  0  0  0  0  0  0  0  0  0  0
   -1.1005   -1.7003   -0.6937 C   0  0  1  0  0  0  0  0  0  0  0  0
   -1.7946   -0.4860   -1.0882 C   0  0  2  0  0  0  0  0  0  0  0  0
   -0.5813   -0.3308   -0.3668 C   0  0  2  0  0  0  0  0  0  0  0  0
    0.7357   -0.0252   -1.0139 C   0  0  0  0  0  0  0  0  0  0  0  0
    0.9145    0.4612   -2.1701 O   0  0  0  0  0  0  0  0  0  0  0  0
    1.7419   -0.3892   -0.0736 N   0  0  0  0  0  0  0  0  0  0  0  0
    3.1299   -0.3707   -0.3872 C   0  0  0  0  0  0  0  0  0  0  0  0
    3.8152   -1.4354   -0.9037 C   0  0  0  0  0  0  0  0  0  0  0  0
    5.1189   -1.2905   -1.1554 N   0  0  0  0  0  0  0  0  0  0  0  0
    5.8084   -0.1488   -0.9298 C   0  0  0  0  0  0  0  0  0  0  0  0
    5.1500    0.9524   -0.4071 C   0  0  0  0  0  0  0  0  0  0  0  0
    5.8347    2.1276   -0.1691 C   0  0  0  0  0  0  0  0  0  0  0  0
    5.1533    3.2010    0.3494 C   0  0  0  0  0  0  0  0  0  0  0  0
    3.8102    3.1047    0.6265 C   0  0  0  0  0  0  0  0  0  0  0  0
    3.1528    1.9098    0.3756 C   0  0  0  0  0  0  0  0  0  0  0  0
    3.8083    0.8044   -0.1478 C   0  0  0  0  0  0  0  0  0  0  0  0
    1.1185   -0.7648    1.2044 C   0  0  0  0  0  0  0  0  0  0  0  0
   -0.2408   -0.0891    1.0213 C   0  0  0  0  0  0  0  0  0  0  0  0
   -0.8029    0.5338    2.0386 C   0  0  0  0  0  0  0  0  0  0  0  0
   -0.2321    0.6020    3.2749 F   0  0  0  0  0  0  0  0  0  0  0  0
  1  2  1  0
  2  3  1  0
  3  4  2  0
  3  5  1  0
  5  6  1  0
  6  7  1  0
  7  8  2  0
  7  9  1  0
  9 10  2  0
 10 11  1  0
 11 12  2  0
 12 13  1  0
 12 14  1  0
 15 14  1  6
 15 16  1  0
 16 17  1  0
 17 18  1  6
 18 19  2  0
 18 20  1  0
 20 21  1  0
 21 22  2  0
 22 23  1  0
 23 24  2  0
 24 25  1  0
 25 26  2  0
 26 27  1  0
 27 28  2  0
 28 29  1  0
 29 30  2  0
 20 31  1  0
 31 32  1  0
 32 33  2  0
 33 34  1  0
 16  6  1  1
 32 17  1  0
 15  9  1  0
 30 21  1  0
 17 15  1  0
 30 25  1  0
M  END
$$$$

     RDKit          3D

 25 28  0  0  0  0  0  0  0  0999 V2000
    1.1333    0.6184   -1.1604 O   0  0  0  0  0  0  0  0  0  0  0  0
    0.7639   -0.2220   -0.2988 C   0  0  0  0  0  0  0  0  0  0  0  0
    1.7287   -1.2056    0.2833 C   0  0  0  0  0  0  0  0  0  0  0  0
    3.0785   -1.0357   -0.2806 C   0  0  0  0  0  0  0  0  0  0  0  0
    3.6055   -1.8832   -1.2213 C   0  0  0  0  0  0  0  0  0  0  0  0
    4.8430   -1.7330   -1.7426 N   0  0  0  0  0  0  0  0  0  0  0  0
    5.6434   -0.7131   -1.3521 C   0  0  0  0  0  0  0  0  0  0  0  0
    5.1625    0.1673   -0.4093 C   0  0  0  0  0  0  0  0  0  0  0  0
    5.9440    1.2241    0.0199 C   0  0  0  0  0  0  0  0  0  0  0  0
    5.4970    2.1194    0.9572 C   0  0  0  0  0  0  0  0  0  0  0  0
    4.2370    1.9626    1.4851 C   0  0  0  0  0  0  0  0  0  0  0  0
    3.4332    0.9060    1.0675 C   0  0  0  0  0  0  0  0  0  0  0  0
    3.8924    0.0222    0.1330 C   0  0  0  0  0  0  0  0  0  0  0  0
   -0.5847   -0.2708    0.1564 N   0  0  0  0  0  0  0  0  0  0  0  0
   -1.0665   -1.2056    1.1366 C   0  0  0  0  0  0  0  0  0  0  0  0
   -2.4014   -1.7997    0.8301 C   0  0  0  0  0  0  0  0  0  0  0  0
   -3.3296   -0.9007    0.0753 C   0  0  1  0  0  0  0  0  0  0  0  0
   -4.0153    0.0583    1.0367 C   0  0  0  0  0  0  0  0  0  0  0  0
   -4.7835    1.1241    0.3262 C   0  0  0  0  0  0  0  0  0  0  0  0
   -4.8972    0.8846   -1.1565 C   0  0  0  0  0  0  0  0  0  0  0  0
   -5.4192    2.0673   -1.6928 F   0  0  0  0  0  0  0  0  0  0  0  0
   -5.8434   -0.0967   -1.4605 F   0  0  0  0  0  0  0  0  0  0  0  0
   -3.5912    0.6451   -1.8437 C   0  0  0  0  0  0  0  0  0  0  0  0
   -2.6263   -0.1739   -1.0352 C   0  0  1  0  0  0  0  0  0  0  0  0
   -1.5492    0.6753   -0.3926 C   0  0  0  0  0  0  0  0  0  0  0  0
  1  2  2  0
  2  3  1  0
  3  4  1  0
  4  5  2  0
  5  6  1  0
  6  7  2  0
  7  8  1  0
  8  9  2  0
  9 10  1  0
 10 11  2  0
 11 12  1  0
 12 13  2  0
  2 14  1  0
 14 15  1  0
 15 16  1  0
 17 16  1  1
 17 18  1  0
 18 19  1  0
 19 20  1  0
 20 21  1  0
 20 22  1  0
 20 23  1  0
 24 23  1  1
 24 25  1  0
 13  4  1  0
 25 14  1  0
 13  8  1  0
 24 17  1  0
M  END
$$$$

     RDKit          3D

 38 43  0  0  0  0  0  0  0  0999 V2000
    4.3703   -1.5110    3.0744 C   0  0  0  0  0  0  0  0  0  0  0  0
    3.6704   -0.2463    2.9510 N   0  0  0  0  0  0  0  0  0  0  0  0
    3.0026   -0.1961    1.6588 C   0  0  0  0  0  0  0  0  0  0  0  0
    2.5988   -1.5317    1.1885 C   0  0  0  0  0  0  0  0  0  0  0  0
    1.9299   -1.6432   -0.0678 N   0  0  0  0  0  0  0  0  0  0  0  0
    0.4642   -1.5873   -0.2113 C   0  0  0  0  0  0  0  0  0  0  0  0
    0.0044   -0.6365   -1.2626 C   0  0  2  0  0  0  0  0  0  0  0  0
    0.4681    0.7304   -0.7982 C   0  0  0  0  0  0  0  0  0  0  0  0
    1.6592    1.1759   -0.9456 O   0  0  0  0  0  0  0  0  0  0  0  0
   -0.6146    1.4071   -0.1915 N   0  0  0  0  0  0  0  0  0  0  0  0
   -0.4861    2.3027    0.8954 C   0  0  0  0  0  0  0  0  0  0  0  0
   -0.5490    1.9364    2.2153 C   0  0  0  0  0  0  0  0  0  0  0  0
   -0.4126    2.8754    3.1821 N   0  0  0  0  0  0  0  0  0  0  0  0
   -0.2147    4.1743    2.9074 C   0  0  0  0  0  0  0  0  0  0  0  0
   -0.1436    4.5952    1.5904 C   0  0  0  0  0  0  0  0  0  0  0  0
    0.0609    5.9343    1.2798 C   0  0  0  0  0  0  0  0  0  0  0  0
    0.1319    6.3530   -0.0223 C   0  0  0  0  0  0  0  0  0  0  0  0
   -0.0023    5.4270   -1.0424 C   0  0  0  0  0  0  0  0  0  0  0  0
   -0.2066    4.0893   -0.7170 C   0  0  0  0  0  0  0  0  0  0  0  0
   -0.2806    3.6509    0.5854 C   0  0  0  0  0  0  0  0  0  0  0  0
   -1.7971    0.9775   -0.9165 C   0  0  0  0  0  0  0  0  0  0  0  0
   -1.4499   -0.4748   -1.2854 C   0  0  2  0  0  0  0  0  0  0  0  0
   -2.2619   -1.3227   -0.3569 C   0  0  0  0  0  0  0  0  0  0  0  0
   -2.1046   -2.6673   -0.5859 O   0  0  0  0  0  0  0  0  0  0  0  0
   -2.8555   -3.4418    0.2773 C   0  0  0  0  0  0  0  0  0  0  0  0
   -4.3442   -3.1835    0.1878 C   0  0  0  0  0  0  0  0  0  0  0  0
   -4.9433   -3.4071   -1.0361 F   0  0  0  0  0  0  0  0  0  0  0  0
   -5.1236   -3.7868    1.3751 C   0  0  0  0  0  0  0  0  0  0  0  0
   -5.0237   -2.3304    1.1801 C   0  0  0  0  0  0  0  0  0  0  0  0
    0.7035   -0.8428   -2.5423 C   0  0  0  0  0  0  0  0  0  0  0  0
    0.1944   -0.5013   -3.7758 C   0  0  0  0  0  0  0  0  0  0  0  0
    0.8777   -0.6952   -4.9601 C   0  0  0  0  0  0  0  0  0  0  0  0
    0.1717   -0.2374   -6.5025 Cl  0  0  0  0  0  0  0  0  0  0  0  0
    2.1471   -1.2616   -4.9449 C   0  0  0  0  0  0  0  0  0  0  0  0
    2.6694   -1.6085   -3.7160 C   0  0  0  0  0  0  0  0  0  0  0  0
    1.9694   -1.4072   -2.5338 C   0  0  0  0  0  0  0  0  0  0  0  0
    2.6395   -1.8305   -1.3096 C   0  0  0  0  0  0  0  0  0  0  0  0
    3.7793   -2.3391   -1.2795 O   0  0  0  0  0  0  0  0  0  0  0  0
  1  2  1  0
  2  3  1  0
  3  4  1  0
  4  5  1  0
  5  6  1  0
  7  6  1  1
  7  8  1  0
  8  9  2  0
  8 10  1  0
 10 11  1  0
 11 12  2  0
 12 13  1  0
 13 14  2  0
 14 15  1  0
 15 16  2  0
 16 17  1  0
 17 18  2  0
 18 19  1  0
 19 20  2  0
 10 21  1  0
 21 22  1  0
 22 23  1  1
 23 24  1  0
 24 25  1  0
 25 26  1  0
 26 27  1  0
 26 28  1  0
 28 29  1  0
  7 30  1  0
 30 31  2  0
 31 32  1  0
 32 33  1  0
 32 34  2  0
 34 35  1  0
 35 36  2  0
 36 37  1  0
 37 38  2  0
 37  5  1  0
 22  7  1  0
 29 26  1  0
 36 30  1  0
 20 11  1  0
 20 15  1  0
M  CHG  1   2   1
M  END
$$$$

     RDKit          3D

 35 40  0  0  0  0  0  0  0  0999 V2000
    6.9553   -1.1309    0.1080 C   0  0  0  0  0  0  0  0  0  0  0  0
    5.7545   -0.3053    0.4011 C   0  0  0  0  0  0  0  0  0  0  0  0
    5.0995    0.4989   -0.4478 N   0  0  0  0  0  0  0  0  0  0  0  0
    4.0553    1.0725    0.2183 C   0  0  0  0  0  0  0  0  0  0  0  0
    3.1255    2.0165   -0.4174 C   0  0  0  0  0  0  0  0  0  0  0  0
    1.9671    1.3537   -1.0362 N   0  0  0  0  0  0  0  0  0  0  0  0
    0.7878    1.1528   -0.2697 C   0  0  0  0  0  0  0  0  0  0  0  0
    0.0211   -0.0443   -0.6777 C   0  0  2  0  0  0  0  0  0  0  0  0
   -1.4686    0.1743   -0.5038 C   0  0  0  0  0  0  0  0  0  0  0  0
   -2.2021    0.7729   -1.3453 O   0  0  0  0  0  0  0  0  0  0  0  0
   -1.8771   -0.3975    0.7373 N   0  0  0  0  0  0  0  0  0  0  0  0
   -3.2363   -0.4330    1.1684 C   0  0  0  0  0  0  0  0  0  0  0  0
   -3.9534   -1.5719    0.7836 C   0  0  0  0  0  0  0  0  0  0  0  0
   -5.2576   -1.6864    1.1532 N   0  0  0  0  0  0  0  0  0  0  0  0
   -5.8617   -0.7187    1.8824 C   0  0  0  0  0  0  0  0  0  0  0  0
   -5.1445    0.4135    2.2635 C   0  0  0  0  0  0  0  0  0  0  0  0
   -5.7814    1.3907    3.0085 C   0  0  0  0  0  0  0  0  0  0  0  0
   -5.0467    2.4994    3.3708 C   0  0  0  0  0  0  0  0  0  0  0  0
   -3.7159    2.6481    3.0110 C   0  0  0  0  0  0  0  0  0  0  0  0
   -3.0711    1.6782    2.2674 C   0  0  0  0  0  0  0  0  0  0  0  0
   -3.8158    0.5748    1.9112 C   0  0  0  0  0  0  0  0  0  0  0  0
   -0.6977   -0.9156    1.4480 C   0  0  0  0  0  0  0  0  0  0  0  0
    0.1952   -1.2225    0.2611 C   0  0  2  0  0  0  0  0  0  0  0  0
    1.6036   -1.5310    0.6147 C   0  0  0  0  0  0  0  0  0  0  0  0
    0.1981   -0.4291   -2.0831 C   0  0  0  0  0  0  0  0  0  0  0  0
   -0.7178   -1.3396   -2.6117 C   0  0  0  0  0  0  0  0  0  0  0  0
   -0.6324   -1.7685   -3.9263 C   0  0  0  0  0  0  0  0  0  0  0  0
   -1.5537   -2.6629   -4.4016 F   0  0  0  0  0  0  0  0  0  0  0  0
    0.3754   -1.2939   -4.7443 C   0  0  0  0  0  0  0  0  0  0  0  0
    1.2997   -0.3877   -4.2444 C   0  0  0  0  0  0  0  0  0  0  0  0
    1.1790    0.0140   -2.9296 C   0  0  0  0  0  0  0  0  0  0  0  0
    2.1418    0.9695   -2.3972 C   0  0  0  0  0  0  0  0  0  0  0  0
    3.0884    1.4413   -3.0965 O   0  0  0  0  0  0  0  0  0  0  0  0
    4.1126    0.5891    1.4698 N   0  0  0  0  0  0  0  0  0  0  0  0
    5.1188   -0.2151    1.5450 O   0  0  0  0  0  0  0  0  0  0  0  0
  1  2  1  0
  2  3  2  0
  3  4  1  0
  4  5  1  0
  5  6  1  0
  6  7  1  0
  8  7  1  1
  8  9  1  0
  9 10  2  0
  9 11  1  0
 11 12  1  0
 12 13  2  0
 13 14  1  0
 14 15  2  0
 15 16  1  0
 16 17  2  0
 17 18  1  0
 18 19  2  0
 19 20  1  0
 20 21  2  0
 11 22  1  0
 22 23  1  0
 23 24  1  1
  8 25  1  0
 25 26  2  0
 26 27  1  0
 27 28  1  0
 27 29  2  0
 29 30  1  0
 30 31  2  0
 31 32  1  0
 32 33  2  0
  4 34  2  0
 34 35  1  0
 35  2  1  0
 32  6  1  0
 23  8  1  0
 31 25  1  0
 21 12  1  0
 21 16  1  0
M  END
$$$$

     RDKit          3D

 37 41  0  0  0  0  0  0  0  0999 V2000
   -2.3854   -2.4917   -4.0170 C   0  0  0  0  0  0  0  0  0  0  0  0
   -3.1631   -2.7743   -2.7688 C   0  0  0  0  0  0  0  0  0  0  0  0
   -2.6664   -1.9896   -1.5783 C   0  0  0  0  0  0  0  0  0  0  0  0
   -1.6172   -2.4493   -1.0586 O   0  0  0  0  0  0  0  0  0  0  0  0
   -3.3477   -0.8328   -1.1088 N   0  0  0  0  0  0  0  0  0  0  0  0
   -4.6160   -0.3820   -1.6980 C   0  0  0  0  0  0  0  0  0  0  0  0
   -5.2806    0.6068   -0.7737 C   0  0  0  0  0  0  0  0  0  0  0  0
   -5.0824    0.2555    0.7031 C   0  0  0  0  0  0  0  0  0  0  0  0
   -3.6265    0.4355    0.9356 C   0  0  0  0  0  0  0  0  0  0  0  0
   -3.0838    1.1067    1.9981 C   0  0  0  0  0  0  0  0  0  0  0  0
   -1.7182    1.2359    2.1177 C   0  0  0  0  0  0  0  0  0  0  0  0
   -0.8183    0.7062    1.1843 C   0  0  0  0  0  0  0  0  0  0  0  0
    0.5849    0.8949    1.3416 N   0  0  0  0  0  0  0  0  0  0  0  0
    1.0885    1.9380    2.2070 C   0  0  0  0  0  0  0  0  0  0  0  0
    1.0871    3.3119    1.6634 C   0  0  0  0  0  0  0  0  0  0  0  0
    0.0109    4.1874    1.8903 C   0  0  0  0  0  0  0  0  0  0  0  0
   -0.0092    5.4724    1.3951 C   0  0  0  0  0  0  0  0  0  0  0  0
    1.0155    5.9862    0.6496 C   0  0  0  0  0  0  0  0  0  0  0  0
    2.0896    5.1541    0.4074 C   0  0  0  0  0  0  0  0  0  0  0  0
    3.4307    5.7761   -0.5470 Cl  0  0  0  0  0  0  0  0  0  0  0  0
    2.1097    3.8482    0.9105 C   0  0  0  0  0  0  0  0  0  0  0  0
    1.5534    0.1336    0.6201 C   0  0  0  0  0  0  0  0  0  0  0  0
    1.2859   -0.6214   -0.3494 O   0  0  0  0  0  0  0  0  0  0  0  0
    3.0165    0.1637    0.9773 C   0  0  0  0  0  0  0  0  0  0  0  0
    3.7575   -0.7424    0.0324 C   0  0  0  0  0  0  0  0  0  0  0  0
    4.5136   -0.2033   -1.0155 C   0  0  0  0  0  0  0  0  0  0  0  0
    5.1724   -0.9725   -1.8744 N   0  0  0  0  0  0  0  0  0  0  0  0
    5.1365   -2.3202   -1.7647 C   0  0  0  0  0  0  0  0  0  0  0  0
    4.4012   -2.8913   -0.7435 C   0  0  0  0  0  0  0  0  0  0  0  0
    4.3795   -4.2822   -0.6511 C   0  0  0  0  0  0  0  0  0  0  0  0
    5.0745   -5.0193   -1.5624 F   0  0  0  0  0  0  0  0  0  0  0  0
    3.6443   -4.8604    0.3684 C   0  0  0  0  0  0  0  0  0  0  0  0
    2.9478   -4.0704    1.2740 C   0  0  0  0  0  0  0  0  0  0  0  0
    2.9582   -2.6873    1.1990 C   0  0  0  0  0  0  0  0  0  0  0  0
    3.6930   -2.1313    0.1810 C   0  0  0  0  0  0  0  0  0  0  0  0
   -1.3983    0.0367    0.1285 C   0  0  0  0  0  0  0  0  0  0  0  0
   -2.7768   -0.1090   -0.0125 C   0  0  0  0  0  0  0  0  0  0  0  0
  1  2  1  0
  2  3  1  0
  3  4  2  0
  3  5  1  0
  5  6  1  0
  6  7  1  0
  7  8  1  0
  8  9  1  0
  9 10  2  0
 10 11  1  0
 11 12  2  0
 12 13  1  0
 13 14  1  0
 14 15  1  0
 15 16  2  0
 16 17  1  0
 17 18  2  0
 18 19  1  0
 19 20  1  0
 19 21  2  0
 13 22  1  0
 22 23  2  0
 22 24  1  0
 24 25  1  0
 25 26  2  0
 26 27  1  0
 27 28  2  0
 28 29  1  0
 29 30  2  0
 30 31  1  0
 30 32  1  0
 32 33  2  0
 33 34  1  0
 34 35  2  0
 12 36  1  0
 36 37  2  0
 37  5  1  0
 37  9  1  0
 21 15  1  0
 35 25  1  0
 35 29  1  0
M  END
$$$$

     RDKit          3D

 35 40  0  0  0  0  0  0  0  0999 V2000
    0.9530    1.0780   -1.3956 C   0  0  0  0  0  0  0  0  0  0  0  0
    0.7902    0.3230   -0.0968 C   0  0  1  0  0  0  0  0  0  0  0  0
   -0.6246    0.6818    0.4290 C   0  0  0  0  0  0  0  0  0  0  0  0
   -1.4694   -0.0350   -0.4810 N   0  0  0  0  0  0  0  0  0  0  0  0
   -2.7554    0.2106   -1.0179 C   0  0  0  0  0  0  0  0  0  0  0  0
   -3.0630   -0.2453   -2.3097 C   0  0  0  0  0  0  0  0  0  0  0  0
   -4.2826   -0.0520   -2.8564 N   0  0  0  0  0  0  0  0  0  0  0  0
   -5.2864    0.5783   -2.2294 C   0  0  0  0  0  0  0  0  0  0  0  0
   -5.0300    1.0432   -0.9571 C   0  0  0  0  0  0  0  0  0  0  0  0
   -6.0617    1.6805   -0.3061 C   0  0  0  0  0  0  0  0  0  0  0  0
   -5.8945    2.1653    0.9743 C   0  0  0  0  0  0  0  0  0  0  0  0
   -4.6632    1.9801    1.5543 C   0  0  0  0  0  0  0  0  0  0  0  0
   -3.6315    1.3428    0.9028 C   0  0  0  0  0  0  0  0  0  0  0  0
   -3.7759    0.8552   -0.3688 C   0  0  0  0  0  0  0  0  0  0  0  0
   -0.7138   -1.2047   -0.9150 C   0  0  0  0  0  0  0  0  0  0  0  0
   -1.0806   -2.1214   -1.6781 O   0  0  0  0  0  0  0  0  0  0  0  0
    0.6290   -1.1645   -0.2940 C   0  0  1  0  0  0  0  0  0  0  0  0
    1.7350   -1.7327   -1.1519 C   0  0  0  0  0  0  0  0  0  0  0  0
    2.9708   -1.7234   -0.4367 N   0  0  0  0  0  0  0  0  0  0  0  0
    4.2240   -1.1805   -0.8698 C   0  0  0  0  0  0  0  0  0  0  0  0
    4.4637    0.1970   -0.3931 C   0  0  0  0  0  0  0  0  0  0  0  0
    5.0620    0.4699    0.8033 N   0  0  0  0  0  0  0  0  0  0  0  0
    5.1345    1.7806    0.9252 N   0  0  0  0  0  0  0  0  0  0  0  0
    4.6109    2.3514   -0.1363 N   0  0  0  0  0  0  0  0  0  0  0  0
    4.5322    3.7896   -0.3204 C   0  0  0  0  0  0  0  0  0  0  0  0
    4.2046    1.3909   -0.9348 N   0  0  0  0  0  0  0  0  0  0  0  0
    2.9616   -2.3571    0.8657 C   0  0  0  0  0  0  0  0  0  0  0  0
    4.0175   -2.8297    1.3694 O   0  0  0  0  0  0  0  0  0  0  0  0
    1.6667   -2.4228    1.5699 C   0  0  0  0  0  0  0  0  0  0  0  0
    1.6361   -3.0872    2.7763 C   0  0  0  0  0  0  0  0  0  0  0  0
    0.4566   -3.2597    3.4737 C   0  0  0  0  0  0  0  0  0  0  0  0
   -0.6867   -2.7374    2.9072 C   0  0  0  0  0  0  0  0  0  0  0  0
   -1.8612   -2.8891    3.5629 F   0  0  0  0  0  0  0  0  0  0  0  0
   -0.6513   -2.0672    1.6905 C   0  0  0  0  0  0  0  0  0  0  0  0
    0.5155   -1.8860    0.9861 C   0  0  0  0  0  0  0  0  0  0  0  0
  2  1  1  6
  2  3  1  0
  3  4  1  0
  4  5  1  0
  5  6  2  0
  6  7  1  0
  7  8  2  0
  8  9  1  0
  9 10  2  0
 10 11  1  0
 11 12  2  0
 12 13  1  0
 13 14  2  0
  4 15  1  0
 15 16  2  0
 15 17  1  0
 17 18  1  6
 18 19  1  0
 19 20  1  0
 20 21  1  0
 21 22  1  0
 22 23  2  0
 23 24  1  0
 24 25  1  0
 24 26  1  0
 19 27  1  0
 27 28  2  0
 27 29  1  0
 29 30  2  0
 30 31  1  0
 31 32  2  0
 32 33  1  0
 32 34  1  0
 34 35  2  0
 17  2  1  0
 26 21  2  0
 35 29  1  0
 14  5  1  0
 35 17  1  0
 14  9  1  0
M  END
$$$$

     RDKit          3D

 35 40  0  0  0  0  0  0  0  0999 V2000
   -0.2903   -2.9855    1.9256 C   0  0  0  0  0  0  0  0  0  0  0  0
   -0.7833   -2.2848    0.6954 C   0  0  1  0  0  0  0  0  0  0  0  0
   -1.8444   -1.2760    1.1432 C   0  0  0  0  0  0  0  0  0  0  0  0
   -2.0227   -0.5511   -0.1062 N   0  0  0  0  0  0  0  0  0  0  0  0
   -3.2599   -0.1023   -0.6450 C   0  0  0  0  0  0  0  0  0  0  0  0
   -3.9315   -0.9960   -1.4870 C   0  0  0  0  0  0  0  0  0  0  0  0
   -5.0955   -0.6445   -2.0286 N   0  0  0  0  0  0  0  0  0  0  0  0
   -5.6469    0.5649   -1.7818 C   0  0  0  0  0  0  0  0  0  0  0  0
   -5.0103    1.4577   -0.9611 C   0  0  0  0  0  0  0  0  0  0  0  0
   -5.5921    2.6937   -0.7193 C   0  0  0  0  0  0  0  0  0  0  0  0
   -4.9291    3.5839    0.1156 C   0  0  0  0  0  0  0  0  0  0  0  0
   -3.7201    3.2328    0.6848 C   0  0  0  0  0  0  0  0  0  0  0  0
   -3.1257    1.9990    0.4521 C   0  0  0  0  0  0  0  0  0  0  0  0
   -3.8018    1.1356   -0.3782 C   0  0  0  0  0  0  0  0  0  0  0  0
   -0.7118   -0.4082   -0.6389 C   0  0  0  0  0  0  0  0  0  0  0  0
   -0.3883    0.3767   -1.5586 O   0  0  0  0  0  0  0  0  0  0  0  0
    0.2340   -1.3441    0.0698 C   0  0  1  0  0  0  0  0  0  0  0  0
    0.9097   -0.5591    1.1360 C   0  0  0  0  0  0  0  0  0  0  0  0
    2.3465   -0.4466    1.0325 N   0  0  0  0  0  0  0  0  0  0  0  0
    2.9708    0.4933    1.9840 C   0  0  0  0  0  0  0  0  0  0  0  0
    3.0316    1.8540    1.4230 C   0  0  0  0  0  0  0  0  0  0  0  0
    1.9992    2.7364    1.5654 N   0  0  0  0  0  0  0  0  0  0  0  0
    2.3196    3.8973    0.9686 C   0  0  0  0  0  0  0  0  0  0  0  0
    3.5806    3.7602    0.4321 C   0  0  0  0  0  0  0  0  0  0  0  0
    3.9669    2.5027    0.7362 N   0  0  0  0  0  0  0  0  0  0  0  0
    5.2556    1.9741    0.3463 C   0  0  0  0  0  0  0  0  0  0  0  0
    3.1381   -1.1598    0.0993 C   0  0  0  0  0  0  0  0  0  0  0  0
    4.3859   -1.1082    0.0990 O   0  0  0  0  0  0  0  0  0  0  0  0
    2.4815   -1.9768   -0.8872 C   0  0  0  0  0  0  0  0  0  0  0  0
    3.2647   -2.6615   -1.8119 C   0  0  0  0  0  0  0  0  0  0  0  0
    2.6700   -3.4372   -2.7768 C   0  0  0  0  0  0  0  0  0  0  0  0
    1.2953   -3.5025   -2.7848 C   0  0  0  0  0  0  0  0  0  0  0  0
    0.7155   -4.2684   -3.7417 F   0  0  0  0  0  0  0  0  0  0  0  0
    0.5150   -2.8163   -1.8579 C   0  0  0  0  0  0  0  0  0  0  0  0
    1.1120   -2.0337   -0.8833 C   0  0  0  0  0  0  0  0  0  0  0  0
  2  1  1  1
  2  3  1  0
  3  4  1  0
  4  5  1  0
  5  6  2  0
  6  7  1  0
  7  8  2  0
  8  9  1  0
  9 10  2  0
 10 11  1  0
 11 12  2  0
 12 13  1  0
 13 14  2  0
  4 15  1  0
 15 16  2  0
 15 17  1  0
 17 18  1  1
 18 19  1  0
 19 20  1  0
 20 21  1  0
 21 22  2  0
 22 23  1  0
 23 24  2  0
 24 25  1  0
 25 26  1  0
 19 27  1  0
 27 28  2  0
 27 29  1  0
 29 30  2  0
 30 31  1  0
 31 32  2  0
 32 33  1  0
 32 34  1  0
 34 35  2  0
 17  2  1  0
 25 21  1  0
 35 29  1  0
 14  5  1  0
 35 17  1  0
 14  9  1  0
M  END
$$$$

     RDKit          3D

 36 40  0  0  0  0  0  0  0  0999 V2000
    4.6802   -3.5718   -2.7734 C   0  0  0  0  0  0  0  0  0  0  0  0
    4.0867   -2.2280   -2.8103 N   0  0  0  0  0  0  0  0  0  0  0  0
    3.4724   -1.6950   -1.6449 C   0  0  0  0  0  0  0  0  0  0  0  0
    3.4281   -2.3590   -0.5755 O   0  0  0  0  0  0  0  0  0  0  0  0
    2.8710   -0.3563   -1.6502 C   0  0  0  0  0  0  0  0  0  0  0  0
    2.3205   -0.0867   -0.3153 N   0  0  0  0  0  0  0  0  0  0  0  0
    0.9574   -0.4656   -0.0273 C   0  0  0  0  0  0  0  0  0  0  0  0
    0.2269    0.6319    0.6552 C   0  0  2  0  0  0  0  0  0  0  0  0
   -1.0237    0.0935    1.3372 C   0  0  0  0  0  0  0  0  0  0  0  0
   -1.0201   -0.3851    2.5014 O   0  0  0  0  0  0  0  0  0  0  0  0
   -2.1149    0.2381    0.4397 N   0  0  0  0  0  0  0  0  0  0  0  0
   -3.4289   -0.2157    0.7511 C   0  0  0  0  0  0  0  0  0  0  0  0
   -4.3719    0.5682    1.3774 C   0  0  0  0  0  0  0  0  0  0  0  0
   -5.6059    0.0655    1.6422 N   0  0  0  0  0  0  0  0  0  0  0  0
   -5.9081   -1.2003    1.2924 C   0  0  0  0  0  0  0  0  0  0  0  0
   -4.9999   -2.0111    0.6690 C   0  0  0  0  0  0  0  0  0  0  0  0
   -5.3603   -3.3086    0.3288 C   0  0  0  0  0  0  0  0  0  0  0  0
   -4.4775   -4.1441   -0.2943 C   0  0  0  0  0  0  0  0  0  0  0  0
   -3.2115   -3.6657   -0.5795 C   0  0  0  0  0  0  0  0  0  0  0  0
   -2.8555   -2.3598   -0.2347 C   0  0  0  0  0  0  0  0  0  0  0  0
   -3.7475   -1.5186    0.3938 C   0  0  0  0  0  0  0  0  0  0  0  0
   -1.6306    0.8938   -0.7579 C   0  0  0  0  0  0  0  0  0  0  0  0
   -0.4254    1.6423   -0.2454 C   0  0  2  0  0  0  0  0  0  0  0  0
    0.3934    2.1833   -1.2723 N   0  0  0  0  0  0  0  0  0  0  0  0
    0.6003    3.6113   -1.2732 C   0  0  0  0  0  0  0  0  0  0  0  0
    1.4363    4.2830   -2.2977 C   0  0  0  0  0  0  0  0  0  0  0  0
    0.0652    4.3416   -0.3851 O   0  0  0  0  0  0  0  0  0  0  0  0
    1.0665    1.2478    1.6909 C   0  0  0  0  0  0  0  0  0  0  0  0
    0.4124    1.9224    2.7259 C   0  0  0  0  0  0  0  0  0  0  0  0
    1.1388    2.5383    3.7363 C   0  0  0  0  0  0  0  0  0  0  0  0
    0.3217    3.3856    5.0363 Cl  0  0  0  0  0  0  0  0  0  0  0  0
    2.5299    2.5083    3.7576 C   0  0  0  0  0  0  0  0  0  0  0  0
    3.1742    1.8420    2.7357 C   0  0  0  0  0  0  0  0  0  0  0  0
    2.4338    1.2385    1.7446 C   0  0  0  0  0  0  0  0  0  0  0  0
    3.1435    0.5336    0.6855 C   0  0  0  0  0  0  0  0  0  0  0  0
    4.3906    0.4484    0.6132 O   0  0  0  0  0  0  0  0  0  0  0  0
  1  2  1  0
  2  3  1  0
  3  4  2  0
  3  5  1  0
  5  6  1  0
  6  7  1  0
  8  7  1  6
  8  9  1  0
  9 10  2  0
  9 11  1  0
 11 12  1  0
 12 13  2  0
 13 14  1  0
 14 15  2  0
 15 16  1  0
 16 17  2  0
 17 18  1  0
 18 19  2  0
 19 20  1  0
 20 21  2  0
 11 22  1  0
 22 23  1  0
 23 24  1  6
 24 25  1  0
 25 26  1  0
 25 27  2  0
  8 28  1  0
 28 29  2  0
 29 30  1  0
 30 31  1  0
 30 32  2  0
 32 33  1  0
 33 34  2  0
 34 35  1  0
 35 36  2  0
 35  6  1  0
 23  8  1  0
 34 28  1  0
 21 12  1  0
 21 16  1  0
M  END
$$$$

     RDKit          3D

 32 37  0  0  0  0  0  0  0  0999 V2000
   -0.5611    0.3694   -2.5548 C   0  0  0  0  0  0  0  0  0  0  0  0
   -0.0427   -0.5896   -1.5060 C   0  0  1  0  0  0  0  0  0  0  0  0
    1.4556   -0.5927   -1.4485 C   0  0  0  0  0  0  0  0  0  0  0  0
    1.7952   -0.0267   -0.1572 N   0  0  0  0  0  0  0  0  0  0  0  0
    3.0529    0.5796    0.1121 C   0  0  0  0  0  0  0  0  0  0  0  0
    3.2103    1.9380   -0.1125 C   0  0  0  0  0  0  0  0  0  0  0  0
    4.3869    2.5566    0.1290 N   0  0  0  0  0  0  0  0  0  0  0  0
    5.4388    1.8664    0.5953 C   0  0  0  0  0  0  0  0  0  0  0  0
    5.3316    0.4943    0.8383 C   0  0  0  0  0  0  0  0  0  0  0  0
    6.4283   -0.2053    1.3204 C   0  0  0  0  0  0  0  0  0  0  0  0
    6.3051   -1.5558    1.5540 C   0  0  0  0  0  0  0  0  0  0  0  0
    5.1046   -2.1923    1.3087 C   0  0  0  0  0  0  0  0  0  0  0  0
    4.0097   -1.4903    0.8267 C   0  0  0  0  0  0  0  0  0  0  0  0
    4.1174   -0.1334    0.5869 C   0  0  0  0  0  0  0  0  0  0  0  0
    0.6724   -0.2070    0.6970 C   0  0  0  0  0  0  0  0  0  0  0  0
    0.7729   -0.3010    1.9544 O   0  0  0  0  0  0  0  0  0  0  0  0
   -0.5691   -0.2599   -0.1327 C   0  0  1  0  0  0  0  0  0  0  0  0
   -1.2137    1.0640   -0.0329 C   0  0  0  0  0  0  0  0  0  0  0  0
   -2.6481    1.0918   -0.0633 N   0  0  0  0  0  0  0  0  0  0  0  0
   -3.3348    2.2828   -0.5605 C   0  0  0  0  0  0  0  0  0  0  0  0
   -4.4584    2.7980    0.2821 C   0  0  0  0  0  0  0  0  0  0  0  0
   -5.4028    2.5775   -0.7675 N   0  0  0  0  0  0  0  0  0  0  0  0
   -4.3632    2.0610   -1.6149 C   0  0  0  0  0  0  0  0  0  0  0  0
   -3.3461   -0.0552    0.4009 C   0  0  0  0  0  0  0  0  0  0  0  0
   -4.5690    0.0000    0.6427 O   0  0  0  0  0  0  0  0  0  0  0  0
   -2.6885   -1.3484    0.6201 C   0  0  0  0  0  0  0  0  0  0  0  0
   -3.4069   -2.4477    1.0780 C   0  0  0  0  0  0  0  0  0  0  0  0
   -2.7319   -3.6554    1.2723 C   0  0  0  0  0  0  0  0  0  0  0  0
   -1.3773   -3.7045    1.0004 C   0  0  0  0  0  0  0  0  0  0  0  0
   -0.5739   -5.2545    1.2630 Cl  0  0  0  0  0  0  0  0  0  0  0  0
   -0.6775   -2.6030    0.5458 C   0  0  0  0  0  0  0  0  0  0  0  0
   -1.3442   -1.4098    0.3537 C   0  0  0  0  0  0  0  0  0  0  0  0
  2  1  1  6
  2  3  1  0
  3  4  1  0
  4  5  1  0
  5  6  2  0
  6  7  1  0
  7  8  2  0
  8  9  1  0
  9 10  2  0
 10 11  1  0
 11 12  2  0
 12 13  1  0
 13 14  2  0
  4 15  1  0
 15 16  2  0
 15 17  1  0
 17 18  1  6
 18 19  1  0
 19 20  1  0
 20 21  1  0
 21 22  1  0
 22 23  1  0
 19 24  1  0
 24 25  2  0
 24 26  1  0
 26 27  2  0
 27 28  1  0
 28 29  2  0
 29 30  1  0
 29 31  1  0
 31 32  2  0
 17  2  1  0
 23 20  1  0
 32 26  1  0
 14  5  1  0
 32 17  1  0
 14  9  1  0
M  CHG  1  22   1
M  END
$$$$

     RDKit          3D

 34 39  0  0  0  0  0  0  0  0999 V2000
    0.4481    1.6966   -1.6759 C   0  0  0  0  0  0  0  0  0  0  0  0
    0.7878    0.7762   -0.5319 C   0  0  1  0  0  0  0  0  0  0  0  0
   -0.4780    0.6895    0.3735 C   0  0  0  0  0  0  0  0  0  0  0  0
   -1.4220   -0.0580   -0.4114 N   0  0  0  0  0  0  0  0  0  0  0  0
   -2.8297   -0.0826   -0.4977 C   0  0  0  0  0  0  0  0  0  0  0  0
   -3.4564   -0.4906   -1.6850 C   0  0  0  0  0  0  0  0  0  0  0  0
   -4.7998   -0.5503   -1.7972 N   0  0  0  0  0  0  0  0  0  0  0  0
   -5.6593   -0.2358   -0.8171 C   0  0  0  0  0  0  0  0  0  0  0  0
   -5.0803    0.1758    0.3842 C   0  0  0  0  0  0  0  0  0  0  0  0
   -5.9487    0.4883    1.3949 C   0  0  0  0  0  0  0  0  0  0  0  0
   -5.4804    0.8943    2.6269 C   0  0  0  0  0  0  0  0  0  0  0  0
   -4.1103    0.9633    2.7722 C   0  0  0  0  0  0  0  0  0  0  0  0
   -3.2382    0.6490    1.7551 C   0  0  0  0  0  0  0  0  0  0  0  0
   -3.6922    0.2450    0.5245 C   0  0  0  0  0  0  0  0  0  0  0  0
   -0.5992   -0.8658   -1.2883 C   0  0  0  0  0  0  0  0  0  0  0  0
   -0.9319   -1.6391   -2.2114 O   0  0  0  0  0  0  0  0  0  0  0  0
    0.8435   -0.6568   -0.9346 C   0  0  1  0  0  0  0  0  0  0  0  0
    1.7993   -0.8425   -2.0552 C   0  0  0  0  0  0  0  0  0  0  0  0
    3.1421   -0.6455   -1.5862 N   0  0  0  0  0  0  0  0  0  0  0  0
    4.1368    0.2269   -2.1121 C   0  0  0  0  0  0  0  0  0  0  0  0
    4.2182    1.5139   -1.4263 C   0  0  0  0  0  0  0  0  0  0  0  0
    3.6616    2.7453   -1.6856 C   0  0  0  0  0  0  0  0  0  0  0  0
    4.0859    3.5968   -0.6766 C   0  0  0  0  0  0  0  0  0  0  0  0
    4.8475    2.9160    0.1326 O   0  0  0  0  0  0  0  0  0  0  0  0
    4.9359    1.7019   -0.2881 N   0  0  0  0  0  0  0  0  0  0  0  0
    3.5408   -1.4690   -0.4601 C   0  0  0  0  0  0  0  0  0  0  0  0
    4.7614   -1.7540   -0.2745 O   0  0  0  0  0  0  0  0  0  0  0  0
    2.5084   -1.9556    0.4447 C   0  0  0  0  0  0  0  0  0  0  0  0
    2.8662   -2.7949    1.4740 C   0  0  0  0  0  0  0  0  0  0  0  0
    1.8966   -3.3260    2.2973 C   0  0  0  0  0  0  0  0  0  0  0  0
    0.5834   -2.9878    2.0499 C   0  0  0  0  0  0  0  0  0  0  0  0
   -0.3714   -3.5143    2.8630 F   0  0  0  0  0  0  0  0  0  0  0  0
    0.2419   -2.1441    1.0140 C   0  0  0  0  0  0  0  0  0  0  0  0
    1.2093   -1.5895    0.1640 C   0  0  0  0  0  0  0  0  0  0  0  0
  2  1  1  6
  2  3  1  0
  3  4  1  0
  4  5  1  0
  5  6  2  0
  6  7  1  0
  7  8  2  0
  8  9  1  0
  9 10  2  0
 10 11  1  0
 11 12  2  0
 12 13  1  0
 13 14  2  0
  4 15  1  0
 15 16  2  0
 15 17  1  0
 17 18  1  6
 18 19  1  0
 19 20  1  0
 20 21  1  0
 21 22  1  0
 22 23  2  0
 23 24  1  0
 24 25  1  0
 19 26  1  0
 26 27  2  0
 26 28  1  0
 28 29  2  0
 29 30  1  0
 30 31  2  0
 31 32  1  0
 31 33  1  0
 33 34  2  0
 17  2  1  0
 25 21  2  0
 34 28  1  0
 14  5  1  0
 34 17  1  0
 14  9  1  0
M  END
$$$$

     RDKit          3D

 41 46  0  0  0  0  0  0  0  0999 V2000
    9.8592   -0.4071   -0.5997 C   0  0  0  0  0  0  0  0  0  0  0  0
    8.9316    0.4691    0.0425 O   0  0  0  0  0  0  0  0  0  0  0  0
    7.7417    0.7377   -0.5886 C   0  0  0  0  0  0  0  0  0  0  0  0
    7.4863    0.1580   -1.8096 C   0  0  0  0  0  0  0  0  0  0  0  0
    6.2837    0.4393   -2.4309 C   0  0  0  0  0  0  0  0  0  0  0  0
    5.3743    1.2860   -1.8208 C   0  0  0  0  0  0  0  0  0  0  0  0
    5.6006    1.8782   -0.6044 C   0  0  0  0  0  0  0  0  0  0  0  0
    4.6355    2.7812    0.0725 C   0  0  0  0  0  0  0  0  0  0  0  0
    3.8110    1.9838    0.9430 N   0  0  0  0  0  0  0  0  0  0  0  0
    2.7484    1.1608    0.5326 C   0  0  0  0  0  0  0  0  0  0  0  0
    2.3827    1.0208   -0.6559 O   0  0  0  0  0  0  0  0  0  0  0  0
    1.9613    0.3694    1.5482 C   0  0  0  0  0  0  0  0  0  0  0  0
    0.9499   -0.3659    0.7752 N   0  0  0  0  0  0  0  0  0  0  0  0
   -0.3580    0.1958    0.5038 C   0  0  0  0  0  0  0  0  0  0  0  0
   -1.4820   -0.7873    0.5724 C   0  0  2  0  0  0  0  0  0  0  0  0
   -2.6027   -0.2352   -0.2509 C   0  0  0  0  0  0  0  0  0  0  0  0
   -2.6069    0.0109   -1.4970 O   0  0  0  0  0  0  0  0  0  0  0  0
   -3.7423    0.0012    0.5667 N   0  0  0  0  0  0  0  0  0  0  0  0
   -4.8534    0.8412    0.3012 C   0  0  0  0  0  0  0  0  0  0  0  0
   -4.7873    2.1540    0.7114 C   0  0  0  0  0  0  0  0  0  0  0  0
   -5.8240    3.0129    0.4868 N   0  0  0  0  0  0  0  0  0  0  0  0
   -6.9553    2.6036   -0.1482 C   0  0  0  0  0  0  0  0  0  0  0  0
   -7.0613    1.2805   -0.5797 C   0  0  0  0  0  0  0  0  0  0  0  0
   -8.1988    0.8216   -1.2319 C   0  0  0  0  0  0  0  0  0  0  0  0
   -8.2676   -0.5051   -1.6475 C   0  0  0  0  0  0  0  0  0  0  0  0
   -7.2076   -1.3615   -1.4117 C   0  0  0  0  0  0  0  0  0  0  0  0
   -6.0686   -0.9035   -0.7589 C   0  0  0  0  0  0  0  0  0  0  0  0
   -5.9966    0.4205   -0.3426 C   0  0  0  0  0  0  0  0  0  0  0  0
   -3.6052   -0.7762    1.7742 C   0  0  0  0  0  0  0  0  0  0  0  0
   -2.1103   -0.8764    1.9385 C   0  0  2  0  0  0  0  0  0  0  0  0
   -1.7182    0.3039    2.8297 C   0  0  0  0  0  0  0  0  0  0  0  0
   -1.1268   -2.1266    0.0408 C   0  0  0  0  0  0  0  0  0  0  0  0
   -2.1332   -3.0015   -0.3316 C   0  0  0  0  0  0  0  0  0  0  0  0
   -1.8352   -4.2622   -0.8292 C   0  0  0  0  0  0  0  0  0  0  0  0
   -3.0836   -5.3961   -1.3109 Cl  0  0  0  0  0  0  0  0  0  0  0  0
   -0.5199   -4.6972   -0.9738 C   0  0  0  0  0  0  0  0  0  0  0  0
    0.4764   -3.8209   -0.6012 C   0  0  0  0  0  0  0  0  0  0  0  0
    0.1689   -2.5705   -0.1080 C   0  0  0  0  0  0  0  0  0  0  0  0
    1.2518   -1.6675    0.2693 C   0  0  0  0  0  0  0  0  0  0  0  0
    2.4700   -1.9721    0.1743 O   0  0  0  0  0  0  0  0  0  0  0  0
    6.8223    1.5797    0.0044 C   0  0  0  0  0  0  0  0  0  0  0  0
  1  2  1  0
  2  3  1  0
  3  4  2  0
  4  5  1  0
  5  6  2  0
  6  7  1  0
  7  8  1  0
  8  9  1  0
  9 10  1  0
 10 11  2  0
 10 12  1  0
 12 13  1  0
 13 14  1  0
 15 14  1  1
 15 16  1  0
 16 17  2  0
 16 18  1  0
 18 19  1  0
 19 20  2  0
 20 21  1  0
 21 22  2  0
 22 23  1  0
 23 24  2  0
 24 25  1  0
 25 26  2  0
 26 27  1  0
 27 28  2  0
 18 29  1  0
 29 30  1  0
 30 31  1  1
 15 32  1  0
 32 33  2  0
 33 34  1  0
 34 35  1  0
 34 36  2  0
 36 37  1  0
 37 38  2  0
 38 39  1  0
 39 40  2  0
  7 41  2  0
 41  3  1  0
 39 13  1  0
 30 15  1  0
 38 32  1  0
 28 19  1  0
 28 23  1  0
M  END
$$$$

     RDKit          3D

 33 37  0  0  0  0  0  0  0  0999 V2000
    0.4197   -2.4695   -1.8119 C   0  0  0  0  0  0  0  0  0  0  0  0
    0.9130   -2.4522   -0.3642 C   0  0  1  0  0  0  0  0  0  0  0  0
    2.2599   -1.8192   -0.3753 C   0  0  0  0  0  0  0  0  0  0  0  0
    1.9486   -0.3953   -0.3518 N   0  0  0  0  0  0  0  0  0  0  0  0
    2.5895    0.6849   -0.9930 C   0  0  0  0  0  0  0  0  0  0  0  0
    2.2559    1.1432   -2.2505 C   0  0  0  0  0  0  0  0  0  0  0  0
    2.9027    2.1915   -2.8323 N   0  0  0  0  0  0  0  0  0  0  0  0
    3.9017    2.8180   -2.1831 C   0  0  0  0  0  0  0  0  0  0  0  0
    4.2936    2.4097   -0.9087 C   0  0  0  0  0  0  0  0  0  0  0  0
    5.3306    3.0723   -0.2541 C   0  0  0  0  0  0  0  0  0  0  0  0
    5.7147    2.6538    1.0234 C   0  0  0  0  0  0  0  0  0  0  0  0
    5.0506    1.5991    1.5869 C   0  0  0  0  0  0  0  0  0  0  0  0
    4.0115    0.9352    0.9308 C   0  0  0  0  0  0  0  0  0  0  0  0
    3.6266    1.3466   -0.3368 C   0  0  0  0  0  0  0  0  0  0  0  0
    0.8156   -0.2788    0.4844 C   0  0  0  0  0  0  0  0  0  0  0  0
    0.4975    0.7626    1.1538 O   0  0  0  0  0  0  0  0  0  0  0  0
    0.0533   -1.5670    0.4583 C   0  0  1  0  0  0  0  0  0  0  0  0
   -1.2629   -1.3882   -0.2591 C   0  0  0  0  0  0  0  0  0  0  0  0
   -2.1770   -0.5365    0.4840 N   0  0  0  0  0  0  0  0  0  0  0  0
   -2.7788    0.6555   -0.0503 C   0  0  0  0  0  0  0  0  0  0  0  0
   -4.0976    0.3873   -0.7325 C   0  0  0  0  0  0  0  0  0  0  0  0
   -4.6888    1.5751   -1.2597 N   0  0  0  0  0  0  0  0  0  0  0  0
   -4.2635    2.7875   -0.5771 C   0  0  0  0  0  0  0  0  0  0  0  0
   -4.4387    1.8114   -2.6640 C   0  0  0  0  0  0  0  0  0  0  0  0
   -2.4672   -0.9503    1.8211 C   0  0  0  0  0  0  0  0  0  0  0  0
   -3.5536   -0.6489    2.3726 O   0  0  0  0  0  0  0  0  0  0  0  0
   -1.4218   -1.7362    2.4859 C   0  0  0  0  0  0  0  0  0  0  0  0
   -1.6930   -2.1602    3.7674 C   0  0  0  0  0  0  0  0  0  0  0  0
   -0.7857   -2.9197    4.4736 C   0  0  0  0  0  0  0  0  0  0  0  0
    0.3985   -3.2410    3.8590 C   0  0  0  0  0  0  0  0  0  0  0  0
    1.5793   -4.2128    4.7388 Cl  0  0  0  0  0  0  0  0  0  0  0  0
    0.6644   -2.8094    2.5669 C   0  0  0  0  0  0  0  0  0  0  0  0
   -0.2224   -2.0485    1.8351 C   0  0  0  0  0  0  0  0  0  0  0  0
  2  1  1  6
  2  3  1  0
  3  4  1  0
  4  5  1  0
  5  6  2  0
  6  7  1  0
  7  8  2  0
  8  9  1  0
  9 10  2  0
 10 11  1  0
 11 12  2  0
 12 13  1  0
 13 14  2  0
  4 15  1  0
 15 16  2  0
 15 17  1  0
 17 18  1  6
 18 19  1  0
 19 20  1  0
 20 21  1  0
 21 22  1  0
 22 23  1  0
 22 24  1  0
 19 25  1  0
 25 26  2  0
 25 27  1  0
 27 28  2  0
 28 29  1  0
 29 30  2  0
 30 31  1  0
 30 32  1  0
 32 33  2  0
 17  2  1  0
 33 27  1  0
 14  5  1  0
 33 17  1  0
 14  9  1  0
M  CHG  1  22   1
M  END
$$$$

     RDKit          3D

 33 36  0  0  0  0  0  0  0  0999 V2000
   -3.4083   -3.4562   -1.2629 C   0  0  0  0  0  0  0  0  0  0  0  0
   -3.8963   -2.1981   -0.5907 C   0  0  0  0  0  0  0  0  0  0  0  0
   -4.6412   -2.5685    0.6591 C   0  0  0  0  0  0  0  0  0  0  0  0
   -4.8408   -1.4656   -1.4723 C   0  0  0  0  0  0  0  0  0  0  0  0
   -5.5921   -0.8799   -2.1538 N   0  0  0  0  0  0  0  0  0  0  0  0
   -2.7886   -1.2360   -0.3154 C   0  0  0  0  0  0  0  0  0  0  0  0
   -2.5081   -0.1905   -1.1656 C   0  0  0  0  0  0  0  0  0  0  0  0
   -1.4820    0.7140   -0.9008 C   0  0  0  0  0  0  0  0  0  0  0  0
   -0.7699    0.4931    0.2572 C   0  0  0  0  0  0  0  0  0  0  0  0
    0.2980    1.3377    0.6906 N   0  0  0  0  0  0  0  0  0  0  0  0
   -0.1240    2.4277    1.5938 C   0  0  0  0  0  0  0  0  0  0  0  0
   -0.6596    3.5654    0.7731 C   0  0  0  0  0  0  0  0  0  0  0  0
   -2.0343    3.5154    0.4818 C   0  0  0  0  0  0  0  0  0  0  0  0
   -2.6305    4.4842   -0.2590 C   0  0  0  0  0  0  0  0  0  0  0  0
   -1.8619    5.5258   -0.7253 C   0  0  0  0  0  0  0  0  0  0  0  0
   -0.4917    5.5806   -0.4387 C   0  0  0  0  0  0  0  0  0  0  0  0
    0.4526    6.9236   -1.0477 Cl  0  0  0  0  0  0  0  0  0  0  0  0
    0.1187    4.5988    0.3134 C   0  0  0  0  0  0  0  0  0  0  0  0
    1.6445    1.1750    0.2668 C   0  0  0  0  0  0  0  0  0  0  0  0
    2.4965    1.8825    0.8690 O   0  0  0  0  0  0  0  0  0  0  0  0
    1.9459    0.2216   -0.8091 C   0  0  0  0  0  0  0  0  0  0  0  0
    2.5546   -1.0544   -0.4213 C   0  0  0  0  0  0  0  0  0  0  0  0
    1.6865   -2.1626   -0.3585 C   0  0  0  0  0  0  0  0  0  0  0  0
    2.1198   -3.3788    0.0027 N   0  0  0  0  0  0  0  0  0  0  0  0
    3.3979   -3.6339    0.3281 C   0  0  0  0  0  0  0  0  0  0  0  0
    4.2770   -2.5484    0.2708 C   0  0  0  0  0  0  0  0  0  0  0  0
    5.5870   -2.8399    0.5934 C   0  0  0  0  0  0  0  0  0  0  0  0
    6.5004   -1.8003    0.5363 C   0  0  0  0  0  0  0  0  0  0  0  0
    6.0621   -0.5265    0.1601 C   0  0  0  0  0  0  0  0  0  0  0  0
    4.7532   -0.2656   -0.1557 C   0  0  0  0  0  0  0  0  0  0  0  0
    3.8576   -1.2873   -0.0976 C   0  0  0  0  0  0  0  0  0  0  0  0
   -1.0549   -0.5705    1.1190 C   0  0  0  0  0  0  0  0  0  0  0  0
   -2.0673   -1.4611    0.8584 C   0  0  0  0  0  0  0  0  0  0  0  0
  1  2  1  0
  2  3  1  0
  2  4  1  0
  4  5  3  0
  2  6  1  0
  6  7  2  0
  7  8  1  0
  8  9  2  0
  9 10  1  0
 10 11  1  0
 11 12  1  0
 12 13  2  0
 13 14  1  0
 14 15  2  0
 15 16  1  0
 16 17  1  0
 16 18  2  0
 10 19  1  0
 19 20  2  0
 19 21  1  0
 21 22  1  0
 22 23  2  0
 23 24  1  0
 24 25  2  0
 25 26  1  0
 26 27  2  0
 27 28  1  0
 28 29  2  0
 29 30  1  0
 30 31  2  0
  9 32  1  0
 32 33  2  0
 33  6  1  0
 18 12  1  0
 31 22  1  0
 31 26  1  0
M  END
$$$$

     RDKit          3D

 34 35  0  0  0  0  0  0  0  0999 V2000
   -2.5234    3.7154   -1.1325 C   0  0  0  0  0  0  0  0  0  0  0  0
   -2.9167    2.4086   -0.7512 O   0  0  0  0  0  0  0  0  0  0  0  0
   -2.4173    1.8343    0.4250 C   0  0  0  0  0  0  0  0  0  0  0  0
   -1.6115    2.4525    1.1749 O   0  0  0  0  0  0  0  0  0  0  0  0
   -2.8714    0.5102    0.7272 N   0  0  0  0  0  0  0  0  0  0  0  0
   -2.3705   -0.0947    1.9279 C   0  0  2  0  0  0  0  0  0  0  0  0
   -1.4419   -1.1760    1.5577 C   0  0  0  0  0  0  0  0  0  0  0  0
   -0.7949   -1.7123    2.5295 O   0  0  0  0  0  0  0  0  0  0  0  0
   -1.1749   -1.6942    0.2680 N   0  0  0  0  0  0  0  0  0  0  0  0
   -1.7270   -1.3621   -1.0306 C   0  0  0  0  0  0  0  0  0  0  0  0
   -0.9160   -2.2182   -2.0210 C   0  0  2  0  0  0  0  0  0  0  0  0
   -1.6794   -2.5331   -3.2621 C   0  0  0  0  0  0  0  0  0  0  0  0
   -1.9960   -1.3133   -3.8542 F   0  0  0  0  0  0  0  0  0  0  0  0
   -0.8077   -3.1641   -4.1303 F   0  0  0  0  0  0  0  0  0  0  0  0
   -2.7811   -3.3187   -3.0879 F   0  0  0  0  0  0  0  0  0  0  0  0
   -0.6655   -3.4429   -1.1384 C   0  0  0  0  0  0  0  0  0  0  0  0
   -0.1516   -2.7560    0.0908 C   0  0  1  0  0  0  0  0  0  0  0  0
    1.1742   -2.1591   -0.1547 C   0  0  0  0  0  0  0  0  0  0  0  0
    2.1254   -2.9619   -0.3999 O   0  0  0  0  0  0  0  0  0  0  0  0
    1.3678   -0.7495   -0.1150 N   0  0  0  0  0  0  0  0  0  0  0  0
    2.7360   -0.1841   -0.3699 C   0  0  2  0  0  0  0  0  0  0  0  0
    3.2619    0.3637    0.9313 C   0  0  0  0  0  0  0  0  0  0  0  0
    3.3068   -0.7250    1.9390 N   0  0  0  0  0  0  0  0  0  0  0  0
    2.6670    0.7953   -1.4691 C   0  0  0  0  0  0  0  0  0  0  0  0
    3.8945    1.4848   -1.9110 C   0  0  2  0  0  0  0  0  0  0  0  0
    4.6277    2.3514   -0.9731 C   0  0  0  0  0  0  0  0  0  0  0  0
    5.0755    3.5903   -1.7544 C   0  0  0  0  0  0  0  0  0  0  0  0
    4.7131    3.2803   -3.1100 N   0  0  0  0  0  0  0  0  0  0  0  0
    3.6174    2.3831   -3.0716 C   0  0  0  0  0  0  0  0  0  0  0  0
    2.6166    2.3550   -3.8604 O   0  0  0  0  0  0  0  0  0  0  0  0
   -3.3986   -0.5956    2.8640 C   0  0  0  0  0  0  0  0  0  0  0  0
   -2.6753   -1.1463    4.0637 C   0  0  0  0  0  0  0  0  0  0  0  0
   -4.3100    0.5111    3.3892 C   0  0  0  0  0  0  0  0  0  0  0  0
   -4.2192   -1.7507    2.3128 C   0  0  0  0  0  0  0  0  0  0  0  0
  1  2  1  0
  2  3  1  0
  3  4  2  0
  3  5  1  0
  6  5  1  6
  6  7  1  0
  7  8  2  0
  7  9  1  0
  9 10  1  0
 10 11  1  0
 11 12  1  6
 12 13  1  0
 12 14  1  0
 12 15  1  0
 11 16  1  0
 16 17  1  0
 17 18  1  6
 18 19  2  0
 18 20  1  0
 20 21  1  0
 21 22  1  1
 22 23  1  0
 21 24  1  0
 25 24  1  1
 25 26  1  0
 26 27  1  0
 27 28  1  0
 28 29  1  0
 29 30  2  0
  6 31  1  0
 31 32  1  0
 31 33  1  0
 31 34  1  0
 17  9  1  0
 29 25  1  0
M  CHG  1  23   1
M  END
$$$$

     RDKit          3D

 20 22  0  0  0  0  0  0  0  0999 V2000
   -4.9613   -0.3641    0.9257 C   0  0  0  0  0  0  0  0  0  0  0  0
   -3.9051   -0.1767   -0.1394 C   0  0  0  0  0  0  0  0  0  0  0  0
   -2.5865   -0.6559    0.4266 C   0  0  0  0  0  0  0  0  0  0  0  0
   -1.7786    0.6000    0.8045 C   0  0  0  0  0  0  0  0  0  0  0  0
   -1.4486    1.1968   -0.4759 N   0  0  0  0  0  0  0  0  0  0  0  0
   -0.1237    1.3945   -0.9450 C   0  0  0  0  0  0  0  0  0  0  0  0
    0.1466    1.8469   -2.0908 O   0  0  0  0  0  0  0  0  0  0  0  0
    1.0348    1.0693   -0.0781 C   0  0  0  0  0  0  0  0  0  0  0  0
    1.7560   -0.1505   -0.4897 C   0  0  0  0  0  0  0  0  0  0  0  0
    1.1332   -1.1588   -1.2174 C   0  0  0  0  0  0  0  0  0  0  0  0
    1.7659   -2.2793   -1.5970 N   0  0  0  0  0  0  0  0  0  0  0  0
    3.0628   -2.5111   -1.2978 C   0  0  0  0  0  0  0  0  0  0  0  0
    3.7209   -1.5195   -0.5681 C   0  0  0  0  0  0  0  0  0  0  0  0
    5.0587   -1.7375   -0.2492 C   0  0  0  0  0  0  0  0  0  0  0  0
    5.7730   -0.7892    0.4751 C   0  0  0  0  0  0  0  0  0  0  0  0
    5.1396    0.3967    0.8882 C   0  0  0  0  0  0  0  0  0  0  0  0
    3.8132    0.5863    0.5597 C   0  0  0  0  0  0  0  0  0  0  0  0
    3.0915   -0.3604   -0.1674 C   0  0  0  0  0  0  0  0  0  0  0  0
   -2.6069    1.6286   -1.2759 C   0  0  0  0  0  0  0  0  0  0  0  0
   -3.8843    1.2922   -0.5320 C   0  0  0  0  0  0  0  0  0  0  0  0
  1  2  1  0
  2  3  1  0
  3  4  1  0
  4  5  1  0
  5  6  1  0
  6  7  2  0
  6  8  1  0
  8  9  1  0
  9 10  2  0
 10 11  1  0
 11 12  2  0
 12 13  1  0
 13 14  2  0
 14 15  1  0
 15 16  2  0
 16 17  1  0
 17 18  2  0
  5 19  1  0
 19 20  1  0
 20  2  1  0
 18  9  1  0
 18 13  1  0
M  END
$$$$

     RDKit          3D

 35 40  0  0  0  0  0  0  0  0999 V2000
    0.4960   -2.8579   -1.9018 C   0  0  0  0  0  0  0  0  0  0  0  0
    0.9518   -2.0127   -0.7426 C   0  0  1  0  0  0  0  0  0  0  0  0
    1.6537   -0.7680   -1.3012 C   0  0  0  0  0  0  0  0  0  0  0  0
    1.5644    0.2025   -0.2268 N   0  0  0  0  0  0  0  0  0  0  0  0
    2.3086    1.3879   -0.1752 C   0  0  0  0  0  0  0  0  0  0  0  0
    1.9081    2.5978   -0.7051 C   0  0  0  0  0  0  0  0  0  0  0  0
    2.7058    3.6867   -0.5998 N   0  0  0  0  0  0  0  0  0  0  0  0
    3.9008    3.6350    0.0151 C   0  0  0  0  0  0  0  0  0  0  0  0
    4.3596    2.4543    0.5665 C   0  0  0  0  0  0  0  0  0  0  0  0
    5.5785    2.3465    1.2086 C   0  0  0  0  0  0  0  0  0  0  0  0
    5.9941    1.1433    1.7445 C   0  0  0  0  0  0  0  0  0  0  0  0
    5.1930    0.0147    1.6482 C   0  0  0  0  0  0  0  0  0  0  0  0
    3.9926    0.1596    1.0052 C   0  0  0  0  0  0  0  0  0  0  0  0
    3.5457    1.3441    0.4587 C   0  0  0  0  0  0  0  0  0  0  0  0
    0.5982   -0.2854    0.7279 C   0  0  0  0  0  0  0  0  0  0  0  0
    0.4444    0.1748    1.8664 O   0  0  0  0  0  0  0  0  0  0  0  0
   -0.1453   -1.4226    0.0658 C   0  0  1  0  0  0  0  0  0  0  0  0
   -1.2174   -0.7608   -0.7451 C   0  0  0  0  0  0  0  0  0  0  0  0
   -2.0159    0.0491    0.1958 N   0  0  0  0  0  0  0  0  0  0  0  0
   -2.1200    1.4590    0.0220 C   0  0  0  0  0  0  0  0  0  0  0  0
   -3.2538    1.7929   -0.8493 C   0  0  0  0  0  0  0  0  0  0  0  0
   -3.1634    1.7795   -2.2461 C   0  0  0  0  0  0  0  0  0  0  0  0
   -4.3543    2.1485   -2.7917 C   0  0  0  0  0  0  0  0  0  0  0  0
   -5.1748    2.3885   -1.7298 N   0  0  0  0  0  0  0  0  0  0  0  0
   -4.5099    2.1745   -0.5993 N   0  0  0  0  0  0  0  0  0  0  0  0
   -5.1158    2.3632    0.7002 C   0  0  0  0  0  0  0  0  0  0  0  0
   -2.6434   -0.6961    1.2373 C   0  0  0  0  0  0  0  0  0  0  0  0
   -3.7253   -0.3076    1.7020 O   0  0  0  0  0  0  0  0  0  0  0  0
   -1.9344   -1.8970    1.6869 C   0  0  0  0  0  0  0  0  0  0  0  0
   -2.5231   -2.6372    2.6795 C   0  0  0  0  0  0  0  0  0  0  0  0
   -1.9468   -3.7925    3.1707 C   0  0  0  0  0  0  0  0  0  0  0  0
   -0.7407   -4.1651    2.6072 C   0  0  0  0  0  0  0  0  0  0  0  0
   -0.1127   -5.3025    3.0476 F   0  0  0  0  0  0  0  0  0  0  0  0
   -0.1502   -3.4187    1.6088 C   0  0  0  0  0  0  0  0  0  0  0  0
   -0.7294   -2.2515    1.1107 C   0  0  0  0  0  0  0  0  0  0  0  0
  2  1  1  6
  2  3  1  0
  3  4  1  0
  4  5  1  0
  5  6  2  0
  6  7  1  0
  7  8  2  0
  8  9  1  0
  9 10  2  0
 10 11  1  0
 11 12  2  0
 12 13  1  0
 13 14  2  0
  4 15  1  0
 15 16  2  0
 15 17  1  0
 17 18  1  6
 18 19  1  0
 19 20  1  0
 20 21  1  0
 21 22  2  0
 22 23  1  0
 23 24  2  0
 24 25  1  0
 25 26  1  0
 19 27  1  0
 27 28  2  0
 27 29  1  0
 29 30  2  0
 30 31  1  0
 31 32  2  0
 32 33  1  0
 32 34  1  0
 34 35  2  0
 17  2  1  0
 25 21  1  0
 35 29  1  0
 14  5  1  0
 35 17  1  0
 14  9  1  0
M  END
$$$$

     RDKit          3D

 35 40  0  0  0  0  0  0  0  0999 V2000
    5.7112    2.7389    2.9754 C   0  0  0  0  0  0  0  0  0  0  0  0
    4.2976    2.3201    2.7556 C   0  0  0  0  0  0  0  0  0  0  0  0
    3.7983    2.1340    1.5049 N   0  0  0  0  0  0  0  0  0  0  0  0
    2.5040    1.7622    1.6611 C   0  0  0  0  0  0  0  0  0  0  0  0
    1.6095    1.4638    0.4960 C   0  0  0  0  0  0  0  0  0  0  0  0
    1.7022    0.0591    0.1626 N   0  0  0  0  0  0  0  0  0  0  0  0
    0.8414   -0.9482    0.7485 C   0  0  0  0  0  0  0  0  0  0  0  0
    0.1291   -1.6573   -0.3730 C   0  0  2  0  0  0  0  0  0  0  0  0
   -0.6647   -0.5798   -1.0712 C   0  0  0  0  0  0  0  0  0  0  0  0
   -0.2175    0.2005   -1.9654 O   0  0  0  0  0  0  0  0  0  0  0  0
   -1.9963   -0.5701   -0.5739 N   0  0  0  0  0  0  0  0  0  0  0  0
   -3.1086    0.2233   -0.9653 C   0  0  0  0  0  0  0  0  0  0  0  0
   -3.9336   -0.2535   -1.9777 C   0  0  0  0  0  0  0  0  0  0  0  0
   -5.0059    0.4240   -2.4139 N   0  0  0  0  0  0  0  0  0  0  0  0
   -5.3333    1.6237   -1.8740 C   0  0  0  0  0  0  0  0  0  0  0  0
   -4.5296    2.1291   -0.8598 C   0  0  0  0  0  0  0  0  0  0  0  0
   -4.8435    3.3506   -0.2930 C   0  0  0  0  0  0  0  0  0  0  0  0
   -4.0659    3.8871    0.7212 C   0  0  0  0  0  0  0  0  0  0  0  0
   -2.9599    3.1612    1.1529 C   0  0  0  0  0  0  0  0  0  0  0  0
   -2.6268    1.9393    0.6018 C   0  0  0  0  0  0  0  0  0  0  0  0
   -3.4150    1.4404   -0.3958 C   0  0  0  0  0  0  0  0  0  0  0  0
   -2.0534   -1.5698    0.4735 C   0  0  0  0  0  0  0  0  0  0  0  0
   -0.9472   -2.5640    0.0810 C   0  0  2  0  0  0  0  0  0  0  0  0
   -0.5842   -3.3978    1.2823 C   0  0  0  0  0  0  0  0  0  0  0  0
    1.0970   -2.1947   -1.3278 C   0  0  0  0  0  0  0  0  0  0  0  0
    0.8719   -3.3357   -2.1028 C   0  0  0  0  0  0  0  0  0  0  0  0
    1.8044   -3.8061   -3.0044 C   0  0  0  0  0  0  0  0  0  0  0  0
    1.5829   -4.9183   -3.7586 F   0  0  0  0  0  0  0  0  0  0  0  0
    3.0157   -3.1721   -3.1905 C   0  0  0  0  0  0  0  0  0  0  0  0
    3.2543   -2.0494   -2.4372 C   0  0  0  0  0  0  0  0  0  0  0  0
    2.3298   -1.5860   -1.5453 C   0  0  0  0  0  0  0  0  0  0  0  0
    2.6755   -0.3943   -0.7740 C   0  0  0  0  0  0  0  0  0  0  0  0
    3.7724    0.2195   -0.9126 O   0  0  0  0  0  0  0  0  0  0  0  0
    2.2362    1.7275    2.9937 C   0  0  0  0  0  0  0  0  0  0  0  0
    3.3515    2.0725    3.6158 O   0  0  0  0  0  0  0  0  0  0  0  0
  1  2  1  0
  2  3  2  0
  3  4  1  0
  4  5  1  0
  5  6  1  0
  6  7  1  0
  8  7  1  1
  8  9  1  0
  9 10  2  0
  9 11  1  0
 11 12  1  0
 12 13  2  0
 13 14  1  0
 14 15  2  0
 15 16  1  0
 16 17  2  0
 17 18  1  0
 18 19  2  0
 19 20  1  0
 20 21  2  0
 11 22  1  0
 22 23  1  0
 23 24  1  1
  8 25  1  0
 25 26  2  0
 26 27  1  0
 27 28  1  0
 27 29  2  0
 29 30  1  0
 30 31  2  0
 31 32  1  0
 32 33  2  0
  4 34  2  0
 34 35  1  0
 35  2  1  0
 32  6  1  0
 23  8  1  0
 31 25  1  0
 21 12  1  0
 21 16  1  0
M  END
$$$$

     RDKit          3D

 34 39  0  0  0  0  0  0  0  0999 V2000
    0.7812   -1.3220    2.4452 C   0  0  0  0  0  0  0  0  0  0  0  0
   -0.1182   -1.0134    1.3113 C   0  0  1  0  0  0  0  0  0  0  0  0
   -0.9385    0.2551    1.4781 C   0  0  0  0  0  0  0  0  0  0  0  0
   -1.4645    0.3968    0.1347 N   0  0  0  0  0  0  0  0  0  0  0  0
   -2.6666    1.1237   -0.1823 C   0  0  0  0  0  0  0  0  0  0  0  0
   -2.6521    2.4662   -0.4881 C   0  0  0  0  0  0  0  0  0  0  0  0
   -3.8235    3.1031   -0.7801 N   0  0  0  0  0  0  0  0  0  0  0  0
   -4.9957    2.4436   -0.7752 C   0  0  0  0  0  0  0  0  0  0  0  0
   -5.0777    1.0861   -0.4744 C   0  0  0  0  0  0  0  0  0  0  0  0
   -6.2797    0.4242   -0.4725 C   0  0  0  0  0  0  0  0  0  0  0  0
   -6.3258   -0.9205   -0.1700 C   0  0  0  0  0  0  0  0  0  0  0  0
   -5.1586   -1.5926    0.1296 C   0  0  0  0  0  0  0  0  0  0  0  0
   -3.9608   -0.9025    0.1207 C   0  0  0  0  0  0  0  0  0  0  0  0
   -3.8926    0.4563   -0.1823 C   0  0  0  0  0  0  0  0  0  0  0  0
   -0.6101   -0.2906   -0.8032 C   0  0  0  0  0  0  0  0  0  0  0  0
   -0.8394   -0.5157   -2.0120 O   0  0  0  0  0  0  0  0  0  0  0  0
    0.5930   -0.6585    0.0155 C   0  0  1  0  0  0  0  0  0  0  0  0
    1.4173    0.5829    0.1648 C   0  0  0  0  0  0  0  0  0  0  0  0
    2.4821    0.7265   -0.7961 N   0  0  0  0  0  0  0  0  0  0  0  0
    2.8413    2.0619   -1.2978 C   0  0  0  0  0  0  0  0  0  0  0  0
    3.8798    2.6810   -0.4421 C   0  0  0  0  0  0  0  0  0  0  0  0
    5.2313    2.6107   -0.5516 N   0  0  0  0  0  0  0  0  0  0  0  0
    5.7693    3.3363    0.4574 C   0  0  0  0  0  0  0  0  0  0  0  0
    4.6960    3.8430    1.1739 C   0  0  0  0  0  0  0  0  0  0  0  0
    3.5647    3.4300    0.6065 O   0  0  0  0  0  0  0  0  0  0  0  0
    3.1956   -0.4058   -1.2671 C   0  0  0  0  0  0  0  0  0  0  0  0
    4.3002   -0.2296   -1.7995 O   0  0  0  0  0  0  0  0  0  0  0  0
    2.5621   -1.7093   -1.0843 C   0  0  0  0  0  0  0  0  0  0  0  0
    3.2590   -2.8031   -1.5508 C   0  0  0  0  0  0  0  0  0  0  0  0
    2.7644   -4.0855   -1.4433 C   0  0  0  0  0  0  0  0  0  0  0  0
    1.5318   -4.2266   -0.8436 C   0  0  0  0  0  0  0  0  0  0  0  0
    1.0065   -5.4851   -0.7183 F   0  0  0  0  0  0  0  0  0  0  0  0
    0.8238   -3.1133   -0.3693 C   0  0  0  0  0  0  0  0  0  0  0  0
    1.3074   -1.8359   -0.4717 C   0  0  0  0  0  0  0  0  0  0  0  0
  2  1  1  1
  2  3  1  0
  3  4  1  0
  4  5  1  0
  5  6  2  0
  6  7  1  0
  7  8  2  0
  8  9  1  0
  9 10  2  0
 10 11  1  0
 11 12  2  0
 12 13  1  0
 13 14  2  0
  4 15  1  0
 15 16  2  0
 15 17  1  0
 17 18  1  1
 18 19  1  0
 19 20  1  0
 20 21  1  0
 21 22  2  0
 22 23  1  0
 23 24  2  0
 24 25  1  0
 19 26  1  0
 26 27  2  0
 26 28  1  0
 28 29  2  0
 29 30  1  0
 30 31  2  0
 31 32  1  0
 31 33  1  0
 33 34  2  0
 17  2  1  0
 25 21  1  0
 34 28  1  0
 14  5  1  0
 34 17  1  0
 14  9  1  0
M  END
$$$$

     RDKit          3D

 38 43  0  0  0  0  0  0  0  0999 V2000
   -5.9445   -0.6651    0.2259 C   0  0  0  0  0  0  0  0  0  0  0  0
   -4.9634   -0.1049    1.2670 C   0  0  2  0  0  0  0  0  0  0  0  0
   -5.7283    0.9552    2.0094 C   0  0  0  0  0  0  0  0  0  0  0  0
   -6.2883    1.8171    1.0772 O   0  0  0  0  0  0  0  0  0  0  0  0
   -5.3265    2.4079    0.2654 C   0  0  0  0  0  0  0  0  0  0  0  0
   -4.4306    1.4110   -0.3967 C   0  0  1  0  0  0  0  0  0  0  0  0
   -3.3711    2.1507   -1.1745 C   0  0  0  0  0  0  0  0  0  0  0  0
   -3.8603    0.4438    0.5488 N   0  0  0  0  0  0  0  0  0  0  0  0
   -2.8721    1.1237    1.3039 C   0  0  0  0  0  0  0  0  0  0  0  0
   -1.8498    0.3072    2.0096 C   0  0  0  0  0  0  0  0  0  0  0  0
   -1.0273   -0.5223    1.1560 N   0  0  0  0  0  0  0  0  0  0  0  0
    0.1719    0.0822    0.6166 C   0  0  0  0  0  0  0  0  0  0  0  0
    1.0190   -0.7814   -0.2320 C   0  0  2  0  0  0  0  0  0  0  0  0
    2.4323   -0.8799    0.3011 C   0  0  0  0  0  0  0  0  0  0  0  0
    2.9310   -1.8746    0.8863 O   0  0  0  0  0  0  0  0  0  0  0  0
    3.0111    0.3789   -0.0180 N   0  0  0  0  0  0  0  0  0  0  0  0
    4.2207    0.8526    0.5350 C   0  0  0  0  0  0  0  0  0  0  0  0
    4.1617    1.5931    1.7086 C   0  0  0  0  0  0  0  0  0  0  0  0
    5.2730    2.0799    2.2979 N   0  0  0  0  0  0  0  0  0  0  0  0
    6.5180    1.8762    1.7806 C   0  0  0  0  0  0  0  0  0  0  0  0
    6.5940    1.1314    0.5978 C   0  0  0  0  0  0  0  0  0  0  0  0
    7.8461    0.9129    0.0563 C   0  0  0  0  0  0  0  0  0  0  0  0
    7.9275    0.1797   -1.1092 C   0  0  0  0  0  0  0  0  0  0  0  0
    6.7985   -0.3371   -1.7430 C   0  0  0  0  0  0  0  0  0  0  0  0
    5.5479   -0.1034   -1.1776 C   0  0  0  0  0  0  0  0  0  0  0  0
    5.4643    0.6287   -0.0137 C   0  0  0  0  0  0  0  0  0  0  0  0
    2.1939    1.0955   -0.9772 C   0  0  0  0  0  0  0  0  0  0  0  0
    1.3125   -0.0110   -1.5176 C   0  0  2  0  0  0  0  0  0  0  0  0
    0.0859    0.4866   -2.2047 C   0  0  0  0  0  0  0  0  0  0  0  0
    0.5456   -2.1365   -0.4922 C   0  0  0  0  0  0  0  0  0  0  0  0
    1.3187   -2.9434   -1.3224 C   0  0  0  0  0  0  0  0  0  0  0  0
    0.9348   -4.2383   -1.6024 C   0  0  0  0  0  0  0  0  0  0  0  0
    1.9257   -5.2539   -2.6589 Cl  0  0  0  0  0  0  0  0  0  0  0  0
   -0.2111   -4.7923   -1.0863 C   0  0  0  0  0  0  0  0  0  0  0  0
   -0.9820   -4.0046   -0.2655 C   0  0  0  0  0  0  0  0  0  0  0  0
   -0.5978   -2.7061    0.0155 C   0  0  0  0  0  0  0  0  0  0  0  0
   -1.4242   -1.8604    0.8818 C   0  0  0  0  0  0  0  0  0  0  0  0
   -2.4639   -2.3915    1.3421 O   0  0  0  0  0  0  0  0  0  0  0  0
  2  1  1  6
  2  3  1  0
  3  4  1  0
  4  5  1  0
  5  6  1  0
  6  7  1  1
  6  8  1  0
  8  9  1  0
  9 10  1  0
 10 11  1  0
 11 12  1  0
 13 12  1  1
 13 14  1  0
 14 15  2  0
 14 16  1  0
 16 17  1  0
 17 18  2  0
 18 19  1  0
 19 20  2  0
 20 21  1  0
 21 22  2  0
 22 23  1  0
 23 24  2  0
 24 25  1  0
 25 26  2  0
 16 27  1  0
 27 28  1  0
 28 29  1  1
 13 30  1  0
 30 31  2  0
 31 32  1  0
 32 33  1  0
 32 34  2  0
 34 35  1  0
 35 36  2  0
 36 37  1  0
 37 38  2  0
  8  2  1  0
 37 11  1  0
 28 13  1  0
 36 30  1  0
 26 17  1  0
 26 21  1  0
M  CHG  1   8   1
M  END
$$$$

     RDKit          3D

 35 40  0  0  0  0  0  0  0  0999 V2000
    4.0116    3.3678    0.8388 C   0  0  0  0  0  0  0  0  0  0  0  0
    3.4905    2.0387    0.6080 N   0  0  0  0  0  0  0  0  0  0  0  0
    3.8454    0.9558    1.4530 C   0  0  0  0  0  0  0  0  0  0  0  0
    4.6284    1.1835    2.4142 O   0  0  0  0  0  0  0  0  0  0  0  0
    3.3512   -0.4302    1.2758 C   0  0  0  0  0  0  0  0  0  0  0  0
    2.4776   -0.6235    0.1423 N   0  0  0  0  0  0  0  0  0  0  0  0
    1.1398   -1.0714    0.3739 C   0  0  0  0  0  0  0  0  0  0  0  0
    0.1609   -0.7998   -0.7135 C   0  0  2  0  0  0  0  0  0  0  0  0
   -0.7017    0.3494   -0.2419 C   0  0  0  0  0  0  0  0  0  0  0  0
   -0.6369    1.5524   -0.6092 O   0  0  0  0  0  0  0  0  0  0  0  0
   -1.5862   -0.2584    0.7015 N   0  0  0  0  0  0  0  0  0  0  0  0
   -2.4887    0.5008    1.5081 C   0  0  0  0  0  0  0  0  0  0  0  0
   -2.1184    0.9852    2.7637 C   0  0  0  0  0  0  0  0  0  0  0  0
   -2.9854    1.7059    3.5213 N   0  0  0  0  0  0  0  0  0  0  0  0
   -4.2503    1.9948    3.1065 C   0  0  0  0  0  0  0  0  0  0  0  0
   -4.6515    1.5385    1.8828 C   0  0  0  0  0  0  0  0  0  0  0  0
   -5.9263    1.8225    1.4506 C   0  0  0  0  0  0  0  0  0  0  0  0
   -6.3683    1.3726    0.2077 C   0  0  0  0  0  0  0  0  0  0  0  0
   -5.4902    0.6364   -0.5721 C   0  0  0  0  0  0  0  0  0  0  0  0
   -4.2197    0.3608   -0.1266 C   0  0  0  0  0  0  0  0  0  0  0  0
   -3.7748    0.8033    1.1040 C   0  0  0  0  0  0  0  0  0  0  0  0
   -1.4066   -1.7022    0.6869 C   0  0  0  0  0  0  0  0  0  0  0  0
   -0.8900   -1.8786   -0.7262 C   0  0  2  0  0  0  0  0  0  0  0  0
   -0.3353   -3.2455   -0.9796 C   0  0  0  0  0  0  0  0  0  0  0  0
    0.7305   -0.5158   -2.0323 C   0  0  0  0  0  0  0  0  0  0  0  0
   -0.1219   -0.4574   -3.1142 C   0  0  0  0  0  0  0  0  0  0  0  0
    0.3790   -0.1918   -4.3859 C   0  0  0  0  0  0  0  0  0  0  0  0
   -0.6993   -0.1165   -5.7643 Cl  0  0  0  0  0  0  0  0  0  0  0  0
    1.7191    0.0213   -4.6250 C   0  0  0  0  0  0  0  0  0  0  0  0
    2.5724   -0.0370   -3.5420 C   0  0  0  0  0  0  0  0  0  0  0  0
    2.0698   -0.3004   -2.2851 C   0  0  0  0  0  0  0  0  0  0  0  0
    3.0075   -0.3507   -1.1681 C   0  0  0  0  0  0  0  0  0  0  0  0
    4.2491   -0.1595   -1.3510 O   0  0  0  0  0  0  0  0  0  0  0  0
    3.3389   -1.3664    2.4227 C   0  0  0  0  0  0  0  0  0  0  0  0
    4.3923   -1.5540    1.3814 C   0  0  0  0  0  0  0  0  0  0  0  0
  1  2  1  0
  2  3  1  0
  3  4  2  0
  3  5  1  0
  5  6  1  0
  6  7  1  0
  8  7  1  1
  8  9  1  0
  9 10  2  0
  9 11  1  0
 11 12  1  0
 12 13  2  0
 13 14  1  0
 14 15  2  0
 15 16  1  0
 16 17  2  0
 17 18  1  0
 18 19  2  0
 19 20  1  0
 20 21  2  0
 11 22  1  0
 22 23  1  0
 23 24  1  1
  8 25  1  0
 25 26  2  0
 26 27  1  0
 27 28  1  0
 27 29  2  0
 29 30  1  0
 30 31  2  0
 31 32  1  0
 32 33  2  0
  5 34  1  0
 34 35  1  0
 35  5  1  0
 32  6  1  0
 23  8  1  0
 31 25  1  0
 21 12  1  0
 21 16  1  0
M  END
$$$$

     RDKit          3D

 34 39  0  0  0  0  0  0  0  0999 V2000
   -0.8357   -1.6589   -2.4929 C   0  0  0  0  0  0  0  0  0  0  0  0
    0.0935   -1.4760   -1.3336 C   0  0  1  0  0  0  0  0  0  0  0  0
    1.2258   -0.5324   -1.5609 C   0  0  0  0  0  0  0  0  0  0  0  0
    1.7678   -0.4240   -0.2079 N   0  0  0  0  0  0  0  0  0  0  0  0
    3.1456   -0.3290    0.1359 C   0  0  0  0  0  0  0  0  0  0  0  0
    3.8402   -1.5198    0.3643 C   0  0  0  0  0  0  0  0  0  0  0  0
    5.1434   -1.4781    0.6916 N   0  0  0  0  0  0  0  0  0  0  0  0
    5.8003   -0.3118    0.8058 C   0  0  0  0  0  0  0  0  0  0  0  0
    5.1696    0.9082    0.5923 C   0  0  0  0  0  0  0  0  0  0  0  0
    5.8436    2.0909    0.7100 C   0  0  0  0  0  0  0  0  0  0  0  0
    5.1694    3.2680    0.4874 C   0  0  0  0  0  0  0  0  0  0  0  0
    3.8250    3.2397    0.1491 C   0  0  0  0  0  0  0  0  0  0  0  0
    3.1551    2.0289    0.0336 C   0  0  0  0  0  0  0  0  0  0  0  0
    3.8209    0.8599    0.2537 C   0  0  0  0  0  0  0  0  0  0  0  0
    0.6271   -0.4365    0.6446 C   0  0  0  0  0  0  0  0  0  0  0  0
    0.6259   -0.1567    1.8614 O   0  0  0  0  0  0  0  0  0  0  0  0
   -0.5880   -0.8380   -0.1341 C   0  0  1  0  0  0  0  0  0  0  0  0
   -1.3349    0.3946   -0.4526 C   0  0  0  0  0  0  0  0  0  0  0  0
   -2.7791    0.2612   -0.4958 N   0  0  0  0  0  0  0  0  0  0  0  0
   -3.5424    1.2324   -1.2490 C   0  0  0  0  0  0  0  0  0  0  0  0
   -3.9469    2.3964   -0.4259 C   0  0  0  0  0  0  0  0  0  0  0  0
   -5.0956    2.5626    0.3217 C   0  0  0  0  0  0  0  0  0  0  0  0
   -5.0354    3.7350    0.8805 O   0  0  0  0  0  0  0  0  0  0  0  0
   -3.9235    4.3569    0.5532 C   0  0  0  0  0  0  0  0  0  0  0  0
   -3.2396    3.5340   -0.2585 N   0  0  0  0  0  0  0  0  0  0  0  0
   -3.4920   -0.7710    0.1604 C   0  0  0  0  0  0  0  0  0  0  0  0
   -4.7430   -0.7131    0.2712 O   0  0  0  0  0  0  0  0  0  0  0  0
   -2.7247   -1.8898    0.6957 C   0  0  0  0  0  0  0  0  0  0  0  0
   -3.4217   -2.8896    1.3321 C   0  0  0  0  0  0  0  0  0  0  0  0
   -2.6975   -3.9496    1.8395 C   0  0  0  0  0  0  0  0  0  0  0  0
   -1.3202   -3.9935    1.7065 C   0  0  0  0  0  0  0  0  0  0  0  0
   -0.6034   -5.0463    2.2108 F   0  0  0  0  0  0  0  0  0  0  0  0
   -0.6485   -2.9680    1.0587 C   0  0  0  0  0  0  0  0  0  0  0  0
   -1.3525   -1.8972    0.5430 C   0  0  0  0  0  0  0  0  0  0  0  0
  2  1  1  6
  2  3  1  0
  3  4  1  0
  4  5  1  0
  5  6  2  0
  6  7  1  0
  7  8  2  0
  8  9  1  0
  9 10  2  0
 10 11  1  0
 11 12  2  0
 12 13  1  0
 13 14  2  0
  4 15  1  0
 15 16  2  0
 15 17  1  0
 17 18  1  6
 18 19  1  0
 19 20  1  0
 20 21  1  0
 21 22  2  0
 22 23  1  0
 23 24  1  0
 24 25  2  0
 19 26  1  0
 26 27  2  0
 26 28  1  0
 28 29  2  0
 29 30  1  0
 30 31  2  0
 31 32  1  0
 31 33  1  0
 33 34  2  0
 17  2  1  0
 25 21  1  0
 34 28  1  0
 14  5  1  0
 34 17  1  0
 14  9  1  0
M  END
$$$$

     RDKit          3D

 40 45  0  0  0  0  0  0  0  0999 V2000
   -5.9420   -2.6131    2.4975 C   0  0  0  0  0  0  0  0  0  0  0  0
   -4.5601   -2.7830    2.0774 N   0  0  0  0  0  0  0  0  0  0  0  0
   -4.0128   -1.8045    1.2048 C   0  0  0  0  0  0  0  0  0  0  0  0
   -4.6939   -0.8245    0.8067 O   0  0  0  0  0  0  0  0  0  0  0  0
   -2.5970   -1.9916    0.7830 C   0  0  0  0  0  0  0  0  0  0  0  0
   -2.1568   -0.9400   -0.0977 N   0  0  0  0  0  0  0  0  0  0  0  0
   -1.5369    0.3019    0.3949 C   0  0  0  0  0  0  0  0  0  0  0  0
   -0.1878    0.5006   -0.2620 C   0  0  2  0  0  0  0  0  0  0  0  0
    0.6486   -0.6991    0.1300 C   0  0  0  0  0  0  0  0  0  0  0  0
    0.2712   -1.9019   -0.0053 O   0  0  0  0  0  0  0  0  0  0  0  0
    1.8884   -0.2721    0.6586 N   0  0  0  0  0  0  0  0  0  0  0  0
    2.8646   -1.0646    1.3222 C   0  0  0  0  0  0  0  0  0  0  0  0
    2.7253   -1.1571    2.7100 C   0  0  0  0  0  0  0  0  0  0  0  0
    3.6164   -1.8942    3.4106 N   0  0  0  0  0  0  0  0  0  0  0  0
    4.6335   -2.5420    2.8156 C   0  0  0  0  0  0  0  0  0  0  0  0
    4.7679   -2.4478    1.4412 C   0  0  0  0  0  0  0  0  0  0  0  0
    5.8171   -3.1163    0.8281 C   0  0  0  0  0  0  0  0  0  0  0  0
    5.9564   -3.0259   -0.5448 C   0  0  0  0  0  0  0  0  0  0  0  0
    5.0589   -2.2782   -1.2891 C   0  0  0  0  0  0  0  0  0  0  0  0
    4.0007   -1.5999   -0.7003 C   0  0  0  0  0  0  0  0  0  0  0  0
    3.8912   -1.7113    0.6702 C   0  0  0  0  0  0  0  0  0  0  0  0
    2.0043    1.1366    0.4094 C   0  0  0  0  0  0  0  0  0  0  0  0
    0.5929    1.6524    0.1959 C   0  0  2  0  0  0  0  0  0  0  0  0
    0.1435    2.3503    1.4482 C   0  0  0  0  0  0  0  0  0  0  0  0
   -1.1850    2.8844    1.3196 N   0  0  0  0  0  0  0  0  0  0  0  0
   -1.5598    3.8518    0.3484 C   0  0  0  0  0  0  0  0  0  0  0  0
   -2.8468    4.3051    0.2844 N   0  0  0  0  0  0  0  0  0  0  0  0
   -3.2426    5.2164   -0.6130 C   0  0  0  0  0  0  0  0  0  0  0  0
   -2.3525    5.7171   -1.4947 N   0  0  0  0  0  0  0  0  0  0  0  0
   -1.0539    5.2960   -1.4713 C   0  0  0  0  0  0  0  0  0  0  0  0
   -0.7156    4.3791   -0.5474 N   0  0  0  0  0  0  0  0  0  0  0  0
   -0.2979    0.4654   -1.7380 C   0  0  0  0  0  0  0  0  0  0  0  0
    0.5321    1.1070   -2.6092 C   0  0  0  0  0  0  0  0  0  0  0  0
    0.3830    1.0223   -4.0011 C   0  0  0  0  0  0  0  0  0  0  0  0
    1.4725    1.8633   -5.0790 Cl  0  0  0  0  0  0  0  0  0  0  0  0
   -0.6286    0.2722   -4.5577 C   0  0  0  0  0  0  0  0  0  0  0  0
   -1.4742   -0.3811   -3.6887 C   0  0  0  0  0  0  0  0  0  0  0  0
   -1.3248   -0.2955   -2.3168 C   0  0  0  0  0  0  0  0  0  0  0  0
   -2.2929   -1.0283   -1.5111 C   0  0  0  0  0  0  0  0  0  0  0  0
   -3.2248   -1.7223   -2.0071 O   0  0  0  0  0  0  0  0  0  0  0  0
  1  2  1  0
  2  3  1  0
  3  4  2  0
  3  5  1  0
  5  6  1  0
  6  7  1  0
  8  7  1  1
  8  9  1  0
  9 10  2  0
  9 11  1  0
 11 12  1  0
 12 13  2  0
 13 14  1  0
 14 15  2  0
 15 16  1  0
 16 17  2  0
 17 18  1  0
 18 19  2  0
 19 20  1  0
 20 21  2  0
 11 22  1  0
 22 23  1  0
 23 24  1  1
 24 25  1  0
 25 26  1  0
 26 27  2  0
 27 28  1  0
 28 29  2  0
 29 30  1  0
 30 31  2  0
  8 32  1  0
 32 33  2  0
 33 34  1  0
 34 35  1  0
 34 36  2  0
 36 37  1  0
 37 38  2  0
 38 39  1  0
 39 40  2  0
 39  6  1  0
 23  8  1  0
 31 26  1  0
 38 32  1  0
 21 12  1  0
 21 16  1  0
M  END
$$$$

     RDKit          3D

 38 43  0  0  0  0  0  0  0  0999 V2000
    4.5074   -5.0310   -1.0527 C   0  0  0  0  0  0  0  0  0  0  0  0
    3.6607   -4.2086   -0.2103 N   0  0  0  0  0  0  0  0  0  0  0  0
    3.4837   -2.8141   -0.4615 C   0  0  0  0  0  0  0  0  0  0  0  0
    4.0422   -2.2147   -1.4162 O   0  0  0  0  0  0  0  0  0  0  0  0
    2.5772   -2.0942    0.4965 C   0  0  0  0  0  0  0  0  0  0  0  0
    2.5334   -0.7096    0.0711 N   0  0  0  0  0  0  0  0  0  0  0  0
    1.5440   -0.2447   -0.8841 C   0  0  0  0  0  0  0  0  0  0  0  0
    0.7803    0.8763   -0.2590 C   0  0  2  0  0  0  0  0  0  0  0  0
    0.1200    0.2898    0.9658 C   0  0  0  0  0  0  0  0  0  0  0  0
    0.5018    0.3686    2.1601 O   0  0  0  0  0  0  0  0  0  0  0  0
   -1.0427   -0.3767    0.4467 N   0  0  0  0  0  0  0  0  0  0  0  0
   -1.8115   -1.3566    1.1338 C   0  0  0  0  0  0  0  0  0  0  0  0
   -1.5662   -2.7042    1.0733 C   0  0  0  0  0  0  0  0  0  0  0  0
   -2.3098   -3.6237    1.7356 N   0  0  0  0  0  0  0  0  0  0  0  0
   -3.3457   -3.2367    2.4986 C   0  0  0  0  0  0  0  0  0  0  0  0
   -3.6564   -1.9114    2.6117 C   0  0  0  0  0  0  0  0  0  0  0  0
   -4.7255   -1.5647    3.4040 C   0  0  0  0  0  0  0  0  0  0  0  0
   -5.0220   -0.2134    3.5037 C   0  0  0  0  0  0  0  0  0  0  0  0
   -4.2718    0.7355    2.8335 C   0  0  0  0  0  0  0  0  0  0  0  0
   -3.1989    0.3812    2.0389 C   0  0  0  0  0  0  0  0  0  0  0  0
   -2.8911   -0.9639    1.9299 C   0  0  0  0  0  0  0  0  0  0  0  0
   -1.3273    0.0962   -0.8938 C   0  0  0  0  0  0  0  0  0  0  0  0
   -0.4042    1.3166   -1.0390 C   0  0  2  0  0  0  0  0  0  0  0  0
   -0.1626    1.5118   -2.5137 C   0  0  0  0  0  0  0  0  0  0  0  0
   -1.4132    1.9451   -3.1546 N   0  0  0  0  0  0  0  0  0  0  0  0
   -1.8035    3.2203   -3.3100 C   0  0  0  0  0  0  0  0  0  0  0  0
   -3.0247    3.2226   -3.9523 C   0  0  0  0  0  0  0  0  0  0  0  0
   -3.3590    1.9037   -4.1798 C   0  0  0  0  0  0  0  0  0  0  0  0
   -2.3515    1.1635   -3.6788 N   0  0  0  0  0  0  0  0  0  0  0  0
    1.6939    1.9153    0.2023 C   0  0  0  0  0  0  0  0  0  0  0  0
    1.3240    3.2529    0.2705 C   0  0  0  0  0  0  0  0  0  0  0  0
    2.2073    4.2316    0.7270 C   0  0  0  0  0  0  0  0  0  0  0  0
    1.7420    5.9207    0.8138 Cl  0  0  0  0  0  0  0  0  0  0  0  0
    3.4890    3.9168    1.1318 C   0  0  0  0  0  0  0  0  0  0  0  0
    3.8596    2.5980    1.0662 C   0  0  0  0  0  0  0  0  0  0  0  0
    2.9880    1.6380    0.6165 C   0  0  0  0  0  0  0  0  0  0  0  0
    3.4558    0.2587    0.5583 C   0  0  0  0  0  0  0  0  0  0  0  0
    4.6078   -0.1042    0.9110 O   0  0  0  0  0  0  0  0  0  0  0  0
  1  2  1  0
  2  3  1  0
  3  4  2  0
  3  5  1  0
  5  6  1  0
  6  7  1  0
  8  7  1  6
  8  9  1  0
  9 10  2  0
  9 11  1  0
 11 12  1  0
 12 13  2  0
 13 14  1  0
 14 15  2  0
 15 16  1  0
 16 17  2  0
 17 18  1  0
 18 19  2  0
 19 20  1  0
 20 21  2  0
 11 22  1  0
 22 23  1  0
 23 24  1  6
 24 25  1  0
 25 26  1  0
 26 27  2  0
 27 28  1  0
 28 29  2  0
  8 30  1  0
 30 31  2  0
 31 32  1  0
 32 33  1  0
 32 34  2  0
 34 35  1  0
 35 36  2  0
 36 37  1  0
 37 38  2  0
 37  6  1  0
 23  8  1  0
 29 25  1  0
 36 30  1  0
 21 12  1  0
 21 16  1  0
M  END
$$$$

     RDKit          3D

 36 40  0  0  0  0  0  0  0  0999 V2000
   -1.8688   -4.6622   -0.4242 C   0  0  0  0  0  0  0  0  0  0  0  0
   -1.7415   -3.1030   -0.4514 C   0  0  0  0  0  0  0  0  0  0  0  0
   -3.0251   -2.5846   -0.9482 C   0  0  0  0  0  0  0  0  0  0  0  0
   -3.7946   -3.4696   -1.4613 O   0  0  0  0  0  0  0  0  0  0  0  0
   -3.5232   -1.2752   -0.9327 N   0  0  0  0  0  0  0  0  0  0  0  0
   -4.8963   -1.0058   -1.3908 C   0  0  0  0  0  0  0  0  0  0  0  0
   -5.5821    0.0510   -0.6024 C   0  0  0  0  0  0  0  0  0  0  0  0
   -4.8470    0.5223    0.6276 C   0  0  0  0  0  0  0  0  0  0  0  0
   -3.4133    0.7743    0.3565 C   0  0  0  0  0  0  0  0  0  0  0  0
   -2.6987    1.8395    0.8335 C   0  0  0  0  0  0  0  0  0  0  0  0
   -1.3654    1.9391    0.4854 C   0  0  0  0  0  0  0  0  0  0  0  0
   -0.7289    1.0082   -0.3231 C   0  0  0  0  0  0  0  0  0  0  0  0
    0.6458    1.1590   -0.6507 N   0  0  0  0  0  0  0  0  0  0  0  0
    0.9903    1.9086   -1.8517 C   0  0  0  0  0  0  0  0  0  0  0  0
    1.1741    3.3407   -1.5780 C   0  0  0  0  0  0  0  0  0  0  0  0
    0.0858    4.1921   -1.6662 C   0  0  0  0  0  0  0  0  0  0  0  0
    0.2219    5.5474   -1.4154 C   0  0  0  0  0  0  0  0  0  0  0  0
    1.4375    6.1142   -1.0675 C   0  0  0  0  0  0  0  0  0  0  0  0
    2.5277    5.2596   -0.9792 C   0  0  0  0  0  0  0  0  0  0  0  0
    4.2381    6.0044   -0.4970 Br  0  0  0  0  0  0  0  0  0  0  0  0
    2.3769    3.9086   -1.2328 C   0  0  0  0  0  0  0  0  0  0  0  0
    1.6667    0.5899    0.1742 C   0  0  0  0  0  0  0  0  0  0  0  0
    2.8942    0.7470   -0.1531 O   0  0  0  0  0  0  0  0  0  0  0  0
    1.2747   -0.1618    1.3791 C   0  0  0  0  0  0  0  0  0  0  0  0
    2.5113   -0.6337    2.0481 C   0  0  0  0  0  0  0  0  0  0  0  0
    3.0064   -0.0227    3.2075 C   0  0  0  0  0  0  0  0  0  0  0  0
    4.1374   -0.5063    3.7629 N   0  0  0  0  0  0  0  0  0  0  0  0
    4.7933   -1.5512    3.2335 C   0  0  0  0  0  0  0  0  0  0  0  0
    4.3506   -2.1959    2.0870 C   0  0  0  0  0  0  0  0  0  0  0  0
    5.0305   -3.2765    1.5418 C   0  0  0  0  0  0  0  0  0  0  0  0
    4.5293   -3.8605    0.4077 C   0  0  0  0  0  0  0  0  0  0  0  0
    3.3678   -3.4059   -0.2100 C   0  0  0  0  0  0  0  0  0  0  0  0
    2.7269   -2.3313    0.3660 C   0  0  0  0  0  0  0  0  0  0  0  0
    3.1827   -1.7001    1.5094 C   0  0  0  0  0  0  0  0  0  0  0  0
   -1.4501   -0.0646   -0.8035 C   0  0  0  0  0  0  0  0  0  0  0  0
   -2.7759   -0.1669   -0.4584 C   0  0  0  0  0  0  0  0  0  0  0  0
  1  2  1  0
  2  3  1  0
  3  4  2  0
  3  5  1  0
  5  6  1  0
  6  7  1  0
  7  8  1  0
  8  9  1  0
  9 10  2  0
 10 11  1  0
 11 12  2  0
 12 13  1  0
 13 14  1  0
 14 15  1  0
 15 16  2  0
 16 17  1  0
 17 18  2  0
 18 19  1  0
 19 20  1  0
 19 21  2  0
 13 22  1  0
 22 23  2  0
 22 24  1  0
 24 25  1  0
 25 26  2  0
 26 27  1  0
 27 28  2  0
 28 29  1  0
 29 30  2  0
 30 31  1  0
 31 32  2  0
 32 33  1  0
 33 34  2  0
 12 35  1  0
 35 36  2  0
 36  5  1  0
 36  9  1  0
 21 15  1  0
 34 25  1  0
 34 29  1  0
M  END
$$$$

     RDKit          3D

 20 22  0  0  0  0  0  0  0  0999 V2000
    0.0821   -0.0534    1.2058 O   0  0  0  0  0  0  0  0  0  0  0  0
   -0.4110    0.0675    0.0488 C   0  0  0  0  0  0  0  0  0  0  0  0
    0.4278    0.7418   -0.9636 C   0  0  0  0  0  0  0  0  0  0  0  0
    1.7419    1.1619   -0.4084 C   0  0  0  0  0  0  0  0  0  0  0  0
    1.9370    2.4818   -0.0569 C   0  0  0  0  0  0  0  0  0  0  0  0
    3.0972    2.9198    0.4636 N   0  0  0  0  0  0  0  0  0  0  0  0
    4.1248    2.0828    0.6649 C   0  0  0  0  0  0  0  0  0  0  0  0
    4.0039    0.7263    0.3328 C   0  0  0  0  0  0  0  0  0  0  0  0
    5.0408   -0.1606    0.5228 C   0  0  0  0  0  0  0  0  0  0  0  0
    4.8758   -1.4826    0.1787 C   0  0  0  0  0  0  0  0  0  0  0  0
    3.6930   -1.9479   -0.3552 C   0  0  0  0  0  0  0  0  0  0  0  0
    2.6487   -1.0427   -0.5447 C   0  0  0  0  0  0  0  0  0  0  0  0
    2.7906    0.2930   -0.2061 C   0  0  0  0  0  0  0  0  0  0  0  0
   -1.6974   -0.4287   -0.2170 N   0  0  0  0  0  0  0  0  0  0  0  0
   -2.1901   -0.2678   -1.5703 C   0  0  0  0  0  0  0  0  0  0  0  0
   -3.2665    0.7820   -1.4977 C   0  0  0  0  0  0  0  0  0  0  0  0
   -4.2991    0.7141   -0.6608 C   0  0  0  0  0  0  0  0  0  0  0  0
   -4.7297   -0.2536    0.3581 C   0  0  0  0  0  0  0  0  0  0  0  0
   -3.8072   -1.4169    0.5583 C   0  0  0  0  0  0  0  0  0  0  0  0
   -2.3936   -1.0397    0.8963 C   0  0  0  0  0  0  0  0  0  0  0  0
  1  2  2  0
  2  3  1  0
  3  4  1  0
  4  5  2  0
  5  6  1  0
  6  7  2  0
  7  8  1  0
  8  9  2  0
  9 10  1  0
 10 11  2  0
 11 12  1  0
 12 13  2  0
  2 14  1  0
 14 15  1  0
 15 16  1  0
 16 17  2  0
 17 18  1  0
 18 19  1  0
 19 20  1  0
 13  4  1  0
 20 14  1  0
 13  8  1  0
M  END
$$$$

     RDKit          3D

 34 39  0  0  0  0  0  0  0  0999 V2000
   -0.2162    1.9851    2.0115 C   0  0  0  0  0  0  0  0  0  0  0  0
    0.8423    2.0533    0.9359 C   0  0  1  0  0  0  0  0  0  0  0  0
    1.9891    1.1768    1.3870 C   0  0  0  0  0  0  0  0  0  0  0  0
    2.5481    0.6507    0.1425 N   0  0  0  0  0  0  0  0  0  0  0  0
    3.7790   -0.0486    0.0150 C   0  0  0  0  0  0  0  0  0  0  0  0
    4.9404    0.6822   -0.2312 C   0  0  0  0  0  0  0  0  0  0  0  0
    6.1400    0.1383   -0.3679 N   0  0  0  0  0  0  0  0  0  0  0  0
    6.2518   -1.1990   -0.2643 C   0  0  0  0  0  0  0  0  0  0  0  0
    5.1370   -1.9758   -0.0212 C   0  0  0  0  0  0  0  0  0  0  0  0
    5.2409   -3.3600    0.0880 C   0  0  0  0  0  0  0  0  0  0  0  0
    4.1175   -4.1168    0.3306 C   0  0  0  0  0  0  0  0  0  0  0  0
    2.8566   -3.5513    0.4749 C   0  0  0  0  0  0  0  0  0  0  0  0
    2.7496   -2.1643    0.3660 C   0  0  0  0  0  0  0  0  0  0  0  0
    3.8819   -1.4232    0.1234 C   0  0  0  0  0  0  0  0  0  0  0  0
    1.6727    0.9413   -0.9438 C   0  0  0  0  0  0  0  0  0  0  0  0
    1.8897    0.8291   -2.1863 O   0  0  0  0  0  0  0  0  0  0  0  0
    0.3678    1.4323   -0.3823 C   0  0  1  0  0  0  0  0  0  0  0  0
   -0.5767    0.3245   -0.1048 C   0  0  0  0  0  0  0  0  0  0  0  0
   -1.8679    0.4208   -0.7047 N   0  0  0  0  0  0  0  0  0  0  0  0
   -2.7774   -0.7155   -0.5128 C   0  0  0  0  0  0  0  0  0  0  0  0
   -3.5642   -0.4588    0.7310 C   0  0  0  0  0  0  0  0  0  0  0  0
   -4.5054   -1.4898    1.0555 N   0  0  0  0  0  0  0  0  0  0  0  0
   -3.9758   -2.6649    1.7035 C   0  0  0  0  0  0  0  0  0  0  0  0
   -5.1027   -3.4392    1.0129 C   0  0  0  0  0  0  0  0  0  0  0  0
   -4.8985   -2.3571   -0.0329 C   0  0  0  0  0  0  0  0  0  0  0  0
   -2.3426    1.5171   -1.4667 C   0  0  0  0  0  0  0  0  0  0  0  0
   -3.5173    1.5339   -1.9244 O   0  0  0  0  0  0  0  0  0  0  0  0
   -1.4335    2.6189   -1.7028 C   0  0  0  0  0  0  0  0  0  0  0  0
   -1.8966    3.6902   -2.4494 C   0  0  0  0  0  0  0  0  0  0  0  0
   -1.0634    4.7394   -2.6891 C   0  0  0  0  0  0  0  0  0  0  0  0
    0.2124    4.6904   -2.1756 C   0  0  0  0  0  0  0  0  0  0  0  0
    1.2573    6.0608   -2.5052 Cl  0  0  0  0  0  0  0  0  0  0  0  0
    0.6748    3.6168   -1.4280 C   0  0  0  0  0  0  0  0  0  0  0  0
   -0.1655    2.5521   -1.1828 C   0  0  0  0  0  0  0  0  0  0  0  0
  2  1  1  1
  2  3  1  0
  3  4  1  0
  4  5  1  0
  5  6  2  0
  6  7  1  0
  7  8  2  0
  8  9  1  0
  9 10  2  0
 10 11  1  0
 11 12  2  0
 12 13  1  0
 13 14  2  0
  4 15  1  0
 15 16  2  0
 15 17  1  0
 17 18  1  1
 18 19  1  0
 19 20  1  0
 20 21  1  0
 21 22  1  0
 22 23  1  0
 23 24  1  0
 24 25  1  0
 19 26  1  0
 26 27  2  0
 26 28  1  0
 28 29  2  0
 29 30  1  0
 30 31  2  0
 31 32  1  0
 31 33  1  0
 33 34  2  0
 17  2  1  0
 25 22  1  0
 34 28  1  0
 14  5  1  0
 34 17  1  0
 14  9  1  0
M  CHG  1  22   1
M  END
$$$$

     RDKit          3D

 34 39  0  0  0  0  0  0  0  0999 V2000
   -0.4296   -1.1813   -2.7192 C   0  0  0  0  0  0  0  0  0  0  0  0
    0.4145   -0.8331   -1.5224 C   0  0  1  0  0  0  0  0  0  0  0  0
    1.0696    0.5199   -1.6379 C   0  0  0  0  0  0  0  0  0  0  0  0
    1.4076    0.8065   -0.2558 N   0  0  0  0  0  0  0  0  0  0  0  0
    2.3712    1.7607    0.1472 C   0  0  0  0  0  0  0  0  0  0  0  0
    2.0433    3.0979    0.3926 C   0  0  0  0  0  0  0  0  0  0  0  0
    3.0088    3.9591    0.7745 N   0  0  0  0  0  0  0  0  0  0  0  0
    4.2854    3.5605    0.9255 C   0  0  0  0  0  0  0  0  0  0  0  0
    4.6801    2.2412    0.6969 C   0  0  0  0  0  0  0  0  0  0  0  0
    5.9841    1.8275    0.8497 C   0  0  0  0  0  0  0  0  0  0  0  0
    6.3532    0.5008    0.6145 C   0  0  0  0  0  0  0  0  0  0  0  0
    5.3547   -0.3706    0.2240 C   0  0  0  0  0  0  0  0  0  0  0  0
    4.0698    0.0454    0.0753 C   0  0  0  0  0  0  0  0  0  0  0  0
    3.6856    1.3689    0.3070 C   0  0  0  0  0  0  0  0  0  0  0  0
    0.6378   -0.0025    0.6266 C   0  0  0  0  0  0  0  0  0  0  0  0
    0.7713   -0.1604    1.8654 O   0  0  0  0  0  0  0  0  0  0  0  0
   -0.3959   -0.6458   -0.2559 C   0  0  1  0  0  0  0  0  0  0  0  0
   -1.5606    0.2446   -0.4107 C   0  0  0  0  0  0  0  0  0  0  0  0
   -2.8548   -0.3954   -0.4225 N   0  0  0  0  0  0  0  0  0  0  0  0
   -3.9842    0.2587   -1.0663 C   0  0  0  0  0  0  0  0  0  0  0  0
   -4.7422    1.1323   -0.1349 C   0  0  0  0  0  0  0  0  0  0  0  0
   -5.8144    0.8328    0.6785 C   0  0  0  0  0  0  0  0  0  0  0  0
   -6.1346    1.9699    1.3242 N   0  0  0  0  0  0  0  0  0  0  0  0
   -5.3228    2.9377    0.9517 N   0  0  0  0  0  0  0  0  0  0  0  0
   -4.4399    2.4665    0.0462 C   0  0  0  0  0  0  0  0  0  0  0  0
   -3.1072   -1.6620    0.1715 C   0  0  0  0  0  0  0  0  0  0  0  0
   -4.2562   -2.1252    0.3680 O   0  0  0  0  0  0  0  0  0  0  0  0
   -1.9450   -2.4564    0.5700 C   0  0  0  0  0  0  0  0  0  0  0  0
   -2.1701   -3.7003    1.1538 C   0  0  0  0  0  0  0  0  0  0  0  0
   -1.0766   -4.4362    1.5233 C   0  0  0  0  0  0  0  0  0  0  0  0
    0.1832   -3.9561    1.3210 C   0  0  0  0  0  0  0  0  0  0  0  0
    1.2636   -4.6791    1.6841 F   0  0  0  0  0  0  0  0  0  0  0  0
    0.4167   -2.7233    0.7425 C   0  0  0  0  0  0  0  0  0  0  0  0
   -0.6888   -1.9566    0.3582 C   0  0  0  0  0  0  0  0  0  0  0  0
  2  1  1  6
  2  3  1  0
  3  4  1  0
  4  5  1  0
  5  6  2  0
  6  7  1  0
  7  8  2  0
  8  9  1  0
  9 10  2  0
 10 11  1  0
 11 12  2  0
 12 13  1  0
 13 14  2  0
  4 15  1  0
 15 16  2  0
 15 17  1  0
 17 18  1  6
 18 19  1  0
 19 20  1  0
 20 21  1  0
 21 22  1  0
 22 23  2  0
 23 24  1  0
 24 25  1  0
 19 26  1  0
 26 27  2  0
 26 28  1  0
 28 29  2  0
 29 30  1  0
 30 31  2  0
 31 32  1  0
 31 33  1  0
 33 34  2  0
 17  2  1  0
 25 21  2  0
 34 28  1  0
 14  5  1  0
 34 17  1  0
 14  9  1  0
M  END
$$$$

     RDKit          3D

 27 30  0  0  0  0  0  0  0  0999 V2000
    0.8908   -0.5070   -1.1813 O   0  0  0  0  0  0  0  0  0  0  0  0
    0.4190   -0.8881   -0.0580 C   0  0  0  0  0  0  0  0  0  0  0  0
    1.4159   -1.3003    0.9576 C   0  0  0  0  0  0  0  0  0  0  0  0
    2.8106   -1.1871    0.3900 C   0  0  0  0  0  0  0  0  0  0  0  0
    3.4961   -2.3390   -0.0024 C   0  0  0  0  0  0  0  0  0  0  0  0
    4.7292   -2.2721   -0.5076 N   0  0  0  0  0  0  0  0  0  0  0  0
    5.3589   -1.0916   -0.6580 C   0  0  0  0  0  0  0  0  0  0  0  0
    4.7117    0.0648   -0.2809 C   0  0  0  0  0  0  0  0  0  0  0  0
    5.3946    1.2522   -0.4527 C   0  0  0  0  0  0  0  0  0  0  0  0
    4.7632    2.4101   -0.0820 C   0  0  0  0  0  0  0  0  0  0  0  0
    3.4961    2.3765    0.4404 C   0  0  0  0  0  0  0  0  0  0  0  0
    2.7917    1.1958    0.6217 C   0  0  0  0  0  0  0  0  0  0  0  0
    3.4335    0.0351    0.2465 C   0  0  0  0  0  0  0  0  0  0  0  0
   -0.9832   -0.8957    0.1474 N   0  0  0  0  0  0  0  0  0  0  0  0
   -1.3387   -1.3528    1.4479 C   0  0  0  0  0  0  0  0  0  0  0  0
   -2.3576   -1.9707    2.0265 C   0  0  0  0  0  0  0  0  0  0  0  0
   -3.6290   -2.4707    1.5175 C   0  0  0  0  0  0  0  0  0  0  0  0
   -4.2023   -2.5716    0.3227 C   0  0  0  0  0  0  0  0  0  0  0  0
   -3.7051   -2.1809   -0.9916 C   0  0  0  0  0  0  0  0  0  0  0  0
   -2.7720   -1.3777   -1.4615 C   0  0  0  0  0  0  0  0  0  0  0  0
   -1.7194   -0.4372   -1.0138 C   0  0  1  0  0  0  0  0  0  0  0  0
   -2.2524    0.9517   -0.8310 C   0  0  0  0  0  0  0  0  0  0  0  0
   -2.1426    1.9096   -1.8399 C   0  0  0  0  0  0  0  0  0  0  0  0
   -2.6255    3.1927   -1.6919 C   0  0  0  0  0  0  0  0  0  0  0  0
   -3.2427    3.5691   -0.5172 C   0  0  0  0  0  0  0  0  0  0  0  0
   -3.3678    2.6491    0.4981 C   0  0  0  0  0  0  0  0  0  0  0  0
   -2.8740    1.3664    0.3243 C   0  0  0  0  0  0  0  0  0  0  0  0
  1  2  2  0
  2  3  1  0
  3  4  1  0
  4  5  2  0
  5  6  1  0
  6  7  2  0
  7  8  1  0
  8  9  2  0
  9 10  1  0
 10 11  2  0
 11 12  1  0
 12 13  2  0
  2 14  1  0
 14 15  1  0
 15 16  2  3
 16 17  1  0
 17 18  2  3
 18 19  1  0
 19 20  2  3
 20 21  1  0
 21 22  1  1
 22 23  2  0
 23 24  1  0
 24 25  2  0
 25 26  1  0
 26 27  2  0
 13  4  1  0
 21 14  1  0
 27 22  1  0
 13  8  1  0
M  END
$$$$

     RDKit          3D

 32 36  0  0  0  0  0  0  0  0999 V2000
   -4.1295    2.6857    0.5392 C   0  0  0  0  0  0  0  0  0  0  0  0
   -2.8547    2.0421    0.3065 N   0  0  0  0  0  0  0  0  0  0  0  0
   -2.6268    1.7173   -1.0657 C   0  0  0  0  0  0  0  0  0  0  0  0
   -3.1315    0.3817   -1.4921 C   0  0  0  0  0  0  0  0  0  0  0  0
   -2.5200   -0.7074   -0.7491 N   0  0  0  0  0  0  0  0  0  0  0  0
   -1.3076   -1.3477   -1.2059 C   0  0  0  0  0  0  0  0  0  0  0  0
   -0.2974   -1.6077   -0.1255 C   0  0  2  0  0  0  0  0  0  0  0  0
    0.3867   -0.3105    0.1255 C   0  0  0  0  0  0  0  0  0  0  0  0
   -0.0692    0.6675    0.8136 O   0  0  0  0  0  0  0  0  0  0  0  0
    1.6440   -0.3412   -0.5344 N   0  0  0  0  0  0  0  0  0  0  0  0
    2.2979    0.7873   -1.1251 C   0  0  0  0  0  0  0  0  0  0  0  0
    2.0856    1.1349   -2.4445 C   0  0  0  0  0  0  0  0  0  0  0  0
    2.7346    2.2132   -2.9425 N   0  0  0  0  0  0  0  0  0  0  0  0
    3.5765    2.9596   -2.2072 C   0  0  0  0  0  0  0  0  0  0  0  0
    3.8101    2.6342   -0.8761 C   0  0  0  0  0  0  0  0  0  0  0  0
    4.6646    3.3663   -0.0760 C   0  0  0  0  0  0  0  0  0  0  0  0
    4.8808    3.0180    1.2558 C   0  0  0  0  0  0  0  0  0  0  0  0
    4.2157    1.9126    1.7664 C   0  0  0  0  0  0  0  0  0  0  0  0
    3.3595    1.1732    0.9771 C   0  0  0  0  0  0  0  0  0  0  0  0
    3.1564    1.5325   -0.3420 C   0  0  0  0  0  0  0  0  0  0  0  0
    2.0828   -1.7178   -0.4687 C   0  0  0  0  0  0  0  0  0  0  0  0
    0.7847   -2.4726   -0.6278 C   0  0  2  0  0  0  0  0  0  0  0  0
    0.6708   -2.8199   -2.1057 C   0  0  0  0  0  0  0  0  0  0  0  0
   -0.9559   -2.0547    1.1107 C   0  0  0  0  0  0  0  0  0  0  0  0
   -0.2073   -2.7296    2.0610 C   0  0  0  0  0  0  0  0  0  0  0  0
   -0.7780   -3.1795    3.2564 C   0  0  0  0  0  0  0  0  0  0  0  0
   -0.0045   -3.8461    4.1770 F   0  0  0  0  0  0  0  0  0  0  0  0
   -2.1307   -2.9565    3.5226 C   0  0  0  0  0  0  0  0  0  0  0  0
   -2.8784   -2.2846    2.5778 C   0  0  0  0  0  0  0  0  0  0  0  0
   -2.2879   -1.8528    1.4082 C   0  0  0  0  0  0  0  0  0  0  0  0
   -3.1401   -1.1482    0.4536 C   0  0  0  0  0  0  0  0  0  0  0  0
   -4.3795   -0.9403    0.6899 O   0  0  0  0  0  0  0  0  0  0  0  0
  1  2  1  0
  2  3  1  0
  3  4  1  0
  4  5  1  0
  5  6  1  0
  7  6  1  6
  7  8  1  0
  8  9  2  0
  8 10  1  0
 10 11  1  0
 11 12  2  0
 12 13  1  0
 13 14  2  0
 14 15  1  0
 15 16  2  0
 16 17  1  0
 17 18  2  0
 18 19  1  0
 19 20  2  0
 10 21  1  0
 21 22  1  0
 22 23  1  6
  7 24  1  0
 24 25  2  0
 25 26  1  0
 26 27  1  0
 26 28  2  0
 28 29  1  0
 29 30  2  0
 30 31  1  0
 31 32  2  0
 31  5  1  0
 22  7  1  0
 30 24  1  0
 20 11  1  0
 20 15  1  0
M  CHG  1   2   1
M  END
$$$$

     RDKit          3D

 36 40  0  0  0  0  0  0  0  0999 V2000
   -4.9456   -3.5704    0.4202 C   0  0  0  0  0  0  0  0  0  0  0  0
   -5.5589   -2.1559    0.3520 C   0  0  0  0  0  0  0  0  0  0  0  0
   -4.5681   -1.1069    0.3068 C   0  0  0  0  0  0  0  0  0  0  0  0
   -3.3918   -1.5699    0.5012 O   0  0  0  0  0  0  0  0  0  0  0  0
   -4.4503    0.2608    0.1198 N   0  0  2  0  0  0  0  0  0  0  0  0
   -3.9830    0.5740   -1.1795 C   0  0  0  0  0  0  0  0  0  0  0  0
   -2.9329   -0.3150   -1.7044 C   0  0  0  0  0  0  0  0  0  0  0  0
   -1.6751    0.0667   -0.9212 C   0  0  0  0  0  0  0  0  0  0  0  0
   -2.0091    0.7024    0.3678 C   0  0  0  0  0  0  0  0  0  0  0  0
   -0.9835    1.2100    1.1320 C   0  0  0  0  0  0  0  0  0  0  0  0
    0.3970    1.2096    0.7312 N   0  0  0  0  0  0  0  0  0  0  0  0
    1.0524    2.3626    0.1964 C   0  0  0  0  0  0  0  0  0  0  0  0
    0.9266    2.6733   -1.2128 C   0  0  0  0  0  0  0  0  0  0  0  0
    1.7399    2.3033   -2.2348 C   0  0  0  0  0  0  0  0  0  0  0  0
    1.5186    2.6690   -3.5691 C   0  0  0  0  0  0  0  0  0  0  0  0
    0.4321    3.4443   -3.9109 C   0  0  0  0  0  0  0  0  0  0  0  0
   -0.4053    3.8306   -2.8875 C   0  0  0  0  0  0  0  0  0  0  0  0
   -1.8116    4.8226   -3.2577 Cl  0  0  0  0  0  0  0  0  0  0  0  0
   -0.1835    3.4691   -1.5819 C   0  0  0  0  0  0  0  0  0  0  0  0
    1.0590   -0.0676    0.9710 C   0  0  0  0  0  0  0  0  0  0  0  0
    0.2989   -0.9251    1.4740 O   0  0  0  0  0  0  0  0  0  0  0  0
    2.4639   -0.1931    0.6176 C   0  0  0  0  0  0  0  0  0  0  0  0
    3.0532   -1.4864    0.9507 C   0  0  0  0  0  0  0  0  0  0  0  0
    2.4992   -2.5714    1.5485 C   0  0  0  0  0  0  0  0  0  0  0  0
    3.1992   -3.7247    1.7929 N   0  0  0  0  0  0  0  0  0  0  0  0
    4.4672   -3.8180    1.4453 C   0  0  0  0  0  0  0  0  0  0  0  0
    5.1069   -2.7847    0.8422 C   0  0  0  0  0  0  0  0  0  0  0  0
    6.4349   -2.9466    0.5046 C   0  0  0  0  0  0  0  0  0  0  0  0
    7.1063   -1.9105   -0.1080 C   0  0  0  0  0  0  0  0  0  0  0  0
    6.4375   -0.7340   -0.3710 C   0  0  0  0  0  0  0  0  0  0  0  0
    5.0984   -0.6010   -0.0187 C   0  0  0  0  0  0  0  0  0  0  0  0
    4.4173   -1.6308    0.5943 C   0  0  0  0  0  0  0  0  0  0  0  0
   -1.2047    1.8090    2.3823 C   0  0  0  0  0  0  0  0  0  0  0  0
   -2.4802    1.9095    2.8917 C   0  0  0  0  0  0  0  0  0  0  0  0
   -3.4937    1.3988    2.1164 C   0  0  0  0  0  0  0  0  0  0  0  0
   -3.2806    0.8094    0.8886 C   0  0  0  0  0  0  0  0  0  0  0  0
  1  2  1  0
  2  3  1  0
  3  4  2  0
  5  3  1  6
  5  6  1  0
  6  7  1  0
  7  8  1  0
  8  9  1  0
  9 10  2  0
 10 11  1  0
 11 12  1  0
 12 13  1  0
 13 14  2  0
 14 15  1  0
 15 16  2  0
 16 17  1  0
 17 18  1  0
 17 19  2  0
 11 20  1  0
 20 21  2  0
 20 22  1  0
 22 23  1  0
 23 24  2  0
 24 25  1  0
 25 26  2  0
 26 27  1  0
 27 28  2  0
 28 29  1  0
 29 30  2  0
 30 31  1  0
 31 32  2  0
 10 33  1  0
 33 34  2  0
 34 35  1  0
 35 36  2  0
 36  5  1  0
 36  9  1  0
 19 13  1  0
 32 23  1  0
 32 27  1  0
M  CHG  1   5   1
M  END
$$$$

     RDKit          3D

 39 43  0  0  0  0  0  0  0  0999 V2000
    6.0121   -2.1044    3.3386 C   0  0  0  0  0  0  0  0  0  0  0  0
    5.1403   -1.1003    2.7793 N   0  0  0  0  0  0  0  0  0  0  0  0
    4.3810   -1.2999    1.5931 C   0  0  0  0  0  0  0  0  0  0  0  0
    4.4261   -2.3773    0.9544 O   0  0  0  0  0  0  0  0  0  0  0  0
    3.5274   -0.1407    1.1603 C   0  0  0  0  0  0  0  0  0  0  0  0
    2.7961   -0.4431   -0.0546 N   0  0  0  0  0  0  0  0  0  0  0  0
    1.4802   -1.0438    0.0199 C   0  0  0  0  0  0  0  0  0  0  0  0
    0.5103   -0.2451   -0.7816 C   0  0  2  0  0  0  0  0  0  0  0  0
    0.3000    1.0690   -0.1160 C   0  0  0  0  0  0  0  0  0  0  0  0
    1.1314    1.7405    0.5633 O   0  0  0  0  0  0  0  0  0  0  0  0
   -1.0519    1.4680   -0.3796 N   0  0  0  0  0  0  0  0  0  0  0  0
   -1.5098    2.8048   -0.5747 C   0  0  0  0  0  0  0  0  0  0  0  0
   -1.5610    3.4082   -1.8135 C   0  0  0  0  0  0  0  0  0  0  0  0
   -2.0010    4.6655   -1.9207 N   0  0  0  0  0  0  0  0  0  0  0  0
   -2.4049    5.3925   -0.8734 C   0  0  0  0  0  0  0  0  0  0  0  0
   -2.3766    4.8453    0.3850 C   0  0  0  0  0  0  0  0  0  0  0  0
   -2.7911    5.5915    1.4609 C   0  0  0  0  0  0  0  0  0  0  0  0
   -2.7548    5.0202    2.7256 C   0  0  0  0  0  0  0  0  0  0  0  0
   -2.3148    3.7308    2.9191 C   0  0  0  0  0  0  0  0  0  0  0  0
   -1.9041    3.0088    1.8063 C   0  0  0  0  0  0  0  0  0  0  0  0
   -1.9262    3.5412    0.5399 C   0  0  0  0  0  0  0  0  0  0  0  0
   -1.8341    0.2306   -0.4018 C   0  0  0  0  0  0  0  0  0  0  0  0
   -0.8650   -0.8505   -0.8315 C   0  0  2  0  0  0  0  0  0  0  0  0
   -1.0323   -1.9961    0.1409 C   0  0  0  0  0  0  0  0  0  0  0  0
   -2.6868   -2.6175   -0.0284 S   0  0  0  0  0  0  0  0  0  0  0  0
   -3.7179   -1.5808    0.2850 O   0  0  0  0  0  0  0  0  0  0  0  0
   -2.9326   -3.1155   -1.4350 O   0  0  0  0  0  0  0  0  0  0  0  0
   -2.9774   -3.9389    1.0476 N   0  0  0  0  0  0  0  0  0  0  0  0
   -2.0723   -5.0297    0.7297 C   0  0  0  0  0  0  0  0  0  0  0  0
   -4.3236   -4.4412    0.8447 C   0  0  0  0  0  0  0  0  0  0  0  0
    1.0411    0.0381   -2.1305 C   0  0  0  0  0  0  0  0  0  0  0  0
    0.1770    0.2905   -3.2024 C   0  0  0  0  0  0  0  0  0  0  0  0
    0.6528    0.5580   -4.4716 C   0  0  0  0  0  0  0  0  0  0  0  0
   -0.1872    0.8016   -5.5063 F   0  0  0  0  0  0  0  0  0  0  0  0
    2.0046    0.5889   -4.7409 C   0  0  0  0  0  0  0  0  0  0  0  0
    2.8730    0.3430   -3.6981 C   0  0  0  0  0  0  0  0  0  0  0  0
    2.3862    0.0773   -2.4365 C   0  0  0  0  0  0  0  0  0  0  0  0
    3.3226   -0.1751   -1.3485 C   0  0  0  0  0  0  0  0  0  0  0  0
    4.5754   -0.1677   -1.4960 O   0  0  0  0  0  0  0  0  0  0  0  0
  1  2  1  0
  2  3  1  0
  3  4  2  0
  3  5  1  0
  5  6  1  0
  6  7  1  0
  8  7  1  1
  8  9  1  0
  9 10  2  0
  9 11  1  0
 11 12  1  0
 12 13  2  0
 13 14  1  0
 14 15  2  0
 15 16  1  0
 16 17  2  0
 17 18  1  0
 18 19  2  0
 19 20  1  0
 20 21  2  0
 11 22  1  0
 22 23  1  0
 23 24  1  1
 24 25  1  0
 25 26  2  0
 25 27  2  0
 25 28  1  0
 28 29  1  0
 28 30  1  0
  8 31  1  0
 31 32  2  0
 32 33  1  0
 33 34  1  0
 33 35  2  0
 35 36  1  0
 36 37  2  0
 37 38  1  0
 38 39  2  0
 38  6  1  0
 23  8  1  0
 37 31  1  0
 21 12  1  0
 21 16  1  0
M  END
$$$$

     RDKit          3D

 22 24  0  0  0  0  0  0  0  0999 V2000
    0.2714    1.2239   -0.7664 O   0  0  0  0  0  0  0  0  0  0  0  0
    0.2516   -0.0138   -0.6022 C   0  0  0  0  0  0  0  0  0  0  0  0
   -0.6286   -0.9466   -1.4018 C   0  0  0  0  0  0  0  0  0  0  0  0
   -1.9184   -1.0994   -0.6862 C   0  0  0  0  0  0  0  0  0  0  0  0
   -2.0529   -2.2774    0.0697 C   0  0  0  0  0  0  0  0  0  0  0  0
   -3.1121   -2.5272    0.8302 N   0  0  0  0  0  0  0  0  0  0  0  0
   -4.1026   -1.6591    0.9081 C   0  0  0  0  0  0  0  0  0  0  0  0
   -4.0128   -0.4847    0.1801 C   0  0  0  0  0  0  0  0  0  0  0  0
   -5.0583    0.3991    0.2922 C   0  0  0  0  0  0  0  0  0  0  0  0
   -4.9685    1.5703   -0.4277 C   0  0  0  0  0  0  0  0  0  0  0  0
   -3.8852    1.8487   -1.2261 C   0  0  0  0  0  0  0  0  0  0  0  0
   -2.8413    0.9568   -1.3342 C   0  0  0  0  0  0  0  0  0  0  0  0
   -2.9202   -0.2034   -0.6211 C   0  0  0  0  0  0  0  0  0  0  0  0
    1.0793   -0.5642    0.3826 N   0  0  0  0  0  0  0  0  0  0  0  0
    1.9498    0.2106    1.2139 C   0  0  0  0  0  0  0  0  0  0  0  0
    3.2339    0.4374    0.5088 C   0  0  0  0  0  0  0  0  0  0  0  0
    3.5097    1.5157   -0.2942 C   0  0  0  0  0  0  0  0  0  0  0  0
    4.7729    1.5710   -0.8523 C   0  0  0  0  0  0  0  0  0  0  0  0
    5.7344    0.5889   -0.6221 C   0  0  0  0  0  0  0  0  0  0  0  0
    5.4414   -0.4860    0.1846 C   0  0  0  0  0  0  0  0  0  0  0  0
    6.6089   -1.7397    0.5053 Cl  0  0  0  0  0  0  0  0  0  0  0  0
    4.2067   -0.5581    0.7419 C   0  0  0  0  0  0  0  0  0  0  0  0
  1  2  2  0
  2  3  1  0
  3  4  1  0
  4  5  2  0
  5  6  1  0
  6  7  2  0
  7  8  1  0
  8  9  2  0
  9 10  1  0
 10 11  2  0
 11 12  1  0
 12 13  2  0
  2 14  1  0
 14 15  1  0
 15 16  1  0
 16 17  2  0
 17 18  1  0
 18 19  2  0
 19 20  1  0
 20 21  1  0
 20 22  2  0
 13  4  1  0
 22 16  1  0
 13  8  1  0
M  END
$$$$

     RDKit          3D

 36 40  0  0  0  0  0  0  0  0999 V2000
   -2.7006   -4.8832    0.8386 C   0  0  0  0  0  0  0  0  0  0  0  0
   -3.8766   -3.8547    0.9945 C   0  0  0  0  0  0  0  0  0  0  0  0
   -3.4026   -2.5174    0.7601 C   0  0  0  0  0  0  0  0  0  0  0  0
   -2.1519   -2.4877    0.5247 O   0  0  0  0  0  0  0  0  0  0  0  0
   -3.8672   -1.2012    0.7035 N   0  0  2  0  0  0  0  0  0  0  0  0
   -3.9956   -0.7237   -0.6126 C   0  0  0  0  0  0  0  0  0  0  0  0
   -2.9234   -1.1161   -1.5556 C   0  0  0  0  0  0  0  0  0  0  0  0
   -1.7004   -0.2993   -1.1512 C   0  0  0  0  0  0  0  0  0  0  0  0
   -1.8207    0.1477    0.2584 C   0  0  0  0  0  0  0  0  0  0  0  0
   -0.8578    1.0251    0.7175 C   0  0  0  0  0  0  0  0  0  0  0  0
    0.2106    1.4893   -0.1380 N   0  0  0  0  0  0  0  0  0  0  0  0
   -0.0110    2.7040   -0.8507 C   0  0  0  0  0  0  0  0  0  0  0  0
    0.3664    3.9394   -0.1424 C   0  0  0  0  0  0  0  0  0  0  0  0
   -0.5810    4.5346    0.6792 C   0  0  0  0  0  0  0  0  0  0  0  0
   -0.3119    5.7048    1.3804 C   0  0  0  0  0  0  0  0  0  0  0  0
    0.9446    6.2879    1.2487 C   0  0  0  0  0  0  0  0  0  0  0  0
    1.8940    5.7175    0.4436 C   0  0  0  0  0  0  0  0  0  0  0  0
    3.4635    6.4855    0.3074 Cl  0  0  0  0  0  0  0  0  0  0  0  0
    1.5917    4.5578   -0.2363 C   0  0  0  0  0  0  0  0  0  0  0  0
    1.3692    0.6868   -0.1691 C   0  0  0  0  0  0  0  0  0  0  0  0
    1.3510   -0.3588    0.5635 O   0  0  0  0  0  0  0  0  0  0  0  0
    2.5798    0.9314   -0.9521 C   0  0  0  0  0  0  0  0  0  0  0  0
    3.5816   -0.1749   -0.7184 C   0  0  0  0  0  0  0  0  0  0  0  0
    4.6804    0.0597    0.1041 C   0  0  0  0  0  0  0  0  0  0  0  0
    5.5835   -0.9355    0.3160 N   0  0  0  0  0  0  0  0  0  0  0  0
    5.4318   -2.1528   -0.2605 C   0  0  0  0  0  0  0  0  0  0  0  0
    4.3450   -2.4123   -1.0849 C   0  0  0  0  0  0  0  0  0  0  0  0
    4.2102   -3.6664   -1.6649 C   0  0  0  0  0  0  0  0  0  0  0  0
    3.1217   -3.8746   -2.4705 C   0  0  0  0  0  0  0  0  0  0  0  0
    2.1790   -2.9104   -2.7207 C   0  0  0  0  0  0  0  0  0  0  0  0
    2.3022   -1.6435   -2.1434 C   0  0  0  0  0  0  0  0  0  0  0  0
    3.3922   -1.4173   -1.3298 C   0  0  0  0  0  0  0  0  0  0  0  0
   -0.8401    1.5244    2.0029 C   0  0  0  0  0  0  0  0  0  0  0  0
   -1.8277    1.1360    2.8830 C   0  0  0  0  0  0  0  0  0  0  0  0
   -2.7763    0.2587    2.3959 C   0  0  0  0  0  0  0  0  0  0  0  0
   -2.8000   -0.2376    1.1310 C   0  0  0  0  0  0  0  0  0  0  0  0
  1  2  1  0
  2  3  1  0
  3  4  2  0
  5  3  1  6
  5  6  1  0
  6  7  1  0
  7  8  1  0
  8  9  1  0
  9 10  2  0
 10 11  1  0
 11 12  1  0
 12 13  1  0
 13 14  2  0
 14 15  1  0
 15 16  2  0
 16 17  1  0
 17 18  1  0
 17 19  2  0
 11 20  1  0
 20 21  2  0
 20 22  1  0
 22 23  1  0
 23 24  2  0
 24 25  1  0
 25 26  2  0
 26 27  1  0
 27 28  2  0
 28 29  1  0
 29 30  2  0
 30 31  1  0
 31 32  2  0
 10 33  1  0
 33 34  2  0
 34 35  1  0
 35 36  2  0
 36  5  1  0
 36  9  1  0
 19 13  1  0
 32 23  1  0
 32 27  1  0
M  CHG  1   5   1
M  END
$$$$
