42 48  0  0  0  0  0  0  0  0999 V2000
    7.5527   -3.3015   27.1725 O   0  0  0  0  0  0  0  0  0  0  0  0
    7.2070   -3.0276   25.9926 C   0  0  0  0  0  0  0  0  0  0  0  0
    6.2638   -1.9502   25.7316 C   0  0  0  0  0  0  0  0  0  0  0  0
    5.6402   -1.3880   26.8176 C   0  0  0  0  0  0  0  0  0  0  0  0
    4.5985   -0.4998   26.5732 C   0  0  0  0  0  0  0  0  0  0  0  0
    4.2192   -0.2078   25.2577 C   0  0  0  0  0  0  0  0  0  0  0  0
    2.8977    0.9128   24.9354 Cl  0  0  0  0  0  0  0  0  0  0  0  0
    4.8931   -0.8089   24.2213 C   0  0  0  0  0  0  0  0  0  0  0  0
    5.9405   -1.6968   24.4225 C   0  0  0  0  0  0  0  0  0  0  0  0
    6.7251   -2.2701   23.2638 C   0  0  0  0  0  0  0  0  0  0  0  0
    6.9697   -3.6857   23.6262 C   0  0  0  0  0  0  0  0  0  0  0  0
    7.7232   -3.7596   24.8595 N   0  0  0  0  0  0  0  0  0  0  0  0
    5.9246   -1.9708   22.0846 C   0  0  0  0  0  0  0  0  0  0  0  0
    5.0359   -2.6958   21.5971 O   0  0  0  0  0  0  0  0  0  0  0  0
    6.3479   -0.6725   21.5760 N   0  0  0  0  0  0  0  0  0  0  0  0
    7.2120   -0.1198   22.5888 C   0  0  0  0  0  0  0  0  0  0  0  0
    7.9189   -1.4386   23.0476 C   0  0  0  0  0  0  0  0  0  0  0  0
    5.9064   -0.1598   20.3304 C   0  0  0  0  0  0  0  0  0  0  0  0
    6.5988   -0.4301   19.1388 C   0  0  0  0  0  0  0  0  0  0  0  0
    6.2047    0.0636   17.9568 N   0  0  0  0  0  0  0  0  0  0  0  0
    5.1290    0.8516   17.7962 C   0  0  0  0  0  0  0  0  0  0  0  0
    4.4081    1.1523   18.9372 C   0  0  0  0  0  0  0  0  0  0  0  0
    3.3158    1.9707   18.7835 C   0  0  0  0  0  0  0  0  0  0  0  0
    2.5463    2.3357   19.8857 C   0  0  0  0  0  0  0  0  0  0  0  0
    2.9425    1.8373   21.1003 C   0  0  0  0  0  0  0  0  0  0  0  0
    4.0325    1.0208   21.2501 C   0  0  0  0  0  0  0  0  0  0  0  0
    4.7999    0.6501   20.1766 C   0  0  0  0  0  0  0  0  0  0  0  0
    8.9132   -4.5291   25.0908 C   0  0  0  0  0  0  0  0  0  0  0  0
   10.0636   -3.6119   25.4779 C   0  0  0  0  0  0  0  0  0  0  0  0
   11.1966   -4.0115   26.0886 N   0  0  0  0  0  0  0  0  0  0  0  0
   11.9790   -2.9390   26.2726 N   0  0  0  0  0  0  0  0  0  0  0  0
   11.3024   -1.8742   25.7624 C   0  0  0  0  0  0  0  0  0  0  0  0
   10.1420   -2.3258   25.2886 O   0  0  0  0  0  0  0  0  0  0  0  0
    8.8323   -1.6856   21.9182 C   0  0  0  0  0  0  0  0  0  0  0  0
   10.1565   -2.1195   22.0736 N   0  0  0  0  0  0  0  0  0  0  0  0
   10.3964   -3.0734   22.0319 H   0  0  0  0  0  0  0  0  0  0  0  0
   11.1612   -1.0855   22.3004 C   0  0  0  0  0  0  0  0  0  0  0  0
   10.8151    0.1357   22.7388 N   0  0  0  0  0  0  0  0  0  0  0  0
   11.7461    1.1006   22.9503 C   0  0  0  0  0  0  0  0  0  0  0  0
   13.0583    0.8398   22.7181 N   0  0  0  0  0  0  0  0  0  0  0  0
   13.4084   -0.3688   22.2836 C   0  0  0  0  0  0  0  0  0  0  0  0
   12.4641   -1.3341   22.0734 N   0  0  0  0  0  0  0  0  0  0  0  0
  1  2  2  0  0  0
  2  3  1  0  0  0
  3  4  2  0  0  0
  4  5  1  0  0  0
  5  6  2  0  0  0
  6  7  1  0  0  0
  6  8  1  0  0  0
  8  9  2  0  0  0
  9  3  1  0  0  0
 10  9  1  0  0  0
 10 11  1  0  0  0
 10 13  1  0  0  0
 11 12  1  0  0  0
 12 28  1  0  0  0
 12  2  1  0  0  0
 28 29  1  0  0  0
 29 30  2  0  0  0
 30 31  1  0  0  0
 31 32  2  0  0  0
 32 33  1  0  0  0
 33 29  1  0  0  0
 13 14  2  0  0  0
 13 15  1  0  0  0
 15 18  1  0  0  0
 15 16  1  0  0  0
 18 19  2  0  0  0
 19 20  1  0  0  0
 20 21  2  0  0  0
 21 22  1  0  0  0
 22 23  2  0  0  0
 23 24  1  0  0  0
 24 25  2  0  0  0
 25 26  1  0  0  0
 26 27  2  0  0  0
 27 18  1  0  0  0
 27 22  1  0  0  0
 16 17  1  0  0  0
 17 34  1  0  0  0
 17 10  1  0  0  0
 34 35  1  0  0  0
 35 37  1  0  0  0
 35 36  1  0  0  0
 37 38  2  0  0  0
 38 39  1  0  0  0
 39 40  2  0  0  0
 40 41  1  0  0  0
 41 42  2  0  0  0
 42 37  1  0  0  0
M  END
> <minimizedAffinity>
-9.52092

> <CNNscore>
0.5202519894

> <CNNaffinity>
6.9798102379

> <CNN_VS>
3.6312601566

> <CNNaffinity_variance>
0.5518724918
$$$$



30 33  0  0  0  0  0  0  0  0999 V2000
    8.0437   -0.4117   22.9057 N   0  0  0  0  0  0  0  0  0  0  0  0
    7.5978   -0.0152   21.6135 C   0  0  0  0  0  0  0  0  0  0  0  0
    8.0292    1.0042   21.0137 O   0  0  0  0  0  0  0  0  0  0  0  0
    6.4841   -3.8501   24.8247 C   0  0  0  0  0  0  0  0  0  0  0  0
    5.9290   -2.5983   25.0868 C   0  0  0  0  0  0  0  0  0  0  0  0
    6.4542   -1.4934   24.4495 C   0  0  0  0  0  0  0  0  0  0  0  0
    7.5200   -1.5908   23.5540 C   0  0  0  0  0  0  0  0  0  0  0  0
    8.0630   -2.8366   23.3011 C   0  0  0  0  0  0  0  0  0  0  0  0
    7.5382   -3.9611   23.9414 C   0  0  0  0  0  0  0  0  0  0  0  0
    4.6580   -5.4389   25.1537 C   0  0  0  0  0  0  0  0  0  0  0  0
    5.9268   -4.9365   25.4862 O   0  0  0  0  0  0  0  0  0  0  0  0
    9.0457    0.3725   23.6049 C   0  0  0  0  0  0  0  0  0  0  0  0
   10.3625   -0.2851   23.6898 C   0  0  0  0  0  0  0  0  0  0  0  0
   10.9632   -0.6272   24.8929 C   0  0  0  0  0  0  0  0  0  0  0  0
   12.2023   -1.2447   24.9482 C   0  0  0  0  0  0  0  0  0  0  0  0
   12.8782   -1.5383   23.7817 C   0  0  0  0  0  0  0  0  0  0  0  0
   12.3056   -1.2097   22.5685 C   0  0  0  0  0  0  0  0  0  0  0  0
   13.1559   -1.5771   21.0621 Cl  0  0  0  0  0  0  0  0  0  0  0  0
   11.0582   -0.5890   22.5407 C   0  0  0  0  0  0  0  0  0  0  0  0
    6.5659   -0.8523   20.9367 C   0  0  0  0  0  0  0  0  0  0  0  0
    5.9120   -0.1120   19.8267 C   0  0  0  0  0  0  0  0  0  0  0  0
    6.4107   -0.2019   18.5432 C   0  0  0  0  0  0  0  0  0  0  0  0
    5.8368    0.4607   17.5109 N   0  0  0  0  0  0  0  0  0  0  0  0
    4.7473    1.2315   17.7360 C   0  0  0  0  0  0  0  0  0  0  0  0
    4.2373    1.3281   19.0265 C   0  0  0  0  0  0  0  0  0  0  0  0
    3.1201    2.1344   19.1887 C   0  0  0  0  0  0  0  0  0  0  0  0
    2.5754    2.2622   20.4584 C   0  0  0  0  0  0  0  0  0  0  0  0
    3.1543    1.5895   21.5199 C   0  0  0  0  0  0  0  0  0  0  0  0
    4.2753    0.7820   21.3506 C   0  0  0  0  0  0  0  0  0  0  0  0
    4.8027    0.6636   20.0971 C   0  0  0  0  0  0  0  0  0  0  0  0
 10 11  1  0  0  0
 11  4  1  0  0  0
  4  5  2  0  0  0
  5  6  1  0  0  0
  6  7  2  0  0  0
  7  1  1  0  0  0
  7  8  1  0  0  0
  1 12  1  0  0  0
  1  2  1  0  0  0
 12 13  1  0  0  0
 13 14  2  0  0  0
 14 15  1  0  0  0
 15 16  2  0  0  0
 16 17  1  0  0  0
 17 18  1  0  0  0
 17 19  2  0  0  0
 19 13  1  0  0  0
  2  3  2  0  0  0
  2 20  1  0  0  0
 20 21  1  0  0  0
 21 22  2  0  0  0
 22 23  1  0  0  0
 23 24  2  0  0  0
 24 25  1  0  0  0
 25 26  2  0  0  0
 26 27  1  0  0  0
 27 28  2  0  0  0
 28 29  1  0  0  0
 29 30  2  0  0  0
 30 21  1  0  0  0
 30 25  1  0  0  0
  8  9  2  0  0  0
  9  4  1  0  0  0
M  END
> <minimizedAffinity>
-7.77784

> <CNNscore>
0.8554334641

> <CNNaffinity>
6.6418981552

> <CNN_VS>
5.6817021370

> <CNNaffinity_variance>
0.0588092096
$$$$



37 41  0  0  0  0  0  0  0  0999 V2000
    6.2240   -0.2052   21.7724 N   0  0  0  0  0  0  0  0  0  0  0  0
    6.3082   -1.6384   22.0207 C   0  0  0  0  0  0  0  0  0  0  0  0
    6.4834   -1.8464   23.4894 C   0  0  0  0  0  0  0  0  0  0  0  0
    7.7903   -1.1840   23.8488 C   0  0  0  0  0  0  0  0  0  0  0  0
    7.9889   -0.0725   24.3693 O   0  0  0  0  0  0  0  0  0  0  0  0
    8.7996   -2.1356   23.4522 N   0  0  0  0  0  0  0  0  0  0  0  0
    8.1977   -3.4434   23.2855 C   0  0  0  0  0  0  0  0  0  0  0  0
    6.7823   -3.2640   23.8636 C   0  0  0  0  0  0  0  0  0  0  0  0
    5.9459   -4.2423   23.2380 N   0  0  0  0  0  0  0  0  0  0  0  0
    5.4072   -1.1943   24.2273 C   0  0  0  0  0  0  0  0  0  0  0  0
    4.9296   -1.6460   25.4645 C   0  0  0  0  0  0  0  0  0  0  0  0
    3.9195   -0.9967   26.1388 C   0  0  0  0  0  0  0  0  0  0  0  0
    3.3590   -1.6150   27.6973 Cl  0  0  0  0  0  0  0  0  0  0  0  0
    3.3219    0.1357   25.6321 C   0  0  0  0  0  0  0  0  0  0  0  0
    3.7771    0.5969   24.4151 C   0  0  0  0  0  0  0  0  0  0  0  0
    4.7797   -0.0518   23.7504 C   0  0  0  0  0  0  0  0  0  0  0  0
    5.1909    0.4935   22.4585 C   0  0  0  0  0  0  0  0  0  0  0  0
    4.6832    1.5238   21.9470 O   0  0  0  0  0  0  0  0  0  0  0  0
    6.0253   -4.1595   22.2245 H   0  0  0  0  0  0  0  0  0  0  0  0
    4.9767   -4.0893   23.5168 H   0  0  0  0  0  0  0  0  0  0  0  0
    6.2395   -5.1755   23.5270 H   0  0  0  0  0  0  0  0  0  0  0  0
   10.1809   -1.8902   23.2427 C   0  0  0  0  0  0  0  0  0  0  0  0
   10.6920   -1.3731   22.0662 C   0  0  0  0  0  0  0  0  0  0  0  0
   12.0070   -1.1515   21.9009 N   0  0  0  0  0  0  0  0  0  0  0  0
   12.8940   -1.4243   22.8791 C   0  0  0  0  0  0  0  0  0  0  0  0
   12.4421   -1.9420   24.0751 C   0  0  0  0  0  0  0  0  0  0  0  0
   13.3813   -2.2072   25.0498 C   0  0  0  0  0  0  0  0  0  0  0  0
   12.9555   -2.7313   26.2710 C   0  0  0  0  0  0  0  0  0  0  0  0
   11.5957   -2.9628   26.4483 C   0  0  0  0  0  0  0  0  0  0  0  0
   10.6720   -2.6876   25.4522 C   0  0  0  0  0  0  0  0  0  0  0  0
   11.0922   -2.1675   24.2399 C   0  0  0  0  0  0  0  0  0  0  0  0
    7.1274    0.4614   20.8817 C   0  0  0  0  0  0  0  0  0  0  0  0
    4.8896    0.7540   17.7726 C   0  0  0  0  0  0  0  0  0  0  0  0
    5.4035    0.9042   19.1208 N   0  0  0  0  0  0  0  0  0  0  0  0
    6.6299    0.2869   19.4912 C   0  0  0  0  0  0  0  0  0  0  0  0
    7.3243   -0.4049   18.7020 O   0  0  0  0  0  0  0  0  0  0  0  0
    4.9018    1.4348   19.7811 H   0  0  0  0  0  0  0  0  0  0  0  0
 33 34  1  0  0  0
 34 35  1  0  0  0
 34 37  1  0  0  0
 35 36  2  0  0  0
 35 32  1  0  0  0
 32  1  1  0  0  0
  1  2  1  0  0  0
  3  2  1  0  0  0
  3  4  1  0  0  0
  3 10  1  0  0  0
  4  5  2  0  0  0
  4  6  1  0  0  0
  6 22  1  0  0  0
  6  7  1  0  0  0
 22 23  2  0  0  0
 23 24  1  0  0  0
 24 25  2  0  0  0
 25 26  1  0  0  0
 26 27  2  0  0  0
 27 28  1  0  0  0
 28 29  2  0  0  0
 29 30  1  0  0  0
 30 31  2  0  0  0
 31 22  1  0  0  0
 31 26  1  0  0  0
  7  8  1  0  0  0
  8  9  1  0  0  0
  8  3  1  0  0  0
  9 19  1  0  0  0
  9 20  1  0  0  0
  9 21  1  0  0  0
 10 11  2  0  0  0
 11 12  1  0  0  0
 12 13  1  0  0  0
 12 14  2  0  0  0
 14 15  1  0  0  0
 15 16  2  0  0  0
 16 17  1  0  0  0
 16 10  1  0  0  0
 17 18  2  0  0  0
 17  1  1  0  0  0
M  CHG 1   9   1
M  END
> <minimizedAffinity>
-8.54058

> <CNNscore>
0.5370991230

> <CNNaffinity>
6.5002961159

> <CNN_VS>
3.4913034439

> <CNNaffinity_variance>
0.0138044385
$$$$



43 49  0  0  0  0  0  0  0  0999 V2000
    4.6447   -0.5561   26.0386 O   0  0  0  0  0  0  0  0  0  0  0  0
    5.5235   -0.7186   25.1482 C   0  0  0  0  0  0  0  0  0  0  0  0
    6.0389   -2.0195   24.7521 C   0  0  0  0  0  0  0  0  0  0  0  0
    5.4948   -3.1212   25.3925 C   0  0  0  0  0  0  0  0  0  0  0  0
    5.8751   -4.4005   25.1024 C   0  0  0  0  0  0  0  0  0  0  0  0
    6.8458   -4.5629   24.1241 C   0  0  0  0  0  0  0  0  0  0  0  0
    7.3600   -6.1892   23.7233 Cl  0  0  0  0  0  0  0  0  0  0  0  0
    7.4042   -3.4563   23.4695 C   0  0  0  0  0  0  0  0  0  0  0  0
    7.0172   -2.1763   23.7661 C   0  0  0  0  0  0  0  0  0  0  0  0
    7.5764   -0.9530   23.1399 C   0  0  0  0  0  0  0  0  0  0  0  0
    6.5418    0.1544   23.1051 C   0  0  0  0  0  0  0  0  0  0  0  0
    6.0601    0.4175   24.4782 N   0  0  0  0  0  0  0  0  0  0  0  0
    8.6787   -0.5554   24.1216 C   0  0  0  0  0  0  0  0  0  0  0  0
    8.4576   -0.0024   25.2530 O   0  0  0  0  0  0  0  0  0  0  0  0
    9.9343   -0.9051   23.5557 N   0  0  0  0  0  0  0  0  0  0  0  0
    9.7740   -0.7367   22.1337 C   0  0  0  0  0  0  0  0  0  0  0  0
    8.2894   -1.1127   21.8696 C   0  0  0  0  0  0  0  0  0  0  0  0
   11.0588   -1.3296   24.3145 C   0  0  0  0  0  0  0  0  0  0  0  0
   12.2561   -0.6197   24.2245 C   0  0  0  0  0  0  0  0  0  0  0  0
   13.3548   -0.9474   24.8928 N   0  0  0  0  0  0  0  0  0  0  0  0
   13.3666   -1.9969   25.7016 C   0  0  0  0  0  0  0  0  0  0  0  0
   12.2091   -2.7344   25.8277 C   0  0  0  0  0  0  0  0  0  0  0  0
   12.2346   -3.8260   26.6702 C   0  0  0  0  0  0  0  0  0  0  0  0
   11.0834   -4.6003   26.8225 C   0  0  0  0  0  0  0  0  0  0  0  0
    9.9208   -4.2603   26.1207 C   0  0  0  0  0  0  0  0  0  0  0  0
    9.8884   -3.1680   25.2754 C   0  0  0  0  0  0  0  0  0  0  0  0
   11.0473   -2.4246   25.1494 C   0  0  0  0  0  0  0  0  0  0  0  0
    6.1378    1.7278   25.0777 C   0  0  0  0  0  0  0  0  0  0  0  0
    5.6790    1.8118   26.4624 C   0  0  0  0  0  0  0  0  0  0  0  0
    4.3977    2.2330   26.7645 C   0  0  0  0  0  0  0  0  0  0  0  0
    4.0161    2.2938   28.1045 C   0  0  0  0  0  0  0  0  0  0  0  0
    4.8759    1.9500   29.0894 N   0  0  0  0  0  0  0  0  0  0  0  0
    6.1083    1.5451   28.7959 N   0  0  0  0  0  0  0  0  0  0  0  0
    6.5338    1.4669   27.4991 C   0  0  0  0  0  0  0  0  0  0  0  0
    7.8670   -0.3174   20.6872 C   0  0  0  0  0  0  0  0  0  0  0  0
    6.6549   -0.7347   20.0537 N   0  0  0  0  0  0  0  0  0  0  0  0
    6.4688   -1.7015   20.0573 H   0  0  0  0  0  0  0  0  0  0  0  0
    5.6965    0.0871   19.4241 C   0  0  0  0  0  0  0  0  0  0  0  0
    4.6757    0.7428   20.0653 C   0  0  0  0  0  0  0  0  0  0  0  0
    3.7660    1.5630   19.3867 C   0  0  0  0  0  0  0  0  0  0  0  0
    3.9237    1.6926   18.0581 N   0  0  0  0  0  0  0  0  0  0  0  0
    4.9202    1.0540   17.4195 C   0  0  0  0  0  0  0  0  0  0  0  0
    5.7773    0.2767   18.0870 N   0  0  0  0  0  0  0  0  0  0  0  0
  1  2  2  0  0  0
  2  3  1  0  0  0
  3  4  2  0  0  0
  4  5  1  0  0  0
  5  6  2  0  0  0
  6  7  1  0  0  0
  6  8  1  0  0  0
  8  9  2  0  0  0
  9  3  1  0  0  0
 10  9  1  0  0  0
 10 11  1  0  0  0
 10 13  1  0  0  0
 11 12  1  0  0  0
 12 28  1  0  0  0
 12  2  1  0  0  0
 28 29  1  0  0  0
 29 30  2  0  0  0
 30 31  1  0  0  0
 31 32  2  0  0  0
 32 33  1  0  0  0
 33 34  2  0  0  0
 34 29  1  0  0  0
 13 14  2  0  0  0
 13 15  1  0  0  0
 15 18  1  0  0  0
 15 16  1  0  0  0
 18 19  2  0  0  0
 19 20  1  0  0  0
 20 21  2  0  0  0
 21 22  1  0  0  0
 22 23  2  0  0  0
 23 24  1  0  0  0
 24 25  2  0  0  0
 25 26  1  0  0  0
 26 27  2  0  0  0
 27 18  1  0  0  0
 27 22  1  0  0  0
 16 17  1  0  0  0
 17 35  1  0  0  0
 17 10  1  0  0  0
 35 36  1  0  0  0
 36 38  1  0  0  0
 36 37  1  0  0  0
 38 39  2  0  0  0
 39 40  1  0  0  0
 40 41  2  0  0  0
 41 42  1  0  0  0
 42 43  2  0  0  0
 43 38  1  0  0  0
M  END
> <minimizedAffinity>
-9.14324

> <CNNscore>
0.4549686015

> <CNNaffinity>
7.1596045494

> <CNN_VS>
3.2573952675

> <CNNaffinity_variance>
0.3830315173
$$$$



23 26  0  0  0  0  0  0  0  0999 V2000
    7.6006    1.4283   21.3356 C   0  0  0  0  0  0  0  0  0  0  0  0
    8.4207    1.1751   22.5532 C   0  0  0  0  0  0  0  0  0  0  0  0
    7.5677    1.1000   23.8061 C   0  0  0  0  0  0  0  0  0  0  0  0
    7.4200    1.9343   24.7985 C   0  0  0  0  0  0  0  0  0  0  0  0
    6.5631    1.6110   25.8558 C   0  0  0  0  0  0  0  0  0  0  0  0
    5.9038   -0.0802   25.3547 S   0  0  0  0  0  0  0  0  0  0  0  0
    6.8300   -0.1272   23.8498 C   0  0  0  0  0  0  0  0  0  0  0  0
    6.9460   -1.1121   22.7577 C   0  0  0  0  0  0  0  0  0  0  0  0
    8.3330   -1.2556   22.1934 C   0  0  0  0  0  0  0  0  0  0  0  0
    9.1565   -0.1096   22.4823 N   0  0  0  0  0  0  0  0  0  0  0  0
   10.5644   -0.1564   22.6996 C   0  0  0  0  0  0  0  0  0  0  0  0
   11.1066    0.9778   22.9539 O   0  0  0  0  0  0  0  0  0  0  0  0
   11.3494   -1.4131   22.6426 C   0  0  0  0  0  0  0  0  0  0  0  0
   11.8485   -1.8552   23.9678 C   0  0  0  0  0  0  0  0  0  0  0  0
   13.1376   -1.4113   24.3024 C   0  0  0  0  0  0  0  0  0  0  0  0
   13.7107   -1.7936   25.4549 N   0  0  0  0  0  0  0  0  0  0  0  0
   13.0749   -2.6119   26.3289 C   0  0  0  0  0  0  0  0  0  0  0  0
   11.7934   -3.0544   26.0007 C   0  0  0  0  0  0  0  0  0  0  0  0
   11.1532   -3.8876   26.9237 C   0  0  0  0  0  0  0  0  0  0  0  0
    9.8667   -4.3121   26.5893 C   0  0  0  0  0  0  0  0  0  0  0  0
    9.2659   -3.9245   25.4062 C   0  0  0  0  0  0  0  0  0  0  0  0
    9.9249   -3.1040   24.5197 C   0  0  0  0  0  0  0  0  0  0  0  0
   11.1714   -2.6819   24.8237 C   0  0  0  0  0  0  0  0  0  0  0  0
  2  1  1  0  0  0
  2  3  1  0  0  0
  3  4  1  0  0  0
  4  5  2  0  0  0
  5  6  1  0  0  0
  6  7  1  0  0  0
  7  8  1  0  0  0
  7  3  2  0  0  0
  8  9  1  0  0  0
  9 10  1  0  0  0
 10 11  1  0  0  0
 10  2  1  0  0  0
 11 12  2  0  0  0
 11 13  1  0  0  0
 13 14  1  0  0  0
 14 15  2  0  0  0
 15 16  1  0  0  0
 16 17  2  0  0  0
 17 18  1  0  0  0
 18 19  2  0  0  0
 19 20  1  0  0  0
 20 21  2  0  0  0
 21 22  1  0  0  0
 22 23  2  0  0  0
 23 14  1  0  0  0
 23 18  1  0  0  0
M  END
> <minimizedAffinity>
-7.06788

> <CNNscore>
0.6146098971

> <CNNaffinity>
5.8889641762

> <CNN_VS>
3.6194157600

> <CNNaffinity_variance>
0.1058289036
$$$$



31 35  0  0  0  0  0  0  0  0999 V2000
    5.5989   -1.0520   23.3309 C   0  0  0  0  0  0  0  0  0  0  0  0
    6.8746   -1.8198   23.2900 C   0  0  0  0  0  0  0  0  0  0  0  0
    8.0460   -1.0078   23.8655 C   0  0  0  0  0  0  0  0  0  0  0  0
    9.0562   -2.0764   23.9104 N   0  0  0  0  0  0  0  0  0  0  0  0
    8.3520   -3.2988   24.2225 C   0  0  0  0  0  0  0  0  0  0  0  0
    8.9020   -4.4221   24.3897 O   0  0  0  0  0  0  0  0  0  0  0  0
    6.8795   -2.9770   24.3058 C   0  0  0  0  0  0  0  0  0  0  0  0
    6.6228   -2.4720   25.6804 C   0  0  0  0  0  0  0  0  0  0  0  0
    5.8734   -3.3470   26.5455 N   0  0  0  0  0  0  0  0  0  0  0  0
    5.0661   -4.4232   26.0982 C   0  0  0  0  0  0  0  0  0  0  0  0
    4.2866   -5.0379   26.8608 O   0  0  0  0  0  0  0  0  0  0  0  0
    5.1760   -4.7976   24.6936 C   0  0  0  0  0  0  0  0  0  0  0  0
    4.4062   -5.8413   24.2579 C   0  0  0  0  0  0  0  0  0  0  0  0
    4.4535   -6.2658   22.9540 C   0  0  0  0  0  0  0  0  0  0  0  0
    5.3099   -5.5944   22.1061 C   0  0  0  0  0  0  0  0  0  0  0  0
    5.3688   -6.0054   20.8040 F   0  0  0  0  0  0  0  0  0  0  0  0
    6.0983   -4.5252   22.5527 C   0  0  0  0  0  0  0  0  0  0  0  0
    6.0522   -4.0966   23.8620 C   0  0  0  0  0  0  0  0  0  0  0  0
   10.4525   -1.9185   23.6860 C   0  0  0  0  0  0  0  0  0  0  0  0
   10.8141   -1.4768   22.4115 C   0  0  0  0  0  0  0  0  0  0  0  0
   12.1168   -1.2882   22.0768 N   0  0  0  0  0  0  0  0  0  0  0  0
   13.0774   -1.5348   23.0003 C   0  0  0  0  0  0  0  0  0  0  0  0
   12.7300   -1.9718   24.2627 C   0  0  0  0  0  0  0  0  0  0  0  0
   13.7404   -2.2094   25.1681 C   0  0  0  0  0  0  0  0  0  0  0  0
   13.3719   -2.6489   26.4348 C   0  0  0  0  0  0  0  0  0  0  0  0
   12.0541   -2.8462   26.7931 C   0  0  0  0  0  0  0  0  0  0  0  0
   11.0355   -2.6066   25.8804 C   0  0  0  0  0  0  0  0  0  0  0  0
   11.4118   -2.1740   24.6360 C   0  0  0  0  0  0  0  0  0  0  0  0
    5.9601   -3.0952   27.9898 C   0  0  0  0  0  0  0  0  0  0  0  0
    5.4523   -1.7590   28.3065 C   0  0  0  0  0  0  0  0  0  0  0  0
    5.0532   -0.6965   28.5447 N   0  0  0  0  0  0  0  0  0  0  0  0
  2  1  1  0  0  0
  2  3  1  0  0  0
  3  4  1  0  0  0
  4 19  1  0  0  0
  4  5  1  0  0  0
 19 20  2  0  0  0
 20 21  1  0  0  0
 21 22  2  0  0  0
 22 23  1  0  0  0
 23 24  2  0  0  0
 24 25  1  0  0  0
 25 26  2  0  0  0
 26 27  1  0  0  0
 27 28  2  0  0  0
 28 19  1  0  0  0
 28 23  1  0  0  0
  5  6  2  0  0  0
  7  5  1  0  0  0
  7  8  1  0  0  0
  7  2  1  0  0  0
  8  9  1  0  0  0
  9 29  1  0  0  0
  9 10  1  0  0  0
 29 30  1  0  0  0
 30 31  3  0  0  0
 10 11  2  0  0  0
 10 12  1  0  0  0
 12 13  2  0  0  0
 13 14  1  0  0  0
 14 15  2  0  0  0
 15 16  1  0  0  0
 15 17  1  0  0  0
 17 18  2  0  0  0
 18 12  1  0  0  0
 18  7  1  0  0  0
M  END
> <minimizedAffinity>
-7.97441

> <CNNscore>
0.6043196321

> <CNNaffinity>
6.4865140915

> <CNN_VS>
3.9199278355

> <CNNaffinity_variance>
0.0698802918
$$$$



37 41  0  0  0  0  0  0  0  0999 V2000
    7.3014   -1.9885   24.5849 N   0  0  0  0  0  0  0  0  0  0  0  0
    7.0912   -1.5239   23.2513 C   0  0  0  0  0  0  0  0  0  0  0  0
    6.2961   -2.1582   22.4866 O   0  0  0  0  0  0  0  0  0  0  0  0
    3.5832   -4.3099   26.9369 N   0  0  0  0  0  0  0  0  0  0  0  0
    3.0270   -3.0827   26.4985 C   0  0  0  0  0  0  0  0  0  0  0  0
    3.7056   -1.8790   27.0244 C   0  0  0  0  0  0  0  0  0  0  0  0
    5.0418   -1.7824   26.3155 C   0  0  0  0  0  0  0  0  0  0  0  0
    5.4229   -3.0956   25.7746 C   0  0  0  0  0  0  0  0  0  0  0  0
    6.5113   -3.1527   24.9317 C   0  0  0  0  0  0  0  0  0  0  0  0
    6.9622   -4.3285   24.3457 C   0  0  0  0  0  0  0  0  0  0  0  0
    6.3134   -5.5149   24.5979 C   0  0  0  0  0  0  0  0  0  0  0  0
    5.2207   -5.4440   25.4476 C   0  0  0  0  0  0  0  0  0  0  0  0
    4.7733   -4.2839   26.0272 C   0  0  0  0  0  0  0  0  0  0  0  0
    3.1821   -4.4162   27.8298 H   0  0  0  0  0  0  0  0  0  0  0  0
    3.9695   -4.2825   28.2732 C   0  0  0  0  0  0  0  0  0  0  0  0
    2.9143   -4.2898   28.9826 O   0  0  0  0  0  0  0  0  0  0  0  0
    5.0823   -3.0694   30.1140 C   0  0  0  0  0  0  0  0  0  0  0  0
    5.1640   -4.2476   29.0798 C   0  0  0  0  0  0  0  0  0  0  0  0
    8.2336   -1.4173   25.4982 C   0  0  0  0  0  0  0  0  0  0  0  0
    9.3945   -2.1952   25.8991 C   0  0  0  0  0  0  0  0  0  0  0  0
    9.3989   -3.3979   26.5426 C   0  0  0  0  0  0  0  0  0  0  0  0
   10.5603   -4.0704   26.9094 C   0  0  0  0  0  0  0  0  0  0  0  0
   11.7786   -3.5227   26.6242 C   0  0  0  0  0  0  0  0  0  0  0  0
   11.8199   -2.3069   25.9744 C   0  0  0  0  0  0  0  0  0  0  0  0
   13.4058   -1.6439   25.6304 Cl  0  0  0  0  0  0  0  0  0  0  0  0
   10.6576   -1.6508   25.6159 C   0  0  0  0  0  0  0  0  0  0  0  0
    7.7434   -0.3315   22.6701 C   0  0  0  0  0  0  0  0  0  0  0  0
    9.2170   -0.5417   22.5341 C   0  0  0  0  0  0  0  0  0  0  0  0
    9.7930   -1.7301   22.2151 C   0  0  0  0  0  0  0  0  0  0  0  0
   11.1273   -1.8390   22.1127 N   0  0  0  0  0  0  0  0  0  0  0  0
   11.9578   -0.7948   22.3165 C   0  0  0  0  0  0  0  0  0  0  0  0
   11.4178    0.4410   22.6448 C   0  0  0  0  0  0  0  0  0  0  0  0
   12.1984    1.5446   22.8654 C   0  0  0  0  0  0  0  0  0  0  0  0
   11.7074    2.7861   23.1918 C   0  0  0  0  0  0  0  0  0  0  0  0
   10.3318    2.9027   23.2985 C   0  0  0  0  0  0  0  0  0  0  0  0
    9.5388    1.7949   23.0777 C   0  0  0  0  0  0  0  0  0  0  0  0
   10.0343    0.5547   22.7512 C   0  0  0  0  0  0  0  0  0  0  0  0
 17 18  1  0  0  0
 18 15  1  0  0  0
 15 16  2  0  0  0
  4 15  1  0  0  0
  4  5  1  0  0  0
  4 14  1  0  0  0
  5  6  1  0  0  0
  6  7  1  0  0  0
  7  8  1  0  0  0
  8  9  2  0  0  0
  9  1  1  0  0  0
  9 10  1  0  0  0
  1 19  1  0  0  0
  1  2  1  0  0  0
 19 20  1  0  0  0
 20 21  2  0  0  0
 21 22  1  0  0  0
 22 23  2  0  0  0
 23 24  1  0  0  0
 24 25  1  0  0  0
 24 26  2  0  0  0
 26 20  1  0  0  0
  2  3  2  0  0  0
  2 27  1  0  0  0
 27 28  1  0  0  0
 28 29  2  0  0  0
 29 30  1  0  0  0
 30 31  2  0  0  0
 31 32  1  0  0  0
 32 33  2  0  0  0
 33 34  1  0  0  0
 34 35  2  0  0  0
 35 36  1  0  0  0
 36 37  2  0  0  0
 37 28  1  0  0  0
 37 32  1  0  0  0
 10 11  2  0  0  0
 11 12  1  0  0  0
 12 13  2  0  0  0
 13  4  1  0  0  0
 13  8  1  0  0  0
M  CHG 1   4   1
M  END
> <minimizedAffinity>
-7.33712

> <CNNscore>
0.6209551692

> <CNNaffinity>
6.9769392014

> <CNN_VS>
4.3323664665

> <CNNaffinity_variance>
0.0887917131
$$$$



19 21  0  0  0  0  0  0  0  0999 V2000
   10.4485   -2.0628   23.4566 C   0  0  0  0  0  0  0  0  0  0  0  0
   10.7895   -1.1327   22.4817 C   0  0  0  0  0  0  0  0  0  0  0  0
   11.9764   -0.4905   22.5248 N   0  0  0  0  0  0  0  0  0  0  0  0
   12.8885   -0.7018   23.4910 C   0  0  0  0  0  0  0  0  0  0  0  0
   12.5782   -1.6153   24.4671 C   0  0  0  0  0  0  0  0  0  0  0  0
   13.5306   -1.8302   25.4682 C   0  0  0  0  0  0  0  0  0  0  0  0
   13.2584   -2.7362   26.4625 C   0  0  0  0  0  0  0  0  0  0  0  0
   12.0480   -3.4044   26.4360 C   0  0  0  0  0  0  0  0  0  0  0  0
   11.0967   -3.2104   25.4633 C   0  0  0  0  0  0  0  0  0  0  0  0
   11.3731   -2.2960   24.4615 C   0  0  0  0  0  0  0  0  0  0  0  0
    9.1565   -2.7927   23.4492 C   0  0  0  0  0  0  0  0  0  0  0  0
    7.7434   -1.0026   22.9298 O   0  0  0  0  0  0  0  0  0  0  0  0
    8.1170   -1.8216   23.8095 C   0  0  0  0  0  0  0  0  0  0  0  0
    7.4981   -1.7387   25.0881 N   0  0  0  0  0  0  0  0  0  0  0  0
    6.4845   -0.7131   25.2788 C   0  0  0  0  0  0  0  0  0  0  0  0
    5.2679   -1.4203   25.8554 C   0  0  0  0  0  0  0  0  0  0  0  0
    5.6866   -1.9322   27.2189 C   0  0  0  0  0  0  0  0  0  0  0  0
    6.6970   -3.0308   27.0210 C   0  0  0  0  0  0  0  0  0  0  0  0
    7.8523   -2.6281   26.1564 C   0  0  0  0  0  0  0  0  0  0  0  0
 12 13  2  0  0  0
 13 11  1  0  0  0
 13 14  1  0  0  0
 11  1  1  0  0  0
  1  2  2  0  0  0
  2  3  1  0  0  0
  3  4  2  0  0  0
  4  5  1  0  0  0
  5  6  2  0  0  0
  6  7  1  0  0  0
  7  8  2  0  0  0
  8  9  1  0  0  0
  9 10  2  0  0  0
 10  1  1  0  0  0
 10  5  1  0  0  0
 14 15  1  0  0  0
 15 16  1  0  0  0
 16 17  1  0  0  0
 17 18  1  0  0  0
 18 19  1  0  0  0
 19 14  1  0  0  0
M  END
> <minimizedAffinity>
-6.31361

> <CNNscore>
0.8082307577

> <CNNaffinity>
5.3850555420

> <CNN_VS>
4.3523674011

> <CNNaffinity_variance>
0.1225358248
$$$$



39 44  0  0  0  0  0  0  0  0999 V2000
    5.3175   -3.9806   24.5082 C   0  0  0  0  0  0  0  0  0  0  0  0
    6.4483   -3.2148   25.1228 C   0  0  0  0  0  0  0  0  0  0  0  0
    7.7897   -3.5500   24.4562 C   0  0  0  0  0  0  0  0  0  0  0  0
    8.6038   -2.5030   25.0476 N   0  0  0  0  0  0  0  0  0  0  0  0
    7.7787   -1.3504   25.1872 C   0  0  0  0  0  0  0  0  0  0  0  0
    8.1717   -0.2191   25.6013 O   0  0  0  0  0  0  0  0  0  0  0  0
    6.3870   -1.7314   24.7576 C   0  0  0  0  0  0  0  0  0  0  0  0
    6.2712   -1.6123   23.2852 C   0  0  0  0  0  0  0  0  0  0  0  0
    5.4748   -0.5389   22.7850 N   0  0  0  0  0  0  0  0  0  0  0  0
    4.4779    0.1240   23.5689 C   0  0  0  0  0  0  0  0  0  0  0  0
    3.6514    0.9306   23.0348 O   0  0  0  0  0  0  0  0  0  0  0  0
    4.4362   -0.1500   24.9895 C   0  0  0  0  0  0  0  0  0  0  0  0
    3.4789    0.4878   25.7407 C   0  0  0  0  0  0  0  0  0  0  0  0
    3.3992    0.2604   27.0986 C   0  0  0  0  0  0  0  0  0  0  0  0
    4.2965   -0.6094   27.6498 C   0  0  0  0  0  0  0  0  0  0  0  0
    5.2689   -1.2571   26.8863 C   0  0  0  0  0  0  0  0  0  0  0  0
    5.3576   -1.0371   25.5276 C   0  0  0  0  0  0  0  0  0  0  0  0
    9.9728   -2.6809   25.3951 C   0  0  0  0  0  0  0  0  0  0  0  0
   10.3099   -3.2445   26.6107 C   0  0  0  0  0  0  0  0  0  0  0  0
   11.5817   -3.4421   27.0040 N   0  0  0  0  0  0  0  0  0  0  0  0
   12.5611   -3.0697   26.1663 C   0  0  0  0  0  0  0  0  0  0  0  0
   12.3300   -2.4978   24.9295 C   0  0  0  0  0  0  0  0  0  0  0  0
   13.3469   -2.1199   24.0791 C   0  0  0  0  0  0  0  0  0  0  0  0
   13.0552   -1.5516   22.8520 C   0  0  0  0  0  0  0  0  0  0  0  0
   11.7335   -1.3559   22.4641 C   0  0  0  0  0  0  0  0  0  0  0  0
   10.7491   -1.7519   23.3533 C   0  0  0  0  0  0  0  0  0  0  0  0
   11.0122   -2.3129   24.5655 C   0  0  0  0  0  0  0  0  0  0  0  0
    5.6673   -0.0888   21.4353 C   0  0  0  0  0  0  0  0  0  0  0  0
    6.5263    1.1467   21.3895 C   0  0  0  0  0  0  0  0  0  0  0  0
    7.0830    1.4419   20.3024 O   0  0  0  0  0  0  0  0  0  0  0  0
    6.6793    1.9307   22.5610 N   0  0  0  0  0  0  0  0  0  0  0  0
    6.2133    1.6387   23.3777 H   0  0  0  0  0  0  0  0  0  0  0  0
    7.4803    3.1355   22.6276 C   0  0  0  0  0  0  0  0  0  0  0  0
    8.9193    2.8724   22.8777 C   0  0  0  0  0  0  0  0  0  0  0  0
    9.5858    1.6783   23.0471 C   0  0  0  0  0  0  0  0  0  0  0  0
   10.9276    1.9315   23.2523 C   0  0  0  0  0  0  0  0  0  0  0  0
   11.0583    3.2569   23.2061 N   0  0  0  0  0  0  0  0  0  0  0  0
    9.8633    3.8236   22.9829 N   0  0  0  0  0  0  0  0  0  0  0  0
    9.6679    5.2635   22.8777 C   0  0  0  0  0  0  0  0  0  0  0  0
  2  1  1  0  0  0
  2  3  1  0  0  0
  3  4  1  0  0  0
  4 18  1  0  0  0
  4  5  1  0  0  0
 18 19  2  0  0  0
 19 20  1  0  0  0
 20 21  2  0  0  0
 21 22  1  0  0  0
 22 23  2  0  0  0
 23 24  1  0  0  0
 24 25  2  0  0  0
 25 26  1  0  0  0
 26 27  2  0  0  0
 27 18  1  0  0  0
 27 22  1  0  0  0
  5  6  2  0  0  0
  7  5  1  0  0  0
  7  8  1  0  0  0
  7  2  1  0  0  0
  8  9  1  0  0  0
  9 28  1  0  0  0
  9 10  1  0  0  0
 28 29  1  0  0  0
 29 30  2  0  0  0
 29 31  1  0  0  0
 31 33  1  0  0  0
 31 32  1  0  0  0
 33 34  1  0  0  0
 34 35  2  0  0  0
 35 36  1  0  0  0
 36 37  2  0  0  0
 37 38  1  0  0  0
 38 39  1  0  0  0
 38 34  1  0  0  0
 10 11  2  0  0  0
 10 12  1  0  0  0
 12 13  2  0  0  0
 13 14  1  0  0  0
 14 15  2  0  0  0
 15 16  1  0  0  0
 16 17  2  0  0  0
 17 12  1  0  0  0
 17  7  1  0  0  0
M  END
> <minimizedAffinity>
-7.51356

> <CNNscore>
0.5811072588

> <CNNaffinity>
6.8422861099

> <CNN_VS>
3.9761021137

> <CNNaffinity_variance>
0.1203371882
$$$$



35 40  0  0  0  0  0  0  0  0999 V2000
    7.4566    1.3443   20.8358 N   0  0  0  0  0  0  0  0  0  0  0  0
    6.8930    0.7826   22.0469 C   0  0  0  0  0  0  0  0  0  0  0  0
    5.4902    1.2586   22.3072 C   0  0  0  0  0  0  0  0  0  0  0  0
    5.4701    2.6656   22.8215 C   0  0  0  0  0  0  0  0  0  0  0  0
    6.2216    3.6242   22.5026 O   0  0  0  0  0  0  0  0  0  0  0  0
    4.3970    2.7341   23.7843 N   0  0  0  0  0  0  0  0  0  0  0  0
    4.2702    1.4078   24.3914 C   0  0  0  0  0  0  0  0  0  0  0  0
    4.8582    0.4440   23.3876 C   0  0  0  0  0  0  0  0  0  0  0  0
    5.8651   -0.4091   24.1398 C   0  0  0  0  0  0  0  0  0  0  0  0
    4.6478    1.1992   21.1026 C   0  0  0  0  0  0  0  0  0  0  0  0
    3.2620    1.1277   21.2417 C   0  0  0  0  0  0  0  0  0  0  0  0
    2.4970    1.0731   20.0945 C   0  0  0  0  0  0  0  0  0  0  0  0
    1.1443    1.0034   20.2465 F   0  0  0  0  0  0  0  0  0  0  0  0
    3.0427    1.0862   18.8257 C   0  0  0  0  0  0  0  0  0  0  0  0
    4.4284    1.1577   18.6880 C   0  0  0  0  0  0  0  0  0  0  0  0
    5.2032    1.2129   19.8385 C   0  0  0  0  0  0  0  0  0  0  0  0
    6.6402    1.2867   19.6603 C   0  0  0  0  0  0  0  0  0  0  0  0
    7.1945    1.3019   18.5235 O   0  0  0  0  0  0  0  0  0  0  0  0
    3.6276    3.8982   24.0624 C   0  0  0  0  0  0  0  0  0  0  0  0
    4.2196    5.0139   24.6464 C   0  0  0  0  0  0  0  0  0  0  0  0
    3.5129    6.1272   24.9193 N   0  0  0  0  0  0  0  0  0  0  0  0
    2.1828    6.1719   24.6194 C   0  0  0  0  0  0  0  0  0  0  0  0
    1.5730    5.0784   24.0400 C   0  0  0  0  0  0  0  0  0  0  0  0
    0.2158    5.1221   23.7331 C   0  0  0  0  0  0  0  0  0  0  0  0
   -0.4306    4.0360   23.1479 C   0  0  0  0  0  0  0  0  0  0  0  0
    0.3250    2.8926   22.8747 C   0  0  0  0  0  0  0  0  0  0  0  0
    1.6669    2.8229   23.1676 C   0  0  0  0  0  0  0  0  0  0  0  0
    2.2801    3.9288   23.7528 C   0  0  0  0  0  0  0  0  0  0  0  0
    8.7839    1.9437   20.7875 C   0  0  0  0  0  0  0  0  0  0  0  0
   12.7541    0.6621   23.6125 C   0  0  0  0  0  0  0  0  0  0  0  0
   11.4305    0.6390   22.9403 C   0  0  0  0  0  0  0  0  0  0  0  0
   10.9949    1.6501   22.1095 C   0  0  0  0  0  0  0  0  0  0  0  0
    9.7353    1.2599   21.6899 C   0  0  0  0  0  0  0  0  0  0  0  0
    9.4758    0.0981   22.2504 O   0  0  0  0  0  0  0  0  0  0  0  0
   10.4575   -0.2860   22.9892 N   0  0  0  0  0  0  0  0  0  0  0  0
 30 31  1  0  0  0
 31 32  1  0  0  0
 32 33  2  0  0  0
 33 29  1  0  0  0
 33 34  1  0  0  0
 29  1  1  0  0  0
  1  2  1  0  0  0
  3  2  1  0  0  0
  3  4  1  0  0  0
  3 10  1  0  0  0
  4  5  2  0  0  0
  4  6  1  0  0  0
  6 19  1  0  0  0
  6  7  1  0  0  0
 19 20  2  0  0  0
 20 21  1  0  0  0
 21 22  2  0  0  0
 22 23  1  0  0  0
 23 24  2  0  0  0
 24 25  1  0  0  0
 25 26  2  0  0  0
 26 27  1  0  0  0
 27 28  2  0  0  0
 28 19  1  0  0  0
 28 23  1  0  0  0
  7  8  1  0  0  0
  8  9  1  0  0  0
  8  3  1  0  0  0
 10 11  2  0  0  0
 11 12  1  0  0  0
 12 13  1  0  0  0
 12 14  2  0  0  0
 14 15  1  0  0  0
 15 16  2  0  0  0
 16 17  1  0  0  0
 16 10  1  0  0  0
 17 18  2  0  0  0
 17  1  1  0  0  0
 34 35  1  0  0  0
 35 31  2  0  0  0
M  END
> <minimizedAffinity>
4.36865

> <CNNscore>
0.4707332850

> <CNNaffinity>
6.2612981796

> <CNN_VS>
2.9474015236

> <CNNaffinity_variance>
1.0867280960
$$$$



39 44  0  0  0  0  0  0  0  0999 V2000
    7.6861   -2.3851   25.2766 N   0  0  0  0  0  0  0  0  0  0  0  0
    7.8375   -1.7790   23.9749 C   0  0  0  0  0  0  0  0  0  0  0  0
    6.7951   -0.7957   23.5871 C   0  0  0  0  0  0  0  0  0  0  0  0
    6.2598   -1.1184   22.2090 C   0  0  0  0  0  0  0  0  0  0  0  0
    5.5729   -2.1240   21.8827 O   0  0  0  0  0  0  0  0  0  0  0  0
    6.6482   -0.1008   21.2972 N   0  0  0  0  0  0  0  0  0  0  0  0
    7.8254    0.5722   21.8677 C   0  0  0  0  0  0  0  0  0  0  0  0
    7.4419    0.5509   23.3354 C   0  0  0  0  0  0  0  0  0  0  0  0
    8.7148    0.7617   24.1191 C   0  0  0  0  0  0  0  0  0  0  0  0
    5.6384   -0.7009   24.4780 C   0  0  0  0  0  0  0  0  0  0  0  0
    4.5981    0.1386   24.0925 C   0  0  0  0  0  0  0  0  0  0  0  0
    3.4732    0.2997   24.8552 C   0  0  0  0  0  0  0  0  0  0  0  0
    2.1709    1.3661   24.3481 Cl  0  0  0  0  0  0  0  0  0  0  0  0
    3.3123   -0.3652   26.0516 C   0  0  0  0  0  0  0  0  0  0  0  0
    4.3415   -1.2023   26.4432 C   0  0  0  0  0  0  0  0  0  0  0  0
    5.4773   -1.3629   25.6696 C   0  0  0  0  0  0  0  0  0  0  0  0
    6.5457   -2.2515   26.1021 C   0  0  0  0  0  0  0  0  0  0  0  0
    6.4577   -2.8790   27.1732 O   0  0  0  0  0  0  0  0  0  0  0  0
    5.9935    0.1863   20.0667 C   0  0  0  0  0  0  0  0  0  0  0  0
    6.3943   -0.4504   18.8903 C   0  0  0  0  0  0  0  0  0  0  0  0
    5.7788   -0.1825   17.7220 N   0  0  0  0  0  0  0  0  0  0  0  0
    4.7686    0.6861   17.6036 C   0  0  0  0  0  0  0  0  0  0  0  0
    4.3459    1.3353   18.7520 C   0  0  0  0  0  0  0  0  0  0  0  0
    3.2937    2.2454   18.6510 C   0  0  0  0  0  0  0  0  0  0  0  0
    2.8562    2.9037   19.7819 C   0  0  0  0  0  0  0  0  0  0  0  0
    3.4633    2.6521   20.9870 C   0  0  0  0  0  0  0  0  0  0  0  0
    4.5042    1.7503   21.0804 C   0  0  0  0  0  0  0  0  0  0  0  0
    4.9507    1.0893   19.9711 C   0  0  0  0  0  0  0  0  0  0  0  0
    8.7797   -3.1971   25.7872 C   0  0  0  0  0  0  0  0  0  0  0  0
    9.7979   -3.2990   24.6627 C   0  0  0  0  0  0  0  0  0  0  0  0
   14.1560   -2.2665   26.4032 C   0  0  0  0  0  0  0  0  0  0  0  0
   13.2357   -2.1520   25.2058 C   0  0  0  0  0  0  0  0  0  0  0  0
   11.9879   -2.9306   25.5592 C   0  0  0  0  0  0  0  0  0  0  0  0
   10.8923   -2.3649   24.8041 N   0  0  0  0  0  0  0  0  0  0  0  0
   11.3831   -1.8249   23.5761 C   0  0  0  0  0  0  0  0  0  0  0  0
   12.1707   -0.5549   23.9269 C   0  0  0  0  0  0  0  0  0  0  0  0
   12.9760   -0.0885   22.7340 C   0  0  0  0  0  0  0  0  0  0  0  0
   12.9581   -0.8149   25.0270 O   0  0  0  0  0  0  0  0  0  0  0  0
   10.4848   -1.5846   25.3193 H   0  0  0  0  0  0  0  0  0  0  0  0
 32 31  1  0  0  0
 32 33  1  0  0  0
 33 34  1  0  0  0
 34 30  1  0  0  0
 34 35  1  0  0  0
 34 39  1  0  0  0
 30 29  1  0  0  0
 29  1  1  0  0  0
  1  2  1  0  0  0
  3  2  1  0  0  0
  3  4  1  0  0  0
  3 10  1  0  0  0
  4  5  2  0  0  0
  4  6  1  0  0  0
  6 19  1  0  0  0
  6  7  1  0  0  0
 19 20  2  0  0  0
 20 21  1  0  0  0
 21 22  2  0  0  0
 22 23  1  0  0  0
 23 24  2  0  0  0
 24 25  1  0  0  0
 25 26  2  0  0  0
 26 27  1  0  0  0
 27 28  2  0  0  0
 28 19  1  0  0  0
 28 23  1  0  0  0
  7  8  1  0  0  0
  8  9  1  0  0  0
  8  3  1  0  0  0
 10 11  2  0  0  0
 11 12  1  0  0  0
 12 13  1  0  0  0
 12 14  2  0  0  0
 14 15  1  0  0  0
 15 16  2  0  0  0
 16 17  1  0  0  0
 16 10  1  0  0  0
 17 18  2  0  0  0
 17  1  1  0  0  0
 35 36  1  0  0  0
 36 37  1  0  0  0
 36 38  1  0  0  0
 38 32  1  0  0  0
M  CHG 1  34   1
M  END
> <minimizedAffinity>
-9.55632

> <CNNscore>
0.5120918751

> <CNNaffinity>
6.9125175476

> <CNN_VS>
3.5398440361

> <CNNaffinity_variance>
0.0544676296
$$$$



28 31  0  0  0  0  0  0  0  0999 V2000
   11.1122    0.6572   22.9908 C   0  0  0  0  0  0  0  0  0  0  0  0
   11.3862    2.0434   23.4867 C   0  0  0  0  0  0  0  0  0  0  0  0
   10.6493    3.0007   22.5397 C   0  0  0  0  0  0  0  0  0  0  0  0
   11.0745    4.3955   22.8780 C   0  0  0  0  0  0  0  0  0  0  0  0
    9.1519    2.8564   22.7038 C   0  0  0  0  0  0  0  0  0  0  0  0
    8.8066    1.5648   23.4418 C   0  0  0  0  0  0  0  0  0  0  0  0
    9.6492    0.4785   23.0185 N   0  0  0  0  0  0  0  0  0  0  0  0
    9.1760   -0.7930   22.6120 C   0  0  0  0  0  0  0  0  0  0  0  0
    9.9229   -1.7374   22.2440 O   0  0  0  0  0  0  0  0  0  0  0  0
   12.8909   -1.0834   23.3204 C   0  0  0  0  0  0  0  0  0  0  0  0
   13.4387   -2.0365   24.1560 C   0  0  0  0  0  0  0  0  0  0  0  0
   12.9406   -2.3131   25.4129 C   0  0  0  0  0  0  0  0  0  0  0  0
   11.8400   -1.6147   25.8796 C   0  0  0  0  0  0  0  0  0  0  0  0
   11.2844   -0.6581   25.0498 C   0  0  0  0  0  0  0  0  0  0  0  0
   11.7964   -0.3890   23.7845 C   0  0  0  0  0  0  0  0  0  0  0  0
   13.0620   -1.7097   21.0159 C   0  0  0  0  0  0  0  0  0  0  0  0
   13.3981   -0.8108   22.0570 O   0  0  0  0  0  0  0  0  0  0  0  0
    7.7179   -1.0235   22.6210 C   0  0  0  0  0  0  0  0  0  0  0  0
    7.3532   -2.2331   23.4220 C   0  0  0  0  0  0  0  0  0  0  0  0
    7.4279   -3.4969   22.8791 C   0  0  0  0  0  0  0  0  0  0  0  0
    7.1047   -4.6131   23.5805 N   0  0  0  0  0  0  0  0  0  0  0  0
    6.6859   -4.5391   24.8694 C   0  0  0  0  0  0  0  0  0  0  0  0
    6.5946   -3.2796   25.4613 C   0  0  0  0  0  0  0  0  0  0  0  0
    6.1721   -3.1319   26.7801 C   0  0  0  0  0  0  0  0  0  0  0  0
    6.0734   -1.8975   27.3881 C   0  0  0  0  0  0  0  0  0  0  0  0
    6.4148   -0.7939   26.6285 C   0  0  0  0  0  0  0  0  0  0  0  0
    6.8390   -0.8900   25.3175 C   0  0  0  0  0  0  0  0  0  0  0  0
    6.9273   -2.1400   24.7371 C   0  0  0  0  0  0  0  0  0  0  0  0
 16 17  1  0  0  0
 17 10  1  0  0  0
 10 11  2  0  0  0
 11 12  1  0  0  0
 12 13  2  0  0  0
 13 14  1  0  0  0
 14 15  2  0  0  0
 15 10  1  0  0  0
  1 15  1  0  0  0
  1  2  1  0  0  0
  2  3  1  0  0  0
  3  4  1  0  0  0
  3  5  1  0  0  0
  5  6  1  0  0  0
  6  7  1  0  0  0
  7  8  1  0  0  0
  7  1  1  0  0  0
  8  9  2  0  0  0
  8 18  1  0  0  0
 18 19  1  0  0  0
 19 20  2  0  0  0
 20 21  1  0  0  0
 21 22  2  0  0  0
 22 23  1  0  0  0
 23 24  2  0  0  0
 24 25  1  0  0  0
 25 26  2  0  0  0
 26 27  1  0  0  0
 27 28  2  0  0  0
 28 19  1  0  0  0
 28 23  1  0  0  0
M  END
> <minimizedAffinity>
-7.17590

> <CNNscore>
0.6551314592

> <CNNaffinity>
6.4074997902

> <CNN_VS>
4.1977548599

> <CNNaffinity_variance>
0.2010509968
$$$$



24 27  0  0  0  0  0  0  0  0999 V2000
    8.2855    0.5014   20.5096 O   0  0  0  0  0  0  0  0  0  0  0  0
    7.7998   -0.4394   21.2363 C   0  0  0  0  0  0  0  0  0  0  0  0
    8.6676   -1.1303   22.1557 N   0  0  0  0  0  0  0  0  0  0  0  0
    8.3306   -2.1815   23.0928 C   0  0  0  0  0  0  0  0  0  0  0  0
    9.6743   -2.7342   23.4874 C   0  0  0  0  0  0  0  0  0  0  0  0
   10.5796   -1.5644   23.4493 C   0  0  0  0  0  0  0  0  0  0  0  0
   12.0452   -1.9315   23.3342 C   0  0  0  0  0  0  0  0  0  0  0  0
   12.8293   -0.8685   24.0627 C   0  0  0  0  0  0  0  0  0  0  0  0
   11.8042    0.1978   24.3789 C   0  0  0  0  0  0  0  0  0  0  0  0
   10.5749   -0.6640   24.6390 C   0  0  0  0  0  0  0  0  0  0  0  0
   10.0910   -0.8108   22.2552 C   0  0  0  0  0  0  0  0  0  0  0  0
    9.4944   -3.3457   24.8610 C   0  0  0  0  0  0  0  0  0  0  0  0
   10.5504   -4.1423   25.2326 F   0  0  0  0  0  0  0  0  0  0  0  0
    6.3412   -0.7997   21.1278 C   0  0  0  0  0  0  0  0  0  0  0  0
    5.6994   -0.1076   19.9964 C   0  0  0  0  0  0  0  0  0  0  0  0
    6.0015   -0.6121   18.7230 C   0  0  0  0  0  0  0  0  0  0  0  0
    5.4298   -0.1132   17.6056 N   0  0  0  0  0  0  0  0  0  0  0  0
    4.5365    0.9112   17.7325 C   0  0  0  0  0  0  0  0  0  0  0  0
    4.2310    1.4179   18.9669 C   0  0  0  0  0  0  0  0  0  0  0  0
    3.3209    2.4511   19.0200 C   0  0  0  0  0  0  0  0  0  0  0  0
    3.0136    2.9633   20.2602 C   0  0  0  0  0  0  0  0  0  0  0  0
    3.5747    2.4866   21.4353 C   0  0  0  0  0  0  0  0  0  0  0  0
    4.4829    1.4474   21.3257 C   0  0  0  0  0  0  0  0  0  0  0  0
    4.7969    0.9289   20.1199 C   0  0  0  0  0  0  0  0  0  0  0  0
  1  2  2  0  0  0
  2 14  1  0  0  0
  2  3  1  0  0  0
 14 15  1  0  0  0
 15 16  2  0  0  0
 16 17  1  0  0  0
 17 18  2  0  0  0
 18 19  1  0  0  0
 19 20  2  0  0  0
 20 21  1  0  0  0
 21 22  2  0  0  0
 22 23  1  0  0  0
 23 24  2  0  0  0
 24 15  1  0  0  0
 24 19  1  0  0  0
  3  4  1  0  0  0
  4  5  1  0  0  0
  5 12  1  0  0  0
  5  6  1  0  0  0
 12 13  1  0  0  0
  6  7  1  0  0  0
  6 11  1  0  0  0
  7  8  1  0  0  0
  8  9  1  0  0  0
  9 10  1  0  0  0
 10  6  1  0  0  0
 11  3  1  0  0  0
M  END
> <minimizedAffinity>
-7.63919

> <CNNscore>
0.8592651486

> <CNNaffinity>
6.1132597923

> <CNN_VS>
5.2529110909

> <CNNaffinity_variance>
0.0845566541
$$$$



39 44  0  0  0  0  0  0  0  0999 V2000
    7.3734   -3.8804   23.2625 N   0  0  0  0  0  0  0  0  0  0  0  0
    8.2231   -2.7912   22.8289 C   0  0  0  0  0  0  0  0  0  0  0  0
    7.6076   -1.4235   23.1502 C   0  0  0  0  0  0  0  0  0  0  0  0
    6.4739   -1.1462   22.2258 C   0  0  0  0  0  0  0  0  0  0  0  0
    5.4238   -1.8557   22.1896 O   0  0  0  0  0  0  0  0  0  0  0  0
    6.7494   -0.0044   21.4245 N   0  0  0  0  0  0  0  0  0  0  0  0
    7.8318    0.7321   22.0600 C   0  0  0  0  0  0  0  0  0  0  0  0
    8.5605   -0.3142   22.8799 C   0  0  0  0  0  0  0  0  0  0  0  0
    7.1729   -1.3999   24.5679 C   0  0  0  0  0  0  0  0  0  0  0  0
    7.0420   -0.2263   25.2950 C   0  0  0  0  0  0  0  0  0  0  0  0
    6.6364   -0.2032   26.6133 C   0  0  0  0  0  0  0  0  0  0  0  0
    6.4796    1.2980   27.5089 Cl  0  0  0  0  0  0  0  0  0  0  0  0
    6.3367   -1.3717   27.2804 C   0  0  0  0  0  0  0  0  0  0  0  0
    6.4577   -2.5545   26.5824 C   0  0  0  0  0  0  0  0  0  0  0  0
    6.8619   -2.5675   25.2718 C   0  0  0  0  0  0  0  0  0  0  0  0
    6.9546   -3.8803   24.6237 C   0  0  0  0  0  0  0  0  0  0  0  0
    6.6840   -4.9554   25.2187 O   0  0  0  0  0  0  0  0  0  0  0  0
    6.0610    0.3236   20.2163 C   0  0  0  0  0  0  0  0  0  0  0  0
    6.6070   -0.2146   19.0519 C   0  0  0  0  0  0  0  0  0  0  0  0
    6.0638    0.0103   17.8401 N   0  0  0  0  0  0  0  0  0  0  0  0
    4.9680    0.7754   17.7720 C   0  0  0  0  0  0  0  0  0  0  0  0
    4.3871    1.3341   18.9035 C   0  0  0  0  0  0  0  0  0  0  0  0
    3.2589    2.1175   18.8001 C   0  0  0  0  0  0  0  0  0  0  0  0
    2.7048    2.6595   19.9487 C   0  0  0  0  0  0  0  0  0  0  0  0
    3.2874    2.4094   21.1809 C   0  0  0  0  0  0  0  0  0  0  0  0
    4.4242    1.6225   21.3042 C   0  0  0  0  0  0  0  0  0  0  0  0
    4.9487    1.1016   20.1568 C   0  0  0  0  0  0  0  0  0  0  0  0
    6.9420   -4.9520   22.3801 C   0  0  0  0  0  0  0  0  0  0  0  0
    3.5084   -6.4820   23.2170 C   0  0  0  0  0  0  0  0  0  0  0  0
    4.9624   -6.3465   23.2065 N   0  0  0  0  0  0  0  0  0  0  0  0
    5.4880   -5.2375   22.4914 C   0  0  0  0  0  0  0  0  0  0  0  0
    4.7166   -4.4171   21.8980 O   0  0  0  0  0  0  0  0  0  0  0  0
    5.5467   -6.9890   23.6702 H   0  0  0  0  0  0  0  0  0  0  0  0
    9.7687   -0.7118   22.0775 C   0  0  0  0  0  0  0  0  0  0  0  0
   10.8738   -0.2111   22.8053 O   0  0  0  0  0  0  0  0  0  0  0  0
   11.5559   -1.1856   23.4867 C   0  0  0  0  0  0  0  0  0  0  0  0
   11.5516   -0.7834   24.9668 C   0  0  0  0  0  0  0  0  0  0  0  0
   10.6850   -1.7053   25.8385 C   0  0  0  0  0  0  0  0  0  0  0  0
   12.1610   -1.6739   25.9763 C   0  0  0  0  0  0  0  0  0  0  0  0
 29 30  1  0  0  0
 30 31  1  0  0  0
 30 33  1  0  0  0
 31 32  2  0  0  0
 31 28  1  0  0  0
 28  1  1  0  0  0
  1  2  1  0  0  0
  3  2  1  0  0  0
  3  4  1  0  0  0
  3  9  1  0  0  0
  4  5  2  0  0  0
  4  6  1  0  0  0
  6 18  1  0  0  0
  6  7  1  0  0  0
 18 19  2  0  0  0
 19 20  1  0  0  0
 20 21  2  0  0  0
 21 22  1  0  0  0
 22 23  2  0  0  0
 23 24  1  0  0  0
 24 25  2  0  0  0
 25 26  1  0  0  0
 26 27  2  0  0  0
 27 18  1  0  0  0
 27 22  1  0  0  0
  7  8  1  0  0  0
  8 34  1  0  0  0
  8  3  1  0  0  0
 34 35  1  0  0  0
 35 36  1  0  0  0
 36 37  1  0  0  0
 37 38  1  0  0  0
 38 39  1  0  0  0
 39 37  1  0  0  0
  9 10  2  0  0  0
 10 11  1  0  0  0
 11 12  1  0  0  0
 11 13  2  0  0  0
 13 14  1  0  0  0
 14 15  2  0  0  0
 15 16  1  0  0  0
 15  9  1  0  0  0
 16 17  2  0  0  0
 16  1  1  0  0  0
M  END
> <minimizedAffinity>
-8.36147

> <CNNscore>
0.8010094166

> <CNNaffinity>
7.1202535629

> <CNN_VS>
5.7033901215

> <CNNaffinity_variance>
0.0105131334
$$$$



38 44  0  0  0  0  0  0  0  0999 V2000
   10.2061    1.0579   22.8909 C   0  0  0  0  0  0  0  0  0  0  0  0
    9.2246    0.3457   21.9838 C   0  0  0  0  0  0  0  0  0  0  0  0
    9.5990   -1.1196   21.9917 C   0  0  0  0  0  0  0  0  0  0  0  0
    9.0447   -1.5690   23.2518 N   0  0  0  0  0  0  0  0  0  0  0  0
    7.8521   -0.8263   23.4563 C   0  0  0  0  0  0  0  0  0  0  0  0
    6.8825   -1.1170   24.2367 O   0  0  0  0  0  0  0  0  0  0  0  0
    7.8731    0.3764   22.6176 C   0  0  0  0  0  0  0  0  0  0  0  0
    7.6379    1.5874   23.4742 C   0  0  0  0  0  0  0  0  0  0  0  0
    7.3193    2.7892   22.7900 N   0  0  0  0  0  0  0  0  0  0  0  0
    6.4173    2.7450   21.6976 C   0  0  0  0  0  0  0  0  0  0  0  0
    5.8451    3.8025   21.2984 O   0  0  0  0  0  0  0  0  0  0  0  0
    6.1884    1.4506   21.0730 C   0  0  0  0  0  0  0  0  0  0  0  0
    5.2554    1.4160   20.0497 C   0  0  0  0  0  0  0  0  0  0  0  0
    4.9310    0.2310   19.4472 C   0  0  0  0  0  0  0  0  0  0  0  0
    5.5637   -0.9062   19.8974 C   0  0  0  0  0  0  0  0  0  0  0  0
    5.1338   -2.4184   19.1139 Cl  0  0  0  0  0  0  0  0  0  0  0  0
    6.5072   -0.8688   20.9317 C   0  0  0  0  0  0  0  0  0  0  0  0
    6.8411    0.3410   21.5472 C   0  0  0  0  0  0  0  0  0  0  0  0
    9.5248   -2.5428   24.1645 C   0  0  0  0  0  0  0  0  0  0  0  0
    8.7830   -3.6968   24.4273 C   0  0  0  0  0  0  0  0  0  0  0  0
    9.2149   -4.6365   25.2882 N   0  0  0  0  0  0  0  0  0  0  0  0
   10.3779   -4.5413   25.9549 C   0  0  0  0  0  0  0  0  0  0  0  0
   11.1558   -3.4183   25.7342 C   0  0  0  0  0  0  0  0  0  0  0  0
   12.3530   -3.2945   26.4043 C   0  0  0  0  0  0  0  0  0  0  0  0
   13.1422   -2.1863   26.2004 C   0  0  0  0  0  0  0  0  0  0  0  0
   12.7072   -1.2182   25.3197 C   0  0  0  0  0  0  0  0  0  0  0  0
   11.5187   -1.3254   24.6445 C   0  0  0  0  0  0  0  0  0  0  0  0
   10.7192   -2.4339   24.8421 C   0  0  0  0  0  0  0  0  0  0  0  0
    7.8436    4.1140   23.1367 C   0  0  0  0  0  0  0  0  0  0  0  0
    9.3178    4.0164   23.4981 C   0  0  0  0  0  0  0  0  0  0  0  0
   10.0962    4.7784   22.5410 N   0  0  0  0  0  0  0  0  0  0  0  0
   10.9871    3.8879   21.7768 C   0  0  0  0  0  0  0  0  0  0  0  0
   12.3811    4.2113   22.2274 C   0  0  0  0  0  0  0  0  0  0  0  0
   12.0858    4.7313   23.6372 C   0  0  0  0  0  0  0  0  0  0  0  0
   11.0096    5.7086   23.1345 C   0  0  0  0  0  0  0  0  0  0  0  0
   11.8032    6.3388   22.0208 C   0  0  0  0  0  0  0  0  0  0  0  0
   12.7472    5.3989   21.6021 O   0  0  0  0  0  0  0  0  0  0  0  0
    9.3897    5.2597   21.9844 H   0  0  0  0  0  0  0  0  0  0  0  0
  2  1  1  0  0  0
  2  3  1  0  0  0
  3  4  1  0  0  0
  4 19  1  0  0  0
  4  5  1  0  0  0
 19 20  2  0  0  0
 20 21  1  0  0  0
 21 22  2  0  0  0
 22 23  1  0  0  0
 23 24  2  0  0  0
 24 25  1  0  0  0
 25 26  2  0  0  0
 26 27  1  0  0  0
 27 28  2  0  0  0
 28 19  1  0  0  0
 28 23  1  0  0  0
  5  6  2  0  0  0
  7  5  1  0  0  0
  7  8  1  0  0  0
  7  2  1  0  0  0
  8  9  1  0  0  0
  9 29  1  0  0  0
  9 10  1  0  0  0
 29 30  1  0  0  0
 31 30  1  0  0  0
 31 32  1  0  0  0
 31 38  1  0  0  0
 33 32  1  0  0  0
 33 34  1  0  0  0
 34 35  1  0  0  0
 35 36  1  0  0  0
 35 31  1  0  0  0
 36 37  1  0  0  0
 37 33  1  0  0  0
 10 11  2  0  0  0
 10 12  1  0  0  0
 12 13  2  0  0  0
 13 14  1  0  0  0
 14 15  2  0  0  0
 15 16  1  0  0  0
 15 17  1  0  0  0
 17 18  2  0  0  0
 18 12  1  0  0  0
 18  7  1  0  0  0
M  CHG 1  31   1
M  END
> <minimizedAffinity>
-8.84490

> <CNNscore>
0.4887001812

> <CNNaffinity>
7.0386495590

> <CNN_VS>
3.4397892952

> <CNNaffinity_variance>
0.0584159568
$$$$



39 44  0  0  0  0  0  0  0  0999 V2000
    8.6499    3.4376   23.2975 N   0  0  0  0  0  0  0  0  0  0  0  0
    8.0457    2.3376   24.0287 C   0  0  0  0  0  0  0  0  0  0  0  0
    8.4304    1.0616   23.3793 C   0  0  0  0  0  0  0  0  0  0  0  0
    7.8658    1.1330   21.9776 C   0  0  0  0  0  0  0  0  0  0  0  0
    8.4446    1.4202   20.9190 O   0  0  0  0  0  0  0  0  0  0  0  0
    6.4698    0.7906   22.1030 N   0  0  0  0  0  0  0  0  0  0  0  0
    6.2746    0.1479   23.3871 C   0  0  0  0  0  0  0  0  0  0  0  0
    7.6996   -0.1407   23.8833 C   0  0  0  0  0  0  0  0  0  0  0  0
    7.6852   -0.3101   25.3635 C   0  0  0  0  0  0  0  0  0  0  0  0
    9.8718    0.9358   23.2271 C   0  0  0  0  0  0  0  0  0  0  0  0
   10.5491   -0.2853   23.2124 C   0  0  0  0  0  0  0  0  0  0  0  0
   11.9149   -0.3672   23.0431 C   0  0  0  0  0  0  0  0  0  0  0  0
   12.7429   -1.9321   23.0291 Cl  0  0  0  0  0  0  0  0  0  0  0  0
   12.6864    0.7645   22.8784 C   0  0  0  0  0  0  0  0  0  0  0  0
   12.0251    1.9742   22.8923 C   0  0  0  0  0  0  0  0  0  0  0  0
   10.6633    2.0544   23.0617 C   0  0  0  0  0  0  0  0  0  0  0  0
   10.0523    3.3783   23.0914 C   0  0  0  0  0  0  0  0  0  0  0  0
   10.7655    4.3722   22.9366 O   0  0  0  0  0  0  0  0  0  0  0  0
    5.4457    1.0268   21.1556 C   0  0  0  0  0  0  0  0  0  0  0  0
    5.5840    0.8992   19.8033 C   0  0  0  0  0  0  0  0  0  0  0  0
    4.5268    1.1545   19.0080 N   0  0  0  0  0  0  0  0  0  0  0  0
    3.3260    1.5345   19.4980 C   0  0  0  0  0  0  0  0  0  0  0  0
    3.1246    1.6813   20.8647 C   0  0  0  0  0  0  0  0  0  0  0  0
    1.9138    2.0672   21.4012 C   0  0  0  0  0  0  0  0  0  0  0  0
    1.7584    2.2015   22.7807 C   0  0  0  0  0  0  0  0  0  0  0  0
    2.8349    1.9429   23.6108 C   0  0  0  0  0  0  0  0  0  0  0  0
    4.0306    1.5592   23.0395 C   0  0  0  0  0  0  0  0  0  0  0  0
    4.2081    1.4197   21.6769 C   0  0  0  0  0  0  0  0  0  0  0  0
    7.8215    4.5024   22.8605 C   0  0  0  0  0  0  0  0  0  0  0  0
    6.5022    4.1433   22.2904 C   0  0  0  0  0  0  0  0  0  0  0  0
    2.1989    5.7438   21.9504 C   0  0  0  0  0  0  0  0  0  0  0  0
    3.6445    5.6728   22.3986 C   0  0  0  0  0  0  0  0  0  0  0  0
    4.4187    4.9147   21.3775 C   0  0  0  0  0  0  0  0  0  0  0  0
    5.8464    5.0665   21.4383 N   0  0  0  0  0  0  0  0  0  0  0  0
    6.2252    6.4201   21.8456 C   0  0  0  0  0  0  0  0  0  0  0  0
    5.9377    7.3089   20.6282 C   0  0  0  0  0  0  0  0  0  0  0  0
    5.4021    6.8888   22.9990 C   0  0  0  0  0  0  0  0  0  0  0  0
    4.0674    6.9911   22.5429 O   0  0  0  0  0  0  0  0  0  0  0  0
    6.1557    4.8754   20.4853 H   0  0  0  0  0  0  0  0  0  0  0  0
 32 31  1  0  0  0
 32 33  1  0  0  0
 33 34  1  0  0  0
 34 30  1  0  0  0
 34 35  1  0  0  0
 34 39  1  0  0  0
 30 29  1  0  0  0
 29  1  1  0  0  0
  1  2  1  0  0  0
  3  2  1  0  0  0
  3  4  1  0  0  0
  3 10  1  0  0  0
  4  5  2  0  0  0
  4  6  1  0  0  0
  6 19  1  0  0  0
  6  7  1  0  0  0
 19 20  2  0  0  0
 20 21  1  0  0  0
 21 22  2  0  0  0
 22 23  1  0  0  0
 23 24  2  0  0  0
 24 25  1  0  0  0
 25 26  2  0  0  0
 26 27  1  0  0  0
 27 28  2  0  0  0
 28 19  1  0  0  0
 28 23  1  0  0  0
  7  8  1  0  0  0
  8  9  1  0  0  0
  8  3  1  0  0  0
 10 11  2  0  0  0
 11 12  1  0  0  0
 12 13  1  0  0  0
 12 14  2  0  0  0
 14 15  1  0  0  0
 15 16  2  0  0  0
 16 17  1  0  0  0
 16 10  1  0  0  0
 17 18  2  0  0  0
 17  1  1  0  0  0
 35 36  1  0  0  0
 35 37  1  0  0  0
 37 38  1  0  0  0
 38 32  1  0  0  0
M  CHG 1  34   1
M  END
> <minimizedAffinity>
-8.02543

> <CNNscore>
0.6194881797

> <CNNaffinity>
6.7388572693

> <CNN_VS>
4.1746425629

> <CNNaffinity_variance>
0.0923090503
$$$$



25 28  0  0  0  0  0  0  0  0999 V2000
    6.8769   -0.3740   20.3217 C   0  0  0  0  0  0  0  0  0  0  0  0
    7.9802    0.4723   20.9244 C   0  0  0  0  0  0  0  0  0  0  0  0
    7.4436    1.4318   21.9477 C   0  0  0  0  0  0  0  0  0  0  0  0
    8.3477    1.2970   23.1575 C   0  0  0  0  0  0  0  0  0  0  0  0
    8.6374   -0.1375   23.1368 N   0  0  0  0  0  0  0  0  0  0  0  0
    8.6221   -1.0619   24.2167 C   0  0  0  0  0  0  0  0  0  0  0  0
    8.3241   -0.6423   25.3622 O   0  0  0  0  0  0  0  0  0  0  0  0
    8.9474   -0.4063   21.7256 C   0  0  0  0  0  0  0  0  0  0  0  0
    9.5612    2.1068   23.1056 C   0  0  0  0  0  0  0  0  0  0  0  0
   10.8452    1.6447   23.2956 C   0  0  0  0  0  0  0  0  0  0  0  0
   11.9547    2.4898   23.2311 C   0  0  0  0  0  0  0  0  0  0  0  0
   11.8023    3.8324   22.9716 C   0  0  0  0  0  0  0  0  0  0  0  0
   10.5098    4.3158   22.7767 C   0  0  0  0  0  0  0  0  0  0  0  0
    9.4287    3.4612   22.8455 C   0  0  0  0  0  0  0  0  0  0  0  0
    8.9623   -2.4760   23.9172 C   0  0  0  0  0  0  0  0  0  0  0  0
    9.7770   -3.0464   25.0353 C   0  0  0  0  0  0  0  0  0  0  0  0
    9.2501   -3.9364   25.9521 C   0  0  0  0  0  0  0  0  0  0  0  0
    9.9583   -4.4597   26.9594 N   0  0  0  0  0  0  0  0  0  0  0  0
   11.2496   -4.1279   27.1208 C   0  0  0  0  0  0  0  0  0  0  0  0
   11.8083   -3.2400   26.2218 C   0  0  0  0  0  0  0  0  0  0  0  0
   13.1350   -2.8815   26.3655 C   0  0  0  0  0  0  0  0  0  0  0  0
   13.7666   -1.9962   25.5046 C   0  0  0  0  0  0  0  0  0  0  0  0
   13.0399   -1.4483   24.4576 C   0  0  0  0  0  0  0  0  0  0  0  0
   11.7145   -1.8000   24.3049 C   0  0  0  0  0  0  0  0  0  0  0  0
   11.1024   -2.6862   25.1761 C   0  0  0  0  0  0  0  0  0  0  0  0
  2  1  1  0  0  0
  2  3  1  0  0  0
  3  4  1  0  0  0
  4  9  1  0  0  0
  4  5  1  0  0  0
  9 10  2  0  0  0
 10 11  1  0  0  0
 11 12  2  0  0  0
 12 13  1  0  0  0
 13 14  2  0  0  0
 14  9  1  0  0  0
  5  6  1  0  0  0
  5  8  1  0  0  0
  6  7  2  0  0  0
  6 15  1  0  0  0
 15 16  1  0  0  0
 16 17  2  0  0  0
 17 18  1  0  0  0
 18 19  2  0  0  0
 19 20  1  0  0  0
 20 21  2  0  0  0
 21 22  1  0  0  0
 22 23  2  0  0  0
 23 24  1  0  0  0
 24 25  2  0  0  0
 25 16  1  0  0  0
 25 20  1  0  0  0
  8  2  1  0  0  0
M  END
> <minimizedAffinity>
-7.83054

> <CNNscore>
0.5815070868

> <CNNaffinity>
5.8453679085

> <CNN_VS>
3.3991229534

> <CNNaffinity_variance>
0.1222323328
$$$$



35 40  0  0  0  0  0  0  0  0999 V2000
    7.0993   -3.3515   22.8997 C   0  0  0  0  0  0  0  0  0  0  0  0
    8.4604   -2.6544   23.0744 C   0  0  0  0  0  0  0  0  0  0  0  0
    8.3227   -1.3046   22.4765 C   0  0  0  0  0  0  0  0  0  0  0  0
    8.3961   -0.3895   23.5869 N   0  0  0  0  0  0  0  0  0  0  0  0
    8.1614   -1.1086   24.7872 C   0  0  0  0  0  0  0  0  0  0  0  0
    7.5954   -0.6381   25.8038 O   0  0  0  0  0  0  0  0  0  0  0  0
    8.7208   -2.4623   24.5408 C   0  0  0  0  0  0  0  0  0  0  0  0
    7.9517   -3.5275   25.2841 C   0  0  0  0  0  0  0  0  0  0  0  0
    8.2228   -3.5102   26.7123 N   0  0  0  0  0  0  0  0  0  0  0  0
    9.6171   -3.5197   27.0774 C   0  0  0  0  0  0  0  0  0  0  0  0
    9.9430   -3.9894   28.2061 O   0  0  0  0  0  0  0  0  0  0  0  0
   10.5883   -2.9869   26.1284 C   0  0  0  0  0  0  0  0  0  0  0  0
   11.9186   -3.0085   26.4838 C   0  0  0  0  0  0  0  0  0  0  0  0
   12.8943   -2.5269   25.6303 C   0  0  0  0  0  0  0  0  0  0  0  0
   12.4978   -2.0263   24.4174 C   0  0  0  0  0  0  0  0  0  0  0  0
   13.4319   -1.5370   23.5367 F   0  0  0  0  0  0  0  0  0  0  0  0
   11.1608   -2.0097   24.0720 C   0  0  0  0  0  0  0  0  0  0  0  0
   10.1610   -2.4795   24.8938 C   0  0  0  0  0  0  0  0  0  0  0  0
    8.6641    1.0237   23.4551 C   0  0  0  0  0  0  0  0  0  0  0  0
    7.6719    1.9689   23.6128 C   0  0  0  0  0  0  0  0  0  0  0  0
    7.9330    3.2835   23.4876 N   0  0  0  0  0  0  0  0  0  0  0  0
    9.1665    3.7027   23.2061 C   0  0  0  0  0  0  0  0  0  0  0  0
   10.2129    2.8277   23.0333 C   0  0  0  0  0  0  0  0  0  0  0  0
   11.4800    3.2928   22.7423 C   0  0  0  0  0  0  0  0  0  0  0  0
   12.4869    2.3651   22.5805 C   0  0  0  0  0  0  0  0  0  0  0  0
   12.2161    1.0202   22.7094 C   0  0  0  0  0  0  0  0  0  0  0  0
   10.9439    0.5465   23.0019 C   0  0  0  0  0  0  0  0  0  0  0  0
    9.9468    1.4784   23.1614 C   0  0  0  0  0  0  0  0  0  0  0  0
    7.1745   -3.4873   27.7146 C   0  0  0  0  0  0  0  0  0  0  0  0
    5.8174   -3.5355   27.0725 C   0  0  0  0  0  0  0  0  0  0  0  0
    5.2935   -4.5369   26.3311 N   0  0  0  0  0  0  0  0  0  0  0  0
    4.0834   -4.2519   25.9231 N   0  0  0  0  0  0  0  0  0  0  0  0
    3.7832   -3.0356   26.3971 C   0  0  0  0  0  0  0  0  0  0  0  0
    4.8572   -2.5941   27.1077 N   0  0  0  0  0  0  0  0  0  0  0  0
    4.9317   -1.3133   27.7845 C   0  0  0  0  0  0  0  0  0  0  0  0
  2  1  1  0  0  0
  2  3  1  0  0  0
  3  4  1  0  0  0
  4 19  1  0  0  0
  4  5  1  0  0  0
 19 20  2  0  0  0
 20 21  1  0  0  0
 21 22  2  0  0  0
 22 23  1  0  0  0
 23 24  2  0  0  0
 24 25  1  0  0  0
 25 26  2  0  0  0
 26 27  1  0  0  0
 27 28  2  0  0  0
 28 19  1  0  0  0
 28 23  1  0  0  0
  5  6  2  0  0  0
  7  5  1  0  0  0
  7  8  1  0  0  0
  7  2  1  0  0  0
  8  9  1  0  0  0
  9 29  1  0  0  0
  9 10  1  0  0  0
 29 30  1  0  0  0
 30 31  2  0  0  0
 31 32  1  0  0  0
 32 33  2  0  0  0
 33 34  1  0  0  0
 34 35  1  0  0  0
 34 30  1  0  0  0
 10 11  2  0  0  0
 10 12  1  0  0  0
 12 13  2  0  0  0
 13 14  1  0  0  0
 14 15  2  0  0  0
 15 16  1  0  0  0
 15 17  1  0  0  0
 17 18  2  0  0  0
 18 12  1  0  0  0
 18  7  1  0  0  0
M  END
> <minimizedAffinity>
-8.41108

> <CNNscore>
0.3881347179

> <CNNaffinity>
6.5338835716

> <CNN_VS>
2.5360269547

> <CNNaffinity_variance>
0.1345770955
$$$$



24 27  0  0  0  0  0  0  0  0999 V2000
   13.6307   -2.0345   26.1823 C   0  0  0  0  0  0  0  0  0  0  0  0
   12.7658   -1.1759   25.2625 C   0  0  0  0  0  0  0  0  0  0  0  0
   13.0353   -1.4846   23.8072 C   0  0  0  0  0  0  0  0  0  0  0  0
   12.0965   -0.5669   23.0190 C   0  0  0  0  0  0  0  0  0  0  0  0
   10.7177   -1.0971   23.2057 C   0  0  0  0  0  0  0  0  0  0  0  0
   10.2362   -1.8922   21.9961 C   0  0  0  0  0  0  0  0  0  0  0  0
    8.7373   -1.8382   22.2380 C   0  0  0  0  0  0  0  0  0  0  0  0
    8.5346   -0.4978   22.7264 N   0  0  0  0  0  0  0  0  0  0  0  0
    7.2879    0.1882   22.6773 C   0  0  0  0  0  0  0  0  0  0  0  0
    7.1678    1.3703   23.1081 O   0  0  0  0  0  0  0  0  0  0  0  0
    9.7444    0.0755   23.2762 C   0  0  0  0  0  0  0  0  0  0  0  0
   10.5080   -1.9266   24.4319 C   0  0  0  0  0  0  0  0  0  0  0  0
   11.3069   -1.3546   25.5612 C   0  0  0  0  0  0  0  0  0  0  0  0
    6.0696   -0.4442   22.1211 C   0  0  0  0  0  0  0  0  0  0  0  0
    5.9059    0.0111   20.7161 C   0  0  0  0  0  0  0  0  0  0  0  0
    6.8375   -0.3052   19.7216 C   0  0  0  0  0  0  0  0  0  0  0  0
    6.6796    0.1001   18.4508 N   0  0  0  0  0  0  0  0  0  0  0  0
    5.5954    0.8258   18.1399 C   0  0  0  0  0  0  0  0  0  0  0  0
    4.6573    1.1563   19.0918 C   0  0  0  0  0  0  0  0  0  0  0  0
    3.5415    1.9161   18.7528 C   0  0  0  0  0  0  0  0  0  0  0  0
    2.5875    2.2636   19.7078 C   0  0  0  0  0  0  0  0  0  0  0  0
    2.7313    1.8520   21.0397 C   0  0  0  0  0  0  0  0  0  0  0  0
    3.8486    1.0945   21.3657 C   0  0  0  0  0  0  0  0  0  0  0  0
    4.7788    0.7634   20.4051 C   0  0  0  0  0  0  0  0  0  0  0  0
  2  1  1  0  0  0
  2  3  1  0  0  0
  3  4  1  0  0  0
  5  4  1  0  0  0
  5  6  1  0  0  0
  5 12  1  0  0  0
  6  7  1  0  0  0
  7  8  1  0  0  0
  8  9  1  0  0  0
  8 11  1  0  0  0
  9 10  2  0  0  0
  9 14  1  0  0  0
 14 15  1  0  0  0
 15 16  2  0  0  0
 16 17  1  0  0  0
 17 18  2  0  0  0
 18 19  1  0  0  0
 19 20  2  0  0  0
 20 21  1  0  0  0
 21 22  2  0  0  0
 22 23  1  0  0  0
 23 24  2  0  0  0
 24 15  1  0  0  0
 24 19  1  0  0  0
 11  5  1  0  0  0
 12 13  1  0  0  0
 13  2  1  0  0  0
M  END
> <minimizedAffinity>
-8.31250

> <CNNscore>
0.6864089370

> <CNNaffinity>
6.1066465378

> <CNN_VS>
4.1916565895

> <CNNaffinity_variance>
0.0686506703
$$$$



42 46  0  0  0  0  0  0  0  0999 V2000
    9.4091   -0.3017   22.2284 N   0  0  0  0  0  0  0  0  0  0  0  0
   10.6834   -0.8877   21.9472 C   0  0  0  0  0  0  0  0  0  0  0  0
   11.2833   -1.4931   23.1688 C   0  0  0  0  0  0  0  0  0  0  0  0
   12.6532   -1.5706   23.2784 C   0  0  0  0  0  0  0  0  0  0  0  0
   13.2008   -2.1328   24.4145 C   0  0  0  0  0  0  0  0  0  0  0  0
   12.3480   -2.5932   25.3921 C   0  0  0  0  0  0  0  0  0  0  0  0
   13.0468   -3.3059   26.8320 Cl  0  0  0  0  0  0  0  0  0  0  0  0
   10.9611   -2.5061   25.2632 C   0  0  0  0  0  0  0  0  0  0  0  0
   10.4104   -1.9457   24.1310 C   0  0  0  0  0  0  0  0  0  0  0  0
    8.9322   -1.8582   24.0046 C   0  0  0  0  0  0  0  0  0  0  0  0
    8.5065   -1.3674   22.6609 C   0  0  0  0  0  0  0  0  0  0  0  0
    9.0993    0.1461   21.3659 H   0  0  0  0  0  0  0  0  0  0  0  0
    8.3626   -3.1914   24.3343 C   0  0  0  0  0  0  0  0  0  0  0  0
    8.7890   -3.9140   25.2721 O   0  0  0  0  0  0  0  0  0  0  0  0
    7.2706   -3.7309   23.5777 N   0  0  0  0  0  0  0  0  0  0  0  0
    6.8646   -3.2450   22.8237 H   0  0  0  0  0  0  0  0  0  0  0  0
    6.8098   -5.0195   23.9890 C   0  0  0  0  0  0  0  0  0  0  0  0
    7.4576   -6.1075   23.4040 C   0  0  0  0  0  0  0  0  0  0  0  0
    7.1007   -7.3680   23.7220 N   0  0  0  0  0  0  0  0  0  0  0  0
    6.1094   -7.5585   24.6130 C   0  0  0  0  0  0  0  0  0  0  0  0
    5.4409   -6.4935   25.2164 C   0  0  0  0  0  0  0  0  0  0  0  0
    4.4395   -6.7313   26.1162 C   0  0  0  0  0  0  0  0  0  0  0  0
    3.8001   -5.6459   26.6935 C   0  0  0  0  0  0  0  0  0  0  0  0
    4.1655   -4.3420   26.3680 C   0  0  0  0  0  0  0  0  0  0  0  0
    5.1785   -4.0914   25.4578 C   0  0  0  0  0  0  0  0  0  0  0  0
    5.7926   -5.1939   24.9031 C   0  0  0  0  0  0  0  0  0  0  0  0
    9.4171    0.7487   23.1972 C   0  0  0  0  0  0  0  0  0  0  0  0
    8.5633    2.1995   21.5452 O   0  0  0  0  0  0  0  0  0  0  0  0
    8.7753    2.0009   22.7830 C   0  0  0  0  0  0  0  0  0  0  0  0
    8.3615    3.0330   23.6670 N   0  0  0  0  0  0  0  0  0  0  0  0
    8.4900    2.9561   24.6401 H   0  0  0  0  0  0  0  0  0  0  0  0
    7.7429    4.2034   23.0786 C   0  0  0  0  0  0  0  0  0  0  0  0
    6.2407    4.1811   23.2656 C   0  0  0  0  0  0  0  0  0  0  0  0
    5.7338    5.4163   22.5695 C   0  0  0  0  0  0  0  0  0  0  0  0
    4.5095    5.9715   22.8738 C   0  0  0  0  0  0  0  0  0  0  0  0
    4.1388    7.1046   22.1769 C   0  0  0  0  0  0  0  0  0  0  0  0
    4.9408    7.6837   21.2068 C   0  0  0  0  0  0  0  0  0  0  0  0
    6.1644    7.0975   20.9285 C   0  0  0  0  0  0  0  0  0  0  0  0
    6.5739    5.9564   21.6078 C   0  0  0  0  0  0  0  0  0  0  0  0
    4.4671    8.9010   20.5050 C   0  0  0  0  0  0  0  0  0  0  0  0
    5.4205    9.8833   20.4422 F   0  0  0  0  0  0  0  0  0  0  0  0
    3.3444    9.3724   21.1615 F   0  0  0  0  0  0  0  0  0  0  0  0
 28 29  2  0  0  0
 29 27  1  0  0  0
 29 30  1  0  0  0
  1 27  1  0  0  0
  1  2  1  0  0  0
  1 12  1  0  0  0
  2  3  1  0  0  0
  3  4  2  0  0  0
  4  5  1  0  0  0
  5  6  2  0  0  0
  6  7  1  0  0  0
  6  8  1  0  0  0
  8  9  2  0  0  0
  9 10  1  0  0  0
  9  3  1  0  0  0
 10 13  1  0  0  0
 10 11  1  0  0  0
 13 14  2  0  0  0
 13 15  1  0  0  0
 15 17  1  0  0  0
 15 16  1  0  0  0
 17 18  2  0  0  0
 18 19  1  0  0  0
 19 20  2  0  0  0
 20 21  1  0  0  0
 21 22  2  0  0  0
 22 23  1  0  0  0
 23 24  2  0  0  0
 24 25  1  0  0  0
 25 26  2  0  0  0
 26 17  1  0  0  0
 26 21  1  0  0  0
 11  1  1  0  0  0
 30 32  1  0  0  0
 30 31  1  0  0  0
 32 33  1  0  0  0
 33 34  1  0  0  0
 34 35  2  0  0  0
 35 36  1  0  0  0
 36 37  2  0  0  0
 37 40  1  0  0  0
 37 38  1  0  0  0
 40 41  1  0  0  0
 40 42  1  0  0  0
 38 39  2  0  0  0
 39 34  1  0  0  0
M  CHG 1   1   1
M  END
> <minimizedAffinity>
-7.44528

> <CNNscore>
0.5238319039

> <CNNaffinity>
6.6742601395

> <CNN_VS>
3.4961903095

> <CNNaffinity_variance>
0.2428973615
$$$$



37 41  0  0  0  0  0  0  0  0999 V2000
    7.7673   -1.3636   22.5106 N   0  0  0  0  0  0  0  0  0  0  0  0
    7.1718   -0.9926   21.2809 C   0  0  0  0  0  0  0  0  0  0  0  0
    7.7997   -0.6753   20.2418 O   0  0  0  0  0  0  0  0  0  0  0  0
   10.5774   -4.1052   25.8182 C   0  0  0  0  0  0  0  0  0  0  0  0
    9.5952   -4.6006   25.2220 O   0  0  0  0  0  0  0  0  0  0  0  0
   11.2968   -2.9602   25.4103 N   0  0  0  0  0  0  0  0  0  0  0  0
   12.4648   -2.5300   26.1939 C   0  0  0  0  0  0  0  0  0  0  0  0
   13.3736   -1.6685   25.3908 C   0  0  0  0  0  0  0  0  0  0  0  0
   13.2722   -1.8711   23.8956 C   0  0  0  0  0  0  0  0  0  0  0  0
   11.8845   -1.6860   23.4533 C   0  0  0  0  0  0  0  0  0  0  0  0
   11.4887   -1.0060   22.3307 C   0  0  0  0  0  0  0  0  0  0  0  0
   10.1398   -0.8951   22.0180 C   0  0  0  0  0  0  0  0  0  0  0  0
    9.1370   -1.4402   22.7842 C   0  0  0  0  0  0  0  0  0  0  0  0
    9.5745   -2.1304   23.9272 C   0  0  0  0  0  0  0  0  0  0  0  0
   10.8898   -2.2496   24.2491 C   0  0  0  0  0  0  0  0  0  0  0  0
   10.2293   -4.3358   28.2608 C   0  0  0  0  0  0  0  0  0  0  0  0
   10.9954   -4.8262   27.0779 C   0  0  0  0  0  0  0  0  0  0  0  0
    6.8764   -1.6861   23.5583 N   0  0  0  0  0  0  0  0  0  0  0  0
    6.2419   -0.6862   24.3814 C   0  0  0  0  0  0  0  0  0  0  0  0
    6.6088   -3.0635   23.7990 C   0  0  0  0  0  0  0  0  0  0  0  0
    6.2300   -3.4724   25.0641 C   0  0  0  0  0  0  0  0  0  0  0  0
    5.9709   -4.8230   25.2993 C   0  0  0  0  0  0  0  0  0  0  0  0
    6.0797   -5.7760   24.3074 C   0  0  0  0  0  0  0  0  0  0  0  0
    6.4591   -5.3414   23.0549 C   0  0  0  0  0  0  0  0  0  0  0  0
    6.6338   -6.4607   21.7022 Cl  0  0  0  0  0  0  0  0  0  0  0  0
    6.7188   -4.0121   22.8041 C   0  0  0  0  0  0  0  0  0  0  0  0
    5.6789   -0.9614   21.1612 C   0  0  0  0  0  0  0  0  0  0  0  0
    5.2415   -0.2025   19.9835 C   0  0  0  0  0  0  0  0  0  0  0  0
    5.7049   -0.5561   18.7118 C   0  0  0  0  0  0  0  0  0  0  0  0
    5.3305    0.1104   17.6089 N   0  0  0  0  0  0  0  0  0  0  0  0
    4.4864    1.1575   17.6703 C   0  0  0  0  0  0  0  0  0  0  0  0
    4.0102    1.5330   18.9083 C   0  0  0  0  0  0  0  0  0  0  0  0
    3.1450    2.6113   18.9406 C   0  0  0  0  0  0  0  0  0  0  0  0
    2.6284    3.0397   20.1651 C   0  0  0  0  0  0  0  0  0  0  0  0
    3.0091    2.3582   21.3088 C   0  0  0  0  0  0  0  0  0  0  0  0
    3.8779    1.2761   21.2716 C   0  0  0  0  0  0  0  0  0  0  0  0
    4.3811    0.8641   20.0507 C   0  0  0  0  0  0  0  0  0  0  0  0
 16 17  1  0  0  0
 17  4  1  0  0  0
  4  5  2  0  0  0
  4  6  1  0  0  0
  6  7  1  0  0  0
  7  8  1  0  0  0
  8  9  1  0  0  0
  9 10  1  0  0  0
 10 11  2  0  0  0
 11 12  1  0  0  0
 12 13  2  0  0  0
 13  1  1  0  0  0
 13 14  1  0  0  0
  1  2  1  0  0  0
  1 18  1  0  0  0
  2  3  2  0  0  0
  2 27  1  0  0  0
 27 28  1  0  0  0
 28 29  2  0  0  0
 29 30  1  0  0  0
 30 31  2  0  0  0
 31 32  1  0  0  0
 32 33  2  0  0  0
 33 34  1  0  0  0
 34 35  2  0  0  0
 35 36  1  0  0  0
 36 37  2  0  0  0
 37 28  1  0  0  0
 37 32  1  0  0  0
 18 19  1  0  0  0
 18 20  1  0  0  0
 20 21  2  0  0  0
 21 22  1  0  0  0
 22 23  2  0  0  0
 23 24  1  0  0  0
 24 25  1  0  0  0
 24 26  2  0  0  0
 26 20  1  0  0  0
 14 15  2  0  0  0
 15  6  1  0  0  0
 15 10  1  0  0  0
M  END
> <minimizedAffinity>
-10.22640

> <CNNscore>
0.9275211096

> <CNNaffinity>
7.7484755516

> <CNN_VS>
7.1868748665

> <CNNaffinity_variance>
0.0366010740
$$$$



35 40  0  0  0  0  0  0  0  0999 V2000
   12.7917   -1.0705   21.9891 C   0  0  0  0  0  0  0  0  0  0  0  0
   11.9743   -0.4243   23.0867 C   0  0  0  0  0  0  0  0  0  0  0  0
   11.1912    0.7309   22.4429 C   0  0  0  0  0  0  0  0  0  0  0  0
   10.0476    0.9103   23.3157 N   0  0  0  0  0  0  0  0  0  0  0  0
    9.9810   -0.2124   24.2179 C   0  0  0  0  0  0  0  0  0  0  0  0
    9.2999   -0.2634   25.2567 O   0  0  0  0  0  0  0  0  0  0  0  0
   10.8910   -1.2667   23.6342 C   0  0  0  0  0  0  0  0  0  0  0  0
   10.0572   -1.9539   22.5834 C   0  0  0  0  0  0  0  0  0  0  0  0
    8.8717   -2.4844   23.2749 N   0  0  0  0  0  0  0  0  0  0  0  0
    9.1374   -3.4301   24.3045 C   0  0  0  0  0  0  0  0  0  0  0  0
    8.3123   -4.3378   24.5407 O   0  0  0  0  0  0  0  0  0  0  0  0
   10.3967   -3.2630   25.0330 C   0  0  0  0  0  0  0  0  0  0  0  0
   10.6807   -4.1618   26.0141 C   0  0  0  0  0  0  0  0  0  0  0  0
   11.8508   -4.0816   26.7388 C   0  0  0  0  0  0  0  0  0  0  0  0
   12.7127   -3.0546   26.4237 C   0  0  0  0  0  0  0  0  0  0  0  0
   13.8692   -2.9601   27.1261 F   0  0  0  0  0  0  0  0  0  0  0  0
   12.4214   -2.1458   25.4290 C   0  0  0  0  0  0  0  0  0  0  0  0
   11.2369   -2.2150   24.6854 C   0  0  0  0  0  0  0  0  0  0  0  0
    9.1844    2.0301   23.2358 C   0  0  0  0  0  0  0  0  0  0  0  0
    7.8080    1.9430   23.2644 C   0  0  0  0  0  0  0  0  0  0  0  0
    7.0061    3.0269   23.1870 N   0  0  0  0  0  0  0  0  0  0  0  0
    7.5463    4.2641   23.0758 C   0  0  0  0  0  0  0  0  0  0  0  0
    8.9191    4.3940   23.0436 C   0  0  0  0  0  0  0  0  0  0  0  0
    9.4337    5.6894   22.9280 C   0  0  0  0  0  0  0  0  0  0  0  0
   10.8063    5.8583   22.8926 C   0  0  0  0  0  0  0  0  0  0  0  0
   11.6689    4.7656   22.9699 C   0  0  0  0  0  0  0  0  0  0  0  0
   11.1246    3.4833   23.0848 C   0  0  0  0  0  0  0  0  0  0  0  0
    9.7645    3.2960   23.1216 C   0  0  0  0  0  0  0  0  0  0  0  0
    7.5330   -2.0880   22.9395 C   0  0  0  0  0  0  0  0  0  0  0  0
    6.7092   -2.1858   24.1953 C   0  0  0  0  0  0  0  0  0  0  0  0
    5.7043   -3.1098   24.4368 C   0  0  0  0  0  0  0  0  0  0  0  0
    5.2316   -2.8503   25.6626 N   0  0  0  0  0  0  0  0  0  0  0  0
    5.8569   -1.8326   26.2219 N   0  0  0  0  0  0  0  0  0  0  0  0
    5.6408   -1.2413   27.5398 C   0  0  0  0  0  0  0  0  0  0  0  0
    6.7858   -1.3986   25.3254 C   0  0  0  0  0  0  0  0  0  0  0  0
  2  1  1  0  0  0
  2  3  1  0  0  0
  3  4  1  0  0  0
  4 19  1  0  0  0
  4  5  1  0  0  0
 19 20  2  0  0  0
 20 21  1  0  0  0
 21 22  2  0  0  0
 22 23  1  0  0  0
 23 24  2  0  0  0
 24 25  1  0  0  0
 25 26  2  0  0  0
 26 27  1  0  0  0
 27 28  2  0  0  0
 28 19  1  0  0  0
 28 23  1  0  0  0
  5  6  2  0  0  0
  7  5  1  0  0  0
  7  8  1  0  0  0
  7  2  1  0  0  0
  8  9  1  0  0  0
  9 29  1  0  0  0
  9 10  1  0  0  0
 29 30  1  0  0  0
 30 31  1  0  0  0
 31 32  2  0  0  0
 32 33  1  0  0  0
 33 34  1  0  0  0
 33 35  1  0  0  0
 35 30  2  0  0  0
 10 11  2  0  0  0
 10 12  1  0  0  0
 12 13  2  0  0  0
 13 14  1  0  0  0
 14 15  2  0  0  0
 15 16  1  0  0  0
 15 17  1  0  0  0
 17 18  2  0  0  0
 18 12  1  0  0  0
 18  7  1  0  0  0
M  END
> <minimizedAffinity>
-8.69662

> <CNNscore>
0.5189931989

> <CNNaffinity>
6.6408553123

> <CNN_VS>
3.4465587139

> <CNNaffinity_variance>
0.1171115488
$$$$



24 27  0  0  0  0  0  0  0  0999 V2000
    9.0731    1.2241   21.7788 O   0  0  0  0  0  0  0  0  0  0  0  0
    8.5719    0.0979   22.0351 C   0  0  0  0  0  0  0  0  0  0  0  0
    9.3502   -1.0780   22.2189 N   0  0  0  0  0  0  0  0  0  0  0  0
    8.7743   -2.3759   22.5144 C   0  0  0  0  0  0  0  0  0  0  0  0
    9.2673   -2.9168   23.8372 C   0  0  0  0  0  0  0  0  0  0  0  0
   10.5692   -2.3334   24.2481 C   0  0  0  0  0  0  0  0  0  0  0  0
   11.0497   -2.7096   25.4920 C   0  0  0  0  0  0  0  0  0  0  0  0
   10.1294   -3.8310   26.5081 Cl  0  0  0  0  0  0  0  0  0  0  0  0
   12.2510   -2.2180   25.9587 C   0  0  0  0  0  0  0  0  0  0  0  0
   12.9820   -1.3441   25.1820 C   0  0  0  0  0  0  0  0  0  0  0  0
   12.4996   -0.9723   23.9438 C   0  0  0  0  0  0  0  0  0  0  0  0
   11.2972   -1.4622   23.4727 C   0  0  0  0  0  0  0  0  0  0  0  0
   10.8072   -1.0298   22.1159 C   0  0  0  0  0  0  0  0  0  0  0  0
    7.0928   -0.0085   22.1514 C   0  0  0  0  0  0  0  0  0  0  0  0
    6.5458    0.1480   20.7702 C   0  0  0  0  0  0  0  0  0  0  0  0
    7.1448   -0.5075   19.6935 C   0  0  0  0  0  0  0  0  0  0  0  0
    6.6656   -0.3800   18.4331 N   0  0  0  0  0  0  0  0  0  0  0  0
    5.5856    0.3940   18.1947 C   0  0  0  0  0  0  0  0  0  0  0  0
    4.9883    1.0452   19.2559 C   0  0  0  0  0  0  0  0  0  0  0  0
    3.8806    1.8302   18.9678 C   0  0  0  0  0  0  0  0  0  0  0  0
    3.2582    2.4957   20.0064 C   0  0  0  0  0  0  0  0  0  0  0  0
    3.6892    2.4137   21.3146 C   0  0  0  0  0  0  0  0  0  0  0  0
    4.8042    1.6150   21.5594 C   0  0  0  0  0  0  0  0  0  0  0  0
    5.4407    0.9445   20.5505 C   0  0  0  0  0  0  0  0  0  0  0  0
  1  2  2  0  0  0
  2 14  1  0  0  0
  2  3  1  0  0  0
 14 15  1  0  0  0
 15 16  2  0  0  0
 16 17  1  0  0  0
 17 18  2  0  0  0
 18 19  1  0  0  0
 19 20  2  0  0  0
 20 21  1  0  0  0
 21 22  2  0  0  0
 22 23  1  0  0  0
 23 24  2  0  0  0
 24 15  1  0  0  0
 24 19  1  0  0  0
  3  4  1  0  0  0
  4  5  1  0  0  0
  5  6  1  0  0  0
  6  7  2  0  0  0
  7  8  1  0  0  0
  7  9  1  0  0  0
  9 10  2  0  0  0
 10 11  1  0  0  0
 11 12  2  0  0  0
 12 13  1  0  0  0
 12  6  1  0  0  0
 13  3  1  0  0  0
M  END
> <minimizedAffinity>
-8.46204

> <CNNscore>
0.8125649691

> <CNNaffinity>
5.9360671043

> <CNN_VS>
4.8234400749

> <CNNaffinity_variance>
0.0991875306
$$$$



38 43  0  0  0  0  0  0  0  0999 V2000
    5.8709    0.2008   21.4691 N   0  0  0  0  0  0  0  0  0  0  0  0
    6.6720   -0.9617   21.7939 C   0  0  0  0  0  0  0  0  0  0  0  0
    7.5155   -0.6723   22.9803 C   0  0  0  0  0  0  0  0  0  0  0  0
    8.3929   -1.8043   23.3709 C   0  0  0  0  0  0  0  0  0  0  0  0
    8.8368   -2.6691   22.5855 O   0  0  0  0  0  0  0  0  0  0  0  0
    8.6390   -1.7386   24.7688 N   0  0  0  0  0  0  0  0  0  0  0  0
    7.8376   -0.6680   25.3131 C   0  0  0  0  0  0  0  0  0  0  0  0
    6.7888   -0.3720   24.2489 C   0  0  0  0  0  0  0  0  0  0  0  0
    5.6053   -1.2931   24.4454 C   0  0  0  0  0  0  0  0  0  0  0  0
    8.3481    0.5406   22.6658 C   0  0  0  0  0  0  0  0  0  0  0  0
    9.6174    0.7062   23.1993 C   0  0  0  0  0  0  0  0  0  0  0  0
   10.3749    1.8458   22.9416 C   0  0  0  0  0  0  0  0  0  0  0  0
   11.9718    2.0207   23.6321 Cl  0  0  0  0  0  0  0  0  0  0  0  0
    9.8621    2.8467   22.1345 C   0  0  0  0  0  0  0  0  0  0  0  0
    8.6013    2.7043   21.5905 C   0  0  0  0  0  0  0  0  0  0  0  0
    7.8883    1.5656   21.8686 C   0  0  0  0  0  0  0  0  0  0  0  0
    6.5878    1.4172   21.2282 C   0  0  0  0  0  0  0  0  0  0  0  0
    6.0943    2.3295   20.4789 O   0  0  0  0  0  0  0  0  0  0  0  0
    9.5096   -2.5465   25.5686 C   0  0  0  0  0  0  0  0  0  0  0  0
    9.0602   -3.5389   26.4030 C   0  0  0  0  0  0  0  0  0  0  0  0
    9.8932   -4.2894   27.1511 N   0  0  0  0  0  0  0  0  0  0  0  0
   11.2209   -4.1354   27.1469 C   0  0  0  0  0  0  0  0  0  0  0  0
   11.7371   -3.1500   26.3255 C   0  0  0  0  0  0  0  0  0  0  0  0
   13.0915   -2.9512   26.2868 C   0  0  0  0  0  0  0  0  0  0  0  0
   13.6682   -1.9795   25.4863 C   0  0  0  0  0  0  0  0  0  0  0  0
   12.8339   -1.1811   24.6962 C   0  0  0  0  0  0  0  0  0  0  0  0
   11.4725   -1.3948   24.7472 C   0  0  0  0  0  0  0  0  0  0  0  0
   10.8975   -2.3600   25.5419 C   0  0  0  0  0  0  0  0  0  0  0  0
    4.4342    0.1880   21.3631 C   0  0  0  0  0  0  0  0  0  0  0  0
    3.8075    1.2979   22.2002 C   0  0  0  0  0  0  0  0  0  0  0  0
   -0.0598    2.1965   20.2420 C   0  0  0  0  0  0  0  0  0  0  0  0
    0.9471    3.1767   20.8176 C   0  0  0  0  0  0  0  0  0  0  0  0
    1.7897    2.5604   21.8883 C   0  0  0  0  0  0  0  0  0  0  0  0
    3.1204    2.2613   21.3757 N   0  0  0  0  0  0  0  0  0  0  0  0
    2.9607    1.7884   20.0148 C   0  0  0  0  0  0  0  0  0  0  0  0
    2.5517    2.9411   19.1584 C   0  0  0  0  0  0  0  0  0  0  0  0
    1.6491    3.7637   19.7869 O   0  0  0  0  0  0  0  0  0  0  0  0
    3.7016    3.0994   21.3920 H   0  0  0  0  0  0  0  0  0  0  0  0
 32 31  1  0  0  0
 32 33  1  0  0  0
 33 34  1  0  0  0
 34 30  1  0  0  0
 34 35  1  0  0  0
 34 38  1  0  0  0
 30 29  1  0  0  0
 29  1  1  0  0  0
  1  2  1  0  0  0
  3  2  1  0  0  0
  3  4  1  0  0  0
  3 10  1  0  0  0
  4  5  2  0  0  0
  4  6  1  0  0  0
  6 19  1  0  0  0
  6  7  1  0  0  0
 19 20  2  0  0  0
 20 21  1  0  0  0
 21 22  2  0  0  0
 22 23  1  0  0  0
 23 24  2  0  0  0
 24 25  1  0  0  0
 25 26  2  0  0  0
 26 27  1  0  0  0
 27 28  2  0  0  0
 28 19  1  0  0  0
 28 23  1  0  0  0
  7  8  1  0  0  0
  8  9  1  0  0  0
  8  3  1  0  0  0
 10 11  2  0  0  0
 11 12  1  0  0  0
 12 13  1  0  0  0
 12 14  2  0  0  0
 14 15  1  0  0  0
 15 16  2  0  0  0
 16 17  1  0  0  0
 16 10  1  0  0  0
 17 18  2  0  0  0
 17  1  1  0  0  0
 35 36  1  0  0  0
 36 37  1  0  0  0
 37 32  1  0  0  0
M  CHG 1  34   1
M  END
> <minimizedAffinity>
-8.52884

> <CNNscore>
0.4343018830

> <CNNaffinity>
6.4883165359

> <CNN_VS>
2.8178880215

> <CNNaffinity_variance>
0.0729937181
$$$$



40 45  0  0  0  0  0  0  0  0999 V2000
    7.7302   -3.5097   25.0339 N   0  0  0  0  0  0  0  0  0  0  0  0
    7.1696   -3.4300   23.7104 C   0  0  0  0  0  0  0  0  0  0  0  0
    6.8580   -1.9998   23.4036 C   0  0  0  0  0  0  0  0  0  0  0  0
    6.2288   -1.7604   22.0670 C   0  0  0  0  0  0  0  0  0  0  0  0
    5.5691   -2.6436   21.4842 O   0  0  0  0  0  0  0  0  0  0  0  0
    6.5336   -0.4017   21.6543 N   0  0  0  0  0  0  0  0  0  0  0  0
    7.3853    0.1244   22.6839 C   0  0  0  0  0  0  0  0  0  0  0  0
    8.0944   -1.1596   23.2314 C   0  0  0  0  0  0  0  0  0  0  0  0
    5.9416   -1.4490   24.4316 C   0  0  0  0  0  0  0  0  0  0  0  0
    4.9765   -0.4974   24.1815 C   0  0  0  0  0  0  0  0  0  0  0  0
    4.1446    0.0027   25.1850 C   0  0  0  0  0  0  0  0  0  0  0  0
    2.9258    1.2244   24.8010 Cl  0  0  0  0  0  0  0  0  0  0  0  0
    4.2515   -0.4362   26.4774 C   0  0  0  0  0  0  0  0  0  0  0  0
    5.2078   -1.3893   26.7498 C   0  0  0  0  0  0  0  0  0  0  0  0
    6.0201   -1.8770   25.7627 C   0  0  0  0  0  0  0  0  0  0  0  0
    6.9489   -2.9493   26.0976 C   0  0  0  0  0  0  0  0  0  0  0  0
    7.0641   -3.3762   27.2967 O   0  0  0  0  0  0  0  0  0  0  0  0
    6.0552    0.1035   20.4246 C   0  0  0  0  0  0  0  0  0  0  0  0
    6.7768   -0.1235   19.2419 C   0  0  0  0  0  0  0  0  0  0  0  0
    6.3413    0.3221   18.0461 N   0  0  0  0  0  0  0  0  0  0  0  0
    5.2102    1.0066   17.8681 C   0  0  0  0  0  0  0  0  0  0  0  0
    4.4549    1.2598   19.0061 C   0  0  0  0  0  0  0  0  0  0  0  0
    3.2882    1.9518   18.8286 C   0  0  0  0  0  0  0  0  0  0  0  0
    2.4673    2.2387   19.8993 C   0  0  0  0  0  0  0  0  0  0  0  0
    2.8878    1.7929   21.1348 C   0  0  0  0  0  0  0  0  0  0  0  0
    4.0558    1.1008   21.3112 C   0  0  0  0  0  0  0  0  0  0  0  0
    4.8853    0.8072   20.2599 C   0  0  0  0  0  0  0  0  0  0  0  0
    8.9686   -4.1362   25.4068 C   0  0  0  0  0  0  0  0  0  0  0  0
   10.1433   -3.2386   25.2289 C   0  0  0  0  0  0  0  0  0  0  0  0
   10.7675   -4.4966   27.1738 C   0  0  0  0  0  0  0  0  0  0  0  0
   11.0816   -3.3431   26.3600 N   0  0  0  0  0  0  0  0  0  0  0  0
   12.0318   -3.4346   26.0005 H   0  0  0  0  0  0  0  0  0  0  0  0
   11.0018   -2.5034   26.9334 H   0  0  0  0  0  0  0  0  0  0  0  0
    8.9594   -1.5710   22.0592 C   0  0  0  0  0  0  0  0  0  0  0  0
   10.0982   -0.8548   21.8511 O   0  0  0  0  0  0  0  0  0  0  0  0
   11.2853   -1.4900   22.1135 C   0  0  0  0  0  0  0  0  0  0  0  0
   12.2985   -0.6873   22.8611 C   0  0  0  0  0  0  0  0  0  0  0  0
   11.6559   -0.1555   24.1471 C   0  0  0  0  0  0  0  0  0  0  0  0
   12.7892   -0.4870   24.8897 O   0  0  0  0  0  0  0  0  0  0  0  0
   13.0839   -1.4516   23.9211 C   0  0  0  0  0  0  0  0  0  0  0  0
 30 31  1  0  0  0
 31 29  1  0  0  0
 31 32  1  0  0  0
 31 33  1  0  0  0
 29 28  1  0  0  0
 28  1  1  0  0  0
  1  2  1  0  0  0
  3  2  1  0  0  0
  3  4  1  0  0  0
  3  9  1  0  0  0
  4  5  2  0  0  0
  4  6  1  0  0  0
  6 18  1  0  0  0
  6  7  1  0  0  0
 18 19  2  0  0  0
 19 20  1  0  0  0
 20 21  2  0  0  0
 21 22  1  0  0  0
 22 23  2  0  0  0
 23 24  1  0  0  0
 24 25  2  0  0  0
 25 26  1  0  0  0
 26 27  2  0  0  0
 27 18  1  0  0  0
 27 22  1  0  0  0
  7  8  1  0  0  0
  8 34  1  0  0  0
  8  3  1  0  0  0
 34 35  1  0  0  0
 35 36  1  0  0  0
 36 37  1  0  0  0
 37 38  1  0  0  0
 38 39  1  0  0  0
 39 40  1  0  0  0
 40 37  1  0  0  0
  9 10  2  0  0  0
 10 11  1  0  0  0
 11 12  1  0  0  0
 11 13  2  0  0  0
 13 14  1  0  0  0
 14 15  2  0  0  0
 15 16  1  0  0  0
 15  9  1  0  0  0
 16 17  2  0  0  0
 16  1  1  0  0  0
M  CHG 1  31   1
M  END
> <minimizedAffinity>
-8.12287

> <CNNscore>
0.5558828712

> <CNNaffinity>
6.8064522743

> <CNN_VS>
3.7835903168

> <CNNaffinity_variance>
0.0423420183
$$$$



42 47  0  0  0  0  0  0  0  0999 V2000
    5.6996   -0.6874   20.9515 N   0  0  0  0  0  0  0  0  0  0  0  0
    6.9977   -1.1901   21.3422 C   0  0  0  0  0  0  0  0  0  0  0  0
    7.2787   -1.1623   22.8019 C   0  0  0  0  0  0  0  0  0  0  0  0
    8.7313   -0.7782   22.9498 C   0  0  0  0  0  0  0  0  0  0  0  0
    9.1453    0.4102   22.8344 O   0  0  0  0  0  0  0  0  0  0  0  0
    9.5052   -1.9366   23.2277 N   0  0  0  0  0  0  0  0  0  0  0  0
    8.6379   -3.0586   22.9176 C   0  0  0  0  0  0  0  0  0  0  0  0
    7.3104   -2.5415   23.4220 C   0  0  0  0  0  0  0  0  0  0  0  0
    6.4221   -0.2379   23.5854 C   0  0  0  0  0  0  0  0  0  0  0  0
    6.7941   -0.0207   24.9051 C   0  0  0  0  0  0  0  0  0  0  0  0
    6.0363    0.8338   25.6946 C   0  0  0  0  0  0  0  0  0  0  0  0
    6.4567    1.1508   27.3781 Cl  0  0  0  0  0  0  0  0  0  0  0  0
    4.9160    1.4821   25.2122 C   0  0  0  0  0  0  0  0  0  0  0  0
    4.5620    1.2496   23.8873 C   0  0  0  0  0  0  0  0  0  0  0  0
    5.3226    0.4029   23.1242 C   0  0  0  0  0  0  0  0  0  0  0  0
    4.9137    0.1892   21.7425 C   0  0  0  0  0  0  0  0  0  0  0  0
    3.9199    0.7257   21.2114 O   0  0  0  0  0  0  0  0  0  0  0  0
   10.8432   -1.9705   23.7067 C   0  0  0  0  0  0  0  0  0  0  0  0
   11.9032   -1.3898   23.0416 C   0  0  0  0  0  0  0  0  0  0  0  0
   13.1357   -1.4591   23.5478 N   0  0  0  0  0  0  0  0  0  0  0  0
   13.3432   -2.0916   24.6998 C   0  0  0  0  0  0  0  0  0  0  0  0
   12.3357   -2.6975   25.4246 C   0  0  0  0  0  0  0  0  0  0  0  0
   12.5808   -3.3541   26.6300 C   0  0  0  0  0  0  0  0  0  0  0  0
   11.5356   -3.9430   27.3134 C   0  0  0  0  0  0  0  0  0  0  0  0
   10.2348   -3.8880   26.8105 C   0  0  0  0  0  0  0  0  0  0  0  0
   10.0210   -3.2289   25.6110 C   0  0  0  0  0  0  0  0  0  0  0  0
   11.0382   -2.6387   24.9162 C   0  0  0  0  0  0  0  0  0  0  0  0
    5.1871   -1.1206   19.6612 C   0  0  0  0  0  0  0  0  0  0  0  0
    5.2101    1.4639   16.8743 C   0  0  0  0  0  0  0  0  0  0  0  0
    4.7395    0.6032   17.9316 N   0  0  0  0  0  0  0  0  0  0  0  0
    5.6899   -0.2380   18.5713 C   0  0  0  0  0  0  0  0  0  0  0  0
    6.9138   -0.2614   18.2548 O   0  0  0  0  0  0  0  0  0  0  0  0
    3.7926    0.5986   18.2010 H   0  0  0  0  0  0  0  0  0  0  0  0
    6.1606   -3.4209   23.0064 C   0  0  0  0  0  0  0  0  0  0  0  0
    6.5751   -4.8021   23.2497 N   0  0  0  0  0  0  0  0  0  0  0  0
    7.3055   -5.2088   22.7296 H   0  0  0  0  0  0  0  0  0  0  0  0
    5.8990   -5.5408   24.2529 C   0  0  0  0  0  0  0  0  0  0  0  0
    5.8316   -6.9212   24.3682 C   0  0  0  0  0  0  0  0  0  0  0  0
    5.0918   -7.1817   25.4592 N   0  0  0  0  0  0  0  0  0  0  0  0
    4.6902   -6.0677   26.0370 N   0  0  0  0  0  0  0  0  0  0  0  0
    3.8756   -5.9246   27.2336 C   0  0  0  0  0  0  0  0  0  0  0  0
    5.1729   -5.0358   25.3149 C   0  0  0  0  0  0  0  0  0  0  0  0
 29 30  1  0  0  0
 30 31  1  0  0  0
 30 33  1  0  0  0
 31 32  2  0  0  0
 31 28  1  0  0  0
 28  1  1  0  0  0
  1  2  1  0  0  0
  3  2  1  0  0  0
  3  4  1  0  0  0
  3  9  1  0  0  0
  4  5  2  0  0  0
  4  6  1  0  0  0
  6 18  1  0  0  0
  6  7  1  0  0  0
 18 19  2  0  0  0
 19 20  1  0  0  0
 20 21  2  0  0  0
 21 22  1  0  0  0
 22 23  2  0  0  0
 23 24  1  0  0  0
 24 25  2  0  0  0
 25 26  1  0  0  0
 26 27  2  0  0  0
 27 18  1  0  0  0
 27 22  1  0  0  0
  7  8  1  0  0  0
  8 34  1  0  0  0
  8  3  1  0  0  0
 34 35  1  0  0  0
 35 37  1  0  0  0
 35 36  1  0  0  0
 37 38  1  0  0  0
 38 39  2  0  0  0
 39 40  1  0  0  0
 40 41  1  0  0  0
 40 42  1  0  0  0
 42 37  2  0  0  0
  9 10  2  0  0  0
 10 11  1  0  0  0
 11 12  1  0  0  0
 11 13  2  0  0  0
 13 14  1  0  0  0
 14 15  2  0  0  0
 15 16  1  0  0  0
 15  9  1  0  0  0
 16 17  2  0  0  0
 16  1  1  0  0  0
M  END
> <minimizedAffinity>
-8.86861

> <CNNscore>
0.5029560328

> <CNNaffinity>
7.1666231155

> <CNN_VS>
3.6044962406

> <CNNaffinity_variance>
0.1910522282
$$$$



28 32  0  0  0  0  0  0  0  0999 V2000
    5.0996   -2.7941   21.4775 O   0  0  0  0  0  0  0  0  0  0  0  0
    6.1828   -2.1625   21.5852 C   0  0  0  0  0  0  0  0  0  0  0  0
    7.4270   -2.6709   22.1115 N   0  0  0  0  0  0  0  0  0  0  0  0
    8.2826   -1.5468   22.2347 C   0  0  0  0  0  0  0  0  0  0  0  0
    8.7337   -1.2281   23.6699 C   0  0  0  0  0  0  0  0  0  0  0  0
    9.7553   -2.3577   23.4010 C   0  0  0  0  0  0  0  0  0  0  0  0
    9.7923   -1.8204   22.0184 C   0  0  0  0  0  0  0  0  0  0  0  0
    7.7226   -0.4475   21.4717 C   0  0  0  0  0  0  0  0  0  0  0  0
    8.2414    0.6129   21.0954 O   0  0  0  0  0  0  0  0  0  0  0  0
    6.3636   -0.7960   21.1918 N   0  0  0  0  0  0  0  0  0  0  0  0
    7.6381   -3.6054   22.3381 H   0  0  0  0  0  0  0  0  0  0  0  0
    5.3774    0.0675   20.6242 C   0  0  0  0  0  0  0  0  0  0  0  0
    5.2916    0.3148   19.2696 C   0  0  0  0  0  0  0  0  0  0  0  0
    4.3477    1.1324   18.7930 N   0  0  0  0  0  0  0  0  0  0  0  0
    3.4888    1.7061   19.6498 C   0  0  0  0  0  0  0  0  0  0  0  0
    3.5244    1.4979   21.0117 C   0  0  0  0  0  0  0  0  0  0  0  0
    2.6471    2.0832   21.8925 C   0  0  0  0  0  0  0  0  0  0  0  0
    2.6932    1.8667   23.2527 C   0  0  0  0  0  0  0  0  0  0  0  0
    3.6498    1.0365   23.7473 C   0  0  0  0  0  0  0  0  0  0  0  0
    4.5592    0.4238   22.8805 C   0  0  0  0  0  0  0  0  0  0  0  0
    4.4939    0.6568   21.5106 C   0  0  0  0  0  0  0  0  0  0  0  0
   10.9010   -2.2698   24.2827 C   0  0  0  0  0  0  0  0  0  0  0  0
   11.8656   -1.2946   23.9535 C   0  0  0  0  0  0  0  0  0  0  0  0
   13.0054   -1.1241   24.7010 C   0  0  0  0  0  0  0  0  0  0  0  0
   13.2606   -1.9001   25.8106 C   0  0  0  0  0  0  0  0  0  0  0  0
   12.3253   -2.8509   26.1364 C   0  0  0  0  0  0  0  0  0  0  0  0
   11.1773   -3.0214   25.3827 C   0  0  0  0  0  0  0  0  0  0  0  0
   10.0580   -4.2463   25.9144 Cl  0  0  0  0  0  0  0  0  0  0  0  0
  1  2  2  0  0  0
  2  3  1  0  0  0
  3  4  1  0  0  0
  3 11  1  0  0  0
  4  5  1  0  0  0
  4  8  1  0  0  0
  5  6  1  0  0  0
  6 22  1  0  0  0
  6  7  1  0  0  0
 22 23  2  0  0  0
 23 24  1  0  0  0
 24 25  2  0  0  0
 25 26  1  0  0  0
 26 27  2  0  0  0
 27 28  1  0  0  0
 27 22  1  0  0  0
  7  4  1  0  0  0
  8  9  2  0  0  0
  8 10  1  0  0  0
 10 12  1  0  0  0
 10  2  1  0  0  0
 12 13  2  0  0  0
 13 14  1  0  0  0
 14 15  2  0  0  0
 15 16  1  0  0  0
 16 17  2  0  0  0
 17 18  1  0  0  0
 18 19  2  0  0  0
 19 20  1  0  0  0
 20 21  2  0  0  0
 21 12  1  0  0  0
 21 16  1  0  0  0
M  END
> <minimizedAffinity>
-8.12817

> <CNNscore>
0.8161628842

> <CNNaffinity>
6.3591356277

> <CNN_VS>
5.1900906563

> <CNNaffinity_variance>
0.3489834666
$$$$



25 27  0  0  0  0  0  0  0  0999 V2000
    9.9128    0.0646   22.2624 C   0  0  0  0  0  0  0  0  0  0  0  0
   11.1924   -0.6634   22.3358 C   0  0  0  0  0  0  0  0  0  0  0  0
   11.1474   -1.9242   23.1590 C   0  0  0  0  0  0  0  0  0  0  0  0
    9.8402   -2.1052   23.8549 C   0  0  0  0  0  0  0  0  0  0  0  0
    8.6460   -2.0064   22.9812 C   0  0  0  0  0  0  0  0  0  0  0  0
    8.6985   -0.7474   22.2512 N   0  0  0  0  0  0  0  0  0  0  0  0
    7.6282   -0.2435   21.4796 C   0  0  0  0  0  0  0  0  0  0  0  0
    7.7994    0.9335   20.9426 O   0  0  0  0  0  0  0  0  0  0  0  0
   12.2109   -1.9235   24.2453 C   0  0  0  0  0  0  0  0  0  0  0  0
   11.8675   -2.9609   25.1056 F   0  0  0  0  0  0  0  0  0  0  0  0
   13.4629   -2.2388   23.7657 F   0  0  0  0  0  0  0  0  0  0  0  0
   12.1800   -0.7603   24.9899 F   0  0  0  0  0  0  0  0  0  0  0  0
   11.1772    1.9247   23.2919 C   0  0  0  0  0  0  0  0  0  0  0  0
    9.8179    1.2280   23.2251 C   0  0  0  0  0  0  0  0  0  0  0  0
    6.3192   -0.8329   21.1622 C   0  0  0  0  0  0  0  0  0  0  0  0
    5.6881   -0.2090   19.9793 C   0  0  0  0  0  0  0  0  0  0  0  0
    6.2691   -0.4779   18.7290 C   0  0  0  0  0  0  0  0  0  0  0  0
    5.8149    0.1560   17.6383 N   0  0  0  0  0  0  0  0  0  0  0  0
    4.8077    1.0611   17.6572 C   0  0  0  0  0  0  0  0  0  0  0  0
    4.2158    1.3449   18.8589 C   0  0  0  0  0  0  0  0  0  0  0  0
    3.1496    2.2393   18.9757 C   0  0  0  0  0  0  0  0  0  0  0  0
    2.5369    2.4934   20.1882 C   0  0  0  0  0  0  0  0  0  0  0  0
    2.9883    1.8515   21.3005 C   0  0  0  0  0  0  0  0  0  0  0  0
    4.0401    0.9754   21.1654 C   0  0  0  0  0  0  0  0  0  0  0  0
    4.6751    0.6979   19.9887 C   0  0  0  0  0  0  0  0  0  0  0  0
 13 14  1  0  0  0
  1 14  1  0  0  0
  1  2  1  0  0  0
  2  3  1  0  0  0
  3  9  1  0  0  0
  3  4  1  0  0  0
  9 10  1  0  0  0
  9 11  1  0  0  0
  9 12  1  0  0  0
  4  5  1  0  0  0
  5  6  1  0  0  0
  6  7  1  0  0  0
  6  1  1  0  0  0
  7  8  2  0  0  0
  7 15  1  0  0  0
 15 16  1  0  0  0
 16 17  2  0  0  0
 17 18  1  0  0  0
 18 19  2  0  0  0
 19 20  1  0  0  0
 20 21  2  0  0  0
 21 22  1  0  0  0
 22 23  2  0  0  0
 23 24  1  0  0  0
 24 25  2  0  0  0
 25 16  1  0  0  0
 25 20  1  0  0  0
M  END
> <minimizedAffinity>
-8.18471

> <CNNscore>
0.7777106166

> <CNNaffinity>
6.0999665260

> <CNN_VS>
4.7440085411

> <CNNaffinity_variance>
0.2204387486
$$$$



41 46  0  0  0  0  0  0  0  0999 V2000
    5.3071    0.8962   23.5034 N   0  0  0  0  0  0  0  0  0  0  0  0
    5.8928   -0.2463   22.8642 C   0  0  0  0  0  0  0  0  0  0  0  0
    6.6781   -1.1575   23.7757 C   0  0  0  0  0  0  0  0  0  0  0  0
    8.0872   -0.6887   23.7118 C   0  0  0  0  0  0  0  0  0  0  0  0
    8.4118    0.5042   23.9479 O   0  0  0  0  0  0  0  0  0  0  0  0
    8.9843   -1.7003   23.3680 N   0  0  0  0  0  0  0  0  0  0  0  0
    8.2026   -2.8815   23.0865 C   0  0  0  0  0  0  0  0  0  0  0  0
    6.7662   -2.5596   23.2590 C   0  0  0  0  0  0  0  0  0  0  0  0
    6.1741   -1.1706   25.1708 C   0  0  0  0  0  0  0  0  0  0  0  0
    6.5842   -2.1602   26.0433 C   0  0  0  0  0  0  0  0  0  0  0  0
    6.1166   -2.1924   27.3626 C   0  0  0  0  0  0  0  0  0  0  0  0
    6.6518   -3.4652   28.4626 Cl  0  0  0  0  0  0  0  0  0  0  0  0
    5.2472   -1.2626   27.8430 C   0  0  0  0  0  0  0  0  0  0  0  0
    4.8289   -0.2657   26.9799 C   0  0  0  0  0  0  0  0  0  0  0  0
    5.2934   -0.2380   25.6782 C   0  0  0  0  0  0  0  0  0  0  0  0
    4.8178    0.8556   24.8385 C   0  0  0  0  0  0  0  0  0  0  0  0
    4.0143    1.7174   25.2795 O   0  0  0  0  0  0  0  0  0  0  0  0
   10.3923   -1.6530   23.2887 C   0  0  0  0  0  0  0  0  0  0  0  0
   11.0043   -1.1785   22.1222 C   0  0  0  0  0  0  0  0  0  0  0  0
   12.3513   -1.1198   22.0129 N   0  0  0  0  0  0  0  0  0  0  0  0
   13.1720   -1.5061   22.9987 C   0  0  0  0  0  0  0  0  0  0  0  0
   12.6184   -1.9825   24.1717 C   0  0  0  0  0  0  0  0  0  0  0  0
   13.4275   -2.3956   25.2232 C   0  0  0  0  0  0  0  0  0  0  0  0
   12.8534   -2.8702   26.3900 C   0  0  0  0  0  0  0  0  0  0  0  0
   11.4704   -2.9484   26.5470 C   0  0  0  0  0  0  0  0  0  0  0  0
   10.6865   -2.5271   25.4755 C   0  0  0  0  0  0  0  0  0  0  0  0
   11.2402   -2.0501   24.3021 C   0  0  0  0  0  0  0  0  0  0  0  0
    5.2024    2.1466   22.7587 C   0  0  0  0  0  0  0  0  0  0  0  0
    6.5666    2.6658   22.3655 C   0  0  0  0  0  0  0  0  0  0  0  0
    8.1781    4.2038   23.2603 C   0  0  0  0  0  0  0  0  0  0  0  0
    7.2108    3.1674   23.5657 N   0  0  0  0  0  0  0  0  0  0  0  0
    6.4992    3.5518   24.1872 H   0  0  0  0  0  0  0  0  0  0  0  0
    7.7035    2.3928   24.0103 H   0  0  0  0  0  0  0  0  0  0  0  0
    5.9415   -2.8140   22.0166 C   0  0  0  0  0  0  0  0  0  0  0  0
    5.1890   -3.9598   22.0445 O   0  0  0  0  0  0  0  0  0  0  0  0
    5.2187   -4.6324   23.2509 C   0  0  0  0  0  0  0  0  0  0  0  0
    5.3752   -6.1297   23.0641 C   0  0  0  0  0  0  0  0  0  0  0  0
    4.2105   -6.6825   22.5918 F   0  0  0  0  0  0  0  0  0  0  0  0
    6.6418   -6.4731   22.3476 C   0  0  0  0  0  0  0  0  0  0  0  0
    7.2824   -6.5628   23.5853 O   0  0  0  0  0  0  0  0  0  0  0  0
    6.0392   -6.8446   24.1922 C   0  0  0  0  0  0  0  0  0  0  0  0
 30 31  1  0  0  0
 31 29  1  0  0  0
 31 32  1  0  0  0
 31 33  1  0  0  0
 29 28  1  0  0  0
 28  1  1  0  0  0
  1  2  1  0  0  0
  3  2  1  0  0  0
  3  4  1  0  0  0
  3  9  1  0  0  0
  4  5  2  0  0  0
  4  6  1  0  0  0
  6 18  1  0  0  0
  6  7  1  0  0  0
 18 19  2  0  0  0
 19 20  1  0  0  0
 20 21  2  0  0  0
 21 22  1  0  0  0
 22 23  2  0  0  0
 23 24  1  0  0  0
 24 25  2  0  0  0
 25 26  1  0  0  0
 26 27  2  0  0  0
 27 18  1  0  0  0
 27 22  1  0  0  0
  7  8  1  0  0  0
  8 34  1  0  0  0
  8  3  1  0  0  0
 34 35  1  0  0  0
 35 36  1  0  0  0
 36 37  1  0  0  0
 37 38  1  0  0  0
 37 39  1  0  0  0
 39 40  1  0  0  0
 40 41  1  0  0  0
 41 37  1  0  0  0
  9 10  2  0  0  0
 10 11  1  0  0  0
 11 12  1  0  0  0
 11 13  2  0  0  0
 13 14  1  0  0  0
 14 15  2  0  0  0
 15 16  1  0  0  0
 15  9  1  0  0  0
 16 17  2  0  0  0
 16  1  1  0  0  0
M  CHG 1  31   1
M  END
> <minimizedAffinity>
-7.32825

> <CNNscore>
0.6311993599

> <CNNaffinity>
6.8450040817

> <CNN_VS>
4.3205623627

> <CNNaffinity_variance>
0.2797215283
$$$$



42 47  0  0  0  0  0  0  0  0999 V2000
    4.5687    1.3999   23.5154 N   0  0  0  0  0  0  0  0  0  0  0  0
    5.9979    1.1262   23.5459 C   0  0  0  0  0  0  0  0  0  0  0  0
    6.3742   -0.1956   24.1029 C   0  0  0  0  0  0  0  0  0  0  0  0
    7.6734   -0.0024   24.8347 C   0  0  0  0  0  0  0  0  0  0  0  0
    7.7954    0.5264   25.9914 O   0  0  0  0  0  0  0  0  0  0  0  0
    8.7404   -0.5068   24.0234 N   0  0  0  0  0  0  0  0  0  0  0  0
    8.1987   -0.6563   22.6632 C   0  0  0  0  0  0  0  0  0  0  0  0
    6.8197   -1.1685   23.0426 C   0  0  0  0  0  0  0  0  0  0  0  0
    5.4265   -0.7602   25.0664 C   0  0  0  0  0  0  0  0  0  0  0  0
    5.8519   -1.8355   25.8394 C   0  0  0  0  0  0  0  0  0  0  0  0
    4.9858   -2.4029   26.7665 C   0  0  0  0  0  0  0  0  0  0  0  0
    5.5874   -3.7681   27.7186 Cl  0  0  0  0  0  0  0  0  0  0  0  0
    3.7001   -1.9420   26.9609 C   0  0  0  0  0  0  0  0  0  0  0  0
    3.2888   -0.8752   26.1889 C   0  0  0  0  0  0  0  0  0  0  0  0
    4.1376   -0.3006   25.2634 C   0  0  0  0  0  0  0  0  0  0  0  0
    3.6623    0.8293   24.4648 C   0  0  0  0  0  0  0  0  0  0  0  0
    2.5018    1.3051   24.5858 O   0  0  0  0  0  0  0  0  0  0  0  0
   10.0686   -0.8088   24.4376 C   0  0  0  0  0  0  0  0  0  0  0  0
   11.0565    0.0739   24.0208 C   0  0  0  0  0  0  0  0  0  0  0  0
   12.3508   -0.1100   24.3522 N   0  0  0  0  0  0  0  0  0  0  0  0
   12.7039   -1.1833   25.1122 C   0  0  0  0  0  0  0  0  0  0  0  0
   11.7230   -2.0677   25.5312 C   0  0  0  0  0  0  0  0  0  0  0  0
   12.0813   -3.1571   26.3026 C   0  0  0  0  0  0  0  0  0  0  0  0
   11.1156   -4.0349   26.7197 C   0  0  0  0  0  0  0  0  0  0  0  0
    9.7786   -3.8501   26.3808 C   0  0  0  0  0  0  0  0  0  0  0  0
    9.3983   -2.7662   25.6095 C   0  0  0  0  0  0  0  0  0  0  0  0
   10.3888   -1.9068   25.2084 C   0  0  0  0  0  0  0  0  0  0  0  0
    3.9855    2.2727   22.5121 C   0  0  0  0  0  0  0  0  0  0  0  0
    4.9013    3.3690   22.0472 C   0  0  0  0  0  0  0  0  0  0  0  0
    2.9485    4.2835   20.9712 C   0  0  0  0  0  0  0  0  0  0  0  0
    4.3746    4.1368   20.9444 N   0  0  0  0  0  0  0  0  0  0  0  0
    4.7941    5.0662   20.9700 H   0  0  0  0  0  0  0  0  0  0  0  0
    4.6052    3.6281   20.0909 H   0  0  0  0  0  0  0  0  0  0  0  0
    5.8850   -1.2268   21.8688 C   0  0  0  0  0  0  0  0  0  0  0  0
    6.6287   -0.7461   20.7044 N   0  0  0  0  0  0  0  0  0  0  0  0
    7.5973   -0.9090   20.6384 H   0  0  0  0  0  0  0  0  0  0  0  0
    5.9555   -0.0450   19.6690 C   0  0  0  0  0  0  0  0  0  0  0  0
    4.7390    0.4502   19.8926 N   0  0  0  0  0  0  0  0  0  0  0  0
    4.0966    1.1173   18.9102 C   0  0  0  0  0  0  0  0  0  0  0  0
    4.6598    1.2969   17.6975 N   0  0  0  0  0  0  0  0  0  0  0  0
    5.8812    0.8017   17.4678 C   0  0  0  0  0  0  0  0  0  0  0  0
    6.5272    0.1352   18.4441 N   0  0  0  0  0  0  0  0  0  0  0  0
 30 31  1  0  0  0
 31 29  1  0  0  0
 31 32  1  0  0  0
 31 33  1  0  0  0
 29 28  1  0  0  0
 28  1  1  0  0  0
  1  2  1  0  0  0
  3  2  1  0  0  0
  3  4  1  0  0  0
  3  9  1  0  0  0
  4  5  2  0  0  0
  4  6  1  0  0  0
  6 18  1  0  0  0
  6  7  1  0  0  0
 18 19  2  0  0  0
 19 20  1  0  0  0
 20 21  2  0  0  0
 21 22  1  0  0  0
 22 23  2  0  0  0
 23 24  1  0  0  0
 24 25  2  0  0  0
 25 26  1  0  0  0
 26 27  2  0  0  0
 27 18  1  0  0  0
 27 22  1  0  0  0
  7  8  1  0  0  0
  8 34  1  0  0  0
  8  3  1  0  0  0
 34 35  1  0  0  0
 35 37  1  0  0  0
 35 36  1  0  0  0
 37 38  2  0  0  0
 38 39  1  0  0  0
 39 40  2  0  0  0
 40 41  1  0  0  0
 41 42  2  0  0  0
 42 37  1  0  0  0
  9 10  2  0  0  0
 10 11  1  0  0  0
 11 12  1  0  0  0
 11 13  2  0  0  0
 13 14  1  0  0  0
 14 15  2  0  0  0
 15 16  1  0  0  0
 15  9  1  0  0  0
 16 17  2  0  0  0
 16  1  1  0  0  0
M  CHG 1  31   1
M  END
> <minimizedAffinity>
-7.72548

> <CNNscore>
0.2404242903

> <CNNaffinity>
6.3886642456

> <CNN_VS>
1.5359901190

> <CNNaffinity_variance>
0.1575150192
$$$$



40 45  0  0  0  0  0  0  0  0999 V2000
    6.2661   -1.0911   21.5126 N   0  0  0  0  0  0  0  0  0  0  0  0
    7.6359   -1.1836   21.9894 C   0  0  0  0  0  0  0  0  0  0  0  0
    7.6380   -2.0145   23.2199 C   0  0  0  0  0  0  0  0  0  0  0  0
    6.6450   -1.3184   24.1284 C   0  0  0  0  0  0  0  0  0  0  0  0
    5.3867   -1.3977   24.0764 O   0  0  0  0  0  0  0  0  0  0  0  0
    7.3505   -0.5343   25.0828 N   0  0  0  0  0  0  0  0  0  0  0  0
    8.7366   -0.5435   24.6174 C   0  0  0  0  0  0  0  0  0  0  0  0
    8.8284   -1.9736   24.0544 C   0  0  0  0  0  0  0  0  0  0  0  0
    7.0293   -3.3168   22.9377 C   0  0  0  0  0  0  0  0  0  0  0  0
    7.4019   -4.4779   23.6268 C   0  0  0  0  0  0  0  0  0  0  0  0
    6.8158   -5.6994   23.3656 C   0  0  0  0  0  0  0  0  0  0  0  0
    7.3103   -7.1385   24.2528 Cl  0  0  0  0  0  0  0  0  0  0  0  0
    5.8324   -5.8494   22.4149 C   0  0  0  0  0  0  0  0  0  0  0  0
    5.4538   -4.7143   21.7264 C   0  0  0  0  0  0  0  0  0  0  0  0
    6.0400   -3.4947   21.9876 C   0  0  0  0  0  0  0  0  0  0  0  0
    5.6153   -2.3276   21.2175 C   0  0  0  0  0  0  0  0  0  0  0  0
    4.7224   -2.3723   20.3300 O   0  0  0  0  0  0  0  0  0  0  0  0
    6.8703    0.1303   26.2446 C   0  0  0  0  0  0  0  0  0  0  0  0
    6.9213    1.5238   26.3466 C   0  0  0  0  0  0  0  0  0  0  0  0
    6.4701    2.1640   27.4402 N   0  0  0  0  0  0  0  0  0  0  0  0
    5.9432    1.5038   28.5003 C   0  0  0  0  0  0  0  0  0  0  0  0
    5.8669    0.1269   28.4563 C   0  0  0  0  0  0  0  0  0  0  0  0
    5.3337   -0.6060   29.5180 C   0  0  0  0  0  0  0  0  0  0  0  0
    5.2561   -1.9861   29.4751 C   0  0  0  0  0  0  0  0  0  0  0  0
    5.7200   -2.6436   28.3506 C   0  0  0  0  0  0  0  0  0  0  0  0
    6.2414   -1.8966   27.3174 C   0  0  0  0  0  0  0  0  0  0  0  0
    6.3320   -0.5267   27.3299 C   0  0  0  0  0  0  0  0  0  0  0  0
    5.5821    0.1727   21.3315 C   0  0  0  0  0  0  0  0  0  0  0  0
    4.7187    0.9928   17.6650 C   0  0  0  0  0  0  0  0  0  0  0  0
    4.6434    0.5628   19.0616 N   0  0  0  0  0  0  0  0  0  0  0  0
    5.7813    0.6445   19.9142 C   0  0  0  0  0  0  0  0  0  0  0  0
    6.8986    1.0806   19.5333 O   0  0  0  0  0  0  0  0  0  0  0  0
    3.7948    0.2123   19.4167 H   0  0  0  0  0  0  0  0  0  0  0  0
   10.1631   -2.2417   23.4600 C   0  0  0  0  0  0  0  0  0  0  0  0
   11.1563   -2.4729   24.5610 C   0  0  0  0  0  0  0  0  0  0  0  0
   12.3690   -1.7756   24.5790 C   0  0  0  0  0  0  0  0  0  0  0  0
   13.2757   -1.9969   25.5979 C   0  0  0  0  0  0  0  0  0  0  0  0
   13.0348   -2.8872   26.6121 C   0  0  0  0  0  0  0  0  0  0  0  0
   11.8304   -3.5860   26.6028 C   0  0  0  0  0  0  0  0  0  0  0  0
   10.9131   -3.3725   25.5860 C   0  0  0  0  0  0  0  0  0  0  0  0
 29 30  1  0  0  0
 30 31  1  0  0  0
 30 33  1  0  0  0
 31 32  2  0  0  0
 31 28  1  0  0  0
 28  1  1  0  0  0
  1  2  1  0  0  0
  3  2  1  0  0  0
  3  4  1  0  0  0
  3  9  1  0  0  0
  4  5  2  0  0  0
  4  6  1  0  0  0
  6 18  1  0  0  0
  6  7  1  0  0  0
 18 19  2  0  0  0
 19 20  1  0  0  0
 20 21  2  0  0  0
 21 22  1  0  0  0
 22 23  2  0  0  0
 23 24  1  0  0  0
 24 25  2  0  0  0
 25 26  1  0  0  0
 26 27  2  0  0  0
 27 18  1  0  0  0
 27 22  1  0  0  0
  7  8  1  0  0  0
  8 34  1  0  0  0
  8  3  1  0  0  0
 34 35  1  0  0  0
 35 36  2  0  0  0
 36 37  1  0  0  0
 37 38  2  0  0  0
 38 39  1  0  0  0
 39 40  2  0  0  0
 40 35  1  0  0  0
  9 10  2  0  0  0
 10 11  1  0  0  0
 11 12  1  0  0  0
 11 13  2  0  0  0
 13 14  1  0  0  0
 14 15  2  0  0  0
 15 16  1  0  0  0
 15  9  1  0  0  0
 16 17  2  0  0  0
 16  1  1  0  0  0
M  END
> <minimizedAffinity>
-8.43642

> <CNNscore>
0.8847463131

> <CNNaffinity>
7.3257470131

> <CNN_VS>
6.4814276695

> <CNNaffinity_variance>
0.0586973839
$$$$



42 48  0  0  0  0  0  0  0  0999 V2000
    7.3102   -3.4205   27.3620 O   0  0  0  0  0  0  0  0  0  0  0  0
    7.0952   -2.8034   26.2705 C   0  0  0  0  0  0  0  0  0  0  0  0
    6.3828   -1.5402   26.2039 C   0  0  0  0  0  0  0  0  0  0  0  0
    5.8918   -1.0269   27.3831 C   0  0  0  0  0  0  0  0  0  0  0  0
    5.1694    0.1456   27.3919 C   0  0  0  0  0  0  0  0  0  0  0  0
    4.9690    0.7642   26.1780 C   0  0  0  0  0  0  0  0  0  0  0  0
    4.0413    2.2725   26.1710 Cl  0  0  0  0  0  0  0  0  0  0  0  0
    5.4653    0.2425   25.0013 C   0  0  0  0  0  0  0  0  0  0  0  0
    6.2041   -0.9491   24.9718 C   0  0  0  0  0  0  0  0  0  0  0  0
    6.7519   -1.4991   23.7018 C   0  0  0  0  0  0  0  0  0  0  0  0
    6.8406   -2.9935   23.8444 C   0  0  0  0  0  0  0  0  0  0  0  0
    7.5660   -3.3503   25.0122 N   0  0  0  0  0  0  0  0  0  0  0  0
    5.7662   -1.1010   22.6532 C   0  0  0  0  0  0  0  0  0  0  0  0
    4.5620   -1.5178   22.6088 O   0  0  0  0  0  0  0  0  0  0  0  0
    6.3656   -0.1968   21.7211 N   0  0  0  0  0  0  0  0  0  0  0  0
    7.5172    0.3248   22.4329 C   0  0  0  0  0  0  0  0  0  0  0  0
    8.0002   -0.8715   23.2163 C   0  0  0  0  0  0  0  0  0  0  0  0
    5.9027    0.1171   20.4015 C   0  0  0  0  0  0  0  0  0  0  0  0
    6.5004   -0.4151   19.2645 C   0  0  0  0  0  0  0  0  0  0  0  0
    6.0534   -0.0990   18.0150 N   0  0  0  0  0  0  0  0  0  0  0  0
    5.0352    0.7226   17.7873 C   0  0  0  0  0  0  0  0  0  0  0  0
    4.4048    1.2800   18.8803 C   0  0  0  0  0  0  0  0  0  0  0  0
    3.3483    2.1399   18.6601 C   0  0  0  0  0  0  0  0  0  0  0  0
    2.6819    2.7326   19.7131 C   0  0  0  0  0  0  0  0  0  0  0  0
    3.1059    2.4378   20.9901 C   0  0  0  0  0  0  0  0  0  0  0  0
    4.1619    1.5776   21.1946 C   0  0  0  0  0  0  0  0  0  0  0  0
    4.8433    0.9729   20.1681 C   0  0  0  0  0  0  0  0  0  0  0  0
    8.6903   -4.2457   25.1279 C   0  0  0  0  0  0  0  0  0  0  0  0
    9.9627   -3.6479   25.5363 C   0  0  0  0  0  0  0  0  0  0  0  0
   10.4432   -2.4005   25.5250 N   0  0  0  0  0  0  0  0  0  0  0  0
   11.6752   -2.3473   26.0056 N   0  0  0  0  0  0  0  0  0  0  0  0
   11.9790   -3.6186   26.3320 C   0  0  0  0  0  0  0  0  0  0  0  0
   10.9498   -4.3748   26.0457 O   0  0  0  0  0  0  0  0  0  0  0  0
    8.6789   -1.7615   22.1919 C   0  0  0  0  0  0  0  0  0  0  0  0
    9.7381   -1.0181   21.4916 N   0  0  0  0  0  0  0  0  0  0  0  0
    9.6122   -0.6758   20.5773 H   0  0  0  0  0  0  0  0  0  0  0  0
   10.9537   -0.8195   22.2038 C   0  0  0  0  0  0  0  0  0  0  0  0
   11.1316    0.3443   22.9170 C   0  0  0  0  0  0  0  0  0  0  0  0
   12.3132    0.5683   23.6259 C   0  0  0  0  0  0  0  0  0  0  0  0
   13.2644   -0.3782   23.5917 N   0  0  0  0  0  0  0  0  0  0  0  0
   13.0714   -1.5075   22.8894 C   0  0  0  0  0  0  0  0  0  0  0  0
   11.9289   -1.7460   22.1923 N   0  0  0  0  0  0  0  0  0  0  0  0
  1  2  2  0  0  0
  2  3  1  0  0  0
  3  4  2  0  0  0
  4  5  1  0  0  0
  5  6  2  0  0  0
  6  7  1  0  0  0
  6  8  1  0  0  0
  8  9  2  0  0  0
  9  3  1  0  0  0
 10  9  1  0  0  0
 10 11  1  0  0  0
 10 13  1  0  0  0
 11 12  1  0  0  0
 12 28  1  0  0  0
 12  2  1  0  0  0
 28 29  1  0  0  0
 29 30  2  0  0  0
 30 31  1  0  0  0
 31 32  2  0  0  0
 32 33  1  0  0  0
 33 29  1  0  0  0
 13 14  2  0  0  0
 13 15  1  0  0  0
 15 18  1  0  0  0
 15 16  1  0  0  0
 18 19  2  0  0  0
 19 20  1  0  0  0
 20 21  2  0  0  0
 21 22  1  0  0  0
 22 23  2  0  0  0
 23 24  1  0  0  0
 24 25  2  0  0  0
 25 26  1  0  0  0
 26 27  2  0  0  0
 27 18  1  0  0  0
 27 22  1  0  0  0
 16 17  1  0  0  0
 17 34  1  0  0  0
 17 10  1  0  0  0
 34 35  1  0  0  0
 35 37  1  0  0  0
 35 36  1  0  0  0
 37 38  2  0  0  0
 38 39  1  0  0  0
 39 40  2  0  0  0
 40 41  1  0  0  0
 41 42  2  0  0  0
 42 37  1  0  0  0
M  END
> <minimizedAffinity>
-8.58401

> <CNNscore>
0.4216510355

> <CNNaffinity>
7.0700483322

> <CNN_VS>
2.9810931683

> <CNNaffinity_variance>
0.2901196480
$$$$



39 44  0  0  0  0  0  0  0  0999 V2000
    8.5633    0.5308   24.3358 C   0  0  0  0  0  0  0  0  0  0  0  0
    7.2222    0.5475   23.6417 C   0  0  0  0  0  0  0  0  0  0  0  0
    7.3251    0.9677   22.2074 C   0  0  0  0  0  0  0  0  0  0  0  0
    6.4038    0.1409   21.4877 N   0  0  0  0  0  0  0  0  0  0  0  0
    6.0656   -1.0031   22.2600 C   0  0  0  0  0  0  0  0  0  0  0  0
    5.4771   -2.0479   21.8920 O   0  0  0  0  0  0  0  0  0  0  0  0
    6.5368   -0.7720   23.6498 C   0  0  0  0  0  0  0  0  0  0  0  0
    7.4182   -1.9161   24.0662 C   0  0  0  0  0  0  0  0  0  0  0  0
    7.4356   -2.2002   25.4659 N   0  0  0  0  0  0  0  0  0  0  0  0
    6.2709   -2.0575   26.2697 C   0  0  0  0  0  0  0  0  0  0  0  0
    6.1962   -2.6160   27.3733 O   0  0  0  0  0  0  0  0  0  0  0  0
    5.1914   -1.2335   25.7332 C   0  0  0  0  0  0  0  0  0  0  0  0
    4.0239   -1.0586   26.4770 C   0  0  0  0  0  0  0  0  0  0  0  0
    2.9958   -0.2671   25.9506 C   0  0  0  0  0  0  0  0  0  0  0  0
    3.1243    0.3403   24.7075 C   0  0  0  0  0  0  0  0  0  0  0  0
    1.8330    1.3335   24.0479 Cl  0  0  0  0  0  0  0  0  0  0  0  0
    4.2879    0.1441   24.0067 C   0  0  0  0  0  0  0  0  0  0  0  0
    5.3155   -0.6287   24.4987 C   0  0  0  0  0  0  0  0  0  0  0  0
    5.8705    0.3772   20.1882 C   0  0  0  0  0  0  0  0  0  0  0  0
    6.3698   -0.2154   19.0479 C   0  0  0  0  0  0  0  0  0  0  0  0
    5.7852    0.0831   17.8744 N   0  0  0  0  0  0  0  0  0  0  0  0
    4.7487    0.9269   17.7899 C   0  0  0  0  0  0  0  0  0  0  0  0
    4.2116    1.5493   18.9218 C   0  0  0  0  0  0  0  0  0  0  0  0
    3.1508    2.4160   18.8528 C   0  0  0  0  0  0  0  0  0  0  0  0
    2.6446    3.0157   19.9999 C   0  0  0  0  0  0  0  0  0  0  0  0
    3.2293    2.7242   21.2174 C   0  0  0  0  0  0  0  0  0  0  0  0
    4.2968    1.8532   21.2933 C   0  0  0  0  0  0  0  0  0  0  0  0
    4.7888    1.2638   20.1386 C   0  0  0  0  0  0  0  0  0  0  0  0
    8.6679   -2.6548   26.1312 C   0  0  0  0  0  0  0  0  0  0  0  0
    9.6587   -2.9188   25.0503 C   0  0  0  0  0  0  0  0  0  0  0  0
   10.7931   -2.0295   25.0458 N   0  0  0  0  0  0  0  0  0  0  0  0
   11.9388   -2.8587   25.4381 C   0  0  0  0  0  0  0  0  0  0  0  0
   13.0653   -1.9426   25.7843 C   0  0  0  0  0  0  0  0  0  0  0  0
   13.0095   -0.7872   25.0486 O   0  0  0  0  0  0  0  0  0  0  0  0
   12.5080   -0.9898   23.7561 C   0  0  0  0  0  0  0  0  0  0  0  0
   13.3741   -1.9245   22.9543 C   0  0  0  0  0  0  0  0  0  0  0  0
   12.6179    0.3745   23.0621 C   0  0  0  0  0  0  0  0  0  0  0  0
   11.0544   -1.4135   23.7882 C   0  0  0  0  0  0  0  0  0  0  0  0
   10.6096   -1.2525   25.6806 H   0  0  0  0  0  0  0  0  0  0  0  0
  2  1  1  0  0  0
  2  3  1  0  0  0
  3  4  1  0  0  0
  4 19  1  0  0  0
  4  5  1  0  0  0
 19 20  2  0  0  0
 20 21  1  0  0  0
 21 22  2  0  0  0
 22 23  1  0  0  0
 23 24  2  0  0  0
 24 25  1  0  0  0
 25 26  2  0  0  0
 26 27  1  0  0  0
 27 28  2  0  0  0
 28 19  1  0  0  0
 28 23  1  0  0  0
  5  6  2  0  0  0
  7  5  1  0  0  0
  7  8  1  0  0  0
  7  2  1  0  0  0
  8  9  1  0  0  0
  9 29  1  0  0  0
  9 10  1  0  0  0
 29 30  1  0  0  0
 31 30  1  0  0  0
 31 32  1  0  0  0
 31 39  1  0  0  0
 32 33  1  0  0  0
 33 34  1  0  0  0
 34 35  1  0  0  0
 35 36  1  0  0  0
 35 37  1  0  0  0
 35 38  1  0  0  0
 38 31  1  0  0  0
 10 11  2  0  0  0
 10 12  1  0  0  0
 12 13  2  0  0  0
 13 14  1  0  0  0
 14 15  2  0  0  0
 15 16  1  0  0  0
 15 17  1  0  0  0
 17 18  2  0  0  0
 18 12  1  0  0  0
 18  7  1  0  0  0
M  CHG 1  31   1
M  END
> <minimizedAffinity>
-8.98954

> <CNNscore>
0.4383347631

> <CNNaffinity>
6.8115777969

> <CNN_VS>
2.9857513905

> <CNNaffinity_variance>
0.0557955131
$$$$



25 28  0  0  0  0  0  0  0  0999 V2000
    8.8242   -0.8024   21.2927 O   0  0  0  0  0  0  0  0  0  0  0  0
    9.1713   -0.3410   22.4244 C   0  0  0  0  0  0  0  0  0  0  0  0
   10.5208   -0.5620   22.7998 N   0  0  0  0  0  0  0  0  0  0  0  0
   11.5524   -1.2506   22.0481 C   0  0  0  0  0  0  0  0  0  0  0  0
   12.8869   -0.7091   22.5106 C   0  0  0  0  0  0  0  0  0  0  0  0
   12.4661    0.4162   23.4291 C   0  0  0  0  0  0  0  0  0  0  0  0
   11.2001   -0.1452   24.0383 C   0  0  0  0  0  0  0  0  0  0  0  0
   11.4490   -1.3105   24.8942 C   0  0  0  0  0  0  0  0  0  0  0  0
   10.4577   -2.2662   25.1009 C   0  0  0  0  0  0  0  0  0  0  0  0
   10.6830   -3.3785   25.9127 C   0  0  0  0  0  0  0  0  0  0  0  0
   11.8956   -3.5736   26.5409 C   0  0  0  0  0  0  0  0  0  0  0  0
   12.8893   -2.6253   26.3400 C   0  0  0  0  0  0  0  0  0  0  0  0
   14.0993   -2.7719   26.9360 F   0  0  0  0  0  0  0  0  0  0  0  0
   12.6466   -1.5245   25.5285 C   0  0  0  0  0  0  0  0  0  0  0  0
    8.2545    0.3828   23.3145 C   0  0  0  0  0  0  0  0  0  0  0  0
    7.4449   -0.5267   24.1624 C   0  0  0  0  0  0  0  0  0  0  0  0
    7.1766   -1.7921   23.6534 C   0  0  0  0  0  0  0  0  0  0  0  0
    6.4436   -2.6617   24.3830 N   0  0  0  0  0  0  0  0  0  0  0  0
    5.9668   -2.3098   25.6096 C   0  0  0  0  0  0  0  0  0  0  0  0
    6.2376   -1.0488   26.1096 C   0  0  0  0  0  0  0  0  0  0  0  0
    5.7439   -0.7088   27.3595 C   0  0  0  0  0  0  0  0  0  0  0  0
    5.9959    0.5440   27.8898 C   0  0  0  0  0  0  0  0  0  0  0  0
    6.7514    1.4537   27.1488 C   0  0  0  0  0  0  0  0  0  0  0  0
    7.2444    1.1154   25.9017 C   0  0  0  0  0  0  0  0  0  0  0  0
    6.9854   -0.1221   25.3976 C   0  0  0  0  0  0  0  0  0  0  0  0
  1  2  2  0  0  0
  2 15  1  0  0  0
  2  3  1  0  0  0
 15 16  1  0  0  0
 16 17  2  0  0  0
 17 18  1  0  0  0
 18 19  2  0  0  0
 19 20  1  0  0  0
 20 21  2  0  0  0
 21 22  1  0  0  0
 22 23  2  0  0  0
 23 24  1  0  0  0
 24 25  2  0  0  0
 25 16  1  0  0  0
 25 20  1  0  0  0
  3  4  1  0  0  0
  4  5  1  0  0  0
  5  6  1  0  0  0
  6  7  1  0  0  0
  7  8  1  0  0  0
  7  3  1  0  0  0
  8  9  2  0  0  0
  9 10  1  0  0  0
 10 11  2  0  0  0
 11 12  1  0  0  0
 12 13  1  0  0  0
 12 14  2  0  0  0
 14  8  1  0  0  0
M  END
> <minimizedAffinity>
-7.34217

> <CNNscore>
0.7926297188

> <CNNaffinity>
6.1000738144

> <CNN_VS>
4.8350996971

> <CNNaffinity_variance>
0.2007841170
$$$$



35 40  0  0  0  0  0  0  0  0999 V2000
    6.9161    1.9308   25.1674 C   0  0  0  0  0  0  0  0  0  0  0  0
    6.4835    2.8937   24.0583 C   0  0  0  0  0  0  0  0  0  0  0  0
    7.6560    3.7790   23.7972 C   0  0  0  0  0  0  0  0  0  0  0  0
    8.4920    2.9718   22.9361 N   0  0  0  0  0  0  0  0  0  0  0  0
    7.5810    2.2674   22.1058 C   0  0  0  0  0  0  0  0  0  0  0  0
    7.7855    1.8226   20.9242 O   0  0  0  0  0  0  0  0  0  0  0  0
    6.2975    2.1084   22.8274 C   0  0  0  0  0  0  0  0  0  0  0  0
    6.0308    0.6299   23.1045 C   0  0  0  0  0  0  0  0  0  0  0  0
    5.9894   -0.0562   21.8283 N   0  0  0  0  0  0  0  0  0  0  0  0
    4.9364    0.3608   20.9329 C   0  0  0  0  0  0  0  0  0  0  0  0
    4.4226   -0.4500   20.1323 O   0  0  0  0  0  0  0  0  0  0  0  0
    4.5439    1.7634   21.0448 C   0  0  0  0  0  0  0  0  0  0  0  0
    3.5267    2.1943   20.2308 C   0  0  0  0  0  0  0  0  0  0  0  0
    3.0809    3.4964   20.2953 C   0  0  0  0  0  0  0  0  0  0  0  0
    3.6862    4.3433   21.1971 C   0  0  0  0  0  0  0  0  0  0  0  0
    3.2668    5.6443   21.2870 F   0  0  0  0  0  0  0  0  0  0  0  0
    4.7231    3.8903   22.0209 C   0  0  0  0  0  0  0  0  0  0  0  0
    5.1808    2.5899   21.9676 C   0  0  0  0  0  0  0  0  0  0  0  0
    9.9067    2.8627   22.8717 C   0  0  0  0  0  0  0  0  0  0  0  0
   10.7385    3.8779   22.4591 C   0  0  0  0  0  0  0  0  0  0  0  0
   12.0809    3.7095   22.4197 N   0  0  0  0  0  0  0  0  0  0  0  0
   12.6581    2.5485   22.7804 C   0  0  0  0  0  0  0  0  0  0  0  0
   11.8667    1.4905   23.2050 C   0  0  0  0  0  0  0  0  0  0  0  0
   12.4403    0.2836   23.5819 C   0  0  0  0  0  0  0  0  0  0  0  0
   11.6592   -0.7889   24.0108 C   0  0  0  0  0  0  0  0  0  0  0  0
   10.2887   -0.6039   24.0464 C   0  0  0  0  0  0  0  0  0  0  0  0
    9.7190    0.5842   23.6758 C   0  0  0  0  0  0  0  0  0  0  0  0
   10.4779    1.6574   23.2482 C   0  0  0  0  0  0  0  0  0  0  0  0
    6.9065   -1.0915   21.4321 C   0  0  0  0  0  0  0  0  0  0  0  0
    6.7055   -2.3426   22.2077 C   0  0  0  0  0  0  0  0  0  0  0  0
    5.6214   -3.1951   22.2366 C   0  0  0  0  0  0  0  0  0  0  0  0
    5.9482   -4.1703   23.0961 N   0  0  0  0  0  0  0  0  0  0  0  0
    7.1573   -3.9507   23.5790 N   0  0  0  0  0  0  0  0  0  0  0  0
    7.9180   -4.7402   24.5363 C   0  0  0  0  0  0  0  0  0  0  0  0
    7.6509   -2.8334   23.0519 N   0  0  0  0  0  0  0  0  0  0  0  0
  2  1  1  0  0  0
  2  3  1  0  0  0
  3  4  1  0  0  0
  4 19  1  0  0  0
  4  5  1  0  0  0
 19 20  2  0  0  0
 20 21  1  0  0  0
 21 22  2  0  0  0
 22 23  1  0  0  0
 23 24  2  0  0  0
 24 25  1  0  0  0
 25 26  2  0  0  0
 26 27  1  0  0  0
 27 28  2  0  0  0
 28 19  1  0  0  0
 28 23  1  0  0  0
  5  6  2  0  0  0
  7  5  1  0  0  0
  7  8  1  0  0  0
  7  2  1  0  0  0
  8  9  1  0  0  0
  9 29  1  0  0  0
  9 10  1  0  0  0
 29 30  1  0  0  0
 30 31  1  0  0  0
 31 32  2  0  0  0
 32 33  1  0  0  0
 33 34  1  0  0  0
 33 35  1  0  0  0
 35 30  2  0  0  0
 10 11  2  0  0  0
 10 12  1  0  0  0
 12 13  2  0  0  0
 13 14  1  0  0  0
 14 15  2  0  0  0
 15 16  1  0  0  0
 15 17  1  0  0  0
 17 18  2  0  0  0
 18 12  1  0  0  0
 18  7  1  0  0  0
M  END
> <minimizedAffinity>
-8.16219

> <CNNscore>
0.4416222870

> <CNNaffinity>
6.4613699913

> <CNN_VS>
2.8534851074

> <CNNaffinity_variance>
0.1167339534
$$$$



31 34  0  0  0  0  0  0  0  0999 V2000
    7.3402   -1.8686   23.1168 N   0  0  0  0  0  0  0  0  0  0  0  0
    6.7838   -1.1421   22.0390 C   0  0  0  0  0  0  0  0  0  0  0  0
    7.5666   -0.3692   21.4045 O   0  0  0  0  0  0  0  0  0  0  0  0
   11.4351   -1.2022   23.8866 C   0  0  0  0  0  0  0  0  0  0  0  0
   11.0398   -1.8025   22.6997 C   0  0  0  0  0  0  0  0  0  0  0  0
    9.6878   -2.0245   22.4410 C   0  0  0  0  0  0  0  0  0  0  0  0
    8.7415   -1.6451   23.3705 C   0  0  0  0  0  0  0  0  0  0  0  0
    9.1231   -1.0445   24.5604 C   0  0  0  0  0  0  0  0  0  0  0  0
   10.4696   -0.8282   24.8075 C   0  0  0  0  0  0  0  0  0  0  0  0
   12.8532   -0.9370   24.2239 C   0  0  0  0  0  0  0  0  0  0  0  0
   13.6284   -2.8024   25.8859 N   0  0  0  0  0  0  0  0  0  0  0  0
   13.2878   -1.9866   25.1499 C   0  0  0  0  0  0  0  0  0  0  0  0
    6.6618   -2.7861   23.9639 C   0  0  0  0  0  0  0  0  0  0  0  0
    6.8504   -4.2089   23.6843 C   0  0  0  0  0  0  0  0  0  0  0  0
    7.5347   -5.1043   24.4465 C   0  0  0  0  0  0  0  0  0  0  0  0
    7.6481   -6.4267   24.0744 C   0  0  0  0  0  0  0  0  0  0  0  0
    7.0817   -6.9255   22.9176 C   0  0  0  0  0  0  0  0  0  0  0  0
    6.3822   -6.0176   22.1356 C   0  0  0  0  0  0  0  0  0  0  0  0
    5.6258   -6.5713   20.6369 Cl  0  0  0  0  0  0  0  0  0  0  0  0
    6.2717   -4.7058   22.5080 C   0  0  0  0  0  0  0  0  0  0  0  0
    5.3647   -1.2291   21.6135 C   0  0  0  0  0  0  0  0  0  0  0  0
    5.1920   -0.5498   20.2952 C   0  0  0  0  0  0  0  0  0  0  0  0
    5.7543   -1.0236   19.1290 C   0  0  0  0  0  0  0  0  0  0  0  0
    5.5983   -0.4132   17.9389 N   0  0  0  0  0  0  0  0  0  0  0  0
    4.8726    0.7182   17.8017 C   0  0  0  0  0  0  0  0  0  0  0  0
    4.2852    1.2389   18.9387 C   0  0  0  0  0  0  0  0  0  0  0  0
    3.5483    2.3944   18.7788 C   0  0  0  0  0  0  0  0  0  0  0  0
    2.9555    2.9275   19.9035 C   0  0  0  0  0  0  0  0  0  0  0  0
    3.0826    2.3424   21.1508 C   0  0  0  0  0  0  0  0  0  0  0  0
    3.8293    1.1781   21.2913 C   0  0  0  0  0  0  0  0  0  0  0  0
    4.4346    0.6214   20.1823 C   0  0  0  0  0  0  0  0  0  0  0  0
 11 12  3  0  0  0
 12 10  1  0  0  0
 10  4  1  0  0  0
  4  5  2  0  0  0
  5  6  1  0  0  0
  6  7  2  0  0  0
  7  1  1  0  0  0
  7  8  1  0  0  0
  1 13  1  0  0  0
  1  2  1  0  0  0
 13 14  1  0  0  0
 14 15  2  0  0  0
 15 16  1  0  0  0
 16 17  2  0  0  0
 17 18  1  0  0  0
 18 19  1  0  0  0
 18 20  2  0  0  0
 20 14  1  0  0  0
  2  3  2  0  0  0
  2 21  1  0  0  0
 21 22  1  0  0  0
 22 23  2  0  0  0
 23 24  1  0  0  0
 24 25  2  0  0  0
 25 26  1  0  0  0
 26 27  2  0  0  0
 27 28  1  0  0  0
 28 29  2  0  0  0
 29 30  1  0  0  0
 30 31  2  0  0  0
 31 22  1  0  0  0
 31 26  1  0  0  0
  8  9  2  0  0  0
  9  4  1  0  0  0
M  END
> <minimizedAffinity>
-8.43075

> <CNNscore>
0.8978233933

> <CNNaffinity>
7.0752115250

> <CNN_VS>
6.3522906303

> <CNNaffinity_variance>
0.0280165114
$$$$



35 40  0  0  0  0  0  0  0  0999 V2000
    5.6343   -0.9171   22.0077 C   0  0  0  0  0  0  0  0  0  0  0  0
    6.8373   -1.8013   22.2547 C   0  0  0  0  0  0  0  0  0  0  0  0
    7.9754   -0.8745   22.7101 C   0  0  0  0  0  0  0  0  0  0  0  0
    8.9089   -1.8451   23.2447 N   0  0  0  0  0  0  0  0  0  0  0  0
    8.1304   -2.9173   23.8150 C   0  0  0  0  0  0  0  0  0  0  0  0
    8.5852   -3.8623   24.5366 O   0  0  0  0  0  0  0  0  0  0  0  0
    6.6930   -2.7175   23.4055 C   0  0  0  0  0  0  0  0  0  0  0  0
    6.0199   -2.0912   24.6015 C   0  0  0  0  0  0  0  0  0  0  0  0
    6.1361   -2.9942   25.7282 N   0  0  0  0  0  0  0  0  0  0  0  0
    5.5952   -4.3026   25.5572 C   0  0  0  0  0  0  0  0  0  0  0  0
    5.1419   -4.9533   26.5275 O   0  0  0  0  0  0  0  0  0  0  0  0
    5.6096   -4.8227   24.1810 C   0  0  0  0  0  0  0  0  0  0  0  0
    5.0878   -6.0664   23.9850 C   0  0  0  0  0  0  0  0  0  0  0  0
    5.0438   -6.6396   22.7322 C   0  0  0  0  0  0  0  0  0  0  0  0
    5.5519   -5.8963   21.6891 C   0  0  0  0  0  0  0  0  0  0  0  0
    5.5260   -6.4310   20.4329 F   0  0  0  0  0  0  0  0  0  0  0  0
    6.0798   -4.6383   21.8892 C   0  0  0  0  0  0  0  0  0  0  0  0
    6.1342   -4.0401   23.1467 C   0  0  0  0  0  0  0  0  0  0  0  0
   10.3368   -1.7493   23.2069 C   0  0  0  0  0  0  0  0  0  0  0  0
   10.8741   -1.4495   21.9506 C   0  0  0  0  0  0  0  0  0  0  0  0
   12.2239   -1.3314   21.7851 N   0  0  0  0  0  0  0  0  0  0  0  0
   13.0364   -1.5084   22.8533 C   0  0  0  0  0  0  0  0  0  0  0  0
   12.5092   -1.8048   24.0970 C   0  0  0  0  0  0  0  0  0  0  0  0
   13.3703   -1.9788   25.1642 C   0  0  0  0  0  0  0  0  0  0  0  0
   12.8176   -2.2711   26.3801 C   0  0  0  0  0  0  0  0  0  0  0  0
   11.4435   -2.3983   26.5820 C   0  0  0  0  0  0  0  0  0  0  0  0
   10.5820   -2.2237   25.5118 C   0  0  0  0  0  0  0  0  0  0  0  0
   11.1368   -1.9322   24.2998 C   0  0  0  0  0  0  0  0  0  0  0  0
    6.7577   -2.6301   26.9862 C   0  0  0  0  0  0  0  0  0  0  0  0
    5.8650   -1.7456   27.7907 C   0  0  0  0  0  0  0  0  0  0  0  0
    4.9031   -2.1613   28.6830 C   0  0  0  0  0  0  0  0  0  0  0  0
    4.2775   -1.0647   29.2370 C   0  0  0  0  0  0  0  0  0  0  0  0
    4.8852    0.0023   28.6581 N   0  0  0  0  0  0  0  0  0  0  0  0
    4.4812    1.3713   29.0028 C   0  0  0  0  0  0  0  0  0  0  0  0
    5.8130   -0.3948   27.8129 N   0  0  0  0  0  0  0  0  0  0  0  0
  2  1  1  0  0  0
  2  3  1  0  0  0
  3  4  1  0  0  0
  4 19  1  0  0  0
  4  5  1  0  0  0
 19 20  2  0  0  0
 20 21  1  0  0  0
 21 22  2  0  0  0
 22 23  1  0  0  0
 23 24  2  0  0  0
 24 25  1  0  0  0
 25 26  2  0  0  0
 26 27  1  0  0  0
 27 28  2  0  0  0
 28 19  1  0  0  0
 28 23  1  0  0  0
  5  6  2  0  0  0
  7  5  1  0  0  0
  7  8  1  0  0  0
  7  2  1  0  0  0
  8  9  1  0  0  0
  9 29  1  0  0  0
  9 10  1  0  0  0
 29 30  1  0  0  0
 30 31  1  0  0  0
 31 32  2  0  0  0
 32 33  1  0  0  0
 33 34  1  0  0  0
 33 35  1  0  0  0
 35 30  2  0  0  0
 10 11  2  0  0  0
 10 12  1  0  0  0
 12 13  2  0  0  0
 13 14  1  0  0  0
 14 15  2  0  0  0
 15 16  1  0  0  0
 15 17  1  0  0  0
 17 18  2  0  0  0
 18 12  1  0  0  0
 18  7  1  0  0  0
M  END
> <minimizedAffinity>
-7.81487

> <CNNscore>
0.5576467514

> <CNNaffinity>
6.7754158974

> <CNN_VS>
3.7782886028

> <CNNaffinity_variance>
0.0809345990
$$$$



30 33  0  0  0  0  0  0  0  0999 V2000
    7.3427   -1.2213   23.1331 N   0  0  0  0  0  0  0  0  0  0  0  0
    6.8865   -0.8646   21.8642 C   0  0  0  0  0  0  0  0  0  0  0  0
    6.1102   -1.6860   21.2693 O   0  0  0  0  0  0  0  0  0  0  0  0
    5.9985   -4.9100   24.6040 C   0  0  0  0  0  0  0  0  0  0  0  0
    7.0662   -4.8709   23.7137 C   0  0  0  0  0  0  0  0  0  0  0  0
    7.5255   -3.6690   23.2165 C   0  0  0  0  0  0  0  0  0  0  0  0
    6.8821   -2.5050   23.6388 C   0  0  0  0  0  0  0  0  0  0  0  0
    5.8227   -2.5316   24.5210 C   0  0  0  0  0  0  0  0  0  0  0  0
    5.3666   -3.7396   25.0160 C   0  0  0  0  0  0  0  0  0  0  0  0
    5.1374   -7.1740   25.5307 N   0  0  0  0  0  0  0  0  0  0  0  0
    5.5300   -6.1698   25.1142 C   0  0  0  0  0  0  0  0  0  0  0  0
    8.2019   -0.4807   23.9928 C   0  0  0  0  0  0  0  0  0  0  0  0
    9.5833   -0.9335   24.1143 C   0  0  0  0  0  0  0  0  0  0  0  0
    9.9878   -1.4335   25.3581 C   0  0  0  0  0  0  0  0  0  0  0  0
   11.2855   -1.8898   25.5545 C   0  0  0  0  0  0  0  0  0  0  0  0
   12.2174   -1.8650   24.5310 C   0  0  0  0  0  0  0  0  0  0  0  0
   11.8237   -1.3740   23.3057 C   0  0  0  0  0  0  0  0  0  0  0  0
   12.9543   -1.3128   21.9610 Cl  0  0  0  0  0  0  0  0  0  0  0  0
   10.5312   -0.9229   23.1207 C   0  0  0  0  0  0  0  0  0  0  0  0
    7.2104    0.3740   21.1294 C   0  0  0  0  0  0  0  0  0  0  0  0
    6.3592    0.5481   19.9229 C   0  0  0  0  0  0  0  0  0  0  0  0
    6.6518   -0.0530   18.7129 C   0  0  0  0  0  0  0  0  0  0  0  0
    5.8073    0.1802   17.6971 N   0  0  0  0  0  0  0  0  0  0  0  0
    4.7140    0.9453   17.7722 C   0  0  0  0  0  0  0  0  0  0  0  0
    4.3979    1.5569   18.9658 C   0  0  0  0  0  0  0  0  0  0  0  0
    3.2744    2.3438   19.0452 C   0  0  0  0  0  0  0  0  0  0  0  0
    3.0035    2.9345   20.2679 C   0  0  0  0  0  0  0  0  0  0  0  0
    3.8224    2.7459   21.3656 C   0  0  0  0  0  0  0  0  0  0  0  0
    4.9342    1.9536   21.2464 C   0  0  0  0  0  0  0  0  0  0  0  0
    5.2347    1.3449   20.0295 C   0  0  0  0  0  0  0  0  0  0  0  0
 10 11  3  0  0  0
 11  4  1  0  0  0
  4  5  2  0  0  0
  5  6  1  0  0  0
  6  7  2  0  0  0
  7  1  1  0  0  0
  7  8  1  0  0  0
  1 12  1  0  0  0
  1  2  1  0  0  0
 12 13  1  0  0  0
 13 14  2  0  0  0
 14 15  1  0  0  0
 15 16  2  0  0  0
 16 17  1  0  0  0
 17 18  1  0  0  0
 17 19  2  0  0  0
 19 13  1  0  0  0
  2  3  2  0  0  0
  2 20  1  0  0  0
 20 21  1  0  0  0
 21 22  2  0  0  0
 22 23  1  0  0  0
 23 24  2  0  0  0
 24 25  1  0  0  0
 25 26  2  0  0  0
 26 27  1  0  0  0
 27 28  2  0  0  0
 28 29  1  0  0  0
 29 30  2  0  0  0
 30 21  1  0  0  0
 30 25  1  0  0  0
  8  9  2  0  0  0
  9  4  1  0  0  0
M  END
> <minimizedAffinity>
-7.73661

> <CNNscore>
0.6836115122

> <CNNaffinity>
6.5709810257

> <CNN_VS>
4.4919981956

> <CNNaffinity_variance>
0.0518495962
$$$$



42 47  0  0  0  0  0  0  0  0999 V2000
    5.7237    0.4417   24.4220 N   0  0  0  0  0  0  0  0  0  0  0  0
    6.5960   -0.6092   23.9891 C   0  0  0  0  0  0  0  0  0  0  0  0
    6.4886   -1.9300   24.6464 C   0  0  0  0  0  0  0  0  0  0  0  0
    7.6415   -2.1069   25.6251 C   0  0  0  0  0  0  0  0  0  0  0  0
    7.6882   -1.4664   26.7225 O   0  0  0  0  0  0  0  0  0  0  0  0
    8.5749   -3.0395   25.1308 N   0  0  0  0  0  0  0  0  0  0  0  0
    7.9262   -3.8574   24.1742 C   0  0  0  0  0  0  0  0  0  0  0  0
    6.6627   -3.1350   23.7781 C   0  0  0  0  0  0  0  0  0  0  0  0
    5.2885   -2.0619   25.5270 C   0  0  0  0  0  0  0  0  0  0  0  0
    5.0767   -3.3250   26.0854 C   0  0  0  0  0  0  0  0  0  0  0  0
    3.9899   -3.5660   26.9277 C   0  0  0  0  0  0  0  0  0  0  0  0
    3.7656   -5.1664   27.6041 Cl  0  0  0  0  0  0  0  0  0  0  0  0
    3.1139   -2.5610   27.2187 C   0  0  0  0  0  0  0  0  0  0  0  0
    3.3445   -1.3254   26.6567 C   0  0  0  0  0  0  0  0  0  0  0  0
    4.4014   -1.0878   25.8360 C   0  0  0  0  0  0  0  0  0  0  0  0
    4.5865    0.2377   25.2831 C   0  0  0  0  0  0  0  0  0  0  0  0
    3.7881    1.1679   25.5441 O   0  0  0  0  0  0  0  0  0  0  0  0
    9.9354   -3.0721   25.5853 C   0  0  0  0  0  0  0  0  0  0  0  0
   10.3568   -3.9161   26.5956 C   0  0  0  0  0  0  0  0  0  0  0  0
   11.6571   -3.9379   26.9987 N   0  0  0  0  0  0  0  0  0  0  0  0
   12.5718   -3.1179   26.4031 C   0  0  0  0  0  0  0  0  0  0  0  0
   12.1368   -2.2696   25.3826 C   0  0  0  0  0  0  0  0  0  0  0  0
   13.0780   -1.4540   24.7975 C   0  0  0  0  0  0  0  0  0  0  0  0
   12.6593   -0.6169   23.7937 C   0  0  0  0  0  0  0  0  0  0  0  0
   11.3285   -0.5744   23.3597 C   0  0  0  0  0  0  0  0  0  0  0  0
   10.3870   -1.3916   23.9452 C   0  0  0  0  0  0  0  0  0  0  0  0
   10.8337   -2.2300   24.9611 C   0  0  0  0  0  0  0  0  0  0  0  0
    5.9567    1.8154   24.0258 C   0  0  0  0  0  0  0  0  0  0  0  0
    7.2344    2.0045   23.2536 C   0  0  0  0  0  0  0  0  0  0  0  0
    9.5525    2.5943   23.1896 C   0  0  0  0  0  0  0  0  0  0  0  0
    8.3180    2.5866   23.9775 N   0  0  0  0  0  0  0  0  0  0  0  0
    8.0752    3.5469   24.2209 H   0  0  0  0  0  0  0  0  0  0  0  0
    8.4784    2.0270   24.8151 H   0  0  0  0  0  0  0  0  0  0  0  0
    6.7563   -2.8397   22.3186 C   0  0  0  0  0  0  0  0  0  0  0  0
    5.6061   -2.8105   21.6057 O   0  0  0  0  0  0  0  0  0  0  0  0
    5.1963   -1.5739   21.2283 C   0  0  0  0  0  0  0  0  0  0  0  0
    5.9665   -0.8669   20.1702 C   0  0  0  0  0  0  0  0  0  0  0  0
    5.2675   -1.0929   18.8172 C   0  0  0  0  0  0  0  0  0  0  0  0
    5.4059    0.5975   18.3694 S   0  0  0  0  0  0  0  0  0  0  0  0
    4.0951    1.2873   18.0900 O   0  0  0  0  0  0  0  0  0  0  0  0
    6.5082    0.9550   17.4247 O   0  0  0  0  0  0  0  0  0  0  0  0
    5.8838    0.6181   20.0804 C   0  0  0  0  0  0  0  0  0  0  0  0
 30 31  1  0  0  0
 31 29  1  0  0  0
 31 32  1  0  0  0
 31 33  1  0  0  0
 29 28  1  0  0  0
 28  1  1  0  0  0
  1  2  1  0  0  0
  3  2  1  0  0  0
  3  4  1  0  0  0
  3  9  1  0  0  0
  4  5  2  0  0  0
  4  6  1  0  0  0
  6 18  1  0  0  0
  6  7  1  0  0  0
 18 19  2  0  0  0
 19 20  1  0  0  0
 20 21  2  0  0  0
 21 22  1  0  0  0
 22 23  2  0  0  0
 23 24  1  0  0  0
 24 25  2  0  0  0
 25 26  1  0  0  0
 26 27  2  0  0  0
 27 18  1  0  0  0
 27 22  1  0  0  0
  7  8  1  0  0  0
  8 34  1  0  0  0
  8  3  1  0  0  0
 34 35  1  0  0  0
 35 36  1  0  0  0
 36 37  1  0  0  0
 37 38  1  0  0  0
 38 39  1  0  0  0
 39 40  2  0  0  0
 39 41  2  0  0  0
 39 42  1  0  0  0
 42 37  1  0  0  0
  9 10  2  0  0  0
 10 11  1  0  0  0
 11 12  1  0  0  0
 11 13  2  0  0  0
 13 14  1  0  0  0
 14 15  2  0  0  0
 15 16  1  0  0  0
 15  9  1  0  0  0
 16 17  2  0  0  0
 16  1  1  0  0  0
M  CHG 1  31   1
M  END
> <minimizedAffinity>
-7.05019

> <CNNscore>
0.4814474285

> <CNNaffinity>
6.8964891434

> <CNN_VS>
3.3202970028

> <CNNaffinity_variance>
0.0176480915
$$$$



36 40  0  0  0  0  0  0  0  0999 V2000
    6.7618   -1.8668   23.0121 C   0  0  0  0  0  0  0  0  0  0  0  0
    7.8817   -0.9138   23.4987 C   0  0  0  0  0  0  0  0  0  0  0  0
    8.9705   -1.8373   23.6814 N   0  0  0  0  0  0  0  0  0  0  0  0
    8.3579   -3.0844   24.0882 C   0  0  0  0  0  0  0  0  0  0  0  0
    8.8944   -4.1780   24.3608 O   0  0  0  0  0  0  0  0  0  0  0  0
    6.8712   -2.8944   24.1512 C   0  0  0  0  0  0  0  0  0  0  0  0
    6.5911   -2.2601   25.4700 C   0  0  0  0  0  0  0  0  0  0  0  0
    6.0618   -3.1628   26.4380 N   0  0  0  0  0  0  0  0  0  0  0  0
    5.3498   -4.3530   26.1544 C   0  0  0  0  0  0  0  0  0  0  0  0
    4.6991   -4.9556   27.0453 O   0  0  0  0  0  0  0  0  0  0  0  0
    5.4039   -4.8498   24.7847 C   0  0  0  0  0  0  0  0  0  0  0  0
    4.7296   -5.9963   24.4947 C   0  0  0  0  0  0  0  0  0  0  0  0
    4.7472   -6.5191   23.2209 C   0  0  0  0  0  0  0  0  0  0  0  0
    5.4709   -5.8316   22.2729 C   0  0  0  0  0  0  0  0  0  0  0  0
    5.4969   -6.4923   20.6506 Cl  0  0  0  0  0  0  0  0  0  0  0  0
    6.1623   -4.6536   22.5751 C   0  0  0  0  0  0  0  0  0  0  0  0
    6.1452   -4.1267   23.8554 C   0  0  0  0  0  0  0  0  0  0  0  0
   10.3664   -1.7424   23.4974 C   0  0  0  0  0  0  0  0  0  0  0  0
   10.8624   -1.3752   22.2380 C   0  0  0  0  0  0  0  0  0  0  0  0
   12.1962   -1.2864   22.0076 N   0  0  0  0  0  0  0  0  0  0  0  0
   13.1276   -1.5336   22.9328 C   0  0  0  0  0  0  0  0  0  0  0  0
   12.6806   -1.8997   24.1888 C   0  0  0  0  0  0  0  0  0  0  0  0
   13.6442   -2.1662   25.1339 C   0  0  0  0  0  0  0  0  0  0  0  0
   13.2761   -2.5533   26.4112 C   0  0  0  0  0  0  0  0  0  0  0  0
   11.9341   -2.6513   26.6654 C   0  0  0  0  0  0  0  0  0  0  0  0
   10.9675   -2.3842   25.7190 C   0  0  0  0  0  0  0  0  0  0  0  0
   11.3165   -1.9991   24.4529 C   0  0  0  0  0  0  0  0  0  0  0  0
    5.5406   -1.2560   22.9561 O   0  0  0  0  0  0  0  0  0  0  0  0
    5.1300    0.3292   21.1908 C   0  0  0  0  0  0  0  0  0  0  0  0
    5.6275    0.0960   22.6073 C   0  0  0  0  0  0  0  0  0  0  0  0
    6.2561   -2.8495   27.8611 C   0  0  0  0  0  0  0  0  0  0  0  0
    5.2699   -1.8546   28.3159 C   0  0  0  0  0  0  0  0  0  0  0  0
    4.0910   -2.1230   28.6409 O   0  0  0  0  0  0  0  0  0  0  0  0
    5.6850   -0.4969   28.3908 N   0  0  0  0  0  0  0  0  0  0  0  0
    4.7636    0.5348   28.8310 C   0  0  0  0  0  0  0  0  0  0  0  0
    6.6060   -0.2542   28.1417 H   0  0  0  0  0  0  0  0  0  0  0  0
 29 30  1  0  0  0
 30 28  1  0  0  0
  1 28  1  0  0  0
  1  2  1  0  0  0
  2  3  1  0  0  0
  3 18  1  0  0  0
  3  4  1  0  0  0
 18 19  2  0  0  0
 19 20  1  0  0  0
 20 21  2  0  0  0
 21 22  1  0  0  0
 22 23  2  0  0  0
 23 24  1  0  0  0
 24 25  2  0  0  0
 25 26  1  0  0  0
 26 27  2  0  0  0
 27 18  1  0  0  0
 27 22  1  0  0  0
  4  5  2  0  0  0
  6  4  1  0  0  0
  6  7  1  0  0  0
  6  1  1  0  0  0
  7  8  1  0  0  0
  8 31  1  0  0  0
  8  9  1  0  0  0
 31 32  1  0  0  0
 32 33  2  0  0  0
 32 34  1  0  0  0
 34 35  1  0  0  0
 34 36  1  0  0  0
  9 10  2  0  0  0
  9 11  1  0  0  0
 11 12  2  0  0  0
 12 13  1  0  0  0
 13 14  2  0  0  0
 14 15  1  0  0  0
 14 16  1  0  0  0
 16 17  2  0  0  0
 17 11  1  0  0  0
 17  6  1  0  0  0
M  END
> <minimizedAffinity>
-7.62166

> <CNNscore>
0.6491068006

> <CNNaffinity>
6.7237358093

> <CNN_VS>
4.3644227982

> <CNNaffinity_variance>
0.2755003870
$$$$



36 40  0  0  0  0  0  0  0  0999 V2000
    5.9188   -0.6500   23.8082 N   0  0  0  0  0  0  0  0  0  0  0  0
    6.9923   -1.6076   23.7901 C   0  0  0  0  0  0  0  0  0  0  0  0
    6.9318   -2.6293   24.8588 C   0  0  0  0  0  0  0  0  0  0  0  0
    8.1855   -2.4368   25.6968 C   0  0  0  0  0  0  0  0  0  0  0  0
    8.2340   -1.5774   26.6429 O   0  0  0  0  0  0  0  0  0  0  0  0
    9.1777   -3.3209   25.2484 N   0  0  0  0  0  0  0  0  0  0  0  0
    8.5076   -4.4974   24.7765 C   0  0  0  0  0  0  0  0  0  0  0  0
    7.1522   -4.0370   24.3648 C   0  0  0  0  0  0  0  0  0  0  0  0
    5.7436   -2.6130   25.7302 C   0  0  0  0  0  0  0  0  0  0  0  0
    5.6540   -3.5882   26.7046 C   0  0  0  0  0  0  0  0  0  0  0  0
    4.5477   -3.6187   27.5505 C   0  0  0  0  0  0  0  0  0  0  0  0
    4.4285   -4.8631   28.7973 Cl  0  0  0  0  0  0  0  0  0  0  0  0
    3.5204   -2.7049   27.4586 C   0  0  0  0  0  0  0  0  0  0  0  0
    3.6100   -1.7312   26.4861 C   0  0  0  0  0  0  0  0  0  0  0  0
    4.7108   -1.7128   25.6558 C   0  0  0  0  0  0  0  0  0  0  0  0
    4.7896   -0.6783   24.6522 C   0  0  0  0  0  0  0  0  0  0  0  0
    3.8723    0.1687   24.5417 O   0  0  0  0  0  0  0  0  0  0  0  0
   10.5783   -3.0141   25.2946 C   0  0  0  0  0  0  0  0  0  0  0  0
   11.3680   -3.3641   26.3798 C   0  0  0  0  0  0  0  0  0  0  0  0
   12.6742   -3.0843   26.4358 N   0  0  0  0  0  0  0  0  0  0  0  0
   13.3108   -2.4449   25.4440 C   0  0  0  0  0  0  0  0  0  0  0  0
   12.5588   -2.0698   24.3256 C   0  0  0  0  0  0  0  0  0  0  0  0
   13.2298   -1.4067   23.3022 C   0  0  0  0  0  0  0  0  0  0  0  0
   12.4883   -1.0350   22.1960 C   0  0  0  0  0  0  0  0  0  0  0  0
   11.1473   -1.3066   22.1070 C   0  0  0  0  0  0  0  0  0  0  0  0
   10.4706   -1.9718   23.1319 C   0  0  0  0  0  0  0  0  0  0  0  0
   11.2064   -2.3467   24.2420 C   0  0  0  0  0  0  0  0  0  0  0  0
    6.0196    0.4593   22.8519 C   0  0  0  0  0  0  0  0  0  0  0  0
    6.7767   -0.1571   19.1080 C   0  0  0  0  0  0  0  0  0  0  0  0
    6.9222    0.3288   20.4845 N   0  0  0  0  0  0  0  0  0  0  0  0
    5.9270   -0.0029   21.4458 C   0  0  0  0  0  0  0  0  0  0  0  0
    4.9341   -0.7169   21.0762 O   0  0  0  0  0  0  0  0  0  0  0  0
    7.6986    0.8776   20.7399 H   0  0  0  0  0  0  0  0  0  0  0  0
    6.9184   -4.2456   22.9029 C   0  0  0  0  0  0  0  0  0  0  0  0
    5.6315   -4.8901   22.6352 C   0  0  0  0  0  0  0  0  0  0  0  0
    4.6085   -5.3879   22.4079 N   0  0  0  0  0  0  0  0  0  0  0  0
 29 30  1  0  0  0
 30 31  1  0  0  0
 30 33  1  0  0  0
 31 32  2  0  0  0
 31 28  1  0  0  0
 28  1  1  0  0  0
  1  2  1  0  0  0
  3  2  1  0  0  0
  3  4  1  0  0  0
  3  9  1  0  0  0
  4  5  2  0  0  0
  4  6  1  0  0  0
  6 18  1  0  0  0
  6  7  1  0  0  0
 18 19  2  0  0  0
 19 20  1  0  0  0
 20 21  2  0  0  0
 21 22  1  0  0  0
 22 23  2  0  0  0
 23 24  1  0  0  0
 24 25  2  0  0  0
 25 26  1  0  0  0
 26 27  2  0  0  0
 27 18  1  0  0  0
 27 22  1  0  0  0
  7  8  1  0  0  0
  8 34  1  0  0  0
  8  3  1  0  0  0
 34 35  1  0  0  0
 35 36  3  0  0  0
  9 10  2  0  0  0
 10 11  1  0  0  0
 11 12  1  0  0  0
 11 13  2  0  0  0
 13 14  1  0  0  0
 14 15  2  0  0  0
 15 16  1  0  0  0
 15  9  1  0  0  0
 16 17  2  0  0  0
 16  1  1  0  0  0
M  END
> <minimizedAffinity>
-7.44912

> <CNNscore>
0.3799561262

> <CNNaffinity>
6.3805551529

> <CNN_VS>
2.4243309498

> <CNNaffinity_variance>
0.3826631606
$$$$



39 44  0  0  0  0  0  0  0  0999 V2000
    6.2614   -3.9478   22.5956 C   0  0  0  0  0  0  0  0  0  0  0  0
    6.5318   -3.9688   24.1101 C   0  0  0  0  0  0  0  0  0  0  0  0
    7.9873   -4.2516   24.2612 C   0  0  0  0  0  0  0  0  0  0  0  0
    8.5496   -3.2011   25.0828 N   0  0  0  0  0  0  0  0  0  0  0  0
    7.5332   -2.2415   25.3172 C   0  0  0  0  0  0  0  0  0  0  0  0
    7.7236   -1.1727   25.9878 O   0  0  0  0  0  0  0  0  0  0  0  0
    6.2526   -2.6116   24.7091 C   0  0  0  0  0  0  0  0  0  0  0  0
    5.8017   -1.6239   23.6542 C   0  0  0  0  0  0  0  0  0  0  0  0
    5.4908   -0.3631   24.2689 N   0  0  0  0  0  0  0  0  0  0  0  0
    4.5085   -0.3622   25.3032 C   0  0  0  0  0  0  0  0  0  0  0  0
    3.7915    0.6492   25.4963 O   0  0  0  0  0  0  0  0  0  0  0  0
    4.4053   -1.5890   26.0934 C   0  0  0  0  0  0  0  0  0  0  0  0
    3.4712   -1.6068   27.0962 C   0  0  0  0  0  0  0  0  0  0  0  0
    3.3257   -2.7267   27.8822 C   0  0  0  0  0  0  0  0  0  0  0  0
    4.1455   -3.8058   27.6195 C   0  0  0  0  0  0  0  0  0  0  0  0
    3.9533   -5.2309   28.6286 Cl  0  0  0  0  0  0  0  0  0  0  0  0
    5.0825   -3.7739   26.6061 C   0  0  0  0  0  0  0  0  0  0  0  0
    5.2438   -2.6421   25.7957 C   0  0  0  0  0  0  0  0  0  0  0  0
    9.9034   -3.2208   25.5301 C   0  0  0  0  0  0  0  0  0  0  0  0
   10.3101   -4.0004   26.6039 C   0  0  0  0  0  0  0  0  0  0  0  0
   11.6080   -3.9986   27.0092 N   0  0  0  0  0  0  0  0  0  0  0  0
   12.5222   -3.2283   26.3609 C   0  0  0  0  0  0  0  0  0  0  0  0
   12.1603   -2.4342   25.2832 C   0  0  0  0  0  0  0  0  0  0  0  0
   13.1042   -1.6423   24.6190 C   0  0  0  0  0  0  0  0  0  0  0  0
   12.7405   -0.8519   23.5464 C   0  0  0  0  0  0  0  0  0  0  0  0
   11.4189   -0.8691   23.1529 C   0  0  0  0  0  0  0  0  0  0  0  0
   10.4595   -1.6474   23.7963 C   0  0  0  0  0  0  0  0  0  0  0  0
   10.8413   -2.4376   24.8739 C   0  0  0  0  0  0  0  0  0  0  0  0
    6.1362    0.8966   23.8721 C   0  0  0  0  0  0  0  0  0  0  0  0
    5.2812    1.5105   22.7987 C   0  0  0  0  0  0  0  0  0  0  0  0
    5.5201    0.9480   21.4862 N   0  0  0  0  0  0  0  0  0  0  0  0
    6.9252    0.8687   21.1470 C   0  0  0  0  0  0  0  0  0  0  0  0
    7.1203   -0.1537   20.0574 C   0  0  0  0  0  0  0  0  0  0  0  0
    5.5880   -0.5534   19.2825 S   0  0  0  0  0  0  0  0  0  0  0  0
    5.0844   -1.8221   19.9363 O   0  0  0  0  0  0  0  0  0  0  0  0
    5.8121   -0.8509   17.8267 O   0  0  0  0  0  0  0  0  0  0  0  0
    4.3867    0.7501   19.4103 C   0  0  0  0  0  0  0  0  0  0  0  0
    4.8745    1.7580   20.4555 C   0  0  0  0  0  0  0  0  0  0  0  0
    5.1336    0.0048   21.5215 H   0  0  0  0  0  0  0  0  0  0  0  0
  2  1  1  0  0  0
  2  3  1  0  0  0
  3  4  1  0  0  0
  4 19  1  0  0  0
  4  5  1  0  0  0
 19 20  2  0  0  0
 20 21  1  0  0  0
 21 22  2  0  0  0
 22 23  1  0  0  0
 23 24  2  0  0  0
 24 25  1  0  0  0
 25 26  2  0  0  0
 26 27  1  0  0  0
 27 28  2  0  0  0
 28 19  1  0  0  0
 28 23  1  0  0  0
  5  6  2  0  0  0
  7  5  1  0  0  0
  7  8  1  0  0  0
  7  2  1  0  0  0
  8  9  1  0  0  0
  9 29  1  0  0  0
  9 10  1  0  0  0
 29 30  1  0  0  0
 30 31  1  0  0  0
 31 32  1  0  0  0
 31 39  1  0  0  0
 32 33  1  0  0  0
 33 34  1  0  0  0
 34 35  2  0  0  0
 34 36  2  0  0  0
 34 37  1  0  0  0
 37 38  1  0  0  0
 38 31  1  0  0  0
 10 11  2  0  0  0
 10 12  1  0  0  0
 12 13  2  0  0  0
 13 14  1  0  0  0
 14 15  2  0  0  0
 15 16  1  0  0  0
 15 17  1  0  0  0
 17 18  2  0  0  0
 18 12  1  0  0  0
 18  7  1  0  0  0
M  CHG 1  31   1
M  END
> <minimizedAffinity>
-8.75061

> <CNNscore>
0.4637561142

> <CNNaffinity>
6.7272324562

> <CNN_VS>
3.1197950840

> <CNNaffinity_variance>
0.1498621255
$$$$



39 44  0  0  0  0  0  0  0  0999 V2000
    5.6060   -0.7721   21.0955 N   0  0  0  0  0  0  0  0  0  0  0  0
    6.8465   -1.2037   21.6748 C   0  0  0  0  0  0  0  0  0  0  0  0
    6.8814   -1.1155   23.1348 C   0  0  0  0  0  0  0  0  0  0  0  0
    8.2988   -0.5929   23.4268 C   0  0  0  0  0  0  0  0  0  0  0  0
    8.6224    0.5992   23.6392 O   0  0  0  0  0  0  0  0  0  0  0  0
    9.1782   -1.7409   23.4079 N   0  0  0  0  0  0  0  0  0  0  0  0
    8.3187   -2.9168   23.4164 C   0  0  0  0  0  0  0  0  0  0  0  0
    7.0045   -2.3593   23.9270 C   0  0  0  0  0  0  0  0  0  0  0  0
    6.0102   -0.0923   23.6820 C   0  0  0  0  0  0  0  0  0  0  0  0
    6.2231    0.2916   25.0049 C   0  0  0  0  0  0  0  0  0  0  0  0
    5.4215    1.2505   25.6196 C   0  0  0  0  0  0  0  0  0  0  0  0
    5.7192    1.7109   27.2922 Cl  0  0  0  0  0  0  0  0  0  0  0  0
    4.3814    1.8679   24.9578 C   0  0  0  0  0  0  0  0  0  0  0  0
    4.1667    1.4928   23.6498 C   0  0  0  0  0  0  0  0  0  0  0  0
    4.9648    0.5442   23.0508 C   0  0  0  0  0  0  0  0  0  0  0  0
    4.7307    0.1897   21.6575 C   0  0  0  0  0  0  0  0  0  0  0  0
    3.8051    0.7220   21.0287 O   0  0  0  0  0  0  0  0  0  0  0  0
   10.6002   -1.7252   23.3870 C   0  0  0  0  0  0  0  0  0  0  0  0
   11.1942   -1.2910   22.1986 C   0  0  0  0  0  0  0  0  0  0  0  0
   12.5337   -1.2312   22.0555 N   0  0  0  0  0  0  0  0  0  0  0  0
   13.3361   -1.6021   23.0919 C   0  0  0  0  0  0  0  0  0  0  0  0
   12.7605   -2.0334   24.2724 C   0  0  0  0  0  0  0  0  0  0  0  0
   13.5939   -2.4064   25.3171 C   0  0  0  0  0  0  0  0  0  0  0  0
   13.0229   -2.8389   26.5034 C   0  0  0  0  0  0  0  0  0  0  0  0
   11.6376   -2.8980   26.6441 C   0  0  0  0  0  0  0  0  0  0  0  0
   10.8038   -2.5283   25.6086 C   0  0  0  0  0  0  0  0  0  0  0  0
   11.3905   -2.1019   24.4394 C   0  0  0  0  0  0  0  0  0  0  0  0
    5.1667   -1.3272   19.7968 C   0  0  0  0  0  0  0  0  0  0  0  0
    5.2122    1.3649   17.0982 C   0  0  0  0  0  0  0  0  0  0  0  0
    4.7429    0.4692   18.1275 N   0  0  0  0  0  0  0  0  0  0  0  0
    5.6898   -0.4156   18.7360 C   0  0  0  0  0  0  0  0  0  0  0  0
    6.9077   -0.4359   18.4038 O   0  0  0  0  0  0  0  0  0  0  0  0
    3.7980    0.4664   18.4036 H   0  0  0  0  0  0  0  0  0  0  0  0
    5.9957   -3.3953   23.9714 C   0  0  0  0  0  0  0  0  0  0  0  0
    5.9796   -4.4545   22.9678 C   0  0  0  0  0  0  0  0  0  0  0  0
    6.6363   -5.6291   22.9758 N   0  0  0  0  0  0  0  0  0  0  0  0
    6.3374   -6.3120   21.8886 N   0  0  0  0  0  0  0  0  0  0  0  0
    5.5058   -5.5960   21.1916 N   0  0  0  0  0  0  0  0  0  0  0  0
    5.2704   -4.4609   21.8240 N   0  0  0  0  0  0  0  0  0  0  0  0
 29 30  1  0  0  0
 30 31  1  0  0  0
 30 33  1  0  0  0
 31 32  2  0  0  0
 31 28  1  0  0  0
 28  1  1  0  0  0
  1  2  1  0  0  0
  3  2  1  0  0  0
  3  4  1  0  0  0
  3  9  1  0  0  0
  4  5  2  0  0  0
  4  6  1  0  0  0
  6 18  1  0  0  0
  6  7  1  0  0  0
 18 19  2  0  0  0
 19 20  1  0  0  0
 20 21  2  0  0  0
 21 22  1  0  0  0
 22 23  2  0  0  0
 23 24  1  0  0  0
 24 25  2  0  0  0
 25 26  1  0  0  0
 26 27  2  0  0  0
 27 18  1  0  0  0
 27 22  1  0  0  0
  7  8  1  0  0  0
  8 34  1  0  0  0
  8  3  1  0  0  0
 34 35  1  0  0  0
 35 36  1  0  0  0
 36 37  2  0  0  0
 37 38  1  0  0  0
 38 39  1  0  0  0
 39 35  2  0  0  0
  9 10  2  0  0  0
 10 11  1  0  0  0
 11 12  1  0  0  0
 11 13  2  0  0  0
 13 14  1  0  0  0
 14 15  2  0  0  0
 15 16  1  0  0  0
 15  9  1  0  0  0
 16 17  2  0  0  0
 16  1  1  0  0  0
M  CHG 1  38  -1
M  END
> <minimizedAffinity>
-9.56636

> <CNNscore>
0.8142085075

> <CNNaffinity>
7.4561057091

> <CNN_VS>
6.0708246231

> <CNNaffinity_variance>
0.0302971862
$$$$



36 41  0  0  0  0  0  0  0  0999 V2000
    9.3577   -1.6737   24.7648 N   0  0  0  0  0  0  0  0  0  0  0  0
    9.4653   -0.3192   24.2330 C   0  0  0  0  0  0  0  0  0  0  0  0
    8.1640    0.3226   23.8816 C   0  0  0  0  0  0  0  0  0  0  0  0
    7.6383   -0.1675   22.5681 C   0  0  0  0  0  0  0  0  0  0  0  0
    7.5539   -1.3900   22.2683 O   0  0  0  0  0  0  0  0  0  0  0  0
    7.2648    0.9314   21.7473 N   0  0  0  0  0  0  0  0  0  0  0  0
    7.6632    2.1770   22.3736 C   0  0  0  0  0  0  0  0  0  0  0  0
    8.4332    1.7830   23.5910 C   0  0  0  0  0  0  0  0  0  0  0  0
    9.9102    1.9622   23.2527 C   0  0  0  0  0  0  0  0  0  0  0  0
    7.1820    0.1045   24.9685 C   0  0  0  0  0  0  0  0  0  0  0  0
    6.0916    0.9643   25.1397 C   0  0  0  0  0  0  0  0  0  0  0  0
    5.1550    0.7694   26.1315 C   0  0  0  0  0  0  0  0  0  0  0  0
    4.0935    1.6115   26.2934 F   0  0  0  0  0  0  0  0  0  0  0  0
    5.2495   -0.2900   27.0079 C   0  0  0  0  0  0  0  0  0  0  0  0
    6.3131   -1.1419   26.8535 C   0  0  0  0  0  0  0  0  0  0  0  0
    7.2511   -0.9464   25.8605 C   0  0  0  0  0  0  0  0  0  0  0  0
    8.3772   -1.8803   25.7642 C   0  0  0  0  0  0  0  0  0  0  0  0
    8.4265   -2.8132   26.5564 O   0  0  0  0  0  0  0  0  0  0  0  0
    6.5987    0.7798   20.5002 C   0  0  0  0  0  0  0  0  0  0  0  0
    7.2069   -0.0584   19.5771 C   0  0  0  0  0  0  0  0  0  0  0  0
    6.6371   -0.2505   18.3783 N   0  0  0  0  0  0  0  0  0  0  0  0
    5.4693    0.3540   18.0289 C   0  0  0  0  0  0  0  0  0  0  0  0
    4.8323    1.2050   18.9384 C   0  0  0  0  0  0  0  0  0  0  0  0
    3.6469    1.8180   18.5820 C   0  0  0  0  0  0  0  0  0  0  0  0
    3.0502    2.6490   19.5052 C   0  0  0  0  0  0  0  0  0  0  0  0
    3.6327    2.8551   20.7516 C   0  0  0  0  0  0  0  0  0  0  0  0
    4.8237    2.2389   21.1090 C   0  0  0  0  0  0  0  0  0  0  0  0
    5.4137    1.4147   20.1907 C   0  0  0  0  0  0  0  0  0  0  0  0
   10.2564   -2.6788   24.2645 C   0  0  0  0  0  0  0  0  0  0  0  0
   12.7779   -2.1306   24.2536 N   0  0  0  0  0  0  0  0  0  0  0  0
   13.7794   -2.2638   25.1470 N   0  0  0  0  0  0  0  0  0  0  0  0
   13.3112   -2.8179   26.2696 C   0  0  0  0  0  0  0  0  0  0  0  0
   11.9715   -3.0295   26.0491 C   0  0  0  0  0  0  0  0  0  0  0  0
   11.6376   -2.5855   24.7541 C   0  0  0  0  0  0  0  0  0  0  0  0
   12.9660   -0.0580   22.9930 C   0  0  0  0  0  0  0  0  0  0  0  0
   13.0627   -1.5641   22.9461 C   0  0  0  0  0  0  0  0  0  0  0  0
 35 36  1  0  0  0
 36 30  1  0  0  0
 30 31  1  0  0  0
 31 32  2  0  0  0
 32 33  1  0  0  0
 33 34  2  0  0  0
 34 29  1  0  0  0
 34 30  1  0  0  0
 29  1  1  0  0  0
  1  2  1  0  0  0
  3  2  1  0  0  0
  3  4  1  0  0  0
  3 10  1  0  0  0
  4  5  2  0  0  0
  4  6  1  0  0  0
  6 19  1  0  0  0
  6  7  1  0  0  0
 19 20  2  0  0  0
 20 21  1  0  0  0
 21 22  2  0  0  0
 22 23  1  0  0  0
 23 24  2  0  0  0
 24 25  1  0  0  0
 25 26  2  0  0  0
 26 27  1  0  0  0
 27 28  2  0  0  0
 28 19  1  0  0  0
 28 23  1  0  0  0
  7  8  1  0  0  0
  8  9  1  0  0  0
  8  3  1  0  0  0
 10 11  2  0  0  0
 11 12  1  0  0  0
 12 13  1  0  0  0
 12 14  2  0  0  0
 14 15  1  0  0  0
 15 16  2  0  0  0
 16 17  1  0  0  0
 16 10  1  0  0  0
 17 18  2  0  0  0
 17  1  1  0  0  0
M  END
> <minimizedAffinity>
-9.60358

> <CNNscore>
0.5827713609

> <CNNaffinity>
6.9215264320

> <CNN_VS>
4.0336675644

> <CNNaffinity_variance>
0.0845397636
$$$$



35 39  0  0  0  0  0  0  0  0999 V2000
    7.5054   -0.5870   25.2533 N   0  0  0  0  0  0  0  0  0  0  0  0
    6.9410   -0.8646   23.9573 C   0  0  0  0  0  0  0  0  0  0  0  0
    7.8586   -1.1252   22.8386 C   0  0  0  0  0  0  0  0  0  0  0  0
    7.5583   -0.0636   21.7770 C   0  0  0  0  0  0  0  0  0  0  0  0
    8.1439    1.0200   21.6146 O   0  0  0  0  0  0  0  0  0  0  0  0
    6.4490   -0.5754   20.9942 N   0  0  0  0  0  0  0  0  0  0  0  0
    6.1375   -1.9265   21.5124 C   0  0  0  0  0  0  0  0  0  0  0  0
    7.5124   -2.3234   21.9752 C   0  0  0  0  0  0  0  0  0  0  0  0
    9.2737   -1.0940   23.1971 C   0  0  0  0  0  0  0  0  0  0  0  0
   10.2217   -1.3124   22.1898 C   0  0  0  0  0  0  0  0  0  0  0  0
   11.5869   -1.3109   22.4755 C   0  0  0  0  0  0  0  0  0  0  0  0
   12.7609   -1.5863   21.2024 Cl  0  0  0  0  0  0  0  0  0  0  0  0
   12.0687   -1.0979   23.7420 C   0  0  0  0  0  0  0  0  0  0  0  0
   11.1436   -0.8814   24.7389 C   0  0  0  0  0  0  0  0  0  0  0  0
    9.7969   -0.8837   24.4512 C   0  0  0  0  0  0  0  0  0  0  0  0
    8.8883   -0.6147   25.5574 C   0  0  0  0  0  0  0  0  0  0  0  0
    9.3332   -0.4169   26.7325 O   0  0  0  0  0  0  0  0  0  0  0  0
    5.7758    0.0749   19.9243 C   0  0  0  0  0  0  0  0  0  0  0  0
    6.3330   -0.1050   18.6565 C   0  0  0  0  0  0  0  0  0  0  0  0
    5.7665    0.4732   17.5684 N   0  0  0  0  0  0  0  0  0  0  0  0
    4.6491    1.2365   17.6901 C   0  0  0  0  0  0  0  0  0  0  0  0
    4.1046    1.4093   18.9467 C   0  0  0  0  0  0  0  0  0  0  0  0
    2.9651    2.1896   19.0527 C   0  0  0  0  0  0  0  0  0  0  0  0
    2.4005    2.3760   20.3057 C   0  0  0  0  0  0  0  0  0  0  0  0
    2.9682    1.7903   21.4332 C   0  0  0  0  0  0  0  0  0  0  0  0
    4.1025    1.0135   21.3267 C   0  0  0  0  0  0  0  0  0  0  0  0
    4.6434    0.8420   20.0852 C   0  0  0  0  0  0  0  0  0  0  0  0
    7.6769   -3.6526   22.5601 C   0  0  0  0  0  0  0  0  0  0  0  0
    6.2782   -4.4304   23.2515 Cl  0  0  0  0  0  0  0  0  0  0  0  0
    6.5960   -0.2386   26.3253 C   0  0  0  0  0  0  0  0  0  0  0  0
    4.4493    2.9044   25.9716 C   0  0  0  0  0  0  0  0  0  0  0  0
    4.8873    1.5125   25.9435 N   0  0  0  0  0  0  0  0  0  0  0  0
    6.2056    1.1688   26.3727 C   0  0  0  0  0  0  0  0  0  0  0  0
    6.9296    2.1195   26.7605 O   0  0  0  0  0  0  0  0  0  0  0  0
    4.2736    0.8100   25.6285 H   0  0  0  0  0  0  0  0  0  0  0  0
 31 32  1  0  0  0
 32 33  1  0  0  0
 32 35  1  0  0  0
 33 34  2  0  0  0
 33 30  1  0  0  0
 30  1  1  0  0  0
  1  2  1  0  0  0
  3  2  1  0  0  0
  3  4  1  0  0  0
  3  9  1  0  0  0
  4  5  2  0  0  0
  4  6  1  0  0  0
  6 18  1  0  0  0
  6  7  1  0  0  0
 18 19  2  0  0  0
 19 20  1  0  0  0
 20 21  2  0  0  0
 21 22  1  0  0  0
 22 23  2  0  0  0
 23 24  1  0  0  0
 24 25  2  0  0  0
 25 26  1  0  0  0
 26 27  2  0  0  0
 27 18  1  0  0  0
 27 22  1  0  0  0
  7  8  1  0  0  0
  8 28  1  0  0  0
  8  3  1  0  0  0
 28 29  1  0  0  0
  9 10  2  0  0  0
 10 11  1  0  0  0
 11 12  1  0  0  0
 11 13  2  0  0  0
 13 14  1  0  0  0
 14 15  2  0  0  0
 15 16  1  0  0  0
 15  9  1  0  0  0
 16 17  2  0  0  0
 16  1  1  0  0  0
M  END
> <minimizedAffinity>
-6.39064

> <CNNscore>
0.5286445022

> <CNNaffinity>
6.3883142471

> <CNN_VS>
3.3771471977

> <CNNaffinity_variance>
0.0390361175
$$$$



36 40  0  0  0  0  0  0  0  0999 V2000
    8.5693   -3.0899   24.8421 N   0  0  0  0  0  0  0  0  0  0  0  0
    8.1038   -3.0046   23.4870 C   0  0  0  0  0  0  0  0  0  0  0  0
    7.5444   -1.6845   23.1547 C   0  0  0  0  0  0  0  0  0  0  0  0
    6.6706   -1.6971   21.9487 C   0  0  0  0  0  0  0  0  0  0  0  0
    5.8828   -2.6353   21.6706 O   0  0  0  0  0  0  0  0  0  0  0  0
    6.8339   -0.5422   21.1677 N   0  0  0  0  0  0  0  0  0  0  0  0
    7.9279    0.1879   21.7349 C   0  0  0  0  0  0  0  0  0  0  0  0
    8.5227   -0.6017   22.8449 C   0  0  0  0  0  0  0  0  0  0  0  0
    6.6134   -1.2516   24.2633 C   0  0  0  0  0  0  0  0  0  0  0  0
    5.5768   -0.3479   23.9882 C   0  0  0  0  0  0  0  0  0  0  0  0
    4.7234    0.1043   24.9699 C   0  0  0  0  0  0  0  0  0  0  0  0
    3.4331    1.2393   24.5863 Cl  0  0  0  0  0  0  0  0  0  0  0  0
    4.8683   -0.3273   26.2714 C   0  0  0  0  0  0  0  0  0  0  0  0
    5.8824   -1.2183   26.5641 C   0  0  0  0  0  0  0  0  0  0  0  0
    6.7185   -1.6521   25.5614 C   0  0  0  0  0  0  0  0  0  0  0  0
    7.7432   -2.6220   25.9076 C   0  0  0  0  0  0  0  0  0  0  0  0
    7.9045   -3.0322   27.0643 O   0  0  0  0  0  0  0  0  0  0  0  0
    6.0977   -0.0777   20.0283 C   0  0  0  0  0  0  0  0  0  0  0  0
    6.2983   -0.6116   18.7573 C   0  0  0  0  0  0  0  0  0  0  0  0
    5.6212   -0.1828   17.6763 N   0  0  0  0  0  0  0  0  0  0  0  0
    4.7093    0.7911   17.7725 C   0  0  0  0  0  0  0  0  0  0  0  0
    4.4499    1.3715   18.9852 C   0  0  0  0  0  0  0  0  0  0  0  0
    3.5099    2.3785   19.0766 C   0  0  0  0  0  0  0  0  0  0  0  0
    3.2294    2.9887   20.2982 C   0  0  0  0  0  0  0  0  0  0  0  0
    3.9328    2.5353   21.3856 C   0  0  0  0  0  0  0  0  0  0  0  0
    4.8579    1.5425   21.2894 C   0  0  0  0  0  0  0  0  0  0  0  0
    5.1542    0.9258   20.1090 C   0  0  0  0  0  0  0  0  0  0  0  0
    9.8460   -3.6646   25.2316 C   0  0  0  0  0  0  0  0  0  0  0  0
   13.1577   -1.7077   25.6807 C   0  0  0  0  0  0  0  0  0  0  0  0
   12.2578   -2.8279   25.4117 N   0  0  0  0  0  0  0  0  0  0  0  0
   10.8627   -2.6072   25.4836 C   0  0  0  0  0  0  0  0  0  0  0  0
   10.4601   -1.4522   25.7770 O   0  0  0  0  0  0  0  0  0  0  0  0
   12.6153   -3.7168   25.1854 H   0  0  0  0  0  0  0  0  0  0  0  0
    9.8397   -1.1664   22.3696 C   0  0  0  0  0  0  0  0  0  0  0  0
   10.9419   -0.4129   22.6549 O   0  0  0  0  0  0  0  0  0  0  0  0
   12.1075   -1.0514   22.1989 C   0  0  0  0  0  0  0  0  0  0  0  0
 29 30  1  0  0  0
 30 31  1  0  0  0
 30 33  1  0  0  0
 31 32  2  0  0  0
 31 28  1  0  0  0
 28  1  1  0  0  0
  1  2  1  0  0  0
  3  2  1  0  0  0
  3  4  1  0  0  0
  3  9  1  0  0  0
  4  5  2  0  0  0
  4  6  1  0  0  0
  6 18  1  0  0  0
  6  7  1  0  0  0
 18 19  2  0  0  0
 19 20  1  0  0  0
 20 21  2  0  0  0
 21 22  1  0  0  0
 22 23  2  0  0  0
 23 24  1  0  0  0
 24 25  2  0  0  0
 25 26  1  0  0  0
 26 27  2  0  0  0
 27 18  1  0  0  0
 27 22  1  0  0  0
  7  8  1  0  0  0
  8 34  1  0  0  0
  8  3  1  0  0  0
 34 35  1  0  0  0
 35 36  1  0  0  0
  9 10  2  0  0  0
 10 11  1  0  0  0
 11 12  1  0  0  0
 11 13  2  0  0  0
 13 14  1  0  0  0
 14 15  2  0  0  0
 15 16  1  0  0  0
 15  9  1  0  0  0
 16 17  2  0  0  0
 16  1  1  0  0  0
M  END
> <minimizedAffinity>
-8.09455

> <CNNscore>
0.4751725793

> <CNNaffinity>
6.4568772316

> <CNN_VS>
3.0681309700

> <CNNaffinity_variance>
0.0294474773
$$$$



40 44  0  0  0  0  0  0  0  0999 V2000
    6.9648   -3.5070   23.4552 C   0  0  0  0  0  0  0  0  0  0  0  0
    8.2413   -3.4486   24.3244 C   0  0  0  0  0  0  0  0  0  0  0  0
    8.9460   -2.2933   23.8116 N   0  0  0  0  0  0  0  0  0  0  0  0
    7.9183   -1.3637   23.4993 C   0  0  0  0  0  0  0  0  0  0  0  0
    8.0068   -0.0976   23.4543 O   0  0  0  0  0  0  0  0  0  0  0  0
    6.6419   -2.1014   23.2126 C   0  0  0  0  0  0  0  0  0  0  0  0
    6.3286   -1.7638   21.7784 C   0  0  0  0  0  0  0  0  0  0  0  0
    6.2065   -0.3153   21.6642 N   0  0  0  0  0  0  0  0  0  0  0  0
    5.2281    0.3219   22.4626 C   0  0  0  0  0  0  0  0  0  0  0  0
    4.6661    1.3582   22.0669 O   0  0  0  0  0  0  0  0  0  0  0  0
    4.9385   -0.3185   23.7572 C   0  0  0  0  0  0  0  0  0  0  0  0
    4.0067    0.2810   24.5454 C   0  0  0  0  0  0  0  0  0  0  0  0
    3.6840   -0.2469   25.7742 C   0  0  0  0  0  0  0  0  0  0  0  0
    4.3427   -1.3926   26.1558 C   0  0  0  0  0  0  0  0  0  0  0  0
    3.9325   -2.0683   27.7243 Cl  0  0  0  0  0  0  0  0  0  0  0  0
    5.3031   -2.0049   25.3361 C   0  0  0  0  0  0  0  0  0  0  0  0
    5.6314   -1.4754   24.0947 C   0  0  0  0  0  0  0  0  0  0  0  0
   10.3398   -2.0763   23.6361 C   0  0  0  0  0  0  0  0  0  0  0  0
   10.7507   -1.5806   22.4147 C   0  0  0  0  0  0  0  0  0  0  0  0
   12.0295   -1.3342   22.1260 N   0  0  0  0  0  0  0  0  0  0  0  0
   12.9722   -1.5796   23.0699 C   0  0  0  0  0  0  0  0  0  0  0  0
   12.5918   -2.0781   24.3081 C   0  0  0  0  0  0  0  0  0  0  0  0
   13.5726   -2.3135   25.2370 C   0  0  0  0  0  0  0  0  0  0  0  0
   13.1862   -2.8103   26.4690 C   0  0  0  0  0  0  0  0  0  0  0  0
   11.8592   -3.0656   26.7678 C   0  0  0  0  0  0  0  0  0  0  0  0
   10.8595   -2.8294   25.8314 C   0  0  0  0  0  0  0  0  0  0  0  0
   11.2775   -2.3343   24.6132 C   0  0  0  0  0  0  0  0  0  0  0  0
    7.1450   -4.3917   22.3635 N   0  0  0  0  0  0  0  0  0  0  0  0
    6.8550   -3.8944   21.5215 H   0  0  0  0  0  0  0  0  0  0  0  0
    6.3210   -5.8710   22.3795 S   0  0  0  0  0  0  0  0  0  0  0  0
    7.2146   -7.0289   22.7568 O   0  0  0  0  0  0  0  0  0  0  0  0
    5.6668   -6.1661   21.0314 O   0  0  0  0  0  0  0  0  0  0  0  0
    5.2657   -6.4753   24.8594 C   0  0  0  0  0  0  0  0  0  0  0  0
    4.9963   -5.8524   23.5373 C   0  0  0  0  0  0  0  0  0  0  0  0
    7.0506    0.4447   20.7572 C   0  0  0  0  0  0  0  0  0  0  0  0
    6.5167    0.2131   19.3826 C   0  0  0  0  0  0  0  0  0  0  0  0
    7.0577   -0.5692   18.5652 O   0  0  0  0  0  0  0  0  0  0  0  0
    5.3427    0.9313   19.0280 N   0  0  0  0  0  0  0  0  0  0  0  0
    4.7281    0.7923   17.7231 C   0  0  0  0  0  0  0  0  0  0  0  0
    4.9360    1.5398   19.6866 H   0  0  0  0  0  0  0  0  0  0  0  0
 33 34  1  0  0  0
 34 30  1  0  0  0
 30 31  2  0  0  0
 30 32  2  0  0  0
 30 28  1  0  0  0
 28 29  1  0  0  0
  1 28  1  0  0  0
  1  2  1  0  0  0
  2  3  1  0  0  0
  3 18  1  0  0  0
  3  4  1  0  0  0
 18 19  2  0  0  0
 19 20  1  0  0  0
 20 21  2  0  0  0
 21 22  1  0  0  0
 22 23  2  0  0  0
 23 24  1  0  0  0
 24 25  2  0  0  0
 25 26  1  0  0  0
 26 27  2  0  0  0
 27 18  1  0  0  0
 27 22  1  0  0  0
  4  5  2  0  0  0
  6  4  1  0  0  0
  6  7  1  0  0  0
  6  1  1  0  0  0
  7  8  1  0  0  0
  8 35  1  0  0  0
  8  9  1  0  0  0
 35 36  1  0  0  0
 36 37  2  0  0  0
 36 38  1  0  0  0
 38 39  1  0  0  0
 38 40  1  0  0  0
  9 10  2  0  0  0
  9 11  1  0  0  0
 11 12  2  0  0  0
 12 13  1  0  0  0
 13 14  2  0  0  0
 14 15  1  0  0  0
 14 16  1  0  0  0
 16 17  2  0  0  0
 17 11  1  0  0  0
 17  6  1  0  0  0
M  END
> <minimizedAffinity>
-8.95651

> <CNNscore>
0.6826932430

> <CNNaffinity>
7.1508626938

> <CNN_VS>
4.8818454742

> <CNNaffinity_variance>
0.2028920203
$$$$



34 38  0  0  0  0  0  0  0  0999 V2000
    6.1719    0.1437   21.8789 N   0  0  0  0  0  0  0  0  0  0  0  0
    6.7087   -1.1844   22.0885 C   0  0  0  0  0  0  0  0  0  0  0  0
    6.7465   -1.6016   23.5359 C   0  0  0  0  0  0  0  0  0  0  0  0
    8.0793   -1.1241   24.0558 C   0  0  0  0  0  0  0  0  0  0  0  0
    8.3301   -0.1772   24.8138 O   0  0  0  0  0  0  0  0  0  0  0  0
    9.0113   -2.0489   23.4496 N   0  0  0  0  0  0  0  0  0  0  0  0
    8.2925   -3.2110   22.9625 C   0  0  0  0  0  0  0  0  0  0  0  0
    6.9703   -3.0806   23.6980 C   0  0  0  0  0  0  0  0  0  0  0  0
    5.8847   -3.9473   23.1911 C   0  0  0  0  0  0  0  0  0  0  0  0
    5.6080   -1.1542   24.3224 C   0  0  0  0  0  0  0  0  0  0  0  0
    5.2530   -1.7215   25.5264 C   0  0  0  0  0  0  0  0  0  0  0  0
    4.1546   -1.2779   26.2670 C   0  0  0  0  0  0  0  0  0  0  0  0
    3.8323   -1.8571   27.4470 F   0  0  0  0  0  0  0  0  0  0  0  0
    3.3680   -0.2383   25.8174 C   0  0  0  0  0  0  0  0  0  0  0  0
    3.7105    0.3352   24.6206 C   0  0  0  0  0  0  0  0  0  0  0  0
    4.7898   -0.1002   23.8923 C   0  0  0  0  0  0  0  0  0  0  0  0
    5.0524    0.5966   22.6290 C   0  0  0  0  0  0  0  0  0  0  0  0
    4.3484    1.5405   22.2088 O   0  0  0  0  0  0  0  0  0  0  0  0
   10.4157   -1.8330   23.3555 C   0  0  0  0  0  0  0  0  0  0  0  0
   10.9410   -1.2414   22.2333 C   0  0  0  0  0  0  0  0  0  0  0  0
   12.2760   -1.0366   22.1447 N   0  0  0  0  0  0  0  0  0  0  0  0
   13.1388   -1.3947   23.1308 C   0  0  0  0  0  0  0  0  0  0  0  0
   12.6196   -1.9908   24.2641 C   0  0  0  0  0  0  0  0  0  0  0  0
   13.4772   -2.3659   25.2853 C   0  0  0  0  0  0  0  0  0  0  0  0
   12.9960   -2.9691   26.4433 C   0  0  0  0  0  0  0  0  0  0  0  0
   11.6292   -3.1799   26.5367 C   0  0  0  0  0  0  0  0  0  0  0  0
   10.7467   -2.8200   25.5415 C   0  0  0  0  0  0  0  0  0  0  0  0
   11.2510   -2.2242   24.4051 C   0  0  0  0  0  0  0  0  0  0  0  0
    6.7644    1.0362   20.9010 C   0  0  0  0  0  0  0  0  0  0  0  0
    4.7082    0.7864   17.6936 C   0  0  0  0  0  0  0  0  0  0  0  0
    5.1121    1.1573   19.0362 N   0  0  0  0  0  0  0  0  0  0  0  0
    6.3455    0.6513   19.5079 C   0  0  0  0  0  0  0  0  0  0  0  0
    7.0961   -0.0979   18.8179 O   0  0  0  0  0  0  0  0  0  0  0  0
    4.5495    1.7387   19.5972 H   0  0  0  0  0  0  0  0  0  0  0  0
 30 31  1  0  0  0
 31 32  1  0  0  0
 31 34  1  0  0  0
 32 33  2  0  0  0
 32 29  1  0  0  0
 29  1  1  0  0  0
  1  2  1  0  0  0
  3  2  1  0  0  0
  3  4  1  0  0  0
  3 10  1  0  0  0
  4  5  2  0  0  0
  4  6  1  0  0  0
  6 19  1  0  0  0
  6  7  1  0  0  0
 19 20  2  0  0  0
 20 21  1  0  0  0
 21 22  2  0  0  0
 22 23  1  0  0  0
 23 24  2  0  0  0
 24 25  1  0  0  0
 25 26  2  0  0  0
 26 27  1  0  0  0
 27 28  2  0  0  0
 28 19  1  0  0  0
 28 23  1  0  0  0
  7  8  1  0  0  0
  8  9  1  0  0  0
  8  3  1  0  0  0
 10 11  2  0  0  0
 11 12  1  0  0  0
 12 13  1  0  0  0
 12 14  2  0  0  0
 14 15  1  0  0  0
 15 16  2  0  0  0
 16 17  1  0  0  0
 16 10  1  0  0  0
 17 18  2  0  0  0
 17  1  1  0  0  0
M  END
> <minimizedAffinity>
-8.48442

> <CNNscore>
0.6025464535

> <CNNaffinity>
6.5350174904

> <CNN_VS>
3.9376516342

> <CNNaffinity_variance>
0.0307541005
$$$$



21 23  0  0  0  0  0  0  0  0999 V2000
   10.7519   -1.3776   22.2667 C   0  0  0  0  0  0  0  0  0  0  0  0
   11.0000    5.2873   22.1427 C   0  0  0  0  0  0  0  0  0  0  0  0
   10.9104    3.9436   22.8604 C   0  0  0  0  0  0  0  0  0  0  0  0
    9.5187    3.4473   23.0155 C   0  0  0  0  0  0  0  0  0  0  0  0
    9.2235    2.0824   22.5179 C   0  0  0  0  0  0  0  0  0  0  0  0
   10.2292    1.0820   22.7495 N   0  0  0  0  0  0  0  0  0  0  0  0
    9.9025   -0.1827   22.1914 C   0  0  0  0  0  0  0  0  0  0  0  0
    8.7857   -0.2536   21.5898 O   0  0  0  0  0  0  0  0  0  0  0  0
   11.5096    1.0984   23.4390 C   0  0  0  0  0  0  0  0  0  0  0  0
   12.3587    2.2644   22.9694 C   0  0  0  0  0  0  0  0  0  0  0  0
   11.6355    3.0611   22.0760 O   0  0  0  0  0  0  0  0  0  0  0  0
   10.3898   -2.2441   23.4379 C   0  0  0  0  0  0  0  0  0  0  0  0
    9.1487   -2.8316   23.5632 C   0  0  0  0  0  0  0  0  0  0  0  0
    8.8117   -3.6049   24.6155 N   0  0  0  0  0  0  0  0  0  0  0  0
    9.6958   -3.8440   25.6171 C   0  0  0  0  0  0  0  0  0  0  0  0
   10.9425   -3.2666   25.5106 C   0  0  0  0  0  0  0  0  0  0  0  0
   11.8554   -3.5163   26.5397 C   0  0  0  0  0  0  0  0  0  0  0  0
   13.1290   -2.9528   26.4647 C   0  0  0  0  0  0  0  0  0  0  0  0
   13.5061   -2.1672   25.4184 C   0  0  0  0  0  0  0  0  0  0  0  0
   12.5928   -1.9251   24.4028 C   0  0  0  0  0  0  0  0  0  0  0  0
   11.3038   -2.4749   24.4437 C   0  0  0  0  0  0  0  0  0  0  0  0
  3  2  1  0  0  0
  3  4  1  0  0  0
  4  5  1  0  0  0
  5  6  1  0  0  0
  6  7  1  0  0  0
  6  9  1  0  0  0
  7  8  2  0  0  0
  7  1  1  0  0  0
  1 12  1  0  0  0
 12 13  2  0  0  0
 13 14  1  0  0  0
 14 15  2  0  0  0
 15 16  1  0  0  0
 16 17  2  0  0  0
 17 18  1  0  0  0
 18 19  2  0  0  0
 19 20  1  0  0  0
 20 21  2  0  0  0
 21 12  1  0  0  0
 21 16  1  0  0  0
  9 10  1  0  0  0
 10 11  1  0  0  0
 11  3  1  0  0  0
M  END
> <minimizedAffinity>
-7.23463

> <CNNscore>
0.7487037182

> <CNNaffinity>
5.3866510391

> <CNN_VS>
4.0330057144

> <CNNaffinity_variance>
0.0213038493
$$$$



27 30  0  0  0  0  0  0  0  0999 V2000
    6.9914   -1.0652   21.7633 C   0  0  0  0  0  0  0  0  0  0  0  0
    7.7507   -0.1346   21.3495 O   0  0  0  0  0  0  0  0  0  0  0  0
    5.7926   -1.3406   21.0742 N   0  0  0  0  0  0  0  0  0  0  0  0
    5.1934   -2.0570   21.3860 H   0  0  0  0  0  0  0  0  0  0  0  0
    5.8160   -3.4024   25.6924 C   0  0  0  0  0  0  0  0  0  0  0  0
    6.8522   -2.5506   25.1566 N   0  0  0  0  0  0  0  0  0  0  0  0
    6.5660   -1.4727   24.1929 C   0  0  0  0  0  0  0  0  0  0  0  0
    7.3693   -1.8395   22.9520 C   0  0  0  0  0  0  0  0  0  0  0  0
    8.7998   -1.8860   23.2517 C   0  0  0  0  0  0  0  0  0  0  0  0
    9.8087   -1.5400   22.3779 C   0  0  0  0  0  0  0  0  0  0  0  0
   11.1539   -1.6309   22.7293 C   0  0  0  0  0  0  0  0  0  0  0  0
   12.4087   -1.1799   21.5845 Cl  0  0  0  0  0  0  0  0  0  0  0  0
   11.5297   -2.0717   23.9693 C   0  0  0  0  0  0  0  0  0  0  0  0
   10.5322   -2.4207   24.8551 C   0  0  0  0  0  0  0  0  0  0  0  0
    9.2038   -2.3281   24.5017 C   0  0  0  0  0  0  0  0  0  0  0  0
    8.2234   -2.6855   25.5202 C   0  0  0  0  0  0  0  0  0  0  0  0
    8.5061   -3.0931   26.6640 O   0  0  0  0  0  0  0  0  0  0  0  0
    5.4523   -0.5627   19.9078 C   0  0  0  0  0  0  0  0  0  0  0  0
    5.9477   -0.8881   18.6588 C   0  0  0  0  0  0  0  0  0  0  0  0
    5.6064   -0.1341   17.5847 N   0  0  0  0  0  0  0  0  0  0  0  0
    4.7901    0.9216   17.7466 C   0  0  0  0  0  0  0  0  0  0  0  0
    4.2700    1.2887   18.9652 C   0  0  0  0  0  0  0  0  0  0  0  0
    3.4226    2.3908   19.1107 C   0  0  0  0  0  0  0  0  0  0  0  0
    2.9198    2.7231   20.3719 C   0  0  0  0  0  0  0  0  0  0  0  0
    3.2652    1.9568   21.4703 C   0  0  0  0  0  0  0  0  0  0  0  0
    4.1115    0.8534   21.3347 C   0  0  0  0  0  0  0  0  0  0  0  0
    4.6064    0.5275   20.0896 C   0  0  0  0  0  0  0  0  0  0  0  0
  5  6  1  0  0  0
  6  7  1  0  0  0
  7  8  1  0  0  0
  8  1  1  0  0  0
  8  9  1  0  0  0
  1  2  2  0  0  0
  1  3  1  0  0  0
  3 18  1  0  0  0
  3  4  1  0  0  0
 18 19  2  0  0  0
 19 20  1  0  0  0
 20 21  2  0  0  0
 21 22  1  0  0  0
 22 23  2  0  0  0
 23 24  1  0  0  0
 24 25  2  0  0  0
 25 26  1  0  0  0
 26 27  2  0  0  0
 27 18  1  0  0  0
 27 22  1  0  0  0
  9 10  2  0  0  0
 10 11  1  0  0  0
 11 12  1  0  0  0
 11 13  2  0  0  0
 13 14  1  0  0  0
 14 15  2  0  0  0
 15 16  1  0  0  0
 15  9  1  0  0  0
 16 17  2  0  0  0
 16  6  1  0  0  0
M  END
> <minimizedAffinity>
-8.15704

> <CNNscore>
0.6517311931

> <CNNaffinity>
5.9498591423

> <CNN_VS>
3.8777089119

> <CNNaffinity_variance>
0.2310722768
$$$$



22 25  0  0  0  0  0  0  0  0999 V2000
    8.8269   -3.7340   28.0593 O   0  0  0  0  0  0  0  0  0  0  0  0
    8.5766   -3.3447   26.8881 C   0  0  0  0  0  0  0  0  0  0  0  0
    9.4636   -3.5508   25.7916 N   0  0  0  0  0  0  0  0  0  0  0  0
    9.1362   -3.0865   24.4572 C   0  0  0  0  0  0  0  0  0  0  0  0
   10.2660   -2.4411   23.7408 C   0  0  0  0  0  0  0  0  0  0  0  0
   11.4477   -2.3799   24.5619 C   0  0  0  0  0  0  0  0  0  0  0  0
   12.8272   -1.2087   24.3850 S   0  0  0  0  0  0  0  0  0  0  0  0
   13.7767   -1.9387   25.8463 C   0  0  0  0  0  0  0  0  0  0  0  0
   12.9415   -2.9453   26.2600 C   0  0  0  0  0  0  0  0  0  0  0  0
   11.7889   -3.1541   25.6143 C   0  0  0  0  0  0  0  0  0  0  0  0
   10.7432   -4.2335   25.9421 C   0  0  0  0  0  0  0  0  0  0  0  0
    7.2955   -2.6368   26.6403 C   0  0  0  0  0  0  0  0  0  0  0  0
    6.1521   -3.5766   26.7599 C   0  0  0  0  0  0  0  0  0  0  0  0
    5.7736   -4.4257   25.7198 C   0  0  0  0  0  0  0  0  0  0  0  0
    4.7458   -5.2756   25.8163 N   0  0  0  0  0  0  0  0  0  0  0  0
    3.9993   -5.3810   26.9140 C   0  0  0  0  0  0  0  0  0  0  0  0
    4.3175   -4.5676   27.9879 C   0  0  0  0  0  0  0  0  0  0  0  0
    3.5654   -4.6452   29.1487 C   0  0  0  0  0  0  0  0  0  0  0  0
    3.8832   -3.8315   30.2212 C   0  0  0  0  0  0  0  0  0  0  0  0
    4.9391   -2.9566   30.1248 C   0  0  0  0  0  0  0  0  0  0  0  0
    5.7112   -2.8551   28.9779 C   0  0  0  0  0  0  0  0  0  0  0  0
    5.3853   -3.6698   27.9172 C   0  0  0  0  0  0  0  0  0  0  0  0
  1  2  2  0  0  0
  2 12  1  0  0  0
  2  3  1  0  0  0
 12 13  1  0  0  0
 13 14  2  0  0  0
 14 15  1  0  0  0
 15 16  2  0  0  0
 16 17  1  0  0  0
 17 18  2  0  0  0
 18 19  1  0  0  0
 19 20  2  0  0  0
 20 21  1  0  0  0
 21 22  2  0  0  0
 22 13  1  0  0  0
 22 17  1  0  0  0
  3  4  1  0  0  0
  4  5  1  0  0  0
  5  6  1  0  0  0
  6  7  1  0  0  0
  7  8  1  0  0  0
  8  9  2  0  0  0
  9 10  1  0  0  0
 10 11  1  0  0  0
 10  6  2  0  0  0
 11  3  1  0  0  0
M  END
> <minimizedAffinity>
-5.97694

> <CNNscore>
0.7239535451

> <CNNaffinity>
5.5347070694

> <CNN_VS>
4.0068707466

> <CNNaffinity_variance>
0.2473993301
$$$$



43 49  0  0  0  0  0  0  0  0999 V2000
    5.9486   -3.0684   22.6411 N   0  0  0  0  0  0  0  0  0  0  0  0
    5.8610   -2.3563   23.9065 C   0  0  0  0  0  0  0  0  0  0  0  0
    6.6187   -1.0347   23.7891 C   0  0  0  0  0  0  0  0  0  0  0  0
    8.0704   -1.4476   23.7707 C   0  0  0  0  0  0  0  0  0  0  0  0
    8.8504   -1.4624   22.8008 O   0  0  0  0  0  0  0  0  0  0  0  0
    8.3667   -1.8245   25.1234 N   0  0  0  0  0  0  0  0  0  0  0  0
    7.3979   -1.1926   26.0267 C   0  0  0  0  0  0  0  0  0  0  0  0
    6.5934   -0.2897   25.0987 C   0  0  0  0  0  0  0  0  0  0  0  0
    6.2175   -0.2333   22.6486 C   0  0  0  0  0  0  0  0  0  0  0  0
    6.2951    1.1374   22.5456 C   0  0  0  0  0  0  0  0  0  0  0  0
    5.8981    1.8384   21.4200 C   0  0  0  0  0  0  0  0  0  0  0  0
    6.0318    3.5833   21.3745 Cl  0  0  0  0  0  0  0  0  0  0  0  0
    5.3939    1.1664   20.3255 C   0  0  0  0  0  0  0  0  0  0  0  0
    5.3048   -0.1910   20.3979 C   0  0  0  0  0  0  0  0  0  0  0  0
    5.7002   -0.8857   21.5186 C   0  0  0  0  0  0  0  0  0  0  0  0
    5.5493   -2.3376   21.4803 C   0  0  0  0  0  0  0  0  0  0  0  0
    5.0946   -2.9662   20.4965 O   0  0  0  0  0  0  0  0  0  0  0  0
    9.4245   -2.6737   25.5503 C   0  0  0  0  0  0  0  0  0  0  0  0
    9.2204   -3.9321   26.0784 C   0  0  0  0  0  0  0  0  0  0  0  0
   10.2388   -4.7221   26.4777 N   0  0  0  0  0  0  0  0  0  0  0  0
   11.5241   -4.3098   26.3765 C   0  0  0  0  0  0  0  0  0  0  0  0
   11.7882   -3.0537   25.8529 C   0  0  0  0  0  0  0  0  0  0  0  0
   13.0918   -2.5769   25.7251 C   0  0  0  0  0  0  0  0  0  0  0  0
   13.3067   -1.3185   25.1976 C   0  0  0  0  0  0  0  0  0  0  0  0
   12.2644   -0.5063   24.7876 C   0  0  0  0  0  0  0  0  0  0  0  0
   10.9589   -0.9773   24.9126 C   0  0  0  0  0  0  0  0  0  0  0  0
   10.7487   -2.2344   25.4398 C   0  0  0  0  0  0  0  0  0  0  0  0
    6.4065   -4.4229   22.5819 C   0  0  0  0  0  0  0  0  0  0  0  0
    2.1344   -6.8930   22.9102 C   0  0  0  0  0  0  0  0  0  0  0  0
    3.5067   -6.4246   23.2953 C   0  0  0  0  0  0  0  0  0  0  0  0
    4.2396   -6.7471   24.3653 N   0  0  0  0  0  0  0  0  0  0  0  0
    5.3906   -6.0713   24.2615 N   0  0  0  0  0  0  0  0  0  0  0  0
    5.3650   -5.3379   23.1341 C   0  0  0  0  0  0  0  0  0  0  0  0
    4.1872   -5.5898   22.5771 O   0  0  0  0  0  0  0  0  0  0  0  0
    5.2348   -0.0909   25.6799 C   0  0  0  0  0  0  0  0  0  0  0  0
    5.0331    1.3446   25.8677 N   0  0  0  0  0  0  0  0  0  0  0  0
    5.4770    1.8174   26.6084 H   0  0  0  0  0  0  0  0  0  0  0  0
    4.1837    2.0535   24.9631 C   0  0  0  0  0  0  0  0  0  0  0  0
    3.1901    1.4077   24.2538 C   0  0  0  0  0  0  0  0  0  0  0  0
    2.3529    2.0616   23.3726 C   0  0  0  0  0  0  0  0  0  0  0  0
    2.5494    3.3891   23.2288 N   0  0  0  0  0  0  0  0  0  0  0  0
    3.5183    4.0418   23.9150 C   0  0  0  0  0  0  0  0  0  0  0  0
    4.3357    3.3814   24.7806 N   0  0  0  0  0  0  0  0  0  0  0  0
 29 30  1  0  0  0
 30 31  2  0  0  0
 31 32  1  0  0  0
 32 33  2  0  0  0
 33 28  1  0  0  0
 33 34  1  0  0  0
 28  1  1  0  0  0
  1  2  1  0  0  0
  3  2  1  0  0  0
  3  4  1  0  0  0
  3  9  1  0  0  0
  4  5  2  0  0  0
  4  6  1  0  0  0
  6 18  1  0  0  0
  6  7  1  0  0  0
 18 19  2  0  0  0
 19 20  1  0  0  0
 20 21  2  0  0  0
 21 22  1  0  0  0
 22 23  2  0  0  0
 23 24  1  0  0  0
 24 25  2  0  0  0
 25 26  1  0  0  0
 26 27  2  0  0  0
 27 18  1  0  0  0
 27 22  1  0  0  0
  7  8  1  0  0  0
  8 35  1  0  0  0
  8  3  1  0  0  0
 35 36  1  0  0  0
 36 38  1  0  0  0
 36 37  1  0  0  0
 38 39  2  0  0  0
 39 40  1  0  0  0
 40 41  2  0  0  0
 41 42  1  0  0  0
 42 43  2  0  0  0
 43 38  1  0  0  0
  9 10  2  0  0  0
 10 11  1  0  0  0
 11 12  1  0  0  0
 11 13  2  0  0  0
 13 14  1  0  0  0
 14 15  2  0  0  0
 15 16  1  0  0  0
 15  9  1  0  0  0
 16 17  2  0  0  0
 16  1  1  0  0  0
 34 30  1  0  0  0
M  END
> <minimizedAffinity>
-7.99580

> <CNNscore>
0.3719995916

> <CNNaffinity>
7.1130509377

> <CNN_VS>
2.6460521221

> <CNNaffinity_variance>
0.0871789902
$$$$



42 47  0  0  0  0  0  0  0  0999 V2000
    6.8674   -4.4508   23.8005 N   0  0  0  0  0  0  0  0  0  0  0  0
    7.9162   -3.5668   23.3375 C   0  0  0  0  0  0  0  0  0  0  0  0
    7.4480   -2.1305   23.2509 C   0  0  0  0  0  0  0  0  0  0  0  0
    6.5354   -1.9294   22.0949 C   0  0  0  0  0  0  0  0  0  0  0  0
    5.5613   -2.6960   21.8647 O   0  0  0  0  0  0  0  0  0  0  0  0
    6.8938   -0.8162   21.3293 N   0  0  0  0  0  0  0  0  0  0  0  0
    8.1403   -0.2583   21.8520 C   0  0  0  0  0  0  0  0  0  0  0  0
    8.5712   -1.1973   22.9488 C   0  0  0  0  0  0  0  0  0  0  0  0
    6.6875   -1.7379   24.4739 C   0  0  0  0  0  0  0  0  0  0  0  0
    6.5627   -0.4174   24.8586 C   0  0  0  0  0  0  0  0  0  0  0  0
    5.8566   -0.0376   25.9965 C   0  0  0  0  0  0  0  0  0  0  0  0
    5.7280    1.6379   26.4389 Cl  0  0  0  0  0  0  0  0  0  0  0  0
    5.2509   -0.9935   26.7849 C   0  0  0  0  0  0  0  0  0  0  0  0
    5.3603   -2.3221   26.4226 C   0  0  0  0  0  0  0  0  0  0  0  0
    6.0659   -2.6723   25.2897 C   0  0  0  0  0  0  0  0  0  0  0  0
    6.1345   -4.0981   24.9756 C   0  0  0  0  0  0  0  0  0  0  0  0
    5.6027   -4.9914   25.6600 O   0  0  0  0  0  0  0  0  0  0  0  0
    6.2311   -0.2366   20.2088 C   0  0  0  0  0  0  0  0  0  0  0  0
    6.7112   -0.4193   18.9278 C   0  0  0  0  0  0  0  0  0  0  0  0
    6.1113    0.1141   17.8381 N   0  0  0  0  0  0  0  0  0  0  0  0
    4.9948    0.8574   18.0102 C   0  0  0  0  0  0  0  0  0  0  0  0
    4.4702    1.0745   19.2564 C   0  0  0  0  0  0  0  0  0  0  0  0
    3.3256    1.8416   19.3881 C   0  0  0  0  0  0  0  0  0  0  0  0
    2.8139    2.0473   20.6575 C   0  0  0  0  0  0  0  0  0  0  0  0
    3.4043    1.5152   21.7936 C   0  0  0  0  0  0  0  0  0  0  0  0
    4.5460    0.7550   21.6190 C   0  0  0  0  0  0  0  0  0  0  0  0
    5.0895    0.5263   20.3603 C   0  0  0  0  0  0  0  0  0  0  0  0
    6.5683   -5.6762   23.0782 C   0  0  0  0  0  0  0  0  0  0  0  0
    3.0310   -7.0181   23.6743 C   0  0  0  0  0  0  0  0  0  0  0  0
    4.4740   -6.8380   23.8047 N   0  0  0  0  0  0  0  0  0  0  0  0
    5.1091   -5.8971   22.9857 C   0  0  0  0  0  0  0  0  0  0  0  0
    4.4460   -5.2073   22.1399 O   0  0  0  0  0  0  0  0  0  0  0  0
    4.9897   -7.3673   24.4552 H   0  0  0  0  0  0  0  0  0  0  0  0
    9.8082   -1.9101   22.4416 C   0  0  0  0  0  0  0  0  0  0  0  0
   10.9573   -1.1803   22.9755 N   0  0  0  0  0  0  0  0  0  0  0  0
   11.2719   -0.3388   22.5726 H   0  0  0  0  0  0  0  0  0  0  0  0
   11.5978   -1.7573   24.1147 C   0  0  0  0  0  0  0  0  0  0  0  0
   12.8330   -1.2847   24.4979 C   0  0  0  0  0  0  0  0  0  0  0  0
   13.4687   -1.8406   25.6095 C   0  0  0  0  0  0  0  0  0  0  0  0
   12.8683   -2.8293   26.2917 N   0  0  0  0  0  0  0  0  0  0  0  0
   11.6540   -3.2910   25.9118 C   0  0  0  0  0  0  0  0  0  0  0  0
   11.0358   -2.7492   24.8293 N   0  0  0  0  0  0  0  0  0  0  0  0
 29 30  1  0  0  0
 30 31  1  0  0  0
 30 33  1  0  0  0
 31 32  2  0  0  0
 31 28  1  0  0  0
 28  1  1  0  0  0
  1  2  1  0  0  0
  3  2  1  0  0  0
  3  4  1  0  0  0
  3  9  1  0  0  0
  4  5  2  0  0  0
  4  6  1  0  0  0
  6 18  1  0  0  0
  6  7  1  0  0  0
 18 19  2  0  0  0
 19 20  1  0  0  0
 20 21  2  0  0  0
 21 22  1  0  0  0
 22 23  2  0  0  0
 23 24  1  0  0  0
 24 25  2  0  0  0
 25 26  1  0  0  0
 26 27  2  0  0  0
 27 18  1  0  0  0
 27 22  1  0  0  0
  7  8  1  0  0  0
  8 34  1  0  0  0
  8  3  1  0  0  0
 34 35  1  0  0  0
 35 37  1  0  0  0
 35 36  1  0  0  0
 37 38  2  0  0  0
 38 39  1  0  0  0
 39 40  2  0  0  0
 40 41  1  0  0  0
 41 42  2  0  0  0
 42 37  1  0  0  0
  9 10  2  0  0  0
 10 11  1  0  0  0
 11 12  1  0  0  0
 11 13  2  0  0  0
 13 14  1  0  0  0
 14 15  2  0  0  0
 15 16  1  0  0  0
 15  9  1  0  0  0
 16 17  2  0  0  0
 16  1  1  0  0  0
M  END
> <minimizedAffinity>
-9.41056

> <CNNscore>
0.7789183259

> <CNNaffinity>
7.3948450089

> <CNN_VS>
5.7599802017

> <CNNaffinity_variance>
0.0937034711
$$$$



46 53  0  0  0  0  0  0  0  0999 V2000
    3.0388    2.0919   24.2718 O   0  0  0  0  0  0  0  0  0  0  0  0
    4.1114    1.4409   24.2053 C   0  0  0  0  0  0  0  0  0  0  0  0
    4.1708    0.2090   24.9910 C   0  0  0  0  0  0  0  0  0  0  0  0
    3.0942   -0.1654   25.7673 C   0  0  0  0  0  0  0  0  0  0  0  0
    3.1504   -1.3136   26.5271 C   0  0  0  0  0  0  0  0  0  0  0  0
    4.3127   -2.0469   26.4688 C   0  0  0  0  0  0  0  0  0  0  0  0
    4.3858   -3.5134   27.4392 Cl  0  0  0  0  0  0  0  0  0  0  0  0
    5.4009   -1.6675   25.6832 C   0  0  0  0  0  0  0  0  0  0  0  0
    5.3416   -0.5111   24.9187 C   0  0  0  0  0  0  0  0  0  0  0  0
    6.5027   -0.1704   24.1019 C   0  0  0  0  0  0  0  0  0  0  0  0
    6.5076    1.1458   23.4362 C   0  0  0  0  0  0  0  0  0  0  0  0
    5.2324    1.8274   23.4290 N   0  0  0  0  0  0  0  0  0  0  0  0
    7.7842   -0.2620   24.8980 C   0  0  0  0  0  0  0  0  0  0  0  0
    7.8632    0.1257   26.0895 O   0  0  0  0  0  0  0  0  0  0  0  0
    8.7930   -0.8336   24.0746 N   0  0  0  0  0  0  0  0  0  0  0  0
    8.1859   -1.1726   22.8016 C   0  0  0  0  0  0  0  0  0  0  0  0
    6.7434   -1.3278   23.1514 C   0  0  0  0  0  0  0  0  0  0  0  0
   10.1495   -1.0235   24.4644 C   0  0  0  0  0  0  0  0  0  0  0  0
   11.1020   -0.1016   24.0737 C   0  0  0  0  0  0  0  0  0  0  0  0
   12.4038   -0.2352   24.4173 N   0  0  0  0  0  0  0  0  0  0  0  0
   12.8315   -1.2580   25.1465 C   0  0  0  0  0  0  0  0  0  0  0  0
   11.8999   -2.2119   25.5616 C   0  0  0  0  0  0  0  0  0  0  0  0
   12.3401   -3.2901   26.3281 C   0  0  0  0  0  0  0  0  0  0  0  0
   11.3840   -4.2043   26.7133 C   0  0  0  0  0  0  0  0  0  0  0  0
   10.0553   -4.1037   26.3851 C   0  0  0  0  0  0  0  0  0  0  0  0
    9.6189   -3.0296   25.6218 C   0  0  0  0  0  0  0  0  0  0  0  0
   10.5590   -2.1028   25.2256 C   0  0  0  0  0  0  0  0  0  0  0  0
    5.1338    2.9951   22.5671 C   0  0  0  0  0  0  0  0  0  0  0  0
    6.3427    3.2532   21.7332 C   0  0  0  0  0  0  0  0  0  0  0  0
    7.0170    4.4725   22.0384 N   0  0  0  0  0  0  0  0  0  0  0  0
    7.9328    4.4317   23.1633 C   0  0  0  0  0  0  0  0  0  0  0  0
    7.4164    5.7673   23.5553 C   0  0  0  0  0  0  0  0  0  0  0  0
    8.1757    6.9899   23.2534 C   0  0  0  0  0  0  0  0  0  0  0  0
    8.4267    7.0852   24.6439 O   0  0  0  0  0  0  0  0  0  0  0  0
    7.3874    6.1803   24.9712 C   0  0  0  0  0  0  0  0  0  0  0  0
    6.1911    5.4067   22.8447 C   0  0  0  0  0  0  0  0  0  0  0  0
    7.3550    4.6881   21.1005 H   0  0  0  0  0  0  0  0  0  0  0  0
    5.8355   -1.3082   21.9464 C   0  0  0  0  0  0  0  0  0  0  0  0
    6.5655   -0.6623   20.8655 N   0  0  0  0  0  0  0  0  0  0  0  0
    7.5495   -0.6936   20.8744 H   0  0  0  0  0  0  0  0  0  0  0  0
    5.9132    0.0121   19.7973 C   0  0  0  0  0  0  0  0  0  0  0  0
    4.7021    0.5889   19.9190 N   0  0  0  0  0  0  0  0  0  0  0  0
    4.1312    1.2209   18.8544 C   0  0  0  0  0  0  0  0  0  0  0  0
    4.8011    1.2714   17.6356 C   0  0  0  0  0  0  0  0  0  0  0  0
    6.0268    0.6837   17.5251 C   0  0  0  0  0  0  0  0  0  0  0  0
    6.5695    0.0590   18.6115 N   0  0  0  0  0  0  0  0  0  0  0  0
  1  2  2  0  0  0
  2  3  1  0  0  0
  3  4  2  0  0  0
  4  5  1  0  0  0
  5  6  2  0  0  0
  6  7  1  0  0  0
  6  8  1  0  0  0
  8  9  2  0  0  0
  9  3  1  0  0  0
 10  9  1  0  0  0
 10 11  1  0  0  0
 10 13  1  0  0  0
 11 12  1  0  0  0
 12 28  1  0  0  0
 12  2  1  0  0  0
 28 29  1  0  0  0
 29 30  1  0  0  0
 30 31  1  0  0  0
 30 37  1  0  0  0
 31 32  1  0  0  0
 32 33  1  0  0  0
 32 36  1  0  0  0
 33 34  1  0  0  0
 34 35  1  0  0  0
 35 32  1  0  0  0
 36 30  1  0  0  0
 13 14  2  0  0  0
 13 15  1  0  0  0
 15 18  1  0  0  0
 15 16  1  0  0  0
 18 19  2  0  0  0
 19 20  1  0  0  0
 20 21  2  0  0  0
 21 22  1  0  0  0
 22 23  2  0  0  0
 23 24  1  0  0  0
 24 25  2  0  0  0
 25 26  1  0  0  0
 26 27  2  0  0  0
 27 18  1  0  0  0
 27 22  1  0  0  0
 16 17  1  0  0  0
 17 38  1  0  0  0
 17 10  1  0  0  0
 38 39  1  0  0  0
 39 41  1  0  0  0
 39 40  1  0  0  0
 41 42  2  0  0  0
 42 43  1  0  0  0
 43 44  2  0  0  0
 44 45  1  0  0  0
 45 46  2  0  0  0
 46 41  1  0  0  0
M  CHG 1  30   1
M  END
> <minimizedAffinity>
-8.44468

> <CNNscore>
0.1953087300

> <CNNaffinity>
6.6868529320

> <CNN_VS>
1.3060007095

> <CNNaffinity_variance>
0.3031443059
$$$$



42 47  0  0  0  0  0  0  0  0999 V2000
   10.1933   -2.1659   23.3855 N   0  0  0  0  0  0  0  0  0  0  0  0
    9.1725   -1.8916   22.4067 C   0  0  0  0  0  0  0  0  0  0  0  0
    8.1109   -0.9386   22.7982 C   0  0  0  0  0  0  0  0  0  0  0  0
    7.0403   -1.0331   21.7757 C   0  0  0  0  0  0  0  0  0  0  0  0
    6.4817   -2.0978   21.3418 O   0  0  0  0  0  0  0  0  0  0  0  0
    6.6665    0.2485   21.2896 N   0  0  0  0  0  0  0  0  0  0  0  0
    7.2290    1.1958   22.2346 C   0  0  0  0  0  0  0  0  0  0  0  0
    8.4132    0.4879   22.8976 C   0  0  0  0  0  0  0  0  0  0  0  0
    7.6027   -1.3775   24.1509 C   0  0  0  0  0  0  0  0  0  0  0  0
    6.3387   -1.0379   24.5933 C   0  0  0  0  0  0  0  0  0  0  0  0
    5.8544   -1.4194   25.8346 C   0  0  0  0  0  0  0  0  0  0  0  0
    4.2533   -0.9863   26.3890 Cl  0  0  0  0  0  0  0  0  0  0  0  0
    6.6434   -2.1607   26.6678 C   0  0  0  0  0  0  0  0  0  0  0  0
    7.8945   -2.5119   26.2612 C   0  0  0  0  0  0  0  0  0  0  0  0
    8.3701   -2.1264   25.0189 C   0  0  0  0  0  0  0  0  0  0  0  0
    9.7291   -2.5725   24.6885 C   0  0  0  0  0  0  0  0  0  0  0  0
   10.4409   -3.2490   25.4599 O   0  0  0  0  0  0  0  0  0  0  0  0
    5.9043    0.5950   20.1369 C   0  0  0  0  0  0  0  0  0  0  0  0
    6.3494    0.3122   18.8421 C   0  0  0  0  0  0  0  0  0  0  0  0
    5.6186    0.6462   17.7542 N   0  0  0  0  0  0  0  0  0  0  0  0
    4.4309    1.2637   17.8232 C   0  0  0  0  0  0  0  0  0  0  0  0
    3.9479    1.5644   19.0723 C   0  0  0  0  0  0  0  0  0  0  0  0
    2.7144    2.2073   19.1751 C   0  0  0  0  0  0  0  0  0  0  0  0
    2.1936    2.5273   20.4102 C   0  0  0  0  0  0  0  0  0  0  0  0
    2.9102    2.2028   21.5489 C   0  0  0  0  0  0  0  0  0  0  0  0
    4.1315    1.5649   21.4122 C   0  0  0  0  0  0  0  0  0  0  0  0
    4.6770    1.2329   20.2057 C   0  0  0  0  0  0  0  0  0  0  0  0
   11.6158   -2.0627   23.1341 C   0  0  0  0  0  0  0  0  0  0  0  0
   13.9431   -1.9301   26.2546 C   0  0  0  0  0  0  0  0  0  0  0  0
   13.2089   -2.4121   25.0916 N   0  0  0  0  0  0  0  0  0  0  0  0
   12.3613   -1.5656   24.3177 C   0  0  0  0  0  0  0  0  0  0  0  0
   12.2765   -0.3676   24.6916 O   0  0  0  0  0  0  0  0  0  0  0  0
   13.3014   -3.3568   24.8305 H   0  0  0  0  0  0  0  0  0  0  0  0
    9.7100    0.9943   22.3714 C   0  0  0  0  0  0  0  0  0  0  0  0
   10.4998    1.7676   23.2997 N   0  0  0  0  0  0  0  0  0  0  0  0
   10.7186    1.3955   24.1845 H   0  0  0  0  0  0  0  0  0  0  0  0
   10.9705    3.0829   22.9385 C   0  0  0  0  0  0  0  0  0  0  0  0
   12.2826    3.2431   22.4906 C   0  0  0  0  0  0  0  0  0  0  0  0
   12.7690    4.4578   22.1431 N   0  0  0  0  0  0  0  0  0  0  0  0
   11.9356    5.5216   22.2445 C   0  0  0  0  0  0  0  0  0  0  0  0
   10.6288    5.3958   22.6853 C   0  0  0  0  0  0  0  0  0  0  0  0
   10.1874    4.1709   23.0199 N   0  0  0  0  0  0  0  0  0  0  0  0
 29 30  1  0  0  0
 30 31  1  0  0  0
 30 33  1  0  0  0
 31 32  2  0  0  0
 31 28  1  0  0  0
 28  1  1  0  0  0
  1  2  1  0  0  0
  3  2  1  0  0  0
  3  4  1  0  0  0
  3  9  1  0  0  0
  4  5  2  0  0  0
  4  6  1  0  0  0
  6 18  1  0  0  0
  6  7  1  0  0  0
 18 19  2  0  0  0
 19 20  1  0  0  0
 20 21  2  0  0  0
 21 22  1  0  0  0
 22 23  2  0  0  0
 23 24  1  0  0  0
 24 25  2  0  0  0
 25 26  1  0  0  0
 26 27  2  0  0  0
 27 18  1  0  0  0
 27 22  1  0  0  0
  7  8  1  0  0  0
  8 34  1  0  0  0
  8  3  1  0  0  0
 34 35  1  0  0  0
 35 37  1  0  0  0
 35 36  1  0  0  0
 37 38  2  0  0  0
 38 39  1  0  0  0
 39 40  2  0  0  0
 40 41  1  0  0  0
 41 42  2  0  0  0
 42 37  1  0  0  0
  9 10  2  0  0  0
 10 11  1  0  0  0
 11 12  1  0  0  0
 11 13  2  0  0  0
 13 14  1  0  0  0
 14 15  2  0  0  0
 15 16  1  0  0  0
 15  9  1  0  0  0
 16 17  2  0  0  0
 16  1  1  0  0  0
M  END
> <minimizedAffinity>
-9.00240

> <CNNscore>
0.6420292854

> <CNNaffinity>
7.3618559837

> <CNN_VS>
4.7265272141

> <CNNaffinity_variance>
0.1118708998
$$$$



34 39  0  0  0  0  0  0  0  0999 V2000
    7.0278   -2.2392   25.7372 N   0  0  0  0  0  0  0  0  0  0  0  0
    6.6858   -1.1174   24.8479 C   0  0  0  0  0  0  0  0  0  0  0  0
    7.4020   -1.4157   23.5459 C   0  0  0  0  0  0  0  0  0  0  0  0
    6.6767   -2.6035   22.9487 C   0  0  0  0  0  0  0  0  0  0  0  0
    6.9170   -2.3903   21.4694 C   0  0  0  0  0  0  0  0  0  0  0  0
    6.7633   -0.9513   21.3620 N   0  0  0  0  0  0  0  0  0  0  0  0
    7.2567   -0.3539   22.5522 C   0  0  0  0  0  0  0  0  0  0  0  0
    7.5367    0.8604   22.7723 O   0  0  0  0  0  0  0  0  0  0  0  0
    8.8387   -1.6812   23.7496 C   0  0  0  0  0  0  0  0  0  0  0  0
    9.7587   -1.4002   22.7467 C   0  0  0  0  0  0  0  0  0  0  0  0
   11.1128   -1.6435   22.9209 C   0  0  0  0  0  0  0  0  0  0  0  0
   12.2847   -1.2955   21.6686 Cl  0  0  0  0  0  0  0  0  0  0  0  0
   11.6029   -2.1805   24.1112 C   0  0  0  0  0  0  0  0  0  0  0  0
   10.6937   -2.4608   25.1086 C   0  0  0  0  0  0  0  0  0  0  0  0
    9.3643   -2.2128   24.9150 C   0  0  0  0  0  0  0  0  0  0  0  0
    8.4105   -2.5142   25.9809 C   0  0  0  0  0  0  0  0  0  0  0  0
    8.7385   -2.9976   27.0887 O   0  0  0  0  0  0  0  0  0  0  0  0
    6.2184   -0.2394   20.2696 C   0  0  0  0  0  0  0  0  0  0  0  0
    6.8607   -0.2705   19.0373 C   0  0  0  0  0  0  0  0  0  0  0  0
    6.3698    0.3972   17.9711 N   0  0  0  0  0  0  0  0  0  0  0  0
    5.2256    1.1303   18.0527 C   0  0  0  0  0  0  0  0  0  0  0  0
    4.5459    1.1927   19.2641 C   0  0  0  0  0  0  0  0  0  0  0  0
    3.3722    1.9414   19.3576 C   0  0  0  0  0  0  0  0  0  0  0  0
    2.7045    1.9937   20.5760 C   0  0  0  0  0  0  0  0  0  0  0  0
    3.2037    1.3109   21.6722 C   0  0  0  0  0  0  0  0  0  0  0  0
    4.3764    0.5791   21.5277 C   0  0  0  0  0  0  0  0  0  0  0  0
    5.0608    0.5077   20.3348 C   0  0  0  0  0  0  0  0  0  0  0  0
    5.9930   -3.0541   26.3578 C   0  0  0  0  0  0  0  0  0  0  0  0
    6.9352   -7.1801   23.8045 C   0  0  0  0  0  0  0  0  0  0  0  0
    6.2605   -6.0637   24.4651 N   0  0  0  0  0  0  0  0  0  0  0  0
    4.9265   -5.9335   24.4514 C   0  0  0  0  0  0  0  0  0  0  0  0
    4.6254   -4.7878   25.1575 C   0  0  0  0  0  0  0  0  0  0  0  0
    5.8562   -4.2813   25.5683 C   0  0  0  0  0  0  0  0  0  0  0  0
    6.8387   -5.0861   25.1280 N   0  0  0  0  0  0  0  0  0  0  0  0
 29 30  1  0  0  0
 30 31  1  0  0  0
 31 32  2  0  0  0
 32 33  1  0  0  0
 33 28  1  0  0  0
 33 34  2  0  0  0
 28  1  1  0  0  0
  1  2  1  0  0  0
  3  2  1  0  0  0
  3  4  1  0  0  0
  3  9  1  0  0  0
  4  5  1  0  0  0
  5  6  1  0  0  0
  6 18  1  0  0  0
  6  7  1  0  0  0
 18 19  2  0  0  0
 19 20  1  0  0  0
 20 21  2  0  0  0
 21 22  1  0  0  0
 22 23  2  0  0  0
 23 24  1  0  0  0
 24 25  2  0  0  0
 25 26  1  0  0  0
 26 27  2  0  0  0
 27 18  1  0  0  0
 27 22  1  0  0  0
  7  8  2  0  0  0
  7  3  1  0  0  0
  9 10  2  0  0  0
 10 11  1  0  0  0
 11 12  1  0  0  0
 11 13  2  0  0  0
 13 14  1  0  0  0
 14 15  2  0  0  0
 15 16  1  0  0  0
 15  9  1  0  0  0
 16 17  2  0  0  0
 16  1  1  0  0  0
 34 30  1  0  0  0
M  END
> <minimizedAffinity>
-7.96214

> <CNNscore>
0.3850743771

> <CNNaffinity>
6.6047105789

> <CNN_VS>
2.5433049202

> <CNNaffinity_variance>
0.0918982401
$$$$



24 26  0  0  0  0  0  0  0  0999 V2000
    8.2220   -2.3450   26.6687 O   0  0  0  0  0  0  0  0  0  0  0  0
    7.8355   -3.3501   25.9950 C   0  0  0  0  0  0  0  0  0  0  0  0
    6.4425   -3.7030   25.9082 N   0  0  0  0  0  0  0  0  0  0  0  0
    6.2052   -4.8597   25.1036 C   0  0  0  0  0  0  0  0  0  0  0  0
    4.8170   -5.0729   24.6184 C   0  0  0  0  0  0  0  0  0  0  0  0
    3.8310   -5.5195   25.6495 C   0  0  0  0  0  0  0  0  0  0  0  0
    3.1741   -4.0940   26.5259 S   0  0  0  0  0  0  0  0  0  0  0  0
    4.2020   -2.6531   26.1081 C   0  0  0  0  0  0  0  0  0  0  0  0
    5.5947   -2.8112   26.6565 C   0  0  0  0  0  0  0  0  0  0  0  0
    5.5106   -3.2379   28.1106 C   0  0  0  0  0  0  0  0  0  0  0  0
    6.4966   -2.5666   28.8029 F   0  0  0  0  0  0  0  0  0  0  0  0
    5.5783   -4.5883   28.2872 F   0  0  0  0  0  0  0  0  0  0  0  0
    4.3069   -2.7633   28.6377 F   0  0  0  0  0  0  0  0  0  0  0  0
    8.8998   -4.1245   25.3144 C   0  0  0  0  0  0  0  0  0  0  0  0
    9.6955   -3.1861   24.4775 C   0  0  0  0  0  0  0  0  0  0  0  0
    9.1813   -2.6600   23.3007 C   0  0  0  0  0  0  0  0  0  0  0  0
    9.8680   -1.8094   22.5198 N   0  0  0  0  0  0  0  0  0  0  0  0
   11.1154   -1.4583   22.9095 C   0  0  0  0  0  0  0  0  0  0  0  0
   11.6625   -1.9624   24.0770 C   0  0  0  0  0  0  0  0  0  0  0  0
   12.9465   -1.5602   24.4164 C   0  0  0  0  0  0  0  0  0  0  0  0
   13.5159   -2.0434   25.5688 C   0  0  0  0  0  0  0  0  0  0  0  0
   12.8326   -2.9214   26.3935 C   0  0  0  0  0  0  0  0  0  0  0  0
   11.5518   -3.3121   26.0391 C   0  0  0  0  0  0  0  0  0  0  0  0
   10.9463   -2.8485   24.8896 C   0  0  0  0  0  0  0  0  0  0  0  0
  1  2  2  0  0  0
  2 14  1  0  0  0
  2  3  1  0  0  0
 14 15  1  0  0  0
 15 16  2  0  0  0
 16 17  1  0  0  0
 17 18  2  0  0  0
 18 19  1  0  0  0
 19 20  2  0  0  0
 20 21  1  0  0  0
 21 22  2  0  0  0
 22 23  1  0  0  0
 23 24  2  0  0  0
 24 15  1  0  0  0
 24 19  1  0  0  0
  3  4  1  0  0  0
  4  5  1  0  0  0
  5  6  1  0  0  0
  6  7  1  0  0  0
  7  8  1  0  0  0
  8  9  1  0  0  0
  9 10  1  0  0  0
  9  3  1  0  0  0
 10 11  1  0  0  0
 10 12  1  0  0  0
 10 13  1  0  0  0
M  END
> <minimizedAffinity>
-6.34159

> <CNNscore>
0.6453031301

> <CNNaffinity>
5.8066835403

> <CNN_VS>
3.7470710278

> <CNNaffinity_variance>
0.2588108480
$$$$



42 47  0  0  0  0  0  0  0  0999 V2000
    5.6859   -0.6321   20.9323 N   0  0  0  0  0  0  0  0  0  0  0  0
    6.9936   -1.0747   21.3783 C   0  0  0  0  0  0  0  0  0  0  0  0
    7.1374   -1.1983   22.8545 C   0  0  0  0  0  0  0  0  0  0  0  0
    8.5485   -0.7532   23.1651 C   0  0  0  0  0  0  0  0  0  0  0  0
    8.8818    0.4357   23.2741 O   0  0  0  0  0  0  0  0  0  0  0  0
    9.3797   -1.9011   23.3016 N   0  0  0  0  0  0  0  0  0  0  0  0
    8.5883   -3.0236   22.8271 C   0  0  0  0  0  0  0  0  0  0  0  0
    7.2142   -2.6186   23.3214 C   0  0  0  0  0  0  0  0  0  0  0  0
    6.2633   -0.3401   23.6474 C   0  0  0  0  0  0  0  0  0  0  0  0
    6.5422   -0.1883   24.9964 C   0  0  0  0  0  0  0  0  0  0  0  0
    5.7397    0.6129   25.7771 C   0  0  0  0  0  0  0  0  0  0  0  0
    6.1606    0.7536   27.4799 Cl  0  0  0  0  0  0  0  0  0  0  0  0
    4.6435    1.2912   25.2761 C   0  0  0  0  0  0  0  0  0  0  0  0
    4.3628    1.1429   23.9350 C   0  0  0  0  0  0  0  0  0  0  0  0
    5.1660    0.3450   23.1692 C   0  0  0  0  0  0  0  0  0  0  0  0
    4.8476    0.2052   21.7522 C   0  0  0  0  0  0  0  0  0  0  0  0
    3.8565    0.8032   21.2412 O   0  0  0  0  0  0  0  0  0  0  0  0
   10.7038   -1.9675   23.7929 C   0  0  0  0  0  0  0  0  0  0  0  0
   11.7099   -1.3795   23.0886 C   0  0  0  0  0  0  0  0  0  0  0  0
   12.9892   -1.4291   23.5384 N   0  0  0  0  0  0  0  0  0  0  0  0
   13.2822   -2.0583   24.6842 C   0  0  0  0  0  0  0  0  0  0  0  0
   12.2822   -2.6741   25.4374 C   0  0  0  0  0  0  0  0  0  0  0  0
   12.6098   -3.3207   26.6226 C   0  0  0  0  0  0  0  0  0  0  0  0
   11.5784   -3.9130   27.3270 C   0  0  0  0  0  0  0  0  0  0  0  0
   10.2623   -3.8774   26.8901 C   0  0  0  0  0  0  0  0  0  0  0  0
    9.9674   -3.2282   25.7100 C   0  0  0  0  0  0  0  0  0  0  0  0
   10.9727   -2.6269   24.9829 C   0  0  0  0  0  0  0  0  0  0  0  0
    5.2052   -1.0487   19.6087 C   0  0  0  0  0  0  0  0  0  0  0  0
    5.1697    1.5275   16.8129 C   0  0  0  0  0  0  0  0  0  0  0  0
    4.6847    0.6071   17.8392 N   0  0  0  0  0  0  0  0  0  0  0  0
    5.6736   -0.1096   18.5627 C   0  0  0  0  0  0  0  0  0  0  0  0
    6.8978    0.0128   18.3619 O   0  0  0  0  0  0  0  0  0  0  0  0
    3.7239    0.4905   18.0192 H   0  0  0  0  0  0  0  0  0  0  0  0
    6.1280   -3.5239   22.9089 C   0  0  0  0  0  0  0  0  0  0  0  0
    6.0152   -4.5952   23.8963 N   0  0  0  0  0  0  0  0  0  0  0  0
    6.5255   -5.4245   23.7510 H   0  0  0  0  0  0  0  0  0  0  0  0
    5.2045   -4.4933   25.0526 C   0  0  0  0  0  0  0  0  0  0  0  0
    4.7441   -3.4859   25.8184 C   0  0  0  0  0  0  0  0  0  0  0  0
    3.9922   -3.8621   26.8369 N   0  0  0  0  0  0  0  0  0  0  0  0
    3.6607   -4.8777   27.1884 C   0  0  0  0  0  0  0  0  0  0  0  0
    2.8400   -5.6006   28.2645 C   0  0  0  0  0  0  0  0  0  0  0  0
    4.4893   -6.0181   25.8875 S   0  0  0  0  0  0  0  0  0  0  0  0
 29 30  1  0  0  0
 30 31  1  0  0  0
 30 33  1  0  0  0
 31 32  2  0  0  0
 31 28  1  0  0  0
 28  1  1  0  0  0
  1  2  1  0  0  0
  3  2  1  0  0  0
  3  4  1  0  0  0
  3  9  1  0  0  0
  4  5  2  0  0  0
  4  6  1  0  0  0
  6 18  1  0  0  0
  6  7  1  0  0  0
 18 19  2  0  0  0
 19 20  1  0  0  0
 20 21  2  0  0  0
 21 22  1  0  0  0
 22 23  2  0  0  0
 23 24  1  0  0  0
 24 25  2  0  0  0
 25 26  1  0  0  0
 26 27  2  0  0  0
 27 18  1  0  0  0
 27 22  1  0  0  0
  7  8  1  0  0  0
  8 34  1  0  0  0
  8  3  1  0  0  0
 34 35  1  0  0  0
 35 37  1  0  0  0
 35 36  1  0  0  0
 37 38  2  0  0  0
 38 39  1  0  0  0
 39 40  2  0  0  0
 40 41  1  0  0  0
 40 42  1  0  0  0
 42 37  1  0  0  0
  9 10  2  0  0  0
 10 11  1  0  0  0
 11 12  1  0  0  0
 11 13  2  0  0  0
 13 14  1  0  0  0
 14 15  2  0  0  0
 15 16  1  0  0  0
 15  9  1  0  0  0
 16 17  2  0  0  0
 16  1  1  0  0  0
M  END
> <minimizedAffinity>
-8.33767

> <CNNscore>
0.4225089848

> <CNNaffinity>
7.0112485886

> <CNN_VS>
2.9623155594

> <CNNaffinity_variance>
0.2538038790
$$$$



35 40  0  0  0  0  0  0  0  0999 V2000
    5.4634   -1.1509   24.3404 C   0  0  0  0  0  0  0  0  0  0  0  0
    6.6934   -1.8859   23.8871 C   0  0  0  0  0  0  0  0  0  0  0  0
    7.9662   -1.1718   24.1933 C   0  0  0  0  0  0  0  0  0  0  0  0
    8.9518   -2.2300   24.0826 N   0  0  0  0  0  0  0  0  0  0  0  0
    8.3221   -3.4872   24.2926 C   0  0  0  0  0  0  0  0  0  0  0  0
    8.8433   -4.6455   24.2254 O   0  0  0  0  0  0  0  0  0  0  0  0
    6.8775   -3.2021   24.6205 C   0  0  0  0  0  0  0  0  0  0  0  0
    6.7981   -3.0163   26.0905 C   0  0  0  0  0  0  0  0  0  0  0  0
    5.7016   -3.6456   26.7541 N   0  0  0  0  0  0  0  0  0  0  0  0
    4.8680   -4.6465   26.1833 C   0  0  0  0  0  0  0  0  0  0  0  0
    4.0294   -5.2322   26.8895 O   0  0  0  0  0  0  0  0  0  0  0  0
    5.0460   -4.9364   24.7749 C   0  0  0  0  0  0  0  0  0  0  0  0
    4.2339   -5.9093   24.2213 C   0  0  0  0  0  0  0  0  0  0  0  0
    4.3725   -6.2142   22.8807 C   0  0  0  0  0  0  0  0  0  0  0  0
    5.3224   -5.5284   22.1499 C   0  0  0  0  0  0  0  0  0  0  0  0
    5.4261   -5.8594   20.8326 F   0  0  0  0  0  0  0  0  0  0  0  0
    6.1337   -4.5489   22.7248 C   0  0  0  0  0  0  0  0  0  0  0  0
    5.9957   -4.2447   24.0614 C   0  0  0  0  0  0  0  0  0  0  0  0
   10.3307   -2.0117   23.8061 C   0  0  0  0  0  0  0  0  0  0  0  0
   10.6192   -1.5217   22.5292 C   0  0  0  0  0  0  0  0  0  0  0  0
   11.9084   -1.2792   22.1655 N   0  0  0  0  0  0  0  0  0  0  0  0
   12.9079   -1.5162   23.0499 C   0  0  0  0  0  0  0  0  0  0  0  0
   12.6253   -2.0002   24.3117 C   0  0  0  0  0  0  0  0  0  0  0  0
   13.6676   -2.2301   25.1865 C   0  0  0  0  0  0  0  0  0  0  0  0
   13.3872   -2.7171   26.4566 C   0  0  0  0  0  0  0  0  0  0  0  0
   12.0738   -2.9667   26.8339 C   0  0  0  0  0  0  0  0  0  0  0  0
   11.0114   -2.7417   25.9683 C   0  0  0  0  0  0  0  0  0  0  0  0
   11.3346   -2.2586   24.7186 C   0  0  0  0  0  0  0  0  0  0  0  0
    5.4104   -3.2328   28.1240 C   0  0  0  0  0  0  0  0  0  0  0  0
    4.8651   -1.8425   28.1512 C   0  0  0  0  0  0  0  0  0  0  0  0
    3.6080   -1.6456   27.5685 C   0  0  0  0  0  0  0  0  0  0  0  0
    3.0725   -0.3726   27.5752 C   0  0  0  0  0  0  0  0  0  0  0  0
    3.7477    0.6343   28.1265 N   0  0  0  0  0  0  0  0  0  0  0  0
    4.9523    0.4016   28.6755 C   0  0  0  0  0  0  0  0  0  0  0  0
    5.5258   -0.8106   28.7008 N   0  0  0  0  0  0  0  0  0  0  0  0
  2  1  1  0  0  0
  2  3  1  0  0  0
  3  4  1  0  0  0
  4 19  1  0  0  0
  4  5  1  0  0  0
 19 20  2  0  0  0
 20 21  1  0  0  0
 21 22  2  0  0  0
 22 23  1  0  0  0
 23 24  2  0  0  0
 24 25  1  0  0  0
 25 26  2  0  0  0
 26 27  1  0  0  0
 27 28  2  0  0  0
 28 19  1  0  0  0
 28 23  1  0  0  0
  5  6  2  0  0  0
  7  5  1  0  0  0
  7  8  1  0  0  0
  7  2  1  0  0  0
  8  9  1  0  0  0
  9 29  1  0  0  0
  9 10  1  0  0  0
 29 30  1  0  0  0
 30 31  2  0  0  0
 31 32  1  0  0  0
 32 33  2  0  0  0
 33 34  1  0  0  0
 34 35  2  0  0  0
 35 30  1  0  0  0
 10 11  2  0  0  0
 10 12  1  0  0  0
 12 13  2  0  0  0
 13 14  1  0  0  0
 14 15  2  0  0  0
 15 16  1  0  0  0
 15 17  1  0  0  0
 17 18  2  0  0  0
 18 12  1  0  0  0
 18  7  1  0  0  0
M  END
> <minimizedAffinity>
-8.03829

> <CNNscore>
0.5122045875

> <CNNaffinity>
6.7207999229

> <CNN_VS>
3.4424245358

> <CNNaffinity_variance>
0.1524604708
$$$$



37 42  0  0  0  0  0  0  0  0999 V2000
    6.9726   -1.9228   22.0886 C   0  0  0  0  0  0  0  0  0  0  0  0
    8.1788   -1.0365   22.4478 C   0  0  0  0  0  0  0  0  0  0  0  0
    9.0627   -1.9534   23.1840 N   0  0  0  0  0  0  0  0  0  0  0  0
    8.1959   -2.9032   23.7909 C   0  0  0  0  0  0  0  0  0  0  0  0
    8.6008   -3.7993   24.5850 O   0  0  0  0  0  0  0  0  0  0  0  0
    6.7750   -2.6614   23.3391 C   0  0  0  0  0  0  0  0  0  0  0  0
    6.1381   -1.8966   24.4517 C   0  0  0  0  0  0  0  0  0  0  0  0
    6.2943   -2.6639   25.6729 N   0  0  0  0  0  0  0  0  0  0  0  0
    5.7186   -3.9789   25.6660 C   0  0  0  0  0  0  0  0  0  0  0  0
    5.2997   -4.4907   26.7332 O   0  0  0  0  0  0  0  0  0  0  0  0
    5.6638   -4.6445   24.3689 C   0  0  0  0  0  0  0  0  0  0  0  0
    5.0956   -5.8972   24.3284 C   0  0  0  0  0  0  0  0  0  0  0  0
    4.9840   -6.5880   23.1412 C   0  0  0  0  0  0  0  0  0  0  0  0
    5.4663   -5.9642   22.0107 C   0  0  0  0  0  0  0  0  0  0  0  0
    5.3301   -6.8321   20.4927 Cl  0  0  0  0  0  0  0  0  0  0  0  0
    6.0387   -4.7015   22.0557 C   0  0  0  0  0  0  0  0  0  0  0  0
    6.1568   -3.9933   23.2538 C   0  0  0  0  0  0  0  0  0  0  0  0
   10.4571   -1.8258   23.2131 C   0  0  0  0  0  0  0  0  0  0  0  0
   11.0972   -1.3887   22.0593 C   0  0  0  0  0  0  0  0  0  0  0  0
   12.4287   -1.2451   22.0215 N   0  0  0  0  0  0  0  0  0  0  0  0
   13.1957   -1.5178   23.0962 C   0  0  0  0  0  0  0  0  0  0  0  0
   12.6311   -1.9549   24.2732 C   0  0  0  0  0  0  0  0  0  0  0  0
   13.3551   -2.2443   25.3893 C   0  0  0  0  0  0  0  0  0  0  0  0
   12.7511   -2.6803   26.5539 C   0  0  0  0  0  0  0  0  0  0  0  0
   11.3794   -2.8334   26.6095 C   0  0  0  0  0  0  0  0  0  0  0  0
   10.6726   -2.5311   25.4584 C   0  0  0  0  0  0  0  0  0  0  0  0
   11.2595   -2.0981   24.2978 C   0  0  0  0  0  0  0  0  0  0  0  0
    5.8504   -1.0062   21.6941 C   0  0  0  0  0  0  0  0  0  0  0  0
    4.9428    0.1446   19.9057 C   0  0  0  0  0  0  0  0  0  0  0  0
    5.6015   -0.9894   20.3439 O   0  0  0  0  0  0  0  0  0  0  0  0
    6.9692   -2.1524   26.8292 C   0  0  0  0  0  0  0  0  0  0  0  0
    6.0005   -1.2890   27.5948 C   0  0  0  0  0  0  0  0  0  0  0  0
    5.9869    0.0716   27.6405 N   0  0  0  0  0  0  0  0  0  0  0  0
    4.9633    0.4592   28.4359 C   0  0  0  0  0  0  0  0  0  0  0  0
    4.3426   -0.6895   28.8823 C   0  0  0  0  0  0  0  0  0  0  0  0
    4.9861   -1.7450   28.3611 N   0  0  0  0  0  0  0  0  0  0  0  0
    4.7579   -2.6908   28.5116 H   0  0  0  0  0  0  0  0  0  0  0  0
 29 30  1  0  0  0
 30 28  1  0  0  0
  1 28  1  0  0  0
  1  2  1  0  0  0
  2  3  1  0  0  0
  3 18  1  0  0  0
  3  4  1  0  0  0
 18 19  2  0  0  0
 19 20  1  0  0  0
 20 21  2  0  0  0
 21 22  1  0  0  0
 22 23  2  0  0  0
 23 24  1  0  0  0
 24 25  2  0  0  0
 25 26  1  0  0  0
 26 27  2  0  0  0
 27 18  1  0  0  0
 27 22  1  0  0  0
  4  5  2  0  0  0
  6  4  1  0  0  0
  6  7  1  0  0  0
  6  1  1  0  0  0
  7  8  1  0  0  0
  8 31  1  0  0  0
  8  9  1  0  0  0
 31 32  1  0  0  0
 32 33  2  0  0  0
 33 34  1  0  0  0
 34 35  2  0  0  0
 35 36  1  0  0  0
 36 32  1  0  0  0
 36 37  1  0  0  0
  9 10  2  0  0  0
  9 11  1  0  0  0
 11 12  2  0  0  0
 12 13  1  0  0  0
 13 14  2  0  0  0
 14 15  1  0  0  0
 14 16  1  0  0  0
 16 17  2  0  0  0
 17 11  1  0  0  0
 17  6  1  0  0  0
M  END
> <minimizedAffinity>
-7.41334

> <CNNscore>
0.5338604450

> <CNNaffinity>
6.9362235069

> <CNN_VS>
3.7029752731

> <CNNaffinity_variance>
0.1088187695
$$$$



22 25  0  0  0  0  0  0  0  0999 V2000
    7.3147   -1.4271   24.3194 O   0  0  0  0  0  0  0  0  0  0  0  0
    8.4095   -1.3905   23.6624 C   0  0  0  0  0  0  0  0  0  0  0  0
    8.7988   -0.0916   23.2144 N   0  0  0  0  0  0  0  0  0  0  0  0
    7.8645    0.9931   23.5721 C   0  0  0  0  0  0  0  0  0  0  0  0
    8.0176    2.0566   22.4620 C   0  0  0  0  0  0  0  0  0  0  0  0
    9.4526    2.5288   22.7026 C   0  0  0  0  0  0  0  0  0  0  0  0
   10.1494    4.0802   22.9968 S   0  0  0  0  0  0  0  0  0  0  0  0
   11.8762    3.3830   23.1455 C   0  0  0  0  0  0  0  0  0  0  0  0
   11.7120    2.0257   22.9489 C   0  0  0  0  0  0  0  0  0  0  0  0
   10.4762    1.5760   22.7213 C   0  0  0  0  0  0  0  0  0  0  0  0
   10.0058    0.1630   22.4639 C   0  0  0  0  0  0  0  0  0  0  0  0
    9.1763   -2.6192   23.4079 C   0  0  0  0  0  0  0  0  0  0  0  0
    9.7968   -3.0697   24.6782 C   0  0  0  0  0  0  0  0  0  0  0  0
    9.1645   -3.8328   25.6223 C   0  0  0  0  0  0  0  0  0  0  0  0
    9.7487   -4.2358   26.7763 N   0  0  0  0  0  0  0  0  0  0  0  0
   11.0128   -3.8805   27.0289 C   0  0  0  0  0  0  0  0  0  0  0  0
   11.7289   -3.1099   26.1287 C   0  0  0  0  0  0  0  0  0  0  0  0
   13.0217   -2.7957   26.4666 C   0  0  0  0  0  0  0  0  0  0  0  0
   13.7439   -2.0356   25.5823 C   0  0  0  0  0  0  0  0  0  0  0  0
   13.1674   -1.6134   24.3978 C   0  0  0  0  0  0  0  0  0  0  0  0
   11.8591   -1.9379   24.0673 C   0  0  0  0  0  0  0  0  0  0  0  0
   11.1140   -2.7091   24.9575 C   0  0  0  0  0  0  0  0  0  0  0  0
  1  2  2  0  0  0
  2 12  1  0  0  0
  2  3  1  0  0  0
 12 13  1  0  0  0
 13 14  2  0  0  0
 14 15  1  0  0  0
 15 16  2  0  0  0
 16 17  1  0  0  0
 17 18  2  0  0  0
 18 19  1  0  0  0
 19 20  2  0  0  0
 20 21  1  0  0  0
 21 22  2  0  0  0
 22 13  1  0  0  0
 22 17  1  0  0  0
  3  4  1  0  0  0
  4  5  1  0  0  0
  5  6  1  0  0  0
  6  7  1  0  0  0
  7  8  1  0  0  0
  8  9  2  0  0  0
  9 10  1  0  0  0
 10 11  1  0  0  0
 10  6  2  0  0  0
 11  3  1  0  0  0
M  END
> <minimizedAffinity>
-7.15142

> <CNNscore>
0.7597123981

> <CNNaffinity>
5.7355041504

> <CNN_VS>
4.3573336601

> <CNNaffinity_variance>
0.1422487646
$$$$



42 48  0  0  0  0  0  0  0  0999 V2000
    3.6029   -0.6057   26.4321 O   0  0  0  0  0  0  0  0  0  0  0  0
    4.5181   -0.7806   25.6156 C   0  0  0  0  0  0  0  0  0  0  0  0
    4.9980   -2.1146   25.2666 C   0  0  0  0  0  0  0  0  0  0  0  0
    4.3754   -3.1788   25.8936 C   0  0  0  0  0  0  0  0  0  0  0  0
    4.7647   -4.4776   25.6210 C   0  0  0  0  0  0  0  0  0  0  0  0
    5.7755   -4.6623   24.7192 C   0  0  0  0  0  0  0  0  0  0  0  0
    6.2767   -6.2987   24.3659 Cl  0  0  0  0  0  0  0  0  0  0  0  0
    6.3979   -3.5896   24.0918 C   0  0  0  0  0  0  0  0  0  0  0  0
    6.0244   -2.2865   24.3501 C   0  0  0  0  0  0  0  0  0  0  0  0
    6.6670   -1.1249   23.7016 C   0  0  0  0  0  0  0  0  0  0  0  0
    5.7622    0.0886   23.6840 C   0  0  0  0  0  0  0  0  0  0  0  0
    5.1480    0.3227   24.9760 N   0  0  0  0  0  0  0  0  0  0  0  0
    7.8898   -0.8240   24.4934 C   0  0  0  0  0  0  0  0  0  0  0  0
    7.9205   -0.2703   25.6268 O   0  0  0  0  0  0  0  0  0  0  0  0
    9.0554   -1.2436   23.8082 N   0  0  0  0  0  0  0  0  0  0  0  0
    8.6827   -1.6915   22.4797 C   0  0  0  0  0  0  0  0  0  0  0  0
    7.2257   -1.4097   22.3395 C   0  0  0  0  0  0  0  0  0  0  0  0
   10.3990   -1.2529   24.2791 C   0  0  0  0  0  0  0  0  0  0  0  0
   11.2601   -0.2391   23.8941 C   0  0  0  0  0  0  0  0  0  0  0  0
   12.5457   -0.1845   24.3019 N   0  0  0  0  0  0  0  0  0  0  0  0
   13.0315   -1.1425   25.1150 C   0  0  0  0  0  0  0  0  0  0  0  0
   12.2198   -2.1949   25.5430 C   0  0  0  0  0  0  0  0  0  0  0  0
   12.7423   -3.1648   26.3767 C   0  0  0  0  0  0  0  0  0  0  0  0
   11.9004   -4.1915   26.7771 C   0  0  0  0  0  0  0  0  0  0  0  0
   10.5836   -4.2387   26.3537 C   0  0  0  0  0  0  0  0  0  0  0  0
   10.0999   -3.2532   25.5228 C   0  0  0  0  0  0  0  0  0  0  0  0
   10.9024   -2.2298   25.1110 C   0  0  0  0  0  0  0  0  0  0  0  0
    5.1735    1.6352   25.5926 C   0  0  0  0  0  0  0  0  0  0  0  0
    5.1533    1.5691   27.0671 C   0  0  0  0  0  0  0  0  0  0  0  0
    4.0051    1.9987   27.7451 C   0  0  0  0  0  0  0  0  0  0  0  0
    3.9185    1.9679   29.1205 C   0  0  0  0  0  0  0  0  0  0  0  0
    4.9831    1.5062   29.8153 N   0  0  0  0  0  0  0  0  0  0  0  0
    6.0827    1.0928   29.2094 N   0  0  0  0  0  0  0  0  0  0  0  0
    6.1795    1.1189   27.8476 C   0  0  0  0  0  0  0  0  0  0  0  0
    7.1175   -0.1612   21.4570 C   0  0  0  0  0  0  0  0  0  0  0  0
    7.4430   -0.4895   20.0858 N   0  0  0  0  0  0  0  0  0  0  0  0
    8.2628   -0.9801   19.8477 H   0  0  0  0  0  0  0  0  0  0  0  0
    6.5020   -0.0586   19.0950 C   0  0  0  0  0  0  0  0  0  0  0  0
    6.2469   -0.1327   17.9627 N   0  0  0  0  0  0  0  0  0  0  0  0
    5.2758    0.3892   17.2907 N   0  0  0  0  0  0  0  0  0  0  0  0
    4.4192    1.1254   17.9463 C   0  0  0  0  0  0  0  0  0  0  0  0
    5.0904    1.0522   19.7118 S   0  0  0  0  0  0  0  0  0  0  0  0
  1  2  2  0  0  0
  2  3  1  0  0  0
  3  4  2  0  0  0
  4  5  1  0  0  0
  5  6  2  0  0  0
  6  7  1  0  0  0
  6  8  1  0  0  0
  8  9  2  0  0  0
  9  3  1  0  0  0
 10  9  1  0  0  0
 10 11  1  0  0  0
 10 13  1  0  0  0
 11 12  1  0  0  0
 12 28  1  0  0  0
 12  2  1  0  0  0
 28 29  1  0  0  0
 29 30  2  0  0  0
 30 31  1  0  0  0
 31 32  2  0  0  0
 32 33  1  0  0  0
 33 34  2  0  0  0
 34 29  1  0  0  0
 13 14  2  0  0  0
 13 15  1  0  0  0
 15 18  1  0  0  0
 15 16  1  0  0  0
 18 19  2  0  0  0
 19 20  1  0  0  0
 20 21  2  0  0  0
 21 22  1  0  0  0
 22 23  2  0  0  0
 23 24  1  0  0  0
 24 25  2  0  0  0
 25 26  1  0  0  0
 26 27  2  0  0  0
 27 18  1  0  0  0
 27 22  1  0  0  0
 16 17  1  0  0  0
 17 35  1  0  0  0
 17 10  1  0  0  0
 35 36  1  0  0  0
 36 38  1  0  0  0
 36 37  1  0  0  0
 38 39  2  0  0  0
 39 40  1  0  0  0
 40 41  2  0  0  0
 41 42  1  0  0  0
 42 38  1  0  0  0
M  END
> <minimizedAffinity>
-8.45912

> <CNNscore>
0.4310176373

> <CNNaffinity>
7.1568098068

> <CNN_VS>
3.0847113132

> <CNNaffinity_variance>
0.0987911373
$$$$



39 45  0  0  0  0  0  0  0  0999 V2000
    5.6626   -2.7248   22.8155 C   0  0  0  0  0  0  0  0  0  0  0  0
    6.7863   -2.1568   23.6226 C   0  0  0  0  0  0  0  0  0  0  0  0
    7.9053   -1.6036   22.7509 C   0  0  0  0  0  0  0  0  0  0  0  0
    8.6839   -0.8915   23.7418 N   0  0  0  0  0  0  0  0  0  0  0  0
    7.7860   -0.4368   24.7489 C   0  0  0  0  0  0  0  0  0  0  0  0
    8.0670    0.2438   25.7778 O   0  0  0  0  0  0  0  0  0  0  0  0
    6.3980   -0.9105   24.3842 C   0  0  0  0  0  0  0  0  0  0  0  0
    5.8228    0.0944   23.4575 C   0  0  0  0  0  0  0  0  0  0  0  0
    4.6025    0.7305   23.8922 N   0  0  0  0  0  0  0  0  0  0  0  0
    3.9275    0.4305   25.1034 C   0  0  0  0  0  0  0  0  0  0  0  0
    2.8581    0.9991   25.4330 O   0  0  0  0  0  0  0  0  0  0  0  0
    4.4885   -0.5703   26.0004 C   0  0  0  0  0  0  0  0  0  0  0  0
    3.8291   -0.8551   27.1710 C   0  0  0  0  0  0  0  0  0  0  0  0
    4.3384   -1.7998   28.0397 C   0  0  0  0  0  0  0  0  0  0  0  0
    5.5176   -2.4199   27.6661 C   0  0  0  0  0  0  0  0  0  0  0  0
    6.1834   -3.6286   28.7622 Cl  0  0  0  0  0  0  0  0  0  0  0  0
    6.1751   -2.1264   26.4845 C   0  0  0  0  0  0  0  0  0  0  0  0
    5.6640   -1.1793   25.6137 C   0  0  0  0  0  0  0  0  0  0  0  0
   10.0708   -0.6581   23.7630 C   0  0  0  0  0  0  0  0  0  0  0  0
   10.6267    0.3370   22.9513 C   0  0  0  0  0  0  0  0  0  0  0  0
   11.9496    0.5894   22.9440 N   0  0  0  0  0  0  0  0  0  0  0  0
   12.8125   -0.1007   23.7167 C   0  0  0  0  0  0  0  0  0  0  0  0
   12.3281   -1.0980   24.5423 C   0  0  0  0  0  0  0  0  0  0  0  0
   13.2086   -1.8252   25.3515 C   0  0  0  0  0  0  0  0  0  0  0  0
   12.7048   -2.8295   26.1802 C   0  0  0  0  0  0  0  0  0  0  0  0
   11.3342   -3.0940   26.1905 C   0  0  0  0  0  0  0  0  0  0  0  0
   10.4961   -2.3442   25.3678 C   0  0  0  0  0  0  0  0  0  0  0  0
   10.9684   -1.3546   24.5473 C   0  0  0  0  0  0  0  0  0  0  0  0
    4.0225    1.7416   23.0407 C   0  0  0  0  0  0  0  0  0  0  0  0
    5.0930    2.4764   22.2420 C   0  0  0  0  0  0  0  0  0  0  0  0
    4.9187    2.2142   20.8289 N   0  0  0  0  0  0  0  0  0  0  0  0
    3.6563    1.6120   20.4954 C   0  0  0  0  0  0  0  0  0  0  0  0
    3.9181    1.2172   19.0354 C   0  0  0  0  0  0  0  0  0  0  0  0
    5.3080    0.6346   19.1714 C   0  0  0  0  0  0  0  0  0  0  0  0
    5.3261   -0.8768   19.0943 C   0  0  0  0  0  0  0  0  0  0  0  0
    6.3884   -0.7602   18.1948 O   0  0  0  0  0  0  0  0  0  0  0  0
    6.1510    0.6096   17.9387 C   0  0  0  0  0  0  0  0  0  0  0  0
    5.9047    1.2233   20.4112 C   0  0  0  0  0  0  0  0  0  0  0  0
    4.9999    3.1239   20.3746 H   0  0  0  0  0  0  0  0  0  0  0  0
  2  1  1  0  0  0
  2  3  1  0  0  0
  3  4  1  0  0  0
  4 19  1  0  0  0
  4  5  1  0  0  0
 19 20  2  0  0  0
 20 21  1  0  0  0
 21 22  2  0  0  0
 22 23  1  0  0  0
 23 24  2  0  0  0
 24 25  1  0  0  0
 25 26  2  0  0  0
 26 27  1  0  0  0
 27 28  2  0  0  0
 28 19  1  0  0  0
 28 23  1  0  0  0
  5  6  2  0  0  0
  7  5  1  0  0  0
  7  8  1  0  0  0
  7  2  1  0  0  0
  8  9  1  0  0  0
  9 29  1  0  0  0
  9 10  1  0  0  0
 29 30  1  0  0  0
 31 30  1  0  0  0
 31 32  1  0  0  0
 31 39  1  0  0  0
 32 33  1  0  0  0
 33 34  1  0  0  0
 34 35  1  0  0  0
 34 38  1  0  0  0
 35 36  1  0  0  0
 36 37  1  0  0  0
 37 34  1  0  0  0
 38 31  1  0  0  0
 10 11  2  0  0  0
 10 12  1  0  0  0
 12 13  2  0  0  0
 13 14  1  0  0  0
 14 15  2  0  0  0
 15 16  1  0  0  0
 15 17  1  0  0  0
 17 18  2  0  0  0
 18 12  1  0  0  0
 18  7  1  0  0  0
M  CHG 1  31   1
M  END
> <minimizedAffinity>
-8.30900

> <CNNscore>
0.2458978146

> <CNNaffinity>
6.3527569771

> <CNN_VS>
1.5621290207

> <CNNaffinity_variance>
0.2256811559
$$$$



34 39  0  0  0  0  0  0  0  0999 V2000
    4.9860   -3.6222   27.8399 N   0  0  0  0  0  0  0  0  0  0  0  0
    6.3984   -3.4208   27.5504 C   0  0  0  0  0  0  0  0  0  0  0  0
    6.5423   -3.2774   26.0621 C   0  0  0  0  0  0  0  0  0  0  0  0
    6.1323   -1.9258   25.5665 C   0  0  0  0  0  0  0  0  0  0  0  0
    7.4141   -1.1282   25.6613 C   0  0  0  0  0  0  0  0  0  0  0  0
    8.3592   -2.0853   25.0704 N   0  0  0  0  0  0  0  0  0  0  0  0
    7.9864   -3.3391   25.6494 C   0  0  0  0  0  0  0  0  0  0  0  0
    8.7736   -4.3326   25.7816 O   0  0  0  0  0  0  0  0  0  0  0  0
    5.8733   -4.3834   25.3359 C   0  0  0  0  0  0  0  0  0  0  0  0
    6.3377   -4.7491   24.0763 C   0  0  0  0  0  0  0  0  0  0  0  0
    5.7665   -5.7616   23.3499 C   0  0  0  0  0  0  0  0  0  0  0  0
    6.4071   -6.1657   21.7684 Cl  0  0  0  0  0  0  0  0  0  0  0  0
    4.6918   -6.4411   23.8904 C   0  0  0  0  0  0  0  0  0  0  0  0
    4.2037   -6.0999   25.1473 C   0  0  0  0  0  0  0  0  0  0  0  0
    4.7982   -5.0858   25.8414 C   0  0  0  0  0  0  0  0  0  0  0  0
    4.3161   -4.6884   27.1768 C   0  0  0  0  0  0  0  0  0  0  0  0
    3.3435   -5.2678   27.7213 O   0  0  0  0  0  0  0  0  0  0  0  0
    9.4020   -1.8274   24.1397 C   0  0  0  0  0  0  0  0  0  0  0  0
    9.0235   -1.6701   22.8136 C   0  0  0  0  0  0  0  0  0  0  0  0
    9.9348   -1.4233   21.8573 N   0  0  0  0  0  0  0  0  0  0  0  0
   11.2440   -1.3225   22.1659 C   0  0  0  0  0  0  0  0  0  0  0  0
   11.6471   -1.4777   23.4963 C   0  0  0  0  0  0  0  0  0  0  0  0
   12.9882   -1.3718   23.7963 C   0  0  0  0  0  0  0  0  0  0  0  0
   13.3878   -1.5260   25.1175 C   0  0  0  0  0  0  0  0  0  0  0  0
   12.4515   -1.7789   26.0952 C   0  0  0  0  0  0  0  0  0  0  0  0
   11.0897   -1.8897   25.8133 C   0  0  0  0  0  0  0  0  0  0  0  0
   10.7314   -1.7315   24.4962 C   0  0  0  0  0  0  0  0  0  0  0  0
    4.2478   -2.7858   28.7680 C   0  0  0  0  0  0  0  0  0  0  0  0
    3.5891    1.7497   26.7381 C   0  0  0  0  0  0  0  0  0  0  0  0
    4.0828    0.6639   27.5705 N   0  0  0  0  0  0  0  0  0  0  0  0
    5.0431    0.8090   28.5178 C   0  0  0  0  0  0  0  0  0  0  0  0
    5.2197   -0.4300   29.0688 C   0  0  0  0  0  0  0  0  0  0  0  0
    4.3581   -1.3375   28.4506 C   0  0  0  0  0  0  0  0  0  0  0  0
    3.6923   -0.6036   27.5452 N   0  0  0  0  0  0  0  0  0  0  0  0
 29 30  1  0  0  0
 30 31  1  0  0  0
 31 32  2  0  0  0
 32 33  1  0  0  0
 33 28  1  0  0  0
 33 34  2  0  0  0
 28  1  1  0  0  0
  1  2  1  0  0  0
  3  2  1  0  0  0
  3  4  1  0  0  0
  3  9  1  0  0  0
  4  5  1  0  0  0
  5  6  1  0  0  0
  6 18  1  0  0  0
  6  7  1  0  0  0
 18 19  2  0  0  0
 19 20  1  0  0  0
 20 21  2  0  0  0
 21 22  1  0  0  0
 22 23  2  0  0  0
 23 24  1  0  0  0
 24 25  2  0  0  0
 25 26  1  0  0  0
 26 27  2  0  0  0
 27 18  1  0  0  0
 27 22  1  0  0  0
  7  8  2  0  0  0
  7  3  1  0  0  0
  9 10  2  0  0  0
 10 11  1  0  0  0
 11 12  1  0  0  0
 11 13  2  0  0  0
 13 14  1  0  0  0
 14 15  2  0  0  0
 15 16  1  0  0  0
 15  9  1  0  0  0
 16 17  2  0  0  0
 16  1  1  0  0  0
 34 30  1  0  0  0
M  END
> <minimizedAffinity>
-7.27109

> <CNNscore>
0.4454735219

> <CNNaffinity>
6.5581002235

> <CNN_VS>
2.9214599133

> <CNNaffinity_variance>
0.2125755250
$$$$



37 42  0  0  0  0  0  0  0  0999 V2000
    6.3607   -1.8182   21.6256 C   0  0  0  0  0  0  0  0  0  0  0  0
    7.0422   -1.6950   22.9716 C   0  0  0  0  0  0  0  0  0  0  0  0
    8.5084   -2.0026   22.8810 C   0  0  0  0  0  0  0  0  0  0  0  0
    9.1783   -0.9848   23.6643 N   0  0  0  0  0  0  0  0  0  0  0  0
    8.3137    0.1406   23.7519 C   0  0  0  0  0  0  0  0  0  0  0  0
    8.7311    1.3051   23.9409 O   0  0  0  0  0  0  0  0  0  0  0  0
    6.8975   -0.3363   23.5812 C   0  0  0  0  0  0  0  0  0  0  0  0
    6.1235    0.6256   22.7491 C   0  0  0  0  0  0  0  0  0  0  0  0
    5.3840    1.6261   23.4834 N   0  0  0  0  0  0  0  0  0  0  0  0
    4.8901    1.4274   24.8038 C   0  0  0  0  0  0  0  0  0  0  0  0
    4.0212    2.2029   25.3131 O   0  0  0  0  0  0  0  0  0  0  0  0
    5.4334    0.2885   25.5397 C   0  0  0  0  0  0  0  0  0  0  0  0
    4.9649    0.0831   26.8203 C   0  0  0  0  0  0  0  0  0  0  0  0
    5.4348   -0.9720   27.5706 C   0  0  0  0  0  0  0  0  0  0  0  0
    6.3777   -1.7970   26.9912 C   0  0  0  0  0  0  0  0  0  0  0  0
    6.9562   -3.1364   27.9807 Cl  0  0  0  0  0  0  0  0  0  0  0  0
    6.8514   -1.5919   25.7001 C   0  0  0  0  0  0  0  0  0  0  0  0
    6.3759   -0.5337   24.9562 C   0  0  0  0  0  0  0  0  0  0  0  0
   10.4719   -1.1199   24.2300 C   0  0  0  0  0  0  0  0  0  0  0  0
   11.5034   -0.2484   24.0304 C   0  0  0  0  0  0  0  0  0  0  0  0
   12.7042   -0.4900   24.6333 N   0  0  0  0  0  0  0  0  0  0  0  0
   12.8898   -1.5714   25.4207 C   0  0  0  0  0  0  0  0  0  0  0  0
   11.8795   -2.4799   25.6527 C   0  0  0  0  0  0  0  0  0  0  0  0
   12.0836   -3.5768   26.4572 C   0  0  0  0  0  0  0  0  0  0  0  0
   11.0574   -4.4874   26.6848 C   0  0  0  0  0  0  0  0  0  0  0  0
    9.8386   -4.2304   26.0649 C   0  0  0  0  0  0  0  0  0  0  0  0
    9.6415   -3.1351   25.2639 C   0  0  0  0  0  0  0  0  0  0  0  0
   10.6657   -2.2393   25.0456 C   0  0  0  0  0  0  0  0  0  0  0  0
    5.1151    2.9139   22.8634 C   0  0  0  0  0  0  0  0  0  0  0  0
    6.2085    3.1490   21.8640 C   0  0  0  0  0  0  0  0  0  0  0  0
    6.6815    4.5089   21.8347 N   0  0  0  0  0  0  0  0  0  0  0  0
    5.6775    5.4488   21.3962 C   0  0  0  0  0  0  0  0  0  0  0  0
    6.3698    6.7938   21.2709 C   0  0  0  0  0  0  0  0  0  0  0  0
    6.8063    7.1947   22.5432 O   0  0  0  0  0  0  0  0  0  0  0  0
    7.8023    6.3135   22.9373 C   0  0  0  0  0  0  0  0  0  0  0  0
    7.2836    4.8976   23.0879 C   0  0  0  0  0  0  0  0  0  0  0  0
    7.4157    4.5379   21.1273 H   0  0  0  0  0  0  0  0  0  0  0  0
  2  1  1  0  0  0
  2  3  1  0  0  0
  3  4  1  0  0  0
  4 19  1  0  0  0
  4  5  1  0  0  0
 19 20  2  0  0  0
 20 21  1  0  0  0
 21 22  2  0  0  0
 22 23  1  0  0  0
 23 24  2  0  0  0
 24 25  1  0  0  0
 25 26  2  0  0  0
 26 27  1  0  0  0
 27 28  2  0  0  0
 28 19  1  0  0  0
 28 23  1  0  0  0
  5  6  2  0  0  0
  7  5  1  0  0  0
  7  8  1  0  0  0
  7  2  1  0  0  0
  8  9  1  0  0  0
  9 29  1  0  0  0
  9 10  1  0  0  0
 29 30  1  0  0  0
 30 31  1  0  0  0
 31 32  1  0  0  0
 31 37  1  0  0  0
 32 33  1  0  0  0
 33 34  1  0  0  0
 34 35  1  0  0  0
 35 36  1  0  0  0
 36 31  1  0  0  0
 10 11  2  0  0  0
 10 12  1  0  0  0
 12 13  2  0  0  0
 13 14  1  0  0  0
 14 15  2  0  0  0
 15 16  1  0  0  0
 15 17  1  0  0  0
 17 18  2  0  0  0
 18 12  1  0  0  0
 18  7  1  0  0  0
M  CHG 1  31   1
M  END
> <minimizedAffinity>
-7.97672

> <CNNscore>
0.4927417338

> <CNNaffinity>
6.5568265915

> <CNN_VS>
3.2308220863

> <CNNaffinity_variance>
0.0942286104
$$$$



35 40  0  0  0  0  0  0  0  0999 V2000
    4.0778   -3.1907   26.8785 N   0  0  0  0  0  0  0  0  0  0  0  0
    4.6451   -4.4818   27.1607 C   0  0  0  0  0  0  0  0  0  0  0  0
    4.7367   -5.0182   28.2881 O   0  0  0  0  0  0  0  0  0  0  0  0
    5.0819   -5.0164   25.8461 C   0  0  0  0  0  0  0  0  0  0  0  0
    5.2696   -6.2408   25.4009 C   0  0  0  0  0  0  0  0  0  0  0  0
    5.6968   -6.4418   24.0303 C   0  0  0  0  0  0  0  0  0  0  0  0
    5.8773   -5.4019   23.2539 C   0  0  0  0  0  0  0  0  0  0  0  0
    6.4075   -5.7118   21.5919 Cl  0  0  0  0  0  0  0  0  0  0  0  0
    5.6229   -4.0015   23.6184 C   0  0  0  0  0  0  0  0  0  0  0  0
    5.3999   -3.7912   25.0597 C   0  0  0  0  0  0  0  0  0  0  0  0
    4.8095   -2.6581   25.7521 C   0  0  0  0  0  0  0  0  0  0  0  0
    6.2275   -2.7223   25.7112 C   0  0  0  0  0  0  0  0  0  0  0  0
    7.0657   -1.9464   24.7406 C   0  0  0  0  0  0  0  0  0  0  0  0
    6.7115   -0.9188   24.0895 O   0  0  0  0  0  0  0  0  0  0  0  0
    8.3347   -2.5921   24.6964 N   0  0  0  0  0  0  0  0  0  0  0  0
    8.3919   -3.6508   25.7157 C   0  0  0  0  0  0  0  0  0  0  0  0
    7.2573   -3.1768   26.6245 C   0  0  0  0  0  0  0  0  0  0  0  0
    7.3967   -3.2467   27.9339 C   0  0  0  0  0  0  0  0  0  0  0  0
    8.5167   -3.7383   28.5363 F   0  0  0  0  0  0  0  0  0  0  0  0
    9.3551   -2.2197   23.7770 C   0  0  0  0  0  0  0  0  0  0  0  0
    9.1688   -2.1060   22.4270 C   0  0  0  0  0  0  0  0  0  0  0  0
   10.2091   -1.7479   21.6698 N   0  0  0  0  0  0  0  0  0  0  0  0
   11.4438   -1.4889   22.1580 C   0  0  0  0  0  0  0  0  0  0  0  0
   11.6731   -1.5932   23.5203 C   0  0  0  0  0  0  0  0  0  0  0  0
   12.9258   -1.3334   24.0397 C   0  0  0  0  0  0  0  0  0  0  0  0
   13.1205   -1.4455   25.3942 C   0  0  0  0  0  0  0  0  0  0  0  0
   12.0828   -1.8109   26.2185 C   0  0  0  0  0  0  0  0  0  0  0  0
   10.8373   -2.0647   25.6644 C   0  0  0  0  0  0  0  0  0  0  0  0
   10.6031   -1.9616   24.3005 C   0  0  0  0  0  0  0  0  0  0  0  0
    2.9912   -2.5042   27.5285 C   0  0  0  0  0  0  0  0  0  0  0  0
    4.4000   -0.6370   30.5179 C   0  0  0  0  0  0  0  0  0  0  0  0
    4.1657   -1.0559   29.1493 N   0  0  0  0  0  0  0  0  0  0  0  0
    3.2016   -2.1084   28.9145 C   0  0  0  0  0  0  0  0  0  0  0  0
    2.6514   -2.5663   29.9290 O   0  0  0  0  0  0  0  0  0  0  0  0
    4.6490   -0.6360   28.4014 H   0  0  0  0  0  0  0  0  0  0  0  0
 31 32  1  0  0  0
 32 33  1  0  0  0
 32 35  1  0  0  0
 33 34  2  0  0  0
 33 30  1  0  0  0
 30  1  1  0  0  0
  1  2  1  0  0  0
  2  3  2  0  0  0
  2  4  1  0  0  0
  4  5  2  0  0  0
  5  6  1  0  0  0
  6  7  2  0  0  0
  7  8  1  0  0  0
  7  9  1  0  0  0
 10  9  1  0  0  0
 10 11  1  0  0  0
 10  4  1  0  0  0
 11 12  1  0  0  0
 11  1  1  0  0  0
 12 13  1  0  0  0
 12 10  1  0  0  0
 13 14  2  0  0  0
 13 15  1  0  0  0
 15 20  1  0  0  0
 15 16  1  0  0  0
 20 21  2  0  0  0
 21 22  1  0  0  0
 22 23  2  0  0  0
 23 24  1  0  0  0
 24 25  2  0  0  0
 25 26  1  0  0  0
 26 27  2  0  0  0
 27 28  1  0  0  0
 28 29  2  0  0  0
 29 20  1  0  0  0
 29 24  1  0  0  0
 16 17  1  0  0  0
 17 18  2  0  0  0
 17 12  1  0  0  0
 18 19  1  0  0  0
M  END
> <minimizedAffinity>
-6.93678

> <CNNscore>
0.6808916330

> <CNNaffinity>
6.6043634415

> <CNN_VS>
4.4968557358

> <CNNaffinity_variance>
0.1587418020
$$$$



25 28  0  0  0  0  0  0  0  0999 V2000
    8.2374    0.0820   20.6929 O   0  0  0  0  0  0  0  0  0  0  0  0
    7.6121   -0.7133   21.4423 C   0  0  0  0  0  0  0  0  0  0  0  0
    8.2765   -1.4316   22.4772 N   0  0  0  0  0  0  0  0  0  0  0  0
    7.6185   -2.3523   23.3637 C   0  0  0  0  0  0  0  0  0  0  0  0
    8.0420   -2.2552   24.7920 C   0  0  0  0  0  0  0  0  0  0  0  0
    9.4665   -1.8451   24.9973 C   0  0  0  0  0  0  0  0  0  0  0  0
   10.3788   -3.0528   24.8446 C   0  0  0  0  0  0  0  0  0  0  0  0
   11.8235   -2.6749   24.8176 C   0  0  0  0  0  0  0  0  0  0  0  0
   12.0654   -1.2311   25.1717 C   0  0  0  0  0  0  0  0  0  0  0  0
   13.4094   -0.9860   24.8675 F   0  0  0  0  0  0  0  0  0  0  0  0
   11.9596   -1.0007   26.5452 F   0  0  0  0  0  0  0  0  0  0  0  0
   11.2627   -0.2574   24.3700 C   0  0  0  0  0  0  0  0  0  0  0  0
    9.8642   -0.7227   24.0817 C   0  0  0  0  0  0  0  0  0  0  0  0
    9.7093   -1.2348   22.6647 C   0  0  0  0  0  0  0  0  0  0  0  0
    6.1426   -0.9368   21.2758 C   0  0  0  0  0  0  0  0  0  0  0  0
    5.6401   -0.3199   20.0366 C   0  0  0  0  0  0  0  0  0  0  0  0
    6.0152   -0.7440   18.7874 C   0  0  0  0  0  0  0  0  0  0  0  0
    5.5580   -0.1824   17.6467 N   0  0  0  0  0  0  0  0  0  0  0  0
    4.6855    0.8524   17.6817 C   0  0  0  0  0  0  0  0  0  0  0  0
    4.2763    1.3173   18.9112 C   0  0  0  0  0  0  0  0  0  0  0  0
    3.3861    2.3719   18.9963 C   0  0  0  0  0  0  0  0  0  0  0  0
    2.9578    2.8602   20.2038 C   0  0  0  0  0  0  0  0  0  0  0  0
    3.4257    2.2857   21.3621 C   0  0  0  0  0  0  0  0  0  0  0  0
    4.3223    1.2230   21.2999 C   0  0  0  0  0  0  0  0  0  0  0  0
    4.7399    0.7476   20.0896 C   0  0  0  0  0  0  0  0  0  0  0  0
  1  2  2  0  0  0
  2 15  1  0  0  0
  2  3  1  0  0  0
 15 16  1  0  0  0
 16 17  2  0  0  0
 17 18  1  0  0  0
 18 19  2  0  0  0
 19 20  1  0  0  0
 20 21  2  0  0  0
 21 22  1  0  0  0
 22 23  2  0  0  0
 23 24  1  0  0  0
 24 25  2  0  0  0
 25 16  1  0  0  0
 25 20  1  0  0  0
  3  4  1  0  0  0
  4  5  1  0  0  0
  6  5  1  0  0  0
  6  7  1  0  0  0
  7  8  1  0  0  0
  8  9  1  0  0  0
  9 10  1  0  0  0
  9 11  1  0  0  0
  9 12  1  0  0  0
 13 12  1  0  0  0
 13 14  1  0  0  0
 13  6  1  0  0  0
 14  3  1  0  0  0
M  END
> <minimizedAffinity>
-8.49814

> <CNNscore>
0.7605764270

> <CNNaffinity>
5.8387303352

> <CNN_VS>
4.4408006668

> <CNNaffinity_variance>
0.0422431715
$$$$



40 45  0  0  0  0  0  0  0  0999 V2000
    4.9035    0.7260   23.8279 N   0  0  0  0  0  0  0  0  0  0  0  0
    6.2967    0.8668   23.3685 C   0  0  0  0  0  0  0  0  0  0  0  0
    6.5370    0.2981   22.0122 C   0  0  0  0  0  0  0  0  0  0  0  0
    6.2489   -1.1849   22.1419 C   0  0  0  0  0  0  0  0  0  0  0  0
    5.0749   -1.6952   22.1250 O   0  0  0  0  0  0  0  0  0  0  0  0
    7.4691   -1.8850   22.2805 N   0  0  0  0  0  0  0  0  0  0  0  0
    8.4325   -1.1494   21.4811 C   0  0  0  0  0  0  0  0  0  0  0  0
    7.9515    0.3033   21.6366 C   0  0  0  0  0  0  0  0  0  0  0  0
    5.5520    0.7756   21.0271 C   0  0  0  0  0  0  0  0  0  0  0  0
    5.7736    0.8445   19.6693 C   0  0  0  0  0  0  0  0  0  0  0  0
    4.8265    1.2855   18.7662 C   0  0  0  0  0  0  0  0  0  0  0  0
    5.1723    1.3496   17.0447 Cl  0  0  0  0  0  0  0  0  0  0  0  0
    3.5739    1.6885   19.2144 C   0  0  0  0  0  0  0  0  0  0  0  0
    3.3381    1.6246   20.5722 C   0  0  0  0  0  0  0  0  0  0  0  0
    4.3012    1.1789   21.4677 C   0  0  0  0  0  0  0  0  0  0  0  0
    3.9177    1.1738   22.8748 C   0  0  0  0  0  0  0  0  0  0  0  0
    2.7968    1.5311   23.2926 O   0  0  0  0  0  0  0  0  0  0  0  0
    7.6326   -3.0548   23.0582 C   0  0  0  0  0  0  0  0  0  0  0  0
    7.0463   -4.2623   22.7777 C   0  0  0  0  0  0  0  0  0  0  0  0
    7.2692   -5.3238   23.5891 N   0  0  0  0  0  0  0  0  0  0  0  0
    8.0518   -5.2520   24.6773 C   0  0  0  0  0  0  0  0  0  0  0  0
    8.6667   -4.0553   25.0039 C   0  0  0  0  0  0  0  0  0  0  0  0
    9.4818   -3.9551   26.1250 C   0  0  0  0  0  0  0  0  0  0  0  0
   10.0914   -2.7724   26.4499 C   0  0  0  0  0  0  0  0  0  0  0  0
    9.8912   -1.6618   25.6483 C   0  0  0  0  0  0  0  0  0  0  0  0
    9.0725   -1.7764   24.5287 C   0  0  0  0  0  0  0  0  0  0  0  0
    8.4522   -2.9564   24.1872 C   0  0  0  0  0  0  0  0  0  0  0  0
    4.5499    0.2012   25.1077 C   0  0  0  0  0  0  0  0  0  0  0  0
    4.5569    1.1057   26.2696 C   0  0  0  0  0  0  0  0  0  0  0  0
    5.8459   -0.7239   27.0407 C   0  0  0  0  0  0  0  0  0  0  0  0
    5.1621    0.4911   27.4418 N   0  0  0  0  0  0  0  0  0  0  0  0
    5.8313    1.1377   27.8595 H   0  0  0  0  0  0  0  0  0  0  0  0
    4.4386    0.2687   28.1256 H   0  0  0  0  0  0  0  0  0  0  0  0
    8.9226    0.9417   22.5799 C   0  0  0  0  0  0  0  0  0  0  0  0
   10.2207    0.8723   22.1382 O   0  0  0  0  0  0  0  0  0  0  0  0
   11.1350    0.9424   23.1717 C   0  0  0  0  0  0  0  0  0  0  0  0
   12.4367    0.2264   22.8820 C   0  0  0  0  0  0  0  0  0  0  0  0
   13.4913    1.0028   22.4441 F   0  0  0  0  0  0  0  0  0  0  0  0
   12.8253   -0.7711   23.9934 C   0  0  0  0  0  0  0  0  0  0  0  0
   12.4612   -1.2282   22.6415 C   0  0  0  0  0  0  0  0  0  0  0  0
 30 31  1  0  0  0
 31 29  1  0  0  0
 31 32  1  0  0  0
 31 33  1  0  0  0
 29 28  1  0  0  0
 28  1  1  0  0  0
  1  2  1  0  0  0
  3  2  1  0  0  0
  3  4  1  0  0  0
  3  9  1  0  0  0
  4  5  2  0  0  0
  4  6  1  0  0  0
  6 18  1  0  0  0
  6  7  1  0  0  0
 18 19  2  0  0  0
 19 20  1  0  0  0
 20 21  2  0  0  0
 21 22  1  0  0  0
 22 23  2  0  0  0
 23 24  1  0  0  0
 24 25  2  0  0  0
 25 26  1  0  0  0
 26 27  2  0  0  0
 27 18  1  0  0  0
 27 22  1  0  0  0
  7  8  1  0  0  0
  8 34  1  0  0  0
  8  3  1  0  0  0
 34 35  1  0  0  0
 35 36  1  0  0  0
 36 37  1  0  0  0
 37 38  1  0  0  0
 37 39  1  0  0  0
 39 40  1  0  0  0
 40 37  1  0  0  0
  9 10  2  0  0  0
 10 11  1  0  0  0
 11 12  1  0  0  0
 11 13  2  0  0  0
 13 14  1  0  0  0
 14 15  2  0  0  0
 15 16  1  0  0  0
 15  9  1  0  0  0
 16 17  2  0  0  0
 16  1  1  0  0  0
M  CHG 1  31   1
M  END
> <minimizedAffinity>
-7.36219

> <CNNscore>
0.4240334034

> <CNNaffinity>
6.6001548767

> <CNN_VS>
2.7986860275

> <CNNaffinity_variance>
0.2011918277
$$$$



35 40  0  0  0  0  0  0  0  0999 V2000
    5.6193    1.2504   23.2552 N   0  0  0  0  0  0  0  0  0  0  0  0
    6.7633    0.4404   23.4871 C   0  0  0  0  0  0  0  0  0  0  0  0
    6.4384   -0.8768   24.0761 C   0  0  0  0  0  0  0  0  0  0  0  0
    7.5330   -1.3410   25.0161 C   0  0  0  0  0  0  0  0  0  0  0  0
    7.6377   -0.9708   26.2230 O   0  0  0  0  0  0  0  0  0  0  0  0
    8.3922   -2.2388   24.3163 N   0  0  0  0  0  0  0  0  0  0  0  0
    7.9664   -2.3265   22.9108 C   0  0  0  0  0  0  0  0  0  0  0  0
    6.4912   -2.0156   23.0760 C   0  0  0  0  0  0  0  0  0  0  0  0
    5.7709   -1.7579   21.8039 C   0  0  0  0  0  0  0  0  0  0  0  0
    5.2049   -0.8990   24.8714 C   0  0  0  0  0  0  0  0  0  0  0  0
    5.0049   -2.0030   25.7011 C   0  0  0  0  0  0  0  0  0  0  0  0
    3.8699   -2.1190   26.4871 C   0  0  0  0  0  0  0  0  0  0  0  0
    3.7165   -3.2203   27.2860 F   0  0  0  0  0  0  0  0  0  0  0  0
    2.9062   -1.1287   26.4602 C   0  0  0  0  0  0  0  0  0  0  0  0
    3.0797   -0.0200   25.6441 C   0  0  0  0  0  0  0  0  0  0  0  0
    4.2244    0.0568   24.8771 C   0  0  0  0  0  0  0  0  0  0  0  0
    4.4180    1.2200   24.0210 C   0  0  0  0  0  0  0  0  0  0  0  0
    3.5712    2.1612   23.9520 O   0  0  0  0  0  0  0  0  0  0  0  0
    9.4807   -2.9190   24.9384 C   0  0  0  0  0  0  0  0  0  0  0  0
    9.1844   -4.1982   25.4235 C   0  0  0  0  0  0  0  0  0  0  0  0
   10.1663   -4.9169   26.0318 N   0  0  0  0  0  0  0  0  0  0  0  0
   11.4145   -4.4112   26.1706 C   0  0  0  0  0  0  0  0  0  0  0  0
   11.7056   -3.1374   25.6864 C   0  0  0  0  0  0  0  0  0  0  0  0
   12.9879   -2.6396   25.8389 C   0  0  0  0  0  0  0  0  0  0  0  0
   13.2463   -1.3768   25.3502 C   0  0  0  0  0  0  0  0  0  0  0  0
   12.2691   -0.6172   24.7251 C   0  0  0  0  0  0  0  0  0  0  0  0
   10.9859   -1.1053   24.5679 C   0  0  0  0  0  0  0  0  0  0  0  0
   10.7398   -2.3685   25.0605 C   0  0  0  0  0  0  0  0  0  0  0  0
    5.6345    2.2206   22.1495 C   0  0  0  0  0  0  0  0  0  0  0  0
    4.9290    0.4316   17.5504 C   0  0  0  0  0  0  0  0  0  0  0  0
    5.5768    0.8301   18.8275 C   0  0  0  0  0  0  0  0  0  0  0  0
    4.9900    1.4040   19.8870 N   0  0  0  0  0  0  0  0  0  0  0  0
    5.9366    1.6051   20.8496 C   0  0  0  0  0  0  0  0  0  0  0  0
    7.0852    1.1387   20.3333 N   0  0  0  0  0  0  0  0  0  0  0  0
    6.8413    0.6915   19.1478 O   0  0  0  0  0  0  0  0  0  0  0  0
 30 31  1  0  0  0
 31 32  2  0  0  0
 32 33  1  0  0  0
 33 29  1  0  0  0
 33 34  2  0  0  0
 29  1  1  0  0  0
  1  2  1  0  0  0
  3  2  1  0  0  0
  3  4  1  0  0  0
  3 10  1  0  0  0
  4  5  2  0  0  0
  4  6  1  0  0  0
  6 19  1  0  0  0
  6  7  1  0  0  0
 19 20  2  0  0  0
 20 21  1  0  0  0
 21 22  2  0  0  0
 22 23  1  0  0  0
 23 24  2  0  0  0
 24 25  1  0  0  0
 25 26  2  0  0  0
 26 27  1  0  0  0
 27 28  2  0  0  0
 28 19  1  0  0  0
 28 23  1  0  0  0
  7  8  1  0  0  0
  8  9  1  0  0  0
  8  3  1  0  0  0
 10 11  2  0  0  0
 11 12  1  0  0  0
 12 13  1  0  0  0
 12 14  2  0  0  0
 14 15  1  0  0  0
 15 16  2  0  0  0
 16 17  1  0  0  0
 16 10  1  0  0  0
 17 18  2  0  0  0
 17  1  1  0  0  0
 34 35  1  0  0  0
 35 31  1  0  0  0
M  END
> <minimizedAffinity>
-8.37379

> <CNNscore>
0.4092158973

> <CNNaffinity>
6.4666414261

> <CNN_VS>
2.6462523937

> <CNNaffinity_variance>
0.2089808881
$$$$



37 41  0  0  0  0  0  0  0  0999 V2000
    7.0000   -1.2408   22.3109 N   0  0  0  0  0  0  0  0  0  0  0  0
    8.3970   -1.4966   22.1650 C   0  0  0  0  0  0  0  0  0  0  0  0
    9.1389   -0.9319   21.3212 O   0  0  0  0  0  0  0  0  0  0  0  0
    5.6281    3.7483   21.5087 C   0  0  0  0  0  0  0  0  0  0  0  0
    6.7826    3.4014   21.8681 O   0  0  0  0  0  0  0  0  0  0  0  0
    4.7073    2.8892   20.8478 N   0  0  0  0  0  0  0  0  0  0  0  0
    3.4002    3.3642   20.3735 C   0  0  0  0  0  0  0  0  0  0  0  0
    2.8232    2.3692   19.3985 C   0  0  0  0  0  0  0  0  0  0  0  0
    3.8928    1.7300   18.5091 C   0  0  0  0  0  0  0  0  0  0  0  0
    4.7142    0.9170   19.4420 C   0  0  0  0  0  0  0  0  0  0  0  0
    5.1001   -0.3768   19.2160 C   0  0  0  0  0  0  0  0  0  0  0  0
    5.8485   -1.0552   20.1517 C   0  0  0  0  0  0  0  0  0  0  0  0
    6.2512   -0.4833   21.3651 C   0  0  0  0  0  0  0  0  0  0  0  0
    5.8463    0.8196   21.5597 C   0  0  0  0  0  0  0  0  0  0  0  0
    5.0910    1.5270   20.6266 C   0  0  0  0  0  0  0  0  0  0  0  0
    6.4820    6.0722   21.8941 C   0  0  0  0  0  0  0  0  0  0  0  0
    5.2805    5.1800   21.8392 C   0  0  0  0  0  0  0  0  0  0  0  0
    6.3702   -1.7298   23.5171 C   0  0  0  0  0  0  0  0  0  0  0  0
    6.0506   -3.1716   23.5633 C   0  0  0  0  0  0  0  0  0  0  0  0
    5.8006   -3.8269   24.7816 C   0  0  0  0  0  0  0  0  0  0  0  0
    5.4984   -5.1691   24.8466 C   0  0  0  0  0  0  0  0  0  0  0  0
    5.4198   -5.9570   23.7318 C   0  0  0  0  0  0  0  0  0  0  0  0
    5.6590   -5.3463   22.5175 C   0  0  0  0  0  0  0  0  0  0  0  0
    5.5668   -6.3239   21.0573 Cl  0  0  0  0  0  0  0  0  0  0  0  0
    5.9663   -3.9824   22.4517 C   0  0  0  0  0  0  0  0  0  0  0  0
    9.1167   -2.5007   23.0269 C   0  0  0  0  0  0  0  0  0  0  0  0
   10.4617   -1.9368   23.3954 C   0  0  0  0  0  0  0  0  0  0  0  0
   11.0375   -0.9215   22.6220 C   0  0  0  0  0  0  0  0  0  0  0  0
   12.2270   -0.4070   22.9114 N   0  0  0  0  0  0  0  0  0  0  0  0
   12.9319   -0.8504   23.9773 C   0  0  0  0  0  0  0  0  0  0  0  0
   12.3979   -1.8518   24.7658 C   0  0  0  0  0  0  0  0  0  0  0  0
   13.1432   -2.2921   25.8587 C   0  0  0  0  0  0  0  0  0  0  0  0
   14.3584   -1.7268   26.1050 F   0  0  0  0  0  0  0  0  0  0  0  0
   12.6148   -3.2952   26.6516 C   0  0  0  0  0  0  0  0  0  0  0  0
   11.3729   -3.8456   26.3617 C   0  0  0  0  0  0  0  0  0  0  0  0
   10.6175   -3.4207   25.2813 C   0  0  0  0  0  0  0  0  0  0  0  0
   11.1577   -2.4246   24.5058 C   0  0  0  0  0  0  0  0  0  0  0  0
 16 17  1  0  0  0
 17  4  1  0  0  0
  4  5  2  0  0  0
  4  6  1  0  0  0
  6  7  1  0  0  0
  7  8  1  0  0  0
  8  9  1  0  0  0
  9 10  1  0  0  0
 10 11  2  0  0  0
 11 12  1  0  0  0
 12 13  2  0  0  0
 13  1  1  0  0  0
 13 14  1  0  0  0
  1 18  1  0  0  0
  1  2  1  0  0  0
 18 19  1  0  0  0
 19 20  2  0  0  0
 20 21  1  0  0  0
 21 22  2  0  0  0
 22 23  1  0  0  0
 23 24  1  0  0  0
 23 25  2  0  0  0
 25 19  1  0  0  0
  2  3  2  0  0  0
  2 26  1  0  0  0
 26 27  1  0  0  0
 27 28  2  0  0  0
 28 29  1  0  0  0
 29 30  2  0  0  0
 30 31  1  0  0  0
 31 32  2  0  0  0
 32 33  1  0  0  0
 32 34  1  0  0  0
 34 35  2  0  0  0
 35 36  1  0  0  0
 36 37  2  0  0  0
 37 27  1  0  0  0
 37 31  1  0  0  0
 14 15  2  0  0  0
 15  6  1  0  0  0
 15 10  1  0  0  0
M  END
> <minimizedAffinity>
-9.71848

> <CNNscore>
0.5953397751

> <CNNaffinity>
7.1405601501

> <CNN_VS>
4.2510595322

> <CNNaffinity_variance>
0.1541206092
$$$$



35 40  0  0  0  0  0  0  0  0999 V2000
    6.3336   -1.1727   24.8610 C   0  0  0  0  0  0  0  0  0  0  0  0
    7.2831   -0.0178   24.6416 C   0  0  0  0  0  0  0  0  0  0  0  0
    8.4198   -0.1985   25.6818 C   0  0  0  0  0  0  0  0  0  0  0  0
    9.1333   -1.3221   25.1488 N   0  0  0  0  0  0  0  0  0  0  0  0
    8.9538   -1.2793   23.7019 C   0  0  0  0  0  0  0  0  0  0  0  0
    9.4339   -2.0447   22.8412 O   0  0  0  0  0  0  0  0  0  0  0  0
    8.0746   -0.1382   23.3623 C   0  0  0  0  0  0  0  0  0  0  0  0
    7.1730   -0.3722   22.1730 C   0  0  0  0  0  0  0  0  0  0  0  0
    6.4271    0.8089   21.8772 N   0  0  0  0  0  0  0  0  0  0  0  0
    7.1954    2.0241   21.7010 C   0  0  0  0  0  0  0  0  0  0  0  0
    6.7570    2.9781   21.0012 O   0  0  0  0  0  0  0  0  0  0  0  0
    8.5063    2.0917   22.3747 C   0  0  0  0  0  0  0  0  0  0  0  0
    9.2737    3.2142   22.1534 C   0  0  0  0  0  0  0  0  0  0  0  0
   10.5424    3.3355   22.6852 C   0  0  0  0  0  0  0  0  0  0  0  0
   11.0046    2.2827   23.4461 C   0  0  0  0  0  0  0  0  0  0  0  0
   12.2447    2.3672   23.9821 F   0  0  0  0  0  0  0  0  0  0  0  0
   10.2270    1.1526   23.6675 C   0  0  0  0  0  0  0  0  0  0  0  0
    8.9617    1.0188   23.1464 C   0  0  0  0  0  0  0  0  0  0  0  0
    9.8557   -2.3874   25.7367 C   0  0  0  0  0  0  0  0  0  0  0  0
    9.1642   -3.5182   26.1995 C   0  0  0  0  0  0  0  0  0  0  0  0
    9.8121   -4.5677   26.7495 N   0  0  0  0  0  0  0  0  0  0  0  0
   11.1434   -4.6230   26.8998 C   0  0  0  0  0  0  0  0  0  0  0  0
   11.8645   -3.5339   26.4586 C   0  0  0  0  0  0  0  0  0  0  0  0
   13.2322   -3.5922   26.6008 C   0  0  0  0  0  0  0  0  0  0  0  0
   14.0301   -2.5511   26.1744 C   0  0  0  0  0  0  0  0  0  0  0  0
   13.3958   -1.4716   25.6095 C   0  0  0  0  0  0  0  0  0  0  0  0
   12.0278   -1.4136   25.4676 C   0  0  0  0  0  0  0  0  0  0  0  0
   11.2173   -2.4355   25.8852 C   0  0  0  0  0  0  0  0  0  0  0  0
    5.0087    0.9248   21.7111 C   0  0  0  0  0  0  0  0  0  0  0  0
    4.5980    1.1565   20.3112 C   0  0  0  0  0  0  0  0  0  0  0  0
    3.4082    1.7372   19.9780 N   0  0  0  0  0  0  0  0  0  0  0  0
    3.3510    1.8069   18.6627 N   0  0  0  0  0  0  0  0  0  0  0  0
    4.4472    1.2984   18.1464 N   0  0  0  0  0  0  0  0  0  0  0  0
    4.7041    1.2214   16.7194 C   0  0  0  0  0  0  0  0  0  0  0  0
    5.2025    0.9045   19.1462 N   0  0  0  0  0  0  0  0  0  0  0  0
  2  1  1  0  0  0
  2  3  1  0  0  0
  3  4  1  0  0  0
  4 19  1  0  0  0
  4  5  1  0  0  0
 19 20  2  0  0  0
 20 21  1  0  0  0
 21 22  2  0  0  0
 22 23  1  0  0  0
 23 24  2  0  0  0
 24 25  1  0  0  0
 25 26  2  0  0  0
 26 27  1  0  0  0
 27 28  2  0  0  0
 28 19  1  0  0  0
 28 23  1  0  0  0
  5  6  2  0  0  0
  7  5  1  0  0  0
  7  8  1  0  0  0
  7  2  1  0  0  0
  8  9  1  0  0  0
  9 29  1  0  0  0
  9 10  1  0  0  0
 29 30  1  0  0  0
 30 31  1  0  0  0
 31 32  2  0  0  0
 32 33  1  0  0  0
 33 34  1  0  0  0
 33 35  1  0  0  0
 35 30  2  0  0  0
 10 11  2  0  0  0
 10 12  1  0  0  0
 12 13  2  0  0  0
 13 14  1  0  0  0
 14 15  2  0  0  0
 15 16  1  0  0  0
 15 17  1  0  0  0
 17 18  2  0  0  0
 18 12  1  0  0  0
 18  7  1  0  0  0
M  END
> <minimizedAffinity>
-7.83154

> <CNNscore>
0.3475134671

> <CNNaffinity>
6.4367661476

> <CNN_VS>
2.2368628979

> <CNNaffinity_variance>
0.0638702288
$$$$



35 40  0  0  0  0  0  0  0  0999 V2000
    9.2170    1.5880   23.6221 C   0  0  0  0  0  0  0  0  0  0  0  0
    7.9113    1.1412   23.0365 C   0  0  0  0  0  0  0  0  0  0  0  0
    8.1287    0.9574   21.5322 C   0  0  0  0  0  0  0  0  0  0  0  0
    6.8696    0.3129   21.1890 N   0  0  0  0  0  0  0  0  0  0  0  0
    6.6214   -0.5988   22.2519 C   0  0  0  0  0  0  0  0  0  0  0  0
    5.7893   -1.5333   22.2215 O   0  0  0  0  0  0  0  0  0  0  0  0
    7.5112   -0.2732   23.4245 C   0  0  0  0  0  0  0  0  0  0  0  0
    8.6948   -1.1683   23.3377 C   0  0  0  0  0  0  0  0  0  0  0  0
    8.8925   -2.0743   24.4458 N   0  0  0  0  0  0  0  0  0  0  0  0
    8.1443   -2.0407   25.6480 C   0  0  0  0  0  0  0  0  0  0  0  0
    8.4037   -2.7789   26.6213 O   0  0  0  0  0  0  0  0  0  0  0  0
    7.0427   -1.1205   25.7548 C   0  0  0  0  0  0  0  0  0  0  0  0
    6.3010   -1.1046   26.9325 C   0  0  0  0  0  0  0  0  0  0  0  0
    5.2334   -0.2503   27.0617 C   0  0  0  0  0  0  0  0  0  0  0  0
    4.9395    0.5690   25.9957 C   0  0  0  0  0  0  0  0  0  0  0  0
    3.8828    1.4079   26.1299 F   0  0  0  0  0  0  0  0  0  0  0  0
    5.6839    0.5505   24.8190 C   0  0  0  0  0  0  0  0  0  0  0  0
    6.7615   -0.3096   24.6861 C   0  0  0  0  0  0  0  0  0  0  0  0
    6.0853    0.5701   20.0310 C   0  0  0  0  0  0  0  0  0  0  0  0
    6.5172   -0.0293   18.8424 C   0  0  0  0  0  0  0  0  0  0  0  0
    5.8329    0.1669   17.7177 N   0  0  0  0  0  0  0  0  0  0  0  0
    4.7225    0.9378   17.6980 C   0  0  0  0  0  0  0  0  0  0  0  0
    4.2784    1.5355   18.8476 C   0  0  0  0  0  0  0  0  0  0  0  0
    3.1366    2.3226   18.8076 C   0  0  0  0  0  0  0  0  0  0  0  0
    2.7044    2.9196   19.9848 C   0  0  0  0  0  0  0  0  0  0  0  0
    3.4047    2.7249   21.1598 C   0  0  0  0  0  0  0  0  0  0  0  0
    4.5491    1.9395   21.2151 C   0  0  0  0  0  0  0  0  0  0  0  0
    4.9566    1.3597   20.0363 C   0  0  0  0  0  0  0  0  0  0  0  0
    9.9533   -3.0815   24.2491 C   0  0  0  0  0  0  0  0  0  0  0  0
   11.2534   -2.5840   24.7309 C   0  0  0  0  0  0  0  0  0  0  0  0
   11.7035   -2.8545   25.9914 N   0  0  0  0  0  0  0  0  0  0  0  0
   12.9110   -2.2900   26.1642 C   0  0  0  0  0  0  0  0  0  0  0  0
   13.2445   -1.6443   24.9943 C   0  0  0  0  0  0  0  0  0  0  0  0
   12.2053   -1.8539   24.1581 N   0  0  0  0  0  0  0  0  0  0  0  0
   12.1812   -1.3329   22.8090 C   0  0  0  0  0  0  0  0  0  0  0  0
  2  1  1  0  0  0
  2  3  1  0  0  0
  3  4  1  0  0  0
  4 19  1  0  0  0
  4  5  1  0  0  0
 19 20  2  0  0  0
 20 21  1  0  0  0
 21 22  2  0  0  0
 22 23  1  0  0  0
 23 24  2  0  0  0
 24 25  1  0  0  0
 25 26  2  0  0  0
 26 27  1  0  0  0
 27 28  2  0  0  0
 28 19  1  0  0  0
 28 23  1  0  0  0
  5  6  2  0  0  0
  7  5  1  0  0  0
  7  8  1  0  0  0
  7  2  1  0  0  0
  8  9  1  0  0  0
  9 29  1  0  0  0
  9 10  1  0  0  0
 29 30  1  0  0  0
 30 31  2  0  0  0
 31 32  1  0  0  0
 32 33  2  0  0  0
 33 34  1  0  0  0
 34 35  1  0  0  0
 34 30  1  0  0  0
 10 11  2  0  0  0
 10 12  1  0  0  0
 12 13  2  0  0  0
 13 14  1  0  0  0
 14 15  2  0  0  0
 15 16  1  0  0  0
 15 17  1  0  0  0
 17 18  2  0  0  0
 18 12  1  0  0  0
 18  7  1  0  0  0
M  END
> <minimizedAffinity>
-9.08636

> <CNNscore>
0.3812029362

> <CNNaffinity>
6.5973310471

> <CNN_VS>
2.5149219036

> <CNNaffinity_variance>
0.0342902094
$$$$



38 42  0  0  0  0  0  0  0  0999 V2000
    5.8077   -0.4680   20.9766 N   0  0  0  0  0  0  0  0  0  0  0  0
    7.1707   -0.5060   21.4513 C   0  0  0  0  0  0  0  0  0  0  0  0
    7.2300   -0.8783   22.8872 C   0  0  0  0  0  0  0  0  0  0  0  0
    8.5786   -0.4931   23.4803 C   0  0  0  0  0  0  0  0  0  0  0  0
    8.8216    0.6484   23.9520 O   0  0  0  0  0  0  0  0  0  0  0  0
    9.4395   -1.6193   23.3918 N   0  0  0  0  0  0  0  0  0  0  0  0
    8.6872   -2.7190   22.8233 C   0  0  0  0  0  0  0  0  0  0  0  0
    7.2683   -2.3516   23.1797 C   0  0  0  0  0  0  0  0  0  0  0  0
    6.1923   -0.1715   23.6492 C   0  0  0  0  0  0  0  0  0  0  0  0
    6.4040   -0.0131   25.0218 C   0  0  0  0  0  0  0  0  0  0  0  0
    5.4633    0.6359   25.8104 C   0  0  0  0  0  0  0  0  0  0  0  0
    5.7254    0.8365   27.5328 Cl  0  0  0  0  0  0  0  0  0  0  0  0
    4.2870    1.1478   25.2712 C   0  0  0  0  0  0  0  0  0  0  0  0
    4.0795    0.9910   23.9163 C   0  0  0  0  0  0  0  0  0  0  0  0
    5.0257    0.3445   23.1539 C   0  0  0  0  0  0  0  0  0  0  0  0
    4.7820    0.2046   21.7245 C   0  0  0  0  0  0  0  0  0  0  0  0
    3.7576    0.6289   21.1428 O   0  0  0  0  0  0  0  0  0  0  0  0
   10.7991   -1.5800   23.8155 C   0  0  0  0  0  0  0  0  0  0  0  0
   11.7653   -0.8242   23.1902 C   0  0  0  0  0  0  0  0  0  0  0  0
   13.0429   -0.8376   23.6521 N   0  0  0  0  0  0  0  0  0  0  0  0
   13.3655   -1.5904   24.7222 C   0  0  0  0  0  0  0  0  0  0  0  0
   12.4354   -2.3550   25.3712 C   0  0  0  0  0  0  0  0  0  0  0  0
   12.8184   -3.1136   26.4698 C   0  0  0  0  0  0  0  0  0  0  0  0
   11.9147   -3.8879   27.1403 C   0  0  0  0  0  0  0  0  0  0  0  0
   10.6044   -3.8986   26.6976 C   0  0  0  0  0  0  0  0  0  0  0  0
   10.2259   -3.1333   25.5922 C   0  0  0  0  0  0  0  0  0  0  0  0
   11.1390   -2.3529   24.9173 C   0  0  0  0  0  0  0  0  0  0  0  0
    6.2884   -3.1435   22.5236 N   0  0  0  0  0  0  0  0  0  0  0  0
    5.8910   -4.3735   23.1648 C   0  0  0  0  0  0  0  0  0  0  0  0
    4.8767   -5.2772   22.5696 C   0  0  0  0  0  0  0  0  0  0  0  0
    6.4055   -4.7204   24.2708 O   0  0  0  0  0  0  0  0  0  0  0  0
    5.8959   -2.8640   21.6650 H   0  0  0  0  0  0  0  0  0  0  0  0
    5.4761   -1.1172   19.7014 C   0  0  0  0  0  0  0  0  0  0  0  0
    5.0423    1.5418   16.9416 C   0  0  0  0  0  0  0  0  0  0  0  0
    4.7264    0.6083   18.0317 N   0  0  0  0  0  0  0  0  0  0  0  0
    5.7599   -0.1762   18.6115 C   0  0  0  0  0  0  0  0  0  0  0  0
    6.9482   -0.0840   18.2041 O   0  0  0  0  0  0  0  0  0  0  0  0
    3.8017    0.5267   18.3594 H   0  0  0  0  0  0  0  0  0  0  0  0
 34 35  1  0  0  0
 35 36  1  0  0  0
 35 38  1  0  0  0
 36 37  2  0  0  0
 36 33  1  0  0  0
 33  1  1  0  0  0
  1  2  1  0  0  0
  3  2  1  0  0  0
  3  4  1  0  0  0
  3  9  1  0  0  0
  4  5  2  0  0  0
  4  6  1  0  0  0
  6 18  1  0  0  0
  6  7  1  0  0  0
 18 19  2  0  0  0
 19 20  1  0  0  0
 20 21  2  0  0  0
 21 22  1  0  0  0
 22 23  2  0  0  0
 23 24  1  0  0  0
 24 25  2  0  0  0
 25 26  1  0  0  0
 26 27  2  0  0  0
 27 18  1  0  0  0
 27 22  1  0  0  0
  7  8  1  0  0  0
  8 28  1  0  0  0
  8  3  1  0  0  0
 28 29  1  0  0  0
 28 32  1  0  0  0
 29 30  1  0  0  0
 29 31  2  0  0  0
  9 10  2  0  0  0
 10 11  1  0  0  0
 11 12  1  0  0  0
 11 13  2  0  0  0
 13 14  1  0  0  0
 14 15  2  0  0  0
 15 16  1  0  0  0
 15  9  1  0  0  0
 16 17  2  0  0  0
 16  1  1  0  0  0
M  END
> <minimizedAffinity>
-8.90111

> <CNNscore>
0.5803812742

> <CNNaffinity>
6.6828155518

> <CNN_VS>
3.8785810471

> <CNNaffinity_variance>
0.0631551668
$$$$



34 39  0  0  0  0  0  0  0  0999 V2000
    5.8096   -2.6798   23.0632 C   0  0  0  0  0  0  0  0  0  0  0  0
    6.9582   -2.0353   22.3190 C   0  0  0  0  0  0  0  0  0  0  0  0
    6.6262   -1.8082   20.8746 C   0  0  0  0  0  0  0  0  0  0  0  0
    6.5720   -0.3683   20.7110 N   0  0  0  0  0  0  0  0  0  0  0  0
    7.3473    0.2097   21.7539 C   0  0  0  0  0  0  0  0  0  0  0  0
    7.9183    1.3331   21.6448 O   0  0  0  0  0  0  0  0  0  0  0  0
    7.3528   -0.7143   22.9281 C   0  0  0  0  0  0  0  0  0  0  0  0
    6.3806   -0.1823   23.9027 C   0  0  0  0  0  0  0  0  0  0  0  0
    6.6866   -0.3675   25.2924 N   0  0  0  0  0  0  0  0  0  0  0  0
    8.0536   -0.4730   25.6647 C   0  0  0  0  0  0  0  0  0  0  0  0
    8.3958   -0.3742   26.8606 O   0  0  0  0  0  0  0  0  0  0  0  0
    9.1255   -0.7002   24.6889 C   0  0  0  0  0  0  0  0  0  0  0  0
   10.4528   -0.7953   25.0935 C   0  0  0  0  0  0  0  0  0  0  0  0
   11.4351   -1.0099   24.1234 C   0  0  0  0  0  0  0  0  0  0  0  0
   11.0437   -1.1184   22.8019 C   0  0  0  0  0  0  0  0  0  0  0  0
   12.3249   -1.3890   21.6177 Cl  0  0  0  0  0  0  0  0  0  0  0  0
    9.7204   -1.0216   22.4159 C   0  0  0  0  0  0  0  0  0  0  0  0
    8.7498   -0.8097   23.3741 C   0  0  0  0  0  0  0  0  0  0  0  0
    5.8466    0.2618   19.6628 C   0  0  0  0  0  0  0  0  0  0  0  0
    6.3292    0.1853   18.3659 C   0  0  0  0  0  0  0  0  0  0  0  0
    5.6736    0.7686   17.3386 N   0  0  0  0  0  0  0  0  0  0  0  0
    4.5317    1.4406   17.5501 C   0  0  0  0  0  0  0  0  0  0  0  0
    4.0032    1.5469   18.8396 C   0  0  0  0  0  0  0  0  0  0  0  0
    2.8217    2.2451   19.0419 C   0  0  0  0  0  0  0  0  0  0  0  0
    2.3156    2.3398   20.3180 C   0  0  0  0  0  0  0  0  0  0  0  0
    2.9821    1.7453   21.3711 C   0  0  0  0  0  0  0  0  0  0  0  0
    4.1633    1.0478   21.1658 C   0  0  0  0  0  0  0  0  0  0  0  0
    4.6846    0.9437   19.8900 C   0  0  0  0  0  0  0  0  0  0  0  0
    5.5985   -0.4375   26.2662 C   0  0  0  0  0  0  0  0  0  0  0  0
    5.2140   -1.8066   26.7305 C   0  0  0  0  0  0  0  0  0  0  0  0
    3.8952   -1.6625   26.1994 N   0  0  0  0  0  0  0  0  0  0  0  0
    4.2158   -0.3460   25.7200 C   0  0  0  0  0  0  0  0  0  0  0  0
    3.1599   -1.6783   26.9062 H   0  0  0  0  0  0  0  0  0  0  0  0
    3.5227   -2.3633   25.5587 H   0  0  0  0  0  0  0  0  0  0  0  0
  2  1  1  0  0  0
  2  3  1  0  0  0
  3  4  1  0  0  0
  4 19  1  0  0  0
  4  5  1  0  0  0
 19 20  2  0  0  0
 20 21  1  0  0  0
 21 22  2  0  0  0
 22 23  1  0  0  0
 23 24  2  0  0  0
 24 25  1  0  0  0
 25 26  2  0  0  0
 26 27  1  0  0  0
 27 28  2  0  0  0
 28 19  1  0  0  0
 28 23  1  0  0  0
  5  6  2  0  0  0
  7  5  1  0  0  0
  7  8  1  0  0  0
  7  2  1  0  0  0
  8  9  1  0  0  0
  9 29  1  0  0  0
  9 10  1  0  0  0
 29 30  1  0  0  0
 30 31  1  0  0  0
 31 32  1  0  0  0
 31 33  1  0  0  0
 31 34  1  0  0  0
 32 29  1  0  0  0
 10 11  2  0  0  0
 10 12  1  0  0  0
 12 13  2  0  0  0
 13 14  1  0  0  0
 14 15  2  0  0  0
 15 16  1  0  0  0
 15 17  1  0  0  0
 17 18  2  0  0  0
 18 12  1  0  0  0
 18  7  1  0  0  0
M  CHG 1  31   1
M  END
> <minimizedAffinity>
-6.42493

> <CNNscore>
0.4262103140

> <CNNaffinity>
6.0465049744

> <CNN_VS>
2.5770828724

> <CNNaffinity_variance>
0.0677837878
$$$$



34 39  0  0  0  0  0  0  0  0999 V2000
    7.7523    0.7090   23.7811 C   0  0  0  0  0  0  0  0  0  0  0  0
    7.2088   -0.6925   23.8892 C   0  0  0  0  0  0  0  0  0  0  0  0
    5.8910   -0.7347   23.0580 C   0  0  0  0  0  0  0  0  0  0  0  0
    6.3316   -0.6322   21.6937 N   0  0  0  0  0  0  0  0  0  0  0  0
    7.6777   -1.1671   21.7105 C   0  0  0  0  0  0  0  0  0  0  0  0
    8.5225   -1.2392   20.7929 O   0  0  0  0  0  0  0  0  0  0  0  0
    7.9826   -1.6803   23.0866 C   0  0  0  0  0  0  0  0  0  0  0  0
    9.4170   -1.6462   23.4674 C   0  0  0  0  0  0  0  0  0  0  0  0
    9.5825   -2.1875   24.7870 N   0  0  0  0  0  0  0  0  0  0  0  0
    9.0534   -3.5234   24.9883 C   0  0  0  0  0  0  0  0  0  0  0  0
    9.5390   -4.2772   25.8837 O   0  0  0  0  0  0  0  0  0  0  0  0
    7.9575   -3.9717   24.1403 C   0  0  0  0  0  0  0  0  0  0  0  0
    7.4956   -5.2604   24.2742 C   0  0  0  0  0  0  0  0  0  0  0  0
    6.5097   -5.7288   23.4324 C   0  0  0  0  0  0  0  0  0  0  0  0
    6.0185   -4.8700   22.4726 C   0  0  0  0  0  0  0  0  0  0  0  0
    5.0467   -5.3352   21.6424 F   0  0  0  0  0  0  0  0  0  0  0  0
    6.4922   -3.5805   22.3524 C   0  0  0  0  0  0  0  0  0  0  0  0
    7.4928   -3.0798   23.1974 C   0  0  0  0  0  0  0  0  0  0  0  0
    5.7651   -0.1081   20.5130 C   0  0  0  0  0  0  0  0  0  0  0  0
    6.0157   -0.7235   19.2771 C   0  0  0  0  0  0  0  0  0  0  0  0
    5.4721   -0.2656   18.1301 N   0  0  0  0  0  0  0  0  0  0  0  0
    4.6572    0.7960   18.0457 C   0  0  0  0  0  0  0  0  0  0  0  0
    4.3791    1.4406   19.2519 C   0  0  0  0  0  0  0  0  0  0  0  0
    3.5391    2.5188   19.1785 C   0  0  0  0  0  0  0  0  0  0  0  0
    3.1898    3.2193   20.3139 C   0  0  0  0  0  0  0  0  0  0  0  0
    3.7291    2.7731   21.5026 C   0  0  0  0  0  0  0  0  0  0  0  0
    4.5737    1.6890   21.5751 C   0  0  0  0  0  0  0  0  0  0  0  0
    4.9296    0.9848   20.4521 C   0  0  0  0  0  0  0  0  0  0  0  0
   10.2322   -1.5921   25.9053 C   0  0  0  0  0  0  0  0  0  0  0  0
   11.6846   -1.7458   25.8973 C   0  0  0  0  0  0  0  0  0  0  0  0
   12.5214   -2.7227   26.3861 C   0  0  0  0  0  0  0  0  0  0  0  0
   13.8155   -2.3342   26.0738 C   0  0  0  0  0  0  0  0  0  0  0  0
   13.7539   -1.1975   25.4394 O   0  0  0  0  0  0  0  0  0  0  0  0
   12.5216   -0.8398   25.3277 N   0  0  0  0  0  0  0  0  0  0  0  0
  2  1  1  0  0  0
  2  3  1  0  0  0
  3  4  1  0  0  0
  4 19  1  0  0  0
  4  5  1  0  0  0
 19 20  2  0  0  0
 20 21  1  0  0  0
 21 22  2  0  0  0
 22 23  1  0  0  0
 23 24  2  0  0  0
 24 25  1  0  0  0
 25 26  2  0  0  0
 26 27  1  0  0  0
 27 28  2  0  0  0
 28 19  1  0  0  0
 28 23  1  0  0  0
  5  6  2  0  0  0
  7  5  1  0  0  0
  7  8  1  0  0  0
  7  2  1  0  0  0
  8  9  1  0  0  0
  9 29  1  0  0  0
  9 10  1  0  0  0
 29 30  1  0  0  0
 30 31  1  0  0  0
 31 32  2  0  0  0
 32 33  1  0  0  0
 33 34  1  0  0  0
 34 30  2  0  0  0
 10 11  2  0  0  0
 10 12  1  0  0  0
 12 13  2  0  0  0
 13 14  1  0  0  0
 14 15  2  0  0  0
 15 16  1  0  0  0
 15 17  1  0  0  0
 17 18  2  0  0  0
 18 12  1  0  0  0
 18  7  1  0  0  0
M  END
> <minimizedAffinity>
-9.40601

> <CNNscore>
0.5704196095

> <CNNaffinity>
6.5794930458

> <CNN_VS>
3.7530717850

> <CNNaffinity_variance>
0.0470280945
$$$$



42 47  0  0  0  0  0  0  0  0999 V2000
    7.1440    0.1629   21.7489 N   0  0  0  0  0  0  0  0  0  0  0  0
    7.0668    0.7539   23.0697 C   0  0  0  0  0  0  0  0  0  0  0  0
    5.7089    1.2506   23.4490 C   0  0  0  0  0  0  0  0  0  0  0  0
    5.8986    2.2893   24.5090 C   0  0  0  0  0  0  0  0  0  0  0  0
    6.5148    3.3960   24.4148 O   0  0  0  0  0  0  0  0  0  0  0  0
    5.2721    1.8774   25.7177 N   0  0  0  0  0  0  0  0  0  0  0  0
    4.3009    0.8583   25.4024 C   0  0  0  0  0  0  0  0  0  0  0  0
    4.8780    0.2187   24.1657 C   0  0  0  0  0  0  0  0  0  0  0  0
    5.7245   -0.9521   24.6695 C   0  0  0  0  0  0  0  0  0  0  0  0
    4.9694    1.8654   22.3187 C   0  0  0  0  0  0  0  0  0  0  0  0
    3.9035    2.7097   22.5797 C   0  0  0  0  0  0  0  0  0  0  0  0
    3.1891    3.2981   21.5458 C   0  0  0  0  0  0  0  0  0  0  0  0
    1.8341    4.3725   21.8389 Cl  0  0  0  0  0  0  0  0  0  0  0  0
    3.5123    3.0656   20.2110 C   0  0  0  0  0  0  0  0  0  0  0  0
    4.5744    2.2243   19.9590 C   0  0  0  0  0  0  0  0  0  0  0  0
    5.2774    1.6450   20.9941 C   0  0  0  0  0  0  0  0  0  0  0  0
    6.4010    0.7652   20.6875 C   0  0  0  0  0  0  0  0  0  0  0  0
    6.7671    0.4959   19.5131 O   0  0  0  0  0  0  0  0  0  0  0  0
    5.5129    2.3455   27.0343 C   0  0  0  0  0  0  0  0  0  0  0  0
    6.5014    1.7318   27.7708 C   0  0  0  0  0  0  0  0  0  0  0  0
    6.7809    2.1349   29.0444 N   0  0  0  0  0  0  0  0  0  0  0  0
    6.0952    3.1539   29.6292 C   0  0  0  0  0  0  0  0  0  0  0  0
    5.0856    3.8019   28.9159 C   0  0  0  0  0  0  0  0  0  0  0  0
    4.3612    4.8468   29.4756 C   0  0  0  0  0  0  0  0  0  0  0  0
    3.3616    5.4687   28.7328 C   0  0  0  0  0  0  0  0  0  0  0  0
    3.0919    5.0473   27.4435 C   0  0  0  0  0  0  0  0  0  0  0  0
    3.8160    4.0014   26.8822 C   0  0  0  0  0  0  0  0  0  0  0  0
    4.8147    3.3783   27.6210 C   0  0  0  0  0  0  0  0  0  0  0  0
    7.9644   -1.0273   21.4817 C   0  0  0  0  0  0  0  0  0  0  0  0
   10.3611   -1.5754   22.0729 N   0  0  0  0  0  0  0  0  0  0  0  0
    9.3859   -0.6102   21.7692 C   0  0  0  0  0  0  0  0  0  0  0  0
    9.6047    0.6206   21.7136 O   0  0  0  0  0  0  0  0  0  0  0  0
   10.0734   -2.5168   22.0904 H   0  0  0  0  0  0  0  0  0  0  0  0
   11.7456   -1.3037   22.3605 C   0  0  0  0  0  0  0  0  0  0  0  0
   11.2633   -2.8763   25.7598 C   0  0  0  0  0  0  0  0  0  0  0  0
   12.5186   -2.8148   26.3189 C   0  0  0  0  0  0  0  0  0  0  0  0
   13.5397   -2.2487   25.5785 C   0  0  0  0  0  0  0  0  0  0  0  0
   13.2822   -1.7624   24.3084 C   0  0  0  0  0  0  0  0  0  0  0  0
   12.0419   -1.8100   23.7246 C   0  0  0  0  0  0  0  0  0  0  0  0
   11.0257   -2.3859   24.4914 C   0  0  0  0  0  0  0  0  0  0  0  0
   10.5595   -4.3926   27.4919 C   0  0  0  0  0  0  0  0  0  0  0  0
   10.2373   -3.4354   26.4816 O   0  0  0  0  0  0  0  0  0  0  0  0
 41 42  1  0  0  0
 42 35  1  0  0  0
 35 36  2  0  0  0
 36 37  1  0  0  0
 37 38  2  0  0  0
 38 39  1  0  0  0
 39 34  1  0  0  0
 39 40  2  0  0  0
 34 30  1  0  0  0
 30 31  1  0  0  0
 30 33  1  0  0  0
 31 32  2  0  0  0
 31 29  1  0  0  0
 29  1  1  0  0  0
  1  2  1  0  0  0
  3  2  1  0  0  0
  3  4  1  0  0  0
  3 10  1  0  0  0
  4  5  2  0  0  0
  4  6  1  0  0  0
  6 19  1  0  0  0
  6  7  1  0  0  0
 19 20  2  0  0  0
 20 21  1  0  0  0
 21 22  2  0  0  0
 22 23  1  0  0  0
 23 24  2  0  0  0
 24 25  1  0  0  0
 25 26  2  0  0  0
 26 27  1  0  0  0
 27 28  2  0  0  0
 28 19  1  0  0  0
 28 23  1  0  0  0
  7  8  1  0  0  0
  8  9  1  0  0  0
  8  3  1  0  0  0
 10 11  2  0  0  0
 11 12  1  0  0  0
 12 13  1  0  0  0
 12 14  2  0  0  0
 14 15  1  0  0  0
 15 16  2  0  0  0
 16 17  1  0  0  0
 16 10  1  0  0  0
 17 18  2  0  0  0
 17  1  1  0  0  0
 40 35  1  0  0  0
M  END
> <minimizedAffinity>
-7.40436

> <CNNscore>
0.3689179718

> <CNNaffinity>
6.7614417076

> <CNN_VS>
2.4944174290

> <CNNaffinity_variance>
0.1099378094
$$$$



34 38  0  0  0  0  0  0  0  0999 V2000
    5.7981    1.0893   23.9282 C   0  0  0  0  0  0  0  0  0  0  0  0
    6.4542   -0.2778   23.7287 C   0  0  0  0  0  0  0  0  0  0  0  0
    5.7273   -0.9465   22.6153 C   0  0  0  0  0  0  0  0  0  0  0  0
    6.3722   -0.3946   21.4302 N   0  0  0  0  0  0  0  0  0  0  0  0
    7.7362   -0.2687   21.7768 C   0  0  0  0  0  0  0  0  0  0  0  0
    8.7114   -0.2873   20.9507 O   0  0  0  0  0  0  0  0  0  0  0  0
    7.8516   -0.1109   23.2611 C   0  0  0  0  0  0  0  0  0  0  0  0
    8.3024    1.2867   23.6108 C   0  0  0  0  0  0  0  0  0  0  0  0
    9.6726    1.5372   23.1949 N   0  0  0  0  0  0  0  0  0  0  0  0
   10.6536    0.6284   23.6999 C   0  0  0  0  0  0  0  0  0  0  0  0
   11.8475    0.9828   23.8560 O   0  0  0  0  0  0  0  0  0  0  0  0
   10.1703   -0.7206   24.0144 C   0  0  0  0  0  0  0  0  0  0  0  0
   11.0978   -1.6032   24.5208 C   0  0  0  0  0  0  0  0  0  0  0  0
   10.7432   -2.8893   24.8659 C   0  0  0  0  0  0  0  0  0  0  0  0
    9.4349   -3.2638   24.6889 C   0  0  0  0  0  0  0  0  0  0  0  0
    8.9517   -4.9043   25.1224 Cl  0  0  0  0  0  0  0  0  0  0  0  0
    8.5061   -2.3681   24.1775 C   0  0  0  0  0  0  0  0  0  0  0  0
    8.8298   -1.0757   23.8228 C   0  0  0  0  0  0  0  0  0  0  0  0
    5.8241   -0.0411   20.1798 C   0  0  0  0  0  0  0  0  0  0  0  0
    6.1616   -0.6512   18.9896 C   0  0  0  0  0  0  0  0  0  0  0  0
    5.6063   -0.2770   17.8033 N   0  0  0  0  0  0  0  0  0  0  0  0
    4.6978    0.7154   17.7617 C   0  0  0  0  0  0  0  0  0  0  0  0
    4.3080    1.3778   18.9252 C   0  0  0  0  0  0  0  0  0  0  0  0
    3.3656    2.4028   18.8598 C   0  0  0  0  0  0  0  0  0  0  0  0
    2.9827    3.0596   20.0331 C   0  0  0  0  0  0  0  0  0  0  0  0
    3.5540    2.6663   21.2120 C   0  0  0  0  0  0  0  0  0  0  0  0
    4.4984    1.6392   21.2774 C   0  0  0  0  0  0  0  0  0  0  0  0
    4.8816    0.9844   20.1161 C   0  0  0  0  0  0  0  0  0  0  0  0
   10.0658    2.6195   22.3332 C   0  0  0  0  0  0  0  0  0  0  0  0
    9.7741    3.9746   22.9291 C   0  0  0  0  0  0  0  0  0  0  0  0
   10.9625    4.7232   23.1858 N   0  0  0  0  0  0  0  0  0  0  0  0
   12.1267    4.2287   22.4669 C   0  0  0  0  0  0  0  0  0  0  0  0
   10.8788    6.1313   22.8685 C   0  0  0  0  0  0  0  0  0  0  0  0
   11.0640    4.5995   24.1932 H   0  0  0  0  0  0  0  0  0  0  0  0
  2  1  1  0  0  0
  2  3  1  0  0  0
  3  4  1  0  0  0
  4 19  1  0  0  0
  4  5  1  0  0  0
 19 20  2  0  0  0
 20 21  1  0  0  0
 21 22  2  0  0  0
 22 23  1  0  0  0
 23 24  2  0  0  0
 24 25  1  0  0  0
 25 26  2  0  0  0
 26 27  1  0  0  0
 27 28  2  0  0  0
 28 19  1  0  0  0
 28 23  1  0  0  0
  5  6  2  0  0  0
  7  5  1  0  0  0
  7  8  1  0  0  0
  7  2  1  0  0  0
  8  9  1  0  0  0
  9 29  1  0  0  0
  9 10  1  0  0  0
 29 30  1  0  0  0
 30 31  1  0  0  0
 31 32  1  0  0  0
 31 33  1  0  0  0
 31 34  1  0  0  0
 10 11  2  0  0  0
 10 12  1  0  0  0
 12 13  2  0  0  0
 13 14  1  0  0  0
 14 15  2  0  0  0
 15 16  1  0  0  0
 15 17  1  0  0  0
 17 18  2  0  0  0
 18 12  1  0  0  0
 18  7  1  0  0  0
M  CHG 1  31   1
M  END
> <minimizedAffinity>
-8.61337

> <CNNscore>
0.5448960066

> <CNNaffinity>
6.5762047768

> <CNN_VS>
3.5833477974

> <CNNaffinity_variance>
0.0523621626
$$$$



33 36  0  0  0  0  0  0  0  0999 V2000
    6.8856   -1.0295   23.6875 N   0  0  0  0  0  0  0  0  0  0  0  0
    6.0471   -0.1941   22.9013 C   0  0  0  0  0  0  0  0  0  0  0  0
    4.8221   -0.2142   23.1983 O   0  0  0  0  0  0  0  0  0  0  0  0
   11.0024   -1.0108   23.2246 C   0  0  0  0  0  0  0  0  0  0  0  0
   10.4747   -0.4978   24.3877 C   0  0  0  0  0  0  0  0  0  0  0  0
    9.1014   -0.4743   24.6212 C   0  0  0  0  0  0  0  0  0  0  0  0
    8.3125   -0.9971   23.6206 C   0  0  0  0  0  0  0  0  0  0  0  0
    8.8502   -1.5195   22.4403 C   0  0  0  0  0  0  0  0  0  0  0  0
   10.2039   -1.5413   22.2099 C   0  0  0  0  0  0  0  0  0  0  0  0
   12.8236   -1.7431   21.6889 C   0  0  0  0  0  0  0  0  0  0  0  0
   12.4728   -1.0246   22.9670 C   0  0  0  0  0  0  0  0  0  0  0  0
   13.0475    0.3617   22.9226 C   0  0  0  0  0  0  0  0  0  0  0  0
   13.0687   -1.7171   24.1379 C   0  0  0  0  0  0  0  0  0  0  0  0
   13.5519   -2.2523   25.0610 N   0  0  0  0  0  0  0  0  0  0  0  0
    6.3487   -2.0397   24.6219 C   0  0  0  0  0  0  0  0  0  0  0  0
    6.6063   -3.4100   24.0644 C   0  0  0  0  0  0  0  0  0  0  0  0
    7.5208   -4.2005   24.7826 C   0  0  0  0  0  0  0  0  0  0  0  0
    7.8393   -5.4543   24.3711 C   0  0  0  0  0  0  0  0  0  0  0  0
    7.2484   -5.9446   23.2294 C   0  0  0  0  0  0  0  0  0  0  0  0
    6.3369   -5.1613   22.5095 C   0  0  0  0  0  0  0  0  0  0  0  0
    5.6036   -5.8213   21.0627 Cl  0  0  0  0  0  0  0  0  0  0  0  0
    6.0101   -3.8869   22.9234 C   0  0  0  0  0  0  0  0  0  0  0  0
    6.6440    0.6143   21.8301 C   0  0  0  0  0  0  0  0  0  0  0  0
    5.9578    0.6201   20.5347 C   0  0  0  0  0  0  0  0  0  0  0  0
    6.4418   -0.2878   19.5717 C   0  0  0  0  0  0  0  0  0  0  0  0
    5.9103   -0.3634   18.3433 N   0  0  0  0  0  0  0  0  0  0  0  0
    4.8882    0.4088   17.9389 C   0  0  0  0  0  0  0  0  0  0  0  0
    4.3912    1.3158   18.8795 C   0  0  0  0  0  0  0  0  0  0  0  0
    3.3310    2.0856   18.4454 C   0  0  0  0  0  0  0  0  0  0  0  0
    2.7926    2.9892   19.3465 C   0  0  0  0  0  0  0  0  0  0  0  0
    3.3369    3.0779   20.6318 C   0  0  0  0  0  0  0  0  0  0  0  0
    4.3912    2.2996   21.0364 C   0  0  0  0  0  0  0  0  0  0  0  0
    4.9194    1.4140   20.1497 C   0  0  0  0  0  0  0  0  0  0  0  0
 10 11  1  0  0  0
 11 12  1  0  0  0
 11 13  1  0  0  0
 11  4  1  0  0  0
 13 14  3  0  0  0
  4  5  2  0  0  0
  5  6  1  0  0  0
  6  7  2  0  0  0
  7  1  1  0  0  0
  7  8  1  0  0  0
  1 15  1  0  0  0
  1  2  1  0  0  0
 15 16  1  0  0  0
 16 17  2  0  0  0
 17 18  1  0  0  0
 18 19  2  0  0  0
 19 20  1  0  0  0
 20 21  1  0  0  0
 20 22  2  0  0  0
 22 16  1  0  0  0
  2  3  2  0  0  0
  2 23  1  0  0  0
 23 24  1  0  0  0
 24 25  2  0  0  0
 25 26  1  0  0  0
 26 27  2  0  0  0
 27 28  1  0  0  0
 28 29  2  0  0  0
 29 30  1  0  0  0
 30 31  2  0  0  0
 31 32  1  0  0  0
 32 33  2  0  0  0
 33 24  1  0  0  0
 33 28  1  0  0  0
  8  9  2  0  0  0
  9  4  1  0  0  0
M  END
> <minimizedAffinity>
-7.74691

> <CNNscore>
0.7306471467

> <CNNaffinity>
7.2404108047

> <CNN_VS>
5.2901854515

> <CNNaffinity_variance>
0.0559863560
$$$$



40 41  0  0  0  0  0  0  0  0999 V2000
    6.6940   -1.2457   24.3753 C   0  0  0  0  0  0  0  0  0  0  0  0
    6.9428   -0.9216   25.5933 O   0  0  0  0  0  0  0  0  0  0  0  0
    6.6617   -2.6320   24.0917 N   0  0  0  0  0  0  0  0  0  0  0  0
    6.3890   -3.3521   22.8635 C   0  0  0  0  0  0  0  0  0  0  0  0
    6.6332   -4.8292   23.2242 C   0  0  0  0  0  0  0  0  0  0  0  0
    6.1811   -4.8025   24.6859 C   0  0  0  0  0  0  0  0  0  0  0  0
    6.9649   -3.6167   25.1615 C   0  0  0  0  0  0  0  0  0  0  0  0
    5.8364   -5.7630   22.3784 C   0  0  0  0  0  0  0  0  0  0  0  0
    5.4765   -5.0546   21.2350 F   0  0  0  0  0  0  0  0  0  0  0  0
    6.6919   -6.7631   21.9545 F   0  0  0  0  0  0  0  0  0  0  0  0
    4.7568   -6.3299   22.9902 F   0  0  0  0  0  0  0  0  0  0  0  0
    8.4082   -3.9172   25.1922 C   0  0  0  0  0  0  0  0  0  0  0  0
    8.7590   -5.0740   24.8074 O   0  0  0  0  0  0  0  0  0  0  0  0
    9.3542   -2.9502   25.6351 N   0  0  0  0  0  0  0  0  0  0  0  0
    9.0534   -2.0598   25.9284 H   0  0  0  0  0  0  0  0  0  0  0  0
   10.8152   -3.2992   25.6513 C   0  0  0  0  0  0  0  0  0  0  0  0
   11.1207   -3.9578   26.9715 C   0  0  0  0  0  0  0  0  0  0  0  0
   11.1550   -5.4302   26.7884 N   0  0  0  0  0  0  0  0  0  0  0  0
   10.2493   -5.7515   26.4465 H   0  0  0  0  0  0  0  0  0  0  0  0
   11.3602   -5.8791   27.6810 H   0  0  0  0  0  0  0  0  0  0  0  0
   11.8790   -5.6719   26.1118 H   0  0  0  0  0  0  0  0  0  0  0  0
   11.6126   -2.0936   25.3638 C   0  0  0  0  0  0  0  0  0  0  0  0
   11.7245   -1.6059   23.9755 C   0  0  0  0  0  0  0  0  0  0  0  0
   13.0362   -1.2006   23.4434 C   0  0  0  0  0  0  0  0  0  0  0  0
   12.8172    0.0661   22.6107 C   0  0  0  0  0  0  0  0  0  0  0  0
   11.3875    0.2092   22.5887 N   0  0  0  0  0  0  0  0  0  0  0  0
   10.8728   -0.3980   23.7606 C   0  0  0  0  0  0  0  0  0  0  0  0
    9.8945    0.0053   24.4712 O   0  0  0  0  0  0  0  0  0  0  0  0
   10.8596    0.6505   21.8845 H   0  0  0  0  0  0  0  0  0  0  0  0
    6.4787   -0.1233   23.4466 C   0  0  0  0  0  0  0  0  0  0  0  0
    7.6569    0.0437   21.3098 C   0  0  0  0  0  0  0  0  0  0  0  0
    8.3625    0.9889   21.7597 O   0  0  0  0  0  0  0  0  0  0  0  0
    6.6538   -0.5991   22.1044 N   0  0  0  0  0  0  0  0  0  0  0  0
    6.1080   -1.3355   21.7452 H   0  0  0  0  0  0  0  0  0  0  0  0
    6.7709   -0.2827   19.0550 C   0  0  0  0  0  0  0  0  0  0  0  0
    7.8137   -0.4343   20.0023 O   0  0  0  0  0  0  0  0  0  0  0  0
    5.1848    0.5348   23.7240 C   0  0  0  0  0  0  0  0  0  0  0  0
    4.4258    0.5856   22.4252 C   0  0  0  0  0  0  0  0  0  0  0  0
    4.3132   -0.2593   24.6940 C   0  0  0  0  0  0  0  0  0  0  0  0
    5.3168    1.9792   24.1798 C   0  0  0  0  0  0  0  0  0  0  0  0
 35 36  1  0  0  0
 36 31  1  0  0  0
 31 32  2  0  0  0
 31 33  1  0  0  0
 33 34  1  0  0  0
 30 33  1  0  0  0
 30  1  1  0  0  0
 30 37  1  0  0  0
  1  2  2  0  0  0
  1  3  1  0  0  0
  3  4  1  0  0  0
  4  5  1  0  0  0
  5  8  1  0  0  0
  5  6  1  0  0  0
  8  9  1  0  0  0
  8 10  1  0  0  0
  8 11  1  0  0  0
  6  7  1  0  0  0
  7 12  1  0  0  0
  7  3  1  0  0  0
 12 13  2  0  0  0
 12 14  1  0  0  0
 14 16  1  0  0  0
 14 15  1  0  0  0
 16 17  1  0  0  0
 16 22  1  0  0  0
 17 18  1  0  0  0
 18 19  1  0  0  0
 18 20  1  0  0  0
 18 21  1  0  0  0
 23 22  1  0  0  0
 23 24  1  0  0  0
 24 25  1  0  0  0
 25 26  1  0  0  0
 26 27  1  0  0  0
 26 29  1  0  0  0
 27 28  2  0  0  0
 27 23  1  0  0  0
 37 38  1  0  0  0
 37 39  1  0  0  0
 37 40  1  0  0  0
M  CHG 1  18   1
M  END
> <minimizedAffinity>
-6.67663

> <CNNscore>
0.4966681600

> <CNNaffinity>
6.7476234436

> <CNN_VS>
3.3513298035

> <CNNaffinity_variance>
0.1470743418
$$$$



20 22  0  0  0  0  0  0  0  0999 V2000
    9.0842   -2.6753   23.4556 C   0  0  0  0  0  0  0  0  0  0  0  0
   10.4444   -2.1050   23.4107 C   0  0  0  0  0  0  0  0  0  0  0  0
   10.8665   -1.3007   22.3576 C   0  0  0  0  0  0  0  0  0  0  0  0
   12.0997   -0.7765   22.2913 N   0  0  0  0  0  0  0  0  0  0  0  0
   13.0273   -0.9935   23.2493 C   0  0  0  0  0  0  0  0  0  0  0  0
   12.6384   -1.7965   24.3229 C   0  0  0  0  0  0  0  0  0  0  0  0
   13.5788   -2.0328   25.3223 C   0  0  0  0  0  0  0  0  0  0  0  0
   13.2557   -2.8234   26.4198 C   0  0  0  0  0  0  0  0  0  0  0  0
   11.9714   -3.3879   26.5202 C   0  0  0  0  0  0  0  0  0  0  0  0
   11.0597   -3.1385   25.5152 C   0  0  0  0  0  0  0  0  0  0  0  0
   11.3772   -2.3456   24.4124 C   0  0  0  0  0  0  0  0  0  0  0  0
    5.3325   -3.4506   28.3891 C   0  0  0  0  0  0  0  0  0  0  0  0
    5.4328   -2.8521   27.0046 C   0  0  0  0  0  0  0  0  0  0  0  0
    6.2895   -3.7723   26.1632 C   0  0  0  0  0  0  0  0  0  0  0  0
    7.6780   -3.1146   26.0525 C   0  0  0  0  0  0  0  0  0  0  0  0
    7.4429   -1.9487   25.2220 N   0  0  0  0  0  0  0  0  0  0  0  0
    8.0608   -1.7295   23.9631 C   0  0  0  0  0  0  0  0  0  0  0  0
    7.7910   -0.7475   23.2192 O   0  0  0  0  0  0  0  0  0  0  0  0
    6.5173   -0.9564   25.7936 C   0  0  0  0  0  0  0  0  0  0  0  0
    6.0144   -1.4531   27.1347 C   0  0  0  0  0  0  0  0  0  0  0  0
 12 13  1  0  0  0
 13 14  1  0  0  0
 14 15  1  0  0  0
 15 16  1  0  0  0
 16 17  1  0  0  0
 16 19  1  0  0  0
 17 18  2  0  0  0
 17  1  1  0  0  0
  1  2  1  0  0  0
  2  3  2  0  0  0
  3  4  1  0  0  0
  4  5  2  0  0  0
  5  6  1  0  0  0
  6  7  2  0  0  0
  7  8  1  0  0  0
  8  9  2  0  0  0
  9 10  1  0  0  0
 10 11  2  0  0  0
 11  2  1  0  0  0
 11  6  1  0  0  0
 19 20  1  0  0  0
 20 13  1  0  0  0
M  END
> <minimizedAffinity>
-6.40051

> <CNNscore>
0.8324014544

> <CNNaffinity>
5.5624122620

> <CNN_VS>
4.6301598549

> <CNNaffinity_variance>
0.0991023704
$$$$



35 40  0  0  0  0  0  0  0  0999 V2000
    5.6283    0.4065   25.6912 C   0  0  0  0  0  0  0  0  0  0  0  0
    6.8862   -0.1042   25.0410 C   0  0  0  0  0  0  0  0  0  0  0  0
    7.6057   -1.0210   26.0390 C   0  0  0  0  0  0  0  0  0  0  0  0
    8.4433   -1.8639   25.2071 N   0  0  0  0  0  0  0  0  0  0  0  0
    8.0003   -1.7140   23.8417 C   0  0  0  0  0  0  0  0  0  0  0  0
    8.6320   -2.1078   22.8530 O   0  0  0  0  0  0  0  0  0  0  0  0
    6.6650   -1.0072   23.8830 C   0  0  0  0  0  0  0  0  0  0  0  0
    5.6628   -2.0925   24.1338 C   0  0  0  0  0  0  0  0  0  0  0  0
    5.8223   -3.0719   23.0411 N   0  0  0  0  0  0  0  0  0  0  0  0
    5.5915   -2.5480   21.7349 C   0  0  0  0  0  0  0  0  0  0  0  0
    5.1321   -3.2866   20.8512 O   0  0  0  0  0  0  0  0  0  0  0  0
    5.9281   -1.1355   21.5390 C   0  0  0  0  0  0  0  0  0  0  0  0
    5.7044   -0.6050   20.2947 C   0  0  0  0  0  0  0  0  0  0  0  0
    5.9761    0.7176   20.0032 C   0  0  0  0  0  0  0  0  0  0  0  0
    6.4873    1.4818   21.0356 C   0  0  0  0  0  0  0  0  0  0  0  0
    6.7798    2.8040   20.8158 F   0  0  0  0  0  0  0  0  0  0  0  0
    6.7118    0.9459   22.2866 C   0  0  0  0  0  0  0  0  0  0  0  0
    6.4388   -0.3894   22.5841 C   0  0  0  0  0  0  0  0  0  0  0  0
    9.4853   -2.6623   25.6955 C   0  0  0  0  0  0  0  0  0  0  0  0
    9.3197   -3.8594   26.3621 C   0  0  0  0  0  0  0  0  0  0  0  0
   10.3979   -4.5553   26.7937 N   0  0  0  0  0  0  0  0  0  0  0  0
   11.6533   -4.1161   26.5938 C   0  0  0  0  0  0  0  0  0  0  0  0
   11.8870   -2.9255   25.9332 C   0  0  0  0  0  0  0  0  0  0  0  0
   13.1556   -2.4290   25.7016 C   0  0  0  0  0  0  0  0  0  0  0  0
   13.3388   -1.2328   25.0359 C   0  0  0  0  0  0  0  0  0  0  0  0
   12.2484   -0.5031   24.5850 C   0  0  0  0  0  0  0  0  0  0  0  0
   11.0072   -1.0261   24.8326 C   0  0  0  0  0  0  0  0  0  0  0  0
   10.7869   -2.2162   25.4934 C   0  0  0  0  0  0  0  0  0  0  0  0
    6.1734   -4.4216   23.3307 C   0  0  0  0  0  0  0  0  0  0  0  0
    4.9886   -5.1932   23.7271 C   0  0  0  0  0  0  0  0  0  0  0  0
    4.1996   -5.8932   22.8068 C   0  0  0  0  0  0  0  0  0  0  0  0
    3.1625   -6.4965   23.4491 C   0  0  0  0  0  0  0  0  0  0  0  0
    3.3152   -6.1664   24.7629 N   0  0  0  0  0  0  0  0  0  0  0  0
    4.3922   -5.4010   24.9048 N   0  0  0  0  0  0  0  0  0  0  0  0
    4.8040   -4.8782   26.1888 C   0  0  0  0  0  0  0  0  0  0  0  0
  2  1  1  0  0  0
  2  3  1  0  0  0
  3  4  1  0  0  0
  4 19  1  0  0  0
  4  5  1  0  0  0
 19 20  2  0  0  0
 20 21  1  0  0  0
 21 22  2  0  0  0
 22 23  1  0  0  0
 23 24  2  0  0  0
 24 25  1  0  0  0
 25 26  2  0  0  0
 26 27  1  0  0  0
 27 28  2  0  0  0
 28 19  1  0  0  0
 28 23  1  0  0  0
  5  6  2  0  0  0
  7  5  1  0  0  0
  7  8  1  0  0  0
  7  2  1  0  0  0
  8  9  1  0  0  0
  9 29  1  0  0  0
  9 10  1  0  0  0
 29 30  1  0  0  0
 30 31  2  0  0  0
 31 32  1  0  0  0
 32 33  2  0  0  0
 33 34  1  0  0  0
 34 35  1  0  0  0
 34 30  1  0  0  0
 10 11  2  0  0  0
 10 12  1  0  0  0
 12 13  2  0  0  0
 13 14  1  0  0  0
 14 15  2  0  0  0
 15 16  1  0  0  0
 15 17  1  0  0  0
 17 18  2  0  0  0
 18 12  1  0  0  0
 18  7  1  0  0  0
M  END
> <minimizedAffinity>
-8.62198

> <CNNscore>
0.4199385047

> <CNNaffinity>
6.5253310204

> <CNN_VS>
2.7402377129

> <CNNaffinity_variance>
0.0657279938
$$$$



35 40  0  0  0  0  0  0  0  0999 V2000
    8.8861    2.1733   23.6154 N   0  0  0  0  0  0  0  0  0  0  0  0
    8.3152    0.8599   23.8344 C   0  0  0  0  0  0  0  0  0  0  0  0
    8.7759   -0.0372   22.7160 C   0  0  0  0  0  0  0  0  0  0  0  0
    8.2402    0.6036   21.4587 C   0  0  0  0  0  0  0  0  0  0  0  0
    8.7989    1.5442   20.8171 O   0  0  0  0  0  0  0  0  0  0  0  0
    7.0086   -0.0082   21.0988 N   0  0  0  0  0  0  0  0  0  0  0  0
    6.7109   -0.9775   22.1339 C   0  0  0  0  0  0  0  0  0  0  0  0
    8.0975   -1.3508   22.6852 C   0  0  0  0  0  0  0  0  0  0  0  0
    7.9342   -1.9915   24.0390 C   0  0  0  0  0  0  0  0  0  0  0  0
   10.2356   -0.0371   22.6355 C   0  0  0  0  0  0  0  0  0  0  0  0
   10.9878   -1.1187   22.1691 C   0  0  0  0  0  0  0  0  0  0  0  0
   12.3649   -1.0772   22.0947 C   0  0  0  0  0  0  0  0  0  0  0  0
   13.0958   -2.1325   21.6398 F   0  0  0  0  0  0  0  0  0  0  0  0
   13.0774    0.0402   22.4786 C   0  0  0  0  0  0  0  0  0  0  0  0
   12.3549    1.1126   22.9399 C   0  0  0  0  0  0  0  0  0  0  0  0
   10.9919    1.0689   23.0129 C   0  0  0  0  0  0  0  0  0  0  0  0
   10.3065    2.2500   23.5322 C   0  0  0  0  0  0  0  0  0  0  0  0
   10.9183    3.2958   23.8941 O   0  0  0  0  0  0  0  0  0  0  0  0
    6.1728    0.2214   19.9724 C   0  0  0  0  0  0  0  0  0  0  0  0
    6.4024   -0.5217   18.8200 C   0  0  0  0  0  0  0  0  0  0  0  0
    5.6661   -0.3753   17.7084 N   0  0  0  0  0  0  0  0  0  0  0  0
    4.6496    0.5207   17.6645 C   0  0  0  0  0  0  0  0  0  0  0  0
    4.3933    1.2797   18.7995 C   0  0  0  0  0  0  0  0  0  0  0  0
    3.3614    2.1998   18.7793 C   0  0  0  0  0  0  0  0  0  0  0  0
    3.0750    2.9748   19.8922 C   0  0  0  0  0  0  0  0  0  0  0  0
    3.8559    2.8006   21.0308 C   0  0  0  0  0  0  0  0  0  0  0  0
    4.8917    1.8879   21.0743 C   0  0  0  0  0  0  0  0  0  0  0  0
    5.1462    1.1408   19.9596 C   0  0  0  0  0  0  0  0  0  0  0  0
    8.0824    3.3697   23.4904 C   0  0  0  0  0  0  0  0  0  0  0  0
    5.7192    3.0915   27.8419 C   0  0  0  0  0  0  0  0  0  0  0  0
    5.8991    3.1897   26.3654 C   0  0  0  0  0  0  0  0  0  0  0  0
    7.1355    3.2201   25.8010 N   0  0  0  0  0  0  0  0  0  0  0  0
    6.9428    3.3113   24.4622 C   0  0  0  0  0  0  0  0  0  0  0  0
    5.6028    3.3349   24.2327 C   0  0  0  0  0  0  0  0  0  0  0  0
    5.0123    3.2591   25.4140 O   0  0  0  0  0  0  0  0  0  0  0  0
 30 31  1  0  0  0
 31 32  2  0  0  0
 32 33  1  0  0  0
 33 29  1  0  0  0
 33 34  2  0  0  0
 29  1  1  0  0  0
  1  2  1  0  0  0
  3  2  1  0  0  0
  3  4  1  0  0  0
  3 10  1  0  0  0
  4  5  2  0  0  0
  4  6  1  0  0  0
  6 19  1  0  0  0
  6  7  1  0  0  0
 19 20  2  0  0  0
 20 21  1  0  0  0
 21 22  2  0  0  0
 22 23  1  0  0  0
 23 24  2  0  0  0
 24 25  1  0  0  0
 25 26  2  0  0  0
 26 27  1  0  0  0
 27 28  2  0  0  0
 28 19  1  0  0  0
 28 23  1  0  0  0
  7  8  1  0  0  0
  8  9  1  0  0  0
  8  3  1  0  0  0
 10 11  2  0  0  0
 11 12  1  0  0  0
 12 13  1  0  0  0
 12 14  2  0  0  0
 14 15  1  0  0  0
 15 16  2  0  0  0
 16 17  1  0  0  0
 16 10  1  0  0  0
 17 18  2  0  0  0
 17  1  1  0  0  0
 34 35  1  0  0  0
 35 31  1  0  0  0
M  END
> <minimizedAffinity>
-8.32348

> <CNNscore>
0.7026841640

> <CNNaffinity>
6.7491354942

> <CNN_VS>
4.7425107956

> <CNNaffinity_variance>
0.0510408357
$$$$



34 39  0  0  0  0  0  0  0  0999 V2000
    6.0180   -4.7684   25.0634 C   0  0  0  0  0  0  0  0  0  0  0  0
    7.0915   -3.8349   25.4708 C   0  0  0  0  0  0  0  0  0  0  0  0
    8.4391   -4.0923   24.8169 C   0  0  0  0  0  0  0  0  0  0  0  0
    9.1439   -2.8855   25.2023 N   0  0  0  0  0  0  0  0  0  0  0  0
    8.1985   -1.8324   25.4840 C   0  0  0  0  0  0  0  0  0  0  0  0
    8.4381   -0.7168   25.9962 O   0  0  0  0  0  0  0  0  0  0  0  0
    6.8878   -2.3977   25.0194 C   0  0  0  0  0  0  0  0  0  0  0  0
    6.8691   -2.2895   23.5259 C   0  0  0  0  0  0  0  0  0  0  0  0
    6.2100   -1.1168   23.0081 N   0  0  0  0  0  0  0  0  0  0  0  0
    5.0689   -0.5770   23.6559 C   0  0  0  0  0  0  0  0  0  0  0  0
    4.3331    0.1885   23.0177 O   0  0  0  0  0  0  0  0  0  0  0  0
    4.8486   -0.9722   25.0448 C   0  0  0  0  0  0  0  0  0  0  0  0
    3.7417   -0.4379   25.6685 C   0  0  0  0  0  0  0  0  0  0  0  0
    3.4294   -0.7288   26.9795 C   0  0  0  0  0  0  0  0  0  0  0  0
    4.2802   -1.5849   27.6444 C   0  0  0  0  0  0  0  0  0  0  0  0
    4.0037   -1.8982   28.9486 F   0  0  0  0  0  0  0  0  0  0  0  0
    5.4058   -2.1280   27.0090 C   0  0  0  0  0  0  0  0  0  0  0  0
    5.7236   -1.8447   25.7071 C   0  0  0  0  0  0  0  0  0  0  0  0
   10.5783   -2.7866   25.2824 C   0  0  0  0  0  0  0  0  0  0  0  0
   11.2849   -3.2457   26.3715 C   0  0  0  0  0  0  0  0  0  0  0  0
   12.6443   -3.1246   26.3921 N   0  0  0  0  0  0  0  0  0  0  0  0
   13.3100   -2.5641   25.3666 C   0  0  0  0  0  0  0  0  0  0  0  0
   12.6541   -2.0805   24.2370 C   0  0  0  0  0  0  0  0  0  0  0  0
   13.3443   -1.5104   23.1971 C   0  0  0  0  0  0  0  0  0  0  0  0
   12.6640   -1.0414   22.0929 C   0  0  0  0  0  0  0  0  0  0  0  0
   11.2894   -1.1493   22.0422 C   0  0  0  0  0  0  0  0  0  0  0  0
   10.6179   -1.7277   23.1031 C   0  0  0  0  0  0  0  0  0  0  0  0
   11.2865   -2.2079   24.2279 C   0  0  0  0  0  0  0  0  0  0  0  0
    6.7197   -0.4670   21.7907 C   0  0  0  0  0  0  0  0  0  0  0  0
    7.7120    0.5786   22.1315 C   0  0  0  0  0  0  0  0  0  0  0  0
    8.4442    1.3652   21.3016 N   0  0  0  0  0  0  0  0  0  0  0  0
    9.2170    2.1722   22.0669 C   0  0  0  0  0  0  0  0  0  0  0  0
    8.9233    1.8430   23.3812 C   0  0  0  0  0  0  0  0  0  0  0  0
    8.0091    0.8753   23.3899 O   0  0  0  0  0  0  0  0  0  0  0  0
  2  1  1  0  0  0
  2  3  1  0  0  0
  3  4  1  0  0  0
  4 19  1  0  0  0
  4  5  1  0  0  0
 19 20  2  0  0  0
 20 21  1  0  0  0
 21 22  2  0  0  0
 22 23  1  0  0  0
 23 24  2  0  0  0
 24 25  1  0  0  0
 25 26  2  0  0  0
 26 27  1  0  0  0
 27 28  2  0  0  0
 28 19  1  0  0  0
 28 23  1  0  0  0
  5  6  2  0  0  0
  7  5  1  0  0  0
  7  8  1  0  0  0
  7  2  1  0  0  0
  8  9  1  0  0  0
  9 29  1  0  0  0
  9 10  1  0  0  0
 29 30  1  0  0  0
 30 31  2  0  0  0
 31 32  1  0  0  0
 32 33  2  0  0  0
 33 34  1  0  0  0
 34 30  1  0  0  0
 10 11  2  0  0  0
 10 12  1  0  0  0
 12 13  2  0  0  0
 13 14  1  0  0  0
 14 15  2  0  0  0
 15 16  1  0  0  0
 15 17  1  0  0  0
 17 18  2  0  0  0
 18 12  1  0  0  0
 18  7  1  0  0  0
M  END
> <minimizedAffinity>
-7.87443

> <CNNscore>
0.3794006109

> <CNNaffinity>
6.4157538414

> <CNN_VS>
2.4341409206

> <CNNaffinity_variance>
0.1384244263
$$$$



39 44  0  0  0  0  0  0  0  0999 V2000
    6.1516   -3.1422   26.8930 N   0  0  0  0  0  0  0  0  0  0  0  0
    6.9667   -2.4543   25.9149 C   0  0  0  0  0  0  0  0  0  0  0  0
    6.9765   -3.0223   24.5508 C   0  0  0  0  0  0  0  0  0  0  0  0
    8.3782   -3.3694   24.0970 C   0  0  0  0  0  0  0  0  0  0  0  0
    8.8576   -4.5282   24.0075 O   0  0  0  0  0  0  0  0  0  0  0  0
    8.9730   -2.1090   23.8154 N   0  0  0  0  0  0  0  0  0  0  0  0
    7.9670   -1.0681   23.7392 C   0  0  0  0  0  0  0  0  0  0  0  0
    6.6978   -1.8782   23.5781 C   0  0  0  0  0  0  0  0  0  0  0  0
    5.4584   -1.1138   23.9003 C   0  0  0  0  0  0  0  0  0  0  0  0
    6.1276   -4.1823   24.3019 C   0  0  0  0  0  0  0  0  0  0  0  0
    6.1016   -4.6993   23.0096 C   0  0  0  0  0  0  0  0  0  0  0  0
    5.3284   -5.8008   22.7071 C   0  0  0  0  0  0  0  0  0  0  0  0
    5.3037   -6.4486   21.0612 Cl  0  0  0  0  0  0  0  0  0  0  0  0
    4.5555   -6.4361   23.6481 C   0  0  0  0  0  0  0  0  0  0  0  0
    4.5735   -5.9340   24.9271 C   0  0  0  0  0  0  0  0  0  0  0  0
    5.3484   -4.8296   25.2311 C   0  0  0  0  0  0  0  0  0  0  0  0
    5.3606   -4.2855   26.5922 C   0  0  0  0  0  0  0  0  0  0  0  0
    4.6482   -4.8860   27.4328 O   0  0  0  0  0  0  0  0  0  0  0  0
   10.3600   -1.9147   23.6372 C   0  0  0  0  0  0  0  0  0  0  0  0
   10.8041   -1.4286   22.4143 C   0  0  0  0  0  0  0  0  0  0  0  0
   12.1130   -1.2165   22.1672 N   0  0  0  0  0  0  0  0  0  0  0  0
   13.0774   -1.4649   23.0986 C   0  0  0  0  0  0  0  0  0  0  0  0
   12.6455   -1.9553   24.3365 C   0  0  0  0  0  0  0  0  0  0  0  0
   13.6063   -2.2138   25.2950 C   0  0  0  0  0  0  0  0  0  0  0  0
   13.1869   -2.6972   26.5169 C   0  0  0  0  0  0  0  0  0  0  0  0
   11.8422   -2.9272   26.8038 C   0  0  0  0  0  0  0  0  0  0  0  0
   10.8930   -2.6588   25.8214 C   0  0  0  0  0  0  0  0  0  0  0  0
   11.3096   -2.1760   24.6003 C   0  0  0  0  0  0  0  0  0  0  0  0
    6.1561   -2.6092   28.2381 C   0  0  0  0  0  0  0  0  0  0  0  0
    5.0413   -1.6778   28.5536 C   0  0  0  0  0  0  0  0  0  0  0  0
    1.9845   -2.7906   30.3479 C   0  0  0  0  0  0  0  0  0  0  0  0
    3.4268   -2.2679   30.2652 C   0  0  0  0  0  0  0  0  0  0  0  0
    3.3886   -0.8887   30.8622 C   0  0  0  0  0  0  0  0  0  0  0  0
    2.3752   -0.1754   30.2380 O   0  0  0  0  0  0  0  0  0  0  0  0
    2.5636   -0.0912   28.8630 C   0  0  0  0  0  0  0  0  0  0  0  0
    2.7548   -1.4264   28.2183 C   0  0  0  0  0  0  0  0  0  0  0  0
    3.0431   -1.2214   26.7521 C   0  0  0  0  0  0  0  0  0  0  0  0
    3.7815   -2.2369   28.8843 N   0  0  0  0  0  0  0  0  0  0  0  0
    3.8440   -3.2109   28.5881 H   0  0  0  0  0  0  0  0  0  0  0  0
 32 31  1  0  0  0
 32 33  1  0  0  0
 33 34  1  0  0  0
 34 35  1  0  0  0
 35 36  1  0  0  0
 36 37  1  0  0  0
 36 38  1  0  0  0
 38 30  1  0  0  0
 38 32  1  0  0  0
 38 39  1  0  0  0
 30 29  1  0  0  0
 29  1  1  0  0  0
  1  2  1  0  0  0
  3  2  1  0  0  0
  3  4  1  0  0  0
  3 10  1  0  0  0
  4  5  2  0  0  0
  4  6  1  0  0  0
  6 19  1  0  0  0
  6  7  1  0  0  0
 19 20  2  0  0  0
 20 21  1  0  0  0
 21 22  2  0  0  0
 22 23  1  0  0  0
 23 24  2  0  0  0
 24 25  1  0  0  0
 25 26  2  0  0  0
 26 27  1  0  0  0
 27 28  2  0  0  0
 28 19  1  0  0  0
 28 23  1  0  0  0
  7  8  1  0  0  0
  8  9  1  0  0  0
  8  3  1  0  0  0
 10 11  2  0  0  0
 11 12  1  0  0  0
 12 13  1  0  0  0
 12 14  2  0  0  0
 14 15  1  0  0  0
 15 16  2  0  0  0
 16 17  1  0  0  0
 16 10  1  0  0  0
 17 18  2  0  0  0
 17  1  1  0  0  0
M  CHG 1  38   1
M  END
> <minimizedAffinity>
-7.44707

> <CNNscore>
0.6132953167

> <CNNaffinity>
6.7996168137

> <CNN_VS>
4.1701731682

> <CNNaffinity_variance>
0.1257427633
$$$$



36 41  0  0  0  0  0  0  0  0999 V2000
    9.4945   -1.2390   24.4409 N   0  0  0  0  0  0  0  0  0  0  0  0
    8.6562   -0.1907   23.9487 C   0  0  0  0  0  0  0  0  0  0  0  0
    7.1950   -0.3608   24.1732 C   0  0  0  0  0  0  0  0  0  0  0  0
    6.5953   -0.7518   22.8411 C   0  0  0  0  0  0  0  0  0  0  0  0
    6.2199   -1.8989   22.4810 O   0  0  0  0  0  0  0  0  0  0  0  0
    6.5628    0.4770   22.1126 N   0  0  0  0  0  0  0  0  0  0  0  0
    6.9465    1.5773   22.9838 C   0  0  0  0  0  0  0  0  0  0  0  0
    6.5477    0.9909   24.3225 C   0  0  0  0  0  0  0  0  0  0  0  0
    7.0719    1.7757   25.4841 C   0  0  0  0  0  0  0  0  0  0  0  0
    6.8137   -1.3157   25.2159 C   0  0  0  0  0  0  0  0  0  0  0  0
    5.4924   -1.3652   25.6059 C   0  0  0  0  0  0  0  0  0  0  0  0
    5.0881   -2.2576   26.5953 C   0  0  0  0  0  0  0  0  0  0  0  0
    3.4106   -2.3250   27.0951 Cl  0  0  0  0  0  0  0  0  0  0  0  0
    5.9645   -3.1168   27.2216 C   0  0  0  0  0  0  0  0  0  0  0  0
    7.2872   -3.0673   26.8310 C   0  0  0  0  0  0  0  0  0  0  0  0
    7.6810   -2.1812   25.8504 C   0  0  0  0  0  0  0  0  0  0  0  0
    9.0889   -2.1640   25.4667 C   0  0  0  0  0  0  0  0  0  0  0  0
    9.9248   -2.9412   26.0224 O   0  0  0  0  0  0  0  0  0  0  0  0
    6.1977    0.5426   20.7327 C   0  0  0  0  0  0  0  0  0  0  0  0
    7.0013   -0.0122   19.7354 C   0  0  0  0  0  0  0  0  0  0  0  0
    6.6434    0.0567   18.4269 N   0  0  0  0  0  0  0  0  0  0  0  0
    5.4949    0.6628   18.0158 C   0  0  0  0  0  0  0  0  0  0  0  0
    4.6806    1.2185   18.9617 C   0  0  0  0  0  0  0  0  0  0  0  0
    3.5172    1.8341   18.5615 C   0  0  0  0  0  0  0  0  0  0  0  0
    2.6635    2.4112   19.4999 C   0  0  0  0  0  0  0  0  0  0  0  0
    3.0208    2.3457   20.8375 C   0  0  0  0  0  0  0  0  0  0  0  0
    4.1863    1.7272   21.2218 C   0  0  0  0  0  0  0  0  0  0  0  0
    5.0372    1.1531   20.2975 C   0  0  0  0  0  0  0  0  0  0  0  0
   10.8193   -1.3874   23.8857 C   0  0  0  0  0  0  0  0  0  0  0  0
   11.0235   -1.9180   22.5187 C   0  0  0  0  0  0  0  0  0  0  0  0
   11.0422   -0.4362   22.7010 C   0  0  0  0  0  0  0  0  0  0  0  0
   13.6648   -2.6785   26.1853 C   0  0  0  0  0  0  0  0  0  0  0  0
   12.6111   -2.6666   25.1949 N   0  0  0  0  0  0  0  0  0  0  0  0
   11.9089   -1.4730   24.8867 C   0  0  0  0  0  0  0  0  0  0  0  0
   12.2295   -0.4193   25.4998 O   0  0  0  0  0  0  0  0  0  0  0  0
   12.3771   -3.5005   24.7269 H   0  0  0  0  0  0  0  0  0  0  0  0
 32 33  1  0  0  0
 33 34  1  0  0  0
 33 36  1  0  0  0
 34 35  2  0  0  0
 34 29  1  0  0  0
 29  1  1  0  0  0
 29 30  1  0  0  0
  1  2  1  0  0  0
  3  2  1  0  0  0
  3  4  1  0  0  0
  3 10  1  0  0  0
  4  5  2  0  0  0
  4  6  1  0  0  0
  6 19  1  0  0  0
  6  7  1  0  0  0
 19 20  2  0  0  0
 20 21  1  0  0  0
 21 22  2  0  0  0
 22 23  1  0  0  0
 23 24  2  0  0  0
 24 25  1  0  0  0
 25 26  2  0  0  0
 26 27  1  0  0  0
 27 28  2  0  0  0
 28 19  1  0  0  0
 28 23  1  0  0  0
  7  8  1  0  0  0
  8  9  1  0  0  0
  8  3  1  0  0  0
 10 11  2  0  0  0
 11 12  1  0  0  0
 12 13  1  0  0  0
 12 14  2  0  0  0
 14 15  1  0  0  0
 15 16  2  0  0  0
 16 17  1  0  0  0
 16 10  1  0  0  0
 17 18  2  0  0  0
 17  1  1  0  0  0
 30 31  1  0  0  0
 31 29  1  0  0  0
M  END
> <minimizedAffinity>
-8.72341

> <CNNscore>
0.5554746985

> <CNNaffinity>
6.7703795433

> <CNN_VS>
3.7607746124

> <CNNaffinity_variance>
0.0205033328
$$$$



34 39  0  0  0  0  0  0  0  0999 V2000
    5.2255   -1.5135   24.6448 C   0  0  0  0  0  0  0  0  0  0  0  0
    6.5241   -2.1591   24.2737 C   0  0  0  0  0  0  0  0  0  0  0  0
    7.7506   -1.4384   24.7216 C   0  0  0  0  0  0  0  0  0  0  0  0
    8.7799   -2.4266   24.4052 N   0  0  0  0  0  0  0  0  0  0  0  0
    8.1857   -3.6839   24.7124 C   0  0  0  0  0  0  0  0  0  0  0  0
    8.7890   -4.7747   24.7846 O   0  0  0  0  0  0  0  0  0  0  0  0
    6.7151   -3.5118   24.9399 C   0  0  0  0  0  0  0  0  0  0  0  0
    6.4930   -3.4998   26.3990 C   0  0  0  0  0  0  0  0  0  0  0  0
    5.2421   -4.0810   26.8494 N   0  0  0  0  0  0  0  0  0  0  0  0
    4.4925   -5.0137   26.0927 C   0  0  0  0  0  0  0  0  0  0  0  0
    3.5407   -5.6451   26.6181 O   0  0  0  0  0  0  0  0  0  0  0  0
    4.8657   -5.2090   24.6964 C   0  0  0  0  0  0  0  0  0  0  0  0
    4.1347   -6.1159   23.9659 C   0  0  0  0  0  0  0  0  0  0  0  0
    4.4860   -6.3024   22.6440 C   0  0  0  0  0  0  0  0  0  0  0  0
    5.5378   -5.5966   22.0853 C   0  0  0  0  0  0  0  0  0  0  0  0
    5.8849   -5.7832   20.7733 F   0  0  0  0  0  0  0  0  0  0  0  0
    6.2543   -4.6893   22.8507 C   0  0  0  0  0  0  0  0  0  0  0  0
    5.9206   -4.4863   24.1757 C   0  0  0  0  0  0  0  0  0  0  0  0
   10.0810   -2.1468   23.9009 C   0  0  0  0  0  0  0  0  0  0  0  0
   10.1821   -1.6989   22.5812 C   0  0  0  0  0  0  0  0  0  0  0  0
   11.3912   -1.4222   22.0628 N   0  0  0  0  0  0  0  0  0  0  0  0
   12.5137   -1.5666   22.7866 C   0  0  0  0  0  0  0  0  0  0  0  0
   12.4841   -2.0077   24.1043 C   0  0  0  0  0  0  0  0  0  0  0  0
   13.6295   -2.1523   24.8350 C   0  0  0  0  0  0  0  0  0  0  0  0
   13.5410   -2.5924   26.1343 C   0  0  0  0  0  0  0  0  0  0  0  0
   12.3002   -2.8814   26.6817 C   0  0  0  0  0  0  0  0  0  0  0  0
   11.1459   -2.7289   25.9251 C   0  0  0  0  0  0  0  0  0  0  0  0
   11.2304   -2.2927   24.6364 C   0  0  0  0  0  0  0  0  0  0  0  0
    4.7233   -3.6920   28.1427 C   0  0  0  0  0  0  0  0  0  0  0  0
    4.3497   -2.2590   28.1953 C   0  0  0  0  0  0  0  0  0  0  0  0
    3.1939   -1.6550   27.7419 C   0  0  0  0  0  0  0  0  0  0  0  0
    3.2902   -0.3829   27.9924 O   0  0  0  0  0  0  0  0  0  0  0  0
    4.4326   -0.1034   28.5815 C   0  0  0  0  0  0  0  0  0  0  0  0
    5.0988   -1.2621   28.7124 N   0  0  0  0  0  0  0  0  0  0  0  0
  2  1  1  0  0  0
  2  3  1  0  0  0
  3  4  1  0  0  0
  4 19  1  0  0  0
  4  5  1  0  0  0
 19 20  2  0  0  0
 20 21  1  0  0  0
 21 22  2  0  0  0
 22 23  1  0  0  0
 23 24  2  0  0  0
 24 25  1  0  0  0
 25 26  2  0  0  0
 26 27  1  0  0  0
 27 28  2  0  0  0
 28 19  1  0  0  0
 28 23  1  0  0  0
  5  6  2  0  0  0
  7  5  1  0  0  0
  7  8  1  0  0  0
  7  2  1  0  0  0
  8  9  1  0  0  0
  9 29  1  0  0  0
  9 10  1  0  0  0
 29 30  1  0  0  0
 30 31  2  0  0  0
 31 32  1  0  0  0
 32 33  1  0  0  0
 33 34  2  0  0  0
 34 30  1  0  0  0
 10 11  2  0  0  0
 10 12  1  0  0  0
 12 13  2  0  0  0
 13 14  1  0  0  0
 14 15  2  0  0  0
 15 16  1  0  0  0
 15 17  1  0  0  0
 17 18  2  0  0  0
 18 12  1  0  0  0
 18  7  1  0  0  0
M  END
> <minimizedAffinity>
-7.95987

> <CNNscore>
0.4735560417

> <CNNaffinity>
6.5187659264

> <CNN_VS>
3.0870010853

> <CNNaffinity_variance>
0.1899631619
$$$$



42 47  0  0  0  0  0  0  0  0999 V2000
    6.2745    1.3444   24.6101 N   0  0  0  0  0  0  0  0  0  0  0  0
    6.3720    0.6178   23.3327 C   0  0  0  0  0  0  0  0  0  0  0  0
    6.8494   -0.7973   23.5795 C   0  0  0  0  0  0  0  0  0  0  0  0
    8.2148   -0.6716   24.2216 C   0  0  0  0  0  0  0  0  0  0  0  0
    8.4595    0.0532   25.2327 O   0  0  0  0  0  0  0  0  0  0  0  0
    9.1505   -1.4735   23.5285 N   0  0  0  0  0  0  0  0  0  0  0  0
    8.4182   -2.3038   22.6152 C   0  0  0  0  0  0  0  0  0  0  0  0
    7.0822   -1.6197   22.3899 C   0  0  0  0  0  0  0  0  0  0  0  0
    5.9894   -1.4907   24.5652 C   0  0  0  0  0  0  0  0  0  0  0  0
    5.7801   -2.8369   24.6243 C   0  0  0  0  0  0  0  0  0  0  0  0
    4.9627   -3.4357   25.5940 C   0  0  0  0  0  0  0  0  0  0  0  0
    4.7241   -5.1671   25.6300 Cl  0  0  0  0  0  0  0  0  0  0  0  0
    4.3242   -2.6735   26.5465 C   0  0  0  0  0  0  0  0  0  0  0  0
    4.5273   -1.3121   26.4980 C   0  0  0  0  0  0  0  0  0  0  0  0
    5.3336   -0.7246   25.5406 C   0  0  0  0  0  0  0  0  0  0  0  0
    5.4561    0.7263   25.5961 C   0  0  0  0  0  0  0  0  0  0  0  0
    4.8785    1.4387   26.4650 O   0  0  0  0  0  0  0  0  0  0  0  0
   10.5640   -1.4813   23.6817 C   0  0  0  0  0  0  0  0  0  0  0  0
   11.2791   -0.7566   22.7239 C   0  0  0  0  0  0  0  0  0  0  0  0
   12.6282   -0.7172   22.8042 N   0  0  0  0  0  0  0  0  0  0  0  0
   13.3056   -1.3529   23.7764 C   0  0  0  0  0  0  0  0  0  0  0  0
   12.5938   -2.0694   24.7229 C   0  0  0  0  0  0  0  0  0  0  0  0
   13.2931   -2.7248   25.7254 C   0  0  0  0  0  0  0  0  0  0  0  0
   12.5873   -3.4421   26.6739 C   0  0  0  0  0  0  0  0  0  0  0  0
   11.2046   -3.5007   26.6174 C   0  0  0  0  0  0  0  0  0  0  0  0
   10.4810   -2.8541   25.6250 C   0  0  0  0  0  0  0  0  0  0  0  0
   11.2159   -2.1481   24.6954 C   0  0  0  0  0  0  0  0  0  0  0  0
    6.9546    2.5917   24.8489 C   0  0  0  0  0  0  0  0  0  0  0  0
    9.9657    3.0001   22.5508 C   0  0  0  0  0  0  0  0  0  0  0  0
    9.1455    2.6045   23.6847 N   0  0  0  0  0  0  0  0  0  0  0  0
    7.7820    3.0038   23.6814 C   0  0  0  0  0  0  0  0  0  0  0  0
    7.2962    3.6752   22.7349 O   0  0  0  0  0  0  0  0  0  0  0  0
    9.5215    2.0791   24.4276 H   0  0  0  0  0  0  0  0  0  0  0  0
    7.1168   -0.9288   21.0562 C   0  0  0  0  0  0  0  0  0  0  0  0
    5.9166   -1.1593   20.2992 N   0  0  0  0  0  0  0  0  0  0  0  0
    5.5360   -2.0673   20.2999 H   0  0  0  0  0  0  0  0  0  0  0  0
    5.2467   -0.1545   19.5501 C   0  0  0  0  0  0  0  0  0  0  0  0
    5.5054    0.0032   18.2181 N   0  0  0  0  0  0  0  0  0  0  0  0
    4.8965    0.9353   17.4745 C   0  0  0  0  0  0  0  0  0  0  0  0
    3.9913    1.7582   18.0434 N   0  0  0  0  0  0  0  0  0  0  0  0
    3.6979    1.6405   19.3717 C   0  0  0  0  0  0  0  0  0  0  0  0
    4.3414    0.6860   20.0670 N   0  0  0  0  0  0  0  0  0  0  0  0
 29 30  1  0  0  0
 30 31  1  0  0  0
 30 33  1  0  0  0
 31 32  2  0  0  0
 31 28  1  0  0  0
 28  1  1  0  0  0
  1  2  1  0  0  0
  3  2  1  0  0  0
  3  4  1  0  0  0
  3  9  1  0  0  0
  4  5  2  0  0  0
  4  6  1  0  0  0
  6 18  1  0  0  0
  6  7  1  0  0  0
 18 19  2  0  0  0
 19 20  1  0  0  0
 20 21  2  0  0  0
 21 22  1  0  0  0
 22 23  2  0  0  0
 23 24  1  0  0  0
 24 25  2  0  0  0
 25 26  1  0  0  0
 26 27  2  0  0  0
 27 18  1  0  0  0
 27 22  1  0  0  0
  7  8  1  0  0  0
  8 34  1  0  0  0
  8  3  1  0  0  0
 34 35  1  0  0  0
 35 37  1  0  0  0
 35 36  1  0  0  0
 37 38  2  0  0  0
 38 39  1  0  0  0
 39 40  2  0  0  0
 40 41  1  0  0  0
 41 42  2  0  0  0
 42 37  1  0  0  0
  9 10  2  0  0  0
 10 11  1  0  0  0
 11 12  1  0  0  0
 11 13  2  0  0  0
 13 14  1  0  0  0
 14 15  2  0  0  0
 15 16  1  0  0  0
 15  9  1  0  0  0
 16 17  2  0  0  0
 16  1  1  0  0  0
M  END
> <minimizedAffinity>
-8.49960

> <CNNscore>
0.2919324040

> <CNNaffinity>
6.7641096115

> <CNN_VS>
1.9746627808

> <CNNaffinity_variance>
0.1819061935
$$$$



39 44  0  0  0  0  0  0  0  0999 V2000
    7.2206   -3.4982   23.7626 N   0  0  0  0  0  0  0  0  0  0  0  0
    7.6998   -2.2985   23.1003 C   0  0  0  0  0  0  0  0  0  0  0  0
    8.4149   -1.4608   24.1091 C   0  0  0  0  0  0  0  0  0  0  0  0
    7.3891   -1.1259   25.1653 C   0  0  0  0  0  0  0  0  0  0  0  0
    7.2224   -1.6786   26.2811 O   0  0  0  0  0  0  0  0  0  0  0  0
    6.6516   -0.0311   24.5969 N   0  0  0  0  0  0  0  0  0  0  0  0
    7.3964    0.5495   23.4970 C   0  0  0  0  0  0  0  0  0  0  0  0
    8.7811   -0.1051   23.6263 C   0  0  0  0  0  0  0  0  0  0  0  0
    9.4631   -2.2381   24.7604 C   0  0  0  0  0  0  0  0  0  0  0  0
   10.6180   -1.6524   25.2640 C   0  0  0  0  0  0  0  0  0  0  0  0
   11.6043   -2.4103   25.8959 C   0  0  0  0  0  0  0  0  0  0  0  0
   13.0630   -1.6725   26.5323 Cl  0  0  0  0  0  0  0  0  0  0  0  0
   11.4787   -3.7764   26.0501 C   0  0  0  0  0  0  0  0  0  0  0  0
   10.3408   -4.3598   25.5545 C   0  0  0  0  0  0  0  0  0  0  0  0
    9.3728   -3.6111   24.9333 C   0  0  0  0  0  0  0  0  0  0  0  0
    8.1973   -4.3009   24.4164 C   0  0  0  0  0  0  0  0  0  0  0  0
    8.0125   -5.5411   24.5205 O   0  0  0  0  0  0  0  0  0  0  0  0
    5.3791    0.4275   25.0370 C   0  0  0  0  0  0  0  0  0  0  0  0
    4.1944    0.1021   24.4283 C   0  0  0  0  0  0  0  0  0  0  0  0
    2.9906    0.5486   24.8624 N   0  0  0  0  0  0  0  0  0  0  0  0
    2.9116    1.3505   25.9375 C   0  0  0  0  0  0  0  0  0  0  0  0
    4.0465    1.7214   26.6009 C   0  0  0  0  0  0  0  0  0  0  0  0
    3.9146    2.5433   27.6954 C   0  0  0  0  0  0  0  0  0  0  0  0
    5.0805    2.9066   28.3530 C   0  0  0  0  0  0  0  0  0  0  0  0
    6.3154    2.4584   27.9210 C   0  0  0  0  0  0  0  0  0  0  0  0
    6.4418    1.6329   26.8207 C   0  0  0  0  0  0  0  0  0  0  0  0
    5.2866    1.2620   26.1544 C   0  0  0  0  0  0  0  0  0  0  0  0
    5.8166   -3.8570   23.7476 C   0  0  0  0  0  0  0  0  0  0  0  0
    5.6696   -6.4768   20.9430 C   0  0  0  0  0  0  0  0  0  0  0  0
    5.8889   -5.7952   22.2040 N   0  0  0  0  0  0  0  0  0  0  0  0
    5.5285   -4.4256   22.3869 C   0  0  0  0  0  0  0  0  0  0  0  0
    5.0045   -3.7291   21.4797 O   0  0  0  0  0  0  0  0  0  0  0  0
    6.2961   -6.2886   22.9523 H   0  0  0  0  0  0  0  0  0  0  0  0
    9.4166   -0.0623   22.2604 C   0  0  0  0  0  0  0  0  0  0  0  0
   10.8766   -0.1642   22.4038 N   0  0  0  0  0  0  0  0  0  0  0  0
   11.6707    0.7768   22.9390 C   0  0  0  0  0  0  0  0  0  0  0  0
   12.9714    0.3182   22.8980 C   0  0  0  0  0  0  0  0  0  0  0  0
   12.9357   -0.9335   22.3191 C   0  0  0  0  0  0  0  0  0  0  0  0
   11.6434   -1.1852   22.0353 N   0  0  0  0  0  0  0  0  0  0  0  0
 29 30  1  0  0  0
 30 31  1  0  0  0
 30 33  1  0  0  0
 31 32  2  0  0  0
 31 28  1  0  0  0
 28  1  1  0  0  0
  1  2  1  0  0  0
  3  2  1  0  0  0
  3  4  1  0  0  0
  3  9  1  0  0  0
  4  5  2  0  0  0
  4  6  1  0  0  0
  6 18  1  0  0  0
  6  7  1  0  0  0
 18 19  2  0  0  0
 19 20  1  0  0  0
 20 21  2  0  0  0
 21 22  1  0  0  0
 22 23  2  0  0  0
 23 24  1  0  0  0
 24 25  2  0  0  0
 25 26  1  0  0  0
 26 27  2  0  0  0
 27 18  1  0  0  0
 27 22  1  0  0  0
  7  8  1  0  0  0
  8 34  1  0  0  0
  8  3  1  0  0  0
 34 35  1  0  0  0
 35 36  1  0  0  0
 36 37  2  0  0  0
 37 38  1  0  0  0
 38 39  2  0  0  0
 39 35  1  0  0  0
  9 10  2  0  0  0
 10 11  1  0  0  0
 11 12  1  0  0  0
 11 13  2  0  0  0
 13 14  1  0  0  0
 14 15  2  0  0  0
 15 16  1  0  0  0
 15  9  1  0  0  0
 16 17  2  0  0  0
 16  1  1  0  0  0
M  END
> <minimizedAffinity>
-7.65094

> <CNNscore>
0.6870871186

> <CNNaffinity>
7.0551338196

> <CNN_VS>
4.8474917412

> <CNNaffinity_variance>
0.0656989366
$$$$



36 40  0  0  0  0  0  0  0  0999 V2000
    7.4583    0.6906   23.0147 N   0  0  0  0  0  0  0  0  0  0  0  0
    7.3105    0.7321   21.5924 C   0  0  0  0  0  0  0  0  0  0  0  0
    7.8269    1.7040   20.9387 O   0  0  0  0  0  0  0  0  0  0  0  0
    9.0794   -3.8334   25.1322 C   0  0  0  0  0  0  0  0  0  0  0  0
    9.5834   -5.0077   25.2083 O   0  0  0  0  0  0  0  0  0  0  0  0
    7.7068   -3.7731   24.8583 N   0  0  0  0  0  0  0  0  0  0  0  0
    6.9178   -5.0137   24.7802 C   0  0  0  0  0  0  0  0  0  0  0  0
    5.5469   -4.8744   25.3371 C   0  0  0  0  0  0  0  0  0  0  0  0
    5.2653   -3.5747   26.0491 C   0  0  0  0  0  0  0  0  0  0  0  0
    5.7523   -2.4043   25.2839 C   0  0  0  0  0  0  0  0  0  0  0  0
    5.0722   -1.2265   25.1319 C   0  0  0  0  0  0  0  0  0  0  0  0
    5.6589   -0.2268   24.3802 C   0  0  0  0  0  0  0  0  0  0  0  0
    6.9007   -0.3706   23.7781 C   0  0  0  0  0  0  0  0  0  0  0  0
    7.5850   -1.5580   23.9317 C   0  0  0  0  0  0  0  0  0  0  0  0
    7.0046   -2.5538   24.6794 C   0  0  0  0  0  0  0  0  0  0  0  0
   11.1813   -3.3233   26.2501 C   0  0  0  0  0  0  0  0  0  0  0  0
   10.0375   -2.7402   25.3559 C   0  0  0  0  0  0  0  0  0  0  0  0
    8.1852    1.7388   23.7189 C   0  0  0  0  0  0  0  0  0  0  0  0
    9.6253    1.7066   23.4280 C   0  0  0  0  0  0  0  0  0  0  0  0
   10.2452    2.8486   22.9496 C   0  0  0  0  0  0  0  0  0  0  0  0
   11.6005    2.8547   22.6643 C   0  0  0  0  0  0  0  0  0  0  0  0
   12.3960    1.7340   22.8406 C   0  0  0  0  0  0  0  0  0  0  0  0
   11.7734    0.5899   23.3204 C   0  0  0  0  0  0  0  0  0  0  0  0
   12.8416   -0.9922   23.5822 Br  0  0  0  0  0  0  0  0  0  0  0  0
   10.4193    0.5984   23.6006 C   0  0  0  0  0  0  0  0  0  0  0  0
    6.5667   -0.3473   20.9200 C   0  0  0  0  0  0  0  0  0  0  0  0
    5.8707    0.2362   19.7476 C   0  0  0  0  0  0  0  0  0  0  0  0
    6.3734    0.1060   18.4465 C   0  0  0  0  0  0  0  0  0  0  0  0
    5.6861    0.6626   17.4270 N   0  0  0  0  0  0  0  0  0  0  0  0
    4.5407    1.3328   17.6302 C   0  0  0  0  0  0  0  0  0  0  0  0
    3.9951    1.4941   18.8961 C   0  0  0  0  0  0  0  0  0  0  0  0
    2.8104    2.1873   19.1035 C   0  0  0  0  0  0  0  0  0  0  0  0
    2.3352    2.3028   20.3838 C   0  0  0  0  0  0  0  0  0  0  0  0
    3.0000    1.7506   21.4749 C   0  0  0  0  0  0  0  0  0  0  0  0
    4.1715    1.0719   21.2214 C   0  0  0  0  0  0  0  0  0  0  0  0
    4.7014    0.9210   19.9526 C   0  0  0  0  0  0  0  0  0  0  0  0
 16 17  1  0  0  0
 17  4  1  0  0  0
  4  5  2  0  0  0
  4  6  1  0  0  0
  6  7  1  0  0  0
  7  8  1  0  0  0
  8  9  1  0  0  0
  9 10  1  0  0  0
 10 11  2  0  0  0
 11 12  1  0  0  0
 12 13  2  0  0  0
 13  1  1  0  0  0
 13 14  1  0  0  0
  1 18  1  0  0  0
  1  2  1  0  0  0
 18 19  1  0  0  0
 19 20  2  0  0  0
 20 21  1  0  0  0
 21 22  2  0  0  0
 22 23  1  0  0  0
 23 24  1  0  0  0
 23 25  2  0  0  0
 25 19  1  0  0  0
  2  3  2  0  0  0
  2 26  1  0  0  0
 26 27  1  0  0  0
 27 28  2  0  0  0
 28 29  1  0  0  0
 29 30  2  0  0  0
 30 31  1  0  0  0
 31 32  2  0  0  0
 32 33  1  0  0  0
 33 34  2  0  0  0
 34 35  1  0  0  0
 35 36  2  0  0  0
 36 27  1  0  0  0
 36 31  1  0  0  0
 14 15  2  0  0  0
 15  6  1  0  0  0
 15 10  1  0  0  0
M  END
> <minimizedAffinity>
-9.25493

> <CNNscore>
0.6620757580

> <CNNaffinity>
7.1223402023

> <CNN_VS>
4.7155289650

> <CNNaffinity_variance>
0.0508036613
$$$$



20 22  0  0  0  0  0  0  0  0999 V2000
    8.5812   -3.4461   23.9984 C   0  0  0  0  0  0  0  0  0  0  0  0
    9.8433   -3.3548   24.7796 C   0  0  0  0  0  0  0  0  0  0  0  0
   10.0196   -4.1712   25.8779 C   0  0  0  0  0  0  0  0  0  0  0  0
   11.1440   -4.1458   26.6154 N   0  0  0  0  0  0  0  0  0  0  0  0
   12.1523   -3.3165   26.3110 C   0  0  0  0  0  0  0  0  0  0  0  0
   12.0485   -2.4558   25.2095 C   0  0  0  0  0  0  0  0  0  0  0  0
   13.0635   -1.5883   24.8706 C   0  0  0  0  0  0  0  0  0  0  0  0
   12.9144   -0.7601   23.7819 C   0  0  0  0  0  0  0  0  0  0  0  0
   11.7687   -0.7742   23.0152 C   0  0  0  0  0  0  0  0  0  0  0  0
   10.7458   -1.6553   23.3661 C   0  0  0  0  0  0  0  0  0  0  0  0
   10.8725   -2.4988   24.4576 C   0  0  0  0  0  0  0  0  0  0  0  0
    6.9596   -4.1963   25.5036 O   0  0  0  0  0  0  0  0  0  0  0  0
    7.3903   -3.2107   24.8407 C   0  0  0  0  0  0  0  0  0  0  0  0
    6.7384   -1.9703   24.9312 N   0  0  0  0  0  0  0  0  0  0  0  0
    7.2799   -0.8907   24.1303 C   0  0  0  0  0  0  0  0  0  0  0  0
    7.9285    0.0602   25.1004 C   0  0  0  0  0  0  0  0  0  0  0  0
    7.2988    0.5710   26.1557 C   0  0  0  0  0  0  0  0  0  0  0  0
    5.9423    0.4335   26.7044 C   0  0  0  0  0  0  0  0  0  0  0  0
    5.0510   -0.5151   25.9627 C   0  0  0  0  0  0  0  0  0  0  0  0
    5.5999   -1.9059   25.8240 C   0  0  0  0  0  0  0  0  0  0  0  0
 12 13  2  0  0  0
 13  1  1  0  0  0
 13 14  1  0  0  0
  1  2  1  0  0  0
  2  3  2  0  0  0
  3  4  1  0  0  0
  4  5  2  0  0  0
  5  6  1  0  0  0
  6  7  2  0  0  0
  7  8  1  0  0  0
  8  9  2  0  0  0
  9 10  1  0  0  0
 10 11  2  0  0  0
 11  2  1  0  0  0
 11  6  1  0  0  0
 14 15  1  0  0  0
 15 16  1  0  0  0
 16 17  2  0  0  0
 17 18  1  0  0  0
 18 19  1  0  0  0
 19 20  1  0  0  0
 20 14  1  0  0  0
M  END
> <minimizedAffinity>
-6.00042

> <CNNscore>
0.7053185701

> <CNNaffinity>
5.4619145393

> <CNN_VS>
3.8523898125

> <CNNaffinity_variance>
0.2571641207
$$$$



35 40  0  0  0  0  0  0  0  0999 V2000
    7.4967    1.6274   24.7975 C   0  0  0  0  0  0  0  0  0  0  0  0
    7.2545    0.6089   23.7085 C   0  0  0  0  0  0  0  0  0  0  0  0
    6.3051    1.2402   22.7150 C   0  0  0  0  0  0  0  0  0  0  0  0
    6.6951    0.6613   21.4302 N   0  0  0  0  0  0  0  0  0  0  0  0
    7.9307   -0.0355   21.5668 C   0  0  0  0  0  0  0  0  0  0  0  0
    8.4899   -0.8223   20.7472 O   0  0  0  0  0  0  0  0  0  0  0  0
    8.5240    0.3100   22.9038 C   0  0  0  0  0  0  0  0  0  0  0  0
    9.3776    1.5200   22.8439 C   0  0  0  0  0  0  0  0  0  0  0  0
   10.7124    1.3845   23.3302 N   0  0  0  0  0  0  0  0  0  0  0  0
   11.2550    0.2238   23.9352 C   0  0  0  0  0  0  0  0  0  0  0  0
   12.4364    0.2086   24.3752 O   0  0  0  0  0  0  0  0  0  0  0  0
   10.4072   -0.9459   24.0319 C   0  0  0  0  0  0  0  0  0  0  0  0
   10.9380   -2.0817   24.6217 C   0  0  0  0  0  0  0  0  0  0  0  0
   10.1647   -3.1971   24.7245 C   0  0  0  0  0  0  0  0  0  0  0  0
    8.8797   -3.1480   24.2346 C   0  0  0  0  0  0  0  0  0  0  0  0
    7.9133   -4.6047   24.3849 Cl  0  0  0  0  0  0  0  0  0  0  0  0
    8.3495   -2.0098   23.6441 C   0  0  0  0  0  0  0  0  0  0  0  0
    9.1289   -0.8779   23.5379 C   0  0  0  0  0  0  0  0  0  0  0  0
    5.9644    0.7668   20.2155 C   0  0  0  0  0  0  0  0  0  0  0  0
    6.4226    0.0714   19.0975 C   0  0  0  0  0  0  0  0  0  0  0  0
    5.8241    0.0955   17.9165 N   0  0  0  0  0  0  0  0  0  0  0  0
    4.7066    0.8333   17.7804 C   0  0  0  0  0  0  0  0  0  0  0  0
    4.2047    1.5439   18.8521 C   0  0  0  0  0  0  0  0  0  0  0  0
    3.0494    2.3103   18.7228 C   0  0  0  0  0  0  0  0  0  0  0  0
    2.5650    3.0115   19.8033 C   0  0  0  0  0  0  0  0  0  0  0  0
    3.1890    2.9896   21.0445 C   0  0  0  0  0  0  0  0  0  0  0  0
    4.3469    2.2223   21.1769 C   0  0  0  0  0  0  0  0  0  0  0  0
    4.8173    1.5280   20.0874 C   0  0  0  0  0  0  0  0  0  0  0  0
   11.5937    2.5500   23.1888 C   0  0  0  0  0  0  0  0  0  0  0  0
   10.7942    3.6476   22.5658 C   0  0  0  0  0  0  0  0  0  0  0  0
   11.1150    4.9577   23.0504 N   0  0  0  0  0  0  0  0  0  0  0  0
   10.0575    5.9380   23.0055 C   0  0  0  0  0  0  0  0  0  0  0  0
   11.1617    6.9836   22.8216 C   0  0  0  0  0  0  0  0  0  0  0  0
   11.8450    5.8113   22.1395 C   0  0  0  0  0  0  0  0  0  0  0  0
   11.5148    4.6430   23.9344 H   0  0  0  0  0  0  0  0  0  0  0  0
  2  1  1  0  0  0
  2  3  1  0  0  0
  3  4  1  0  0  0
  4 19  1  0  0  0
  4  5  1  0  0  0
 19 20  2  0  0  0
 20 21  1  0  0  0
 21 22  2  0  0  0
 22 23  1  0  0  0
 23 24  2  0  0  0
 24 25  1  0  0  0
 25 26  2  0  0  0
 26 27  1  0  0  0
 27 28  2  0  0  0
 28 19  1  0  0  0
 28 23  1  0  0  0
  5  6  2  0  0  0
  7  5  1  0  0  0
  7  8  1  0  0  0
  7  2  1  0  0  0
  8  9  1  0  0  0
  9 29  1  0  0  0
  9 10  1  0  0  0
 29 30  1  0  0  0
 30 31  1  0  0  0
 31 32  1  0  0  0
 31 35  1  0  0  0
 32 33  1  0  0  0
 33 34  1  0  0  0
 34 31  1  0  0  0
 10 11  2  0  0  0
 10 12  1  0  0  0
 12 13  2  0  0  0
 13 14  1  0  0  0
 14 15  2  0  0  0
 15 16  1  0  0  0
 15 17  1  0  0  0
 17 18  2  0  0  0
 18 12  1  0  0  0
 18  7  1  0  0  0
M  CHG 1  31   1
M  END
> <minimizedAffinity>
-9.54269

> <CNNscore>
0.3487594724

> <CNNaffinity>
6.6139373779

> <CNN_VS>
2.3066732883

> <CNNaffinity_variance>
0.0422655046
$$$$



35 40  0  0  0  0  0  0  0  0999 V2000
    5.6220   -2.5204   21.7573 C   0  0  0  0  0  0  0  0  0  0  0  0
    6.2803   -2.4963   23.1109 C   0  0  0  0  0  0  0  0  0  0  0  0
    7.7016   -2.9985   23.0830 C   0  0  0  0  0  0  0  0  0  0  0  0
    8.2326   -2.4598   24.3217 N   0  0  0  0  0  0  0  0  0  0  0  0
    7.4251   -1.3841   24.7873 C   0  0  0  0  0  0  0  0  0  0  0  0
    7.4662   -0.7932   25.8948 O   0  0  0  0  0  0  0  0  0  0  0  0
    6.4880   -1.0946   23.6475 C   0  0  0  0  0  0  0  0  0  0  0  0
    7.1196   -0.1689   22.6897 C   0  0  0  0  0  0  0  0  0  0  0  0
    6.2576    0.8332   22.1090 N   0  0  0  0  0  0  0  0  0  0  0  0
    5.0600    1.2880   22.7253 C   0  0  0  0  0  0  0  0  0  0  0  0
    4.4253    2.3042   22.3540 O   0  0  0  0  0  0  0  0  0  0  0  0
    4.5548    0.5113   23.8576 C   0  0  0  0  0  0  0  0  0  0  0  0
    3.3830    0.9397   24.4757 C   0  0  0  0  0  0  0  0  0  0  0  0
    2.9182    0.2066   25.5342 C   0  0  0  0  0  0  0  0  0  0  0  0
    3.5889   -0.9021   25.9580 C   0  0  0  0  0  0  0  0  0  0  0  0
    3.1333   -1.6272   27.0013 F   0  0  0  0  0  0  0  0  0  0  0  0
    4.7522   -1.3350   25.3511 C   0  0  0  0  0  0  0  0  0  0  0  0
    5.2427   -0.5984   24.2675 C   0  0  0  0  0  0  0  0  0  0  0  0
    9.3936   -2.9448   24.9684 C   0  0  0  0  0  0  0  0  0  0  0  0
    9.3736   -4.0718   25.7963 C   0  0  0  0  0  0  0  0  0  0  0  0
   10.5155   -4.4840   26.3845 N   0  0  0  0  0  0  0  0  0  0  0  0
   11.6782   -3.8339   26.1928 C   0  0  0  0  0  0  0  0  0  0  0  0
   11.7678   -2.7030   25.3793 C   0  0  0  0  0  0  0  0  0  0  0  0
   12.9540   -2.0339   25.1794 C   0  0  0  0  0  0  0  0  0  0  0  0
   13.0167   -0.9041   24.3601 C   0  0  0  0  0  0  0  0  0  0  0  0
   11.8402   -0.4927   23.7639 C   0  0  0  0  0  0  0  0  0  0  0  0
   10.6732   -1.1585   23.9663 C   0  0  0  0  0  0  0  0  0  0  0  0
   10.5950   -2.2899   24.7828 C   0  0  0  0  0  0  0  0  0  0  0  0
    6.5985    1.4321   20.8272 C   0  0  0  0  0  0  0  0  0  0  0  0
    6.1569    0.6035   19.6767 C   0  0  0  0  0  0  0  0  0  0  0  0
    6.8221   -0.4024   19.0084 C   0  0  0  0  0  0  0  0  0  0  0  0
    5.9903   -0.8356   18.0426 N   0  0  0  0  0  0  0  0  0  0  0  0
    4.8641   -0.1543   18.0856 N   0  0  0  0  0  0  0  0  0  0  0  0
    4.9195    0.7518   19.0843 C   0  0  0  0  0  0  0  0  0  0  0  0
    4.0983   -0.2859   17.4810 H   0  0  0  0  0  0  0  0  0  0  0  0
  2  1  1  0  0  0
  2  3  1  0  0  0
  3  4  1  0  0  0
  4 19  1  0  0  0
  4  5  1  0  0  0
 19 20  2  0  0  0
 20 21  1  0  0  0
 21 22  2  0  0  0
 22 23  1  0  0  0
 23 24  2  0  0  0
 24 25  1  0  0  0
 25 26  2  0  0  0
 26 27  1  0  0  0
 27 28  2  0  0  0
 28 19  1  0  0  0
 28 23  1  0  0  0
  5  6  2  0  0  0
  7  5  1  0  0  0
  7  8  1  0  0  0
  7  2  1  0  0  0
  8  9  1  0  0  0
  9 29  1  0  0  0
  9 10  1  0  0  0
 29 30  1  0  0  0
 30 31  1  0  0  0
 31 32  2  0  0  0
 32 33  1  0  0  0
 33 34  1  0  0  0
 33 35  1  0  0  0
 34 30  2  0  0  0
 10 11  2  0  0  0
 10 12  1  0  0  0
 12 13  2  0  0  0
 13 14  1  0  0  0
 14 15  2  0  0  0
 15 16  1  0  0  0
 15 17  1  0  0  0
 17 18  2  0  0  0
 18 12  1  0  0  0
 18  7  1  0  0  0
M  END
> <minimizedAffinity>
-8.75091

> <CNNscore>
0.4773115814

> <CNNaffinity>
6.5557546616

> <CNN_VS>
3.1291375160

> <CNNaffinity_variance>
0.0881106704
$$$$



27 30  0  0  0  0  0  0  0  0999 V2000
    7.9270   -2.3030   22.1251 O   0  0  0  0  0  0  0  0  0  0  0  0
    8.1764   -1.1306   22.5645 C   0  0  0  0  0  0  0  0  0  0  0  0
    9.4752   -0.8216   23.0400 N   0  0  0  0  0  0  0  0  0  0  0  0
    9.5834    0.5260   23.4859 C   0  0  0  0  0  0  0  0  0  0  0  0
   10.5223    1.4555   23.5819 C   0  0  0  0  0  0  0  0  0  0  0  0
   11.9395    1.4686   23.2399 C   0  0  0  0  0  0  0  0  0  0  0  0
   12.7849    0.6271   22.6539 C   0  0  0  0  0  0  0  0  0  0  0  0
   12.5542   -0.7066   22.1105 C   0  0  0  0  0  0  0  0  0  0  0  0
   11.6434   -1.6496   22.2437 C   0  0  0  0  0  0  0  0  0  0  0  0
   10.3818   -1.9495   22.9588 C   0  0  0  0  0  0  0  0  0  0  0  0
   10.6338   -2.5679   24.3007 C   0  0  0  0  0  0  0  0  0  0  0  0
   11.7898   -2.2790   25.0271 C   0  0  0  0  0  0  0  0  0  0  0  0
   12.0411   -2.8373   26.2626 C   0  0  0  0  0  0  0  0  0  0  0  0
   11.1360   -3.7143   26.8233 C   0  0  0  0  0  0  0  0  0  0  0  0
    9.9856   -4.0209   26.1338 C   0  0  0  0  0  0  0  0  0  0  0  0
    9.7568   -3.4465   24.8940 C   0  0  0  0  0  0  0  0  0  0  0  0
    7.0465   -0.1728   22.5338 C   0  0  0  0  0  0  0  0  0  0  0  0
    6.6085    0.0660   21.1085 C   0  0  0  0  0  0  0  0  0  0  0  0
    7.4322   -0.3322   20.0532 C   0  0  0  0  0  0  0  0  0  0  0  0
    7.0734   -0.1355   18.7832 N   0  0  0  0  0  0  0  0  0  0  0  0
    5.9040    0.4544   18.4715 C   0  0  0  0  0  0  0  0  0  0  0  0
    5.0672    0.8599   19.4882 C   0  0  0  0  0  0  0  0  0  0  0  0
    3.8788    1.4599   19.1229 C   0  0  0  0  0  0  0  0  0  0  0  0
    3.0369    1.8682   20.1235 C   0  0  0  0  0  0  0  0  0  0  0  0
    3.3752    1.6810   21.4388 C   0  0  0  0  0  0  0  0  0  0  0  0
    4.5631    1.0809   21.8286 C   0  0  0  0  0  0  0  0  0  0  0  0
    5.4049    0.6729   20.8163 C   0  0  0  0  0  0  0  0  0  0  0  0
  1  2  2  0  0  0
  2 17  1  0  0  0
  2  3  1  0  0  0
 17 18  1  0  0  0
 18 19  2  0  0  0
 19 20  1  0  0  0
 20 21  2  0  0  0
 21 22  1  0  0  0
 22 23  2  0  0  0
 23 24  1  0  0  0
 24 25  2  0  0  0
 25 26  1  0  0  0
 26 27  2  0  0  0
 27 18  1  0  0  0
 27 22  1  0  0  0
  3  4  1  0  0  0
  4  5  2  0  0  0
  5  6  1  0  0  0
  6  7  2  0  0  0
  7  8  1  0  0  0
  8  9  2  0  0  0
  9 10  1  0  0  0
 10 11  1  0  0  0
 10  3  1  0  0  0
 11 12  2  0  0  0
 12 13  1  0  0  0
 13 14  2  0  0  0
 14 15  1  0  0  0
 15 16  2  0  0  0
 16 11  1  0  0  0
M  END
> <minimizedAffinity>
-8.95743

> <CNNscore>
0.5978313684

> <CNNaffinity>
6.3355231285

> <CNN_VS>
3.7875745296

> <CNNaffinity_variance>
0.0422427356
$$$$



34 38  0  0  0  0  0  0  0  0999 V2000
    5.2811   -0.6662   24.0664 N   0  0  0  0  0  0  0  0  0  0  0  0
    5.8770   -1.9154   23.6507 C   0  0  0  0  0  0  0  0  0  0  0  0
    6.4870   -2.7144   24.7664 C   0  0  0  0  0  0  0  0  0  0  0  0
    7.8058   -2.0883   25.0539 C   0  0  0  0  0  0  0  0  0  0  0  0
    8.0082   -1.0221   25.7322 O   0  0  0  0  0  0  0  0  0  0  0  0
    8.8123   -2.8817   24.4419 N   0  0  0  0  0  0  0  0  0  0  0  0
    8.3292   -4.2432   24.5128 C   0  0  0  0  0  0  0  0  0  0  0  0
    6.8452   -4.0649   24.2984 C   0  0  0  0  0  0  0  0  0  0  0  0
    6.5970   -4.2973   22.8144 C   0  0  0  0  0  0  0  0  0  0  0  0
    5.6491   -2.6536   25.9730 C   0  0  0  0  0  0  0  0  0  0  0  0
    5.8050   -3.6278   26.9454 C   0  0  0  0  0  0  0  0  0  0  0  0
    5.0368   -3.6230   28.1146 C   0  0  0  0  0  0  0  0  0  0  0  0
    5.2186   -4.6061   29.0583 F   0  0  0  0  0  0  0  0  0  0  0  0
    4.0841   -2.6251   28.3311 C   0  0  0  0  0  0  0  0  0  0  0  0
    3.9269   -1.6537   27.3642 C   0  0  0  0  0  0  0  0  0  0  0  0
    4.6991   -1.6845   26.2214 C   0  0  0  0  0  0  0  0  0  0  0  0
    4.4787   -0.6242   25.2410 C   0  0  0  0  0  0  0  0  0  0  0  0
    3.6083    0.2929   25.4319 O   0  0  0  0  0  0  0  0  0  0  0  0
   10.0349   -2.3857   23.8858 C   0  0  0  0  0  0  0  0  0  0  0  0
   10.0808   -1.8359   22.6200 C   0  0  0  0  0  0  0  0  0  0  0  0
   11.2683   -1.3851   22.1525 N   0  0  0  0  0  0  0  0  0  0  0  0
   12.4041   -1.4499   22.8682 C   0  0  0  0  0  0  0  0  0  0  0  0
   12.3890   -1.9981   24.1455 C   0  0  0  0  0  0  0  0  0  0  0  0
   13.5261   -2.0893   24.9233 C   0  0  0  0  0  0  0  0  0  0  0  0
   13.4829   -2.6436   26.2011 C   0  0  0  0  0  0  0  0  0  0  0  0
   12.2657   -3.1058   26.6804 C   0  0  0  0  0  0  0  0  0  0  0  0
   11.1228   -3.0203   25.9128 C   0  0  0  0  0  0  0  0  0  0  0  0
   11.1833   -2.4676   24.6474 C   0  0  0  0  0  0  0  0  0  0  0  0
    5.4770    0.5591   23.3098 C   0  0  0  0  0  0  0  0  0  0  0  0
    6.9040    0.7807   22.9423 C   0  0  0  0  0  0  0  0  0  0  0  0
    9.0727    1.6195   23.5461 C   0  0  0  0  0  0  0  0  0  0  0  0
    7.6945    1.4261   23.9418 N   0  0  0  0  0  0  0  0  0  0  0  0
    7.2837    2.3384   24.1401 H   0  0  0  0  0  0  0  0  0  0  0  0
    7.6983    0.8194   24.7617 H   0  0  0  0  0  0  0  0  0  0  0  0
 31 32  1  0  0  0
 32 30  1  0  0  0
 32 33  1  0  0  0
 32 34  1  0  0  0
 30 29  1  0  0  0
 29  1  1  0  0  0
  1  2  1  0  0  0
  3  2  1  0  0  0
  3  4  1  0  0  0
  3 10  1  0  0  0
  4  5  2  0  0  0
  4  6  1  0  0  0
  6 19  1  0  0  0
  6  7  1  0  0  0
 19 20  2  0  0  0
 20 21  1  0  0  0
 21 22  2  0  0  0
 22 23  1  0  0  0
 23 24  2  0  0  0
 24 25  1  0  0  0
 25 26  2  0  0  0
 26 27  1  0  0  0
 27 28  2  0  0  0
 28 19  1  0  0  0
 28 23  1  0  0  0
  7  8  1  0  0  0
  8  9  1  0  0  0
  8  3  1  0  0  0
 10 11  2  0  0  0
 11 12  1  0  0  0
 12 13  1  0  0  0
 12 14  2  0  0  0
 14 15  1  0  0  0
 15 16  2  0  0  0
 16 17  1  0  0  0
 16 10  1  0  0  0
 17 18  2  0  0  0
 17  1  1  0  0  0
M  CHG 1  32   1
M  END
> <minimizedAffinity>
-7.06822

> <CNNscore>
0.5506054163

> <CNNaffinity>
6.2531309128

> <CNN_VS>
3.4430077076

> <CNNaffinity_variance>
0.1495694220
$$$$



37 41  0  0  0  0  0  0  0  0999 V2000
    6.6873   -1.8842   23.1777 N   0  0  0  0  0  0  0  0  0  0  0  0
    8.0400   -1.5554   23.6126 C   0  0  0  0  0  0  0  0  0  0  0  0
    8.1014   -0.4774   24.2453 O   0  0  0  0  0  0  0  0  0  0  0  0
    3.5154    0.2964   26.3327 N   0  0  0  0  0  0  0  0  0  0  0  0
    3.4341   -1.0825   26.6437 C   0  0  0  0  0  0  0  0  0  0  0  0
    4.6914   -1.7039   27.0928 C   0  0  0  0  0  0  0  0  0  0  0  0
    5.5428   -1.8146   25.8263 C   0  0  0  0  0  0  0  0  0  0  0  0
    5.1248   -0.8374   24.8029 C   0  0  0  0  0  0  0  0  0  0  0  0
    5.7181   -0.8948   23.5627 C   0  0  0  0  0  0  0  0  0  0  0  0
    5.4013    0.0095   22.5366 C   0  0  0  0  0  0  0  0  0  0  0  0
    4.4680    1.0007   22.7440 C   0  0  0  0  0  0  0  0  0  0  0  0
    3.8838    1.0444   23.9873 C   0  0  0  0  0  0  0  0  0  0  0  0
    4.1925    0.1588   24.9975 C   0  0  0  0  0  0  0  0  0  0  0  0
    3.7940    0.0938   27.2550 H   0  0  0  0  0  0  0  0  0  0  0  0
    4.3225    0.9777   27.2293 C   0  0  0  0  0  0  0  0  0  0  0  0
    3.6666    1.0980   28.3207 O   0  0  0  0  0  0  0  0  0  0  0  0
    5.9271    2.1517   28.7363 C   0  0  0  0  0  0  0  0  0  0  0  0
    5.6290    1.5830   27.3330 C   0  0  0  0  0  0  0  0  0  0  0  0
    6.3534   -3.0429   22.4090 C   0  0  0  0  0  0  0  0  0  0  0  0
    6.3376   -4.3461   23.0411 C   0  0  0  0  0  0  0  0  0  0  0  0
    6.9522   -5.4874   22.6381 C   0  0  0  0  0  0  0  0  0  0  0  0
    6.8623   -6.7001   23.3340 C   0  0  0  0  0  0  0  0  0  0  0  0
    6.1227   -6.7882   24.4932 C   0  0  0  0  0  0  0  0  0  0  0  0
    5.4907   -5.6404   24.9187 C   0  0  0  0  0  0  0  0  0  0  0  0
    4.5297   -5.6863   26.3928 Cl  0  0  0  0  0  0  0  0  0  0  0  0
    5.5825   -4.4549   24.2327 C   0  0  0  0  0  0  0  0  0  0  0  0
    9.1154   -2.4738   23.2745 C   0  0  0  0  0  0  0  0  0  0  0  0
    9.7303   -3.1276   24.4257 C   0  0  0  0  0  0  0  0  0  0  0  0
    9.2684   -4.1353   25.2084 C   0  0  0  0  0  0  0  0  0  0  0  0
    9.9794   -4.6418   26.2657 N   0  0  0  0  0  0  0  0  0  0  0  0
   11.1664   -4.1520   26.5631 C   0  0  0  0  0  0  0  0  0  0  0  0
   11.7107   -3.1432   25.8374 C   0  0  0  0  0  0  0  0  0  0  0  0
   12.9565   -2.6752   26.2017 C   0  0  0  0  0  0  0  0  0  0  0  0
   13.5295   -1.6502   25.4802 C   0  0  0  0  0  0  0  0  0  0  0  0
   12.8465   -1.1136   24.4096 C   0  0  0  0  0  0  0  0  0  0  0  0
   11.5918   -1.6069   24.0667 C   0  0  0  0  0  0  0  0  0  0  0  0
   11.0095   -2.6317   24.7814 C   0  0  0  0  0  0  0  0  0  0  0  0
 17 18  1  0  0  0
 18 15  1  0  0  0
 15 16  2  0  0  0
  4 15  1  0  0  0
  4  5  1  0  0  0
  4 14  1  0  0  0
  5  6  1  0  0  0
  6  7  1  0  0  0
  7  8  1  0  0  0
  8  9  2  0  0  0
  9  1  1  0  0  0
  9 10  1  0  0  0
  1 19  1  0  0  0
  1  2  1  0  0  0
 19 20  1  0  0  0
 20 21  2  0  0  0
 21 22  1  0  0  0
 22 23  2  0  0  0
 23 24  1  0  0  0
 24 25  1  0  0  0
 24 26  2  0  0  0
 26 20  1  0  0  0
  2  3  2  0  0  0
  2 27  1  0  0  0
 27 28  1  0  0  0
 28 29  2  0  0  0
 29 30  1  0  0  0
 30 31  2  0  0  0
 31 32  1  0  0  0
 32 33  2  0  0  0
 33 34  1  0  0  0
 34 35  2  0  0  0
 35 36  1  0  0  0
 36 37  2  0  0  0
 37 28  1  0  0  0
 37 32  1  0  0  0
 10 11  2  0  0  0
 11 12  1  0  0  0
 12 13  2  0  0  0
 13  4  1  0  0  0
 13  8  1  0  0  0
M  CHG 1   4   1
M  END
> <minimizedAffinity>
-6.93352

> <CNNscore>
0.5855783820

> <CNNaffinity>
6.8497953415

> <CNN_VS>
4.0110921860

> <CNNaffinity_variance>
0.0766110793
$$$$



40 44  0  0  0  0  0  0  0  0999 V2000
    5.2083    0.1128   22.9261 N   0  0  0  0  0  0  0  0  0  0  0  0
    5.3715   -1.2793   22.5607 C   0  0  0  0  0  0  0  0  0  0  0  0
    6.4455   -1.8995   23.3870 C   0  0  0  0  0  0  0  0  0  0  0  0
    7.7555   -1.3111   22.9975 C   0  0  0  0  0  0  0  0  0  0  0  0
    7.9911   -0.1365   22.5873 O   0  0  0  0  0  0  0  0  0  0  0  0
    8.7483   -2.3315   23.1693 N   0  0  0  0  0  0  0  0  0  0  0  0
    8.0859   -3.5917   22.8279 C   0  0  0  0  0  0  0  0  0  0  0  0
    6.6194   -3.3713   23.1337 C   0  0  0  0  0  0  0  0  0  0  0  0
    6.2519   -1.6024   24.8208 C   0  0  0  0  0  0  0  0  0  0  0  0
    6.7728   -2.4503   25.8052 C   0  0  0  0  0  0  0  0  0  0  0  0
    6.6034   -2.1905   27.1516 C   0  0  0  0  0  0  0  0  0  0  0  0
    7.1092   -3.0140   28.1011 F   0  0  0  0  0  0  0  0  0  0  0  0
    5.9118   -1.0805   27.5881 C   0  0  0  0  0  0  0  0  0  0  0  0
    5.3907   -0.2321   26.6338 C   0  0  0  0  0  0  0  0  0  0  0  0
    5.5662   -0.5022   25.2938 C   0  0  0  0  0  0  0  0  0  0  0  0
    5.0107    0.4109   24.3028 C   0  0  0  0  0  0  0  0  0  0  0  0
    4.3642    1.4514   24.6039 O   0  0  0  0  0  0  0  0  0  0  0  0
   10.0969   -2.1287   23.5875 C   0  0  0  0  0  0  0  0  0  0  0  0
   10.9903   -1.3443   22.8889 C   0  0  0  0  0  0  0  0  0  0  0  0
   12.2398   -1.2002   23.3404 N   0  0  0  0  0  0  0  0  0  0  0  0
   12.6879   -1.7851   24.4565 C   0  0  0  0  0  0  0  0  0  0  0  0
   11.8444   -2.5777   25.1940 C   0  0  0  0  0  0  0  0  0  0  0  0
   12.3041   -3.1787   26.3401 C   0  0  0  0  0  0  0  0  0  0  0  0
   11.4355   -3.9768   27.0721 C   0  0  0  0  0  0  0  0  0  0  0  0
   10.1334   -4.1749   26.6736 C   0  0  0  0  0  0  0  0  0  0  0  0
    9.7064   -3.5501   25.5093 C   0  0  0  0  0  0  0  0  0  0  0  0
   10.5375   -2.7535   24.7595 C   0  0  0  0  0  0  0  0  0  0  0  0
    5.2458    1.1419   21.9054 C   0  0  0  0  0  0  0  0  0  0  0  0
    6.6594   -0.3545   18.6593 C   0  0  0  0  0  0  0  0  0  0  0  0
    6.4932    0.2216   19.9714 N   0  0  0  0  0  0  0  0  0  0  0  0
    5.2241    0.5494   20.5240 C   0  0  0  0  0  0  0  0  0  0  0  0
    4.1592    0.3538   19.8928 O   0  0  0  0  0  0  0  0  0  0  0  0
    7.2978    0.3965   20.5110 H   0  0  0  0  0  0  0  0  0  0  0  0
    5.8465   -3.8492   21.9253 C   0  0  0  0  0  0  0  0  0  0  0  0
    5.3541   -5.5289   22.2227 S   0  0  0  0  0  0  0  0  0  0  0  0
    3.8808   -5.6583   22.4438 O   0  0  0  0  0  0  0  0  0  0  0  0
    5.7347   -6.4149   21.0578 O   0  0  0  0  0  0  0  0  0  0  0  0
    6.1197   -6.1702   23.6336 N   0  0  0  0  0  0  0  0  0  0  0  0
    7.1037   -7.1639   23.2407 C   0  0  0  0  0  0  0  0  0  0  0  0
    5.1352   -6.8575   24.4485 C   0  0  0  0  0  0  0  0  0  0  0  0
 29 30  1  0  0  0
 30 31  1  0  0  0
 30 33  1  0  0  0
 31 32  2  0  0  0
 31 28  1  0  0  0
 28  1  1  0  0  0
  1  2  1  0  0  0
  3  2  1  0  0  0
  3  4  1  0  0  0
  3  9  1  0  0  0
  4  5  2  0  0  0
  4  6  1  0  0  0
  6 18  1  0  0  0
  6  7  1  0  0  0
 18 19  2  0  0  0
 19 20  1  0  0  0
 20 21  2  0  0  0
 21 22  1  0  0  0
 22 23  2  0  0  0
 23 24  1  0  0  0
 24 25  2  0  0  0
 25 26  1  0  0  0
 26 27  2  0  0  0
 27 18  1  0  0  0
 27 22  1  0  0  0
  7  8  1  0  0  0
  8 34  1  0  0  0
  8  3  1  0  0  0
 34 35  1  0  0  0
 35 36  2  0  0  0
 35 37  2  0  0  0
 35 38  1  0  0  0
 38 39  1  0  0  0
 38 40  1  0  0  0
  9 10  2  0  0  0
 10 11  1  0  0  0
 11 12  1  0  0  0
 11 13  2  0  0  0
 13 14  1  0  0  0
 14 15  2  0  0  0
 15 16  1  0  0  0
 15  9  1  0  0  0
 16 17  2  0  0  0
 16  1  1  0  0  0
M  END
> <minimizedAffinity>
-8.18643

> <CNNscore>
0.5797449350

> <CNNaffinity>
6.8841667175

> <CNN_VS>
3.9910607338

> <CNNaffinity_variance>
0.2115333527
$$$$



23 25  0  0  0  0  0  0  0  0999 V2000
    6.2543   -1.4841   21.9056 O   0  0  0  0  0  0  0  0  0  0  0  0
    7.4068   -1.0188   21.7851 C   0  0  0  0  0  0  0  0  0  0  0  0
    8.4679   -1.7196   22.3690 N   0  0  0  0  0  0  0  0  0  0  0  0
    9.3759   -1.3517   22.2726 H   0  0  0  0  0  0  0  0  0  0  0  0
    7.7173    0.2537   21.0311 C   0  0  0  0  0  0  0  0  0  0  0  0
    6.6958    0.4290   19.9705 C   0  0  0  0  0  0  0  0  0  0  0  0
    6.8127   -0.4397   18.8710 C   0  0  0  0  0  0  0  0  0  0  0  0
    5.9328   -0.4646   17.8771 N   0  0  0  0  0  0  0  0  0  0  0  0
    4.8900    0.3435   17.8831 C   0  0  0  0  0  0  0  0  0  0  0  0
    4.7347    1.2165   18.9466 C   0  0  0  0  0  0  0  0  0  0  0  0
    3.6331    2.0368   18.9234 C   0  0  0  0  0  0  0  0  0  0  0  0
    3.4744    2.9027   19.9831 C   0  0  0  0  0  0  0  0  0  0  0  0
    4.3745    2.9510   21.0203 C   0  0  0  0  0  0  0  0  0  0  0  0
    5.4773    2.1261   21.0357 C   0  0  0  0  0  0  0  0  0  0  0  0
    5.6396    1.2624   19.9924 C   0  0  0  0  0  0  0  0  0  0  0  0
    8.3085   -2.9409   23.0985 C   0  0  0  0  0  0  0  0  0  0  0  0
    9.3915   -3.0611   24.1036 C   0  0  0  0  0  0  0  0  0  0  0  0
    9.3507   -3.8727   25.2096 C   0  0  0  0  0  0  0  0  0  0  0  0
   10.4661   -3.8716   26.0257 C   0  0  0  0  0  0  0  0  0  0  0  0
   11.5883   -3.0909   25.7551 C   0  0  0  0  0  0  0  0  0  0  0  0
   11.6126   -2.2821   24.6429 C   0  0  0  0  0  0  0  0  0  0  0  0
   12.9920   -1.2883   24.2591 Cl  0  0  0  0  0  0  0  0  0  0  0  0
   10.5273   -2.2696   23.8291 C   0  0  0  0  0  0  0  0  0  0  0  0
  1  2  2  0  0  0
  2  5  1  0  0  0
  2  3  1  0  0  0
  5  6  1  0  0  0
  6  7  2  0  0  0
  7  8  1  0  0  0
  8  9  2  0  0  0
  9 10  1  0  0  0
 10 11  2  0  0  0
 11 12  1  0  0  0
 12 13  2  0  0  0
 13 14  1  0  0  0
 14 15  2  0  0  0
 15  6  1  0  0  0
 15 10  1  0  0  0
  3 16  1  0  0  0
  3  4  1  0  0  0
 16 17  1  0  0  0
 17 18  2  0  0  0
 18 19  1  0  0  0
 19 20  2  0  0  0
 20 21  1  0  0  0
 21 22  1  0  0  0
 21 23  2  0  0  0
 23 17  1  0  0  0
M  END
> <minimizedAffinity>
-7.39035

> <CNNscore>
0.8032402396

> <CNNaffinity>
5.4645528793

> <CNN_VS>
4.3893489838

> <CNNaffinity_variance>
0.1001173109
$$$$



37 41  0  0  0  0  0  0  0  0999 V2000
    8.0104   -1.4653   22.4726 N   0  0  0  0  0  0  0  0  0  0  0  0
    7.1301   -2.1012   23.3714 C   0  0  0  0  0  0  0  0  0  0  0  0
    6.1047   -1.4288   23.7276 O   0  0  0  0  0  0  0  0  0  0  0  0
    5.4689    1.6860   19.6116 N   0  0  0  0  0  0  0  0  0  0  0  0
    5.8321    0.6209   18.7689 C   0  0  0  0  0  0  0  0  0  0  0  0
    5.3421   -0.7193   19.1646 C   0  0  0  0  0  0  0  0  0  0  0  0
    6.1713   -1.1181   20.3811 C   0  0  0  0  0  0  0  0  0  0  0  0
    6.7411    0.0856   21.0351 C   0  0  0  0  0  0  0  0  0  0  0  0
    7.6396   -0.1302   22.0616 C   0  0  0  0  0  0  0  0  0  0  0  0
    8.2485    0.8903   22.7615 C   0  0  0  0  0  0  0  0  0  0  0  0
    7.9539    2.1954   22.4290 C   0  0  0  0  0  0  0  0  0  0  0  0
    7.0529    2.3801   21.3990 C   0  0  0  0  0  0  0  0  0  0  0  0
    6.4489    1.3798   20.7053 C   0  0  0  0  0  0  0  0  0  0  0  0
    5.7307    0.7781   19.8880 H   0  0  0  0  0  0  0  0  0  0  0  0
    4.1554    1.5863   20.0765 C   0  0  0  0  0  0  0  0  0  0  0  0
    3.3862    1.7489   19.0752 O   0  0  0  0  0  0  0  0  0  0  0  0
    3.2170    2.7176   22.0603 C   0  0  0  0  0  0  0  0  0  0  0  0
    3.4200    1.3635   21.2920 C   0  0  0  0  0  0  0  0  0  0  0  0
    9.2213   -1.9951   21.9382 C   0  0  0  0  0  0  0  0  0  0  0  0
   10.4599   -1.5613   22.6074 C   0  0  0  0  0  0  0  0  0  0  0  0
   11.4962   -1.0862   21.8155 C   0  0  0  0  0  0  0  0  0  0  0  0
   12.7018   -0.6614   22.3629 C   0  0  0  0  0  0  0  0  0  0  0  0
   12.8645   -0.7177   23.7436 C   0  0  0  0  0  0  0  0  0  0  0  0
   11.8552   -1.1829   24.5435 C   0  0  0  0  0  0  0  0  0  0  0  0
   12.1031   -1.2360   26.2777 Cl  0  0  0  0  0  0  0  0  0  0  0  0
   10.6743   -1.5956   23.9659 C   0  0  0  0  0  0  0  0  0  0  0  0
    7.2738   -3.4447   23.9309 C   0  0  0  0  0  0  0  0  0  0  0  0
    7.3430   -3.3747   25.4383 C   0  0  0  0  0  0  0  0  0  0  0  0
    6.2318   -2.9376   26.1546 C   0  0  0  0  0  0  0  0  0  0  0  0
    6.2921   -2.8741   27.5123 N   0  0  0  0  0  0  0  0  0  0  0  0
    7.4167   -3.2295   28.1803 C   0  0  0  0  0  0  0  0  0  0  0  0
    8.5384   -3.6686   27.4896 C   0  0  0  0  0  0  0  0  0  0  0  0
    9.6793   -4.0271   28.1947 C   0  0  0  0  0  0  0  0  0  0  0  0
   10.7605   -4.4539   27.4694 C   0  0  0  0  0  0  0  0  0  0  0  0
   10.7585   -4.5388   26.1006 C   0  0  0  0  0  0  0  0  0  0  0  0
    9.6168   -4.1811   25.3780 C   0  0  0  0  0  0  0  0  0  0  0  0
    8.5197   -3.7492   26.0928 C   0  0  0  0  0  0  0  0  0  0  0  0
 17 18  1  0  0  0
 18 15  1  0  0  0
 15 16  2  0  0  0
  4 15  1  0  0  0
  4  5  1  0  0  0
  4 14  1  0  0  0
  5  6  1  0  0  0
  6  7  1  0  0  0
  7  8  1  0  0  0
  8  9  2  0  0  0
  9  1  1  0  0  0
  9 10  1  0  0  0
  1 19  1  0  0  0
  1  2  1  0  0  0
 19 20  1  0  0  0
 20 21  2  0  0  0
 21 22  1  0  0  0
 22 23  2  0  0  0
 23 24  1  0  0  0
 24 25  1  0  0  0
 24 26  2  0  0  0
 26 20  1  0  0  0
  2  3  2  0  0  0
  2 27  1  0  0  0
 27 28  1  0  0  0
 28 29  2  0  0  0
 29 30  1  0  0  0
 30 31  2  0  0  0
 31 32  1  0  0  0
 32 33  2  0  0  0
 33 34  1  0  0  0
 34 35  2  0  0  0
 35 36  1  0  0  0
 36 37  2  0  0  0
 37 28  1  0  0  0
 37 32  1  0  0  0
 10 11  2  0  0  0
 11 12  1  0  0  0
 12 13  2  0  0  0
 13  4  1  0  0  0
 13  8  1  0  0  0
M  CHG 1   4   1
M  END
> <minimizedAffinity>
-7.23425

> <CNNscore>
0.5708011389

> <CNNaffinity>
6.8968148232

> <CNN_VS>
3.9367096424

> <CNNaffinity_variance>
0.0589679480
$$$$



