
     RDKit          3D

 56 61  0  0  0  0  0  0  0  0999 V2000
    8.8502   -2.7976   23.6516 C   0  0  0  0  0  0  0  0  0  0  0  0
    8.9142   -1.7923   22.5054 C   0  0  1  0  0  0  0  0  0  0  0  0
    7.5678   -1.5508   21.8064 C   0  0  0  0  0  0  0  0  0  0  0  0
    7.7784   -0.2681   21.1595 N   0  0  0  0  0  0  0  0  0  0  0  0
    6.9422    0.2635   20.1401 C   0  0  0  0  0  0  0  0  0  0  0  0
    7.2126   -0.0116   18.8255 C   0  0  0  0  0  0  0  0  0  0  0  0
    6.4853    0.4454   17.7721 N   0  0  0  0  0  0  0  0  0  0  0  0
    5.4486    1.2042   18.0431 C   0  0  0  0  0  0  0  0  0  0  0  0
    5.0342    1.5542   19.3598 C   0  0  0  0  0  0  0  0  0  0  0  0
    3.9066    2.3850   19.6126 C   0  0  0  0  0  0  0  0  0  0  0  0
    3.5407    2.6885   20.8921 C   0  0  0  0  0  0  0  0  0  0  0  0
    4.2756    2.1736   21.9871 C   0  0  0  0  0  0  0  0  0  0  0  0
    5.3775    1.3849   21.7726 C   0  0  0  0  0  0  0  0  0  0  0  0
    5.7929    1.0612   20.4543 C   0  0  0  0  0  0  0  0  0  0  0  0
    8.8196    0.4583   21.6989 C   0  0  0  0  0  0  0  0  0  0  0  0
    9.1562    1.5539   21.3114 O   0  0  0  0  0  0  0  0  0  0  0  0
    9.4274   -0.3687   22.8594 C   0  0  1  0  0  0  0  0  0  0  0  0
    8.8531    0.1216   24.2146 C   0  0  0  0  0  0  0  0  0  0  0  0
    9.2832    1.4689   24.5330 N   0  0  0  0  0  0  0  0  0  0  0  0
    8.3875    2.2978   25.3191 C   0  0  0  0  0  0  0  0  0  0  0  0
    7.5403    3.2236   24.4959 C   0  0  0  0  0  0  0  0  0  0  0  0
    6.2166    3.6323   24.7425 C   0  0  0  0  0  0  0  0  0  0  0  0
    5.7918    4.5123   23.8412 N   0  0  0  0  0  0  0  0  0  0  0  0
    6.8349    4.6657   23.0208 N   0  0  0  0  0  0  0  0  0  0  0  0
    7.9093    3.9187   23.3654 C   0  0  0  0  0  0  0  0  0  0  0  0
   10.5460    1.9180   24.2778 C   0  0  0  0  0  0  0  0  0  0  0  0
   10.9141    3.0363   24.6194 O   0  0  0  0  0  0  0  0  0  0  0  0
   11.4438    0.9598   23.5533 C   0  0  0  0  0  0  0  0  0  0  0  0
   12.8092    1.2401   23.5179 C   0  0  0  0  0  0  0  0  0  0  0  0
   13.6888    0.3934   22.8718 C   0  0  0  0  0  0  0  0  0  0  0  0
   13.1655   -0.7488   22.2696 C   0  0  0  0  0  0  0  0  0  0  0  0
   14.0055   -1.5802   21.6267 F   0  0  0  0  0  0  0  0  0  0  0  0
   11.8195   -1.0553   22.2895 C   0  0  0  0  0  0  0  0  0  0  0  0
   10.9266   -0.1866   22.9270 C   0  0  0  0  0  0  0  0  0  0  0  0
    8.5947   -3.8025   23.2916 H   0  0  0  0  0  0  0  0  0  0  0  0
    8.0943   -2.5072   24.3918 H   0  0  0  0  0  0  0  0  0  0  0  0
    9.8103   -2.8632   24.1770 H   0  0  0  0  0  0  0  0  0  0  0  0
    9.5744   -2.1967   21.7332 H   0  0  0  0  0  0  0  0  0  0  0  0
    6.7425   -1.5279   22.5423 H   0  0  0  0  0  0  0  0  0  0  0  0
    7.3258   -2.3191   21.0645 H   0  0  0  0  0  0  0  0  0  0  0  0
    8.0700   -0.6314   18.5711 H   0  0  0  0  0  0  0  0  0  0  0  0
    4.8753    1.5817   17.1936 H   0  0  0  0  0  0  0  0  0  0  0  0
    3.3502    2.7811   18.7633 H   0  0  0  0  0  0  0  0  0  0  0  0
    2.6843    3.3315   21.0818 H   0  0  0  0  0  0  0  0  0  0  0  0
    3.9750    2.4164   23.0011 H   0  0  0  0  0  0  0  0  0  0  0  0
    5.9483    0.9912   22.6106 H   0  0  0  0  0  0  0  0  0  0  0  0
    7.7574    0.1147   24.1744 H   0  0  0  0  0  0  0  0  0  0  0  0
    9.1726   -0.5563   25.0216 H   0  0  0  0  0  0  0  0  0  0  0  0
    7.7339    1.6420   25.9085 H   0  0  0  0  0  0  0  0  0  0  0  0
    8.9981    2.8718   26.0249 H   0  0  0  0  0  0  0  0  0  0  0  0
    5.5513    3.3177   25.5383 H   0  0  0  0  0  0  0  0  0  0  0  0
    6.7512    5.2959   22.2421 H   0  0  0  0  0  0  0  0  0  0  0  0
    8.8334    3.9412   22.8051 H   0  0  0  0  0  0  0  0  0  0  0  0
   13.1675    2.1381   24.0091 H   0  0  0  0  0  0  0  0  0  0  0  0
   14.7549    0.5978   22.8124 H   0  0  0  0  0  0  0  0  0  0  0  0
   11.4921   -1.9688   21.8032 H   0  0  0  0  0  0  0  0  0  0  0  0
  1  2  1  0
  2  3  1  0
  3  4  1  0
  4  5  1  0
  5  6  2  0
  6  7  1  0
  7  8  2  0
  8  9  1  0
  9 10  2  0
 10 11  1  0
 11 12  2  0
 12 13  1  0
 13 14  2  0
  4 15  1  0
 15 16  2  0
 15 17  1  0
 17 18  1  1
 18 19  1  0
 19 20  1  0
 20 21  1  0
 21 22  1  0
 22 23  2  0
 23 24  1  0
 24 25  1  0
 19 26  1  0
 26 27  2  0
 26 28  1  0
 28 29  2  0
 29 30  1  0
 30 31  2  0
 31 32  1  0
 31 33  1  0
 33 34  2  0
 17  2  1  0
 25 21  2  0
 34 28  1  0
 14  5  1  0
 34 17  1  0
 14  9  1  0
  1 35  1  0
  1 36  1  0
  1 37  1  0
  2 38  1  6
  3 39  1  0
  3 40  1  0
  6 41  1  0
  8 42  1  0
 10 43  1  0
 11 44  1  0
 12 45  1  0
 13 46  1  0
 18 47  1  0
 18 48  1  0
 20 49  1  0
 20 50  1  0
 22 51  1  0
 24 52  1  0
 25 53  1  0
 29 54  1  0
 30 55  1  0
 33 56  1  0
M  END
$$$$
