output/tmp_first_model_12_93.pdb
 OpenBabel07242619253D

 62 67  0  0  1  0  0  0  0  0999 V2000
  -11.4280    2.5510  -22.1040 C   0  0  0  0  0  0  0  0  0  0  0  0
  -10.4540    3.2780  -23.0200 C   0  0  0  0  0  0  0  0  0  0  0  0
   -9.1460    2.6720  -23.2630 N   0  0  0  0  0  0  0  0  0  0  0  0
   -6.9350    2.8530  -23.5450 N   0  0  0  0  0  0  0  0  0  0  0  0
   -7.9610    3.1990  -22.8070 C   0  0  0  0  0  0  0  0  0  0  0  0
   -7.4640    2.0840  -24.5520 C   0  0  0  0  0  0  0  0  0  0  0  0
   -8.8130    1.9430  -24.3930 C   0  0  0  0  0  0  0  0  0  0  0  0
   -9.8120    1.1400  -25.1420 C   0  0  0  0  0  0  0  0  0  0  0  0
  -10.2780   -0.0130  -24.3730 N   0  0  0  0  0  0  0  0  0  0  0  0
   -9.3210   -1.0770  -24.1390 C   0  0  0  0  0  0  0  0  0  0  0  0
   -9.4830   -1.7560  -22.7570 C   0  0  2  0  0  0  0  0  0  0  0  0
   -8.9960   -0.8200  -21.6040 C   0  0  0  0  0  0  0  0  0  0  0  0
   -9.6220    0.0640  -21.0600 O   0  0  0  0  0  0  0  0  0  0  0  0
   -7.6990   -1.1570  -21.2920 N   0  0  0  0  0  0  0  0  0  0  0  0
   -6.9700   -0.6130  -20.2090 C   0  0  0  0  0  0  0  0  0  0  0  0
   -7.2310   -1.0010  -18.9200 C   0  0  0  0  0  0  0  0  0  0  0  0
   -6.4490   -0.6760  -17.8610 N   0  0  0  0  0  0  0  0  0  0  0  0
   -5.3880    0.0610  -18.0810 C   0  0  0  0  0  0  0  0  0  0  0  0
   -5.0260    0.5680  -19.3590 C   0  0  0  0  0  0  0  0  0  0  0  0
   -3.8960    1.4050  -19.5590 C   0  0  0  0  0  0  0  0  0  0  0  0
   -3.6510    1.9530  -20.7880 C   0  0  0  0  0  0  0  0  0  0  0  0
   -4.5090    1.6740  -21.8760 C   0  0  0  0  0  0  0  0  0  0  0  0
   -5.5700    0.8160  -21.7160 C   0  0  0  0  0  0  0  0  0  0  0  0
   -5.8550    0.2460  -20.4530 C   0  0  0  0  0  0  0  0  0  0  0  0
   -6.2400    0.6170  -22.5470 H   0  0  0  0  0  0  0  0  0  0  0  0
   -4.3500    2.1510  -22.8380 H   0  0  0  0  0  0  0  0  0  0  0  0
   -2.8090    2.6260  -20.9250 H   0  0  0  0  0  0  0  0  0  0  0  0
   -3.2560    1.6200  -18.7070 H   0  0  0  0  0  0  0  0  0  0  0  0
   -4.7580    0.3030  -17.2240 H   0  0  0  0  0  0  0  0  0  0  0  0
   -8.0910   -1.6300  -18.7020 H   0  0  0  0  0  0  0  0  0  0  0  0
   -7.1750   -2.2160  -22.1240 C   0  0  0  0  0  0  0  0  0  0  0  0
   -8.4520   -2.9160  -22.6250 C   0  0  2  0  0  0  0  0  0  0  0  0
   -8.1820   -3.7550  -23.8690 C   0  0  0  0  0  0  0  0  0  0  0  0
   -7.6770   -3.1520  -24.6330 H   0  0  0  0  0  0  0  0  0  0  0  0
   -9.1040   -4.1490  -24.3100 H   0  0  0  0  0  0  0  0  0  0  0  0
   -7.5210   -4.5970  -23.6380 H   0  0  0  0  0  0  0  0  0  0  0  0
   -8.7980   -3.5670  -21.8140 H   0  0  0  0  0  0  0  0  0  0  0  0
   -6.5150   -2.8720  -21.5500 H   0  0  0  0  0  0  0  0  0  0  0  0
   -6.5930   -1.8110  -22.9710 H   0  0  0  0  0  0  0  0  0  0  0  0
  -10.9540   -2.0800  -22.5690 C   0  0  0  0  0  0  0  0  0  0  0  0
  -11.4070   -3.1470  -21.7820 C   0  0  0  0  0  0  0  0  0  0  0  0
  -12.7050   -3.1280  -21.3060 C   0  0  0  0  0  0  0  0  0  0  0  0
  -13.1120   -4.0920  -20.4620 F   0  0  0  0  0  0  0  0  0  0  0  0
  -13.6070   -2.1110  -21.6060 C   0  0  0  0  0  0  0  0  0  0  0  0
  -13.2110   -1.1510  -22.5110 C   0  0  0  0  0  0  0  0  0  0  0  0
  -11.9230   -1.1780  -23.0440 C   0  0  0  0  0  0  0  0  0  0  0  0
  -11.6030   -0.1710  -24.1090 C   0  0  0  0  0  0  0  0  0  0  0  0
  -12.4760    0.5190  -24.6270 O   0  0  0  0  0  0  0  0  0  0  0  0
  -13.8860   -0.3610  -22.8260 H   0  0  0  0  0  0  0  0  0  0  0  0
  -14.5950   -2.1200  -21.1580 H   0  0  0  0  0  0  0  0  0  0  0  0
  -10.7680   -3.9820  -21.5120 H   0  0  0  0  0  0  0  0  0  0  0  0
   -8.3200   -0.6470  -24.2210 H   0  0  0  0  0  0  0  0  0  0  0  0
   -9.4300   -1.8420  -24.9200 H   0  0  0  0  0  0  0  0  0  0  0  0
  -10.7030    1.7280  -25.3940 H   0  0  0  0  0  0  0  0  0  0  0  0
   -9.3490    0.7900  -26.0730 H   0  0  0  0  0  0  0  0  0  0  0  0
   -6.8390    1.6420  -25.3190 H   0  0  0  0  0  0  0  0  0  0  0  0
   -7.9370    3.8700  -21.9620 H   0  0  0  0  0  0  0  0  0  0  0  0
  -10.9820    3.4200  -23.9760 H   0  0  0  0  0  0  0  0  0  0  0  0
  -10.2550    4.2740  -22.6140 H   0  0  0  0  0  0  0  0  0  0  0  0
  -11.0340    2.2720  -21.1260 H   0  0  0  0  0  0  0  0  0  0  0  0
  -12.2790    3.2320  -21.9750 H   0  0  0  0  0  0  0  0  0  0  0  0
  -11.7970    1.6380  -22.5670 H   0  0  0  0  0  0  0  0  0  0  0  0
  1  2  1  0  0  0  0
  1 60  1  0  0  0  0
  1 61  1  0  0  0  0
  1 62  1  0  0  0  0
  2  3  1  0  0  0  0
  2 58  1  0  0  0  0
  2 59  1  0  0  0  0
  3  4  1  0  0  0  0
  3  7  1  0  0  0  0
  4  5  2  0  0  0  0
  5  6  1  0  0  0  0
  5 57  1  0  0  0  0
  6  7  2  0  0  0  0
  6 56  1  0  0  0  0
  7  8  1  0  0  0  0
  8  9  1  0  0  0  0
  8 54  1  0  0  0  0
  8 55  1  0  0  0  0
  9 10  1  0  0  0  0
  9 47  1  0  0  0  0
 10 11  1  0  0  0  0
 10 52  1  0  0  0  0
 10 53  1  0  0  0  0
 11 12  1  1  0  0  0
 11 32  1  0  0  0  0
 11 40  1  0  0  0  0
 12 13  2  0  0  0  0
 12 14  1  0  0  0  0
 14 15  1  0  0  0  0
 14 31  1  0  0  0  0
 15 16  2  0  0  0  0
 15 24  1  0  0  0  0
 16 17  1  0  0  0  0
 16 30  1  0  0  0  0
 17 18  2  0  0  0  0
 18 19  1  0  0  0  0
 18 29  1  0  0  0  0
 19 20  2  0  0  0  0
 19 24  1  0  0  0  0
 20 21  1  0  0  0  0
 20 28  1  0  0  0  0
 21 22  2  0  0  0  0
 21 27  1  0  0  0  0
 22 23  1  0  0  0  0
 22 26  1  0  0  0  0
 23 24  2  0  0  0  0
 23 25  1  0  0  0  0
 31 32  1  0  0  0  0
 31 38  1  0  0  0  0
 31 39  1  0  0  0  0
 32 33  1  0  0  0  0
 32 37  1  1  0  0  0
 33 34  1  0  0  0  0
 33 35  1  0  0  0  0
 33 36  1  0  0  0  0
 40 41  2  0  0  0  0
 40 46  1  0  0  0  0
 41 42  1  0  0  0  0
 41 51  1  0  0  0  0
 42 43  1  0  0  0  0
 42 44  2  0  0  0  0
 44 45  1  0  0  0  0
 44 50  1  0  0  0  0
 45 46  2  0  0  0  0
 45 49  1  0  0  0  0
 46 47  1  0  0  0  0
 47 48  2  0  0  0  0
M  END
>  <MODEL>
       1

$$$$
