output/tmp_first_model_7_92.pdb
 OpenBabel07242616393D

 60 65  0  0  1  0  0  0  0  0999 V2000
   -7.1900   -5.5740  -24.9530 C   0  0  0  0  0  0  0  0  0  0  0  0
   -7.4400   -4.9010  -23.7470 O   0  0  0  0  0  0  0  0  0  0  0  0
   -8.1690   -3.7190  -23.9400 C   0  0  0  0  0  0  0  0  0  0  0  0
   -8.3450   -3.0390  -22.5900 C   0  0  1  0  0  0  0  0  0  0  0  0
   -7.0140   -2.5500  -21.9760 C   0  0  0  0  0  0  0  0  0  0  0  0
   -7.4020   -1.3680  -21.2220 N   0  0  0  0  0  0  0  0  0  0  0  0
   -6.6110   -0.8110  -20.1850 C   0  0  0  0  0  0  0  0  0  0  0  0
   -6.9240   -1.0390  -18.8670 C   0  0  0  0  0  0  0  0  0  0  0  0
   -6.2110   -0.5560  -17.8240 N   0  0  0  0  0  0  0  0  0  0  0  0
   -5.1740    0.1980  -18.0920 C   0  0  0  0  0  0  0  0  0  0  0  0
   -4.7370    0.5140  -19.4080 C   0  0  0  0  0  0  0  0  0  0  0  0
   -3.6210    1.3570  -19.6510 C   0  0  0  0  0  0  0  0  0  0  0  0
   -3.2430    1.6520  -20.9320 C   0  0  0  0  0  0  0  0  0  0  0  0
   -3.9400    1.0950  -22.0240 C   0  0  0  0  0  0  0  0  0  0  0  0
   -4.9940    0.2360  -21.8100 C   0  0  0  0  0  0  0  0  0  0  0  0
   -5.4500   -0.0390  -20.4950 C   0  0  0  0  0  0  0  0  0  0  0  0
   -5.5230   -0.1920  -22.6540 H   0  0  0  0  0  0  0  0  0  0  0  0
   -3.6460    1.3720  -23.0330 H   0  0  0  0  0  0  0  0  0  0  0  0
   -2.4040    2.3170  -21.1110 H   0  0  0  0  0  0  0  0  0  0  0  0
   -3.0930    1.7720  -18.7970 H   0  0  0  0  0  0  0  0  0  0  0  0
   -4.6180    0.6010  -17.2450 H   0  0  0  0  0  0  0  0  0  0  0  0
   -7.7840   -1.6560  -18.6120 H   0  0  0  0  0  0  0  0  0  0  0  0
   -8.6960   -0.9470  -21.4600 C   0  0  0  0  0  0  0  0  0  0  0  0
   -9.2520   -0.0410  -20.8760 O   0  0  0  0  0  0  0  0  0  0  0  0
   -9.2860   -1.8100  -22.6030 C   0  0  1  0  0  0  0  0  0  0  0  0
   -9.1770   -1.0390  -23.9440 C   0  0  0  0  0  0  0  0  0  0  0  0
   -9.9980    0.1500  -23.9380 N   0  0  0  0  0  0  0  0  0  0  0  0
   -9.4520    1.3360  -24.5790 C   0  0  0  0  0  0  0  0  0  0  0  0
   -8.4780    2.0580  -23.6910 C   0  0  0  0  0  0  0  0  0  0  0  0
   -8.9260    2.9000  -22.6530 C   0  0  0  0  0  0  0  0  0  0  0  0
   -7.9310    3.3590  -21.8970 N   0  0  0  0  0  0  0  0  0  0  0  0
   -6.8440    2.8210  -22.4540 N   0  0  0  0  0  0  0  0  0  0  0  0
   -7.1070    2.0300  -23.5240 C   0  0  0  0  0  0  0  0  0  0  0  0
   -6.2870    1.5110  -24.0080 H   0  0  0  0  0  0  0  0  0  0  0  0
   -5.9300    2.9790  -22.0460 H   0  0  0  0  0  0  0  0  0  0  0  0
   -9.9480    3.1760  -22.4340 H   0  0  0  0  0  0  0  0  0  0  0  0
   -9.0190    1.0300  -25.5360 H   0  0  0  0  0  0  0  0  0  0  0  0
  -10.2970    1.9940  -24.7930 H   0  0  0  0  0  0  0  0  0  0  0  0
  -11.2430    0.1810  -23.3770 C   0  0  0  0  0  0  0  0  0  0  0  0
  -11.9310    1.1950  -23.3690 O   0  0  0  0  0  0  0  0  0  0  0  0
  -11.7040   -1.1130  -22.7640 C   0  0  0  0  0  0  0  0  0  0  0  0
  -13.0690   -1.2980  -22.5330 C   0  0  0  0  0  0  0  0  0  0  0  0
  -13.5100   -2.3730  -21.7940 C   0  0  0  0  0  0  0  0  0  0  0  0
  -12.5590   -3.2590  -21.3040 C   0  0  0  0  0  0  0  0  0  0  0  0
  -13.0990   -4.3810  -20.1070 Cl  0  0  0  0  0  0  0  0  0  0  0  0
  -11.2180   -3.1770  -21.6340 C   0  0  0  0  0  0  0  0  0  0  0  0
  -10.7620   -2.0800  -22.3720 C   0  0  0  0  0  0  0  0  0  0  0  0
  -10.5550   -3.9460  -21.2470 H   0  0  0  0  0  0  0  0  0  0  0  0
  -14.5540   -2.5160  -21.5310 H   0  0  0  0  0  0  0  0  0  0  0  0
  -13.7750   -0.5710  -22.9100 H   0  0  0  0  0  0  0  0  0  0  0  0
   -9.4870   -1.6970  -24.7690 H   0  0  0  0  0  0  0  0  0  0  0  0
   -8.1350   -0.7360  -24.1080 H   0  0  0  0  0  0  0  0  0  0  0  0
   -6.2620   -2.3100  -22.7430 H   0  0  0  0  0  0  0  0  0  0  0  0
   -6.5820   -3.3070  -21.3130 H   0  0  0  0  0  0  0  0  0  0  0  0
   -8.7500   -3.7880  -21.9060 H   0  0  0  0  0  0  0  0  0  0  0  0
   -9.1560   -3.9340  -24.3890 H   0  0  0  0  0  0  0  0  0  0  0  0
   -7.6380   -3.0500  -24.6430 H   0  0  0  0  0  0  0  0  0  0  0  0
   -6.5710   -4.9680  -25.6330 H   0  0  0  0  0  0  0  0  0  0  0  0
   -8.1240   -5.8310  -25.4760 H   0  0  0  0  0  0  0  0  0  0  0  0
   -6.6550   -6.4950  -24.7100 H   0  0  0  0  0  0  0  0  0  0  0  0
  1  2  1  0  0  0  0
  1 58  1  0  0  0  0
  1 59  1  0  0  0  0
  1 60  1  0  0  0  0
  2  3  1  0  0  0  0
  3  4  1  0  0  0  0
  3 56  1  0  0  0  0
  3 57  1  0  0  0  0
  4  5  1  0  0  0  0
  4 25  1  0  0  0  0
  4 55  1  1  0  0  0
  5  6  1  0  0  0  0
  5 53  1  0  0  0  0
  5 54  1  0  0  0  0
  6  7  1  0  0  0  0
  6 23  1  0  0  0  0
  7  8  2  0  0  0  0
  7 16  1  0  0  0  0
  8  9  1  0  0  0  0
  8 22  1  0  0  0  0
  9 10  2  0  0  0  0
 10 11  1  0  0  0  0
 10 21  1  0  0  0  0
 11 12  2  0  0  0  0
 11 16  1  0  0  0  0
 12 13  1  0  0  0  0
 12 20  1  0  0  0  0
 13 14  2  0  0  0  0
 13 19  1  0  0  0  0
 14 15  1  0  0  0  0
 14 18  1  0  0  0  0
 15 16  2  0  0  0  0
 15 17  1  0  0  0  0
 23 24  2  0  0  0  0
 25 23  1  1  0  0  0
 25 26  1  0  0  0  0
 25 47  1  0  0  0  0
 26 27  1  0  0  0  0
 26 51  1  0  0  0  0
 26 52  1  0  0  0  0
 27 28  1  0  0  0  0
 27 39  1  0  0  0  0
 28 29  1  0  0  0  0
 28 37  1  0  0  0  0
 28 38  1  0  0  0  0
 29 30  1  0  0  0  0
 29 33  2  0  0  0  0
 30 31  2  0  0  0  0
 30 36  1  0  0  0  0
 31 32  1  0  0  0  0
 32 33  1  0  0  0  0
 32 35  1  0  0  0  0
 33 34  1  0  0  0  0
 39 40  2  0  0  0  0
 39 41  1  0  0  0  0
 41 42  2  0  0  0  0
 41 47  1  0  0  0  0
 42 43  1  0  0  0  0
 42 50  1  0  0  0  0
 43 44  2  0  0  0  0
 43 49  1  0  0  0  0
 44 45  1  0  0  0  0
 44 46  1  0  0  0  0
 46 47  2  0  0  0  0
 46 48  1  0  0  0  0
M  END
>  <MODEL>
       1

$$$$
