output/tmp_first_model_5_60.pdb
 OpenBabel07242615323D

 62 67  0  0  1  0  0  0  0  0999 V2000
  -10.4960    5.1950  -24.4280 C   0  0  0  0  0  0  0  0  0  0  0  0
  -10.2030    4.0460  -23.4690 C   0  0  0  0  0  0  0  0  0  0  0  0
   -8.8510    3.5110  -23.6050 N   0  0  0  0  0  0  0  0  0  0  0  0
   -7.8400    4.1450  -22.9780 N   0  0  0  0  0  0  0  0  0  0  0  0
   -6.7490    3.4560  -23.3000 C   0  0  0  0  0  0  0  0  0  0  0  0
   -7.0490    2.3740  -24.1450 C   0  0  0  0  0  0  0  0  0  0  0  0
   -8.4150    2.4430  -24.3340 C   0  0  0  0  0  0  0  0  0  0  0  0
   -9.2950    1.5720  -25.1670 C   0  0  0  0  0  0  0  0  0  0  0  0
   -9.7290    0.3800  -24.4510 N   0  0  0  0  0  0  0  0  0  0  0  0
   -8.7700   -0.7090  -24.3370 C   0  0  0  0  0  0  0  0  0  0  0  0
   -8.9410   -1.5370  -23.0380 C   0  0  2  0  0  0  0  0  0  0  0  0
   -8.3810   -0.7500  -21.8230 C   0  0  0  0  0  0  0  0  0  0  0  0
   -8.7240    0.3480  -21.4430 O   0  0  0  0  0  0  0  0  0  0  0  0
   -7.4000   -1.5080  -21.2250 N   0  0  0  0  0  0  0  0  0  0  0  0
   -6.5220   -1.0380  -20.2120 C   0  0  0  0  0  0  0  0  0  0  0  0
   -6.7230   -1.4110  -18.9080 C   0  0  0  0  0  0  0  0  0  0  0  0
   -5.8260   -1.2190  -17.9080 N   0  0  0  0  0  0  0  0  0  0  0  0
   -4.7050   -0.6090  -18.2150 C   0  0  0  0  0  0  0  0  0  0  0  0
   -4.4140   -0.0800  -19.5010 C   0  0  0  0  0  0  0  0  0  0  0  0
   -3.2610    0.7220  -19.7280 C   0  0  0  0  0  0  0  0  0  0  0  0
   -3.1260    1.4150  -20.8950 C   0  0  0  0  0  0  0  0  0  0  0  0
   -4.0400    1.1920  -21.9540 C   0  0  0  0  0  0  0  0  0  0  0  0
   -5.1100    0.3460  -21.7920 C   0  0  0  0  0  0  0  0  0  0  0  0
   -5.3590   -0.2630  -20.5320 C   0  0  0  0  0  0  0  0  0  0  0  0
   -5.7910    0.1400  -22.6110 H   0  0  0  0  0  0  0  0  0  0  0  0
   -3.8530    1.6580  -22.9140 H   0  0  0  0  0  0  0  0  0  0  0  0
   -2.2790    2.0760  -21.0460 H   0  0  0  0  0  0  0  0  0  0  0  0
   -2.5700    0.8650  -18.9030 H   0  0  0  0  0  0  0  0  0  0  0  0
   -3.9720   -0.4800  -17.4180 H   0  0  0  0  0  0  0  0  0  0  0  0
   -7.6620   -1.8820  -18.6160 H   0  0  0  0  0  0  0  0  0  0  0  0
   -7.3240   -2.8700  -21.6940 C   0  0  0  0  0  0  0  0  0  0  0  0
   -8.0760   -2.8540  -23.0430 C   0  0  2  0  0  0  0  0  0  0  0  0
   -7.0890   -3.0370  -24.2070 C   0  0  0  0  0  0  0  0  0  0  0  0
   -7.6050   -3.0900  -25.1700 H   0  0  0  0  0  0  0  0  0  0  0  0
   -6.3440   -2.2340  -24.2530 H   0  0  0  0  0  0  0  0  0  0  0  0
   -6.5480   -3.9830  -24.0840 H   0  0  0  0  0  0  0  0  0  0  0  0
   -8.7530   -3.7130  -23.0940 H   0  0  0  0  0  0  0  0  0  0  0  0
   -6.2730   -3.1700  -21.7910 H   0  0  0  0  0  0  0  0  0  0  0  0
   -7.7830   -3.5640  -20.9790 H   0  0  0  0  0  0  0  0  0  0  0  0
  -10.4350   -1.8120  -22.8550 C   0  0  0  0  0  0  0  0  0  0  0  0
  -10.8630   -2.8100  -21.9740 C   0  0  0  0  0  0  0  0  0  0  0  0
  -12.2020   -3.1490  -21.9270 C   0  0  0  0  0  0  0  0  0  0  0  0
  -12.5830   -4.1130  -21.0770 F   0  0  0  0  0  0  0  0  0  0  0  0
  -13.1590   -2.5430  -22.7310 C   0  0  0  0  0  0  0  0  0  0  0  0
  -12.7540   -1.4890  -23.5260 C   0  0  0  0  0  0  0  0  0  0  0  0
  -11.4170   -1.0870  -23.5450 C   0  0  0  0  0  0  0  0  0  0  0  0
  -11.0690    0.1590  -24.2890 C   0  0  0  0  0  0  0  0  0  0  0  0
  -11.9250    0.9260  -24.7110 O   0  0  0  0  0  0  0  0  0  0  0  0
  -13.4780   -0.9630  -24.1390 H   0  0  0  0  0  0  0  0  0  0  0  0
  -14.1900   -2.8820  -22.7170 H   0  0  0  0  0  0  0  0  0  0  0  0
  -10.1790   -3.3530  -21.3290 H   0  0  0  0  0  0  0  0  0  0  0  0
   -8.8610   -1.3770  -25.2050 H   0  0  0  0  0  0  0  0  0  0  0  0
   -7.7700   -0.2740  -24.3600 H   0  0  0  0  0  0  0  0  0  0  0  0
  -10.1890    2.1000  -25.5070 H   0  0  0  0  0  0  0  0  0  0  0  0
   -8.7280    1.2690  -26.0600 H   0  0  0  0  0  0  0  0  0  0  0  0
   -6.3670    1.6450  -24.5740 H   0  0  0  0  0  0  0  0  0  0  0  0
   -5.7750    3.7430  -22.9190 H   0  0  0  0  0  0  0  0  0  0  0  0
  -10.2920    4.3660  -22.4280 H   0  0  0  0  0  0  0  0  0  0  0  0
  -10.9130    3.2290  -23.6260 H   0  0  0  0  0  0  0  0  0  0  0  0
  -11.5020    5.5900  -24.2410 H   0  0  0  0  0  0  0  0  0  0  0  0
  -10.4630    4.8360  -25.4610 H   0  0  0  0  0  0  0  0  0  0  0  0
   -9.7610    5.9970  -24.3060 H   0  0  0  0  0  0  0  0  0  0  0  0
  1  2  1  0  0  0  0
  1 60  1  0  0  0  0
  1 61  1  0  0  0  0
  1 62  1  0  0  0  0
  2  3  1  0  0  0  0
  2 58  1  0  0  0  0
  2 59  1  0  0  0  0
  3  4  1  0  0  0  0
  3  7  1  0  0  0  0
  4  5  2  0  0  0  0
  5  6  1  0  0  0  0
  5 57  1  0  0  0  0
  6  7  2  0  0  0  0
  6 56  1  0  0  0  0
  7  8  1  0  0  0  0
  8  9  1  0  0  0  0
  8 54  1  0  0  0  0
  8 55  1  0  0  0  0
  9 10  1  0  0  0  0
  9 47  1  0  0  0  0
 10 11  1  0  0  0  0
 10 52  1  0  0  0  0
 10 53  1  0  0  0  0
 11 12  1  1  0  0  0
 11 32  1  0  0  0  0
 11 40  1  0  0  0  0
 12 13  2  0  0  0  0
 12 14  1  0  0  0  0
 14 15  1  0  0  0  0
 14 31  1  0  0  0  0
 15 16  2  0  0  0  0
 15 24  1  0  0  0  0
 16 17  1  0  0  0  0
 16 30  1  0  0  0  0
 17 18  2  0  0  0  0
 18 19  1  0  0  0  0
 18 29  1  0  0  0  0
 19 20  2  0  0  0  0
 19 24  1  0  0  0  0
 20 21  1  0  0  0  0
 20 28  1  0  0  0  0
 21 22  2  0  0  0  0
 21 27  1  0  0  0  0
 22 23  1  0  0  0  0
 22 26  1  0  0  0  0
 23 24  2  0  0  0  0
 23 25  1  0  0  0  0
 31 32  1  0  0  0  0
 31 38  1  0  0  0  0
 31 39  1  0  0  0  0
 32 33  1  0  0  0  0
 32 37  1  6  0  0  0
 33 34  1  0  0  0  0
 33 35  1  0  0  0  0
 33 36  1  0  0  0  0
 40 41  2  0  0  0  0
 40 46  1  0  0  0  0
 41 42  1  0  0  0  0
 41 51  1  0  0  0  0
 42 43  1  0  0  0  0
 42 44  2  0  0  0  0
 44 45  1  0  0  0  0
 44 50  1  0  0  0  0
 45 46  2  0  0  0  0
 45 49  1  0  0  0  0
 46 47  1  0  0  0  0
 47 48  2  0  0  0  0
M  END
>  <MODEL>
       1

$$$$
