output/tmp_first_model_17_95.pdb
 OpenBabel07242622053D

 66 71  0  0  1  0  0  0  0  0999 V2000
   -6.7660    0.0920  -29.3840 C   0  0  0  0  0  0  0  0  0  0  0  0
   -7.0890    0.4930  -28.0370 N   0  0  0  0  0  0  0  0  0  0  0  0
   -6.4280   -0.0300  -26.9760 C   0  0  0  0  0  0  0  0  0  0  0  0
   -5.5640   -0.8870  -27.0650 O   0  0  0  0  0  0  0  0  0  0  0  0
   -6.8440    0.5550  -25.6240 C   0  0  0  0  0  0  0  0  0  0  0  0
   -7.9890   -0.1060  -25.0400 N   0  0  0  0  0  0  0  0  0  0  0  0
   -7.7870   -1.3950  -24.4120 C   0  0  0  0  0  0  0  0  0  0  0  0
   -8.6820   -1.5310  -23.1580 C   0  0  2  0  0  0  0  0  0  0  0  0
   -8.1390   -0.5940  -22.0500 C   0  0  0  0  0  0  0  0  0  0  0  0
   -8.2990    0.5990  -21.9570 O   0  0  0  0  0  0  0  0  0  0  0  0
   -7.3820   -1.3550  -21.1790 N   0  0  0  0  0  0  0  0  0  0  0  0
   -6.5880   -0.7980  -20.1460 C   0  0  0  0  0  0  0  0  0  0  0  0
   -6.8680   -1.0790  -18.8330 C   0  0  0  0  0  0  0  0  0  0  0  0
   -6.1860   -0.5710  -17.7790 N   0  0  0  0  0  0  0  0  0  0  0  0
   -5.1730    0.2190  -18.0320 C   0  0  0  0  0  0  0  0  0  0  0  0
   -4.7370    0.5550  -19.3460 C   0  0  0  0  0  0  0  0  0  0  0  0
   -3.6170    1.3980  -19.5790 C   0  0  0  0  0  0  0  0  0  0  0  0
   -3.2130    1.6760  -20.8540 C   0  0  0  0  0  0  0  0  0  0  0  0
   -3.9040    1.1250  -21.9560 C   0  0  0  0  0  0  0  0  0  0  0  0
   -4.9840    0.3080  -21.7560 C   0  0  0  0  0  0  0  0  0  0  0  0
   -5.4480    0.0200  -20.4420 C   0  0  0  0  0  0  0  0  0  0  0  0
   -5.5030   -0.1270  -22.6050 H   0  0  0  0  0  0  0  0  0  0  0  0
   -3.5680    1.3440  -22.9640 H   0  0  0  0  0  0  0  0  0  0  0  0
   -2.3570    2.3200  -21.0370 H   0  0  0  0  0  0  0  0  0  0  0  0
   -3.0930    1.8160  -18.7250 H   0  0  0  0  0  0  0  0  0  0  0  0
   -4.6370    0.6240  -17.1750 H   0  0  0  0  0  0  0  0  0  0  0  0
   -7.7110   -1.7270  -18.5930 H   0  0  0  0  0  0  0  0  0  0  0  0
   -7.3380   -2.7660  -21.5060 C   0  0  0  0  0  0  0  0  0  0  0  0
   -8.4990   -2.9220  -22.5050 C   0  0  2  0  0  0  0  0  0  0  0  0
   -8.3710   -4.0830  -23.5020 C   0  0  0  0  0  0  0  0  0  0  0  0
   -8.3340   -5.3820  -22.8610 N   0  0  0  0  0  0  0  0  0  0  0  0
   -7.2130   -5.9460  -22.3240 C   0  0  0  0  0  0  0  0  0  0  0  0
   -5.9120   -5.6170  -22.7550 C   0  0  0  0  0  0  0  0  0  0  0  0
   -4.8730   -6.2810  -22.1370 C   0  0  0  0  0  0  0  0  0  0  0  0
   -5.0620   -7.1670  -21.1550 N   0  0  0  0  0  0  0  0  0  0  0  0
   -6.3270   -7.3860  -20.8300 C   0  0  0  0  0  0  0  0  0  0  0  0
   -7.4200   -6.8560  -21.3640 N   0  0  0  0  0  0  0  0  0  0  0  0
   -6.4970   -8.0790  -20.0090 H   0  0  0  0  0  0  0  0  0  0  0  0
   -3.8340   -6.0930  -22.4230 H   0  0  0  0  0  0  0  0  0  0  0  0
   -5.7450   -4.8630  -23.5170 H   0  0  0  0  0  0  0  0  0  0  0  0
   -9.1750   -5.5930  -22.3400 H   0  0  0  0  0  0  0  0  0  0  0  0
   -7.4870   -3.9630  -24.1380 H   0  0  0  0  0  0  0  0  0  0  0  0
   -9.2420   -4.0500  -24.1720 H   0  0  0  0  0  0  0  0  0  0  0  0
   -9.3920   -3.1160  -21.9030 H   0  0  0  0  0  0  0  0  0  0  0  0
   -7.4680   -3.3620  -20.5980 H   0  0  0  0  0  0  0  0  0  0  0  0
   -6.3580   -3.0400  -21.9280 H   0  0  0  0  0  0  0  0  0  0  0  0
  -10.1020   -1.1570  -23.5490 C   0  0  0  0  0  0  0  0  0  0  0  0
  -11.2100   -1.5730  -22.7980 C   0  0  0  0  0  0  0  0  0  0  0  0
  -12.4810   -1.1360  -23.1280 C   0  0  0  0  0  0  0  0  0  0  0  0
  -13.8340   -1.6660  -22.1810 Cl  0  0  0  0  0  0  0  0  0  0  0  0
  -12.7160   -0.2830  -24.2040 C   0  0  0  0  0  0  0  0  0  0  0  0
  -11.6390    0.1120  -24.9650 C   0  0  0  0  0  0  0  0  0  0  0  0
  -10.3500   -0.3060  -24.6380 C   0  0  0  0  0  0  0  0  0  0  0  0
   -9.2360    0.2270  -25.4670 C   0  0  0  0  0  0  0  0  0  0  0  0
   -9.4330    0.9300  -26.4610 O   0  0  0  0  0  0  0  0  0  0  0  0
  -11.7660    0.7560  -25.8260 H   0  0  0  0  0  0  0  0  0  0  0  0
  -13.7230    0.0640  -24.4120 H   0  0  0  0  0  0  0  0  0  0  0  0
  -11.1120   -2.2280  -21.9400 H   0  0  0  0  0  0  0  0  0  0  0  0
   -8.0280   -2.1810  -25.1450 H   0  0  0  0  0  0  0  0  0  0  0  0
   -6.7290   -1.4840  -24.1410 H   0  0  0  0  0  0  0  0  0  0  0  0
   -5.9900    0.4390  -24.9490 H   0  0  0  0  0  0  0  0  0  0  0  0
   -7.0900    1.6150  -25.7140 H   0  0  0  0  0  0  0  0  0  0  0  0
   -8.0030    0.8750  -27.8440 H   0  0  0  0  0  0  0  0  0  0  0  0
   -5.6860    0.1590  -29.5290 H   0  0  0  0  0  0  0  0  0  0  0  0
   -7.2490    0.7810  -30.0800 H   0  0  0  0  0  0  0  0  0  0  0  0
   -7.0970   -0.9300  -29.5940 H   0  0  0  0  0  0  0  0  0  0  0  0
  1  2  1  0  0  0  0
  1 64  1  0  0  0  0
  1 65  1  0  0  0  0
  1 66  1  0  0  0  0
  2  3  1  0  0  0  0
  2 63  1  0  0  0  0
  3  4  2  0  0  0  0
  3  5  1  0  0  0  0
  5  6  1  0  0  0  0
  5 61  1  0  0  0  0
  5 62  1  0  0  0  0
  6  7  1  0  0  0  0
  6 54  1  0  0  0  0
  7  8  1  0  0  0  0
  7 59  1  0  0  0  0
  7 60  1  0  0  0  0
  8  9  1  1  0  0  0
  8 29  1  0  0  0  0
  8 47  1  0  0  0  0
  9 10  2  0  0  0  0
  9 11  1  0  0  0  0
 11 12  1  0  0  0  0
 11 28  1  0  0  0  0
 12 13  2  0  0  0  0
 12 21  1  0  0  0  0
 13 14  1  0  0  0  0
 13 27  1  0  0  0  0
 14 15  2  0  0  0  0
 15 16  1  0  0  0  0
 15 26  1  0  0  0  0
 16 17  2  0  0  0  0
 16 21  1  0  0  0  0
 17 18  1  0  0  0  0
 17 25  1  0  0  0  0
 18 19  2  0  0  0  0
 18 24  1  0  0  0  0
 19 20  1  0  0  0  0
 19 23  1  0  0  0  0
 20 21  2  0  0  0  0
 20 22  1  0  0  0  0
 28 29  1  0  0  0  0
 28 45  1  0  0  0  0
 28 46  1  0  0  0  0
 29 30  1  0  0  0  0
 29 44  1  1  0  0  0
 30 31  1  0  0  0  0
 30 42  1  0  0  0  0
 30 43  1  0  0  0  0
 31 32  1  0  0  0  0
 31 41  1  0  0  0  0
 32 33  2  0  0  0  0
 32 37  1  0  0  0  0
 33 34  1  0  0  0  0
 33 40  1  0  0  0  0
 34 35  2  0  0  0  0
 34 39  1  0  0  0  0
 35 36  1  0  0  0  0
 36 37  2  0  0  0  0
 36 38  1  0  0  0  0
 47 48  2  0  0  0  0
 47 53  1  0  0  0  0
 48 49  1  0  0  0  0
 48 58  1  0  0  0  0
 49 50  1  0  0  0  0
 49 51  2  0  0  0  0
 51 52  1  0  0  0  0
 51 57  1  0  0  0  0
 52 53  2  0  0  0  0
 52 56  1  0  0  0  0
 53 54  1  0  0  0  0
 54 55  2  0  0  0  0
M  END
>  <MODEL>
       1

$$$$
