output/tmp_first_model_10_14.pdb
 OpenBabel07242618173D

 73 78  0  0  1  0  0  0  0  0999 V2000
   -8.0050   -3.8910  -23.8650 C   0  0  0  0  0  0  0  0  0  0  0  0
   -8.3990   -2.9300  -22.7500 C   0  0  1  0  0  0  0  0  0  0  0  0
   -7.2410   -2.5980  -21.8020 C   0  0  0  0  0  0  0  0  0  0  0  0
   -7.6120   -1.3090  -21.2490 N   0  0  0  0  0  0  0  0  0  0  0  0
   -6.8550   -0.6980  -20.2070 C   0  0  0  0  0  0  0  0  0  0  0  0
   -7.0100   -1.1510  -18.9220 C   0  0  0  0  0  0  0  0  0  0  0  0
   -6.2600   -0.7610  -17.8600 N   0  0  0  0  0  0  0  0  0  0  0  0
   -5.3150    0.1200  -18.0810 C   0  0  0  0  0  0  0  0  0  0  0  0
   -5.0420    0.6860  -19.3570 C   0  0  0  0  0  0  0  0  0  0  0  0
   -3.9900    1.6220  -19.5390 C   0  0  0  0  0  0  0  0  0  0  0  0
   -3.7430    2.1560  -20.7730 C   0  0  0  0  0  0  0  0  0  0  0  0
   -4.5400    1.7820  -21.8780 C   0  0  0  0  0  0  0  0  0  0  0  0
   -5.5670    0.8830  -21.7250 C   0  0  0  0  0  0  0  0  0  0  0  0
   -5.8390    0.2910  -20.4600 C   0  0  0  0  0  0  0  0  0  0  0  0
   -6.1790    0.6160  -22.5820 H   0  0  0  0  0  0  0  0  0  0  0  0
   -4.3430    2.2200  -22.8520 H   0  0  0  0  0  0  0  0  0  0  0  0
   -2.9340    2.8660  -20.9110 H   0  0  0  0  0  0  0  0  0  0  0  0
   -3.4100    1.9220  -18.6690 H   0  0  0  0  0  0  0  0  0  0  0  0
   -4.7000    0.4170  -17.2280 H   0  0  0  0  0  0  0  0  0  0  0  0
   -7.7730   -1.8970  -18.7040 H   0  0  0  0  0  0  0  0  0  0  0  0
   -8.6650   -0.7030  -21.9100 C   0  0  0  0  0  0  0  0  0  0  0  0
   -9.1880    0.3290  -21.5510 O   0  0  0  0  0  0  0  0  0  0  0  0
   -8.9760   -1.5400  -23.1780 C   0  0  1  0  0  0  0  0  0  0  0  0
   -8.2170   -0.8530  -24.3470 C   0  0  0  0  0  0  0  0  0  0  0  0
   -8.6930   -1.2290  -25.6670 N   0  0  0  0  0  0  0  0  0  0  0  0
   -7.7920   -1.1330  -26.8030 C   0  0  0  0  0  0  0  0  0  0  0  0
   -7.5770   -2.4940  -27.4520 C   0  0  0  0  0  0  0  0  0  0  0  0
   -6.7100   -2.4280  -28.6510 N   0  3  0  0  0  0  0  0  0  0  0  0
   -7.3900   -1.7960  -29.8420 C   0  0  0  0  0  0  0  0  0  0  0  0
   -6.3580   -1.5760  -30.9300 C   0  0  0  0  0  0  0  0  0  0  0  0
   -5.7830   -2.8750  -31.3400 N   0  0  0  0  0  0  0  0  0  0  0  0
   -4.6990   -2.8150  -32.6230 S   0  0  0  0  0  0  0  0  0  0  0  0
   -4.5910   -1.4460  -33.1030 O   0  0  0  0  0  0  0  0  0  0  0  0
   -3.5060   -3.5540  -32.2500 O   0  0  0  0  0  0  0  0  0  0  0  0
   -5.5680   -3.7770  -33.8450 C   0  0  0  0  0  0  0  0  0  0  0  0
   -5.7780   -4.7640  -33.4240 H   0  0  0  0  0  0  0  0  0  0  0  0
   -4.9140   -3.8690  -34.7140 H   0  0  0  0  0  0  0  0  0  0  0  0
   -6.4930   -3.2660  -34.1170 H   0  0  0  0  0  0  0  0  0  0  0  0
   -5.3420   -3.7980  -30.2740 C   0  0  0  0  0  0  0  0  0  0  0  0
   -6.2450   -3.7970  -29.0470 C   0  0  0  0  0  0  0  0  0  0  0  0
   -7.1400   -4.4060  -29.2170 H   0  0  0  0  0  0  0  0  0  0  0  0
   -5.6900   -4.2330  -28.2130 H   0  0  0  0  0  0  0  0  0  0  0  0
   -4.3060   -3.5820  -29.9830 H   0  0  0  0  0  0  0  0  0  0  0  0
   -5.3560   -4.8070  -30.7000 H   0  0  0  0  0  0  0  0  0  0  0  0
   -5.5780   -0.9010  -30.5590 H   0  0  0  0  0  0  0  0  0  0  0  0
   -6.8160   -1.1090  -31.8010 H   0  0  0  0  0  0  0  0  0  0  0  0
   -8.1610   -2.4860  -30.1820 H   0  0  0  0  0  0  0  0  0  0  0  0
   -7.8870   -0.8710  -29.5420 H   0  0  0  0  0  0  0  0  0  0  0  0
   -5.8690   -1.8600  -28.4140 H   0  0  0  0  0  0  0  0  0  0  0  0
   -8.5400   -2.9130  -27.7480 H   0  0  0  0  0  0  0  0  0  0  0  0
   -7.1210   -3.1790  -26.7310 H   0  0  0  0  0  0  0  0  0  0  0  0
   -6.8400   -0.7180  -26.4670 H   0  0  0  0  0  0  0  0  0  0  0  0
   -8.2220   -0.4360  -27.5260 H   0  0  0  0  0  0  0  0  0  0  0  0
  -10.0260   -1.2960  -25.9620 C   0  0  0  0  0  0  0  0  0  0  0  0
  -10.4330   -1.2630  -27.1190 O   0  0  0  0  0  0  0  0  0  0  0  0
  -10.9450   -1.4530  -24.7910 C   0  0  0  0  0  0  0  0  0  0  0  0
  -12.3160   -1.4780  -25.0440 C   0  0  0  0  0  0  0  0  0  0  0  0
  -13.2170   -1.7160  -24.0230 C   0  0  0  0  0  0  0  0  0  0  0  0
  -12.7170   -1.9040  -22.7350 C   0  0  0  0  0  0  0  0  0  0  0  0
  -13.8550   -2.1930  -21.4530 Cl  0  0  0  0  0  0  0  0  0  0  0  0
  -11.3620   -1.8640  -22.4550 C   0  0  0  0  0  0  0  0  0  0  0  0
  -10.4520   -1.6030  -23.4900 C   0  0  0  0  0  0  0  0  0  0  0  0
  -11.0280   -2.0050  -21.4280 H   0  0  0  0  0  0  0  0  0  0  0  0
  -14.2900   -1.7720  -24.1880 H   0  0  0  0  0  0  0  0  0  0  0  0
  -12.6330   -1.3090  -26.0650 H   0  0  0  0  0  0  0  0  0  0  0  0
   -7.1490   -1.1010  -24.2930 H   0  0  0  0  0  0  0  0  0  0  0  0
   -8.3070    0.2350  -24.2130 H   0  0  0  0  0  0  0  0  0  0  0  0
   -6.2850   -2.5440  -22.3470 H   0  0  0  0  0  0  0  0  0  0  0  0
   -7.1140   -3.3370  -21.0050 H   0  0  0  0  0  0  0  0  0  0  0  0
   -9.1980   -3.3950  -22.1540 H   0  0  0  0  0  0  0  0  0  0  0  0
   -7.6900   -4.8540  -23.4460 H   0  0  0  0  0  0  0  0  0  0  0  0
   -8.8400   -4.0710  -24.5500 H   0  0  0  0  0  0  0  0  0  0  0  0
   -7.1650   -3.4970  -24.4500 H   0  0  0  0  0  0  0  0  0  0  0  0
  1  2  1  0  0  0  0
  1 71  1  0  0  0  0
  1 72  1  0  0  0  0
  1 73  1  0  0  0  0
  2  3  1  0  0  0  0
  2 23  1  0  0  0  0
  2 70  1  1  0  0  0
  3  4  1  0  0  0  0
  3 68  1  0  0  0  0
  3 69  1  0  0  0  0
  4  5  1  0  0  0  0
  4 21  1  0  0  0  0
  5  6  2  0  0  0  0
  5 14  1  0  0  0  0
  6  7  1  0  0  0  0
  6 20  1  0  0  0  0
  7  8  2  0  0  0  0
  8  9  1  0  0  0  0
  8 19  1  0  0  0  0
  9 10  2  0  0  0  0
  9 14  1  0  0  0  0
 10 11  1  0  0  0  0
 10 18  1  0  0  0  0
 11 12  2  0  0  0  0
 11 17  1  0  0  0  0
 12 13  1  0  0  0  0
 12 16  1  0  0  0  0
 13 14  2  0  0  0  0
 13 15  1  0  0  0  0
 21 22  2  0  0  0  0
 23 21  1  1  0  0  0
 23 24  1  0  0  0  0
 23 62  1  0  0  0  0
 24 25  1  0  0  0  0
 24 66  1  0  0  0  0
 24 67  1  0  0  0  0
 25 26  1  0  0  0  0
 25 54  1  0  0  0  0
 26 27  1  0  0  0  0
 26 52  1  0  0  0  0
 26 53  1  0  0  0  0
 27 28  1  0  0  0  0
 27 50  1  0  0  0  0
 27 51  1  0  0  0  0
 28 29  1  0  0  0  0
 28 40  1  0  0  0  0
 28 49  1  0  0  0  0
 29 30  1  0  0  0  0
 29 47  1  0  0  0  0
 29 48  1  0  0  0  0
 30 31  1  0  0  0  0
 30 45  1  0  0  0  0
 30 46  1  0  0  0  0
 31 32  1  0  0  0  0
 31 39  1  0  0  0  0
 32 33  2  0  0  0  0
 32 34  2  0  0  0  0
 32 35  1  0  0  0  0
 35 36  1  0  0  0  0
 35 37  1  0  0  0  0
 35 38  1  0  0  0  0
 39 40  1  0  0  0  0
 39 43  1  0  0  0  0
 39 44  1  0  0  0  0
 40 41  1  0  0  0  0
 40 42  1  0  0  0  0
 54 55  2  0  0  0  0
 54 56  1  0  0  0  0
 56 57  2  0  0  0  0
 56 62  1  0  0  0  0
 57 58  1  0  0  0  0
 57 65  1  0  0  0  0
 58 59  2  0  0  0  0
 58 64  1  0  0  0  0
 59 60  1  0  0  0  0
 59 61  1  0  0  0  0
 61 62  2  0  0  0  0
 61 63  1  0  0  0  0
M  CHG  1  28   1
M  END
>  <MODEL>
       1

$$$$
