output/tmp_first_model_3_46.pdb
 OpenBabel07242614263D

 50 54  0  0  1  0  0  0  0  0999 V2000
   -8.4490   -4.1920  -23.6040 C   0  0  0  0  0  0  0  0  0  0  0  0
   -8.5880   -3.1950  -22.4640 C   0  0  1  0  0  0  0  0  0  0  0  0
   -7.2440   -2.6210  -22.0070 C   0  0  0  0  0  0  0  0  0  0  0  0
   -7.6620   -1.4860  -21.2100 N   0  0  0  0  0  0  0  0  0  0  0  0
   -6.8980   -0.9020  -20.1740 C   0  0  0  0  0  0  0  0  0  0  0  0
   -7.2570   -1.0690  -18.8580 C   0  0  0  0  0  0  0  0  0  0  0  0
   -6.5550   -0.5750  -17.8070 N   0  0  0  0  0  0  0  0  0  0  0  0
   -5.4690    0.1080  -18.0770 C   0  0  0  0  0  0  0  0  0  0  0  0
   -4.9910    0.3570  -19.3940 C   0  0  0  0  0  0  0  0  0  0  0  0
   -3.8340    1.1380  -19.6310 C   0  0  0  0  0  0  0  0  0  0  0  0
   -3.4280    1.4080  -20.9060 C   0  0  0  0  0  0  0  0  0  0  0  0
   -4.1480    0.8940  -22.0040 C   0  0  0  0  0  0  0  0  0  0  0  0
   -5.2650    0.1210  -21.8050 C   0  0  0  0  0  0  0  0  0  0  0  0
   -5.7140   -0.1640  -20.4870 C   0  0  0  0  0  0  0  0  0  0  0  0
   -5.8200   -0.2560  -22.6600 H   0  0  0  0  0  0  0  0  0  0  0  0
   -3.8300    1.1300  -23.0120 H   0  0  0  0  0  0  0  0  0  0  0  0
   -2.5550    2.0280  -21.0810 H   0  0  0  0  0  0  0  0  0  0  0  0
   -3.3010    1.5310  -18.7720 H   0  0  0  0  0  0  0  0  0  0  0  0
   -4.9030    0.5140  -17.2370 H   0  0  0  0  0  0  0  0  0  0  0  0
   -8.1540   -1.6330  -18.6080 H   0  0  0  0  0  0  0  0  0  0  0  0
   -8.9130   -1.0150  -21.5560 C   0  0  0  0  0  0  0  0  0  0  0  0
   -9.4520   -0.0530  -21.0610 O   0  0  0  0  0  0  0  0  0  0  0  0
   -9.4990   -1.9610  -22.6450 C   0  0  1  0  0  0  0  0  0  0  0  0
   -9.3850   -1.3120  -24.0480 C   0  0  0  0  0  0  0  0  0  0  0  0
  -10.2060   -0.1120  -24.1420 N   0  0  0  0  0  0  0  0  0  0  0  0
   -9.8010    0.9100  -25.0740 C   0  0  0  0  0  0  0  0  0  0  0  0
  -10.0250    0.5200  -26.4850 C   0  0  0  0  0  0  0  0  0  0  0  0
  -10.2030    0.1820  -27.5770 N   0  0  0  0  0  0  0  0  0  0  0  0
   -8.7310    1.1190  -24.9460 H   0  0  0  0  0  0  0  0  0  0  0  0
  -10.3670    1.8150  -24.8340 H   0  0  0  0  0  0  0  0  0  0  0  0
  -11.3650    0.0830  -23.4260 C   0  0  0  0  0  0  0  0  0  0  0  0
  -12.0110    1.1210  -23.4870 O   0  0  0  0  0  0  0  0  0  0  0  0
  -11.8140   -1.0780  -22.6020 C   0  0  0  0  0  0  0  0  0  0  0  0
  -13.0970   -1.0400  -22.0670 C   0  0  0  0  0  0  0  0  0  0  0  0
  -13.5510   -2.0630  -21.2770 C   0  0  0  0  0  0  0  0  0  0  0  0
  -12.7420   -3.1830  -21.1160 C   0  0  0  0  0  0  0  0  0  0  0  0
  -13.1920   -4.1970  -20.3570 F   0  0  0  0  0  0  0  0  0  0  0  0
  -11.4900   -3.2780  -21.6880 C   0  0  0  0  0  0  0  0  0  0  0  0
  -10.9660   -2.1600  -22.3470 C   0  0  0  0  0  0  0  0  0  0  0  0
  -10.9560   -4.2140  -21.5760 H   0  0  0  0  0  0  0  0  0  0  0  0
  -14.5110   -2.0200  -20.7690 H   0  0  0  0  0  0  0  0  0  0  0  0
  -13.7270   -0.1810  -22.2690 H   0  0  0  0  0  0  0  0  0  0  0  0
   -8.3450   -1.0290  -24.2580 H   0  0  0  0  0  0  0  0  0  0  0  0
   -9.6890   -2.0340  -24.8210 H   0  0  0  0  0  0  0  0  0  0  0  0
   -6.6540   -3.3300  -21.4150 H   0  0  0  0  0  0  0  0  0  0  0  0
   -6.6370   -2.3250  -22.8790 H   0  0  0  0  0  0  0  0  0  0  0  0
   -8.9910   -3.7050  -21.5880 H   0  0  0  0  0  0  0  0  0  0  0  0
   -7.6760   -4.9350  -23.3660 H   0  0  0  0  0  0  0  0  0  0  0  0
   -9.3900   -4.7180  -23.7960 H   0  0  0  0  0  0  0  0  0  0  0  0
   -8.1500   -3.6880  -24.5290 H   0  0  0  0  0  0  0  0  0  0  0  0
  1  2  1  0  0  0  0
  1 48  1  0  0  0  0
  1 49  1  0  0  0  0
  1 50  1  0  0  0  0
  2  3  1  0  0  0  0
  2 23  1  0  0  0  0
  2 47  1  1  0  0  0
  3  4  1  0  0  0  0
  3 45  1  0  0  0  0
  3 46  1  0  0  0  0
  4  5  1  0  0  0  0
  4 21  1  0  0  0  0
  5  6  2  0  0  0  0
  5 14  1  0  0  0  0
  6  7  1  0  0  0  0
  6 20  1  0  0  0  0
  7  8  2  0  0  0  0
  8  9  1  0  0  0  0
  8 19  1  0  0  0  0
  9 10  2  0  0  0  0
  9 14  1  0  0  0  0
 10 11  1  0  0  0  0
 10 18  1  0  0  0  0
 11 12  2  0  0  0  0
 11 17  1  0  0  0  0
 12 13  1  0  0  0  0
 12 16  1  0  0  0  0
 13 14  2  0  0  0  0
 13 15  1  0  0  0  0
 21 22  2  0  0  0  0
 23 21  1  1  0  0  0
 23 24  1  0  0  0  0
 23 39  1  0  0  0  0
 24 25  1  0  0  0  0
 24 43  1  0  0  0  0
 24 44  1  0  0  0  0
 25 26  1  0  0  0  0
 25 31  1  0  0  0  0
 26 27  1  0  0  0  0
 26 29  1  0  0  0  0
 26 30  1  0  0  0  0
 27 28  3  0  0  0  0
 31 32  2  0  0  0  0
 31 33  1  0  0  0  0
 33 34  2  0  0  0  0
 33 39  1  0  0  0  0
 34 35  1  0  0  0  0
 34 42  1  0  0  0  0
 35 36  2  0  0  0  0
 35 41  1  0  0  0  0
 36 37  1  0  0  0  0
 36 38  1  0  0  0  0
 38 39  2  0  0  0  0
 38 40  1  0  0  0  0
M  END
>  <MODEL>
       1

$$$$
