output/tmp_first_model_20_72.pdb
 OpenBabel07242623363D

 41 44  0  0  0  0  0  0  0  0999 V2000
   -5.5870   -2.9750  -21.6880 O   0  0  0  0  0  0  0  0  0  0  0  0
   -6.7870   -2.7860  -21.7970 C   0  0  0  0  0  0  0  0  0  0  0  0
   -7.4220   -1.4820  -21.2560 C   0  0  0  0  0  0  0  0  0  0  0  0
   -6.5810   -0.8280  -20.1820 C   0  0  0  0  0  0  0  0  0  0  0  0
   -6.8730   -1.0420  -18.8590 C   0  0  0  0  0  0  0  0  0  0  0  0
   -6.1860   -0.5390  -17.8030 N   0  0  0  0  0  0  0  0  0  0  0  0
   -5.1530    0.2230  -18.0660 C   0  0  0  0  0  0  0  0  0  0  0  0
   -4.7190    0.5320  -19.3830 C   0  0  0  0  0  0  0  0  0  0  0  0
   -3.5900    1.3600  -19.6200 C   0  0  0  0  0  0  0  0  0  0  0  0
   -3.1880    1.6340  -20.9000 C   0  0  0  0  0  0  0  0  0  0  0  0
   -3.8980    1.0890  -21.9920 C   0  0  0  0  0  0  0  0  0  0  0  0
   -4.9960    0.2880  -21.7860 C   0  0  0  0  0  0  0  0  0  0  0  0
   -5.4430   -0.0100  -20.4720 C   0  0  0  0  0  0  0  0  0  0  0  0
   -5.5210   -0.1320  -22.6360 H   0  0  0  0  0  0  0  0  0  0  0  0
   -3.5740    1.3120  -23.0030 H   0  0  0  0  0  0  0  0  0  0  0  0
   -2.3280    2.2710  -21.0860 H   0  0  0  0  0  0  0  0  0  0  0  0
   -3.0510    1.7720  -18.7710 H   0  0  0  0  0  0  0  0  0  0  0  0
   -4.6000    0.6270  -17.2170 H   0  0  0  0  0  0  0  0  0  0  0  0
   -7.7190   -1.6690  -18.5830 H   0  0  0  0  0  0  0  0  0  0  0  0
   -8.4190   -1.6970  -20.8450 H   0  0  0  0  0  0  0  0  0  0  0  0
   -7.5740   -0.7800  -22.0870 H   0  0  0  0  0  0  0  0  0  0  0  0
   -7.6070   -3.7350  -22.3610 N   0  0  0  0  0  0  0  0  0  0  0  0
   -7.0690   -5.0870  -22.5430 C   0  0  0  0  0  0  0  0  0  0  0  0
   -6.3240   -5.2880  -23.8690 C   0  0  0  0  0  0  0  0  0  0  0  0
   -6.9770   -4.5530  -25.0500 C   0  0  0  0  0  0  0  0  0  0  0  0
   -8.4740   -4.7030  -25.0710 C   0  0  0  0  0  0  0  0  0  0  0  0
   -9.3170   -5.5490  -26.3290 S   0  0  0  0  0  0  0  0  0  0  0  0
  -10.8280   -5.2830  -25.5560 C   0  0  0  0  0  0  0  0  0  0  0  0
  -10.6970   -4.5800  -24.3970 C   0  0  0  0  0  0  0  0  0  0  0  0
   -9.3360   -4.2560  -24.1030 C   0  0  0  0  0  0  0  0  0  0  0  0
   -8.9370   -3.4510  -22.8830 C   0  0  0  0  0  0  0  0  0  0  0  0
   -9.0120   -2.3880  -23.1410 H   0  0  0  0  0  0  0  0  0  0  0  0
   -9.6970   -3.6170  -22.1080 H   0  0  0  0  0  0  0  0  0  0  0  0
  -11.5420   -4.2860  -23.7770 H   0  0  0  0  0  0  0  0  0  0  0  0
  -11.7350   -5.6610  -26.0030 H   0  0  0  0  0  0  0  0  0  0  0  0
   -6.7430   -3.4850  -24.9670 H   0  0  0  0  0  0  0  0  0  0  0  0
   -6.5430   -4.8920  -25.9920 H   0  0  0  0  0  0  0  0  0  0  0  0
   -5.2930   -4.9450  -23.7510 H   0  0  0  0  0  0  0  0  0  0  0  0
   -6.2780   -6.3620  -24.0910 H   0  0  0  0  0  0  0  0  0  0  0  0
   -6.4180   -5.3250  -21.7020 H   0  0  0  0  0  0  0  0  0  0  0  0
   -7.9140   -5.7790  -22.4970 H   0  0  0  0  0  0  0  0  0  0  0  0
  1  2  2  0  0  0  0
  2  3  1  0  0  0  0
  2 22  1  0  0  0  0
  3  4  1  0  0  0  0
  3 20  1  0  0  0  0
  3 21  1  0  0  0  0
  4  5  2  0  0  0  0
  4 13  1  0  0  0  0
  5  6  1  0  0  0  0
  5 19  1  0  0  0  0
  6  7  2  0  0  0  0
  7  8  1  0  0  0  0
  7 18  1  0  0  0  0
  8  9  2  0  0  0  0
  8 13  1  0  0  0  0
  9 10  1  0  0  0  0
  9 17  1  0  0  0  0
 10 11  2  0  0  0  0
 10 16  1  0  0  0  0
 11 12  1  0  0  0  0
 11 15  1  0  0  0  0
 12 13  2  0  0  0  0
 12 14  1  0  0  0  0
 22 23  1  0  0  0  0
 22 31  1  0  0  0  0
 23 24  1  0  0  0  0
 23 40  1  0  0  0  0
 23 41  1  0  0  0  0
 24 25  1  0  0  0  0
 24 38  1  0  0  0  0
 24 39  1  0  0  0  0
 25 26  1  0  0  0  0
 25 36  1  0  0  0  0
 25 37  1  0  0  0  0
 26 27  1  0  0  0  0
 26 30  2  0  0  0  0
 27 28  1  0  0  0  0
 28 29  2  0  0  0  0
 28 35  1  0  0  0  0
 29 30  1  0  0  0  0
 29 34  1  0  0  0  0
 30 31  1  0  0  0  0
 31 32  1  0  0  0  0
 31 33  1  0  0  0  0
M  END
>  <MODEL>
       1

$$$$
