output/tmp_first_model_2_30.pdb
 OpenBabel07242613513D

 58 63  0  0  1  0  0  0  0  0999 V2000
   -8.2000   -4.1340  -23.8270 C   0  0  0  0  0  0  0  0  0  0  0  0
   -8.4230   -3.1500  -22.6770 C   0  0  1  0  0  0  0  0  0  0  0  0
   -7.1370   -2.3670  -22.3510 C   0  0  0  0  0  0  0  0  0  0  0  0
   -7.6260   -1.2660  -21.5490 N   0  0  0  0  0  0  0  0  0  0  0  0
   -6.9320   -0.7720  -20.4260 C   0  0  0  0  0  0  0  0  0  0  0  0
   -7.4040   -0.9780  -19.1520 C   0  0  0  0  0  0  0  0  0  0  0  0
   -6.7590   -0.5600  -18.0380 N   0  0  0  0  0  0  0  0  0  0  0  0
   -5.6370    0.1000  -18.2000 C   0  0  0  0  0  0  0  0  0  0  0  0
   -5.0520    0.3970  -19.4660 C   0  0  0  0  0  0  0  0  0  0  0  0
   -3.8760    1.1810  -19.6110 C   0  0  0  0  0  0  0  0  0  0  0  0
   -3.3920    1.4800  -20.8550 C   0  0  0  0  0  0  0  0  0  0  0  0
   -4.0310    0.9840  -22.0150 C   0  0  0  0  0  0  0  0  0  0  0  0
   -5.1460    0.1900  -21.8990 C   0  0  0  0  0  0  0  0  0  0  0  0
   -5.7030   -0.0810  -20.6210 C   0  0  0  0  0  0  0  0  0  0  0  0
   -5.6340   -0.1920  -22.7910 H   0  0  0  0  0  0  0  0  0  0  0  0
   -3.6750    1.2660  -23.0020 H   0  0  0  0  0  0  0  0  0  0  0  0
   -2.5160    2.1110  -20.9610 H   0  0  0  0  0  0  0  0  0  0  0  0
   -3.3960    1.5540  -18.7110 H   0  0  0  0  0  0  0  0  0  0  0  0
   -5.1280    0.4380  -17.2980 H   0  0  0  0  0  0  0  0  0  0  0  0
   -8.3330   -1.5200  -18.9840 H   0  0  0  0  0  0  0  0  0  0  0  0
   -8.9660   -1.0160  -21.7540 C   0  0  0  0  0  0  0  0  0  0  0  0
   -9.5940   -0.1710  -21.1520 O   0  0  0  0  0  0  0  0  0  0  0  0
   -9.4940   -2.0050  -22.8370 C   0  0  1  0  0  0  0  0  0  0  0  0
   -9.3930   -1.3760  -24.2520 C   0  0  0  0  0  0  0  0  0  0  0  0
  -10.4040   -0.3620  -24.5070 N   0  0  0  0  0  0  0  0  0  0  0  0
  -10.0030    0.7650  -25.3390 C   0  0  0  0  0  0  0  0  0  0  0  0
   -8.9010    1.5670  -24.6740 C   0  0  0  0  0  0  0  0  0  0  0  0
   -7.7650    1.9450  -25.3300 C   0  0  0  0  0  0  0  0  0  0  0  0
   -6.5970    2.3500  -24.5780 C   0  0  0  0  0  0  0  0  0  0  0  0
   -5.4600    2.5220  -24.9830 O   0  0  0  0  0  0  0  0  0  0  0  0
   -6.9000    2.4890  -23.2130 N   0  0  0  0  0  0  0  0  0  0  0  0
   -8.1210    2.2400  -22.6650 C   0  0  0  0  0  0  0  0  0  0  0  0
   -9.1400    1.8320  -23.3530 N   0  0  0  0  0  0  0  0  0  0  0  0
   -8.2030    2.3510  -21.5880 H   0  0  0  0  0  0  0  0  0  0  0  0
   -6.1110    2.7110  -22.6200 H   0  0  0  0  0  0  0  0  0  0  0  0
   -7.6730    1.8590  -26.4020 H   0  0  0  0  0  0  0  0  0  0  0  0
  -10.8870    1.3920  -25.4330 H   0  0  0  0  0  0  0  0  0  0  0  0
   -9.6980    0.4200  -26.3370 H   0  0  0  0  0  0  0  0  0  0  0  0
  -11.7140   -0.4670  -24.1060 C   0  0  0  0  0  0  0  0  0  0  0  0
  -12.5940    0.2590  -24.5450 O   0  0  0  0  0  0  0  0  0  0  0  0
  -11.9910   -1.5290  -23.0850 C   0  0  0  0  0  0  0  0  0  0  0  0
  -13.3120   -1.6740  -22.6510 C   0  0  0  0  0  0  0  0  0  0  0  0
  -13.6390   -2.6280  -21.7110 C   0  0  0  0  0  0  0  0  0  0  0  0
  -12.6150   -3.4120  -21.2080 C   0  0  0  0  0  0  0  0  0  0  0  0
  -12.9120   -4.2650  -20.2170 F   0  0  0  0  0  0  0  0  0  0  0  0
  -11.3030   -3.3010  -21.6260 C   0  0  0  0  0  0  0  0  0  0  0  0
  -10.9560   -2.3250  -22.5610 C   0  0  0  0  0  0  0  0  0  0  0  0
  -10.5590   -3.9470  -21.1770 H   0  0  0  0  0  0  0  0  0  0  0  0
  -14.6510   -2.7760  -21.3560 H   0  0  0  0  0  0  0  0  0  0  0  0
  -14.0580   -1.0060  -23.0600 H   0  0  0  0  0  0  0  0  0  0  0  0
   -9.4660   -2.1930  -24.9840 H   0  0  0  0  0  0  0  0  0  0  0  0
   -8.4140   -0.8990  -24.3800 H   0  0  0  0  0  0  0  0  0  0  0  0
   -6.3820   -2.9330  -21.7970 H   0  0  0  0  0  0  0  0  0  0  0  0
   -6.6810   -2.0160  -23.2910 H   0  0  0  0  0  0  0  0  0  0  0  0
   -8.6680   -3.7170  -21.7720 H   0  0  0  0  0  0  0  0  0  0  0  0
   -9.1020   -4.6970  -24.0940 H   0  0  0  0  0  0  0  0  0  0  0  0
   -7.8520   -3.6100  -24.7250 H   0  0  0  0  0  0  0  0  0  0  0  0
   -7.4190   -4.8600  -23.5600 H   0  0  0  0  0  0  0  0  0  0  0  0
  1  2  1  0  0  0  0
  1 56  1  0  0  0  0
  1 57  1  0  0  0  0
  1 58  1  0  0  0  0
  2  3  1  0  0  0  0
  2 23  1  0  0  0  0
  2 55  1  1  0  0  0
  3  4  1  0  0  0  0
  3 53  1  0  0  0  0
  3 54  1  0  0  0  0
  4  5  1  0  0  0  0
  4 21  1  0  0  0  0
  5  6  2  0  0  0  0
  5 14  1  0  0  0  0
  6  7  1  0  0  0  0
  6 20  1  0  0  0  0
  7  8  2  0  0  0  0
  8  9  1  0  0  0  0
  8 19  1  0  0  0  0
  9 10  2  0  0  0  0
  9 14  1  0  0  0  0
 10 11  1  0  0  0  0
 10 18  1  0  0  0  0
 11 12  2  0  0  0  0
 11 17  1  0  0  0  0
 12 13  1  0  0  0  0
 12 16  1  0  0  0  0
 13 14  2  0  0  0  0
 13 15  1  0  0  0  0
 21 22  2  0  0  0  0
 23 21  1  1  0  0  0
 23 24  1  0  0  0  0
 23 47  1  0  0  0  0
 24 25  1  0  0  0  0
 24 51  1  0  0  0  0
 24 52  1  0  0  0  0
 25 26  1  0  0  0  0
 25 39  1  0  0  0  0
 26 27  1  0  0  0  0
 26 37  1  0  0  0  0
 26 38  1  0  0  0  0
 27 28  2  0  0  0  0
 27 33  1  0  0  0  0
 28 29  1  0  0  0  0
 28 36  1  0  0  0  0
 29 30  2  0  0  0  0
 29 31  1  0  0  0  0
 31 32  1  0  0  0  0
 31 35  1  0  0  0  0
 32 33  2  0  0  0  0
 32 34  1  0  0  0  0
 39 40  2  0  0  0  0
 39 41  1  0  0  0  0
 41 42  2  0  0  0  0
 41 47  1  0  0  0  0
 42 43  1  0  0  0  0
 42 50  1  0  0  0  0
 43 44  2  0  0  0  0
 43 49  1  0  0  0  0
 44 45  1  0  0  0  0
 44 46  1  0  0  0  0
 46 47  2  0  0  0  0
 46 48  1  0  0  0  0
M  END
>  <MODEL>
       1

$$$$
