output/tmp_first_model_20_97.pdb
 OpenBabel07242623363D

 40 43  0  0  1  0  0  0  0  0999 V2000
   -7.2570   -3.9180  -26.5100 C   0  0  0  0  0  0  0  0  0  0  0  0
   -7.2830   -4.1140  -25.0000 C   0  0  2  0  0  0  0  0  0  0  0  0
   -7.9280   -5.4610  -24.6250 C   0  0  0  0  0  0  0  0  0  0  0  0
   -8.7260   -5.3910  -23.4630 O   0  0  0  0  0  0  0  0  0  0  0  0
   -8.0720   -4.6830  -22.4480 C   0  0  0  0  0  0  0  0  0  0  0  0
   -8.0340   -3.1850  -22.7780 C   0  0  1  0  0  0  0  0  0  0  0  0
   -8.0080   -2.9760  -24.3000 C   0  0  0  0  0  0  0  0  0  0  0  0
   -7.5350   -2.0140  -24.5210 H   0  0  0  0  0  0  0  0  0  0  0  0
   -9.0370   -2.8980  -24.6700 H   0  0  0  0  0  0  0  0  0  0  0  0
   -9.1320   -2.4740  -22.1620 N   0  0  0  0  0  0  0  0  0  0  0  0
   -8.7700   -1.4290  -21.3720 C   0  0  0  0  0  0  0  0  0  0  0  0
   -9.4830   -0.5610  -20.9330 O   0  0  0  0  0  0  0  0  0  0  0  0
   -7.3640   -1.5390  -21.2120 N   0  0  0  0  0  0  0  0  0  0  0  0
   -6.5970   -0.8590  -20.2010 C   0  0  0  0  0  0  0  0  0  0  0  0
   -6.8970   -1.0520  -18.8740 C   0  0  0  0  0  0  0  0  0  0  0  0
   -6.1950   -0.5400  -17.8290 N   0  0  0  0  0  0  0  0  0  0  0  0
   -5.1580    0.2160  -18.0780 C   0  0  0  0  0  0  0  0  0  0  0  0
   -4.7320    0.5290  -19.3980 C   0  0  0  0  0  0  0  0  0  0  0  0
   -3.6010    1.3660  -19.6310 C   0  0  0  0  0  0  0  0  0  0  0  0
   -3.2200    1.6640  -20.9110 C   0  0  0  0  0  0  0  0  0  0  0  0
   -3.9490    1.1440  -22.0020 C   0  0  0  0  0  0  0  0  0  0  0  0
   -5.0420    0.3390  -21.7970 C   0  0  0  0  0  0  0  0  0  0  0  0
   -5.4680   -0.0080  -20.4890 C   0  0  0  0  0  0  0  0  0  0  0  0
   -5.6020   -0.0470  -22.6390 H   0  0  0  0  0  0  0  0  0  0  0  0
   -3.6510    1.3940  -23.0160 H   0  0  0  0  0  0  0  0  0  0  0  0
   -2.3660    2.3080  -21.1020 H   0  0  0  0  0  0  0  0  0  0  0  0
   -3.0520    1.7720  -18.7820 H   0  0  0  0  0  0  0  0  0  0  0  0
   -4.6040    0.6230  -17.2230 H   0  0  0  0  0  0  0  0  0  0  0  0
   -7.7360   -1.6800  -18.5890 H   0  0  0  0  0  0  0  0  0  0  0  0
   -6.8530   -2.5190  -22.0730 C   0  0  0  0  0  0  0  0  0  0  0  0
   -5.6890   -2.7890  -22.2240 O   0  0  0  0  0  0  0  0  0  0  0  0
  -10.1000   -2.6510  -22.3590 H   0  0  0  0  0  0  0  0  0  0  0  0
   -7.0520   -5.0530  -22.2870 H   0  0  0  0  0  0  0  0  0  0  0  0
   -8.6400   -4.8180  -21.5270 H   0  0  0  0  0  0  0  0  0  0  0  0
   -8.6030   -5.8120  -25.4090 H   0  0  0  0  0  0  0  0  0  0  0  0
   -7.1480   -6.2250  -24.4840 H   0  0  0  0  0  0  0  0  0  0  0  0
   -6.2480   -4.1190  -24.6340 H   0  0  0  0  0  0  0  0  0  0  0  0
   -6.7340   -4.7350  -27.0120 H   0  0  0  0  0  0  0  0  0  0  0  0
   -8.2700   -3.8680  -26.9220 H   0  0  0  0  0  0  0  0  0  0  0  0
   -6.7530   -2.9860  -26.7810 H   0  0  0  0  0  0  0  0  0  0  0  0
  1  2  1  0  0  0  0
  1 38  1  0  0  0  0
  1 39  1  0  0  0  0
  1 40  1  0  0  0  0
  2  3  1  0  0  0  0
  2  7  1  0  0  0  0
  2 37  1  1  0  0  0
  3  4  1  0  0  0  0
  3 35  1  0  0  0  0
  3 36  1  0  0  0  0
  4  5  1  0  0  0  0
  5  6  1  0  0  0  0
  5 33  1  0  0  0  0
  5 34  1  0  0  0  0
  6  7  1  0  0  0  0
  6 10  1  0  0  0  0
  6 30  1  1  0  0  0
  7  8  1  0  0  0  0
  7  9  1  0  0  0  0
 10 11  1  0  0  0  0
 10 32  1  0  0  0  0
 11 12  2  0  0  0  0
 11 13  1  0  0  0  0
 13 14  1  0  0  0  0
 13 30  1  0  0  0  0
 14 15  2  0  0  0  0
 14 23  1  0  0  0  0
 15 16  1  0  0  0  0
 15 29  1  0  0  0  0
 16 17  2  0  0  0  0
 17 18  1  0  0  0  0
 17 28  1  0  0  0  0
 18 19  2  0  0  0  0
 18 23  1  0  0  0  0
 19 20  1  0  0  0  0
 19 27  1  0  0  0  0
 20 21  2  0  0  0  0
 20 26  1  0  0  0  0
 21 22  1  0  0  0  0
 21 25  1  0  0  0  0
 22 23  2  0  0  0  0
 22 24  1  0  0  0  0
 30 31  2  0  0  0  0
M  END
>  <MODEL>
       1

$$$$
