output/tmp_first_model_6_52.pdb
 OpenBabel07242616043D

 57 60  0  0  0  0  0  0  0  0999 V2000
  -15.1370    3.5650  -21.1240 C   0  0  0  0  0  0  0  0  0  0  0  0
  -15.1310    3.1410  -22.5900 C   0  0  0  0  0  0  0  0  0  0  0  0
  -13.7090    3.1610  -23.0790 C   0  0  0  0  0  0  0  0  0  0  0  0
  -13.1820    4.2110  -23.3980 O   0  0  0  0  0  0  0  0  0  0  0  0
  -13.0490    1.9570  -23.0660 N   0  0  0  0  0  0  0  0  0  0  0  0
  -11.7530    1.7620  -23.5880 C   0  0  0  0  0  0  0  0  0  0  0  0
  -11.2550    2.6320  -24.5560 C   0  0  0  0  0  0  0  0  0  0  0  0
   -9.9920    2.4260  -25.0800 C   0  0  0  0  0  0  0  0  0  0  0  0
   -9.2060    1.3750  -24.6400 C   0  0  0  0  0  0  0  0  0  0  0  0
   -9.6830    0.5480  -23.6300 C   0  0  0  0  0  0  0  0  0  0  0  0
   -8.8180   -0.4610  -23.1200 N   0  0  0  0  0  0  0  0  0  0  0  0
   -8.4220   -1.5500  -24.0030 C   0  0  0  0  0  0  0  0  0  0  0  0
   -9.0180   -2.8690  -23.5620 C   0  0  0  0  0  0  0  0  0  0  0  0
  -10.4070   -2.9430  -23.4320 C   0  0  0  0  0  0  0  0  0  0  0  0
  -11.0200   -4.1420  -23.0930 C   0  0  0  0  0  0  0  0  0  0  0  0
  -10.2450   -5.2730  -22.8540 C   0  0  0  0  0  0  0  0  0  0  0  0
   -8.8580   -5.1880  -22.9020 C   0  0  0  0  0  0  0  0  0  0  0  0
   -8.2460   -3.9910  -23.2680 C   0  0  0  0  0  0  0  0  0  0  0  0
   -7.1570   -3.9460  -23.3260 H   0  0  0  0  0  0  0  0  0  0  0  0
   -8.2500   -6.0520  -22.6460 H   0  0  0  0  0  0  0  0  0  0  0  0
  -10.7130   -6.2260  -22.6510 H   0  0  0  0  0  0  0  0  0  0  0  0
  -12.1040   -4.2000  -23.0270 H   0  0  0  0  0  0  0  0  0  0  0  0
  -11.0120   -2.0550  -23.6240 H   0  0  0  0  0  0  0  0  0  0  0  0
   -8.8190   -1.2950  -24.9890 H   0  0  0  0  0  0  0  0  0  0  0  0
   -7.3270   -1.5980  -24.0970 H   0  0  0  0  0  0  0  0  0  0  0  0
   -8.4610   -0.3530  -21.7940 C   0  0  0  0  0  0  0  0  0  0  0  0
   -8.9230    0.5100  -21.0680 O   0  0  0  0  0  0  0  0  0  0  0  0
   -7.4450   -1.3630  -21.2760 C   0  0  0  0  0  0  0  0  0  0  0  0
   -6.5980   -0.8020  -20.1870 C   0  0  0  0  0  0  0  0  0  0  0  0
   -6.9100   -1.0590  -18.8820 C   0  0  0  0  0  0  0  0  0  0  0  0
   -6.2360   -0.5810  -17.8080 N   0  0  0  0  0  0  0  0  0  0  0  0
   -5.2070    0.1930  -18.0570 C   0  0  0  0  0  0  0  0  0  0  0  0
   -4.7730    0.5550  -19.3620 C   0  0  0  0  0  0  0  0  0  0  0  0
   -3.6450    1.3880  -19.5760 C   0  0  0  0  0  0  0  0  0  0  0  0
   -3.2690    1.7370  -20.8420 C   0  0  0  0  0  0  0  0  0  0  0  0
   -4.0120    1.2790  -21.9530 C   0  0  0  0  0  0  0  0  0  0  0  0
   -5.0990    0.4590  -21.7750 C   0  0  0  0  0  0  0  0  0  0  0  0
   -5.5020    0.0630  -20.4700 C   0  0  0  0  0  0  0  0  0  0  0  0
   -5.6360    0.1000  -22.6480 H   0  0  0  0  0  0  0  0  0  0  0  0
   -3.7010    1.5580  -22.9580 H   0  0  0  0  0  0  0  0  0  0  0  0
   -2.4010    2.3710  -21.0070 H   0  0  0  0  0  0  0  0  0  0  0  0
   -3.0920    1.7450  -18.7100 H   0  0  0  0  0  0  0  0  0  0  0  0
   -4.6620    0.5790  -17.1960 H   0  0  0  0  0  0  0  0  0  0  0  0
   -7.7640   -1.6990  -18.6530 H   0  0  0  0  0  0  0  0  0  0  0  0
   -8.0300   -2.2100  -20.8990 H   0  0  0  0  0  0  0  0  0  0  0  0
   -6.8320   -1.7350  -22.0990 H   0  0  0  0  0  0  0  0  0  0  0  0
  -10.9700    0.7030  -23.1220 C   0  0  0  0  0  0  0  0  0  0  0  0
  -11.3200    0.0420  -22.3300 H   0  0  0  0  0  0  0  0  0  0  0  0
   -8.2090    1.2120  -25.0380 H   0  0  0  0  0  0  0  0  0  0  0  0
   -9.6330    3.0940  -25.8540 H   0  0  0  0  0  0  0  0  0  0  0  0
  -11.8380    3.4930  -24.8430 H   0  0  0  0  0  0  0  0  0  0  0  0
  -13.5230    1.1560  -22.6780 H   0  0  0  0  0  0  0  0  0  0  0  0
  -15.6750    3.8720  -23.1960 H   0  0  0  0  0  0  0  0  0  0  0  0
  -15.5810    2.1580  -22.7450 H   0  0  0  0  0  0  0  0  0  0  0  0
  -14.4600    2.9500  -20.5210 H   0  0  0  0  0  0  0  0  0  0  0  0
  -14.7960    4.6000  -21.0490 H   0  0  0  0  0  0  0  0  0  0  0  0
  -16.1420    3.4950  -20.7080 H   0  0  0  0  0  0  0  0  0  0  0  0
  1  2  1  0  0  0  0
  1 55  1  0  0  0  0
  1 56  1  0  0  0  0
  1 57  1  0  0  0  0
  2  3  1  0  0  0  0
  2 53  1  0  0  0  0
  2 54  1  0  0  0  0
  3  4  2  0  0  0  0
  3  5  1  0  0  0  0
  5  6  1  0  0  0  0
  5 52  1  0  0  0  0
  6  7  2  0  0  0  0
  6 47  1  0  0  0  0
  7  8  1  0  0  0  0
  7 51  1  0  0  0  0
  8  9  2  0  0  0  0
  8 50  1  0  0  0  0
  9 10  1  0  0  0  0
  9 49  1  0  0  0  0
 10 11  1  0  0  0  0
 10 47  2  0  0  0  0
 11 12  1  0  0  0  0
 11 26  1  0  0  0  0
 12 13  1  0  0  0  0
 12 24  1  0  0  0  0
 12 25  1  0  0  0  0
 13 14  2  0  0  0  0
 13 18  1  0  0  0  0
 14 15  1  0  0  0  0
 14 23  1  0  0  0  0
 15 16  2  0  0  0  0
 15 22  1  0  0  0  0
 16 17  1  0  0  0  0
 16 21  1  0  0  0  0
 17 18  2  0  0  0  0
 17 20  1  0  0  0  0
 18 19  1  0  0  0  0
 26 27  2  0  0  0  0
 26 28  1  0  0  0  0
 28 29  1  0  0  0  0
 28 45  1  0  0  0  0
 28 46  1  0  0  0  0
 29 30  2  0  0  0  0
 29 38  1  0  0  0  0
 30 31  1  0  0  0  0
 30 44  1  0  0  0  0
 31 32  2  0  0  0  0
 32 33  1  0  0  0  0
 32 43  1  0  0  0  0
 33 34  2  0  0  0  0
 33 38  1  0  0  0  0
 34 35  1  0  0  0  0
 34 42  1  0  0  0  0
 35 36  2  0  0  0  0
 35 41  1  0  0  0  0
 36 37  1  0  0  0  0
 36 40  1  0  0  0  0
 37 38  2  0  0  0  0
 37 39  1  0  0  0  0
 47 48  1  0  0  0  0
M  END
>  <MODEL>
       1

$$$$
