output/tmp_first_model_4_53.pdb
 OpenBabel07242615033D

 59 63  0  0  1  0  0  0  0  0999 V2000
   -7.5190   -6.1620  -28.9870 C   0  0  0  0  0  0  0  0  0  0  0  0
   -8.7700   -5.4950  -28.4100 C   0  0  0  0  0  0  0  0  0  0  0  0
   -8.5970   -4.0710  -28.1280 N   0  0  0  0  0  0  0  0  0  0  0  0
   -7.7480   -3.6810  -27.1300 C   0  0  0  0  0  0  0  0  0  0  0  0
   -7.0380   -4.4550  -26.4990 O   0  0  0  0  0  0  0  0  0  0  0  0
   -7.7290   -2.1700  -26.8650 C   0  0  0  0  0  0  0  0  0  0  0  0
   -8.5780   -1.8360  -25.7240 N   0  0  0  0  0  0  0  0  0  0  0  0
   -7.9990   -1.2910  -24.4990 C   0  0  0  0  0  0  0  0  0  0  0  0
   -8.8360   -1.5710  -23.2170 C   0  0  2  0  0  0  0  0  0  0  0  0
   -8.2520   -0.6310  -22.1230 C   0  0  0  0  0  0  0  0  0  0  0  0
   -8.4080    0.5710  -22.0420 O   0  0  0  0  0  0  0  0  0  0  0  0
   -7.4560   -1.3780  -21.2700 N   0  0  0  0  0  0  0  0  0  0  0  0
   -6.5420   -0.9220  -20.2780 C   0  0  0  0  0  0  0  0  0  0  0  0
   -6.7250   -1.3440  -18.9790 C   0  0  0  0  0  0  0  0  0  0  0  0
   -5.8360   -1.1780  -17.9750 N   0  0  0  0  0  0  0  0  0  0  0  0
   -4.7170   -0.5570  -18.2500 C   0  0  0  0  0  0  0  0  0  0  0  0
   -4.4000   -0.0340  -19.5330 C   0  0  0  0  0  0  0  0  0  0  0  0
   -3.1810    0.6560  -19.7700 C   0  0  0  0  0  0  0  0  0  0  0  0
   -2.8930    1.1590  -21.0070 C   0  0  0  0  0  0  0  0  0  0  0  0
   -3.7890    0.9440  -22.0790 C   0  0  0  0  0  0  0  0  0  0  0  0
   -4.9630    0.2550  -21.8830 C   0  0  0  0  0  0  0  0  0  0  0  0
   -5.3200   -0.2300  -20.5930 C   0  0  0  0  0  0  0  0  0  0  0  0
   -5.6160    0.0540  -22.7280 H   0  0  0  0  0  0  0  0  0  0  0  0
   -3.5650    1.3670  -23.0530 H   0  0  0  0  0  0  0  0  0  0  0  0
   -1.9740    1.7200  -21.1710 H   0  0  0  0  0  0  0  0  0  0  0  0
   -2.5100    0.8130  -18.9310 H   0  0  0  0  0  0  0  0  0  0  0  0
   -3.9930   -0.4450  -17.4440 H   0  0  0  0  0  0  0  0  0  0  0  0
   -7.6390   -1.8640  -18.6930 H   0  0  0  0  0  0  0  0  0  0  0  0
   -7.3930   -2.7740  -21.6350 C   0  0  0  0  0  0  0  0  0  0  0  0
   -8.5810   -2.9730  -22.5700 C   0  0  2  0  0  0  0  0  0  0  0  0
   -8.3580   -4.1420  -23.5170 C   0  0  0  0  0  0  0  0  0  0  0  0
   -8.2620   -5.0730  -22.9520 H   0  0  0  0  0  0  0  0  0  0  0  0
   -7.4390   -4.0180  -24.1020 H   0  0  0  0  0  0  0  0  0  0  0  0
   -9.1870   -4.2530  -24.2190 H   0  0  0  0  0  0  0  0  0  0  0  0
   -9.4680   -3.1650  -21.9480 H   0  0  0  0  0  0  0  0  0  0  0  0
   -6.4410   -3.0310  -22.1280 H   0  0  0  0  0  0  0  0  0  0  0  0
   -7.4490   -3.3870  -20.7390 H   0  0  0  0  0  0  0  0  0  0  0  0
  -10.3120   -1.3460  -23.5240 C   0  0  0  0  0  0  0  0  0  0  0  0
  -11.2500   -1.2250  -22.4820 C   0  0  0  0  0  0  0  0  0  0  0  0
  -12.5970   -1.0700  -22.7890 C   0  0  0  0  0  0  0  0  0  0  0  0
  -13.8180   -1.0130  -21.5490 Cl  0  0  0  0  0  0  0  0  0  0  0  0
  -13.0480   -0.9920  -24.1060 C   0  0  0  0  0  0  0  0  0  0  0  0
  -12.1330   -1.1220  -25.1290 C   0  0  0  0  0  0  0  0  0  0  0  0
  -10.7880   -1.3560  -24.8440 C   0  0  0  0  0  0  0  0  0  0  0  0
   -9.9080   -1.7200  -25.9940 C   0  0  0  0  0  0  0  0  0  0  0  0
  -10.3590   -1.9410  -27.1210 O   0  0  0  0  0  0  0  0  0  0  0  0
  -12.4410   -1.0800  -26.1680 H   0  0  0  0  0  0  0  0  0  0  0  0
  -14.1100   -0.8810  -24.2980 H   0  0  0  0  0  0  0  0  0  0  0  0
  -10.9290   -1.2640  -21.4440 H   0  0  0  0  0  0  0  0  0  0  0  0
   -6.9940   -1.7120  -24.3800 H   0  0  0  0  0  0  0  0  0  0  0  0
   -7.8830   -0.2020  -24.5800 H   0  0  0  0  0  0  0  0  0  0  0  0
   -8.1100   -1.6380  -27.7440 H   0  0  0  0  0  0  0  0  0  0  0  0
   -6.7020   -1.8520  -26.6620 H   0  0  0  0  0  0  0  0  0  0  0  0
   -9.4090   -3.4750  -28.2670 H   0  0  0  0  0  0  0  0  0  0  0  0
   -9.5970   -5.5820  -29.1270 H   0  0  0  0  0  0  0  0  0  0  0  0
   -9.0700   -6.0250  -27.4950 H   0  0  0  0  0  0  0  0  0  0  0  0
   -6.7020   -6.1600  -28.2620 H   0  0  0  0  0  0  0  0  0  0  0  0
   -7.1830   -5.6570  -29.8990 H   0  0  0  0  0  0  0  0  0  0  0  0
   -7.7420   -7.2070  -29.2350 H   0  0  0  0  0  0  0  0  0  0  0  0
  1  2  1  0  0  0  0
  1 57  1  0  0  0  0
  1 58  1  0  0  0  0
  1 59  1  0  0  0  0
  2  3  1  0  0  0  0
  2 55  1  0  0  0  0
  2 56  1  0  0  0  0
  3  4  1  0  0  0  0
  3 54  1  0  0  0  0
  4  5  2  0  0  0  0
  4  6  1  0  0  0  0
  6  7  1  0  0  0  0
  6 52  1  0  0  0  0
  6 53  1  0  0  0  0
  7  8  1  0  0  0  0
  7 45  1  0  0  0  0
  8  9  1  0  0  0  0
  8 50  1  0  0  0  0
  8 51  1  0  0  0  0
  9 10  1  1  0  0  0
  9 30  1  0  0  0  0
  9 38  1  0  0  0  0
 10 11  2  0  0  0  0
 10 12  1  0  0  0  0
 12 13  1  0  0  0  0
 12 29  1  0  0  0  0
 13 14  2  0  0  0  0
 13 22  1  0  0  0  0
 14 15  1  0  0  0  0
 14 28  1  0  0  0  0
 15 16  2  0  0  0  0
 16 17  1  0  0  0  0
 16 27  1  0  0  0  0
 17 18  2  0  0  0  0
 17 22  1  0  0  0  0
 18 19  1  0  0  0  0
 18 26  1  0  0  0  0
 19 20  2  0  0  0  0
 19 25  1  0  0  0  0
 20 21  1  0  0  0  0
 20 24  1  0  0  0  0
 21 22  2  0  0  0  0
 21 23  1  0  0  0  0
 29 30  1  0  0  0  0
 29 36  1  0  0  0  0
 29 37  1  0  0  0  0
 30 31  1  0  0  0  0
 30 35  1  1  0  0  0
 31 32  1  0  0  0  0
 31 33  1  0  0  0  0
 31 34  1  0  0  0  0
 38 39  2  0  0  0  0
 38 44  1  0  0  0  0
 39 40  1  0  0  0  0
 39 49  1  0  0  0  0
 40 41  1  0  0  0  0
 40 42  2  0  0  0  0
 42 43  1  0  0  0  0
 42 48  1  0  0  0  0
 43 44  2  0  0  0  0
 43 47  1  0  0  0  0
 44 45  1  0  0  0  0
 45 46  2  0  0  0  0
M  END
>  <MODEL>
       1

$$$$
