output/tmp_first_model_3_77.pdb
 OpenBabel07242614263D

 55 60  0  0  1  0  0  0  0  0999 V2000
   -9.9620   -0.8890  -23.5470 C   0  0  0  0  0  0  0  0  0  0  0  0
   -8.5940   -1.2200  -22.9510 C   0  0  1  0  0  0  0  0  0  0  0  0
   -8.1700   -0.2980  -21.7900 C   0  0  0  0  0  0  0  0  0  0  0  0
   -7.2210   -1.1130  -21.0390 N   0  0  0  0  0  0  0  0  0  0  0  0
   -6.3930   -0.6150  -19.9950 C   0  0  0  0  0  0  0  0  0  0  0  0
   -6.6610   -0.8940  -18.6780 C   0  0  0  0  0  0  0  0  0  0  0  0
   -5.9990   -0.3380  -17.6270 N   0  0  0  0  0  0  0  0  0  0  0  0
   -5.0050    0.4770  -17.8910 C   0  0  0  0  0  0  0  0  0  0  0  0
   -4.5590    0.7830  -19.2090 C   0  0  0  0  0  0  0  0  0  0  0  0
   -3.4270    1.6020  -19.4600 C   0  0  0  0  0  0  0  0  0  0  0  0
   -3.0100    1.8310  -20.7410 C   0  0  0  0  0  0  0  0  0  0  0  0
   -3.7070    1.2640  -21.8310 C   0  0  0  0  0  0  0  0  0  0  0  0
   -4.8160    0.4850  -21.6160 C   0  0  0  0  0  0  0  0  0  0  0  0
   -5.2700    0.2240  -20.2980 C   0  0  0  0  0  0  0  0  0  0  0  0
   -5.3490    0.0430  -22.4520 H   0  0  0  0  0  0  0  0  0  0  0  0
   -3.3690    1.4480  -22.8450 H   0  0  0  0  0  0  0  0  0  0  0  0
   -2.1420    2.4550  -20.9350 H   0  0  0  0  0  0  0  0  0  0  0  0
   -2.9050    2.0450  -18.6150 H   0  0  0  0  0  0  0  0  0  0  0  0
   -4.4810    0.9240  -17.0420 H   0  0  0  0  0  0  0  0  0  0  0  0
   -7.4610   -1.5820  -18.4130 H   0  0  0  0  0  0  0  0  0  0  0  0
   -7.3330   -2.4610  -21.3140 C   0  0  0  0  0  0  0  0  0  0  0  0
   -6.6720   -3.3340  -20.7840 O   0  0  0  0  0  0  0  0  0  0  0  0
   -8.4410   -2.6660  -22.3600 C   0  0  1  0  0  0  0  0  0  0  0  0
   -9.7020   -3.1650  -21.6060 C   0  0  0  0  0  0  0  0  0  0  0  0
  -10.7410   -3.6550  -22.5090 N   0  0  0  0  0  0  0  0  0  0  0  0
  -12.1480   -3.5000  -22.1110 C   0  0  0  0  0  0  0  0  0  0  0  0
  -12.9100   -2.3870  -22.7780 C   0  0  0  0  0  0  0  0  0  0  0  0
  -13.4980   -2.2810  -23.9930 C   0  0  0  0  0  0  0  0  0  0  0  0
  -14.1500   -1.0820  -24.0530 O   0  0  0  0  0  0  0  0  0  0  0  0
  -13.9330   -0.5260  -22.8490 C   0  0  0  0  0  0  0  0  0  0  0  0
  -13.2070   -1.2350  -22.0540 N   0  0  0  0  0  0  0  0  0  0  0  0
  -14.4280    0.4120  -22.6380 H   0  0  0  0  0  0  0  0  0  0  0  0
  -13.6200   -2.9110  -24.8580 H   0  0  0  0  0  0  0  0  0  0  0  0
  -12.1560   -3.2410  -21.0490 H   0  0  0  0  0  0  0  0  0  0  0  0
  -12.6390   -4.4700  -22.2510 H   0  0  0  0  0  0  0  0  0  0  0  0
  -10.3860   -4.6200  -23.4220 C   0  0  0  0  0  0  0  0  0  0  0  0
  -11.1510   -5.4370  -23.8930 O   0  0  0  0  0  0  0  0  0  0  0  0
   -8.9620   -4.6450  -23.8570 C   0  0  0  0  0  0  0  0  0  0  0  0
   -8.6060   -5.6200  -24.7940 C   0  0  0  0  0  0  0  0  0  0  0  0
   -7.3230   -5.6840  -25.2960 C   0  0  0  0  0  0  0  0  0  0  0  0
   -6.4010   -4.7670  -24.7990 C   0  0  0  0  0  0  0  0  0  0  0  0
   -5.1450   -4.8190  -25.2750 F   0  0  0  0  0  0  0  0  0  0  0  0
   -6.7200   -3.8240  -23.8360 C   0  0  0  0  0  0  0  0  0  0  0  0
   -8.0390   -3.7240  -23.3690 C   0  0  0  0  0  0  0  0  0  0  0  0
   -5.9210   -3.2170  -23.4250 H   0  0  0  0  0  0  0  0  0  0  0  0
   -7.0330   -6.4270  -26.0350 H   0  0  0  0  0  0  0  0  0  0  0  0
   -9.3700   -6.3260  -25.1060 H   0  0  0  0  0  0  0  0  0  0  0  0
  -10.1400   -2.3650  -21.0080 H   0  0  0  0  0  0  0  0  0  0  0  0
   -9.3890   -3.9510  -20.9020 H   0  0  0  0  0  0  0  0  0  0  0  0
   -9.0380   -0.0280  -21.1660 H   0  0  0  0  0  0  0  0  0  0  0  0
   -7.7150    0.6400  -22.1280 H   0  0  0  0  0  0  0  0  0  0  0  0
   -7.8380   -1.1420  -23.7480 H   0  0  0  0  0  0  0  0  0  0  0  0
   -9.9350    0.0640  -24.0880 H   0  0  0  0  0  0  0  0  0  0  0  0
  -10.2580   -1.6700  -24.2570 H   0  0  0  0  0  0  0  0  0  0  0  0
  -10.7410   -0.8190  -22.7770 H   0  0  0  0  0  0  0  0  0  0  0  0
  1  2  1  0  0  0  0
  1 53  1  0  0  0  0
  1 54  1  0  0  0  0
  1 55  1  0  0  0  0
  2  3  1  0  0  0  0
  2 23  1  0  0  0  0
  2 52  1  6  0  0  0
  3  4  1  0  0  0  0
  3 50  1  0  0  0  0
  3 51  1  0  0  0  0
  4  5  1  0  0  0  0
  4 21  1  0  0  0  0
  5  6  2  0  0  0  0
  5 14  1  0  0  0  0
  6  7  1  0  0  0  0
  6 20  1  0  0  0  0
  7  8  2  0  0  0  0
  8  9  1  0  0  0  0
  8 19  1  0  0  0  0
  9 10  2  0  0  0  0
  9 14  1  0  0  0  0
 10 11  1  0  0  0  0
 10 18  1  0  0  0  0
 11 12  2  0  0  0  0
 11 17  1  0  0  0  0
 12 13  1  0  0  0  0
 12 16  1  0  0  0  0
 13 14  2  0  0  0  0
 13 15  1  0  0  0  0
 21 22  2  0  0  0  0
 23 21  1  1  0  0  0
 23 24  1  0  0  0  0
 23 44  1  0  0  0  0
 24 25  1  0  0  0  0
 24 48  1  0  0  0  0
 24 49  1  0  0  0  0
 25 26  1  0  0  0  0
 25 36  1  0  0  0  0
 26 27  1  0  0  0  0
 26 34  1  0  0  0  0
 26 35  1  0  0  0  0
 27 28  2  0  0  0  0
 27 31  1  0  0  0  0
 28 29  1  0  0  0  0
 28 33  1  0  0  0  0
 29 30  1  0  0  0  0
 30 31  2  0  0  0  0
 30 32  1  0  0  0  0
 36 37  2  0  0  0  0
 36 38  1  0  0  0  0
 38 39  2  0  0  0  0
 38 44  1  0  0  0  0
 39 40  1  0  0  0  0
 39 47  1  0  0  0  0
 40 41  2  0  0  0  0
 40 46  1  0  0  0  0
 41 42  1  0  0  0  0
 41 43  1  0  0  0  0
 43 44  2  0  0  0  0
 43 45  1  0  0  0  0
M  END
>  <MODEL>
       1

$$$$
