output/tmp_first_model_8_75.pdb
 OpenBabel07242617113D

 66 71  0  0  1  0  0  0  0  0999 V2000
   -8.2290   -4.7500  -28.8850 C   0  0  0  0  0  0  0  0  0  0  0  0
   -8.0990   -3.3580  -28.4890 N   0  0  0  0  0  0  0  0  0  0  0  0
   -7.3710   -3.0870  -27.3710 C   0  0  0  0  0  0  0  0  0  0  0  0
   -6.7230   -3.9260  -26.7700 O   0  0  0  0  0  0  0  0  0  0  0  0
   -7.4470   -1.6380  -26.9040 C   0  0  0  0  0  0  0  0  0  0  0  0
   -8.3490   -1.5530  -25.7670 N   0  0  0  0  0  0  0  0  0  0  0  0
   -7.8160   -1.1380  -24.4800 C   0  0  0  0  0  0  0  0  0  0  0  0
   -8.6930   -1.5420  -23.2630 C   0  0  2  0  0  0  0  0  0  0  0  0
   -8.1920   -0.6480  -22.1070 C   0  0  0  0  0  0  0  0  0  0  0  0
   -8.3640    0.5450  -21.9800 O   0  0  0  0  0  0  0  0  0  0  0  0
   -7.4320   -1.4120  -21.2460 N   0  0  0  0  0  0  0  0  0  0  0  0
   -6.6370   -0.8310  -20.2280 C   0  0  0  0  0  0  0  0  0  0  0  0
   -6.9270   -1.1070  -18.9170 C   0  0  0  0  0  0  0  0  0  0  0  0
   -6.2480   -0.6180  -17.8530 N   0  0  0  0  0  0  0  0  0  0  0  0
   -5.2290    0.1680  -18.1040 C   0  0  0  0  0  0  0  0  0  0  0  0
   -4.8020    0.5170  -19.4150 C   0  0  0  0  0  0  0  0  0  0  0  0
   -3.6740    1.3550  -19.6180 C   0  0  0  0  0  0  0  0  0  0  0  0
   -3.2750    1.6830  -20.8820 C   0  0  0  0  0  0  0  0  0  0  0  0
   -3.9850    1.1860  -21.9980 C   0  0  0  0  0  0  0  0  0  0  0  0
   -5.0590    0.3510  -21.8320 C   0  0  0  0  0  0  0  0  0  0  0  0
   -5.5140    0.0090  -20.5240 C   0  0  0  0  0  0  0  0  0  0  0  0
   -5.5630   -0.0460  -22.7080 H   0  0  0  0  0  0  0  0  0  0  0  0
   -3.6470    1.4450  -22.9980 H   0  0  0  0  0  0  0  0  0  0  0  0
   -2.4040    2.3110  -21.0390 H   0  0  0  0  0  0  0  0  0  0  0  0
   -3.1430    1.7270  -18.7460 H   0  0  0  0  0  0  0  0  0  0  0  0
   -4.6760    0.5650  -17.2510 H   0  0  0  0  0  0  0  0  0  0  0  0
   -7.7740   -1.7520  -18.6870 H   0  0  0  0  0  0  0  0  0  0  0  0
   -7.3020   -2.7970  -21.6470 C   0  0  0  0  0  0  0  0  0  0  0  0
   -8.4250   -2.9760  -22.6720 C   0  0  2  0  0  0  0  0  0  0  0  0
   -8.1030   -4.1050  -23.6470 C   0  0  0  0  0  0  0  0  0  0  0  0
   -9.3050   -4.5360  -24.3260 N   0  0  0  0  0  0  0  0  0  0  0  0
   -9.2660   -5.5700  -25.2210 C   0  0  0  0  0  0  0  0  0  0  0  0
  -10.3840   -5.8480  -26.0420 C   0  0  0  0  0  0  0  0  0  0  0  0
  -10.3880   -6.8290  -26.9230 N   0  0  0  0  0  0  0  0  0  0  0  0
   -9.2820   -7.5800  -26.9960 C   0  0  0  0  0  0  0  0  0  0  0  0
   -8.1910   -7.3120  -26.1950 C   0  0  0  0  0  0  0  0  0  0  0  0
   -8.1650   -6.3120  -25.3040 N   0  0  0  0  0  0  0  0  0  0  0  0
   -7.2790   -7.8940  -26.2980 H   0  0  0  0  0  0  0  0  0  0  0  0
   -9.2670   -8.3850  -27.7270 H   0  0  0  0  0  0  0  0  0  0  0  0
  -11.2770   -5.2370  -25.9890 H   0  0  0  0  0  0  0  0  0  0  0  0
  -10.0570   -3.8670  -24.4120 H   0  0  0  0  0  0  0  0  0  0  0  0
   -7.3310   -3.8130  -24.3770 H   0  0  0  0  0  0  0  0  0  0  0  0
   -7.7190   -4.9680  -23.0880 H   0  0  0  0  0  0  0  0  0  0  0  0
   -9.3340   -3.2600  -22.1180 H   0  0  0  0  0  0  0  0  0  0  0  0
   -7.4120   -3.4600  -20.7860 H   0  0  0  0  0  0  0  0  0  0  0  0
   -6.3110   -3.0060  -22.0820 H   0  0  0  0  0  0  0  0  0  0  0  0
  -10.1500   -1.2850  -23.6030 C   0  0  0  0  0  0  0  0  0  0  0  0
  -11.0940   -1.0850  -22.5890 C   0  0  0  0  0  0  0  0  0  0  0  0
  -12.4330   -0.9180  -22.9040 C   0  0  0  0  0  0  0  0  0  0  0  0
  -13.6030   -0.7370  -21.6400 Cl  0  0  0  0  0  0  0  0  0  0  0  0
  -12.8870   -0.9210  -24.2210 C   0  0  0  0  0  0  0  0  0  0  0  0
  -11.9580   -1.1280  -25.2220 C   0  0  0  0  0  0  0  0  0  0  0  0
  -10.6080   -1.2920  -24.9240 C   0  0  0  0  0  0  0  0  0  0  0  0
   -9.6760   -1.4840  -26.0700 C   0  0  0  0  0  0  0  0  0  0  0  0
  -10.0850   -1.5820  -27.2260 O   0  0  0  0  0  0  0  0  0  0  0  0
  -12.2570   -1.1710  -26.2620 H   0  0  0  0  0  0  0  0  0  0  0  0
  -13.9370   -0.7580  -24.4470 H   0  0  0  0  0  0  0  0  0  0  0  0
  -10.7700   -1.0360  -21.5560 H   0  0  0  0  0  0  0  0  0  0  0  0
   -6.8160   -1.5800  -24.3690 H   0  0  0  0  0  0  0  0  0  0  0  0
   -7.6980   -0.0430  -24.4600 H   0  0  0  0  0  0  0  0  0  0  0  0
   -6.4650   -1.2980  -26.5810 H   0  0  0  0  0  0  0  0  0  0  0  0
   -7.7960   -0.9800  -27.7030 H   0  0  0  0  0  0  0  0  0  0  0  0
   -8.8520   -2.7190  -28.7030 H   0  0  0  0  0  0  0  0  0  0  0  0
   -9.1160   -4.8770  -29.5030 H   0  0  0  0  0  0  0  0  0  0  0  0
   -8.3180   -5.3770  -27.9940 H   0  0  0  0  0  0  0  0  0  0  0  0
   -7.3530   -5.0870  -29.4490 H   0  0  0  0  0  0  0  0  0  0  0  0
  1  2  1  0  0  0  0
  1 64  1  0  0  0  0
  1 65  1  0  0  0  0
  1 66  1  0  0  0  0
  2  3  1  0  0  0  0
  2 63  1  0  0  0  0
  3  4  2  0  0  0  0
  3  5  1  0  0  0  0
  5  6  1  0  0  0  0
  5 61  1  0  0  0  0
  5 62  1  0  0  0  0
  6  7  1  0  0  0  0
  6 54  1  0  0  0  0
  7  8  1  0  0  0  0
  7 59  1  0  0  0  0
  7 60  1  0  0  0  0
  8  9  1  1  0  0  0
  8 29  1  0  0  0  0
  8 47  1  0  0  0  0
  9 10  2  0  0  0  0
  9 11  1  0  0  0  0
 11 12  1  0  0  0  0
 11 28  1  0  0  0  0
 12 13  2  0  0  0  0
 12 21  1  0  0  0  0
 13 14  1  0  0  0  0
 13 27  1  0  0  0  0
 14 15  2  0  0  0  0
 15 16  1  0  0  0  0
 15 26  1  0  0  0  0
 16 17  2  0  0  0  0
 16 21  1  0  0  0  0
 17 18  1  0  0  0  0
 17 25  1  0  0  0  0
 18 19  2  0  0  0  0
 18 24  1  0  0  0  0
 19 20  1  0  0  0  0
 19 23  1  0  0  0  0
 20 21  2  0  0  0  0
 20 22  1  0  0  0  0
 28 29  1  0  0  0  0
 28 45  1  0  0  0  0
 28 46  1  0  0  0  0
 29 30  1  0  0  0  0
 29 44  1  1  0  0  0
 30 31  1  0  0  0  0
 30 42  1  0  0  0  0
 30 43  1  0  0  0  0
 31 32  1  0  0  0  0
 31 41  1  0  0  0  0
 32 33  2  0  0  0  0
 32 37  1  0  0  0  0
 33 34  1  0  0  0  0
 33 40  1  0  0  0  0
 34 35  2  0  0  0  0
 35 36  1  0  0  0  0
 35 39  1  0  0  0  0
 36 37  2  0  0  0  0
 36 38  1  0  0  0  0
 47 48  2  0  0  0  0
 47 53  1  0  0  0  0
 48 49  1  0  0  0  0
 48 58  1  0  0  0  0
 49 50  1  0  0  0  0
 49 51  2  0  0  0  0
 51 52  1  0  0  0  0
 51 57  1  0  0  0  0
 52 53  2  0  0  0  0
 52 56  1  0  0  0  0
 53 54  1  0  0  0  0
 54 55  2  0  0  0  0
M  END
>  <MODEL>
       1

$$$$
