output/tmp_first_model_3_71.pdb
 OpenBabel07242614263D

 50 54  0  0  1  0  0  0  0  0999 V2000
   -8.4340   -4.1910  -23.6080 C   0  0  0  0  0  0  0  0  0  0  0  0
   -8.5770   -3.2010  -22.4620 C   0  0  1  0  0  0  0  0  0  0  0  0
   -7.2370   -2.6180  -22.0060 C   0  0  0  0  0  0  0  0  0  0  0  0
   -7.6580   -1.4930  -21.2020 N   0  0  0  0  0  0  0  0  0  0  0  0
   -6.8930   -0.9060  -20.1740 C   0  0  0  0  0  0  0  0  0  0  0  0
   -7.2540   -1.0720  -18.8600 C   0  0  0  0  0  0  0  0  0  0  0  0
   -6.5510   -0.5760  -17.8120 N   0  0  0  0  0  0  0  0  0  0  0  0
   -5.4660    0.1110  -18.0780 C   0  0  0  0  0  0  0  0  0  0  0  0
   -4.9870    0.3550  -19.3950 C   0  0  0  0  0  0  0  0  0  0  0  0
   -3.8320    1.1400  -19.6320 C   0  0  0  0  0  0  0  0  0  0  0  0
   -3.4220    1.4110  -20.9070 C   0  0  0  0  0  0  0  0  0  0  0  0
   -4.1450    0.8980  -22.0060 C   0  0  0  0  0  0  0  0  0  0  0  0
   -5.2600    0.1230  -21.8060 C   0  0  0  0  0  0  0  0  0  0  0  0
   -5.7120   -0.1630  -20.4880 C   0  0  0  0  0  0  0  0  0  0  0  0
   -5.8180   -0.2550  -22.6590 H   0  0  0  0  0  0  0  0  0  0  0  0
   -3.8290    1.1390  -23.0150 H   0  0  0  0  0  0  0  0  0  0  0  0
   -2.5510    2.0380  -21.0820 H   0  0  0  0  0  0  0  0  0  0  0  0
   -3.3020    1.5320  -18.7710 H   0  0  0  0  0  0  0  0  0  0  0  0
   -4.8960    0.5190  -17.2400 H   0  0  0  0  0  0  0  0  0  0  0  0
   -8.1490   -1.6350  -18.5970 H   0  0  0  0  0  0  0  0  0  0  0  0
   -8.9090   -1.0290  -21.5490 C   0  0  0  0  0  0  0  0  0  0  0  0
   -9.4520   -0.0660  -21.0540 O   0  0  0  0  0  0  0  0  0  0  0  0
   -9.4900   -1.9720  -22.6440 C   0  0  1  0  0  0  0  0  0  0  0  0
   -9.3880   -1.3140  -24.0460 C   0  0  0  0  0  0  0  0  0  0  0  0
  -10.2150   -0.1190  -24.1300 N   0  0  0  0  0  0  0  0  0  0  0  0
   -9.8120    0.9070  -25.0580 C   0  0  0  0  0  0  0  0  0  0  0  0
  -10.0370    0.5300  -26.4710 C   0  0  0  0  0  0  0  0  0  0  0  0
  -10.2090    0.1860  -27.5610 N   0  0  0  0  0  0  0  0  0  0  0  0
   -8.7430    1.1110  -24.9320 H   0  0  0  0  0  0  0  0  0  0  0  0
  -10.3790    1.8100  -24.8200 H   0  0  0  0  0  0  0  0  0  0  0  0
  -11.3760    0.0640  -23.4180 C   0  0  0  0  0  0  0  0  0  0  0  0
  -12.0280    1.0960  -23.4760 O   0  0  0  0  0  0  0  0  0  0  0  0
  -11.8120   -1.0960  -22.5830 C   0  0  0  0  0  0  0  0  0  0  0  0
  -13.0920   -1.0500  -22.0420 C   0  0  0  0  0  0  0  0  0  0  0  0
  -13.5410   -2.0720  -21.2450 C   0  0  0  0  0  0  0  0  0  0  0  0
  -12.7340   -3.2010  -21.1000 C   0  0  0  0  0  0  0  0  0  0  0  0
  -13.1890   -4.2220  -20.3500 F   0  0  0  0  0  0  0  0  0  0  0  0
  -11.4800   -3.2960  -21.6700 C   0  0  0  0  0  0  0  0  0  0  0  0
  -10.9560   -2.1780  -22.3340 C   0  0  0  0  0  0  0  0  0  0  0  0
  -10.9530   -4.2400  -21.5850 H   0  0  0  0  0  0  0  0  0  0  0  0
  -14.5020   -2.0360  -20.7440 H   0  0  0  0  0  0  0  0  0  0  0  0
  -13.7390   -0.1950  -22.2310 H   0  0  0  0  0  0  0  0  0  0  0  0
   -8.3490   -1.0190  -24.2450 H   0  0  0  0  0  0  0  0  0  0  0  0
   -9.6850   -2.0350  -24.8230 H   0  0  0  0  0  0  0  0  0  0  0  0
   -6.6470   -3.3310  -21.4250 H   0  0  0  0  0  0  0  0  0  0  0  0
   -6.6400   -2.3170  -22.8830 H   0  0  0  0  0  0  0  0  0  0  0  0
   -8.9960   -3.7110  -21.5910 H   0  0  0  0  0  0  0  0  0  0  0  0
   -7.6570   -4.9260  -23.3640 H   0  0  0  0  0  0  0  0  0  0  0  0
   -9.3720   -4.7280  -23.7990 H   0  0  0  0  0  0  0  0  0  0  0  0
   -8.1330   -3.6810  -24.5310 H   0  0  0  0  0  0  0  0  0  0  0  0
  1  2  1  0  0  0  0
  1 48  1  0  0  0  0
  1 49  1  0  0  0  0
  1 50  1  0  0  0  0
  2  3  1  0  0  0  0
  2 23  1  0  0  0  0
  2 47  1  1  0  0  0
  3  4  1  0  0  0  0
  3 45  1  0  0  0  0
  3 46  1  0  0  0  0
  4  5  1  0  0  0  0
  4 21  1  0  0  0  0
  5  6  2  0  0  0  0
  5 14  1  0  0  0  0
  6  7  1  0  0  0  0
  6 20  1  0  0  0  0
  7  8  2  0  0  0  0
  8  9  1  0  0  0  0
  8 19  1  0  0  0  0
  9 10  2  0  0  0  0
  9 14  1  0  0  0  0
 10 11  1  0  0  0  0
 10 18  1  0  0  0  0
 11 12  2  0  0  0  0
 11 17  1  0  0  0  0
 12 13  1  0  0  0  0
 12 16  1  0  0  0  0
 13 14  2  0  0  0  0
 13 15  1  0  0  0  0
 21 22  2  0  0  0  0
 23 21  1  1  0  0  0
 23 24  1  0  0  0  0
 23 39  1  0  0  0  0
 24 25  1  0  0  0  0
 24 43  1  0  0  0  0
 24 44  1  0  0  0  0
 25 26  1  0  0  0  0
 25 31  1  0  0  0  0
 26 27  1  0  0  0  0
 26 29  1  0  0  0  0
 26 30  1  0  0  0  0
 27 28  3  0  0  0  0
 31 32  2  0  0  0  0
 31 33  1  0  0  0  0
 33 34  2  0  0  0  0
 33 39  1  0  0  0  0
 34 35  1  0  0  0  0
 34 42  1  0  0  0  0
 35 36  2  0  0  0  0
 35 41  1  0  0  0  0
 36 37  1  0  0  0  0
 36 38  1  0  0  0  0
 38 39  2  0  0  0  0
 38 40  1  0  0  0  0
M  END
>  <MODEL>
       1

$$$$
