output/tmp_first_model_7_18.pdb
 OpenBabel07242616393D

 56 61  0  0  1  0  0  0  0  0999 V2000
  -10.2260   -2.9580  -22.0570 C   0  0  0  0  0  0  0  0  0  0  0  0
   -9.1650   -2.0080  -22.6360 C   0  0  1  0  0  0  0  0  0  0  0  0
   -8.7000   -1.0020  -21.5610 C   0  0  0  0  0  0  0  0  0  0  0  0
   -7.3730   -1.4410  -21.1970 N   0  0  0  0  0  0  0  0  0  0  0  0
   -6.5870   -0.8350  -20.1860 C   0  0  0  0  0  0  0  0  0  0  0  0
   -6.9110   -1.0400  -18.8710 C   0  0  0  0  0  0  0  0  0  0  0  0
   -6.2180   -0.5360  -17.8240 N   0  0  0  0  0  0  0  0  0  0  0  0
   -5.1750    0.2090  -18.0950 C   0  0  0  0  0  0  0  0  0  0  0  0
   -4.7360    0.5140  -19.4140 C   0  0  0  0  0  0  0  0  0  0  0  0
   -3.6070    1.3430  -19.6420 C   0  0  0  0  0  0  0  0  0  0  0  0
   -3.2270    1.6610  -20.9150 C   0  0  0  0  0  0  0  0  0  0  0  0
   -3.9590    1.1630  -22.0170 C   0  0  0  0  0  0  0  0  0  0  0  0
   -5.0480    0.3490  -21.8270 C   0  0  0  0  0  0  0  0  0  0  0  0
   -5.4620   -0.0080  -20.5080 C   0  0  0  0  0  0  0  0  0  0  0  0
   -5.5960   -0.0320  -22.6900 H   0  0  0  0  0  0  0  0  0  0  0  0
   -3.6560    1.4350  -23.0240 H   0  0  0  0  0  0  0  0  0  0  0  0
   -2.3750    2.3140  -21.0850 H   0  0  0  0  0  0  0  0  0  0  0  0
   -3.0790    1.7410  -18.7800 H   0  0  0  0  0  0  0  0  0  0  0  0
   -4.6210    0.6160  -17.2490 H   0  0  0  0  0  0  0  0  0  0  0  0
   -7.7680   -1.6650  -18.6220 H   0  0  0  0  0  0  0  0  0  0  0  0
   -6.8380   -2.3810  -22.0390 C   0  0  0  0  0  0  0  0  0  0  0  0
   -5.7250   -2.8440  -21.9150 O   0  0  0  0  0  0  0  0  0  0  0  0
   -7.8580   -2.6940  -23.1550 C   0  0  1  0  0  0  0  0  0  0  0  0
   -8.0230   -4.2210  -23.3520 C   0  0  0  0  0  0  0  0  0  0  0  0
   -6.8440   -4.8450  -23.9370 N   0  0  0  0  0  0  0  0  0  0  0  0
   -6.4060   -6.1510  -23.4630 C   0  0  0  0  0  0  0  0  0  0  0  0
   -5.3170   -6.0400  -22.4900 C   0  0  0  0  0  0  0  0  0  0  0  0
   -3.8200   -6.1800  -22.8640 C   0  0  0  0  0  0  0  0  0  0  0  0
   -3.9820   -6.0520  -23.0580 C   0  0  0  0  0  0  0  0  0  0  0  0
   -4.7440   -5.7770  -20.4010 N   0  0  0  0  0  0  0  0  0  0  0  0
   -5.7240   -5.8800  -21.1910 N   0  0  0  0  0  0  0  0  0  0  0  0
   -5.1660   -5.6200  -19.4750 H   0  0  0  0  0  0  0  0  0  0  0  0
   -1.6740   -5.4680  -23.6950 H   0  0  0  0  0  0  0  0  0  0  0  0
   -3.0120   -5.5950  -23.5130 H   0  0  0  0  0  0  0  0  0  0  0  0
   -7.2480   -6.6100  -22.9450 H   0  0  0  0  0  0  0  0  0  0  0  0
   -6.1630   -6.7850  -24.3190 H   0  0  0  0  0  0  0  0  0  0  0  0
   -6.2060   -4.3060  -25.0160 C   0  0  0  0  0  0  0  0  0  0  0  0
   -5.4080   -4.9420  -25.6870 O   0  0  0  0  0  0  0  0  0  0  0  0
   -6.5700   -2.8810  -25.3400 C   0  0  0  0  0  0  0  0  0  0  0  0
   -6.0680   -2.3420  -26.5240 C   0  0  0  0  0  0  0  0  0  0  0  0
   -6.2960   -1.0190  -26.8460 C   0  0  0  0  0  0  0  0  0  0  0  0
   -7.0210   -0.2430  -25.9500 C   0  0  0  0  0  0  0  0  0  0  0  0
   -7.2320    1.0520  -26.2460 F   0  0  0  0  0  0  0  0  0  0  0  0
   -7.5340   -0.7530  -24.7720 C   0  0  0  0  0  0  0  0  0  0  0  0
   -7.3390   -2.1060  -24.4640 C   0  0  0  0  0  0  0  0  0  0  0  0
   -8.0900   -0.0830  -24.1230 H   0  0  0  0  0  0  0  0  0  0  0  0
   -5.9200   -0.5740  -27.7600 H   0  0  0  0  0  0  0  0  0  0  0  0
   -5.4910   -2.9910  -27.1740 H   0  0  0  0  0  0  0  0  0  0  0  0
   -8.8950   -4.3930  -24.0020 H   0  0  0  0  0  0  0  0  0  0  0  0
   -8.2170   -4.6890  -22.3840 H   0  0  0  0  0  0  0  0  0  0  0  0
   -9.3560   -1.0290  -20.6960 H   0  0  0  0  0  0  0  0  0  0  0  0
   -8.6900    0.0340  -21.9240 H   0  0  0  0  0  0  0  0  0  0  0  0
   -9.6450   -1.4820  -23.4690 H   0  0  0  0  0  0  0  0  0  0  0  0
  -11.0840   -2.3870  -21.6880 H   0  0  0  0  0  0  0  0  0  0  0  0
   -9.8320   -3.5430  -21.2180 H   0  0  0  0  0  0  0  0  0  0  0  0
  -10.6030   -3.6520  -22.8130 H   0  0  0  0  0  0  0  0  0  0  0  0
  1  2  1  0  0  0  0
  1 54  1  0  0  0  0
  1 55  1  0  0  0  0
  1 56  1  0  0  0  0
  2  3  1  0  0  0  0
  2 23  1  0  0  0  0
  2 53  1  6  0  0  0
  3  4  1  0  0  0  0
  3 51  1  0  0  0  0
  3 52  1  0  0  0  0
  4  5  1  0  0  0  0
  4 21  1  0  0  0  0
  5  6  2  0  0  0  0
  5 14  1  0  0  0  0
  6  7  1  0  0  0  0
  6 20  1  0  0  0  0
  7  8  2  0  0  0  0
  8  9  1  0  0  0  0
  8 19  1  0  0  0  0
  9 10  2  0  0  0  0
  9 14  1  0  0  0  0
 10 11  1  0  0  0  0
 10 18  1  0  0  0  0
 11 12  2  0  0  0  0
 11 17  1  0  0  0  0
 12 13  1  0  0  0  0
 12 16  1  0  0  0  0
 13 14  2  0  0  0  0
 13 15  1  0  0  0  0
 21 22  2  0  0  0  0
 23 21  1  1  0  0  0
 23 24  1  0  0  0  0
 23 45  1  0  0  0  0
 24 25  1  0  0  0  0
 24 49  1  0  0  0  0
 24 50  1  0  0  0  0
 25 26  1  0  0  0  0
 25 37  1  0  0  0  0
 26 27  1  0  0  0  0
 26 35  1  0  0  0  0
 26 36  1  0  0  0  0
 27 28  1  0  0  0  0
 27 31  2  0  0  0  0
 28 29  2  0  0  0  0
 28 34  1  0  0  0  0
 29 30  1  0  0  0  0
 29 33  1  0  0  0  0
 30 31  1  0  0  0  0
 30 32  1  0  0  0  0
 37 38  2  0  0  0  0
 37 39  1  0  0  0  0
 39 40  2  0  0  0  0
 39 45  1  0  0  0  0
 40 41  1  0  0  0  0
 40 48  1  0  0  0  0
 41 42  2  0  0  0  0
 41 47  1  0  0  0  0
 42 43  1  0  0  0  0
 42 44  1  0  0  0  0
 44 45  2  0  0  0  0
 44 46  1  0  0  0  0
M  END
>  <MODEL>
       1

$$$$
