output/tmp_first_model_20_48.pdb
 OpenBabel07242623363D

 46 48  0  0  0  0  0  0  0  0999 V2000
   -8.3390   -6.6130  -26.1060 C   0  0  0  0  0  0  0  0  0  0  0  0
   -9.4420   -6.4640  -25.0640 C   0  0  0  0  0  0  0  0  0  0  0  0
  -10.7920   -6.3470  -25.7670 C   0  0  0  0  0  0  0  0  0  0  0  0
  -10.9610   -7.2480  -26.3670 H   0  0  0  0  0  0  0  0  0  0  0  0
  -10.8150   -5.4770  -26.4360 H   0  0  0  0  0  0  0  0  0  0  0  0
  -11.6220   -6.2550  -25.0560 H   0  0  0  0  0  0  0  0  0  0  0  0
   -9.2330   -5.3760  -23.9930 C   0  0  0  0  0  0  0  0  0  0  0  0
   -8.1150   -5.7840  -22.9910 C   0  0  0  0  0  0  0  0  0  0  0  0
   -6.9440   -4.8180  -22.9860 C   0  0  0  0  0  0  0  0  0  0  0  0
   -7.4480   -3.4940  -22.6580 N   0  0  0  0  0  0  0  0  0  0  0  0
   -6.6980   -2.7370  -21.8070 C   0  0  0  0  0  0  0  0  0  0  0  0
   -5.5570   -3.0450  -21.4910 O   0  0  0  0  0  0  0  0  0  0  0  0
   -7.3760   -1.4840  -21.2710 C   0  0  0  0  0  0  0  0  0  0  0  0
   -6.5780   -0.8460  -20.1840 C   0  0  0  0  0  0  0  0  0  0  0  0
   -6.8950   -1.0600  -18.8720 C   0  0  0  0  0  0  0  0  0  0  0  0
   -6.2170   -0.5560  -17.8110 N   0  0  0  0  0  0  0  0  0  0  0  0
   -5.1720    0.1900  -18.0790 C   0  0  0  0  0  0  0  0  0  0  0  0
   -4.7220    0.4860  -19.3920 C   0  0  0  0  0  0  0  0  0  0  0  0
   -3.5990    1.3170  -19.6310 C   0  0  0  0  0  0  0  0  0  0  0  0
   -3.2060    1.6040  -20.9090 C   0  0  0  0  0  0  0  0  0  0  0  0
   -3.9110    1.0670  -22.0050 C   0  0  0  0  0  0  0  0  0  0  0  0
   -4.9990    0.2550  -21.8050 C   0  0  0  0  0  0  0  0  0  0  0  0
   -5.4370   -0.0490  -20.4860 C   0  0  0  0  0  0  0  0  0  0  0  0
   -5.5300   -0.1500  -22.6600 H   0  0  0  0  0  0  0  0  0  0  0  0
   -3.5970    1.3150  -23.0170 H   0  0  0  0  0  0  0  0  0  0  0  0
   -2.3560    2.2560  -21.0910 H   0  0  0  0  0  0  0  0  0  0  0  0
   -3.0720    1.7320  -18.7770 H   0  0  0  0  0  0  0  0  0  0  0  0
   -4.6240    0.6110  -17.2340 H   0  0  0  0  0  0  0  0  0  0  0  0
   -7.7570   -1.6800  -18.6180 H   0  0  0  0  0  0  0  0  0  0  0  0
   -7.5310   -0.7830  -22.1020 H   0  0  0  0  0  0  0  0  0  0  0  0
   -8.3610   -1.7830  -20.8890 H   0  0  0  0  0  0  0  0  0  0  0  0
   -8.7310   -3.0860  -23.2410 C   0  0  0  0  0  0  0  0  0  0  0  0
   -9.0340   -3.9330  -24.4720 C   0  0  0  0  0  0  0  0  0  0  0  0
   -9.9370   -3.5650  -24.9660 H   0  0  0  0  0  0  0  0  0  0  0  0
   -8.2280   -3.8310  -25.2000 H   0  0  0  0  0  0  0  0  0  0  0  0
   -8.7150   -2.0180  -23.4710 H   0  0  0  0  0  0  0  0  0  0  0  0
   -9.5600   -3.2220  -22.5280 H   0  0  0  0  0  0  0  0  0  0  0  0
   -6.2030   -5.0940  -22.2350 H   0  0  0  0  0  0  0  0  0  0  0  0
   -6.4170   -4.7990  -23.9480 H   0  0  0  0  0  0  0  0  0  0  0  0
   -7.7590   -6.8080  -23.1590 H   0  0  0  0  0  0  0  0  0  0  0  0
   -8.5140   -5.7820  -21.9690 H   0  0  0  0  0  0  0  0  0  0  0  0
  -10.1670   -5.3200  -23.4080 H   0  0  0  0  0  0  0  0  0  0  0  0
   -9.4390   -7.4080  -24.5060 H   0  0  0  0  0  0  0  0  0  0  0  0
   -7.3420   -6.7230  -25.6680 H   0  0  0  0  0  0  0  0  0  0  0  0
   -8.5460   -7.5010  -26.7150 H   0  0  0  0  0  0  0  0  0  0  0  0
   -8.3170   -5.7590  -26.7880 H   0  0  0  0  0  0  0  0  0  0  0  0
  1  2  1  0  0  0  0
  1 44  1  0  0  0  0
  1 45  1  0  0  0  0
  1 46  1  0  0  0  0
  2  3  1  0  0  0  0
  2  7  1  0  0  0  0
  2 43  1  0  0  0  0
  3  4  1  0  0  0  0
  3  5  1  0  0  0  0
  3  6  1  0  0  0  0
  7  8  1  0  0  0  0
  7 33  1  0  0  0  0
  7 42  1  0  0  0  0
  8  9  1  0  0  0  0
  8 40  1  0  0  0  0
  8 41  1  0  0  0  0
  9 10  1  0  0  0  0
  9 38  1  0  0  0  0
  9 39  1  0  0  0  0
 10 11  1  0  0  0  0
 10 32  1  0  0  0  0
 11 12  2  0  0  0  0
 11 13  1  0  0  0  0
 13 14  1  0  0  0  0
 13 30  1  0  0  0  0
 13 31  1  0  0  0  0
 14 15  2  0  0  0  0
 14 23  1  0  0  0  0
 15 16  1  0  0  0  0
 15 29  1  0  0  0  0
 16 17  2  0  0  0  0
 17 18  1  0  0  0  0
 17 28  1  0  0  0  0
 18 19  2  0  0  0  0
 18 23  1  0  0  0  0
 19 20  1  0  0  0  0
 19 27  1  0  0  0  0
 20 21  2  0  0  0  0
 20 26  1  0  0  0  0
 21 22  1  0  0  0  0
 21 25  1  0  0  0  0
 22 23  2  0  0  0  0
 22 24  1  0  0  0  0
 32 33  1  0  0  0  0
 32 36  1  0  0  0  0
 32 37  1  0  0  0  0
 33 34  1  0  0  0  0
 33 35  1  0  0  0  0
M  END
>  <MODEL>
       1

$$$$
