output/tmp_first_model_13_26.pdb
 OpenBabel07242619583D

 55 60  0  0  1  0  0  0  0  0999 V2000
  -10.4370   -1.0350  -23.3550 C   0  0  0  0  0  0  0  0  0  0  0  0
   -8.9950   -1.3940  -22.9970 C   0  0  1  0  0  0  0  0  0  0  0  0
   -8.3960   -0.4790  -21.9120 C   0  0  0  0  0  0  0  0  0  0  0  0
   -7.3990   -1.3170  -21.2730 N   0  0  0  0  0  0  0  0  0  0  0  0
   -6.5810   -0.8450  -20.2180 C   0  0  0  0  0  0  0  0  0  0  0  0
   -6.8850   -1.1170  -18.9080 C   0  0  0  0  0  0  0  0  0  0  0  0
   -6.2140   -0.5880  -17.8540 N   0  0  0  0  0  0  0  0  0  0  0  0
   -5.2040    0.2070  -18.1040 C   0  0  0  0  0  0  0  0  0  0  0  0
   -4.7510    0.5330  -19.4150 C   0  0  0  0  0  0  0  0  0  0  0  0
   -3.6260    1.3680  -19.6520 C   0  0  0  0  0  0  0  0  0  0  0  0
   -3.2200    1.6290  -20.9330 C   0  0  0  0  0  0  0  0  0  0  0  0
   -3.9120    1.0730  -22.0320 C   0  0  0  0  0  0  0  0  0  0  0  0
   -5.0050    0.2670  -21.8290 C   0  0  0  0  0  0  0  0  0  0  0  0
   -5.4540   -0.0120  -20.5110 C   0  0  0  0  0  0  0  0  0  0  0  0
   -5.5310   -0.1790  -22.6670 H   0  0  0  0  0  0  0  0  0  0  0  0
   -3.5770    1.2780  -23.0450 H   0  0  0  0  0  0  0  0  0  0  0  0
   -2.3560    2.2640  -21.1130 H   0  0  0  0  0  0  0  0  0  0  0  0
   -3.0990    1.7790  -18.7950 H   0  0  0  0  0  0  0  0  0  0  0  0
   -4.6820    0.6320  -17.2450 H   0  0  0  0  0  0  0  0  0  0  0  0
   -7.7130   -1.7800  -18.6580 H   0  0  0  0  0  0  0  0  0  0  0  0
   -7.5820   -2.6620  -21.5030 C   0  0  0  0  0  0  0  0  0  0  0  0
   -6.8740   -3.5290  -21.0240 O   0  0  0  0  0  0  0  0  0  0  0  0
   -8.7780   -2.8510  -22.4500 C   0  0  1  0  0  0  0  0  0  0  0  0
   -9.9880   -3.3020  -21.5910 C   0  0  0  0  0  0  0  0  0  0  0  0
  -11.1140   -3.7940  -22.3810 N   0  0  0  0  0  0  0  0  0  0  0  0
  -12.4870   -3.7640  -21.8730 C   0  0  0  0  0  0  0  0  0  0  0  0
  -13.3500   -2.6530  -22.4120 C   0  0  0  0  0  0  0  0  0  0  0  0
  -14.0210   -2.5510  -23.6430 C   0  0  0  0  0  0  0  0  0  0  0  0
  -14.7150   -1.4170  -23.6700 N   0  0  0  0  0  0  0  0  0  0  0  0
  -14.4300   -0.8750  -22.5030 N   0  0  0  0  0  0  0  0  0  0  0  0
  -13.6390   -1.5660  -21.7020 N   0  0  0  0  0  0  0  0  0  0  0  0
  -14.8950   -0.0460  -22.1530 H   0  0  0  0  0  0  0  0  0  0  0  0
  -14.0850   -3.2570  -24.4640 H   0  0  0  0  0  0  0  0  0  0  0  0
  -12.4900   -3.7170  -20.7840 H   0  0  0  0  0  0  0  0  0  0  0  0
  -12.9560   -4.6970  -22.1950 H   0  0  0  0  0  0  0  0  0  0  0  0
  -10.9360   -4.5330  -23.5180 C   0  0  0  0  0  0  0  0  0  0  0  0
  -11.8870   -5.0320  -24.1150 O   0  0  0  0  0  0  0  0  0  0  0  0
   -9.5320   -4.7090  -23.9820 C   0  0  0  0  0  0  0  0  0  0  0  0
   -9.2960   -5.7070  -24.9210 C   0  0  0  0  0  0  0  0  0  0  0  0
   -8.0300   -5.9110  -25.4310 C   0  0  0  0  0  0  0  0  0  0  0  0
   -7.0100   -5.0750  -24.9940 C   0  0  0  0  0  0  0  0  0  0  0  0
   -5.7790   -5.2450  -25.5050 F   0  0  0  0  0  0  0  0  0  0  0  0
   -7.2080   -4.0890  -24.0460 C   0  0  0  0  0  0  0  0  0  0  0  0
   -8.4920   -3.9030  -23.5060 C   0  0  0  0  0  0  0  0  0  0  0  0
   -6.3490   -3.5190  -23.7050 H   0  0  0  0  0  0  0  0  0  0  0  0
   -7.8200   -6.7050  -26.1400 H   0  0  0  0  0  0  0  0  0  0  0  0
  -10.1370   -6.3190  -25.2290 H   0  0  0  0  0  0  0  0  0  0  0  0
  -10.3060   -2.4510  -20.9780 H   0  0  0  0  0  0  0  0  0  0  0  0
   -9.6500   -4.0700  -20.8950 H   0  0  0  0  0  0  0  0  0  0  0  0
   -9.1580   -0.1580  -21.1830 H   0  0  0  0  0  0  0  0  0  0  0  0
   -7.9440    0.4340  -22.3170 H   0  0  0  0  0  0  0  0  0  0  0  0
   -8.3660   -1.3120  -23.8930 H   0  0  0  0  0  0  0  0  0  0  0  0
  -10.5030   -0.0690  -23.8590 H   0  0  0  0  0  0  0  0  0  0  0  0
  -10.8750   -1.7950  -24.0090 H   0  0  0  0  0  0  0  0  0  0  0  0
  -11.0670   -0.9720  -22.4620 H   0  0  0  0  0  0  0  0  0  0  0  0
  1  2  1  0  0  0  0
  1 53  1  0  0  0  0
  1 54  1  0  0  0  0
  1 55  1  0  0  0  0
  2  3  1  0  0  0  0
  2 23  1  0  0  0  0
  2 52  1  6  0  0  0
  3  4  1  0  0  0  0
  3 50  1  0  0  0  0
  3 51  1  0  0  0  0
  4  5  1  0  0  0  0
  4 21  1  0  0  0  0
  5  6  2  0  0  0  0
  5 14  1  0  0  0  0
  6  7  1  0  0  0  0
  6 20  1  0  0  0  0
  7  8  2  0  0  0  0
  8  9  1  0  0  0  0
  8 19  1  0  0  0  0
  9 10  2  0  0  0  0
  9 14  1  0  0  0  0
 10 11  1  0  0  0  0
 10 18  1  0  0  0  0
 11 12  2  0  0  0  0
 11 17  1  0  0  0  0
 12 13  1  0  0  0  0
 12 16  1  0  0  0  0
 13 14  2  0  0  0  0
 13 15  1  0  0  0  0
 21 22  2  0  0  0  0
 23 21  1  1  0  0  0
 23 24  1  0  0  0  0
 23 44  1  0  0  0  0
 24 25  1  0  0  0  0
 24 48  1  0  0  0  0
 24 49  1  0  0  0  0
 25 26  1  0  0  0  0
 25 36  1  0  0  0  0
 26 27  1  0  0  0  0
 26 34  1  0  0  0  0
 26 35  1  0  0  0  0
 27 28  1  0  0  0  0
 27 31  2  0  0  0  0
 28 29  2  0  0  0  0
 28 33  1  0  0  0  0
 29 30  1  0  0  0  0
 30 31  1  0  0  0  0
 30 32  1  0  0  0  0
 36 37  2  0  0  0  0
 36 38  1  0  0  0  0
 38 39  2  0  0  0  0
 38 44  1  0  0  0  0
 39 40  1  0  0  0  0
 39 47  1  0  0  0  0
 40 41  2  0  0  0  0
 40 46  1  0  0  0  0
 41 42  1  0  0  0  0
 41 43  1  0  0  0  0
 43 44  2  0  0  0  0
 43 45  1  0  0  0  0
M  END
>  <MODEL>
       1

$$$$
