output/tmp_first_model_11_70.pdb
 OpenBabel07242618513D

 52 54  0  0  0  0  0  0  0  0999 V2000
   -9.2750    3.3640  -28.0370 C   0  0  0  0  0  0  0  0  0  0  0  0
   -9.2780    1.9470  -27.6940 C   0  0  0  0  0  0  0  0  0  0  0  0
   -9.2400    1.7480  -27.9280 C   0  0  0  0  0  0  0  0  0  0  0  0
   -9.0900    1.3370  -29.4030 H   0  0  0  0  0  0  0  0  0  0  0  0
  -10.5780    1.9310  -27.9550 H   0  0  0  0  0  0  0  0  0  0  0  0
   -9.3920    0.2900  -28.3950 H   0  0  0  0  0  0  0  0  0  0  0  0
   -7.8490    1.6220  -27.2400 C   0  0  0  0  0  0  0  0  0  0  0  0
   -7.4950    0.9080  -25.8920 C   0  0  0  0  0  0  0  0  0  0  0  0
   -5.9810    0.6250  -26.0510 C   0  0  0  0  0  0  0  0  0  0  0  0
   -5.8110   -0.0750  -26.8790 H   0  0  0  0  0  0  0  0  0  0  0  0
   -5.4980    0.1990  -25.1630 H   0  0  0  0  0  0  0  0  0  0  0  0
   -5.4460    1.5510  -26.2950 H   0  0  0  0  0  0  0  0  0  0  0  0
   -8.2130   -0.4380  -25.5930 C   0  0  0  0  0  0  0  0  0  0  0  0
   -7.8860   -0.9630  -24.1840 C   0  0  0  0  0  0  0  0  0  0  0  0
   -8.2050    0.0290  -23.1600 N   0  0  0  0  0  0  0  0  0  0  0  0
   -8.3170   -0.2700  -21.8250 C   0  0  0  0  0  0  0  0  0  0  0  0
   -9.0410    0.3660  -21.0760 O   0  0  0  0  0  0  0  0  0  0  0  0
   -7.4510   -1.4030  -21.2610 C   0  0  0  0  0  0  0  0  0  0  0  0
   -6.5680   -0.8600  -20.1650 C   0  0  0  0  0  0  0  0  0  0  0  0
   -6.8860   -1.0570  -18.8470 C   0  0  0  0  0  0  0  0  0  0  0  0
   -6.2070   -0.5450  -17.7860 N   0  0  0  0  0  0  0  0  0  0  0  0
   -5.1690    0.2070  -18.0610 C   0  0  0  0  0  0  0  0  0  0  0  0
   -4.7240    0.5070  -19.3790 C   0  0  0  0  0  0  0  0  0  0  0  0
   -3.6060    1.3460  -19.6170 C   0  0  0  0  0  0  0  0  0  0  0  0
   -3.2160    1.6440  -20.8940 C   0  0  0  0  0  0  0  0  0  0  0  0
   -3.9300    1.1090  -21.9890 C   0  0  0  0  0  0  0  0  0  0  0  0
   -5.0140    0.2900  -21.7860 C   0  0  0  0  0  0  0  0  0  0  0  0
   -5.4420   -0.0350  -20.4670 C   0  0  0  0  0  0  0  0  0  0  0  0
   -5.5530   -0.1000  -22.6440 H   0  0  0  0  0  0  0  0  0  0  0  0
   -3.6200    1.3570  -23.0020 H   0  0  0  0  0  0  0  0  0  0  0  0
   -2.3680    2.2980  -21.0710 H   0  0  0  0  0  0  0  0  0  0  0  0
   -3.0820    1.7640  -18.7620 H   0  0  0  0  0  0  0  0  0  0  0  0
   -4.6210    0.6260  -17.2160 H   0  0  0  0  0  0  0  0  0  0  0  0
   -7.7500   -1.6690  -18.5850 H   0  0  0  0  0  0  0  0  0  0  0  0
   -6.8600   -1.8980  -22.0380 H   0  0  0  0  0  0  0  0  0  0  0  0
   -8.1320   -2.1500  -20.8350 H   0  0  0  0  0  0  0  0  0  0  0  0
   -8.6400    1.3530  -23.5900 C   0  0  0  0  0  0  0  0  0  0  0  0
   -7.7280    1.8780  -24.6990 C   0  0  0  0  0  0  0  0  0  0  0  0
   -6.7580    2.0880  -24.2280 H   0  0  0  0  0  0  0  0  0  0  0  0
   -8.1040    2.8450  -25.0530 H   0  0  0  0  0  0  0  0  0  0  0  0
   -8.5850    2.0070  -22.7200 H   0  0  0  0  0  0  0  0  0  0  0  0
   -9.6960    1.3320  -23.8890 H   0  0  0  0  0  0  0  0  0  0  0  0
   -6.8290   -1.2510  -24.1320 H   0  0  0  0  0  0  0  0  0  0  0  0
   -8.4660   -1.8740  -23.9940 H   0  0  0  0  0  0  0  0  0  0  0  0
   -7.9160   -1.2090  -26.3160 H   0  0  0  0  0  0  0  0  0  0  0  0
   -9.3040   -0.3410  -25.6620 H   0  0  0  0  0  0  0  0  0  0  0  0
   -7.1670    2.5230  -27.1820 H   0  0  0  0  0  0  0  0  0  0  0  0
   -7.4010    0.9750  -28.0370 H   0  0  0  0  0  0  0  0  0  0  0  0
   -9.6880    1.8020  -26.5290 H   0  0  0  0  0  0  0  0  0  0  0  0
  -10.2260    3.9030  -27.7690 H   0  0  0  0  0  0  0  0  0  0  0  0
   -8.6860    3.9320  -27.2640 H   0  0  0  0  0  0  0  0  0  0  0  0
   -8.9750    3.8530  -28.9990 H   0  0  0  0  0  0  0  0  0  0  0  0
  1  2  1  0  0  0  0
  1 50  1  0  0  0  0
  1 51  1  0  0  0  0
  1 52  1  0  0  0  0
  2  3  1  0  0  0  0
  2  7  1  0  0  0  0
  2 49  1  0  0  0  0
  3  4  1  0  0  0  0
  3  5  1  0  0  0  0
  3  6  1  0  0  0  0
  7  8  1  0  0  0  0
  7 47  1  0  0  0  0
  7 48  1  0  0  0  0
  8  9  1  0  0  0  0
  8 13  1  0  0  0  0
  8 38  1  0  0  0  0
  9 10  1  0  0  0  0
  9 11  1  0  0  0  0
  9 12  1  0  0  0  0
 13 14  1  0  0  0  0
 13 45  1  0  0  0  0
 13 46  1  0  0  0  0
 14 15  1  0  0  0  0
 14 43  1  0  0  0  0
 14 44  1  0  0  0  0
 15 16  1  0  0  0  0
 15 37  1  0  0  0  0
 16 17  2  0  0  0  0
 16 18  1  0  0  0  0
 18 19  1  0  0  0  0
 18 35  1  0  0  0  0
 18 36  1  0  0  0  0
 19 20  2  0  0  0  0
 19 28  1  0  0  0  0
 20 21  1  0  0  0  0
 20 34  1  0  0  0  0
 21 22  2  0  0  0  0
 22 23  1  0  0  0  0
 22 33  1  0  0  0  0
 23 24  2  0  0  0  0
 23 28  1  0  0  0  0
 24 25  1  0  0  0  0
 24 32  1  0  0  0  0
 25 26  2  0  0  0  0
 25 31  1  0  0  0  0
 26 27  1  0  0  0  0
 26 30  1  0  0  0  0
 27 28  2  0  0  0  0
 27 29  1  0  0  0  0
 37 38  1  0  0  0  0
 37 41  1  0  0  0  0
 37 42  1  0  0  0  0
 38 39  1  0  0  0  0
 38 40  1  0  0  0  0
M  END
>  <MODEL>
       1

$$$$
