output/tmp_first_model_11_92.pdb
 OpenBabel07242618513D

 60 65  0  0  1  0  0  0  0  0999 V2000
   -6.7820   -3.4350  -26.0910 C   0  0  0  0  0  0  0  0  0  0  0  0
   -7.0220   -2.8830  -24.8210 O   0  0  0  0  0  0  0  0  0  0  0  0
   -7.9940   -3.5930  -24.0820 C   0  0  0  0  0  0  0  0  0  0  0  0
   -8.3030   -2.8800  -22.7670 C   0  0  1  0  0  0  0  0  0  0  0  0
   -7.0300   -2.5440  -21.9750 C   0  0  0  0  0  0  0  0  0  0  0  0
   -7.3880   -1.3450  -21.2400 N   0  0  0  0  0  0  0  0  0  0  0  0
   -6.6040   -0.8040  -20.1940 C   0  0  0  0  0  0  0  0  0  0  0  0
   -6.9350   -1.0320  -18.8810 C   0  0  0  0  0  0  0  0  0  0  0  0
   -6.2380   -0.5460  -17.8250 N   0  0  0  0  0  0  0  0  0  0  0  0
   -5.1930    0.2030  -18.0870 C   0  0  0  0  0  0  0  0  0  0  0  0
   -4.7440    0.5240  -19.4020 C   0  0  0  0  0  0  0  0  0  0  0  0
   -3.6250    1.3630  -19.6390 C   0  0  0  0  0  0  0  0  0  0  0  0
   -3.2330    1.6530  -20.9160 C   0  0  0  0  0  0  0  0  0  0  0  0
   -3.9250    1.1040  -22.0180 C   0  0  0  0  0  0  0  0  0  0  0  0
   -4.9980    0.2680  -21.8120 C   0  0  0  0  0  0  0  0  0  0  0  0
   -5.4510   -0.0180  -20.4970 C   0  0  0  0  0  0  0  0  0  0  0  0
   -5.5150   -0.1670  -22.6620 H   0  0  0  0  0  0  0  0  0  0  0  0
   -3.5970    1.3500  -23.0240 H   0  0  0  0  0  0  0  0  0  0  0  0
   -2.3800    2.2980  -21.0920 H   0  0  0  0  0  0  0  0  0  0  0  0
   -3.1010    1.7760  -18.7810 H   0  0  0  0  0  0  0  0  0  0  0  0
   -4.6380    0.6020  -17.2380 H   0  0  0  0  0  0  0  0  0  0  0  0
   -7.8030   -1.6420  -18.6430 H   0  0  0  0  0  0  0  0  0  0  0  0
   -8.6090   -0.8060  -21.5790 C   0  0  0  0  0  0  0  0  0  0  0  0
   -9.1590    0.0950  -20.9790 O   0  0  0  0  0  0  0  0  0  0  0  0
   -9.1470   -1.5670  -22.8160 C   0  0  1  0  0  0  0  0  0  0  0  0
   -8.8820   -0.7880  -24.1300 C   0  0  0  0  0  0  0  0  0  0  0  0
   -9.7290    0.3840  -24.2560 N   0  0  0  0  0  0  0  0  0  0  0  0
   -9.1410    1.6190  -24.7590 C   0  0  0  0  0  0  0  0  0  0  0  0
   -8.3380    2.3820  -23.7300 C   0  0  0  0  0  0  0  0  0  0  0  0
   -8.8600    3.3030  -22.7870 C   0  0  0  0  0  0  0  0  0  0  0  0
   -7.9260    3.7750  -21.9640 N   0  0  0  0  0  0  0  0  0  0  0  0
   -6.8020    3.1820  -22.3810 N   0  0  0  0  0  0  0  0  0  0  0  0
   -6.9910    2.3460  -23.4260 C   0  0  0  0  0  0  0  0  0  0  0  0
   -6.1390    1.8010  -23.8120 H   0  0  0  0  0  0  0  0  0  0  0  0
   -5.9130    3.3460  -21.9250 H   0  0  0  0  0  0  0  0  0  0  0  0
   -9.8870    3.6490  -22.6720 H   0  0  0  0  0  0  0  0  0  0  0  0
   -8.5380    1.3670  -25.6370 H   0  0  0  0  0  0  0  0  0  0  0  0
   -9.9780    2.2310  -25.1120 H   0  0  0  0  0  0  0  0  0  0  0  0
  -11.0790    0.3180  -24.0640 C   0  0  0  0  0  0  0  0  0  0  0  0
  -11.8480    1.1870  -24.4510 O   0  0  0  0  0  0  0  0  0  0  0  0
  -11.5530   -0.8740  -23.2990 C   0  0  0  0  0  0  0  0  0  0  0  0
  -12.9290   -1.0180  -23.1400 C   0  0  0  0  0  0  0  0  0  0  0  0
  -13.4360   -1.9380  -22.2520 C   0  0  0  0  0  0  0  0  0  0  0  0
  -12.5340   -2.7310  -21.5500 C   0  0  0  0  0  0  0  0  0  0  0  0
  -13.1800   -3.8000  -20.3570 Cl  0  0  0  0  0  0  0  0  0  0  0  0
  -11.1700   -2.6660  -21.7640 C   0  0  0  0  0  0  0  0  0  0  0  0
  -10.6480   -1.7400  -22.6710 C   0  0  0  0  0  0  0  0  0  0  0  0
  -10.5190   -3.3250  -21.2020 H   0  0  0  0  0  0  0  0  0  0  0  0
  -14.4990   -2.0250  -22.0560 H   0  0  0  0  0  0  0  0  0  0  0  0
  -13.5740   -0.3500  -23.6960 H   0  0  0  0  0  0  0  0  0  0  0  0
   -9.0560   -1.4790  -24.9650 H   0  0  0  0  0  0  0  0  0  0  0  0
   -7.8410   -0.4640  -24.1780 H   0  0  0  0  0  0  0  0  0  0  0  0
   -6.1780   -2.3700  -22.6420 H   0  0  0  0  0  0  0  0  0  0  0  0
   -6.7640   -3.3510  -21.2840 H   0  0  0  0  0  0  0  0  0  0  0  0
   -8.8870   -3.5940  -22.1810 H   0  0  0  0  0  0  0  0  0  0  0  0
   -7.6200   -4.6040  -23.8590 H   0  0  0  0  0  0  0  0  0  0  0  0
   -8.9190   -3.7050  -24.6730 H   0  0  0  0  0  0  0  0  0  0  0  0
   -6.0170   -2.8240  -26.5790 H   0  0  0  0  0  0  0  0  0  0  0  0
   -6.4120   -4.4690  -26.0210 H   0  0  0  0  0  0  0  0  0  0  0  0
   -7.6890   -3.4260  -26.7150 H   0  0  0  0  0  0  0  0  0  0  0  0
  1  2  1  0  0  0  0
  1 58  1  0  0  0  0
  1 59  1  0  0  0  0
  1 60  1  0  0  0  0
  2  3  1  0  0  0  0
  3  4  1  0  0  0  0
  3 56  1  0  0  0  0
  3 57  1  0  0  0  0
  4  5  1  0  0  0  0
  4 25  1  0  0  0  0
  4 55  1  1  0  0  0
  5  6  1  0  0  0  0
  5 53  1  0  0  0  0
  5 54  1  0  0  0  0
  6  7  1  0  0  0  0
  6 23  1  0  0  0  0
  7  8  2  0  0  0  0
  7 16  1  0  0  0  0
  8  9  1  0  0  0  0
  8 22  1  0  0  0  0
  9 10  2  0  0  0  0
 10 11  1  0  0  0  0
 10 21  1  0  0  0  0
 11 12  2  0  0  0  0
 11 16  1  0  0  0  0
 12 13  1  0  0  0  0
 12 20  1  0  0  0  0
 13 14  2  0  0  0  0
 13 19  1  0  0  0  0
 14 15  1  0  0  0  0
 14 18  1  0  0  0  0
 15 16  2  0  0  0  0
 15 17  1  0  0  0  0
 23 24  2  0  0  0  0
 25 23  1  1  0  0  0
 25 26  1  0  0  0  0
 25 47  1  0  0  0  0
 26 27  1  0  0  0  0
 26 51  1  0  0  0  0
 26 52  1  0  0  0  0
 27 28  1  0  0  0  0
 27 39  1  0  0  0  0
 28 29  1  0  0  0  0
 28 37  1  0  0  0  0
 28 38  1  0  0  0  0
 29 30  1  0  0  0  0
 29 33  2  0  0  0  0
 30 31  2  0  0  0  0
 30 36  1  0  0  0  0
 31 32  1  0  0  0  0
 32 33  1  0  0  0  0
 32 35  1  0  0  0  0
 33 34  1  0  0  0  0
 39 40  2  0  0  0  0
 39 41  1  0  0  0  0
 41 42  2  0  0  0  0
 41 47  1  0  0  0  0
 42 43  1  0  0  0  0
 42 50  1  0  0  0  0
 43 44  2  0  0  0  0
 43 49  1  0  0  0  0
 44 45  1  0  0  0  0
 44 46  1  0  0  0  0
 46 47  2  0  0  0  0
 46 48  1  0  0  0  0
M  END
>  <MODEL>
       1

$$$$
