output/tmp_first_model_17_8.pdb
 OpenBabel07242622053D

 60 64  0  0  1  0  0  0  0  0999 V2000
   -7.4070    3.3720  -21.7540 C   0  0  0  0  0  0  0  0  0  0  0  0
   -8.2880    2.9260  -22.8170 N   0  0  0  0  0  0  0  0  0  0  0  0
   -7.7330    2.2330  -23.8400 C   0  0  0  0  0  0  0  0  0  0  0  0
   -6.5200    2.1260  -23.9710 O   0  0  0  0  0  0  0  0  0  0  0  0
   -8.6880    1.6140  -24.8600 C   0  0  0  0  0  0  0  0  0  0  0  0
   -9.4070    0.4580  -24.3680 N   0  0  0  0  0  0  0  0  0  0  0  0
   -8.6760   -0.7860  -24.2200 C   0  0  0  0  0  0  0  0  0  0  0  0
   -9.0510   -1.5090  -22.9070 C   0  0  2  0  0  0  0  0  0  0  0  0
   -8.5100   -0.7210  -21.6850 C   0  0  0  0  0  0  0  0  0  0  0  0
   -8.9600    0.3030  -21.2070 O   0  0  0  0  0  0  0  0  0  0  0  0
   -7.4020   -1.3770  -21.2010 N   0  0  0  0  0  0  0  0  0  0  0  0
   -6.6030   -0.8080  -20.1730 C   0  0  0  0  0  0  0  0  0  0  0  0
   -6.9090   -1.0430  -18.8570 C   0  0  0  0  0  0  0  0  0  0  0  0
   -6.2030   -0.5480  -17.8130 N   0  0  0  0  0  0  0  0  0  0  0  0
   -5.1670    0.2070  -18.0790 C   0  0  0  0  0  0  0  0  0  0  0  0
   -4.7330    0.5320  -19.3950 C   0  0  0  0  0  0  0  0  0  0  0  0
   -3.6090    1.3700  -19.6390 C   0  0  0  0  0  0  0  0  0  0  0  0
   -3.2290    1.6650  -20.9190 C   0  0  0  0  0  0  0  0  0  0  0  0
   -3.9520    1.1380  -22.0140 C   0  0  0  0  0  0  0  0  0  0  0  0
   -5.0410    0.3260  -21.8030 C   0  0  0  0  0  0  0  0  0  0  0  0
   -5.4670    0.0050  -20.4850 C   0  0  0  0  0  0  0  0  0  0  0  0
   -5.5970   -0.0620  -22.6520 H   0  0  0  0  0  0  0  0  0  0  0  0
   -3.6510    1.3790  -23.0270 H   0  0  0  0  0  0  0  0  0  0  0  0
   -2.3690    2.3050  -21.1020 H   0  0  0  0  0  0  0  0  0  0  0  0
   -3.0710    1.7710  -18.7840 H   0  0  0  0  0  0  0  0  0  0  0  0
   -4.6160    0.6090  -17.2280 H   0  0  0  0  0  0  0  0  0  0  0  0
   -7.7630   -1.6650  -18.6010 H   0  0  0  0  0  0  0  0  0  0  0  0
   -7.0630   -2.5920  -21.9170 C   0  0  0  0  0  0  0  0  0  0  0  0
   -8.3190   -2.8780  -22.7660 C   0  0  2  0  0  0  0  0  0  0  0  0
   -7.9910   -3.6240  -24.0660 C   0  0  0  0  0  0  0  0  0  0  0  0
   -7.4350   -4.8950  -23.8100 O   0  0  0  0  0  0  0  0  0  0  0  0
   -8.3710   -5.9390  -23.8700 C   0  0  0  0  0  0  0  0  0  0  0  0
   -9.2350   -5.7520  -23.2180 H   0  0  0  0  0  0  0  0  0  0  0  0
   -7.8590   -6.8450  -23.5390 H   0  0  0  0  0  0  0  0  0  0  0  0
   -8.7440   -6.0940  -24.8940 H   0  0  0  0  0  0  0  0  0  0  0  0
   -7.2400   -3.0550  -24.6320 H   0  0  0  0  0  0  0  0  0  0  0  0
   -8.8860   -3.7310  -24.6990 H   0  0  0  0  0  0  0  0  0  0  0  0
   -8.9740   -3.5340  -22.1850 H   0  0  0  0  0  0  0  0  0  0  0  0
   -6.8320   -3.4030  -21.2180 H   0  0  0  0  0  0  0  0  0  0  0  0
   -6.1790   -2.4370  -22.5530 H   0  0  0  0  0  0  0  0  0  0  0  0
  -10.5630   -1.5700  -22.8350 C   0  0  0  0  0  0  0  0  0  0  0  0
  -11.1680   -2.4510  -21.9400 C   0  0  0  0  0  0  0  0  0  0  0  0
  -12.5380   -2.4660  -21.7850 C   0  0  0  0  0  0  0  0  0  0  0  0
  -13.1800   -3.4680  -20.5150 Cl  0  0  0  0  0  0  0  0  0  0  0  0
  -13.3640   -1.6350  -22.5450 C   0  0  0  0  0  0  0  0  0  0  0  0
  -12.7700   -0.7160  -23.3910 C   0  0  0  0  0  0  0  0  0  0  0  0
  -11.3800   -0.6500  -23.5040 C   0  0  0  0  0  0  0  0  0  0  0  0
  -10.7750    0.4910  -24.2620 C   0  0  0  0  0  0  0  0  0  0  0  0
  -11.4570    1.4020  -24.7120 O   0  0  0  0  0  0  0  0  0  0  0  0
  -13.3540    0.0070  -23.9510 H   0  0  0  0  0  0  0  0  0  0  0  0
  -14.4430   -1.6910  -22.4460 H   0  0  0  0  0  0  0  0  0  0  0  0
  -10.5760   -3.1030  -21.3100 H   0  0  0  0  0  0  0  0  0  0  0  0
   -7.6080   -0.5400  -24.2160 H   0  0  0  0  0  0  0  0  0  0  0  0
   -8.8960   -1.4600  -25.0630 H   0  0  0  0  0  0  0  0  0  0  0  0
   -8.0640    1.3490  -25.7240 H   0  0  0  0  0  0  0  0  0  0  0  0
   -9.4560    2.3260  -25.1550 H   0  0  0  0  0  0  0  0  0  0  0  0
   -9.2770    2.8310  -22.6430 H   0  0  0  0  0  0  0  0  0  0  0  0
   -6.7260    4.1440  -22.1220 H   0  0  0  0  0  0  0  0  0  0  0  0
   -6.8020    2.5290  -21.3970 H   0  0  0  0  0  0  0  0  0  0  0  0
   -7.9990    3.7840  -20.9410 H   0  0  0  0  0  0  0  0  0  0  0  0
  1  2  1  0  0  0  0
  1 58  1  0  0  0  0
  1 59  1  0  0  0  0
  1 60  1  0  0  0  0
  2  3  1  0  0  0  0
  2 57  1  0  0  0  0
  3  4  2  0  0  0  0
  3  5  1  0  0  0  0
  5  6  1  0  0  0  0
  5 55  1  0  0  0  0
  5 56  1  0  0  0  0
  6  7  1  0  0  0  0
  6 48  1  0  0  0  0
  7  8  1  0  0  0  0
  7 53  1  0  0  0  0
  7 54  1  0  0  0  0
  8  9  1  1  0  0  0
  8 29  1  0  0  0  0
  8 41  1  0  0  0  0
  9 10  2  0  0  0  0
  9 11  1  0  0  0  0
 11 12  1  0  0  0  0
 11 28  1  0  0  0  0
 12 13  2  0  0  0  0
 12 21  1  0  0  0  0
 13 14  1  0  0  0  0
 13 27  1  0  0  0  0
 14 15  2  0  0  0  0
 15 16  1  0  0  0  0
 15 26  1  0  0  0  0
 16 17  2  0  0  0  0
 16 21  1  0  0  0  0
 17 18  1  0  0  0  0
 17 25  1  0  0  0  0
 18 19  2  0  0  0  0
 18 24  1  0  0  0  0
 19 20  1  0  0  0  0
 19 23  1  0  0  0  0
 20 21  2  0  0  0  0
 20 22  1  0  0  0  0
 28 29  1  0  0  0  0
 28 39  1  0  0  0  0
 28 40  1  0  0  0  0
 29 30  1  0  0  0  0
 29 38  1  1  0  0  0
 30 31  1  0  0  0  0
 30 36  1  0  0  0  0
 30 37  1  0  0  0  0
 31 32  1  0  0  0  0
 32 33  1  0  0  0  0
 32 34  1  0  0  0  0
 32 35  1  0  0  0  0
 41 42  2  0  0  0  0
 41 47  1  0  0  0  0
 42 43  1  0  0  0  0
 42 52  1  0  0  0  0
 43 44  1  0  0  0  0
 43 45  2  0  0  0  0
 45 46  1  0  0  0  0
 45 51  1  0  0  0  0
 46 47  2  0  0  0  0
 46 50  1  0  0  0  0
 47 48  1  0  0  0  0
 48 49  2  0  0  0  0
M  END
>  <MODEL>
       1

$$$$
