output/tmp_first_model_7_80.pdb
 OpenBabel07242616393D

 60 65  0  0  1  0  0  0  0  0999 V2000
   -2.6750   -6.5140  -23.2590 C   0  0  0  0  0  0  0  0  0  0  0  0
   -3.8520   -6.1770  -22.4550 N   0  0  0  0  0  0  0  0  0  0  0  0
   -4.7670   -7.2010  -22.2740 C   0  0  0  0  0  0  0  0  0  0  0  0
   -4.5990   -8.2060  -22.9480 O   0  0  0  0  0  0  0  0  0  0  0  0
   -6.3470   -7.2110  -21.1120 C   0  0  0  0  0  0  0  0  0  0  0  0
   -7.5030   -5.3440  -22.9200 N   0  0  0  0  0  0  0  0  0  0  0  0
   -8.4100   -4.3020  -22.6110 C   0  0  0  0  0  0  0  0  0  0  0  0
   -7.9640   -2.8680  -23.0610 C   0  0  2  0  0  0  0  0  0  0  0  0
   -6.8070   -2.3530  -22.1690 C   0  0  0  0  0  0  0  0  0  0  0  0
   -5.6490   -2.7360  -22.1850 O   0  0  0  0  0  0  0  0  0  0  0  0
   -7.3050   -1.4010  -21.3030 N   0  0  0  0  0  0  0  0  0  0  0  0
   -6.5510   -0.8120  -20.2650 C   0  0  0  0  0  0  0  0  0  0  0  0
   -6.9340   -0.9920  -18.9590 C   0  0  0  0  0  0  0  0  0  0  0  0
   -6.2660   -0.5100  -17.8860 N   0  0  0  0  0  0  0  0  0  0  0  0
   -5.1950    0.2070  -18.1150 C   0  0  0  0  0  0  0  0  0  0  0  0
   -4.7140    0.5170  -19.4170 C   0  0  0  0  0  0  0  0  0  0  0  0
   -3.5660    1.3300  -19.6000 C   0  0  0  0  0  0  0  0  0  0  0  0
   -3.1660    1.6890  -20.8580 C   0  0  0  0  0  0  0  0  0  0  0  0
   -3.8950    1.2480  -21.9850 C   0  0  0  0  0  0  0  0  0  0  0  0
   -4.9920    0.4350  -21.8350 C   0  0  0  0  0  0  0  0  0  0  0  0
   -5.4190    0.0270  -20.5380 C   0  0  0  0  0  0  0  0  0  0  0  0
   -5.5470    0.1000  -22.7050 H   0  0  0  0  0  0  0  0  0  0  0  0
   -3.5870    1.5700  -22.9760 H   0  0  0  0  0  0  0  0  0  0  0  0
   -2.3010    2.3330  -20.9940 H   0  0  0  0  0  0  0  0  0  0  0  0
   -3.0410    1.6860  -18.7180 H   0  0  0  0  0  0  0  0  0  0  0  0
   -4.6590    0.5960  -17.2490 H   0  0  0  0  0  0  0  0  0  0  0  0
   -7.8200   -1.5820  -18.7330 H   0  0  0  0  0  0  0  0  0  0  0  0
   -8.7580   -1.3340  -21.3420 C   0  0  0  0  0  0  0  0  0  0  0  0
   -9.0670   -1.8080  -22.7650 C   0  0  2  0  0  0  0  0  0  0  0  0
  -10.5120   -2.2380  -22.9830 C   0  0  0  0  0  0  0  0  0  0  0  0
  -10.8010   -3.0170  -22.2670 H   0  0  0  0  0  0  0  0  0  0  0  0
  -11.1980   -1.3940  -22.8480 H   0  0  0  0  0  0  0  0  0  0  0  0
  -10.6590   -2.6370  -23.9950 H   0  0  0  0  0  0  0  0  0  0  0  0
   -8.8620   -0.9520  -23.4120 H   0  0  0  0  0  0  0  0  0  0  0  0
   -9.0900   -0.3100  -21.1520 H   0  0  0  0  0  0  0  0  0  0  0  0
   -9.2270   -1.9980  -20.5960 H   0  0  0  0  0  0  0  0  0  0  0  0
   -7.5490   -2.9710  -24.5110 C   0  0  0  0  0  0  0  0  0  0  0  0
   -7.4690   -1.8310  -25.3200 C   0  0  0  0  0  0  0  0  0  0  0  0
   -7.0280   -1.9440  -26.6230 C   0  0  0  0  0  0  0  0  0  0  0  0
   -6.9770   -0.5160  -27.6160 Cl  0  0  0  0  0  0  0  0  0  0  0  0
   -6.6390   -3.1690  -27.1630 C   0  0  0  0  0  0  0  0  0  0  0  0
   -6.7160   -4.2950  -26.3660 C   0  0  0  0  0  0  0  0  0  0  0  0
   -7.1780   -4.2060  -25.0550 C   0  0  0  0  0  0  0  0  0  0  0  0
   -7.2590   -5.4870  -24.2360 C   0  0  0  0  0  0  0  0  0  0  0  0
   -7.0310   -6.5540  -24.8000 O   0  0  0  0  0  0  0  0  0  0  0  0
   -6.4240   -5.2710  -26.7370 H   0  0  0  0  0  0  0  0  0  0  0  0
   -6.2770   -3.2200  -28.1840 H   0  0  0  0  0  0  0  0  0  0  0  0
   -7.7400   -0.8490  -24.9490 H   0  0  0  0  0  0  0  0  0  0  0  0
   -9.4030   -4.4670  -23.0830 H   0  0  0  0  0  0  0  0  0  0  0  0
   -8.5840   -4.2820  -21.5260 H   0  0  0  0  0  0  0  0  0  0  0  0
   -5.9530   -7.0300  -20.9540 C   0  0  0  0  0  0  0  0  0  0  0  0
   -6.0660   -5.9010  -20.4370 C   0  0  0  0  0  0  0  0  0  0  0  0
   -6.2080   -5.5730  -19.3690 H   0  0  0  0  0  0  0  0  0  0  0  0
   -5.9190   -5.1690  -21.2430 H   0  0  0  0  0  0  0  0  0  0  0  0
   -7.1780   -7.3920  -21.8360 H   0  0  0  0  0  0  0  0  0  0  0  0
   -5.7620   -8.1890  -20.6110 H   0  0  0  0  0  0  0  0  0  0  0  0
   -4.0170   -5.1960  -22.2660 H   0  0  0  0  0  0  0  0  0  0  0  0
   -2.1260   -7.3300  -22.7820 H   0  0  0  0  0  0  0  0  0  0  0  0
   -2.9600   -6.8770  -24.2510 H   0  0  0  0  0  0  0  0  0  0  0  0
   -2.0130   -5.6480  -23.3650 H   0  0  0  0  0  0  0  0  0  0  0  0
  1  2  1  0  0  0  0
  1 58  1  0  0  0  0
  1 59  1  0  0  0  0
  1 60  1  0  0  0  0
  2  3  1  0  0  0  0
  2 57  1  0  0  0  0
  3  4  2  0  0  0  0
  3  5  1  0  0  0  0
  5  6  1  0  0  0  0
  5 51  1  0  0  0  0
  5 52  1  0  0  0  0
  6  7  1  0  0  0  0
  6 44  1  0  0  0  0
  7  8  1  0  0  0  0
  7 49  1  0  0  0  0
  7 50  1  0  0  0  0
  8  9  1  1  0  0  0
  8 29  1  0  0  0  0
  8 37  1  0  0  0  0
  9 10  2  0  0  0  0
  9 11  1  0  0  0  0
 11 12  1  0  0  0  0
 11 28  1  0  0  0  0
 12 13  2  0  0  0  0
 12 21  1  0  0  0  0
 13 14  1  0  0  0  0
 13 27  1  0  0  0  0
 14 15  2  0  0  0  0
 15 16  1  0  0  0  0
 15 26  1  0  0  0  0
 16 17  2  0  0  0  0
 16 21  1  0  0  0  0
 17 18  1  0  0  0  0
 17 25  1  0  0  0  0
 18 19  2  0  0  0  0
 18 24  1  0  0  0  0
 19 20  1  0  0  0  0
 19 23  1  0  0  0  0
 20 21  2  0  0  0  0
 20 22  1  0  0  0  0
 28 29  1  0  0  0  0
 28 35  1  0  0  0  0
 28 36  1  0  0  0  0
 29 30  1  0  0  0  0
 29 34  1  6  0  0  0
 30 31  1  0  0  0  0
 30 32  1  0  0  0  0
 30 33  1  0  0  0  0
 37 38  2  0  0  0  0
 37 43  1  0  0  0  0
 38 39  1  0  0  0  0
 38 48  1  0  0  0  0
 39 40  1  0  0  0  0
 39 41  2  0  0  0  0
 41 42  1  0  0  0  0
 41 47  1  0  0  0  0
 42 43  2  0  0  0  0
 42 46  1  0  0  0  0
 43 44  1  0  0  0  0
 44 45  2  0  0  0  0
 51 52  1  0  0  0  0
 51 55  1  0  0  0  0
 51 56  1  0  0  0  0
 52 53  1  0  0  0  0
 52 54  1  0  0  0  0
M  END
>  <MODEL>
       1

$$$$
