output/tmp_first_model_18_12.pdb
 OpenBabel07242622363D

 76 82  0  0  1  0  0  0  0  0999 V2000
  -10.3390    1.1640  -25.8790 O   0  0  0  0  0  0  0  0  0  0  0  0
   -9.9890    0.2370  -25.1600 C   0  0  0  0  0  0  0  0  0  0  0  0
  -10.9680   -0.5730  -24.3640 C   0  0  0  0  0  0  0  0  0  0  0  0
  -12.3240   -0.4090  -24.6500 C   0  0  0  0  0  0  0  0  0  0  0  0
  -13.2830   -1.0330  -23.8780 C   0  0  0  0  0  0  0  0  0  0  0  0
  -12.8640   -1.8160  -22.8060 C   0  0  0  0  0  0  0  0  0  0  0  0
  -14.0630   -2.5930  -21.8130 Cl  0  0  0  0  0  0  0  0  0  0  0  0
  -11.5240   -2.0040  -22.5110 C   0  0  0  0  0  0  0  0  0  0  0  0
  -10.5400   -1.4010  -23.3110 C   0  0  0  0  0  0  0  0  0  0  0  0
   -9.0570   -1.5870  -23.0330 C   0  0  1  0  0  0  0  0  0  0  0  0
   -8.2940   -1.3660  -24.3690 C   0  0  0  0  0  0  0  0  0  0  0  0
   -8.6810   -0.1250  -25.0150 N   0  0  0  0  0  0  0  0  0  0  0  0
   -7.6760    0.6740  -25.6820 C   0  0  0  0  0  0  0  0  0  0  0  0
   -7.1930    1.8050  -24.7810 C   0  0  0  0  0  0  0  0  0  0  0  0
   -6.1810    2.6400  -25.4560 N   0  3  0  0  0  0  0  0  0  0  0  0
   -4.9560    1.8570  -25.8780 C   0  0  0  0  0  0  0  0  0  0  0  0
   -3.8290    2.8460  -26.1960 C   0  0  0  0  0  0  0  0  0  0  0  0
   -4.4030    4.0620  -26.6310 O   0  0  0  0  0  0  0  0  0  0  0  0
   -4.9270    4.7700  -25.5210 C   0  0  0  0  0  0  0  0  0  0  0  0
   -5.8050    3.8450  -24.6540 C   0  0  0  0  0  0  0  0  0  0  0  0
   -6.7160    4.3540  -24.3260 H   0  0  0  0  0  0  0  0  0  0  0  0
   -5.2670    3.5200  -23.7550 H   0  0  0  0  0  0  0  0  0  0  0  0
   -5.4970    5.6050  -25.9390 H   0  0  0  0  0  0  0  0  0  0  0  0
   -4.1030    5.1820  -24.9140 H   0  0  0  0  0  0  0  0  0  0  0  0
   -3.2000    3.0170  -25.3060 H   0  0  0  0  0  0  0  0  0  0  0  0
   -3.1900    2.4730  -27.0020 H   0  0  0  0  0  0  0  0  0  0  0  0
   -5.2090    1.2860  -26.7740 H   0  0  0  0  0  0  0  0  0  0  0  0
   -4.6770    1.1560  -25.0840 H   0  0  0  0  0  0  0  0  0  0  0  0
   -6.6000    3.0090  -26.3280 H   0  0  0  0  0  0  0  0  0  0  0  0
   -8.0500    2.4310  -24.5070 H   0  0  0  0  0  0  0  0  0  0  0  0
   -6.7700    1.4130  -23.8470 H   0  0  0  0  0  0  0  0  0  0  0  0
   -8.1270    1.1070  -26.5770 H   0  0  0  0  0  0  0  0  0  0  0  0
   -6.8440    0.0250  -25.9820 H   0  0  0  0  0  0  0  0  0  0  0  0
   -7.2100   -1.3530  -24.1850 H   0  0  0  0  0  0  0  0  0  0  0  0
   -8.5180   -2.2000  -25.0460 H   0  0  0  0  0  0  0  0  0  0  0  0
   -8.4780   -0.6080  -21.9690 C   0  0  0  0  0  0  0  0  0  0  0  0
   -8.7500    0.5530  -21.7740 O   0  0  0  0  0  0  0  0  0  0  0  0
   -7.5200   -1.3050  -21.2640 N   0  0  0  0  0  0  0  0  0  0  0  0
   -6.7400   -0.7440  -20.2360 C   0  0  0  0  0  0  0  0  0  0  0  0
   -7.0430   -1.0380  -18.9320 C   0  0  0  0  0  0  0  0  0  0  0  0
   -6.3540   -0.5720  -17.8650 N   0  0  0  0  0  0  0  0  0  0  0  0
   -5.3170    0.1930  -18.1190 C   0  0  0  0  0  0  0  0  0  0  0  0
   -4.8700    0.5320  -19.4300 C   0  0  0  0  0  0  0  0  0  0  0  0
   -3.7190    1.3350  -19.6450 C   0  0  0  0  0  0  0  0  0  0  0  0
   -3.2730    1.5840  -20.9140 C   0  0  0  0  0  0  0  0  0  0  0  0
   -3.9520    1.0470  -22.0310 C   0  0  0  0  0  0  0  0  0  0  0  0
   -5.0830    0.2840  -21.8520 C   0  0  0  0  0  0  0  0  0  0  0  0
   -5.5800    0.0270  -20.5400 C   0  0  0  0  0  0  0  0  0  0  0  0
   -5.5900   -0.1340  -22.7180 H   0  0  0  0  0  0  0  0  0  0  0  0
   -3.5740    1.2310  -23.0350 H   0  0  0  0  0  0  0  0  0  0  0  0
   -2.3860    2.1920  -21.0660 H   0  0  0  0  0  0  0  0  0  0  0  0
   -3.2080    1.7340  -18.7740 H   0  0  0  0  0  0  0  0  0  0  0  0
   -4.7550    0.5670  -17.2650 H   0  0  0  0  0  0  0  0  0  0  0  0
   -7.8960   -1.6820  -18.7160 H   0  0  0  0  0  0  0  0  0  0  0  0
   -7.3840   -2.6890  -21.6270 C   0  0  0  0  0  0  0  0  0  0  0  0
   -8.6820   -2.9580  -22.3800 C   0  0  2  0  0  0  0  0  0  0  0  0
   -8.5650   -4.1730  -23.2850 C   0  0  0  0  0  0  0  0  0  0  0  0
   -9.7880   -4.4080  -24.0200 N   0  0  0  0  0  0  0  0  0  0  0  0
   -9.8220   -5.2610  -25.0700 C   0  0  0  0  0  0  0  0  0  0  0  0
  -10.9260   -5.2240  -25.8350 N   0  0  0  0  0  0  0  0  0  0  0  0
  -10.9660   -6.0870  -26.8400 C   0  0  0  0  0  0  0  0  0  0  0  0
   -9.9320   -6.9740  -27.1120 C   0  0  0  0  0  0  0  0  0  0  0  0
   -8.8360   -6.9070  -26.2640 C   0  0  0  0  0  0  0  0  0  0  0  0
   -8.7560   -6.0630  -25.2420 N   0  0  0  0  0  0  0  0  0  0  0  0
   -7.9710   -7.5500  -26.4160 H   0  0  0  0  0  0  0  0  0  0  0  0
   -9.9700   -7.6720  -27.9340 H   0  0  0  0  0  0  0  0  0  0  0  0
  -11.8650   -6.0550  -27.4540 H   0  0  0  0  0  0  0  0  0  0  0  0
  -10.5240   -3.7140  -24.0210 H   0  0  0  0  0  0  0  0  0  0  0  0
   -8.3310   -5.0650  -22.6930 H   0  0  0  0  0  0  0  0  0  0  0  0
   -7.7260   -4.0480  -23.9830 H   0  0  0  0  0  0  0  0  0  0  0  0
   -9.4520   -3.1590  -21.6290 H   0  0  0  0  0  0  0  0  0  0  0  0
   -6.5010   -2.8650  -22.2630 H   0  0  0  0  0  0  0  0  0  0  0  0
   -7.2510   -3.3000  -20.7310 H   0  0  0  0  0  0  0  0  0  0  0  0
  -11.2660   -2.5910  -21.6310 H   0  0  0  0  0  0  0  0  0  0  0  0
  -14.3410   -0.8960  -24.0650 H   0  0  0  0  0  0  0  0  0  0  0  0
  -12.6170    0.2470  -25.4620 H   0  0  0  0  0  0  0  0  0  0  0  0
  1  2  2  0  0  0  0
  2  3  1  0  0  0  0
  2 12  1  0  0  0  0
  3  4  2  0  0  0  0
  3  9  1  0  0  0  0
  4  5  1  0  0  0  0
  4 76  1  0  0  0  0
  5  6  2  0  0  0  0
  5 75  1  0  0  0  0
  6  7  1  0  0  0  0
  6  8  1  0  0  0  0
  8  9  2  0  0  0  0
  8 74  1  0  0  0  0
 10  9  1  6  0  0  0
 10 11  1  0  0  0  0
 10 36  1  0  0  0  0
 10 56  1  0  0  0  0
 11 12  1  0  0  0  0
 11 34  1  0  0  0  0
 11 35  1  0  0  0  0
 12 13  1  0  0  0  0
 13 14  1  0  0  0  0
 13 32  1  0  0  0  0
 13 33  1  0  0  0  0
 14 15  1  0  0  0  0
 14 30  1  0  0  0  0
 14 31  1  0  0  0  0
 15 16  1  0  0  0  0
 15 20  1  0  0  0  0
 15 29  1  0  0  0  0
 16 17  1  0  0  0  0
 16 27  1  0  0  0  0
 16 28  1  0  0  0  0
 17 18  1  0  0  0  0
 17 25  1  0  0  0  0
 17 26  1  0  0  0  0
 18 19  1  0  0  0  0
 19 20  1  0  0  0  0
 19 23  1  0  0  0  0
 19 24  1  0  0  0  0
 20 21  1  0  0  0  0
 20 22  1  0  0  0  0
 36 37  2  0  0  0  0
 36 38  1  0  0  0  0
 38 39  1  0  0  0  0
 38 55  1  0  0  0  0
 39 40  2  0  0  0  0
 39 48  1  0  0  0  0
 40 41  1  0  0  0  0
 40 54  1  0  0  0  0
 41 42  2  0  0  0  0
 42 43  1  0  0  0  0
 42 53  1  0  0  0  0
 43 44  2  0  0  0  0
 43 48  1  0  0  0  0
 44 45  1  0  0  0  0
 44 52  1  0  0  0  0
 45 46  2  0  0  0  0
 45 51  1  0  0  0  0
 46 47  1  0  0  0  0
 46 50  1  0  0  0  0
 47 48  2  0  0  0  0
 47 49  1  0  0  0  0
 55 56  1  0  0  0  0
 55 72  1  0  0  0  0
 55 73  1  0  0  0  0
 56 57  1  0  0  0  0
 56 71  1  1  0  0  0
 57 58  1  0  0  0  0
 57 69  1  0  0  0  0
 57 70  1  0  0  0  0
 58 59  1  0  0  0  0
 58 68  1  0  0  0  0
 59 60  2  0  0  0  0
 59 64  1  0  0  0  0
 60 61  1  0  0  0  0
 61 62  2  0  0  0  0
 61 67  1  0  0  0  0
 62 63  1  0  0  0  0
 62 66  1  0  0  0  0
 63 64  2  0  0  0  0
 63 65  1  0  0  0  0
M  CHG  1  15   1
M  END
>  <MODEL>
       1

$$$$
