output/tmp_first_model_13_5.pdb
 OpenBabel07242619583D

 58 61  0  0  1  0  0  0  0  0999 V2000
   -8.0280   -4.6480  -21.9790 C   0  0  0  0  0  0  0  0  0  0  0  0
   -7.0120   -3.8610  -21.6440 C   0  0  0  0  0  0  0  0  0  0  0  0
   -6.7310   -2.4500  -22.0460 C   0  0  0  0  0  0  0  0  0  0  0  0
   -7.3760   -1.3990  -21.2490 N   0  0  0  0  0  0  0  0  0  0  0  0
   -8.6100   -0.7990  -21.4910 C   0  0  0  0  0  0  0  0  0  0  0  0
   -9.0700    0.0040  -20.7050 O   0  0  0  0  0  0  0  0  0  0  0  0
   -9.3270   -1.1110  -22.8050 C   0  0  2  0  0  0  0  0  0  0  0  0
   -8.7230   -0.2410  -23.9200 C   0  0  0  0  0  0  0  0  0  0  0  0
   -9.0570    1.1520  -23.6690 N   0  0  0  0  0  0  0  0  0  0  0  0
   -8.0120    2.1570  -23.7160 C   0  0  0  0  0  0  0  0  0  0  0  0
   -7.5010    2.3300  -25.1420 C   0  0  0  0  0  0  0  0  0  0  0  0
   -6.4470    1.8430  -25.5320 O   0  0  0  0  0  0  0  0  0  0  0  0
   -8.3390    3.0180  -25.9550 N   0  0  0  0  0  0  0  0  0  0  0  0
   -7.9770    3.2130  -27.3440 C   0  0  0  0  0  0  0  0  0  0  0  0
   -7.0260    3.7510  -27.4130 H   0  0  0  0  0  0  0  0  0  0  0  0
   -7.8500    2.2540  -27.8580 H   0  0  0  0  0  0  0  0  0  0  0  0
   -8.7580    3.7930  -27.8410 H   0  0  0  0  0  0  0  0  0  0  0  0
   -9.2520    3.2840  -25.6130 H   0  0  0  0  0  0  0  0  0  0  0  0
   -7.1770    1.8610  -23.0700 H   0  0  0  0  0  0  0  0  0  0  0  0
   -8.4520    3.0860  -23.3390 H   0  0  0  0  0  0  0  0  0  0  0  0
  -10.3550    1.5480  -23.5210 C   0  0  0  0  0  0  0  0  0  0  0  0
  -10.7200    2.6940  -23.7810 O   0  0  0  0  0  0  0  0  0  0  0  0
  -11.2790    0.4890  -23.0080 C   0  0  0  0  0  0  0  0  0  0  0  0
  -12.6290    0.8000  -22.8410 C   0  0  0  0  0  0  0  0  0  0  0  0
  -13.5180   -0.1670  -22.4050 C   0  0  0  0  0  0  0  0  0  0  0  0
  -13.0400   -1.4430  -22.1080 C   0  0  0  0  0  0  0  0  0  0  0  0
  -14.1570   -2.6610  -21.5630 Cl  0  0  0  0  0  0  0  0  0  0  0  0
  -11.6920   -1.7490  -22.2310 C   0  0  0  0  0  0  0  0  0  0  0  0
  -10.7970   -0.7840  -22.6950 C   0  0  0  0  0  0  0  0  0  0  0  0
  -11.3350   -2.7390  -21.9590 H   0  0  0  0  0  0  0  0  0  0  0  0
  -14.5730    0.0570  -22.2850 H   0  0  0  0  0  0  0  0  0  0  0  0
  -12.9590    1.8100  -23.0600 H   0  0  0  0  0  0  0  0  0  0  0  0
   -9.1160   -0.5650  -24.8920 H   0  0  0  0  0  0  0  0  0  0  0  0
   -7.6330   -0.3130  -23.9680 H   0  0  0  0  0  0  0  0  0  0  0  0
   -9.2100   -2.1740  -23.0230 H   0  0  0  0  0  0  0  0  0  0  0  0
   -6.6080   -0.8170  -20.2030 C   0  0  0  0  0  0  0  0  0  0  0  0
   -6.9400   -1.0380  -18.8950 C   0  0  0  0  0  0  0  0  0  0  0  0
   -6.2380   -0.5530  -17.8450 N   0  0  0  0  0  0  0  0  0  0  0  0
   -5.1810    0.1820  -18.0950 C   0  0  0  0  0  0  0  0  0  0  0  0
   -4.7300    0.5020  -19.4080 C   0  0  0  0  0  0  0  0  0  0  0  0
   -3.5970    1.3290  -19.6470 C   0  0  0  0  0  0  0  0  0  0  0  0
   -3.2070    1.6300  -20.9240 C   0  0  0  0  0  0  0  0  0  0  0  0
   -3.9320    1.1200  -22.0230 C   0  0  0  0  0  0  0  0  0  0  0  0
   -5.0370    0.3300  -21.8170 C   0  0  0  0  0  0  0  0  0  0  0  0
   -5.4600   -0.0120  -20.5010 C   0  0  0  0  0  0  0  0  0  0  0  0
   -5.5930   -0.0340  -22.6760 H   0  0  0  0  0  0  0  0  0  0  0  0
   -3.6260    1.3540  -23.0380 H   0  0  0  0  0  0  0  0  0  0  0  0
   -2.3550    2.2820  -21.1000 H   0  0  0  0  0  0  0  0  0  0  0  0
   -3.0680    1.7360  -18.7900 H   0  0  0  0  0  0  0  0  0  0  0  0
   -4.6320    0.5630  -17.2320 H   0  0  0  0  0  0  0  0  0  0  0  0
   -7.8260   -1.6230  -18.6530 H   0  0  0  0  0  0  0  0  0  0  0  0
   -6.8870   -2.2670  -23.1170 H   0  0  0  0  0  0  0  0  0  0  0  0
   -5.6660   -2.4440  -21.7620 H   0  0  0  0  0  0  0  0  0  0  0  0
   -5.7670   -4.3370  -20.8380 C   0  0  0  0  0  0  0  0  0  0  0  0
   -4.8970   -3.4440  -20.7020 O   0  0  0  0  0  0  0  0  0  0  0  0
   -5.6660   -5.4820  -20.3780 O   0  5  0  0  0  0  0  0  0  0  0  0
   -8.7930   -4.2890  -22.6660 H   0  0  0  0  0  0  0  0  0  0  0  0
   -8.1500   -5.6580  -21.6060 H   0  0  0  0  0  0  0  0  0  0  0  0
  1  2  2  0  0  0  0
  1 57  1  0  0  0  0
  1 58  1  0  0  0  0
  2  3  1  0  0  0  0
  2 54  1  0  0  0  0
  3  4  1  0  0  0  0
  3 52  1  0  0  0  0
  3 53  1  0  0  0  0
  4  5  1  0  0  0  0
  4 36  1  0  0  0  0
  5  6  2  0  0  0  0
  5  7  1  0  0  0  0
  7  8  1  0  0  0  0
  7 29  1  0  0  0  0
  7 35  1  6  0  0  0
  8  9  1  0  0  0  0
  8 33  1  0  0  0  0
  8 34  1  0  0  0  0
  9 10  1  0  0  0  0
  9 21  1  0  0  0  0
 10 11  1  0  0  0  0
 10 19  1  0  0  0  0
 10 20  1  0  0  0  0
 11 12  2  0  0  0  0
 11 13  1  0  0  0  0
 13 14  1  0  0  0  0
 13 18  1  0  0  0  0
 14 15  1  0  0  0  0
 14 16  1  0  0  0  0
 14 17  1  0  0  0  0
 21 22  2  0  0  0  0
 21 23  1  0  0  0  0
 23 24  2  0  0  0  0
 23 29  1  0  0  0  0
 24 25  1  0  0  0  0
 24 32  1  0  0  0  0
 25 26  2  0  0  0  0
 25 31  1  0  0  0  0
 26 27  1  0  0  0  0
 26 28  1  0  0  0  0
 28 29  2  0  0  0  0
 28 30  1  0  0  0  0
 36 37  2  0  0  0  0
 36 45  1  0  0  0  0
 37 38  1  0  0  0  0
 37 51  1  0  0  0  0
 38 39  2  0  0  0  0
 39 40  1  0  0  0  0
 39 50  1  0  0  0  0
 40 41  2  0  0  0  0
 40 45  1  0  0  0  0
 41 42  1  0  0  0  0
 41 49  1  0  0  0  0
 42 43  2  0  0  0  0
 42 48  1  0  0  0  0
 43 44  1  0  0  0  0
 43 47  1  0  0  0  0
 44 45  2  0  0  0  0
 44 46  1  0  0  0  0
 54 55  2  0  0  0  0
 54 56  1  0  0  0  0
M  CHG  1  56  -1
M  END
>  <MODEL>
       1

$$$$
