output/tmp_first_model_18_13.pdb
 OpenBabel07242622363D

 69 74  0  0  1  0  0  0  0  0999 V2000
   -8.1070    4.5440  -24.3080 C   0  0  0  0  0  0  0  0  0  0  0  0
   -8.1470    3.3280  -25.0900 N   0  0  0  0  0  0  0  0  0  0  0  0
   -7.3060    2.3050  -24.7920 C   0  0  0  0  0  0  0  0  0  0  0  0
   -6.4280    2.3740  -23.9440 O   0  0  0  0  0  0  0  0  0  0  0  0
   -7.5320    1.0440  -25.6250 C   0  0  0  0  0  0  0  0  0  0  0  0
   -8.5190    0.1810  -24.9960 N   0  0  0  0  0  0  0  0  0  0  0  0
   -8.0790   -1.0200  -24.3200 C   0  0  0  0  0  0  0  0  0  0  0  0
   -8.8990   -1.3360  -23.0320 C   0  0  2  0  0  0  0  0  0  0  0  0
   -8.4050   -0.4640  -21.8480 C   0  0  0  0  0  0  0  0  0  0  0  0
   -8.7530    0.6520  -21.5510 O   0  0  0  0  0  0  0  0  0  0  0  0
   -7.4630   -1.2060  -21.1510 N   0  0  0  0  0  0  0  0  0  0  0  0
   -6.6450   -0.6840  -20.1210 C   0  0  0  0  0  0  0  0  0  0  0  0
   -6.9100   -0.9950  -18.8130 C   0  0  0  0  0  0  0  0  0  0  0  0
   -6.1960   -0.5360  -17.7570 N   0  0  0  0  0  0  0  0  0  0  0  0
   -5.1640    0.2360  -18.0090 C   0  0  0  0  0  0  0  0  0  0  0  0
   -4.7320    0.5750  -19.3240 C   0  0  0  0  0  0  0  0  0  0  0  0
   -3.5840    1.3780  -19.5700 C   0  0  0  0  0  0  0  0  0  0  0  0
   -3.1770    1.6400  -20.8490 C   0  0  0  0  0  0  0  0  0  0  0  0
   -3.8950    1.1130  -21.9470 C   0  0  0  0  0  0  0  0  0  0  0  0
   -5.0150    0.3490  -21.7380 C   0  0  0  0  0  0  0  0  0  0  0  0
   -5.4740    0.0810  -20.4210 C   0  0  0  0  0  0  0  0  0  0  0  0
   -5.5630   -0.0490  -22.5880 H   0  0  0  0  0  0  0  0  0  0  0  0
   -3.5810    1.3250  -22.9630 H   0  0  0  0  0  0  0  0  0  0  0  0
   -2.3020    2.2560  -21.0340 H   0  0  0  0  0  0  0  0  0  0  0  0
   -3.0370    1.7760  -18.7190 H   0  0  0  0  0  0  0  0  0  0  0  0
   -4.6030    0.6160  -17.1530 H   0  0  0  0  0  0  0  0  0  0  0  0
   -7.7500   -1.6480  -18.5710 H   0  0  0  0  0  0  0  0  0  0  0  0
   -7.2770   -2.5480  -21.6530 C   0  0  0  0  0  0  0  0  0  0  0  0
   -8.5310   -2.7360  -22.5110 C   0  0  2  0  0  0  0  0  0  0  0  0
   -8.4360   -3.7620  -23.6190 C   0  0  0  0  0  0  0  0  0  0  0  0
   -8.5130   -5.0980  -23.0730 N   0  0  0  0  0  0  0  0  0  0  0  0
   -7.9440   -6.1230  -23.7760 C   0  0  0  0  0  0  0  0  0  0  0  0
   -7.7270   -6.0980  -25.1690 C   0  0  0  0  0  0  0  0  0  0  0  0
   -6.9670   -7.1410  -25.6650 C   0  0  0  0  0  0  0  0  0  0  0  0
   -6.4350   -8.0830  -24.8820 N   0  0  0  0  0  0  0  0  0  0  0  0
   -6.7380   -8.0170  -23.5830 C   0  0  0  0  0  0  0  0  0  0  0  0
   -6.1040   -9.0420  -22.7030 C   0  0  0  0  0  0  0  0  0  0  0  0
   -5.3460   -9.5410  -23.3050 H   0  0  0  0  0  0  0  0  0  0  0  0
   -5.6650   -8.5810  -21.8140 H   0  0  0  0  0  0  0  0  0  0  0  0
   -6.8540   -9.7680  -22.3800 H   0  0  0  0  0  0  0  0  0  0  0  0
   -7.5500   -7.1390  -23.0040 N   0  0  0  0  0  0  0  0  0  0  0  0
   -6.6930   -7.1910  -26.7220 H   0  0  0  0  0  0  0  0  0  0  0  0
   -8.0840   -5.3050  -25.8260 H   0  0  0  0  0  0  0  0  0  0  0  0
   -8.2240   -5.1920  -22.1060 H   0  0  0  0  0  0  0  0  0  0  0  0
   -9.2570   -3.6260  -24.3360 H   0  0  0  0  0  0  0  0  0  0  0  0
   -7.4890   -3.6010  -24.1650 H   0  0  0  0  0  0  0  0  0  0  0  0
   -9.3110   -3.0670  -21.8230 H   0  0  0  0  0  0  0  0  0  0  0  0
   -6.3530   -2.6530  -22.2470 H   0  0  0  0  0  0  0  0  0  0  0  0
   -7.2030   -3.2470  -20.8160 H   0  0  0  0  0  0  0  0  0  0  0  0
  -10.3730   -1.2090  -23.3640 C   0  0  0  0  0  0  0  0  0  0  0  0
  -11.3470   -1.8860  -22.6080 C   0  0  0  0  0  0  0  0  0  0  0  0
  -12.6890   -1.7140  -22.8830 C   0  0  0  0  0  0  0  0  0  0  0  0
  -13.8660   -2.5070  -21.8720 Cl  0  0  0  0  0  0  0  0  0  0  0  0
  -13.1160   -0.9110  -23.9370 C   0  0  0  0  0  0  0  0  0  0  0  0
  -12.1660   -0.2610  -24.7010 C   0  0  0  0  0  0  0  0  0  0  0  0
  -10.8060   -0.3940  -24.4180 C   0  0  0  0  0  0  0  0  0  0  0  0
   -9.8380    0.4570  -25.1850 C   0  0  0  0  0  0  0  0  0  0  0  0
  -10.2030    1.3780  -25.9170 O   0  0  0  0  0  0  0  0  0  0  0  0
  -12.4620    0.4060  -25.5030 H   0  0  0  0  0  0  0  0  0  0  0  0
  -14.1760   -0.7960  -24.1250 H   0  0  0  0  0  0  0  0  0  0  0  0
  -11.0780   -2.4940  -21.7520 H   0  0  0  0  0  0  0  0  0  0  0  0
   -7.0190   -0.9020  -24.0650 H   0  0  0  0  0  0  0  0  0  0  0  0
   -8.1680   -1.8630  -25.0150 H   0  0  0  0  0  0  0  0  0  0  0  0
   -6.5860    0.5050  -25.6840 H   0  0  0  0  0  0  0  0  0  0  0  0
   -7.8570    1.2940  -26.6390 H   0  0  0  0  0  0  0  0  0  0  0  0
   -8.9850    3.0990  -25.6100 H   0  0  0  0  0  0  0  0  0  0  0  0
   -7.0710    4.8730  -24.2050 H   0  0  0  0  0  0  0  0  0  0  0  0
   -8.6790    5.3170  -24.8270 H   0  0  0  0  0  0  0  0  0  0  0  0
   -8.5170    4.4030  -23.3000 H   0  0  0  0  0  0  0  0  0  0  0  0
  1  2  1  0  0  0  0
  1 67  1  0  0  0  0
  1 68  1  0  0  0  0
  1 69  1  0  0  0  0
  2  3  1  0  0  0  0
  2 66  1  0  0  0  0
  3  4  2  0  0  0  0
  3  5  1  0  0  0  0
  5  6  1  0  0  0  0
  5 64  1  0  0  0  0
  5 65  1  0  0  0  0
  6  7  1  0  0  0  0
  6 57  1  0  0  0  0
  7  8  1  0  0  0  0
  7 62  1  0  0  0  0
  7 63  1  0  0  0  0
  8  9  1  1  0  0  0
  8 29  1  0  0  0  0
  8 50  1  0  0  0  0
  9 10  2  0  0  0  0
  9 11  1  0  0  0  0
 11 12  1  0  0  0  0
 11 28  1  0  0  0  0
 12 13  2  0  0  0  0
 12 21  1  0  0  0  0
 13 14  1  0  0  0  0
 13 27  1  0  0  0  0
 14 15  2  0  0  0  0
 15 16  1  0  0  0  0
 15 26  1  0  0  0  0
 16 17  2  0  0  0  0
 16 21  1  0  0  0  0
 17 18  1  0  0  0  0
 17 25  1  0  0  0  0
 18 19  2  0  0  0  0
 18 24  1  0  0  0  0
 19 20  1  0  0  0  0
 19 23  1  0  0  0  0
 20 21  2  0  0  0  0
 20 22  1  0  0  0  0
 28 29  1  0  0  0  0
 28 48  1  0  0  0  0
 28 49  1  0  0  0  0
 29 30  1  0  0  0  0
 29 47  1  1  0  0  0
 30 31  1  0  0  0  0
 30 45  1  0  0  0  0
 30 46  1  0  0  0  0
 31 32  1  0  0  0  0
 31 44  1  0  0  0  0
 32 33  2  0  0  0  0
 32 41  1  0  0  0  0
 33 34  1  0  0  0  0
 33 43  1  0  0  0  0
 34 35  2  0  0  0  0
 34 42  1  0  0  0  0
 35 36  1  0  0  0  0
 36 37  1  0  0  0  0
 36 41  2  0  0  0  0
 37 38  1  0  0  0  0
 37 39  1  0  0  0  0
 37 40  1  0  0  0  0
 50 51  2  0  0  0  0
 50 56  1  0  0  0  0
 51 52  1  0  0  0  0
 51 61  1  0  0  0  0
 52 53  1  0  0  0  0
 52 54  2  0  0  0  0
 54 55  1  0  0  0  0
 54 60  1  0  0  0  0
 55 56  2  0  0  0  0
 55 59  1  0  0  0  0
 56 57  1  0  0  0  0
 57 58  2  0  0  0  0
M  END
>  <MODEL>
       1

$$$$
