output/tmp_first_model_7_50.pdb
 OpenBabel07242616393D

 66 70  0  0  1  0  0  0  0  0999 V2000
   -7.6020    3.0670  -21.9720 C   0  0  0  0  0  0  0  0  0  0  0  0
   -8.7340    2.5390  -22.7130 N   0  0  0  0  0  0  0  0  0  0  0  0
   -8.4680    1.7380  -23.7840 C   0  0  0  0  0  0  0  0  0  0  0  0
   -7.3260    1.4760  -24.1280 O   0  0  0  0  0  0  0  0  0  0  0  0
   -9.6690    1.1580  -24.5260 C   0  0  0  0  0  0  0  0  0  0  0  0
  -10.1210   -0.0370  -23.8490 N   0  0  0  0  0  0  0  0  0  0  0  0
   -9.2680   -1.2150  -23.8800 C   0  0  0  0  0  0  0  0  0  0  0  0
   -9.3190   -1.9590  -22.5190 C   0  0  2  0  0  0  0  0  0  0  0  0
   -8.7100   -1.0120  -21.4440 C   0  0  0  0  0  0  0  0  0  0  0  0
   -9.2370   -0.0330  -20.9490 O   0  0  0  0  0  0  0  0  0  0  0  0
   -7.4190   -1.4230  -21.1770 N   0  0  0  0  0  0  0  0  0  0  0  0
   -6.6280   -0.8210  -20.1670 C   0  0  0  0  0  0  0  0  0  0  0  0
   -6.9300   -1.0390  -18.8450 C   0  0  0  0  0  0  0  0  0  0  0  0
   -6.2120   -0.5530  -17.8070 N   0  0  0  0  0  0  0  0  0  0  0  0
   -5.1700    0.1880  -18.0880 C   0  0  0  0  0  0  0  0  0  0  0  0
   -4.7430    0.4990  -19.4080 C   0  0  0  0  0  0  0  0  0  0  0  0
   -3.6220    1.3360  -19.6520 C   0  0  0  0  0  0  0  0  0  0  0  0
   -3.2580    1.6500  -20.9310 C   0  0  0  0  0  0  0  0  0  0  0  0
   -4.0050    1.1550  -22.0230 C   0  0  0  0  0  0  0  0  0  0  0  0
   -5.1000    0.3480  -21.8140 C   0  0  0  0  0  0  0  0  0  0  0  0
   -5.4930   -0.0120  -20.4960 C   0  0  0  0  0  0  0  0  0  0  0  0
   -5.6990    0.0330  -22.6640 H   0  0  0  0  0  0  0  0  0  0  0  0
   -3.7190    1.4240  -23.0350 H   0  0  0  0  0  0  0  0  0  0  0  0
   -2.4080    2.3030  -21.1110 H   0  0  0  0  0  0  0  0  0  0  0  0
   -3.0860    1.7380  -18.7960 H   0  0  0  0  0  0  0  0  0  0  0  0
   -4.6060    0.5920  -17.2460 H   0  0  0  0  0  0  0  0  0  0  0  0
   -7.7900   -1.6550  -18.5910 H   0  0  0  0  0  0  0  0  0  0  0  0
   -6.9920   -2.5550  -21.9760 C   0  0  0  0  0  0  0  0  0  0  0  0
   -8.3310   -3.1540  -22.4480 C   0  0  2  0  0  0  0  0  0  0  0  0
   -8.2070   -3.9970  -23.7170 C   0  0  0  0  0  0  0  0  0  0  0  0
   -7.4340   -5.1460  -23.4690 O   0  0  0  0  0  0  0  0  0  0  0  0
   -6.1560   -5.2180  -24.0870 C   0  0  0  0  0  0  0  0  0  0  0  0
   -6.2640   -5.7320  -25.5150 C   0  0  0  0  0  0  0  0  0  0  0  0
   -6.8710   -5.0720  -26.1420 H   0  0  0  0  0  0  0  0  0  0  0  0
   -5.2720   -5.8080  -25.9670 H   0  0  0  0  0  0  0  0  0  0  0  0
   -6.7230   -6.7240  -25.5230 H   0  0  0  0  0  0  0  0  0  0  0  0
   -5.3280   -6.1320  -23.2040 C   0  0  0  0  0  0  0  0  0  0  0  0
   -5.7770   -7.1300  -23.1890 H   0  0  0  0  0  0  0  0  0  0  0  0
   -5.3140   -5.7440  -22.1810 H   0  0  0  0  0  0  0  0  0  0  0  0
   -4.2970   -6.2140  -23.5650 H   0  0  0  0  0  0  0  0  0  0  0  0
   -5.7040   -4.2130  -24.1010 H   0  0  0  0  0  0  0  0  0  0  0  0
   -7.7660   -3.3890  -24.5230 H   0  0  0  0  0  0  0  0  0  0  0  0
   -9.2100   -4.3110  -24.0440 H   0  0  0  0  0  0  0  0  0  0  0  0
   -8.6550   -3.8210  -21.6450 H   0  0  0  0  0  0  0  0  0  0  0  0
   -6.3680   -2.2360  -22.8280 H   0  0  0  0  0  0  0  0  0  0  0  0
   -6.4020   -3.2600  -21.3790 H   0  0  0  0  0  0  0  0  0  0  0  0
  -10.7890   -2.2730  -22.2590 C   0  0  0  0  0  0  0  0  0  0  0  0
  -11.2350   -3.4070  -21.5650 C   0  0  0  0  0  0  0  0  0  0  0  0
  -12.5630   -3.4900  -21.1820 C   0  0  0  0  0  0  0  0  0  0  0  0
  -12.9500   -4.4250  -20.3010 F   0  0  0  0  0  0  0  0  0  0  0  0
  -13.5310   -2.5960  -21.6130 C   0  0  0  0  0  0  0  0  0  0  0  0
  -13.1140   -1.5160  -22.3570 C   0  0  0  0  0  0  0  0  0  0  0  0
  -11.7590   -1.3250  -22.6250 C   0  0  0  0  0  0  0  0  0  0  0  0
  -11.3640   -0.0440  -23.2850 C   0  0  0  0  0  0  0  0  0  0  0  0
  -12.1110    0.9240  -23.3080 O   0  0  0  0  0  0  0  0  0  0  0  0
  -13.8300   -0.8040  -22.7520 H   0  0  0  0  0  0  0  0  0  0  0  0
  -14.5660   -2.7440  -21.3270 H   0  0  0  0  0  0  0  0  0  0  0  0
  -10.5670   -4.1920  -21.2320 H   0  0  0  0  0  0  0  0  0  0  0  0
   -9.5910   -1.8890  -24.6870 H   0  0  0  0  0  0  0  0  0  0  0  0
   -8.2480   -0.8790  -24.0920 H   0  0  0  0  0  0  0  0  0  0  0  0
  -10.4950    1.8650  -24.5360 H   0  0  0  0  0  0  0  0  0  0  0  0
   -9.3980    0.9270  -25.5660 H   0  0  0  0  0  0  0  0  0  0  0  0
   -9.5970    2.4050  -22.2020 H   0  0  0  0  0  0  0  0  0  0  0  0
   -7.0930    2.2800  -21.4020 H   0  0  0  0  0  0  0  0  0  0  0  0
   -7.9280    3.8490  -21.2870 H   0  0  0  0  0  0  0  0  0  0  0  0
   -6.8890    3.5210  -22.6650 H   0  0  0  0  0  0  0  0  0  0  0  0
  1  2  1  0  0  0  0
  1 64  1  0  0  0  0
  1 65  1  0  0  0  0
  1 66  1  0  0  0  0
  2  3  1  0  0  0  0
  2 63  1  0  0  0  0
  3  4  2  0  0  0  0
  3  5  1  0  0  0  0
  5  6  1  0  0  0  0
  5 61  1  0  0  0  0
  5 62  1  0  0  0  0
  6  7  1  0  0  0  0
  6 54  1  0  0  0  0
  7  8  1  0  0  0  0
  7 59  1  0  0  0  0
  7 60  1  0  0  0  0
  8  9  1  1  0  0  0
  8 29  1  0  0  0  0
  8 47  1  0  0  0  0
  9 10  2  0  0  0  0
  9 11  1  0  0  0  0
 11 12  1  0  0  0  0
 11 28  1  0  0  0  0
 12 13  2  0  0  0  0
 12 21  1  0  0  0  0
 13 14  1  0  0  0  0
 13 27  1  0  0  0  0
 14 15  2  0  0  0  0
 15 16  1  0  0  0  0
 15 26  1  0  0  0  0
 16 17  2  0  0  0  0
 16 21  1  0  0  0  0
 17 18  1  0  0  0  0
 17 25  1  0  0  0  0
 18 19  2  0  0  0  0
 18 24  1  0  0  0  0
 19 20  1  0  0  0  0
 19 23  1  0  0  0  0
 20 21  2  0  0  0  0
 20 22  1  0  0  0  0
 28 29  1  0  0  0  0
 28 45  1  0  0  0  0
 28 46  1  0  0  0  0
 29 30  1  0  0  0  0
 29 44  1  1  0  0  0
 30 31  1  0  0  0  0
 30 42  1  0  0  0  0
 30 43  1  0  0  0  0
 31 32  1  0  0  0  0
 32 33  1  0  0  0  0
 32 37  1  0  0  0  0
 32 41  1  0  0  0  0
 33 34  1  0  0  0  0
 33 35  1  0  0  0  0
 33 36  1  0  0  0  0
 37 38  1  0  0  0  0
 37 39  1  0  0  0  0
 37 40  1  0  0  0  0
 47 48  2  0  0  0  0
 47 53  1  0  0  0  0
 48 49  1  0  0  0  0
 48 58  1  0  0  0  0
 49 50  1  0  0  0  0
 49 51  2  0  0  0  0
 51 52  1  0  0  0  0
 51 57  1  0  0  0  0
 52 53  2  0  0  0  0
 52 56  1  0  0  0  0
 53 54  1  0  0  0  0
 54 55  2  0  0  0  0
M  END
>  <MODEL>
       1

$$$$
