output/tmp_first_model_14_80.pdb
 OpenBabel07242620283D

 60 65  0  0  1  0  0  0  0  0999 V2000
   -7.1190    0.8460  -26.6800 C   0  0  0  0  0  0  0  0  0  0  0  0
   -8.3050    0.1200  -26.2830 N   0  0  0  0  0  0  0  0  0  0  0  0
   -8.2120   -1.2280  -26.1290 C   0  0  0  0  0  0  0  0  0  0  0  0
   -7.1320   -1.8030  -26.1880 O   0  0  0  0  0  0  0  0  0  0  0  0
   -9.5270   -1.9460  -25.8820 C   0  0  0  0  0  0  0  0  0  0  0  0
   -9.9950   -2.0000  -24.5100 N   0  0  0  0  0  0  0  0  0  0  0  0
   -9.3830   -1.2630  -23.4050 C   0  0  0  0  0  0  0  0  0  0  0  0
   -9.1630   -2.1260  -22.2310 C   0  0  2  0  0  0  0  0  0  0  0  0
   -8.5660   -1.2950  -20.9940 C   0  0  0  0  0  0  0  0  0  0  0  0
   -8.9800   -0.1030  -20.8030 O   0  0  0  0  0  0  0  0  0  0  0  0
   -7.1180   -1.3920  -21.2740 N   0  0  0  0  0  0  0  0  0  0  0  0
   -6.3810   -0.8330  -20.2240 C   0  0  0  0  0  0  0  0  0  0  0  0
   -6.7830   -0.9440  -18.9040 C   0  0  0  0  0  0  0  0  0  0  0  0
   -6.1500   -0.3890  -17.8520 N   0  0  0  0  0  0  0  0  0  0  0  0
   -5.0800    0.3260  -18.0970 C   0  0  0  0  0  0  0  0  0  0  0  0
   -4.5890    0.5770  -19.4120 C   0  0  0  0  0  0  0  0  0  0  0  0
   -3.4780    1.4170  -19.6690 C   0  0  0  0  0  0  0  0  0  0  0  0
   -3.1050    1.7040  -20.9530 C   0  0  0  0  0  0  0  0  0  0  0  0
   -3.8220    1.1780  -22.0480 C   0  0  0  0  0  0  0  0  0  0  0  0
   -4.8870    0.3390  -21.8340 C   0  0  0  0  0  0  0  0  0  0  0  0
   -5.2680    0.0040  -20.5110 C   0  0  0  0  0  0  0  0  0  0  0  0
   -5.4690   -0.0500  -22.6680 H   0  0  0  0  0  0  0  0  0  0  0  0
   -3.5360    1.4490  -23.0580 H   0  0  0  0  0  0  0  0  0  0  0  0
   -2.2620    2.3620  -21.1380 H   0  0  0  0  0  0  0  0  0  0  0  0
   -2.9440    1.8390  -18.8240 H   0  0  0  0  0  0  0  0  0  0  0  0
   -4.5780    0.7590  -17.2330 H   0  0  0  0  0  0  0  0  0  0  0  0
   -7.6870   -1.4900  -18.6420 H   0  0  0  0  0  0  0  0  0  0  0  0
   -6.7720   -2.6300  -21.9600 C   0  0  0  0  0  0  0  0  0  0  0  0
   -8.1690   -3.2670  -22.3530 C   0  0  2  0  0  0  0  0  0  0  0  0
   -8.0340   -3.9800  -23.7060 C   0  0  0  0  0  0  0  0  0  0  0  0
   -9.0120   -4.3330  -24.0440 H   0  0  0  0  0  0  0  0  0  0  0  0
   -7.3590   -4.8390  -23.6280 H   0  0  0  0  0  0  0  0  0  0  0  0
   -7.6160   -3.3000  -24.4570 H   0  0  0  0  0  0  0  0  0  0  0  0
   -8.4020   -4.0120  -21.5730 H   0  0  0  0  0  0  0  0  0  0  0  0
   -6.1590   -2.4050  -22.8510 H   0  0  0  0  0  0  0  0  0  0  0  0
   -6.1580   -3.3050  -21.3360 H   0  0  0  0  0  0  0  0  0  0  0  0
  -10.6060   -2.4510  -21.7740 C   0  0  0  0  0  0  0  0  0  0  0  0
  -10.5360   -2.7110  -21.7740 C   0  0  0  0  0  0  0  0  0  0  0  0
  -12.9480   -3.3090  -21.0770 C   0  0  0  0  0  0  0  0  0  0  0  0
  -13.8270   -4.2310  -23.5490 Cl  0  0  0  0  0  0  0  0  0  0  0  0
  -13.0910   -3.3720  -20.9840 C   0  0  0  0  0  0  0  0  0  0  0  0
  -12.9820   -3.0250  -22.5040 C   0  0  0  0  0  0  0  0  0  0  0  0
  -11.5680   -2.6850  -22.9040 C   0  0  0  0  0  0  0  0  0  0  0  0
  -10.9310   -2.9480  -24.1190 C   0  0  0  0  0  0  0  0  0  0  0  0
  -11.1950   -3.9070  -24.8370 O   0  0  0  0  0  0  0  0  0  0  0  0
  -13.4930   -2.0930  -22.7320 H   0  0  0  0  0  0  0  0  0  0  0  0
  -13.5700   -4.4110  -21.0780 H   0  0  0  0  0  0  0  0  0  0  0  0
   -8.6000   -1.9490  -20.0480 H   0  0  0  0  0  0  0  0  0  0  0  0
   -8.4060   -0.9090  -23.7060 H   0  0  0  0  0  0  0  0  0  0  0  0
   -9.9240   -0.3770  -23.0460 H   0  0  0  0  0  0  0  0  0  0  0  0
   -9.7350   -3.0290  -26.9160 C   0  0  0  0  0  0  0  0  0  0  0  0
  -10.5610   -1.7790  -26.9580 C   0  0  0  0  0  0  0  0  0  0  0  0
  -11.5970   -1.8270  -26.6440 H   0  0  0  0  0  0  0  0  0  0  0  0
  -10.3470   -1.0960  -27.7740 H   0  0  0  0  0  0  0  0  0  0  0  0
  -10.2100   -3.9580  -26.6360 H   0  0  0  0  0  0  0  0  0  0  0  0
   -8.9430   -3.1000  -27.6560 H   0  0  0  0  0  0  0  0  0  0  0  0
   -9.2170    0.4730  -26.5350 H   0  0  0  0  0  0  0  0  0  0  0  0
   -6.8030    0.5870  -27.6990 H   0  0  0  0  0  0  0  0  0  0  0  0
   -7.3090    1.9190  -26.6160 H   0  0  0  0  0  0  0  0  0  0  0  0
   -6.3040    0.5820  -26.0010 H   0  0  0  0  0  0  0  0  0  0  0  0
  1  2  1  0  0  0  0
  1 58  1  0  0  0  0
  1 59  1  0  0  0  0
  1 60  1  0  0  0  0
  2  3  1  0  0  0  0
  2 57  1  0  0  0  0
  3  4  2  0  0  0  0
  3  5  1  0  0  0  0
  5  6  1  0  0  0  0
  5 51  1  0  0  0  0
  5 52  1  0  0  0  0
  6  7  1  0  0  0  0
  6 44  1  0  0  0  0
  7  8  1  0  0  0  0
  7 49  1  0  0  0  0
  7 50  1  0  0  0  0
  8  9  1  1  0  0  0
  8 29  1  0  0  0  0
  8 37  1  0  0  0  0
  9 10  2  0  0  0  0
  9 11  1  0  0  0  0
 11 12  1  0  0  0  0
 11 28  1  0  0  0  0
 12 13  2  0  0  0  0
 12 21  1  0  0  0  0
 13 14  1  0  0  0  0
 13 27  1  0  0  0  0
 14 15  2  0  0  0  0
 15 16  1  0  0  0  0
 15 26  1  0  0  0  0
 16 17  2  0  0  0  0
 16 21  1  0  0  0  0
 17 18  1  0  0  0  0
 17 25  1  0  0  0  0
 18 19  2  0  0  0  0
 18 24  1  0  0  0  0
 19 20  1  0  0  0  0
 19 23  1  0  0  0  0
 20 21  2  0  0  0  0
 20 22  1  0  0  0  0
 28 29  1  0  0  0  0
 28 35  1  0  0  0  0
 28 36  1  0  0  0  0
 29 30  1  0  0  0  0
 29 34  1  1  0  0  0
 30 31  1  0  0  0  0
 30 32  1  0  0  0  0
 30 33  1  0  0  0  0
 37 38  2  0  0  0  0
 37 43  1  0  0  0  0
 38 39  1  0  0  0  0
 38 48  1  0  0  0  0
 39 40  1  0  0  0  0
 39 41  2  0  0  0  0
 41 42  1  0  0  0  0
 41 47  1  0  0  0  0
 42 43  2  0  0  0  0
 42 46  1  0  0  0  0
 43 44  1  0  0  0  0
 44 45  2  0  0  0  0
 51 52  1  0  0  0  0
 51 55  1  0  0  0  0
 51 56  1  0  0  0  0
 52 53  1  0  0  0  0
 52 54  1  0  0  0  0
M  END
>  <MODEL>
       1

$$$$
