output/tmp_first_model_20_79.pdb
 OpenBabel07242623363D

 45 49  0  0  0  0  0  0  0  0999 V2000
  -10.5690   -2.7150  -22.4870 C   0  0  0  0  0  0  0  0  0  0  0  0
   -9.1740   -2.4540  -22.1700 N   0  0  0  0  0  0  0  0  0  0  0  0
   -8.7650   -1.3930  -21.3980 C   0  0  0  0  0  0  0  0  0  0  0  0
   -9.4460   -0.4800  -20.9950 O   0  0  0  0  0  0  0  0  0  0  0  0
   -7.3680   -1.5400  -21.2140 N   0  0  0  0  0  0  0  0  0  0  0  0
   -6.5990   -0.8670  -20.2020 C   0  0  0  0  0  0  0  0  0  0  0  0
   -6.9100   -1.0610  -18.8770 C   0  0  0  0  0  0  0  0  0  0  0  0
   -6.2110   -0.5430  -17.8360 N   0  0  0  0  0  0  0  0  0  0  0  0
   -5.1740    0.2060  -18.0990 C   0  0  0  0  0  0  0  0  0  0  0  0
   -4.7440    0.5220  -19.4150 C   0  0  0  0  0  0  0  0  0  0  0  0
   -3.6120    1.3560  -19.6390 C   0  0  0  0  0  0  0  0  0  0  0  0
   -3.2220    1.6610  -20.9130 C   0  0  0  0  0  0  0  0  0  0  0  0
   -3.9540    1.1450  -22.0070 C   0  0  0  0  0  0  0  0  0  0  0  0
   -5.0480    0.3390  -21.8130 C   0  0  0  0  0  0  0  0  0  0  0  0
   -5.4750   -0.0160  -20.5030 C   0  0  0  0  0  0  0  0  0  0  0  0
   -5.6000   -0.0410  -22.6650 H   0  0  0  0  0  0  0  0  0  0  0  0
   -3.6490    1.4000  -23.0160 H   0  0  0  0  0  0  0  0  0  0  0  0
   -2.3670    2.3070  -21.0950 H   0  0  0  0  0  0  0  0  0  0  0  0
   -3.0740    1.7510  -18.7800 H   0  0  0  0  0  0  0  0  0  0  0  0
   -4.6230    0.6070  -17.2460 H   0  0  0  0  0  0  0  0  0  0  0  0
   -7.7550   -1.6810  -18.5960 H   0  0  0  0  0  0  0  0  0  0  0  0
   -6.8690   -2.5240  -22.0650 C   0  0  0  0  0  0  0  0  0  0  0  0
   -5.7050   -2.8070  -22.2280 O   0  0  0  0  0  0  0  0  0  0  0  0
   -8.0670   -3.1540  -22.7640 C   0  0  0  0  0  0  0  0  0  0  0  0
   -7.9930   -3.2320  -24.3120 C   0  0  0  0  0  0  0  0  0  0  0  0
   -7.9500   -4.7160  -24.2590 N   0  0  0  0  0  0  0  0  0  0  0  0
   -9.2120   -5.5450  -25.0260 S   0  0  0  0  0  0  0  0  0  0  0  0
  -10.4630   -4.8800  -24.6700 O   0  0  0  0  0  0  0  0  0  0  0  0
   -9.0100   -6.9460  -24.7290 O   0  0  0  0  0  0  0  0  0  0  0  0
   -9.0120   -5.2800  -26.7720 C   0  0  0  0  0  0  0  0  0  0  0  0
   -9.7680   -4.1430  -27.4110 C   0  0  0  0  0  0  0  0  0  0  0  0
  -10.2440   -5.5500  -27.6080 C   0  0  0  0  0  0  0  0  0  0  0  0
  -10.0960   -6.0220  -28.5780 H   0  0  0  0  0  0  0  0  0  0  0  0
  -11.1440   -5.8740  -27.0850 H   0  0  0  0  0  0  0  0  0  0  0  0
   -9.2880   -3.6440  -28.2490 H   0  0  0  0  0  0  0  0  0  0  0  0
  -10.3440   -3.4930  -26.7520 H   0  0  0  0  0  0  0  0  0  0  0  0
   -8.0300   -5.5690  -27.1380 H   0  0  0  0  0  0  0  0  0  0  0  0
   -8.0650   -4.6940  -22.7580 C   0  0  0  0  0  0  0  0  0  0  0  0
   -7.1850   -5.1260  -22.2840 H   0  0  0  0  0  0  0  0  0  0  0  0
   -8.9770   -5.1380  -22.3520 H   0  0  0  0  0  0  0  0  0  0  0  0
   -8.8520   -2.8120  -24.8460 H   0  0  0  0  0  0  0  0  0  0  0  0
   -7.0670   -2.8410  -24.7300 H   0  0  0  0  0  0  0  0  0  0  0  0
  -10.7680   -2.5480  -23.5530 H   0  0  0  0  0  0  0  0  0  0  0  0
  -11.1580   -2.0210  -21.8870 H   0  0  0  0  0  0  0  0  0  0  0  0
  -10.8460   -3.7480  -22.2390 H   0  0  0  0  0  0  0  0  0  0  0  0
  1  2  1  0  0  0  0
  1 43  1  0  0  0  0
  1 44  1  0  0  0  0
  1 45  1  0  0  0  0
  2  3  1  0  0  0  0
  2 24  1  0  0  0  0
  3  4  2  0  0  0  0
  3  5  1  0  0  0  0
  5  6  1  0  0  0  0
  5 22  1  0  0  0  0
  6  7  2  0  0  0  0
  6 15  1  0  0  0  0
  7  8  1  0  0  0  0
  7 21  1  0  0  0  0
  8  9  2  0  0  0  0
  9 10  1  0  0  0  0
  9 20  1  0  0  0  0
 10 11  2  0  0  0  0
 10 15  1  0  0  0  0
 11 12  1  0  0  0  0
 11 19  1  0  0  0  0
 12 13  2  0  0  0  0
 12 18  1  0  0  0  0
 13 14  1  0  0  0  0
 13 17  1  0  0  0  0
 14 15  2  0  0  0  0
 14 16  1  0  0  0  0
 22 23  2  0  0  0  0
 22 24  1  0  0  0  0
 24 25  1  0  0  0  0
 24 38  1  0  0  0  0
 25 26  1  0  0  0  0
 25 41  1  0  0  0  0
 25 42  1  0  0  0  0
 26 27  1  0  0  0  0
 26 38  1  0  0  0  0
 27 28  2  0  0  0  0
 27 29  2  0  0  0  0
 27 30  1  0  0  0  0
 30 31  1  0  0  0  0
 30 32  1  0  0  0  0
 30 37  1  0  0  0  0
 31 32  1  0  0  0  0
 31 35  1  0  0  0  0
 31 36  1  0  0  0  0
 32 33  1  0  0  0  0
 32 34  1  0  0  0  0
 38 39  1  0  0  0  0
 38 40  1  0  0  0  0
M  END
>  <MODEL>
       1

$$$$
