output/tmp_first_model_5_43.pdb
 OpenBabel07242615323D

 67 72  0  0  1  0  0  0  0  0999 V2000
   -8.1080    4.6240  -24.2200 C   0  0  0  0  0  0  0  0  0  0  0  0
   -8.1550    3.4000  -24.9910 N   0  0  0  0  0  0  0  0  0  0  0  0
   -7.1870    2.4570  -24.8570 C   0  0  0  0  0  0  0  0  0  0  0  0
   -6.1230    2.6550  -24.2910 O   0  0  0  0  0  0  0  0  0  0  0  0
   -7.5180    1.1050  -25.5290 C   0  0  0  0  0  0  0  0  0  0  0  0
   -8.4250    0.2740  -24.7350 N   0  0  0  0  0  0  0  0  0  0  0  0
   -7.9540   -1.0410  -24.3110 C   0  0  0  0  0  0  0  0  0  0  0  0
   -8.7500   -1.6220  -23.0960 C   0  0  2  0  0  0  0  0  0  0  0  0
   -8.3270   -0.8660  -21.7980 C   0  0  0  0  0  0  0  0  0  0  0  0
   -8.7430    0.2000  -21.4070 O   0  0  0  0  0  0  0  0  0  0  0  0
   -7.3720   -1.6260  -21.1420 N   0  0  0  0  0  0  0  0  0  0  0  0
   -6.4750   -1.1370  -20.1450 C   0  0  0  0  0  0  0  0  0  0  0  0
   -6.5760   -1.6090  -18.8580 C   0  0  0  0  0  0  0  0  0  0  0  0
   -5.6250   -1.4520  -17.9040 N   0  0  0  0  0  0  0  0  0  0  0  0
   -4.5360   -0.8020  -18.2360 C   0  0  0  0  0  0  0  0  0  0  0  0
   -4.3440   -0.1670  -19.4910 C   0  0  0  0  0  0  0  0  0  0  0  0
   -3.2180    0.6660  -19.7380 C   0  0  0  0  0  0  0  0  0  0  0  0
   -3.1680    1.4450  -20.8580 C   0  0  0  0  0  0  0  0  0  0  0  0
   -4.1810    1.3390  -21.8410 C   0  0  0  0  0  0  0  0  0  0  0  0
   -5.2600    0.5130  -21.6400 C   0  0  0  0  0  0  0  0  0  0  0  0
   -5.3710   -0.2680  -20.4570 C   0  0  0  0  0  0  0  0  0  0  0  0
   -6.0830    0.5120  -22.3470 H   0  0  0  0  0  0  0  0  0  0  0  0
   -4.1140    1.9140  -22.7560 H   0  0  0  0  0  0  0  0  0  0  0  0
   -2.3350    2.1240  -21.0070 H   0  0  0  0  0  0  0  0  0  0  0  0
   -2.4730    0.7520  -18.9550 H   0  0  0  0  0  0  0  0  0  0  0  0
   -3.7510   -0.7120  -17.4820 H   0  0  0  0  0  0  0  0  0  0  0  0
   -7.4820   -2.1190  -18.5280 H   0  0  0  0  0  0  0  0  0  0  0  0
   -7.0520   -2.8580  -21.8400 C   0  0  0  0  0  0  0  0  0  0  0  0
   -8.2600   -3.0580  -22.7640 C   0  0  2  0  0  0  0  0  0  0  0  0
   -7.9360   -3.9470  -23.9750 C   0  0  0  0  0  0  0  0  0  0  0  0
   -7.7050   -5.3240  -23.6150 N   0  0  0  0  0  0  0  0  0  0  0  0
   -6.4990   -5.7970  -23.1730 C   0  0  0  0  0  0  0  0  0  0  0  0
   -4.9610   -5.3470  -23.8630 S   0  0  0  0  0  0  0  0  0  0  0  0
   -4.1980   -6.3560  -22.6680 C   0  0  0  0  0  0  0  0  0  0  0  0
   -4.9950   -6.9660  -21.8570 N   0  0  0  0  0  0  0  0  0  0  0  0
   -6.3080   -6.6780  -22.1460 C   0  0  0  0  0  0  0  0  0  0  0  0
   -7.4350   -7.2650  -21.3640 C   0  0  0  0  0  0  0  0  0  0  0  0
   -8.1140   -7.8340  -22.0150 H   0  0  0  0  0  0  0  0  0  0  0  0
   -8.0190   -6.4660  -20.8880 H   0  0  0  0  0  0  0  0  0  0  0  0
   -7.0400   -7.9130  -20.5830 H   0  0  0  0  0  0  0  0  0  0  0  0
   -3.1180   -6.4360  -22.6170 H   0  0  0  0  0  0  0  0  0  0  0  0
   -8.5220   -5.8710  -23.3920 H   0  0  0  0  0  0  0  0  0  0  0  0
   -7.0190   -3.5790  -24.4510 H   0  0  0  0  0  0  0  0  0  0  0  0
   -8.7590   -3.8990  -24.6990 H   0  0  0  0  0  0  0  0  0  0  0  0
   -9.0420   -3.5350  -22.1620 H   0  0  0  0  0  0  0  0  0  0  0  0
   -6.9160   -3.6880  -21.1400 H   0  0  0  0  0  0  0  0  0  0  0  0
   -6.1170   -2.7750  -22.4190 H   0  0  0  0  0  0  0  0  0  0  0  0
  -10.2410   -1.4720  -23.3790 C   0  0  0  0  0  0  0  0  0  0  0  0
  -11.2130   -2.3130  -22.8160 C   0  0  0  0  0  0  0  0  0  0  0  0
  -12.5560   -2.0930  -23.0750 C   0  0  0  0  0  0  0  0  0  0  0  0
  -13.7520   -3.1150  -22.3400 Cl  0  0  0  0  0  0  0  0  0  0  0  0
  -12.9890   -1.0490  -23.8830 C   0  0  0  0  0  0  0  0  0  0  0  0
  -12.0490   -0.1980  -24.4110 C   0  0  0  0  0  0  0  0  0  0  0  0
  -10.6920   -0.4100  -24.1790 C   0  0  0  0  0  0  0  0  0  0  0  0
   -9.7540    0.5520  -24.8320 C   0  0  0  0  0  0  0  0  0  0  0  0
  -10.1680    1.5330  -25.4550 O   0  0  0  0  0  0  0  0  0  0  0  0
  -12.3450    0.6580  -25.0030 H   0  0  0  0  0  0  0  0  0  0  0  0
  -14.0480   -0.9050  -24.0500 H   0  0  0  0  0  0  0  0  0  0  0  0
  -10.9460   -3.1250  -22.1490 H   0  0  0  0  0  0  0  0  0  0  0  0
   -6.8940   -0.9540  -24.0400 H   0  0  0  0  0  0  0  0  0  0  0  0
   -8.0180   -1.7310  -25.1650 H   0  0  0  0  0  0  0  0  0  0  0  0
   -7.9900    1.2880  -26.5030 H   0  0  0  0  0  0  0  0  0  0  0  0
   -6.5710    0.5720  -25.6750 H   0  0  0  0  0  0  0  0  0  0  0  0
   -9.0400    3.0920  -25.3800 H   0  0  0  0  0  0  0  0  0  0  0  0
   -8.5620    4.5020  -23.2250 H   0  0  0  0  0  0  0  0  0  0  0  0
   -7.0600    4.9040  -24.0900 H   0  0  0  0  0  0  0  0  0  0  0  0
   -8.6400    5.4110  -24.7640 H   0  0  0  0  0  0  0  0  0  0  0  0
  1  2  1  0  0  0  0
  1 65  1  0  0  0  0
  1 66  1  0  0  0  0
  1 67  1  0  0  0  0
  2  3  1  0  0  0  0
  2 64  1  0  0  0  0
  3  4  2  0  0  0  0
  3  5  1  0  0  0  0
  5  6  1  0  0  0  0
  5 62  1  0  0  0  0
  5 63  1  0  0  0  0
  6  7  1  0  0  0  0
  6 55  1  0  0  0  0
  7  8  1  0  0  0  0
  7 60  1  0  0  0  0
  7 61  1  0  0  0  0
  8  9  1  1  0  0  0
  8 29  1  0  0  0  0
  8 48  1  0  0  0  0
  9 10  2  0  0  0  0
  9 11  1  0  0  0  0
 11 12  1  0  0  0  0
 11 28  1  0  0  0  0
 12 13  2  0  0  0  0
 12 21  1  0  0  0  0
 13 14  1  0  0  0  0
 13 27  1  0  0  0  0
 14 15  2  0  0  0  0
 15 16  1  0  0  0  0
 15 26  1  0  0  0  0
 16 17  2  0  0  0  0
 16 21  1  0  0  0  0
 17 18  1  0  0  0  0
 17 25  1  0  0  0  0
 18 19  2  0  0  0  0
 18 24  1  0  0  0  0
 19 20  1  0  0  0  0
 19 23  1  0  0  0  0
 20 21  2  0  0  0  0
 20 22  1  0  0  0  0
 28 29  1  0  0  0  0
 28 46  1  0  0  0  0
 28 47  1  0  0  0  0
 29 30  1  0  0  0  0
 29 45  1  1  0  0  0
 30 31  1  0  0  0  0
 30 43  1  0  0  0  0
 30 44  1  0  0  0  0
 31 32  1  0  0  0  0
 31 42  1  0  0  0  0
 32 33  1  0  0  0  0
 32 36  2  0  0  0  0
 33 34  1  0  0  0  0
 34 35  2  0  0  0  0
 34 41  1  0  0  0  0
 35 36  1  0  0  0  0
 36 37  1  0  0  0  0
 37 38  1  0  0  0  0
 37 39  1  0  0  0  0
 37 40  1  0  0  0  0
 48 49  2  0  0  0  0
 48 54  1  0  0  0  0
 49 50  1  0  0  0  0
 49 59  1  0  0  0  0
 50 51  1  0  0  0  0
 50 52  2  0  0  0  0
 52 53  1  0  0  0  0
 52 58  1  0  0  0  0
 53 54  2  0  0  0  0
 53 57  1  0  0  0  0
 54 55  1  0  0  0  0
 55 56  2  0  0  0  0
M  END
>  <MODEL>
       1

$$$$
