output/tmp_first_model_6_31.pdb
 OpenBabel07242616043D

 66 71  0  0  1  0  0  0  0  0999 V2000
   -8.4280    2.8210  -28.3230 C   0  0  0  0  0  0  0  0  0  0  0  0
   -8.5640    2.7960  -26.8760 N   0  0  0  0  0  0  0  0  0  0  0  0
   -7.8050    1.9060  -26.1700 C   0  0  0  0  0  0  0  0  0  0  0  0
   -6.9020    1.2530  -26.6650 O   0  0  0  0  0  0  0  0  0  0  0  0
   -8.1280    1.8290  -24.6730 C   0  0  0  0  0  0  0  0  0  0  0  0
   -9.0220    0.7410  -24.3230 N   0  0  0  0  0  0  0  0  0  0  0  0
   -8.4950   -0.6000  -24.1440 C   0  0  0  0  0  0  0  0  0  0  0  0
   -9.1020   -1.2980  -22.8860 C   0  0  2  0  0  0  0  0  0  0  0  0
   -8.5730   -0.6130  -21.5980 C   0  0  0  0  0  0  0  0  0  0  0  0
   -9.0980    0.2920  -20.9890 O   0  0  0  0  0  0  0  0  0  0  0  0
   -7.3880   -1.2250  -21.2480 N   0  0  0  0  0  0  0  0  0  0  0  0
   -6.6040   -0.7200  -20.1780 C   0  0  0  0  0  0  0  0  0  0  0  0
   -6.9170   -1.0460  -18.8830 C   0  0  0  0  0  0  0  0  0  0  0  0
   -6.2190   -0.6350  -17.7970 N   0  0  0  0  0  0  0  0  0  0  0  0
   -5.1880    0.1490  -17.9960 C   0  0  0  0  0  0  0  0  0  0  0  0
   -4.7600    0.5840  -19.2820 C   0  0  0  0  0  0  0  0  0  0  0  0
   -3.6490    1.4540  -19.4490 C   0  0  0  0  0  0  0  0  0  0  0  0
   -3.2740    1.8660  -20.7000 C   0  0  0  0  0  0  0  0  0  0  0  0
   -3.9910    1.4310  -21.8360 C   0  0  0  0  0  0  0  0  0  0  0  0
   -5.0680    0.5890  -21.6990 C   0  0  0  0  0  0  0  0  0  0  0  0
   -5.4820    0.1400  -20.4150 C   0  0  0  0  0  0  0  0  0  0  0  0
   -5.6080    0.2600  -22.5820 H   0  0  0  0  0  0  0  0  0  0  0  0
   -3.6880    1.7590  -22.8260 H   0  0  0  0  0  0  0  0  0  0  0  0
   -2.4260    2.5340  -20.8310 H   0  0  0  0  0  0  0  0  0  0  0  0
   -3.1130    1.7910  -18.5650 H   0  0  0  0  0  0  0  0  0  0  0  0
   -4.6340    0.4820  -17.1160 H   0  0  0  0  0  0  0  0  0  0  0  0
   -7.7760   -1.6810  -18.6810 H   0  0  0  0  0  0  0  0  0  0  0  0
   -7.0800   -2.3770  -22.0840 C   0  0  0  0  0  0  0  0  0  0  0  0
   -8.4800   -2.7340  -22.6540 C   0  0  2  0  0  0  0  0  0  0  0  0
   -8.4540   -3.7450  -23.8500 C   0  0  0  0  0  0  0  0  0  0  0  0
   -7.6600   -4.8960  -23.5920 N   0  0  0  0  0  0  0  0  0  0  0  0
   -8.2770   -6.0980  -23.7510 C   0  0  0  0  0  0  0  0  0  0  0  0
   -9.7090   -6.1780  -24.2470 C   0  0  0  0  0  0  0  0  0  0  0  0
   -9.5900   -5.9400  -24.2100 C   0  0  0  0  0  0  0  0  0  0  0  0
   -9.4860   -8.7230  -23.5940 N   0  0  0  0  0  0  0  0  0  0  0  0
   -8.2990   -8.3890  -23.4740 C   0  0  0  0  0  0  0  0  0  0  0  0
   -7.5770   -7.1440  -23.4950 N   0  0  0  0  0  0  0  0  0  0  0  0
   -7.5550   -9.1950  -23.2700 H   0  0  0  0  0  0  0  0  0  0  0  0
  -10.0690   -5.5130  -25.1600 H   0  0  0  0  0  0  0  0  0  0  0  0
  -10.5260   -5.4750  -23.7480 H   0  0  0  0  0  0  0  0  0  0  0  0
   -6.7980   -4.8830  -23.0790 H   0  0  0  0  0  0  0  0  0  0  0  0
   -8.0160   -3.1690  -24.6990 H   0  0  0  0  0  0  0  0  0  0  0  0
   -9.4410   -4.0560  -24.1270 H   0  0  0  0  0  0  0  0  0  0  0  0
   -9.0100   -3.1830  -21.8050 H   0  0  0  0  0  0  0  0  0  0  0  0
   -6.3810   -2.1120  -22.8940 H   0  0  0  0  0  0  0  0  0  0  0  0
   -6.6110   -3.1700  -21.4930 H   0  0  0  0  0  0  0  0  0  0  0  0
  -10.6080   -1.1330  -22.9600 C   0  0  0  0  0  0  0  0  0  0  0  0
  -11.4450   -1.9020  -22.1410 C   0  0  0  0  0  0  0  0  0  0  0  0
  -12.8200   -1.8060  -22.2930 C   0  0  0  0  0  0  0  0  0  0  0  0
  -13.8570   -2.8750  -21.3900 Cl  0  0  0  0  0  0  0  0  0  0  0  0
  -13.4040   -0.8660  -23.1410 C   0  0  0  0  0  0  0  0  0  0  0  0
  -12.5810    0.0060  -23.8250 C   0  0  0  0  0  0  0  0  0  0  0  0
  -11.1960   -0.1060  -23.7260 C   0  0  0  0  0  0  0  0  0  0  0  0
  -10.3650    0.9530  -24.3860 C   0  0  0  0  0  0  0  0  0  0  0  0
  -10.8520    1.9520  -24.9080 O   0  0  0  0  0  0  0  0  0  0  0  0
  -12.9870    0.7970  -24.4430 H   0  0  0  0  0  0  0  0  0  0  0  0
  -14.4850   -0.8140  -23.2310 H   0  0  0  0  0  0  0  0  0  0  0  0
  -11.0470   -2.4960  -21.3260 H   0  0  0  0  0  0  0  0  0  0  0  0
   -8.7230   -1.2050  -25.0320 H   0  0  0  0  0  0  0  0  0  0  0  0
   -7.4070   -0.5100  -24.0740 H   0  0  0  0  0  0  0  0  0  0  0  0
   -8.5770    2.7650  -24.3290 H   0  0  0  0  0  0  0  0  0  0  0  0
   -7.1830    1.6750  -24.1450 H   0  0  0  0  0  0  0  0  0  0  0  0
   -9.4960    2.9410  -26.5030 H   0  0  0  0  0  0  0  0  0  0  0  0
   -7.3870    3.0250  -28.5840 H   0  0  0  0  0  0  0  0  0  0  0  0
   -9.0610    3.6150  -28.7280 H   0  0  0  0  0  0  0  0  0  0  0  0
   -8.7060    1.8650  -28.7880 H   0  0  0  0  0  0  0  0  0  0  0  0
  1  2  1  0  0  0  0
  1 64  1  0  0  0  0
  1 65  1  0  0  0  0
  1 66  1  0  0  0  0
  2  3  1  0  0  0  0
  2 63  1  0  0  0  0
  3  4  2  0  0  0  0
  3  5  1  0  0  0  0
  5  6  1  0  0  0  0
  5 61  1  0  0  0  0
  5 62  1  0  0  0  0
  6  7  1  0  0  0  0
  6 54  1  0  0  0  0
  7  8  1  0  0  0  0
  7 59  1  0  0  0  0
  7 60  1  0  0  0  0
  8  9  1  1  0  0  0
  8 29  1  0  0  0  0
  8 47  1  0  0  0  0
  9 10  2  0  0  0  0
  9 11  1  0  0  0  0
 11 12  1  0  0  0  0
 11 28  1  0  0  0  0
 12 13  2  0  0  0  0
 12 21  1  0  0  0  0
 13 14  1  0  0  0  0
 13 27  1  0  0  0  0
 14 15  2  0  0  0  0
 15 16  1  0  0  0  0
 15 26  1  0  0  0  0
 16 17  2  0  0  0  0
 16 21  1  0  0  0  0
 17 18  1  0  0  0  0
 17 25  1  0  0  0  0
 18 19  2  0  0  0  0
 18 24  1  0  0  0  0
 19 20  1  0  0  0  0
 19 23  1  0  0  0  0
 20 21  2  0  0  0  0
 20 22  1  0  0  0  0
 28 29  1  0  0  0  0
 28 45  1  0  0  0  0
 28 46  1  0  0  0  0
 29 30  1  0  0  0  0
 29 44  1  1  0  0  0
 30 31  1  0  0  0  0
 30 42  1  0  0  0  0
 30 43  1  0  0  0  0
 31 32  1  0  0  0  0
 31 41  1  0  0  0  0
 32 33  2  0  0  0  0
 32 37  1  0  0  0  0
 33 34  1  0  0  0  0
 33 40  1  0  0  0  0
 34 35  2  0  0  0  0
 34 39  1  0  0  0  0
 35 36  1  0  0  0  0
 36 37  2  0  0  0  0
 36 38  1  0  0  0  0
 47 48  2  0  0  0  0
 47 53  1  0  0  0  0
 48 49  1  0  0  0  0
 48 58  1  0  0  0  0
 49 50  1  0  0  0  0
 49 51  2  0  0  0  0
 51 52  1  0  0  0  0
 51 57  1  0  0  0  0
 52 53  2  0  0  0  0
 52 56  1  0  0  0  0
 53 54  1  0  0  0  0
 54 55  2  0  0  0  0
M  END
>  <MODEL>
       1

$$$$
