output/tmp_first_model_16_84.pdb
 OpenBabel07242621343D

 63 68  0  0  1  0  0  0  0  0999 V2000
   -8.4110   -3.9980  -23.8750 C   0  0  0  0  0  0  0  0  0  0  0  0
   -8.5350   -3.1020  -22.6460 C   0  0  1  0  0  0  0  0  0  0  0  0
   -7.1690   -2.5540  -22.2060 C   0  0  0  0  0  0  0  0  0  0  0  0
   -7.5300   -1.4640  -21.3300 N   0  0  0  0  0  0  0  0  0  0  0  0
   -6.7020   -1.0060  -20.2720 C   0  0  0  0  0  0  0  0  0  0  0  0
   -6.9830   -1.3360  -18.9690 C   0  0  0  0  0  0  0  0  0  0  0  0
   -6.2200   -0.9730  -17.9130 N   0  0  0  0  0  0  0  0  0  0  0  0
   -5.1600   -0.2370  -18.1390 C   0  0  0  0  0  0  0  0  0  0  0  0
   -4.7540    0.1820  -19.4360 C   0  0  0  0  0  0  0  0  0  0  0  0
   -3.6300    1.0260  -19.6320 C   0  0  0  0  0  0  0  0  0  0  0  0
   -3.3250    1.4950  -20.8810 C   0  0  0  0  0  0  0  0  0  0  0  0
   -4.1070    1.1110  -21.9900 C   0  0  0  0  0  0  0  0  0  0  0  0
   -5.1470    0.2220  -21.8330 C   0  0  0  0  0  0  0  0  0  0  0  0
   -5.5330   -0.2300  -20.5440 C   0  0  0  0  0  0  0  0  0  0  0  0
   -5.7190   -0.1020  -22.6980 H   0  0  0  0  0  0  0  0  0  0  0  0
   -3.9160    1.5620  -22.9600 H   0  0  0  0  0  0  0  0  0  0  0  0
   -2.4880    2.1730  -21.0250 H   0  0  0  0  0  0  0  0  0  0  0  0
   -3.0510    1.3190  -18.7600 H   0  0  0  0  0  0  0  0  0  0  0  0
   -4.5760    0.0820  -17.2730 H   0  0  0  0  0  0  0  0  0  0  0  0
   -7.8600   -1.9330  -18.7300 H   0  0  0  0  0  0  0  0  0  0  0  0
   -8.8010   -0.9860  -21.5650 C   0  0  0  0  0  0  0  0  0  0  0  0
   -9.3130   -0.0550  -20.9760 O   0  0  0  0  0  0  0  0  0  0  0  0
   -9.4450   -1.8310  -22.7110 C   0  0  1  0  0  0  0  0  0  0  0  0
   -9.2960   -1.0910  -24.0690 C   0  0  0  0  0  0  0  0  0  0  0  0
  -10.1450    0.0830  -24.1670 N   0  0  0  0  0  0  0  0  0  0  0  0
   -9.6350    1.3350  -24.7090 C   0  0  0  0  0  0  0  0  0  0  0  0
   -9.1860    2.2580  -23.5740 C   0  0  0  0  0  0  0  0  0  0  0  0
   -9.8940    3.1650  -23.1660 O   0  0  0  0  0  0  0  0  0  0  0  0
   -7.9790    1.9540  -23.0140 N   0  0  0  0  0  0  0  0  0  0  0  0
   -7.5440    2.6220  -21.8010 C   0  0  0  0  0  0  0  0  0  0  0  0
   -6.9760    3.9850  -22.0910 C   0  0  0  0  0  0  0  0  0  0  0  0
   -5.7470    3.8320  -22.7250 F   0  0  0  0  0  0  0  0  0  0  0  0
   -7.7600    5.1620  -22.5400 C   0  0  0  0  0  0  0  0  0  0  0  0
   -7.0490    5.1870  -21.2080 C   0  0  0  0  0  0  0  0  0  0  0  0
   -6.1460    5.7860  -21.1420 H   0  0  0  0  0  0  0  0  0  0  0  0
   -7.6450    5.1610  -20.2980 H   0  0  0  0  0  0  0  0  0  0  0  0
   -8.8400    5.0700  -22.5440 H   0  0  0  0  0  0  0  0  0  0  0  0
   -7.3260    5.6940  -23.3810 H   0  0  0  0  0  0  0  0  0  0  0  0
   -6.7810    2.0190  -21.2990 H   0  0  0  0  0  0  0  0  0  0  0  0
   -8.3880    2.6370  -21.1200 H   0  0  0  0  0  0  0  0  0  0  0  0
   -7.2740    1.4620  -23.5410 H   0  0  0  0  0  0  0  0  0  0  0  0
  -10.4600    1.8370  -25.2190 H   0  0  0  0  0  0  0  0  0  0  0  0
   -8.8120    1.1470  -25.4100 H   0  0  0  0  0  0  0  0  0  0  0  0
  -11.4600    0.0550  -23.8000 C   0  0  0  0  0  0  0  0  0  0  0  0
  -12.2500    0.9280  -24.1360 O   0  0  0  0  0  0  0  0  0  0  0  0
  -11.8750   -1.0960  -22.9430 C   0  0  0  0  0  0  0  0  0  0  0  0
  -13.2210   -1.1520  -22.5770 C   0  0  0  0  0  0  0  0  0  0  0  0
  -13.6740   -2.1170  -21.7040 C   0  0  0  0  0  0  0  0  0  0  0  0
  -12.7460   -3.0300  -21.2220 C   0  0  0  0  0  0  0  0  0  0  0  0
  -13.1640   -3.9200  -20.3090 F   0  0  0  0  0  0  0  0  0  0  0  0
  -11.4160   -3.0200  -21.6060 C   0  0  0  0  0  0  0  0  0  0  0  0
  -10.9360   -2.0230  -22.4610 C   0  0  0  0  0  0  0  0  0  0  0  0
  -10.7540   -3.7600  -21.1750 H   0  0  0  0  0  0  0  0  0  0  0  0
  -14.7020   -2.1560  -21.3620 H   0  0  0  0  0  0  0  0  0  0  0  0
  -13.8850   -0.3890  -22.9670 H   0  0  0  0  0  0  0  0  0  0  0  0
   -9.5530   -1.7920  -24.8740 H   0  0  0  0  0  0  0  0  0  0  0  0
   -8.2630   -0.7630  -24.2100 H   0  0  0  0  0  0  0  0  0  0  0  0
   -6.5910   -2.2100  -23.0820 H   0  0  0  0  0  0  0  0  0  0  0  0
   -6.5630   -3.2970  -21.6800 H   0  0  0  0  0  0  0  0  0  0  0  0
   -8.9000   -3.7110  -21.8100 H   0  0  0  0  0  0  0  0  0  0  0  0
   -7.9900   -3.4490  -24.7270 H   0  0  0  0  0  0  0  0  0  0  0  0
   -9.3730   -4.4240  -24.1780 H   0  0  0  0  0  0  0  0  0  0  0  0
   -7.7240   -4.8270  -23.6590 H   0  0  0  0  0  0  0  0  0  0  0  0
  1  2  1  0  0  0  0
  1 61  1  0  0  0  0
  1 62  1  0  0  0  0
  1 63  1  0  0  0  0
  2  3  1  0  0  0  0
  2 23  1  0  0  0  0
  2 60  1  1  0  0  0
  3  4  1  0  0  0  0
  3 58  1  0  0  0  0
  3 59  1  0  0  0  0
  4  5  1  0  0  0  0
  4 21  1  0  0  0  0
  5  6  2  0  0  0  0
  5 14  1  0  0  0  0
  6  7  1  0  0  0  0
  6 20  1  0  0  0  0
  7  8  2  0  0  0  0
  8  9  1  0  0  0  0
  8 19  1  0  0  0  0
  9 10  2  0  0  0  0
  9 14  1  0  0  0  0
 10 11  1  0  0  0  0
 10 18  1  0  0  0  0
 11 12  2  0  0  0  0
 11 17  1  0  0  0  0
 12 13  1  0  0  0  0
 12 16  1  0  0  0  0
 13 14  2  0  0  0  0
 13 15  1  0  0  0  0
 21 22  2  0  0  0  0
 23 21  1  1  0  0  0
 23 24  1  0  0  0  0
 23 52  1  0  0  0  0
 24 25  1  0  0  0  0
 24 56  1  0  0  0  0
 24 57  1  0  0  0  0
 25 26  1  0  0  0  0
 25 44  1  0  0  0  0
 26 27  1  0  0  0  0
 26 42  1  0  0  0  0
 26 43  1  0  0  0  0
 27 28  2  0  0  0  0
 27 29  1  0  0  0  0
 29 30  1  0  0  0  0
 29 41  1  0  0  0  0
 30 31  1  0  0  0  0
 30 39  1  0  0  0  0
 30 40  1  0  0  0  0
 31 32  1  0  0  0  0
 31 33  1  0  0  0  0
 31 34  1  0  0  0  0
 33 34  1  0  0  0  0
 33 37  1  0  0  0  0
 33 38  1  0  0  0  0
 34 35  1  0  0  0  0
 34 36  1  0  0  0  0
 44 45  2  0  0  0  0
 44 46  1  0  0  0  0
 46 47  2  0  0  0  0
 46 52  1  0  0  0  0
 47 48  1  0  0  0  0
 47 55  1  0  0  0  0
 48 49  2  0  0  0  0
 48 54  1  0  0  0  0
 49 50  1  0  0  0  0
 49 51  1  0  0  0  0
 51 52  2  0  0  0  0
 51 53  1  0  0  0  0
M  END
>  <MODEL>
       1

$$$$
