output/tmp_first_model_1_15.pdb
 OpenBabel07242613193D

 63 68  0  0  1  0  0  0  0  0999 V2000
   -9.5100   -8.0140  -24.6800 C   0  0  0  0  0  0  0  0  0  0  0  0
   -8.5350   -7.3720  -23.8120 N   0  0  0  0  0  0  0  0  0  0  0  0
   -7.2990   -7.0950  -24.3420 C   0  0  0  0  0  0  0  0  0  0  0  0
   -6.9010   -7.6430  -25.3510 O   0  0  0  0  0  0  0  0  0  0  0  0
   -6.4200   -6.0670  -23.6160 C   0  0  0  0  0  0  0  0  0  0  0  0
   -6.7350   -4.7060  -23.9920 N   0  0  0  0  0  0  0  0  0  0  0  0
   -7.9490   -4.1240  -23.4550 C   0  0  0  0  0  0  0  0  0  0  0  0
   -7.8080   -2.6260  -23.1760 C   0  0  2  0  0  0  0  0  0  0  0  0
   -6.8300   -2.4120  -22.0100 C   0  0  0  0  0  0  0  0  0  0  0  0
   -5.7650   -2.9670  -21.8170 O   0  0  0  0  0  0  0  0  0  0  0  0
   -7.3610   -1.4490  -21.1890 N   0  0  0  0  0  0  0  0  0  0  0  0
   -6.5830   -0.8450  -20.1840 C   0  0  0  0  0  0  0  0  0  0  0  0
   -6.9160   -1.0540  -18.8720 C   0  0  0  0  0  0  0  0  0  0  0  0
   -6.2310   -0.5560  -17.8200 N   0  0  0  0  0  0  0  0  0  0  0  0
   -5.1920    0.1990  -18.0940 C   0  0  0  0  0  0  0  0  0  0  0  0
   -4.7530    0.5090  -19.4140 C   0  0  0  0  0  0  0  0  0  0  0  0
   -3.6280    1.3450  -19.6330 C   0  0  0  0  0  0  0  0  0  0  0  0
   -3.2340    1.6490  -20.9060 C   0  0  0  0  0  0  0  0  0  0  0  0
   -3.9490    1.1430  -22.0140 C   0  0  0  0  0  0  0  0  0  0  0  0
   -5.0450    0.3340  -21.8350 C   0  0  0  0  0  0  0  0  0  0  0  0
   -5.4650   -0.0160  -20.5110 C   0  0  0  0  0  0  0  0  0  0  0  0
   -5.5880   -0.0310  -22.7080 H   0  0  0  0  0  0  0  0  0  0  0  0
   -3.6240    1.4050  -23.0170 H   0  0  0  0  0  0  0  0  0  0  0  0
   -2.3800    2.3000  -21.0720 H   0  0  0  0  0  0  0  0  0  0  0  0
   -3.1070    1.7420  -18.7670 H   0  0  0  0  0  0  0  0  0  0  0  0
   -4.6390    0.6080  -17.2500 H   0  0  0  0  0  0  0  0  0  0  0  0
   -7.7750   -1.6810  -18.6410 H   0  0  0  0  0  0  0  0  0  0  0  0
   -8.6740   -0.9790  -21.5650 C   0  0  0  0  0  0  0  0  0  0  0  0
   -9.1210   -1.9440  -22.6740 C   0  0  2  0  0  0  0  0  0  0  0  0
  -10.2240   -2.8720  -22.1160 C   0  0  0  0  0  0  0  0  0  0  0  0
  -10.9080   -3.6520  -23.1350 N   0  0  0  0  0  0  0  0  0  0  0  0
  -11.6120   -3.1890  -24.1930 C   0  0  0  0  0  0  0  0  0  0  0  0
  -12.0640   -4.2950  -24.8790 C   0  0  0  0  0  0  0  0  0  0  0  0
  -11.5670   -5.3790  -24.1470 C   0  0  0  0  0  0  0  0  0  0  0  0
  -10.8670   -4.9930  -23.0910 N   0  0  0  0  0  0  0  0  0  0  0  0
  -11.6940   -6.4300  -24.3580 H   0  0  0  0  0  0  0  0  0  0  0  0
  -12.6880   -4.3400  -25.7580 H   0  0  0  0  0  0  0  0  0  0  0  0
  -11.7220   -2.1250  -24.3760 H   0  0  0  0  0  0  0  0  0  0  0  0
  -10.9660   -2.2550  -21.5910 H   0  0  0  0  0  0  0  0  0  0  0  0
   -9.8070   -3.5790  -21.3940 H   0  0  0  0  0  0  0  0  0  0  0  0
   -9.5780   -1.4020  -23.5090 H   0  0  0  0  0  0  0  0  0  0  0  0
   -9.3480   -1.0190  -20.7120 H   0  0  0  0  0  0  0  0  0  0  0  0
   -8.6510    0.0690  -21.8930 H   0  0  0  0  0  0  0  0  0  0  0  0
   -7.2690   -1.9840  -24.4500 C   0  0  0  0  0  0  0  0  0  0  0  0
   -7.4910   -0.6320  -24.7290 C   0  0  0  0  0  0  0  0  0  0  0  0
   -6.9680   -0.0670  -25.8800 C   0  0  0  0  0  0  0  0  0  0  0  0
   -7.2550    1.6160  -26.2010 Cl  0  0  0  0  0  0  0  0  0  0  0  0
   -6.2230   -0.8100  -26.7920 C   0  0  0  0  0  0  0  0  0  0  0  0
   -5.9860   -2.1380  -26.5080 C   0  0  0  0  0  0  0  0  0  0  0  0
   -6.4810   -2.7170  -25.3420 C   0  0  0  0  0  0  0  0  0  0  0  0
   -6.1030   -4.1380  -25.0630 C   0  0  0  0  0  0  0  0  0  0  0  0
   -5.2720   -4.7320  -25.7380 O   0  0  0  0  0  0  0  0  0  0  0  0
   -5.4030   -2.7710  -27.1640 H   0  0  0  0  0  0  0  0  0  0  0  0
   -5.8290   -0.3510  -27.6910 H   0  0  0  0  0  0  0  0  0  0  0  0
   -8.0760   -0.0020  -24.0670 H   0  0  0  0  0  0  0  0  0  0  0  0
   -8.7960   -4.2610  -24.1340 H   0  0  0  0  0  0  0  0  0  0  0  0
   -8.1600   -4.6330  -22.5170 H   0  0  0  0  0  0  0  0  0  0  0  0
   -5.3840   -6.2410  -23.9100 H   0  0  0  0  0  0  0  0  0  0  0  0
   -6.5080   -6.1440  -22.5260 H   0  0  0  0  0  0  0  0  0  0  0  0
   -8.9460   -6.7370  -23.1430 H   0  0  0  0  0  0  0  0  0  0  0  0
   -9.0320   -8.8180  -25.2350 H   0  0  0  0  0  0  0  0  0  0  0  0
   -9.9340   -7.3230  -25.4250 H   0  0  0  0  0  0  0  0  0  0  0  0
  -10.3120   -8.4320  -24.0680 H   0  0  0  0  0  0  0  0  0  0  0  0
  1  2  1  0  0  0  0
  1 61  1  0  0  0  0
  1 62  1  0  0  0  0
  1 63  1  0  0  0  0
  2  3  1  0  0  0  0
  2 60  1  0  0  0  0
  3  4  2  0  0  0  0
  3  5  1  0  0  0  0
  5  6  1  0  0  0  0
  5 58  1  0  0  0  0
  5 59  1  0  0  0  0
  6  7  1  0  0  0  0
  6 51  1  0  0  0  0
  7  8  1  0  0  0  0
  7 56  1  0  0  0  0
  7 57  1  0  0  0  0
  8  9  1  1  0  0  0
  8 29  1  0  0  0  0
  8 44  1  0  0  0  0
  9 10  2  0  0  0  0
  9 11  1  0  0  0  0
 11 12  1  0  0  0  0
 11 28  1  0  0  0  0
 12 13  2  0  0  0  0
 12 21  1  0  0  0  0
 13 14  1  0  0  0  0
 13 27  1  0  0  0  0
 14 15  2  0  0  0  0
 15 16  1  0  0  0  0
 15 26  1  0  0  0  0
 16 17  2  0  0  0  0
 16 21  1  0  0  0  0
 17 18  1  0  0  0  0
 17 25  1  0  0  0  0
 18 19  2  0  0  0  0
 18 24  1  0  0  0  0
 19 20  1  0  0  0  0
 19 23  1  0  0  0  0
 20 21  2  0  0  0  0
 20 22  1  0  0  0  0
 28 29  1  0  0  0  0
 28 42  1  0  0  0  0
 28 43  1  0  0  0  0
 29 30  1  0  0  0  0
 29 41  1  6  0  0  0
 30 31  1  0  0  0  0
 30 39  1  0  0  0  0
 30 40  1  0  0  0  0
 31 32  1  0  0  0  0
 31 35  1  0  0  0  0
 32 33  2  0  0  0  0
 32 38  1  0  0  0  0
 33 34  1  0  0  0  0
 33 37  1  0  0  0  0
 34 35  2  0  0  0  0
 34 36  1  0  0  0  0
 44 45  2  0  0  0  0
 44 50  1  0  0  0  0
 45 46  1  0  0  0  0
 45 55  1  0  0  0  0
 46 47  1  0  0  0  0
 46 48  2  0  0  0  0
 48 49  1  0  0  0  0
 48 54  1  0  0  0  0
 49 50  2  0  0  0  0
 49 53  1  0  0  0  0
 50 51  1  0  0  0  0
 51 52  2  0  0  0  0
M  END
>  <MODEL>
       1

$$$$
