output/tmp_first_model_3_8.pdb
 OpenBabel07242614263D

 60 64  0  0  1  0  0  0  0  0999 V2000
  -14.4130   -0.5030  -22.7050 C   0  0  0  0  0  0  0  0  0  0  0  0
  -13.7410   -1.6820  -22.1820 N   0  0  0  0  0  0  0  0  0  0  0  0
  -12.8260   -2.3530  -22.9330 C   0  0  0  0  0  0  0  0  0  0  0  0
  -12.5410   -1.9980  -24.0650 O   0  0  0  0  0  0  0  0  0  0  0  0
  -12.1640   -3.5560  -22.2530 C   0  0  0  0  0  0  0  0  0  0  0  0
  -10.7600   -3.6950  -22.5950 N   0  0  0  0  0  0  0  0  0  0  0  0
   -9.7740   -3.1890  -21.6480 C   0  0  0  0  0  0  0  0  0  0  0  0
   -8.4800   -2.6920  -22.3310 C   0  0  2  0  0  0  0  0  0  0  0  0
   -7.4300   -2.5400  -21.2190 C   0  0  0  0  0  0  0  0  0  0  0  0
   -6.8960   -3.4400  -20.6030 O   0  0  0  0  0  0  0  0  0  0  0  0
   -7.1500   -1.2030  -21.0400 N   0  0  0  0  0  0  0  0  0  0  0  0
   -6.3260   -0.7240  -19.9910 C   0  0  0  0  0  0  0  0  0  0  0  0
   -6.6340   -0.9630  -18.6700 C   0  0  0  0  0  0  0  0  0  0  0  0
   -5.9920   -0.3830  -17.6210 N   0  0  0  0  0  0  0  0  0  0  0  0
   -5.0000    0.4300  -17.8990 C   0  0  0  0  0  0  0  0  0  0  0  0
   -4.5360    0.7060  -19.2150 C   0  0  0  0  0  0  0  0  0  0  0  0
   -3.4400    1.5730  -19.4490 C   0  0  0  0  0  0  0  0  0  0  0  0
   -3.0150    1.8400  -20.7200 C   0  0  0  0  0  0  0  0  0  0  0  0
   -3.6780    1.2490  -21.8150 C   0  0  0  0  0  0  0  0  0  0  0  0
   -4.7480    0.4090  -21.6160 C   0  0  0  0  0  0  0  0  0  0  0  0
   -5.2070    0.1180  -20.3020 C   0  0  0  0  0  0  0  0  0  0  0  0
   -5.2630   -0.0230  -22.4640 H   0  0  0  0  0  0  0  0  0  0  0  0
   -3.3460    1.4740  -22.8220 H   0  0  0  0  0  0  0  0  0  0  0  0
   -2.1670    2.4990  -20.8890 H   0  0  0  0  0  0  0  0  0  0  0  0
   -2.9710    2.0270  -18.5850 H   0  0  0  0  0  0  0  0  0  0  0  0
   -4.5000    0.9240  -17.0670 H   0  0  0  0  0  0  0  0  0  0  0  0
   -7.4470   -1.6350  -18.4010 H   0  0  0  0  0  0  0  0  0  0  0  0
   -8.0500   -0.3310  -21.7790 C   0  0  0  0  0  0  0  0  0  0  0  0
   -8.5610   -1.2390  -22.9150 C   0  0  2  0  0  0  0  0  0  0  0  0
   -9.9090   -0.8350  -23.5070 C   0  0  0  0  0  0  0  0  0  0  0  0
   -9.7730    0.2240  -24.4340 O   0  0  0  0  0  0  0  0  0  0  0  0
  -10.5320    0.0420  -25.6180 C   0  0  0  0  0  0  0  0  0  0  0  0
  -11.4750   -0.4840  -25.4220 H   0  0  0  0  0  0  0  0  0  0  0  0
   -9.9630   -0.5220  -26.3720 H   0  0  0  0  0  0  0  0  0  0  0  0
  -10.7470    1.0340  -26.0230 H   0  0  0  0  0  0  0  0  0  0  0  0
  -10.3610   -1.7000  -23.9910 H   0  0  0  0  0  0  0  0  0  0  0  0
  -10.6020   -0.5250  -22.7130 H   0  0  0  0  0  0  0  0  0  0  0  0
   -7.8340   -1.2060  -23.7370 H   0  0  0  0  0  0  0  0  0  0  0  0
   -7.5080    0.5360  -22.1600 H   0  0  0  0  0  0  0  0  0  0  0  0
   -8.8590    0.0330  -21.1210 H   0  0  0  0  0  0  0  0  0  0  0  0
   -8.0420   -3.7090  -23.3680 C   0  0  0  0  0  0  0  0  0  0  0  0
   -6.7220   -3.7320  -23.8410 C   0  0  0  0  0  0  0  0  0  0  0  0
   -6.3230   -4.6810  -24.7710 C   0  0  0  0  0  0  0  0  0  0  0  0
   -4.6700   -4.7180  -25.3210 Cl  0  0  0  0  0  0  0  0  0  0  0  0
   -7.2170   -5.6220  -25.2790 C   0  0  0  0  0  0  0  0  0  0  0  0
   -8.5270   -5.5720  -24.8490 C   0  0  0  0  0  0  0  0  0  0  0  0
   -8.9360   -4.6250  -23.9090 C   0  0  0  0  0  0  0  0  0  0  0  0
  -10.3700   -4.6460  -23.5070 C   0  0  0  0  0  0  0  0  0  0  0  0
  -11.1120   -5.4760  -23.9900 O   0  0  0  0  0  0  0  0  0  0  0  0
   -9.2680   -6.2690  -25.2230 H   0  0  0  0  0  0  0  0  0  0  0  0
   -6.8840   -6.3690  -25.9930 H   0  0  0  0  0  0  0  0  0  0  0  0
   -5.9910   -3.0260  -23.4660 H   0  0  0  0  0  0  0  0  0  0  0  0
   -9.5000   -3.9900  -20.9470 H   0  0  0  0  0  0  0  0  0  0  0  0
  -10.2040   -2.3590  -21.0770 H   0  0  0  0  0  0  0  0  0  0  0  0
  -12.7050   -4.4600  -22.5490 H   0  0  0  0  0  0  0  0  0  0  0  0
  -12.2590   -3.4410  -21.1690 H   0  0  0  0  0  0  0  0  0  0  0  0
  -14.1360   -2.1660  -21.3860 H   0  0  0  0  0  0  0  0  0  0  0  0
  -14.0900   -0.3930  -23.7440 H   0  0  0  0  0  0  0  0  0  0  0  0
  -15.5020   -0.6290  -22.6540 H   0  0  0  0  0  0  0  0  0  0  0  0
  -14.1060    0.4100  -22.1780 H   0  0  0  0  0  0  0  0  0  0  0  0
  1  2  1  0  0  0  0
  1 58  1  0  0  0  0
  1 59  1  0  0  0  0
  1 60  1  0  0  0  0
  2  3  1  0  0  0  0
  2 57  1  0  0  0  0
  3  4  2  0  0  0  0
  3  5  1  0  0  0  0
  5  6  1  0  0  0  0
  5 55  1  0  0  0  0
  5 56  1  0  0  0  0
  6  7  1  0  0  0  0
  6 48  1  0  0  0  0
  7  8  1  0  0  0  0
  7 53  1  0  0  0  0
  7 54  1  0  0  0  0
  8  9  1  1  0  0  0
  8 29  1  0  0  0  0
  8 41  1  0  0  0  0
  9 10  2  0  0  0  0
  9 11  1  0  0  0  0
 11 12  1  0  0  0  0
 11 28  1  0  0  0  0
 12 13  2  0  0  0  0
 12 21  1  0  0  0  0
 13 14  1  0  0  0  0
 13 27  1  0  0  0  0
 14 15  2  0  0  0  0
 15 16  1  0  0  0  0
 15 26  1  0  0  0  0
 16 17  2  0  0  0  0
 16 21  1  0  0  0  0
 17 18  1  0  0  0  0
 17 25  1  0  0  0  0
 18 19  2  0  0  0  0
 18 24  1  0  0  0  0
 19 20  1  0  0  0  0
 19 23  1  0  0  0  0
 20 21  2  0  0  0  0
 20 22  1  0  0  0  0
 28 29  1  0  0  0  0
 28 39  1  0  0  0  0
 28 40  1  0  0  0  0
 29 30  1  0  0  0  0
 29 38  1  6  0  0  0
 30 31  1  0  0  0  0
 30 36  1  0  0  0  0
 30 37  1  0  0  0  0
 31 32  1  0  0  0  0
 32 33  1  0  0  0  0
 32 34  1  0  0  0  0
 32 35  1  0  0  0  0
 41 42  2  0  0  0  0
 41 47  1  0  0  0  0
 42 43  1  0  0  0  0
 42 52  1  0  0  0  0
 43 44  1  0  0  0  0
 43 45  2  0  0  0  0
 45 46  1  0  0  0  0
 45 51  1  0  0  0  0
 46 47  2  0  0  0  0
 46 50  1  0  0  0  0
 47 48  1  0  0  0  0
 48 49  2  0  0  0  0
M  END
>  <MODEL>
       1

$$$$
