output/tmp_first_model_15_56.pdb
 OpenBabel07242621043D

 57 62  0  0  1  0  0  0  0  0999 V2000
  -10.3700   -0.7880  -23.5090 C   0  0  0  0  0  0  0  0  0  0  0  0
   -8.9820   -1.2470  -23.0730 C   0  0  1  0  0  0  0  0  0  0  0  0
   -8.4320   -0.3970  -21.9030 C   0  0  0  0  0  0  0  0  0  0  0  0
   -7.4430   -1.2670  -21.2950 N   0  0  0  0  0  0  0  0  0  0  0  0
   -6.6290   -0.8450  -20.2120 C   0  0  0  0  0  0  0  0  0  0  0  0
   -6.9300   -1.1580  -18.9110 C   0  0  0  0  0  0  0  0  0  0  0  0
   -6.2790   -0.6410  -17.8350 N   0  0  0  0  0  0  0  0  0  0  0  0
   -5.2800    0.1810  -18.0650 C   0  0  0  0  0  0  0  0  0  0  0  0
   -4.8140    0.5220  -19.3700 C   0  0  0  0  0  0  0  0  0  0  0  0
   -3.6910    1.3600  -19.5940 C   0  0  0  0  0  0  0  0  0  0  0  0
   -3.2680    1.6220  -20.8680 C   0  0  0  0  0  0  0  0  0  0  0  0
   -3.9410    1.0690  -21.9780 C   0  0  0  0  0  0  0  0  0  0  0  0
   -5.0380    0.2680  -21.7900 C   0  0  0  0  0  0  0  0  0  0  0  0
   -5.5010   -0.0120  -20.4800 C   0  0  0  0  0  0  0  0  0  0  0  0
   -5.5520   -0.1690  -22.6390 H   0  0  0  0  0  0  0  0  0  0  0  0
   -3.5920    1.2840  -22.9820 H   0  0  0  0  0  0  0  0  0  0  0  0
   -2.4080    2.2630  -21.0380 H   0  0  0  0  0  0  0  0  0  0  0  0
   -3.1840    1.7950  -18.7380 H   0  0  0  0  0  0  0  0  0  0  0  0
   -4.7740    0.6060  -17.1970 H   0  0  0  0  0  0  0  0  0  0  0  0
   -7.7380   -1.8500  -18.6820 H   0  0  0  0  0  0  0  0  0  0  0  0
   -7.6610   -2.5990  -21.5690 C   0  0  0  0  0  0  0  0  0  0  0  0
   -7.0200   -3.5070  -21.0850 O   0  0  0  0  0  0  0  0  0  0  0  0
   -8.8300   -2.7430  -22.5710 C   0  0  1  0  0  0  0  0  0  0  0  0
  -10.0430   -3.2370  -21.7260 C   0  0  0  0  0  0  0  0  0  0  0  0
  -11.1200   -3.8490  -22.4930 N   0  0  0  0  0  0  0  0  0  0  0  0
  -12.4960   -3.7380  -22.0240 C   0  0  0  0  0  0  0  0  0  0  0  0
  -13.1690   -2.5080  -22.5630 C   0  0  0  0  0  0  0  0  0  0  0  0
  -13.5360   -2.5590  -23.8490 N   0  0  0  0  0  0  0  0  0  0  0  0
  -14.2390   -1.5240  -24.2920 C   0  0  0  0  0  0  0  0  0  0  0  0
  -14.4710   -0.4160  -23.4970 C   0  0  0  0  0  0  0  0  0  0  0  0
  -13.9270   -0.4210  -22.2300 C   0  0  0  0  0  0  0  0  0  0  0  0
  -13.2880   -1.4790  -21.7330 N   0  0  0  0  0  0  0  0  0  0  0  0
  -13.9910    0.4680  -21.6090 H   0  0  0  0  0  0  0  0  0  0  0  0
  -14.9830    0.4680  -23.8280 H   0  0  0  0  0  0  0  0  0  0  0  0
  -14.6290   -1.5940  -25.3060 H   0  0  0  0  0  0  0  0  0  0  0  0
  -13.0230   -4.6130  -22.4050 H   0  0  0  0  0  0  0  0  0  0  0  0
  -12.5320   -3.7190  -20.9360 H   0  0  0  0  0  0  0  0  0  0  0  0
  -10.9350   -4.5180  -23.6660 C   0  0  0  0  0  0  0  0  0  0  0  0
  -11.8620   -5.0380  -24.2780 O   0  0  0  0  0  0  0  0  0  0  0  0
   -9.5380   -4.6030  -24.1590 C   0  0  0  0  0  0  0  0  0  0  0  0
   -9.2860   -5.5590  -25.1410 C   0  0  0  0  0  0  0  0  0  0  0  0
   -7.9980   -5.8260  -25.5580 C   0  0  0  0  0  0  0  0  0  0  0  0
   -6.9780   -5.0780  -24.9830 C   0  0  0  0  0  0  0  0  0  0  0  0
   -5.7100   -5.3590  -25.3230 F   0  0  0  0  0  0  0  0  0  0  0  0
   -7.2130   -4.0680  -24.0680 C   0  0  0  0  0  0  0  0  0  0  0  0
   -8.5180   -3.8100  -23.6200 C   0  0  0  0  0  0  0  0  0  0  0  0
   -6.3700   -3.5150  -23.6740 H   0  0  0  0  0  0  0  0  0  0  0  0
   -7.7710   -6.5920  -26.2920 H   0  0  0  0  0  0  0  0  0  0  0  0
  -10.1290   -6.1030  -25.5550 H   0  0  0  0  0  0  0  0  0  0  0  0
   -9.6450   -3.9400  -20.9810 H   0  0  0  0  0  0  0  0  0  0  0  0
  -10.4810   -2.3860  -21.1910 H   0  0  0  0  0  0  0  0  0  0  0  0
   -7.9660    0.5430  -22.2240 H   0  0  0  0  0  0  0  0  0  0  0  0
   -9.2260   -0.1420  -21.1750 H   0  0  0  0  0  0  0  0  0  0  0  0
   -8.2990   -1.1300  -23.9280 H   0  0  0  0  0  0  0  0  0  0  0  0
  -10.3230    0.2070  -23.9680 H   0  0  0  0  0  0  0  0  0  0  0  0
  -11.0460   -0.7260  -22.6520 H   0  0  0  0  0  0  0  0  0  0  0  0
  -10.8170   -1.4720  -24.2370 H   0  0  0  0  0  0  0  0  0  0  0  0
  1  2  1  0  0  0  0
  1 55  1  0  0  0  0
  1 56  1  0  0  0  0
  1 57  1  0  0  0  0
  2  3  1  0  0  0  0
  2 23  1  0  0  0  0
  2 54  1  6  0  0  0
  3  4  1  0  0  0  0
  3 52  1  0  0  0  0
  3 53  1  0  0  0  0
  4  5  1  0  0  0  0
  4 21  1  0  0  0  0
  5  6  2  0  0  0  0
  5 14  1  0  0  0  0
  6  7  1  0  0  0  0
  6 20  1  0  0  0  0
  7  8  2  0  0  0  0
  8  9  1  0  0  0  0
  8 19  1  0  0  0  0
  9 10  2  0  0  0  0
  9 14  1  0  0  0  0
 10 11  1  0  0  0  0
 10 18  1  0  0  0  0
 11 12  2  0  0  0  0
 11 17  1  0  0  0  0
 12 13  1  0  0  0  0
 12 16  1  0  0  0  0
 13 14  2  0  0  0  0
 13 15  1  0  0  0  0
 21 22  2  0  0  0  0
 23 21  1  1  0  0  0
 23 24  1  0  0  0  0
 23 46  1  0  0  0  0
 24 25  1  0  0  0  0
 24 50  1  0  0  0  0
 24 51  1  0  0  0  0
 25 26  1  0  0  0  0
 25 38  1  0  0  0  0
 26 27  1  0  0  0  0
 26 36  1  0  0  0  0
 26 37  1  0  0  0  0
 27 28  2  0  0  0  0
 27 32  1  0  0  0  0
 28 29  1  0  0  0  0
 29 30  2  0  0  0  0
 29 35  1  0  0  0  0
 30 31  1  0  0  0  0
 30 34  1  0  0  0  0
 31 32  2  0  0  0  0
 31 33  1  0  0  0  0
 38 39  2  0  0  0  0
 38 40  1  0  0  0  0
 40 41  2  0  0  0  0
 40 46  1  0  0  0  0
 41 42  1  0  0  0  0
 41 49  1  0  0  0  0
 42 43  2  0  0  0  0
 42 48  1  0  0  0  0
 43 44  1  0  0  0  0
 43 45  1  0  0  0  0
 45 46  2  0  0  0  0
 45 47  1  0  0  0  0
M  END
>  <MODEL>
       1

$$$$
