output/tmp_first_model_19_84.pdb
 OpenBabel07242623063D

 63 68  0  0  1  0  0  0  0  0999 V2000
   -8.2210   -3.6490  -23.9660 C   0  0  0  0  0  0  0  0  0  0  0  0
   -8.3730   -2.9100  -22.6430 C   0  0  1  0  0  0  0  0  0  0  0  0
   -7.0420   -2.4670  -22.0090 C   0  0  0  0  0  0  0  0  0  0  0  0
   -7.4370   -1.3310  -21.2030 N   0  0  0  0  0  0  0  0  0  0  0  0
   -6.6330   -0.7780  -20.1750 C   0  0  0  0  0  0  0  0  0  0  0  0
   -6.9500   -1.0100  -18.8600 C   0  0  0  0  0  0  0  0  0  0  0  0
   -6.2230   -0.5520  -17.8130 N   0  0  0  0  0  0  0  0  0  0  0  0
   -5.1730    0.1860  -18.0760 C   0  0  0  0  0  0  0  0  0  0  0  0
   -4.7220    0.4950  -19.3930 C   0  0  0  0  0  0  0  0  0  0  0  0
   -3.5870    1.3160  -19.6370 C   0  0  0  0  0  0  0  0  0  0  0  0
   -3.1960    1.6040  -20.9180 C   0  0  0  0  0  0  0  0  0  0  0  0
   -3.9130    1.0770  -22.0150 C   0  0  0  0  0  0  0  0  0  0  0  0
   -5.0170    0.2800  -21.8030 C   0  0  0  0  0  0  0  0  0  0  0  0
   -5.4590   -0.0220  -20.4840 C   0  0  0  0  0  0  0  0  0  0  0  0
   -5.6120   -0.0420  -22.6520 H   0  0  0  0  0  0  0  0  0  0  0  0
   -3.6200    1.3280  -23.0310 H   0  0  0  0  0  0  0  0  0  0  0  0
   -2.3490    2.2610  -21.0990 H   0  0  0  0  0  0  0  0  0  0  0  0
   -3.0640    1.7330  -18.7800 H   0  0  0  0  0  0  0  0  0  0  0  0
   -4.6140    0.5800  -17.2250 H   0  0  0  0  0  0  0  0  0  0  0  0
   -7.8220   -1.6090  -18.6040 H   0  0  0  0  0  0  0  0  0  0  0  0
   -8.6540   -0.7880  -21.5530 C   0  0  0  0  0  0  0  0  0  0  0  0
   -9.1270    0.2180  -21.0610 O   0  0  0  0  0  0  0  0  0  0  0  0
   -9.2750   -1.6390  -22.6880 C   0  0  1  0  0  0  0  0  0  0  0  0
   -9.1290   -0.8800  -24.0410 C   0  0  0  0  0  0  0  0  0  0  0  0
   -9.9820    0.2960  -24.1260 N   0  0  0  0  0  0  0  0  0  0  0  0
   -9.4380    1.4940  -24.7600 C   0  0  0  0  0  0  0  0  0  0  0  0
   -8.2090    1.9590  -23.9750 C   0  0  0  0  0  0  0  0  0  0  0  0
   -7.0680    1.6330  -24.2730 O   0  0  0  0  0  0  0  0  0  0  0  0
   -8.5140    2.6970  -22.8760 N   0  0  0  0  0  0  0  0  0  0  0  0
   -7.5440    2.8920  -21.8190 C   0  0  0  0  0  0  0  0  0  0  0  0
   -6.8770    4.2470  -21.8780 C   0  0  0  0  0  0  0  0  0  0  0  0
   -6.0080    4.2630  -22.9570 F   0  0  0  0  0  0  0  0  0  0  0  0
   -6.4020    5.1140  -20.7590 C   0  0  0  0  0  0  0  0  0  0  0  0
   -7.5280    5.5750  -21.6540 C   0  0  0  0  0  0  0  0  0  0  0  0
   -8.5300    5.6390  -21.2290 H   0  0  0  0  0  0  0  0  0  0  0  0
   -7.2860    6.3050  -22.4200 H   0  0  0  0  0  0  0  0  0  0  0  0
   -6.6550    4.9260  -19.7220 H   0  0  0  0  0  0  0  0  0  0  0  0
   -5.4190    5.5390  -20.9250 H   0  0  0  0  0  0  0  0  0  0  0  0
   -6.7890    2.1210  -21.9510 H   0  0  0  0  0  0  0  0  0  0  0  0
   -8.0490    2.6470  -20.8900 H   0  0  0  0  0  0  0  0  0  0  0  0
   -9.4840    2.8570  -22.6450 H   0  0  0  0  0  0  0  0  0  0  0  0
   -9.1370    1.2960  -25.7970 H   0  0  0  0  0  0  0  0  0  0  0  0
  -10.2390    2.2390  -24.7580 H   0  0  0  0  0  0  0  0  0  0  0  0
  -11.2790    0.2780  -23.6980 C   0  0  0  0  0  0  0  0  0  0  0  0
  -12.0490    1.2090  -23.8980 O   0  0  0  0  0  0  0  0  0  0  0  0
  -11.7050   -0.9690  -22.9690 C   0  0  0  0  0  0  0  0  0  0  0  0
  -13.0740   -1.1840  -22.8140 C   0  0  0  0  0  0  0  0  0  0  0  0
  -13.5380   -2.3060  -22.1590 C   0  0  0  0  0  0  0  0  0  0  0  0
  -12.6040   -3.1890  -21.6370 C   0  0  0  0  0  0  0  0  0  0  0  0
  -13.0670   -4.2760  -20.9980 F   0  0  0  0  0  0  0  0  0  0  0  0
  -11.2450   -2.9920  -21.7560 C   0  0  0  0  0  0  0  0  0  0  0  0
  -10.7630   -1.8850  -22.4680 C   0  0  0  0  0  0  0  0  0  0  0  0
  -10.5780   -3.6950  -21.2720 H   0  0  0  0  0  0  0  0  0  0  0  0
  -14.5880   -2.5240  -22.0300 H   0  0  0  0  0  0  0  0  0  0  0  0
  -13.7550   -0.4560  -23.2410 H   0  0  0  0  0  0  0  0  0  0  0  0
   -9.3670   -1.5540  -24.8770 H   0  0  0  0  0  0  0  0  0  0  0  0
   -8.0990   -0.5370  -24.1540 H   0  0  0  0  0  0  0  0  0  0  0  0
   -6.2910   -2.1880  -22.7650 H   0  0  0  0  0  0  0  0  0  0  0  0
   -6.5910   -3.2480  -21.3860 H   0  0  0  0  0  0  0  0  0  0  0  0
   -8.8340   -3.5780  -21.9130 H   0  0  0  0  0  0  0  0  0  0  0  0
   -7.6780   -3.0360  -24.6940 H   0  0  0  0  0  0  0  0  0  0  0  0
   -7.6690   -4.5850  -23.8460 H   0  0  0  0  0  0  0  0  0  0  0  0
   -9.2020   -3.8840  -24.3940 H   0  0  0  0  0  0  0  0  0  0  0  0
  1  2  1  0  0  0  0
  1 61  1  0  0  0  0
  1 62  1  0  0  0  0
  1 63  1  0  0  0  0
  2  3  1  0  0  0  0
  2 23  1  0  0  0  0
  2 60  1  1  0  0  0
  3  4  1  0  0  0  0
  3 58  1  0  0  0  0
  3 59  1  0  0  0  0
  4  5  1  0  0  0  0
  4 21  1  0  0  0  0
  5  6  2  0  0  0  0
  5 14  1  0  0  0  0
  6  7  1  0  0  0  0
  6 20  1  0  0  0  0
  7  8  2  0  0  0  0
  8  9  1  0  0  0  0
  8 19  1  0  0  0  0
  9 10  2  0  0  0  0
  9 14  1  0  0  0  0
 10 11  1  0  0  0  0
 10 18  1  0  0  0  0
 11 12  2  0  0  0  0
 11 17  1  0  0  0  0
 12 13  1  0  0  0  0
 12 16  1  0  0  0  0
 13 14  2  0  0  0  0
 13 15  1  0  0  0  0
 21 22  2  0  0  0  0
 23 21  1  1  0  0  0
 23 24  1  0  0  0  0
 23 52  1  0  0  0  0
 24 25  1  0  0  0  0
 24 56  1  0  0  0  0
 24 57  1  0  0  0  0
 25 26  1  0  0  0  0
 25 44  1  0  0  0  0
 26 27  1  0  0  0  0
 26 42  1  0  0  0  0
 26 43  1  0  0  0  0
 27 28  2  0  0  0  0
 27 29  1  0  0  0  0
 29 30  1  0  0  0  0
 29 41  1  0  0  0  0
 30 31  1  0  0  0  0
 30 39  1  0  0  0  0
 30 40  1  0  0  0  0
 31 32  1  0  0  0  0
 31 33  1  0  0  0  0
 31 34  1  0  0  0  0
 33 34  1  0  0  0  0
 33 37  1  0  0  0  0
 33 38  1  0  0  0  0
 34 35  1  0  0  0  0
 34 36  1  0  0  0  0
 44 45  2  0  0  0  0
 44 46  1  0  0  0  0
 46 47  2  0  0  0  0
 46 52  1  0  0  0  0
 47 48  1  0  0  0  0
 47 55  1  0  0  0  0
 48 49  2  0  0  0  0
 48 54  1  0  0  0  0
 49 50  1  0  0  0  0
 49 51  1  0  0  0  0
 51 52  2  0  0  0  0
 51 53  1  0  0  0  0
M  END
>  <MODEL>
       1

$$$$
