output/tmp_first_model_20_12.pdb
 OpenBabel07242623363D

 76 82  0  0  1  0  0  0  0  0999 V2000
  -10.2370    1.4550  -25.7090 O   0  0  0  0  0  0  0  0  0  0  0  0
   -9.9330    0.5130  -24.9840 C   0  0  0  0  0  0  0  0  0  0  0  0
  -10.9180   -0.0890  -24.0340 C   0  0  0  0  0  0  0  0  0  0  0  0
  -12.2290    0.3820  -24.0890 C   0  0  0  0  0  0  0  0  0  0  0  0
  -13.2000   -0.0940  -23.2300 C   0  0  0  0  0  0  0  0  0  0  0  0
  -12.8160   -1.0490  -22.2900 C   0  0  0  0  0  0  0  0  0  0  0  0
  -14.0100   -1.7540  -21.2410 Cl  0  0  0  0  0  0  0  0  0  0  0  0
  -11.5010   -1.4770  -22.1750 C   0  0  0  0  0  0  0  0  0  0  0  0
  -10.5220   -1.0280  -23.0710 C   0  0  0  0  0  0  0  0  0  0  0  0
   -9.0660   -1.4510  -22.9590 C   0  0  1  0  0  0  0  0  0  0  0  0
   -8.4120   -1.3080  -24.3630 C   0  0  0  0  0  0  0  0  0  0  0  0
   -8.6800   -0.0190  -24.9700 N   0  0  0  0  0  0  0  0  0  0  0  0
   -7.6490    0.7110  -25.6820 C   0  0  0  0  0  0  0  0  0  0  0  0
   -7.1410    1.8650  -24.8210 C   0  0  0  0  0  0  0  0  0  0  0  0
   -6.1270    2.6940  -25.5110 N   0  3  0  0  0  0  0  0  0  0  0  0
   -4.9000    1.9170  -25.9440 C   0  0  0  0  0  0  0  0  0  0  0  0
   -3.7590    2.9010  -26.2160 C   0  0  0  0  0  0  0  0  0  0  0  0
   -4.2950    4.1440  -26.6210 O   0  0  0  0  0  0  0  0  0  0  0  0
   -4.8430    4.8250  -25.5080 C   0  0  0  0  0  0  0  0  0  0  0  0
   -5.7680    3.9030  -24.6960 C   0  0  0  0  0  0  0  0  0  0  0  0
   -6.6910    4.4200  -24.4200 H   0  0  0  0  0  0  0  0  0  0  0  0
   -5.2830    3.5740  -23.7680 H   0  0  0  0  0  0  0  0  0  0  0  0
   -5.3870    5.6890  -25.9030 H   0  0  0  0  0  0  0  0  0  0  0  0
   -4.0370    5.1990  -24.8580 H   0  0  0  0  0  0  0  0  0  0  0  0
   -3.1330    3.0280  -25.3180 H   0  0  0  0  0  0  0  0  0  0  0  0
   -3.1190    2.5340  -27.0240 H   0  0  0  0  0  0  0  0  0  0  0  0
   -5.1500    1.3730  -26.8580 H   0  0  0  0  0  0  0  0  0  0  0  0
   -4.6260    1.1940  -25.1680 H   0  0  0  0  0  0  0  0  0  0  0  0
   -6.5620    3.0550  -26.3830 H   0  0  0  0  0  0  0  0  0  0  0  0
   -7.9900    2.5040  -24.5480 H   0  0  0  0  0  0  0  0  0  0  0  0
   -6.7220    1.4780  -23.8820 H   0  0  0  0  0  0  0  0  0  0  0  0
   -8.0900    1.0980  -26.6090 H   0  0  0  0  0  0  0  0  0  0  0  0
   -6.8430    0.0140  -25.9390 H   0  0  0  0  0  0  0  0  0  0  0  0
   -7.3280   -1.4450  -24.2790 H   0  0  0  0  0  0  0  0  0  0  0  0
   -8.8010   -2.1020  -25.0100 H   0  0  0  0  0  0  0  0  0  0  0  0
   -8.2990   -0.5460  -21.9690 C   0  0  0  0  0  0  0  0  0  0  0  0
   -8.3780    0.6610  -21.8610 O   0  0  0  0  0  0  0  0  0  0  0  0
   -7.4500   -1.3340  -21.2310 N   0  0  0  0  0  0  0  0  0  0  0  0
   -6.6210   -0.8160  -20.2170 C   0  0  0  0  0  0  0  0  0  0  0  0
   -6.9170   -1.0740  -18.9010 C   0  0  0  0  0  0  0  0  0  0  0  0
   -6.2270   -0.5810  -17.8480 N   0  0  0  0  0  0  0  0  0  0  0  0
   -5.1930    0.1800  -18.1120 C   0  0  0  0  0  0  0  0  0  0  0  0
   -4.7610    0.4990  -19.4310 C   0  0  0  0  0  0  0  0  0  0  0  0
   -3.6290    1.3270  -19.6490 C   0  0  0  0  0  0  0  0  0  0  0  0
   -3.2140    1.6100  -20.9230 C   0  0  0  0  0  0  0  0  0  0  0  0
   -3.9040    1.0730  -22.0320 C   0  0  0  0  0  0  0  0  0  0  0  0
   -5.0070    0.2710  -21.8460 C   0  0  0  0  0  0  0  0  0  0  0  0
   -5.4770   -0.0210  -20.5300 C   0  0  0  0  0  0  0  0  0  0  0  0
   -5.5300   -0.1250  -22.7100 H   0  0  0  0  0  0  0  0  0  0  0  0
   -3.5560    1.3000  -23.0380 H   0  0  0  0  0  0  0  0  0  0  0  0
   -2.3510    2.2470  -21.0830 H   0  0  0  0  0  0  0  0  0  0  0  0
   -3.1090    1.7260  -18.7840 H   0  0  0  0  0  0  0  0  0  0  0  0
   -4.6350    0.5880  -17.2680 H   0  0  0  0  0  0  0  0  0  0  0  0
   -7.7780   -1.6980  -18.6680 H   0  0  0  0  0  0  0  0  0  0  0  0
   -7.5210   -2.7360  -21.5460 C   0  0  0  0  0  0  0  0  0  0  0  0
   -8.8170   -2.8670  -22.3470 C   0  0  2  0  0  0  0  0  0  0  0  0
   -8.6950   -4.0380  -23.3120 C   0  0  0  0  0  0  0  0  0  0  0  0
   -9.9100   -4.2540  -24.0580 N   0  0  0  0  0  0  0  0  0  0  0  0
   -9.9820   -5.2270  -24.9980 C   0  0  0  0  0  0  0  0  0  0  0  0
  -11.1570   -5.3770  -25.6360 N   0  0  0  0  0  0  0  0  0  0  0  0
  -11.1630   -6.2460  -26.6370 C   0  0  0  0  0  0  0  0  0  0  0  0
  -10.0470   -6.9790  -27.0190 C   0  0  0  0  0  0  0  0  0  0  0  0
   -8.9200   -6.8230  -26.2260 C   0  0  0  0  0  0  0  0  0  0  0  0
   -8.8680   -5.9610  -25.2120 N   0  0  0  0  0  0  0  0  0  0  0  0
   -8.0120   -7.4060  -26.4100 H   0  0  0  0  0  0  0  0  0  0  0  0
  -10.0670   -7.6330  -27.8850 H   0  0  0  0  0  0  0  0  0  0  0  0
  -12.1010   -6.3760  -27.1800 H   0  0  0  0  0  0  0  0  0  0  0  0
  -10.7350   -3.6940  -23.8780 H   0  0  0  0  0  0  0  0  0  0  0  0
   -8.4550   -4.9550  -22.7580 H   0  0  0  0  0  0  0  0  0  0  0  0
   -7.8690   -3.8620  -24.0210 H   0  0  0  0  0  0  0  0  0  0  0  0
   -9.6330   -3.0850  -21.6470 H   0  0  0  0  0  0  0  0  0  0  0  0
   -6.6560   -3.0700  -22.1400 H   0  0  0  0  0  0  0  0  0  0  0  0
   -7.5290   -3.3330  -20.6370 H   0  0  0  0  0  0  0  0  0  0  0  0
  -11.2660   -2.1430  -21.3540 H   0  0  0  0  0  0  0  0  0  0  0  0
  -14.2200    0.2790  -23.2750 H   0  0  0  0  0  0  0  0  0  0  0  0
  -12.4420    1.1520  -24.8190 H   0  0  0  0  0  0  0  0  0  0  0  0
  1  2  2  0  0  0  0
  2  3  1  0  0  0  0
  2 12  1  0  0  0  0
  3  4  2  0  0  0  0
  3  9  1  0  0  0  0
  4  5  1  0  0  0  0
  4 76  1  0  0  0  0
  5  6  2  0  0  0  0
  5 75  1  0  0  0  0
  6  7  1  0  0  0  0
  6  8  1  0  0  0  0
  8  9  2  0  0  0  0
  8 74  1  0  0  0  0
 10  9  1  6  0  0  0
 10 11  1  0  0  0  0
 10 36  1  0  0  0  0
 10 56  1  0  0  0  0
 11 12  1  0  0  0  0
 11 34  1  0  0  0  0
 11 35  1  0  0  0  0
 12 13  1  0  0  0  0
 13 14  1  0  0  0  0
 13 32  1  0  0  0  0
 13 33  1  0  0  0  0
 14 15  1  0  0  0  0
 14 30  1  0  0  0  0
 14 31  1  0  0  0  0
 15 16  1  0  0  0  0
 15 20  1  0  0  0  0
 15 29  1  0  0  0  0
 16 17  1  0  0  0  0
 16 27  1  0  0  0  0
 16 28  1  0  0  0  0
 17 18  1  0  0  0  0
 17 25  1  0  0  0  0
 17 26  1  0  0  0  0
 18 19  1  0  0  0  0
 19 20  1  0  0  0  0
 19 23  1  0  0  0  0
 19 24  1  0  0  0  0
 20 21  1  0  0  0  0
 20 22  1  0  0  0  0
 36 37  2  0  0  0  0
 36 38  1  0  0  0  0
 38 39  1  0  0  0  0
 38 55  1  0  0  0  0
 39 40  2  0  0  0  0
 39 48  1  0  0  0  0
 40 41  1  0  0  0  0
 40 54  1  0  0  0  0
 41 42  2  0  0  0  0
 42 43  1  0  0  0  0
 42 53  1  0  0  0  0
 43 44  2  0  0  0  0
 43 48  1  0  0  0  0
 44 45  1  0  0  0  0
 44 52  1  0  0  0  0
 45 46  2  0  0  0  0
 45 51  1  0  0  0  0
 46 47  1  0  0  0  0
 46 50  1  0  0  0  0
 47 48  2  0  0  0  0
 47 49  1  0  0  0  0
 55 56  1  0  0  0  0
 55 72  1  0  0  0  0
 55 73  1  0  0  0  0
 56 57  1  0  0  0  0
 56 71  1  1  0  0  0
 57 58  1  0  0  0  0
 57 69  1  0  0  0  0
 57 70  1  0  0  0  0
 58 59  1  0  0  0  0
 58 68  1  0  0  0  0
 59 60  2  0  0  0  0
 59 64  1  0  0  0  0
 60 61  1  0  0  0  0
 61 62  2  0  0  0  0
 61 67  1  0  0  0  0
 62 63  1  0  0  0  0
 62 66  1  0  0  0  0
 63 64  2  0  0  0  0
 63 65  1  0  0  0  0
M  CHG  1  15   1
M  END
>  <MODEL>
       1

$$$$
