output/tmp_first_model_9_11.pdb
 OpenBabel07242617433D

 48 52  0  0  0  0  0  0  0  0999 V2000
  -10.0790   -0.7980  -23.6280 C   0  0  0  0  0  0  0  0  0  0  0  0
   -9.0630   -1.3450  -22.7540 N   0  0  0  0  0  0  0  0  0  0  0  0
   -8.3420   -0.5100  -21.9450 C   0  0  0  0  0  0  0  0  0  0  0  0
   -8.4520    0.6870  -21.8210 O   0  0  0  0  0  0  0  0  0  0  0  0
   -7.4240   -1.3140  -21.2630 N   0  0  0  0  0  0  0  0  0  0  0  0
   -6.6100   -0.8030  -20.2250 C   0  0  0  0  0  0  0  0  0  0  0  0
   -6.9410   -1.0540  -18.9210 C   0  0  0  0  0  0  0  0  0  0  0  0
   -6.2630   -0.5550  -17.8620 N   0  0  0  0  0  0  0  0  0  0  0  0
   -5.2340    0.2180  -18.1100 C   0  0  0  0  0  0  0  0  0  0  0  0
   -4.7750    0.5390  -19.4190 C   0  0  0  0  0  0  0  0  0  0  0  0
   -3.6400    1.3640  -19.6410 C   0  0  0  0  0  0  0  0  0  0  0  0
   -3.2130    1.6240  -20.9150 C   0  0  0  0  0  0  0  0  0  0  0  0
   -3.9120    1.0970  -22.0250 C   0  0  0  0  0  0  0  0  0  0  0  0
   -5.0260    0.3170  -21.8350 C   0  0  0  0  0  0  0  0  0  0  0  0
   -5.4830    0.0180  -20.5210 C   0  0  0  0  0  0  0  0  0  0  0  0
   -5.5660   -0.0750  -22.6890 H   0  0  0  0  0  0  0  0  0  0  0  0
   -3.5660    1.3070  -23.0360 H   0  0  0  0  0  0  0  0  0  0  0  0
   -2.3380    2.2450  -21.0880 H   0  0  0  0  0  0  0  0  0  0  0  0
   -3.1410    1.7960  -18.7780 H   0  0  0  0  0  0  0  0  0  0  0  0
   -4.7030    0.6190  -17.2470 H   0  0  0  0  0  0  0  0  0  0  0  0
   -7.8010   -1.6810  -18.6990 H   0  0  0  0  0  0  0  0  0  0  0  0
   -7.6280   -2.6610  -21.5180 C   0  0  0  0  0  0  0  0  0  0  0  0
   -6.9480   -3.5660  -21.1010 O   0  0  0  0  0  0  0  0  0  0  0  0
   -8.8320   -2.7370  -22.4480 C   0  0  0  0  0  0  0  0  0  0  0  0
  -10.0340   -3.5940  -21.9640 C   0  0  0  0  0  0  0  0  0  0  0  0
   -9.9120   -4.4670  -23.1820 N   0  0  0  0  0  0  0  0  0  0  0  0
  -11.1550   -4.4480  -24.3380 S   0  0  0  0  0  0  0  0  0  0  0  0
  -12.3210   -4.9990  -23.6800 O   0  0  0  0  0  0  0  0  0  0  0  0
  -11.2470   -3.1210  -24.9290 O   0  0  0  0  0  0  0  0  0  0  0  0
  -10.5130   -5.5490  -25.6030 C   0  0  0  0  0  0  0  0  0  0  0  0
  -10.3500   -6.8980  -25.3070 C   0  0  0  0  0  0  0  0  0  0  0  0
   -9.7660   -7.7360  -26.2520 C   0  0  0  0  0  0  0  0  0  0  0  0
   -9.3750   -7.2390  -27.4890 C   0  0  0  0  0  0  0  0  0  0  0  0
   -9.5430   -5.8860  -27.7740 C   0  0  0  0  0  0  0  0  0  0  0  0
  -10.1250   -5.0340  -26.8390 C   0  0  0  0  0  0  0  0  0  0  0  0
  -10.2970   -3.9760  -27.0390 H   0  0  0  0  0  0  0  0  0  0  0  0
   -9.2500   -5.5060  -28.7480 H   0  0  0  0  0  0  0  0  0  0  0  0
   -8.9650   -7.9070  -28.2450 H   0  0  0  0  0  0  0  0  0  0  0  0
   -9.6240   -8.7900  -26.0440 H   0  0  0  0  0  0  0  0  0  0  0  0
  -10.6750   -7.2960  -24.3550 H   0  0  0  0  0  0  0  0  0  0  0  0
   -8.6650   -3.7800  -23.5710 C   0  0  0  0  0  0  0  0  0  0  0  0
   -7.8380   -4.4510  -23.3470 H   0  0  0  0  0  0  0  0  0  0  0  0
   -8.6180   -3.4260  -24.6020 H   0  0  0  0  0  0  0  0  0  0  0  0
  -10.9930   -3.0910  -21.8170 H   0  0  0  0  0  0  0  0  0  0  0  0
   -9.7790   -4.1770  -21.0800 H   0  0  0  0  0  0  0  0  0  0  0  0
  -11.0820   -1.0050  -23.2430 H   0  0  0  0  0  0  0  0  0  0  0  0
   -9.9220    0.2820  -23.6400 H   0  0  0  0  0  0  0  0  0  0  0  0
   -9.9750   -1.2090  -24.6310 H   0  0  0  0  0  0  0  0  0  0  0  0
  1  2  1  0  0  0  0
  1 46  1  0  0  0  0
  1 47  1  0  0  0  0
  1 48  1  0  0  0  0
  2  3  1  0  0  0  0
  2 24  1  0  0  0  0
  3  4  2  0  0  0  0
  3  5  1  0  0  0  0
  5  6  1  0  0  0  0
  5 22  1  0  0  0  0
  6  7  2  0  0  0  0
  6 15  1  0  0  0  0
  7  8  1  0  0  0  0
  7 21  1  0  0  0  0
  8  9  2  0  0  0  0
  9 10  1  0  0  0  0
  9 20  1  0  0  0  0
 10 11  2  0  0  0  0
 10 15  1  0  0  0  0
 11 12  1  0  0  0  0
 11 19  1  0  0  0  0
 12 13  2  0  0  0  0
 12 18  1  0  0  0  0
 13 14  1  0  0  0  0
 13 17  1  0  0  0  0
 14 15  2  0  0  0  0
 14 16  1  0  0  0  0
 22 23  2  0  0  0  0
 22 24  1  0  0  0  0
 24 25  1  0  0  0  0
 24 41  1  0  0  0  0
 25 26  1  0  0  0  0
 25 44  1  0  0  0  0
 25 45  1  0  0  0  0
 26 27  1  0  0  0  0
 26 41  1  0  0  0  0
 27 28  2  0  0  0  0
 27 29  2  0  0  0  0
 27 30  1  0  0  0  0
 30 31  2  0  0  0  0
 30 35  1  0  0  0  0
 31 32  1  0  0  0  0
 31 40  1  0  0  0  0
 32 33  2  0  0  0  0
 32 39  1  0  0  0  0
 33 34  1  0  0  0  0
 33 38  1  0  0  0  0
 34 35  2  0  0  0  0
 34 37  1  0  0  0  0
 35 36  1  0  0  0  0
 41 42  1  0  0  0  0
 41 43  1  0  0  0  0
M  END
>  <MODEL>
       1

$$$$
