output/tmp_first_model_5_17.pdb
 OpenBabel07242615323D

 38 41  0  0  1  0  0  0  0  0999 V2000
  -10.8310   -4.6370  -22.9670 C   0  0  0  0  0  0  0  0  0  0  0  0
  -10.5860   -3.4070  -23.8370 C   0  0  2  0  0  0  0  0  0  0  0  0
   -9.4110   -3.6360  -24.7970 C   0  0  0  0  0  0  0  0  0  0  0  0
   -8.0940   -3.8600  -24.0430 C   0  0  0  0  0  0  0  0  0  0  0  0
   -7.9550   -2.8740  -22.9710 C   0  0  0  0  0  0  0  0  0  0  0  0
   -6.8040   -2.5970  -22.1590 C   0  0  0  0  0  0  0  0  0  0  0  0
   -5.6800   -3.0480  -22.1950 O   0  5  0  0  0  0  0  0  0  0  0  0
   -7.2640   -1.6030  -21.2540 N   0  0  0  0  0  0  0  0  0  0  0  0
   -6.4890   -1.0180  -20.2360 C   0  0  0  0  0  0  0  0  0  0  0  0
   -6.8130   -1.1910  -18.9120 C   0  0  0  0  0  0  0  0  0  0  0  0
   -5.9730   -0.9030  -17.8900 N   0  0  0  0  0  0  0  0  0  0  0  0
   -4.7930   -0.4220  -18.2100 C   0  0  0  0  0  0  0  0  0  0  0  0
   -4.4140   -0.0390  -19.5360 C   0  0  0  0  0  0  0  0  0  0  0  0
   -3.2370    0.7110  -19.8060 C   0  0  0  0  0  0  0  0  0  0  0  0
   -3.1180    1.4080  -20.9780 C   0  0  0  0  0  0  0  0  0  0  0  0
   -4.0660    1.2280  -22.0130 C   0  0  0  0  0  0  0  0  0  0  0  0
   -5.1070    0.3540  -21.8470 C   0  0  0  0  0  0  0  0  0  0  0  0
   -5.3350   -0.2470  -20.5750 C   0  0  0  0  0  0  0  0  0  0  0  0
   -5.7740    0.1200  -22.6700 H   0  0  0  0  0  0  0  0  0  0  0  0
   -3.9180    1.7210  -22.9680 H   0  0  0  0  0  0  0  0  0  0  0  0
   -2.2410    2.0160  -21.1670 H   0  0  0  0  0  0  0  0  0  0  0  0
   -2.5010    0.8320  -19.0200 H   0  0  0  0  0  0  0  0  0  0  0  0
   -4.1010   -0.2530  -17.3820 H   0  0  0  0  0  0  0  0  0  0  0  0
   -7.7880   -1.5780  -18.6150 H   0  0  0  0  0  0  0  0  0  0  0  0
   -8.5860   -1.2520  -21.5110 C   0  0  0  0  0  0  0  0  0  0  0  0
   -9.2250   -0.3850  -20.9640 O   0  0  0  0  0  0  0  0  0  0  0  0
   -8.9780   -2.0930  -22.5390 N   0  0  0  0  0  0  0  0  0  0  0  0
  -10.3520   -2.1370  -23.0190 C   0  0  0  0  0  0  0  0  0  0  0  0
  -10.5490   -1.2420  -23.6210 H   0  0  0  0  0  0  0  0  0  0  0  0
  -10.9970   -2.0940  -22.1370 H   0  0  0  0  0  0  0  0  0  0  0  0
   -7.2330   -3.7950  -24.7200 H   0  0  0  0  0  0  0  0  0  0  0  0
   -8.0470   -4.8690  -23.6050 H   0  0  0  0  0  0  0  0  0  0  0  0
   -9.6170   -4.4930  -25.4480 H   0  0  0  0  0  0  0  0  0  0  0  0
   -9.2970   -2.7580  -25.4390 H   0  0  0  0  0  0  0  0  0  0  0  0
  -11.4880   -3.2400  -24.4360 H   0  0  0  0  0  0  0  0  0  0  0  0
  -10.9030   -5.5170  -23.6120 H   0  0  0  0  0  0  0  0  0  0  0  0
  -10.0220   -4.8060  -22.2490 H   0  0  0  0  0  0  0  0  0  0  0  0
  -11.7610   -4.5540  -22.3980 H   0  0  0  0  0  0  0  0  0  0  0  0
  1  2  1  0  0  0  0
  1 36  1  0  0  0  0
  1 37  1  0  0  0  0
  1 38  1  0  0  0  0
  2  3  1  0  0  0  0
  2 28  1  0  0  0  0
  2 35  1  6  0  0  0
  3  4  1  0  0  0  0
  3 33  1  0  0  0  0
  3 34  1  0  0  0  0
  4  5  1  0  0  0  0
  4 31  1  0  0  0  0
  4 32  1  0  0  0  0
  5  6  2  0  0  0  0
  5 27  1  0  0  0  0
  6  7  1  0  0  0  0
  6  8  1  0  0  0  0
  8  9  1  0  0  0  0
  8 25  1  0  0  0  0
  9 10  2  0  0  0  0
  9 18  1  0  0  0  0
 10 11  1  0  0  0  0
 10 24  1  0  0  0  0
 11 12  2  0  0  0  0
 12 13  1  0  0  0  0
 12 23  1  0  0  0  0
 13 14  2  0  0  0  0
 13 18  1  0  0  0  0
 14 15  1  0  0  0  0
 14 22  1  0  0  0  0
 15 16  2  0  0  0  0
 15 21  1  0  0  0  0
 16 17  1  0  0  0  0
 16 20  1  0  0  0  0
 17 18  2  0  0  0  0
 17 19  1  0  0  0  0
 25 26  2  0  0  0  0
 25 27  1  0  0  0  0
 27 28  1  0  0  0  0
 28 29  1  0  0  0  0
 28 30  1  0  0  0  0
M  CHG  1   7  -1
M  END
>  <MODEL>
       1

$$$$
