output/tmp_first_model_20_85.pdb
 OpenBabel07242623363D

 57 62  0  0  1  0  0  0  0  0999 V2000
   -8.7790    1.1740  -29.4160 C   0  0  0  0  0  0  0  0  0  0  0  0
   -8.8780    1.4840  -27.9960 N   0  0  0  0  0  0  0  0  0  0  0  0
   -8.1930    0.6930  -27.1220 C   0  0  0  0  0  0  0  0  0  0  0  0
   -7.4780   -0.2330  -27.4820 O   0  0  0  0  0  0  0  0  0  0  0  0
   -8.3060    1.0800  -25.6480 C   0  0  0  0  0  0  0  0  0  0  0  0
   -9.1520    0.1950  -24.8840 N   0  0  0  0  0  0  0  0  0  0  0  0
   -8.6580   -1.1230  -24.5210 C   0  0  0  0  0  0  0  0  0  0  0  0
   -8.9650   -1.4820  -23.0460 C   0  0  2  0  0  0  0  0  0  0  0  0
   -8.1540   -0.5650  -22.0950 C   0  0  0  0  0  0  0  0  0  0  0  0
   -8.1740    0.6430  -22.0680 O   0  0  0  0  0  0  0  0  0  0  0  0
   -7.3840   -1.3470  -21.2540 N   0  0  0  0  0  0  0  0  0  0  0  0
   -6.5920   -0.8090  -20.2100 C   0  0  0  0  0  0  0  0  0  0  0  0
   -6.8980   -1.0610  -18.8950 C   0  0  0  0  0  0  0  0  0  0  0  0
   -6.2120   -0.5590  -17.8400 N   0  0  0  0  0  0  0  0  0  0  0  0
   -5.1760    0.2000  -18.0940 C   0  0  0  0  0  0  0  0  0  0  0  0
   -4.7270    0.5150  -19.4070 C   0  0  0  0  0  0  0  0  0  0  0  0
   -3.5940    1.3410  -19.6310 C   0  0  0  0  0  0  0  0  0  0  0  0
   -3.1780    1.6150  -20.9040 C   0  0  0  0  0  0  0  0  0  0  0  0
   -3.8640    1.0670  -22.0100 C   0  0  0  0  0  0  0  0  0  0  0  0
   -4.9600    0.2650  -21.8180 C   0  0  0  0  0  0  0  0  0  0  0  0
   -5.4380   -0.0130  -20.5060 C   0  0  0  0  0  0  0  0  0  0  0  0
   -5.4860   -0.1470  -22.6730 H   0  0  0  0  0  0  0  0  0  0  0  0
   -3.5310    1.2950  -23.0190 H   0  0  0  0  0  0  0  0  0  0  0  0
   -2.3230    2.2640  -21.0780 H   0  0  0  0  0  0  0  0  0  0  0  0
   -3.0750    1.7510  -18.7690 H   0  0  0  0  0  0  0  0  0  0  0  0
   -4.6300    0.6030  -17.2390 H   0  0  0  0  0  0  0  0  0  0  0  0
   -7.7600   -1.6760  -18.6380 H   0  0  0  0  0  0  0  0  0  0  0  0
   -7.6310   -2.7610  -21.3830 C   0  0  0  0  0  0  0  0  0  0  0  0
   -8.4700   -2.8860  -22.6480 C   0  0  0  0  0  0  0  0  0  0  0  0
   -9.3360   -4.0990  -22.8220 C   0  0  0  0  0  0  0  0  0  0  0  0
   -8.0910   -3.9520  -23.6450 C   0  0  0  0  0  0  0  0  0  0  0  0
   -7.2360   -4.5840  -23.4120 H   0  0  0  0  0  0  0  0  0  0  0  0
   -8.1890   -3.7200  -24.7010 H   0  0  0  0  0  0  0  0  0  0  0  0
   -9.3660   -4.8250  -22.0120 H   0  0  0  0  0  0  0  0  0  0  0  0
  -10.2930   -3.9570  -23.3150 H   0  0  0  0  0  0  0  0  0  0  0  0
   -6.6860   -3.3120  -21.4510 H   0  0  0  0  0  0  0  0  0  0  0  0
   -8.1890   -3.1280  -20.5180 H   0  0  0  0  0  0  0  0  0  0  0  0
  -10.4670   -1.2440  -22.8660 C   0  0  0  0  0  0  0  0  0  0  0  0
  -11.1940   -1.9640  -21.9150 C   0  0  0  0  0  0  0  0  0  0  0  0
  -12.5630   -1.8030  -21.8240 C   0  0  0  0  0  0  0  0  0  0  0  0
  -13.4630   -2.9420  -20.8540 Cl  0  0  0  0  0  0  0  0  0  0  0  0
  -13.2050   -0.7500  -22.4680 C   0  0  0  0  0  0  0  0  0  0  0  0
  -12.4770    0.0320  -23.3480 C   0  0  0  0  0  0  0  0  0  0  0  0
  -11.1350   -0.2430  -23.5870 C   0  0  0  0  0  0  0  0  0  0  0  0
  -10.4250    0.5940  -24.6020 C   0  0  0  0  0  0  0  0  0  0  0  0
  -10.9390    1.5710  -25.1360 O   0  0  0  0  0  0  0  0  0  0  0  0
  -12.9080    0.8870  -23.8570 H   0  0  0  0  0  0  0  0  0  0  0  0
  -14.2480   -0.5540  -22.2680 H   0  0  0  0  0  0  0  0  0  0  0  0
  -10.7030   -2.6760  -21.2680 H   0  0  0  0  0  0  0  0  0  0  0  0
   -7.5790   -1.1510  -24.7040 H   0  0  0  0  0  0  0  0  0  0  0  0
   -9.1430   -1.8760  -25.1550 H   0  0  0  0  0  0  0  0  0  0  0  0
   -8.6990    2.0910  -25.5250 H   0  0  0  0  0  0  0  0  0  0  0  0
   -7.2960    1.0140  -25.2270 H   0  0  0  0  0  0  0  0  0  0  0  0
   -9.7440    1.8930  -27.6620 H   0  0  0  0  0  0  0  0  0  0  0  0
   -9.1630    0.1720  -29.6390 H   0  0  0  0  0  0  0  0  0  0  0  0
   -9.3660    1.8940  -29.9920 H   0  0  0  0  0  0  0  0  0  0  0  0
   -7.7290    1.2030  -29.7210 H   0  0  0  0  0  0  0  0  0  0  0  0
  1  2  1  0  0  0  0
  1 55  1  0  0  0  0
  1 56  1  0  0  0  0
  1 57  1  0  0  0  0
  2  3  1  0  0  0  0
  2 54  1  0  0  0  0
  3  4  2  0  0  0  0
  3  5  1  0  0  0  0
  5  6  1  0  0  0  0
  5 52  1  0  0  0  0
  5 53  1  0  0  0  0
  6  7  1  0  0  0  0
  6 45  1  0  0  0  0
  7  8  1  0  0  0  0
  7 50  1  0  0  0  0
  7 51  1  0  0  0  0
  8  9  1  1  0  0  0
  8 29  1  0  0  0  0
  8 38  1  0  0  0  0
  9 10  2  0  0  0  0
  9 11  1  0  0  0  0
 11 12  1  0  0  0  0
 11 28  1  0  0  0  0
 12 13  2  0  0  0  0
 12 21  1  0  0  0  0
 13 14  1  0  0  0  0
 13 27  1  0  0  0  0
 14 15  2  0  0  0  0
 15 16  1  0  0  0  0
 15 26  1  0  0  0  0
 16 17  2  0  0  0  0
 16 21  1  0  0  0  0
 17 18  1  0  0  0  0
 17 25  1  0  0  0  0
 18 19  2  0  0  0  0
 18 24  1  0  0  0  0
 19 20  1  0  0  0  0
 19 23  1  0  0  0  0
 20 21  2  0  0  0  0
 20 22  1  0  0  0  0
 28 29  1  0  0  0  0
 28 36  1  0  0  0  0
 28 37  1  0  0  0  0
 29 30  1  0  0  0  0
 29 31  1  0  0  0  0
 30 31  1  0  0  0  0
 30 34  1  0  0  0  0
 30 35  1  0  0  0  0
 31 32  1  0  0  0  0
 31 33  1  0  0  0  0
 38 39  2  0  0  0  0
 38 44  1  0  0  0  0
 39 40  1  0  0  0  0
 39 49  1  0  0  0  0
 40 41  1  0  0  0  0
 40 42  2  0  0  0  0
 42 43  1  0  0  0  0
 42 48  1  0  0  0  0
 43 44  2  0  0  0  0
 43 47  1  0  0  0  0
 44 45  1  0  0  0  0
 45 46  2  0  0  0  0
M  END
>  <MODEL>
       1

$$$$
