output/tmp_first_model_20_57.pdb
 OpenBabel07242623363D

 59 63  0  0  1  0  0  0  0  0999 V2000
  -14.4960   -1.2810  -23.4950 C   0  0  0  0  0  0  0  0  0  0  0  0
  -13.8000   -2.4860  -23.1020 N   0  0  0  0  0  0  0  0  0  0  0  0
  -13.4630   -2.6230  -21.7960 C   0  0  0  0  0  0  0  0  0  0  0  0
  -13.8970   -1.8990  -20.9130 O   0  0  0  0  0  0  0  0  0  0  0  0
  -12.5360   -3.7950  -21.5370 C   0  0  0  0  0  0  0  0  0  0  0  0
  -11.2080   -3.7780  -22.1570 N   0  0  0  0  0  0  0  0  0  0  0  0
  -10.0450   -3.3130  -21.4060 C   0  0  0  0  0  0  0  0  0  0  0  0
   -8.8210   -2.9510  -22.2890 C   0  0  2  0  0  0  0  0  0  0  0  0
   -7.5810   -2.7140  -21.4050 C   0  0  0  0  0  0  0  0  0  0  0  0
   -6.8230   -3.5610  -20.9780 O   0  0  0  0  0  0  0  0  0  0  0  0
   -7.3970   -1.3600  -21.2340 N   0  0  0  0  0  0  0  0  0  0  0  0
   -6.5870   -0.8400  -20.1900 C   0  0  0  0  0  0  0  0  0  0  0  0
   -6.8990   -1.0760  -18.8740 C   0  0  0  0  0  0  0  0  0  0  0  0
   -6.2150   -0.5540  -17.8250 N   0  0  0  0  0  0  0  0  0  0  0  0
   -5.1820    0.2050  -18.0860 C   0  0  0  0  0  0  0  0  0  0  0  0
   -4.7380    0.5150  -19.4030 C   0  0  0  0  0  0  0  0  0  0  0  0
   -3.6060    1.3370  -19.6400 C   0  0  0  0  0  0  0  0  0  0  0  0
   -3.2060    1.6120  -20.9190 C   0  0  0  0  0  0  0  0  0  0  0  0
   -3.9130    1.0740  -22.0180 C   0  0  0  0  0  0  0  0  0  0  0  0
   -5.0140    0.2780  -21.8150 C   0  0  0  0  0  0  0  0  0  0  0  0
   -5.4570   -0.0160  -20.4970 C   0  0  0  0  0  0  0  0  0  0  0  0
   -5.5540   -0.1300  -22.6640 H   0  0  0  0  0  0  0  0  0  0  0  0
   -3.5900    1.3060  -23.0290 H   0  0  0  0  0  0  0  0  0  0  0  0
   -2.3500    2.2550  -21.1020 H   0  0  0  0  0  0  0  0  0  0  0  0
   -3.0770    1.7460  -18.7850 H   0  0  0  0  0  0  0  0  0  0  0  0
   -4.6350    0.6230  -17.2380 H   0  0  0  0  0  0  0  0  0  0  0  0
   -7.7430   -1.7150  -18.6210 H   0  0  0  0  0  0  0  0  0  0  0  0
   -8.4010   -0.5680  -21.9190 C   0  0  0  0  0  0  0  0  0  0  0  0
   -9.0090   -1.5290  -22.9690 C   0  0  0  0  0  0  0  0  0  0  0  0
  -10.4650   -1.1500  -23.2520 C   0  0  0  0  0  0  0  0  0  0  0  0
  -11.0610   -1.1010  -22.3360 H   0  0  0  0  0  0  0  0  0  0  0  0
  -10.9290   -1.8820  -23.9190 H   0  0  0  0  0  0  0  0  0  0  0  0
  -10.5140   -0.1670  -23.7260 H   0  0  0  0  0  0  0  0  0  0  0  0
   -8.2340   -1.4570  -24.2910 C   0  0  0  0  0  0  0  0  0  0  0  0
   -8.6490   -2.1790  -25.0000 H   0  0  0  0  0  0  0  0  0  0  0  0
   -8.3210   -0.4610  -24.7310 H   0  0  0  0  0  0  0  0  0  0  0  0
   -7.1710   -1.6890  -24.1620 H   0  0  0  0  0  0  0  0  0  0  0  0
   -7.9590    0.3210  -22.3770 H   0  0  0  0  0  0  0  0  0  0  0  0
   -9.1670   -0.2210  -21.2120 H   0  0  0  0  0  0  0  0  0  0  0  0
   -8.5780   -4.1100  -23.2290 C   0  0  0  0  0  0  0  0  0  0  0  0
   -7.2950   -4.4580  -23.6700 C   0  0  0  0  0  0  0  0  0  0  0  0
   -7.1330   -5.4520  -24.6180 C   0  0  0  0  0  0  0  0  0  0  0  0
   -5.5350   -5.7970  -25.2220 Cl  0  0  0  0  0  0  0  0  0  0  0  0
   -8.2190   -6.1530  -25.1370 C   0  0  0  0  0  0  0  0  0  0  0  0
   -9.4870   -5.8110  -24.7080 C   0  0  0  0  0  0  0  0  0  0  0  0
   -9.6630   -4.8050  -23.7580 C   0  0  0  0  0  0  0  0  0  0  0  0
  -11.0520   -4.5130  -23.2990 C   0  0  0  0  0  0  0  0  0  0  0  0
  -12.0150   -4.9350  -23.9290 O   0  0  0  0  0  0  0  0  0  0  0  0
  -10.3690   -6.3180  -25.0880 H   0  0  0  0  0  0  0  0  0  0  0  0
   -8.0650   -6.9290  -25.8790 H   0  0  0  0  0  0  0  0  0  0  0  0
   -6.4270   -3.9410  -23.2860 H   0  0  0  0  0  0  0  0  0  0  0  0
  -10.3230   -2.4330  -20.8230 H   0  0  0  0  0  0  0  0  0  0  0  0
   -9.7360   -4.0900  -20.7130 H   0  0  0  0  0  0  0  0  0  0  0  0
  -12.4930   -3.9100  -20.4600 H   0  0  0  0  0  0  0  0  0  0  0  0
  -13.0580   -4.6470  -21.9690 H   0  0  0  0  0  0  0  0  0  0  0  0
  -13.6480   -3.2730  -23.7180 H   0  0  0  0  0  0  0  0  0  0  0  0
  -13.8130   -0.4220  -23.4680 H   0  0  0  0  0  0  0  0  0  0  0  0
  -14.8900   -1.3660  -24.5090 H   0  0  0  0  0  0  0  0  0  0  0  0
  -15.3180   -1.0830  -22.7990 H   0  0  0  0  0  0  0  0  0  0  0  0
  1  2  1  0  0  0  0
  1 57  1  0  0  0  0
  1 58  1  0  0  0  0
  1 59  1  0  0  0  0
  2  3  1  0  0  0  0
  2 56  1  0  0  0  0
  3  4  2  0  0  0  0
  3  5  1  0  0  0  0
  5  6  1  0  0  0  0
  5 54  1  0  0  0  0
  5 55  1  0  0  0  0
  6  7  1  0  0  0  0
  6 47  1  0  0  0  0
  7  8  1  0  0  0  0
  7 52  1  0  0  0  0
  7 53  1  0  0  0  0
  8  9  1  1  0  0  0
  8 29  1  0  0  0  0
  8 40  1  0  0  0  0
  9 10  2  0  0  0  0
  9 11  1  0  0  0  0
 11 12  1  0  0  0  0
 11 28  1  0  0  0  0
 12 13  2  0  0  0  0
 12 21  1  0  0  0  0
 13 14  1  0  0  0  0
 13 27  1  0  0  0  0
 14 15  2  0  0  0  0
 15 16  1  0  0  0  0
 15 26  1  0  0  0  0
 16 17  2  0  0  0  0
 16 21  1  0  0  0  0
 17 18  1  0  0  0  0
 17 25  1  0  0  0  0
 18 19  2  0  0  0  0
 18 24  1  0  0  0  0
 19 20  1  0  0  0  0
 19 23  1  0  0  0  0
 20 21  2  0  0  0  0
 20 22  1  0  0  0  0
 28 29  1  0  0  0  0
 28 38  1  0  0  0  0
 28 39  1  0  0  0  0
 29 30  1  0  0  0  0
 29 34  1  0  0  0  0
 30 31  1  0  0  0  0
 30 32  1  0  0  0  0
 30 33  1  0  0  0  0
 34 35  1  0  0  0  0
 34 36  1  0  0  0  0
 34 37  1  0  0  0  0
 40 41  2  0  0  0  0
 40 46  1  0  0  0  0
 41 42  1  0  0  0  0
 41 51  1  0  0  0  0
 42 43  1  0  0  0  0
 42 44  2  0  0  0  0
 44 45  1  0  0  0  0
 44 50  1  0  0  0  0
 45 46  2  0  0  0  0
 45 49  1  0  0  0  0
 46 47  1  0  0  0  0
 47 48  2  0  0  0  0
M  END
>  <MODEL>
       1

$$$$
