output/tmp_first_model_4_28.pdb
 OpenBabel07242615033D

 64 68  0  0  1  0  0  0  0  0999 V2000
   -7.3370    3.3650  -21.8880 C   0  0  0  0  0  0  0  0  0  0  0  0
   -8.2920    2.8680  -22.8640 N   0  0  0  0  0  0  0  0  0  0  0  0
   -7.8110    2.1640  -23.9240 C   0  0  0  0  0  0  0  0  0  0  0  0
   -6.6110    1.9850  -24.0850 O   0  0  0  0  0  0  0  0  0  0  0  0
   -8.8440    1.5820  -24.8930 C   0  0  0  0  0  0  0  0  0  0  0  0
   -9.4940    0.4260  -24.3030 N   0  0  0  0  0  0  0  0  0  0  0  0
   -8.7270   -0.8050  -24.1490 C   0  0  0  0  0  0  0  0  0  0  0  0
   -9.0950   -1.5600  -22.8430 C   0  0  2  0  0  0  0  0  0  0  0  0
   -8.5360   -0.8010  -21.6080 C   0  0  0  0  0  0  0  0  0  0  0  0
   -9.0010    0.1820  -21.0660 O   0  0  0  0  0  0  0  0  0  0  0  0
   -7.3830   -1.4370  -21.2130 N   0  0  0  0  0  0  0  0  0  0  0  0
   -6.5340   -0.9580  -20.1930 C   0  0  0  0  0  0  0  0  0  0  0  0
   -6.7560   -1.2980  -18.8840 C   0  0  0  0  0  0  0  0  0  0  0  0
   -5.8670   -1.0830  -17.8880 N   0  0  0  0  0  0  0  0  0  0  0  0
   -4.7380   -0.4910  -18.1980 C   0  0  0  0  0  0  0  0  0  0  0  0
   -4.4160   -0.0260  -19.5060 C   0  0  0  0  0  0  0  0  0  0  0  0
   -3.2280    0.7070  -19.7710 C   0  0  0  0  0  0  0  0  0  0  0  0
   -3.0120    1.2480  -21.0070 C   0  0  0  0  0  0  0  0  0  0  0  0
   -3.9450    1.0400  -22.0480 C   0  0  0  0  0  0  0  0  0  0  0  0
   -5.0610    0.2640  -21.8370 C   0  0  0  0  0  0  0  0  0  0  0  0
   -5.3490   -0.2390  -20.5380 C   0  0  0  0  0  0  0  0  0  0  0  0
   -5.7470    0.0550  -22.6520 H   0  0  0  0  0  0  0  0  0  0  0  0
   -3.7820    1.4770  -23.0290 H   0  0  0  0  0  0  0  0  0  0  0  0
   -2.1420    1.8750  -21.1850 H   0  0  0  0  0  0  0  0  0  0  0  0
   -2.5600    0.9040  -18.9380 H   0  0  0  0  0  0  0  0  0  0  0  0
   -4.0180   -0.3320  -17.3950 H   0  0  0  0  0  0  0  0  0  0  0  0
   -7.6840   -1.7940  -18.6070 H   0  0  0  0  0  0  0  0  0  0  0  0
   -7.0350   -2.6130  -21.9730 C   0  0  0  0  0  0  0  0  0  0  0  0
   -8.3360   -2.9200  -22.7270 C   0  0  2  0  0  0  0  0  0  0  0  0
   -8.0890   -3.6940  -24.0180 C   0  0  0  0  0  0  0  0  0  0  0  0
   -7.5070   -5.3420  -23.6480 S   0  0  0  0  0  0  0  0  0  0  0  0
   -6.1610   -5.2780  -23.1010 O   0  0  0  0  0  0  0  0  0  0  0  0
   -8.5540   -6.0520  -22.9170 O   0  0  0  0  0  0  0  0  0  0  0  0
   -7.3280   -5.9430  -25.1880 N   0  0  0  0  0  0  0  0  0  0  0  0
   -8.4990   -6.3690  -25.9440 C   0  0  0  0  0  0  0  0  0  0  0  0
   -9.0340   -5.4980  -26.3360 H   0  0  0  0  0  0  0  0  0  0  0  0
   -9.1900   -6.9840  -25.3560 H   0  0  0  0  0  0  0  0  0  0  0  0
   -8.1420   -6.9390  -26.8050 H   0  0  0  0  0  0  0  0  0  0  0  0
   -6.5480   -6.5880  -25.1910 H   0  0  0  0  0  0  0  0  0  0  0  0
   -9.0110   -3.7960  -24.6000 H   0  0  0  0  0  0  0  0  0  0  0  0
   -7.3140   -3.2240  -24.6360 H   0  0  0  0  0  0  0  0  0  0  0  0
   -8.9290   -3.5650  -22.0770 H   0  0  0  0  0  0  0  0  0  0  0  0
   -6.1940   -2.4220  -22.6560 H   0  0  0  0  0  0  0  0  0  0  0  0
   -6.7300   -3.4390  -21.3220 H   0  0  0  0  0  0  0  0  0  0  0  0
  -10.6100   -1.6520  -22.7650 C   0  0  0  0  0  0  0  0  0  0  0  0
  -11.2330   -2.5950  -21.9370 C   0  0  0  0  0  0  0  0  0  0  0  0
  -12.6120   -2.6220  -21.8170 C   0  0  0  0  0  0  0  0  0  0  0  0
  -13.3440   -3.7710  -20.7300 Cl  0  0  0  0  0  0  0  0  0  0  0  0
  -13.4250   -1.7330  -22.5180 C   0  0  0  0  0  0  0  0  0  0  0  0
  -12.8200   -0.7800  -23.3110 C   0  0  0  0  0  0  0  0  0  0  0  0
  -11.4300   -0.7180  -23.4140 C   0  0  0  0  0  0  0  0  0  0  0  0
  -10.8570    0.4320  -24.1840 C   0  0  0  0  0  0  0  0  0  0  0  0
  -11.5620    1.3160  -24.6480 O   0  0  0  0  0  0  0  0  0  0  0  0
  -13.4060   -0.0430  -23.8480 H   0  0  0  0  0  0  0  0  0  0  0  0
  -14.5030   -1.7790  -22.4110 H   0  0  0  0  0  0  0  0  0  0  0  0
  -10.6590   -3.3050  -21.3520 H   0  0  0  0  0  0  0  0  0  0  0  0
   -7.6630   -0.5490  -24.1470 H   0  0  0  0  0  0  0  0  0  0  0  0
   -8.9160   -1.4560  -25.0140 H   0  0  0  0  0  0  0  0  0  0  0  0
   -9.6310    2.3010  -25.1460 H   0  0  0  0  0  0  0  0  0  0  0  0
   -8.3270    1.3100  -25.8200 H   0  0  0  0  0  0  0  0  0  0  0  0
   -9.2370    2.6960  -22.5440 H   0  0  0  0  0  0  0  0  0  0  0  0
   -6.7350    2.5390  -21.4820 H   0  0  0  0  0  0  0  0  0  0  0  0
   -6.6580    4.0830  -22.3550 H   0  0  0  0  0  0  0  0  0  0  0  0
   -7.8670    3.8900  -21.0920 H   0  0  0  0  0  0  0  0  0  0  0  0
  1  2  1  0  0  0  0
  1 62  1  0  0  0  0
  1 63  1  0  0  0  0
  1 64  1  0  0  0  0
  2  3  1  0  0  0  0
  2 61  1  0  0  0  0
  3  4  2  0  0  0  0
  3  5  1  0  0  0  0
  5  6  1  0  0  0  0
  5 59  1  0  0  0  0
  5 60  1  0  0  0  0
  6  7  1  0  0  0  0
  6 52  1  0  0  0  0
  7  8  1  0  0  0  0
  7 57  1  0  0  0  0
  7 58  1  0  0  0  0
  8  9  1  1  0  0  0
  8 29  1  0  0  0  0
  8 45  1  0  0  0  0
  9 10  2  0  0  0  0
  9 11  1  0  0  0  0
 11 12  1  0  0  0  0
 11 28  1  0  0  0  0
 12 13  2  0  0  0  0
 12 21  1  0  0  0  0
 13 14  1  0  0  0  0
 13 27  1  0  0  0  0
 14 15  2  0  0  0  0
 15 16  1  0  0  0  0
 15 26  1  0  0  0  0
 16 17  2  0  0  0  0
 16 21  1  0  0  0  0
 17 18  1  0  0  0  0
 17 25  1  0  0  0  0
 18 19  2  0  0  0  0
 18 24  1  0  0  0  0
 19 20  1  0  0  0  0
 19 23  1  0  0  0  0
 20 21  2  0  0  0  0
 20 22  1  0  0  0  0
 28 29  1  0  0  0  0
 28 43  1  0  0  0  0
 28 44  1  0  0  0  0
 29 30  1  0  0  0  0
 29 42  1  1  0  0  0
 30 31  1  0  0  0  0
 30 40  1  0  0  0  0
 30 41  1  0  0  0  0
 31 32  2  0  0  0  0
 31 33  2  0  0  0  0
 31 34  1  0  0  0  0
 34 35  1  0  0  0  0
 34 39  1  0  0  0  0
 35 36  1  0  0  0  0
 35 37  1  0  0  0  0
 35 38  1  0  0  0  0
 45 46  2  0  0  0  0
 45 51  1  0  0  0  0
 46 47  1  0  0  0  0
 46 56  1  0  0  0  0
 47 48  1  0  0  0  0
 47 49  2  0  0  0  0
 49 50  1  0  0  0  0
 49 55  1  0  0  0  0
 50 51  2  0  0  0  0
 50 54  1  0  0  0  0
 51 52  1  0  0  0  0
 52 53  2  0  0  0  0
M  END
>  <MODEL>
       1

$$$$
