output/tmp_first_model_14_58.pdb
 OpenBabel07242620283D

 42 45  0  0  1  0  0  0  0  0999 V2000
  -10.8300   -3.7640  -21.6900 C   0  0  0  0  0  0  0  0  0  0  0  0
   -9.9000   -3.2180  -22.6670 N   0  0  0  0  0  0  0  0  0  0  0  0
  -10.0150   -1.8590  -23.1790 C   0  0  0  0  0  0  0  0  0  0  0  0
   -8.6450   -1.1870  -23.4680 C   0  0  1  0  0  0  0  0  0  0  0  0
   -8.0890   -0.5450  -22.1790 C   0  0  0  0  0  0  0  0  0  0  0  0
   -8.2970    0.6240  -21.9020 O   0  0  0  0  0  0  0  0  0  0  0  0
   -7.3660   -1.3570  -21.3450 N   0  0  0  0  0  0  0  0  0  0  0  0
   -6.5980   -0.8110  -20.2870 C   0  0  0  0  0  0  0  0  0  0  0  0
   -6.9610   -1.0270  -18.9830 C   0  0  0  0  0  0  0  0  0  0  0  0
   -6.3170   -0.4900  -17.9170 N   0  0  0  0  0  0  0  0  0  0  0  0
   -5.2640    0.2490  -18.1530 C   0  0  0  0  0  0  0  0  0  0  0  0
   -4.7650    0.5330  -19.4520 C   0  0  0  0  0  0  0  0  0  0  0  0
   -3.6210    1.3490  -19.6510 C   0  0  0  0  0  0  0  0  0  0  0  0
   -3.1660    1.6040  -20.9150 C   0  0  0  0  0  0  0  0  0  0  0  0
   -3.8250    1.0400  -22.0330 C   0  0  0  0  0  0  0  0  0  0  0  0
   -4.9260    0.2370  -21.8680 C   0  0  0  0  0  0  0  0  0  0  0  0
   -5.4420   -0.0170  -20.5620 C   0  0  0  0  0  0  0  0  0  0  0  0
   -5.4130   -0.2180  -22.7270 H   0  0  0  0  0  0  0  0  0  0  0  0
   -3.4590    1.2550  -23.0330 H   0  0  0  0  0  0  0  0  0  0  0  0
   -2.3040    2.2480  -21.0680 H   0  0  0  0  0  0  0  0  0  0  0  0
   -3.1280    1.7620  -18.7770 H   0  0  0  0  0  0  0  0  0  0  0  0
   -4.7480    0.6700  -17.2890 H   0  0  0  0  0  0  0  0  0  0  0  0
   -7.8320   -1.6370  -18.7400 H   0  0  0  0  0  0  0  0  0  0  0  0
   -7.4400   -2.3620  -21.4200 H   0  0  0  0  0  0  0  0  0  0  0  0
   -7.7250   -2.1490  -24.1910 C   0  0  0  0  0  0  0  0  0  0  0  0
   -6.7490   -1.6960  -25.0930 C   0  0  0  0  0  0  0  0  0  0  0  0
   -5.9200   -2.6160  -25.7250 C   0  0  0  0  0  0  0  0  0  0  0  0
   -4.7130   -2.0540  -26.8510 Cl  0  0  0  0  0  0  0  0  0  0  0  0
   -6.0290   -3.9840  -25.4810 C   0  0  0  0  0  0  0  0  0  0  0  0
   -6.9980   -4.4330  -24.5990 C   0  0  0  0  0  0  0  0  0  0  0  0
   -7.8500   -3.5210  -23.9680 C   0  0  0  0  0  0  0  0  0  0  0  0
   -8.8900   -4.0610  -23.0310 C   0  0  0  0  0  0  0  0  0  0  0  0
   -8.8250   -5.2020  -22.5890 O   0  0  0  0  0  0  0  0  0  0  0  0
   -7.1140   -5.4960  -24.3990 H   0  0  0  0  0  0  0  0  0  0  0  0
   -5.3580   -4.6780  -25.9810 H   0  0  0  0  0  0  0  0  0  0  0  0
   -6.6360   -0.6370  -25.3220 H   0  0  0  0  0  0  0  0  0  0  0  0
   -8.8070   -0.3100  -24.1050 H   0  0  0  0  0  0  0  0  0  0  0  0
  -10.5420   -1.2410  -22.4390 H   0  0  0  0  0  0  0  0  0  0  0  0
  -10.5980   -1.8590  -24.1080 H   0  0  0  0  0  0  0  0  0  0  0  0
  -11.4040   -4.6000  -22.1100 H   0  0  0  0  0  0  0  0  0  0  0  0
  -10.2390   -4.1380  -20.8470 H   0  0  0  0  0  0  0  0  0  0  0  0
  -11.5120   -2.9810  -21.3470 H   0  0  0  0  0  0  0  0  0  0  0  0
  1  2  1  0  0  0  0
  1 40  1  0  0  0  0
  1 41  1  0  0  0  0
  1 42  1  0  0  0  0
  2  3  1  0  0  0  0
  2 32  1  0  0  0  0
  3  4  1  0  0  0  0
  3 38  1  0  0  0  0
  3 39  1  0  0  0  0
  4  5  1  0  0  0  0
  4 25  1  0  0  0  0
  4 37  1  6  0  0  0
  5  6  2  0  0  0  0
  5  7  1  0  0  0  0
  7  8  1  0  0  0  0
  7 24  1  0  0  0  0
  8  9  2  0  0  0  0
  8 17  1  0  0  0  0
  9 10  1  0  0  0  0
  9 23  1  0  0  0  0
 10 11  2  0  0  0  0
 11 12  1  0  0  0  0
 11 22  1  0  0  0  0
 12 13  2  0  0  0  0
 12 17  1  0  0  0  0
 13 14  1  0  0  0  0
 13 21  1  0  0  0  0
 14 15  2  0  0  0  0
 14 20  1  0  0  0  0
 15 16  1  0  0  0  0
 15 19  1  0  0  0  0
 16 17  2  0  0  0  0
 16 18  1  0  0  0  0
 25 26  2  0  0  0  0
 25 31  1  0  0  0  0
 26 27  1  0  0  0  0
 26 36  1  0  0  0  0
 27 28  1  0  0  0  0
 27 29  2  0  0  0  0
 29 30  1  0  0  0  0
 29 35  1  0  0  0  0
 30 31  2  0  0  0  0
 30 34  1  0  0  0  0
 31 32  1  0  0  0  0
 32 33  2  0  0  0  0
M  END
>  <MODEL>
       1

$$$$
