output/tmp_first_model_5_7.pdb
 OpenBabel07242615323D

 44 47  0  0  0  0  0  0  0  0999 V2000
   -9.7340   -6.0760  -25.8880 C   0  0  0  0  0  0  0  0  0  0  0  0
  -11.0310   -6.0860  -25.0920 C   0  0  0  0  0  0  0  0  0  0  0  0
  -11.3320   -4.5610  -24.1950 S   0  0  0  0  0  0  0  0  0  0  0  0
  -12.5630   -4.6750  -23.4390 O   0  0  0  0  0  0  0  0  0  0  0  0
  -11.1450   -3.4540  -25.1300 O   0  0  0  0  0  0  0  0  0  0  0  0
  -10.0530   -4.5620  -23.0890 N   0  0  0  0  0  0  0  0  0  0  0  0
   -8.7850   -3.9200  -23.5080 C   0  0  0  0  0  0  0  0  0  0  0  0
   -8.9250   -2.8650  -22.3980 C   0  0  0  0  0  0  0  0  0  0  0  0
  -10.1540   -3.6590  -21.9000 C   0  0  0  0  0  0  0  0  0  0  0  0
   -9.9530   -4.2060  -20.9790 H   0  0  0  0  0  0  0  0  0  0  0  0
  -11.0830   -3.0920  -21.8150 H   0  0  0  0  0  0  0  0  0  0  0  0
   -7.7330   -2.8130  -21.4710 C   0  0  0  0  0  0  0  0  0  0  0  0
   -7.0760   -3.7320  -21.0520 O   0  0  0  0  0  0  0  0  0  0  0  0
   -7.4920   -1.4660  -21.2390 N   0  0  0  0  0  0  0  0  0  0  0  0
   -6.5820   -0.9990  -20.2630 C   0  0  0  0  0  0  0  0  0  0  0  0
   -6.8580   -1.2310  -18.9370 C   0  0  0  0  0  0  0  0  0  0  0  0
   -5.9860   -0.9910  -17.9300 N   0  0  0  0  0  0  0  0  0  0  0  0
   -4.8220   -0.4830  -18.2620 C   0  0  0  0  0  0  0  0  0  0  0  0
   -4.4770   -0.0560  -19.5790 C   0  0  0  0  0  0  0  0  0  0  0  0
   -3.2910    0.6960  -19.8410 C   0  0  0  0  0  0  0  0  0  0  0  0
   -3.1590    1.3900  -21.0090 C   0  0  0  0  0  0  0  0  0  0  0  0
   -4.0850    1.1760  -22.0590 C   0  0  0  0  0  0  0  0  0  0  0  0
   -5.1360    0.3040  -21.8990 C   0  0  0  0  0  0  0  0  0  0  0  0
   -5.4090   -0.2620  -20.6180 C   0  0  0  0  0  0  0  0  0  0  0  0
   -5.7730    0.0670  -22.7430 H   0  0  0  0  0  0  0  0  0  0  0  0
   -3.9280    1.6720  -23.0100 H   0  0  0  0  0  0  0  0  0  0  0  0
   -2.2670    1.9920  -21.1910 H   0  0  0  0  0  0  0  0  0  0  0  0
   -2.5320    0.7690  -19.0700 H   0  0  0  0  0  0  0  0  0  0  0  0
   -4.0890   -0.3680  -17.4620 H   0  0  0  0  0  0  0  0  0  0  0  0
   -7.8190   -1.6410  -18.6260 H   0  0  0  0  0  0  0  0  0  0  0  0
   -8.3200   -0.6410  -22.0070 C   0  0  0  0  0  0  0  0  0  0  0  0
   -8.3080    0.5710  -22.0190 O   0  0  0  0  0  0  0  0  0  0  0  0
   -9.1310   -1.4750  -22.7280 N   0  0  0  0  0  0  0  0  0  0  0  0
  -10.0760   -0.9740  -23.7080 C   0  0  0  0  0  0  0  0  0  0  0  0
   -9.8440   -1.3510  -24.7110 H   0  0  0  0  0  0  0  0  0  0  0  0
  -11.1080   -1.2550  -23.4660 H   0  0  0  0  0  0  0  0  0  0  0  0
   -9.9970    0.1160  -23.6980 H   0  0  0  0  0  0  0  0  0  0  0  0
   -7.9460   -4.5820  -23.2800 H   0  0  0  0  0  0  0  0  0  0  0  0
   -8.7350   -3.5530  -24.5360 H   0  0  0  0  0  0  0  0  0  0  0  0
  -11.9060   -6.2200  -25.7340 H   0  0  0  0  0  0  0  0  0  0  0  0
  -11.0260   -6.8970  -24.3660 H   0  0  0  0  0  0  0  0  0  0  0  0
   -8.8610   -6.0680  -25.2260 H   0  0  0  0  0  0  0  0  0  0  0  0
   -9.6780   -5.2100  -26.5520 H   0  0  0  0  0  0  0  0  0  0  0  0
   -9.6740   -6.9900  -26.4880 H   0  0  0  0  0  0  0  0  0  0  0  0
  1  2  1  0  0  0  0
  1 42  1  0  0  0  0
  1 43  1  0  0  0  0
  1 44  1  0  0  0  0
  2  3  1  0  0  0  0
  2 40  1  0  0  0  0
  2 41  1  0  0  0  0
  3  4  2  0  0  0  0
  3  5  2  0  0  0  0
  3  6  1  0  0  0  0
  6  7  1  0  0  0  0
  6  9  1  0  0  0  0
  7  8  1  0  0  0  0
  7 38  1  0  0  0  0
  7 39  1  0  0  0  0
  8  9  1  0  0  0  0
  8 12  1  0  0  0  0
  8 33  1  0  0  0  0
  9 10  1  0  0  0  0
  9 11  1  0  0  0  0
 12 13  2  0  0  0  0
 12 14  1  0  0  0  0
 14 15  1  0  0  0  0
 14 31  1  0  0  0  0
 15 16  2  0  0  0  0
 15 24  1  0  0  0  0
 16 17  1  0  0  0  0
 16 30  1  0  0  0  0
 17 18  2  0  0  0  0
 18 19  1  0  0  0  0
 18 29  1  0  0  0  0
 19 20  2  0  0  0  0
 19 24  1  0  0  0  0
 20 21  1  0  0  0  0
 20 28  1  0  0  0  0
 21 22  2  0  0  0  0
 21 27  1  0  0  0  0
 22 23  1  0  0  0  0
 22 26  1  0  0  0  0
 23 24  2  0  0  0  0
 23 25  1  0  0  0  0
 31 32  2  0  0  0  0
 31 33  1  0  0  0  0
 33 34  1  0  0  0  0
 34 35  1  0  0  0  0
 34 36  1  0  0  0  0
 34 37  1  0  0  0  0
M  END
>  <MODEL>
       1

$$$$
