output/tmp_first_model_3_56.pdb
 OpenBabel07242614263D

 57 62  0  0  1  0  0  0  0  0999 V2000
   -9.7390   -0.6940  -23.6200 C   0  0  0  0  0  0  0  0  0  0  0  0
   -8.4270   -1.1170  -22.9620 C   0  0  1  0  0  0  0  0  0  0  0  0
   -8.0310   -0.2120  -21.7830 C   0  0  0  0  0  0  0  0  0  0  0  0
   -7.1280   -1.0540  -21.0130 N   0  0  0  0  0  0  0  0  0  0  0  0
   -6.3160   -0.5820  -19.9560 C   0  0  0  0  0  0  0  0  0  0  0  0
   -6.5940   -0.8710  -18.6450 C   0  0  0  0  0  0  0  0  0  0  0  0
   -5.9440   -0.3070  -17.5920 N   0  0  0  0  0  0  0  0  0  0  0  0
   -4.9580    0.5190  -17.8520 C   0  0  0  0  0  0  0  0  0  0  0  0
   -4.5020    0.8230  -19.1680 C   0  0  0  0  0  0  0  0  0  0  0  0
   -3.3760    1.6500  -19.4250 C   0  0  0  0  0  0  0  0  0  0  0  0
   -2.9630    1.8740  -20.7090 C   0  0  0  0  0  0  0  0  0  0  0  0
   -3.6500    1.2940  -21.7980 C   0  0  0  0  0  0  0  0  0  0  0  0
   -4.7510    0.5050  -21.5750 C   0  0  0  0  0  0  0  0  0  0  0  0
   -5.2000    0.2570  -20.2540 C   0  0  0  0  0  0  0  0  0  0  0  0
   -5.2810    0.0440  -22.3990 H   0  0  0  0  0  0  0  0  0  0  0  0
   -3.3150    1.4740  -22.8140 H   0  0  0  0  0  0  0  0  0  0  0  0
   -2.0990    2.5040  -20.9050 H   0  0  0  0  0  0  0  0  0  0  0  0
   -2.8580    2.1010  -18.5830 H   0  0  0  0  0  0  0  0  0  0  0  0
   -4.4530    0.9720  -16.9970 H   0  0  0  0  0  0  0  0  0  0  0  0
   -7.3900   -1.5670  -18.3900 H   0  0  0  0  0  0  0  0  0  0  0  0
   -7.2390   -2.3950  -21.3060 C   0  0  0  0  0  0  0  0  0  0  0  0
   -6.5900   -3.2730  -20.7770 O   0  0  0  0  0  0  0  0  0  0  0  0
   -8.3470   -2.5710  -22.3610 C   0  0  1  0  0  0  0  0  0  0  0  0
   -9.6190   -2.9830  -21.5680 C   0  0  0  0  0  0  0  0  0  0  0  0
  -10.6360   -3.6350  -22.3820 N   0  0  0  0  0  0  0  0  0  0  0  0
  -12.0320   -3.5760  -21.9530 C   0  0  0  0  0  0  0  0  0  0  0  0
  -12.8040   -2.5550  -22.7390 C   0  0  0  0  0  0  0  0  0  0  0  0
  -12.9080   -1.3460  -22.1820 N   0  0  0  0  0  0  0  0  0  0  0  0
  -13.5640   -0.4400  -22.9090 C   0  0  0  0  0  0  0  0  0  0  0  0
  -14.0130   -0.6870  -24.1980 C   0  0  0  0  0  0  0  0  0  0  0  0
  -13.8630   -1.9830  -24.6620 C   0  0  0  0  0  0  0  0  0  0  0  0
  -13.2510   -2.9190  -23.9430 N   0  0  0  0  0  0  0  0  0  0  0  0
  -14.2180   -2.2780  -25.6510 H   0  0  0  0  0  0  0  0  0  0  0  0
  -14.4410    0.0820  -24.8260 H   0  0  0  0  0  0  0  0  0  0  0  0
  -13.7060    0.5350  -22.4450 H   0  0  0  0  0  0  0  0  0  0  0  0
  -12.0600   -3.2910  -20.9060 H   0  0  0  0  0  0  0  0  0  0  0  0
  -12.4860   -4.5600  -22.0830 H   0  0  0  0  0  0  0  0  0  0  0  0
  -10.3110   -4.5640  -23.3270 C   0  0  0  0  0  0  0  0  0  0  0  0
  -11.1210   -5.3390  -23.8010 O   0  0  0  0  0  0  0  0  0  0  0  0
   -8.9060   -4.5840  -23.7950 C   0  0  0  0  0  0  0  0  0  0  0  0
   -8.5820   -5.5660  -24.7290 C   0  0  0  0  0  0  0  0  0  0  0  0
   -7.3140   -5.6440  -25.2590 C   0  0  0  0  0  0  0  0  0  0  0  0
   -6.3730   -4.7360  -24.7910 C   0  0  0  0  0  0  0  0  0  0  0  0
   -5.1300   -4.7960  -25.2940 F   0  0  0  0  0  0  0  0  0  0  0  0
   -6.6620   -3.7740  -23.8410 C   0  0  0  0  0  0  0  0  0  0  0  0
   -7.9710   -3.6530  -23.3500 C   0  0  0  0  0  0  0  0  0  0  0  0
   -5.8530   -3.1570  -23.4680 H   0  0  0  0  0  0  0  0  0  0  0  0
   -7.0510   -6.3900  -26.0010 H   0  0  0  0  0  0  0  0  0  0  0  0
   -9.3540   -6.2690  -25.0150 H   0  0  0  0  0  0  0  0  0  0  0  0
   -9.3240   -3.6360  -20.7340 H   0  0  0  0  0  0  0  0  0  0  0  0
  -10.0660   -2.0880  -21.1200 H   0  0  0  0  0  0  0  0  0  0  0  0
   -8.9160    0.0700  -21.1860 H   0  0  0  0  0  0  0  0  0  0  0  0
   -7.5460    0.7220  -22.0860 H   0  0  0  0  0  0  0  0  0  0  0  0
   -7.6210   -1.0800  -23.7120 H   0  0  0  0  0  0  0  0  0  0  0  0
  -10.4990   -0.4360  -22.8710 H   0  0  0  0  0  0  0  0  0  0  0  0
   -9.5800    0.1840  -24.2590 H   0  0  0  0  0  0  0  0  0  0  0  0
  -10.1410   -1.4950  -24.2480 H   0  0  0  0  0  0  0  0  0  0  0  0
  1  2  1  0  0  0  0
  1 55  1  0  0  0  0
  1 56  1  0  0  0  0
  1 57  1  0  0  0  0
  2  3  1  0  0  0  0
  2 23  1  0  0  0  0
  2 54  1  6  0  0  0
  3  4  1  0  0  0  0
  3 52  1  0  0  0  0
  3 53  1  0  0  0  0
  4  5  1  0  0  0  0
  4 21  1  0  0  0  0
  5  6  2  0  0  0  0
  5 14  1  0  0  0  0
  6  7  1  0  0  0  0
  6 20  1  0  0  0  0
  7  8  2  0  0  0  0
  8  9  1  0  0  0  0
  8 19  1  0  0  0  0
  9 10  2  0  0  0  0
  9 14  1  0  0  0  0
 10 11  1  0  0  0  0
 10 18  1  0  0  0  0
 11 12  2  0  0  0  0
 11 17  1  0  0  0  0
 12 13  1  0  0  0  0
 12 16  1  0  0  0  0
 13 14  2  0  0  0  0
 13 15  1  0  0  0  0
 21 22  2  0  0  0  0
 23 21  1  1  0  0  0
 23 24  1  0  0  0  0
 23 46  1  0  0  0  0
 24 25  1  0  0  0  0
 24 50  1  0  0  0  0
 24 51  1  0  0  0  0
 25 26  1  0  0  0  0
 25 38  1  0  0  0  0
 26 27  1  0  0  0  0
 26 36  1  0  0  0  0
 26 37  1  0  0  0  0
 27 28  2  0  0  0  0
 27 32  1  0  0  0  0
 28 29  1  0  0  0  0
 29 30  2  0  0  0  0
 29 35  1  0  0  0  0
 30 31  1  0  0  0  0
 30 34  1  0  0  0  0
 31 32  2  0  0  0  0
 31 33  1  0  0  0  0
 38 39  2  0  0  0  0
 38 40  1  0  0  0  0
 40 41  2  0  0  0  0
 40 46  1  0  0  0  0
 41 42  1  0  0  0  0
 41 49  1  0  0  0  0
 42 43  2  0  0  0  0
 42 48  1  0  0  0  0
 43 44  1  0  0  0  0
 43 45  1  0  0  0  0
 45 46  2  0  0  0  0
 45 47  1  0  0  0  0
M  END
>  <MODEL>
       1

$$$$
