output/tmp_first_model_14_83.pdb
 OpenBabel07242620283D

 46 50  0  0  1  0  0  0  0  0999 V2000
   -5.9390   -4.3770  -26.9190 N   0  0  0  0  0  0  0  0  0  0  0  0
   -5.6740   -2.7480  -26.6720 S   0  0  0  0  0  0  0  0  0  0  0  0
   -4.7320   -2.6410  -25.5710 O   0  0  0  0  0  0  0  0  0  0  0  0
   -5.4020   -2.1870  -27.9820 O   0  0  0  0  0  0  0  0  0  0  0  0
   -7.2320   -2.1030  -26.1220 C   0  0  0  0  0  0  0  0  0  0  0  0
   -8.1640   -1.6960  -27.0790 C   0  0  0  0  0  0  0  0  0  0  0  0
   -9.4130   -1.2850  -26.6560 C   0  0  0  0  0  0  0  0  0  0  0  0
   -9.6870   -1.1690  -25.2960 C   0  0  0  0  0  0  0  0  0  0  0  0
   -8.7500   -1.5750  -24.3310 C   0  0  0  0  0  0  0  0  0  0  0  0
   -7.5180   -2.0720  -24.7640 C   0  0  0  0  0  0  0  0  0  0  0  0
   -6.7870   -2.4500  -24.0470 H   0  0  0  0  0  0  0  0  0  0  0  0
   -9.0890   -1.5630  -22.8470 C   0  0  1  0  0  0  0  0  0  0  0  0
  -10.5930   -1.2940  -22.6940 C   0  0  0  0  0  0  0  0  0  0  0  0
  -11.0290   -0.2000  -23.6540 C   0  0  0  0  0  0  0  0  0  0  0  0
  -10.9230   -0.6920  -24.9820 O   0  0  0  0  0  0  0  0  0  0  0  0
  -12.0750    0.0820  -23.5100 H   0  0  0  0  0  0  0  0  0  0  0  0
  -10.4030    0.6970  -23.5550 H   0  0  0  0  0  0  0  0  0  0  0  0
  -10.8340   -1.0390  -21.6630 H   0  0  0  0  0  0  0  0  0  0  0  0
  -11.1160   -2.2160  -22.9630 H   0  0  0  0  0  0  0  0  0  0  0  0
   -8.6700   -2.8080  -22.1870 N   0  0  0  0  0  0  0  0  0  0  0  0
   -7.4720   -2.6330  -21.5220 C   0  0  0  0  0  0  0  0  0  0  0  0
   -6.6530   -3.4700  -21.2230 O   0  0  0  0  0  0  0  0  0  0  0  0
   -7.3490   -1.2630  -21.2850 N   0  0  0  0  0  0  0  0  0  0  0  0
   -6.5680   -0.7220  -20.2340 C   0  0  0  0  0  0  0  0  0  0  0  0
   -6.9110   -0.9520  -18.9270 C   0  0  0  0  0  0  0  0  0  0  0  0
   -6.2400   -0.4410  -17.8700 N   0  0  0  0  0  0  0  0  0  0  0  0
   -5.1860    0.2920  -18.1180 C   0  0  0  0  0  0  0  0  0  0  0  0
   -4.7220    0.6040  -19.4240 C   0  0  0  0  0  0  0  0  0  0  0  0
   -3.5660    1.3940  -19.6430 C   0  0  0  0  0  0  0  0  0  0  0  0
   -3.1430    1.6430  -20.9170 C   0  0  0  0  0  0  0  0  0  0  0  0
   -3.8410    1.1090  -22.0220 C   0  0  0  0  0  0  0  0  0  0  0  0
   -4.9640    0.3470  -21.8330 C   0  0  0  0  0  0  0  0  0  0  0  0
   -5.4300    0.0810  -20.5220 C   0  0  0  0  0  0  0  0  0  0  0  0
   -5.5100   -0.0600  -22.6780 H   0  0  0  0  0  0  0  0  0  0  0  0
   -3.4790    1.2860  -23.0280 H   0  0  0  0  0  0  0  0  0  0  0  0
   -2.2570    2.2450  -21.0900 H   0  0  0  0  0  0  0  0  0  0  0  0
   -3.0300    1.7800  -18.7810 H   0  0  0  0  0  0  0  0  0  0  0  0
   -4.6330    0.6560  -17.2550 H   0  0  0  0  0  0  0  0  0  0  0  0
   -7.7770   -1.5590  -18.6820 H   0  0  0  0  0  0  0  0  0  0  0  0
   -8.2610   -0.5410  -22.0520 C   0  0  0  0  0  0  0  0  0  0  0  0
   -8.3700    0.6650  -22.0460 O   0  0  0  0  0  0  0  0  0  0  0  0
   -8.7180   -3.6690  -22.7180 H   0  0  0  0  0  0  0  0  0  0  0  0
  -10.2140   -1.0730  -27.3530 H   0  0  0  0  0  0  0  0  0  0  0  0
   -7.9070   -1.7070  -28.1360 H   0  0  0  0  0  0  0  0  0  0  0  0
   -6.1770   -4.8670  -26.0640 H   0  0  0  0  0  0  0  0  0  0  0  0
   -6.6130   -4.5460  -27.6600 H   0  0  0  0  0  0  0  0  0  0  0  0
  1  2  1  0  0  0  0
  1 45  1  0  0  0  0
  1 46  1  0  0  0  0
  2  3  2  0  0  0  0
  2  4  2  0  0  0  0
  2  5  1  0  0  0  0
  5  6  2  0  0  0  0
  5 10  1  0  0  0  0
  6  7  1  0  0  0  0
  6 44  1  0  0  0  0
  7  8  2  0  0  0  0
  7 43  1  0  0  0  0
  8  9  1  0  0  0  0
  8 15  1  0  0  0  0
  9 10  2  0  0  0  0
 10 11  1  0  0  0  0
 12  9  1  6  0  0  0
 12 13  1  0  0  0  0
 12 20  1  0  0  0  0
 12 40  1  0  0  0  0
 13 14  1  0  0  0  0
 13 18  1  0  0  0  0
 13 19  1  0  0  0  0
 14 15  1  0  0  0  0
 14 16  1  0  0  0  0
 14 17  1  0  0  0  0
 20 21  1  0  0  0  0
 20 42  1  0  0  0  0
 21 22  2  0  0  0  0
 21 23  1  0  0  0  0
 23 24  1  0  0  0  0
 23 40  1  0  0  0  0
 24 25  2  0  0  0  0
 24 33  1  0  0  0  0
 25 26  1  0  0  0  0
 25 39  1  0  0  0  0
 26 27  2  0  0  0  0
 27 28  1  0  0  0  0
 27 38  1  0  0  0  0
 28 29  2  0  0  0  0
 28 33  1  0  0  0  0
 29 30  1  0  0  0  0
 29 37  1  0  0  0  0
 30 31  2  0  0  0  0
 30 36  1  0  0  0  0
 31 32  1  0  0  0  0
 31 35  1  0  0  0  0
 32 33  2  0  0  0  0
 32 34  1  0  0  0  0
 40 41  2  0  0  0  0
M  END
>  <MODEL>
       1

$$$$
