output/tmp_first_model_4_29.pdb
 OpenBabel07242615033D

 55 60  0  0  1  0  0  0  0  0999 V2000
   -8.6360   -4.2150  -23.7310 C   0  0  0  0  0  0  0  0  0  0  0  0
   -8.6490   -3.3030  -22.5130 C   0  0  1  0  0  0  0  0  0  0  0  0
   -7.2580   -2.7980  -22.1220 C   0  0  0  0  0  0  0  0  0  0  0  0
   -7.5760   -1.7130  -21.2200 N   0  0  0  0  0  0  0  0  0  0  0  0
   -6.6770   -1.2840  -20.2070 C   0  0  0  0  0  0  0  0  0  0  0  0
   -6.8260   -1.6810  -18.9020 C   0  0  0  0  0  0  0  0  0  0  0  0
   -5.9110   -1.4690  -17.9240 N   0  0  0  0  0  0  0  0  0  0  0  0
   -4.8030   -0.8510  -18.2500 C   0  0  0  0  0  0  0  0  0  0  0  0
   -4.5070   -0.3980  -19.5660 C   0  0  0  0  0  0  0  0  0  0  0  0
   -3.2690    0.2200  -19.8940 C   0  0  0  0  0  0  0  0  0  0  0  0
   -3.0360    0.6770  -21.1650 C   0  0  0  0  0  0  0  0  0  0  0  0
   -4.0520    0.5900  -22.1460 C   0  0  0  0  0  0  0  0  0  0  0  0
   -5.2630    0.0150  -21.8400 C   0  0  0  0  0  0  0  0  0  0  0  0
   -5.4950   -0.5580  -20.5610 C   0  0  0  0  0  0  0  0  0  0  0  0
   -6.0840    0.0420  -22.5490 H   0  0  0  0  0  0  0  0  0  0  0  0
   -3.8780    0.9960  -23.1420 H   0  0  0  0  0  0  0  0  0  0  0  0
   -2.0850    1.1400  -21.4220 H   0  0  0  0  0  0  0  0  0  0  0  0
   -2.5200    0.3360  -19.1140 H   0  0  0  0  0  0  0  0  0  0  0  0
   -4.0750   -0.6830  -17.4580 H   0  0  0  0  0  0  0  0  0  0  0  0
   -7.7180   -2.2270  -18.6100 H   0  0  0  0  0  0  0  0  0  0  0  0
   -8.8320   -1.1700  -21.4340 C   0  0  0  0  0  0  0  0  0  0  0  0
   -9.2610   -0.1850  -20.8890 O   0  0  0  0  0  0  0  0  0  0  0  0
   -9.5400   -2.0280  -22.5390 C   0  0  1  0  0  0  0  0  0  0  0  0
   -9.4420   -1.2470  -23.8640 C   0  0  0  0  0  0  0  0  0  0  0  0
  -10.2500   -0.0440  -23.8050 N   0  0  0  0  0  0  0  0  0  0  0  0
   -9.8450    0.9950  -24.7250 C   0  0  0  0  0  0  0  0  0  0  0  0
  -10.0750    0.5710  -26.1450 C   0  0  0  0  0  0  0  0  0  0  0  0
  -11.1560   -0.1240  -26.7100 C   0  0  0  0  0  0  0  0  0  0  0  0
  -10.9450   -0.2740  -28.0110 N   0  0  0  0  0  0  0  0  0  0  0  0
   -9.7570    0.2820  -28.1760 N   0  0  0  0  0  0  0  0  0  0  0  0
   -9.1920    0.8080  -27.1010 N   0  0  0  0  0  0  0  0  0  0  0  0
   -9.3800    0.4480  -29.0960 H   0  0  0  0  0  0  0  0  0  0  0  0
  -12.0530   -0.4840  -26.2350 H   0  0  0  0  0  0  0  0  0  0  0  0
   -8.7760    1.1860  -24.5650 H   0  0  0  0  0  0  0  0  0  0  0  0
  -10.4180    1.8920  -24.4700 H   0  0  0  0  0  0  0  0  0  0  0  0
  -11.5790   -0.1130  -23.4780 C   0  0  0  0  0  0  0  0  0  0  0  0
  -12.3830    0.7560  -23.7930 O   0  0  0  0  0  0  0  0  0  0  0  0
  -11.9870   -1.3420  -22.7380 C   0  0  0  0  0  0  0  0  0  0  0  0
  -13.3530   -1.5430  -22.5220 C   0  0  0  0  0  0  0  0  0  0  0  0
  -13.7940   -2.5820  -21.7300 C   0  0  0  0  0  0  0  0  0  0  0  0
  -12.8270   -3.4120  -21.1830 C   0  0  0  0  0  0  0  0  0  0  0  0
  -13.2270   -4.3150  -20.2740 F   0  0  0  0  0  0  0  0  0  0  0  0
  -11.4900   -3.3260  -21.5150 C   0  0  0  0  0  0  0  0  0  0  0  0
  -11.0250   -2.2580  -22.2870 C   0  0  0  0  0  0  0  0  0  0  0  0
  -10.8120   -4.0460  -21.0750 H   0  0  0  0  0  0  0  0  0  0  0  0
  -14.8440   -2.7680  -21.5400 H   0  0  0  0  0  0  0  0  0  0  0  0
  -14.0500   -0.8370  -22.9590 H   0  0  0  0  0  0  0  0  0  0  0  0
   -8.4160   -0.9380  -24.0630 H   0  0  0  0  0  0  0  0  0  0  0  0
   -9.7390   -1.8840  -24.7080 H   0  0  0  0  0  0  0  0  0  0  0  0
   -6.6900   -2.4630  -23.0070 H   0  0  0  0  0  0  0  0  0  0  0  0
   -6.6580   -3.5590  -21.6140 H   0  0  0  0  0  0  0  0  0  0  0  0
   -8.9930   -3.8770  -21.6480 H   0  0  0  0  0  0  0  0  0  0  0  0
   -9.6150   -4.6790  -23.8880 H   0  0  0  0  0  0  0  0  0  0  0  0
   -7.8990   -5.0190  -23.5970 H   0  0  0  0  0  0  0  0  0  0  0  0
   -8.3630   -3.6670  -24.6410 H   0  0  0  0  0  0  0  0  0  0  0  0
  1  2  1  0  0  0  0
  1 53  1  0  0  0  0
  1 54  1  0  0  0  0
  1 55  1  0  0  0  0
  2  3  1  0  0  0  0
  2 23  1  0  0  0  0
  2 52  1  1  0  0  0
  3  4  1  0  0  0  0
  3 50  1  0  0  0  0
  3 51  1  0  0  0  0
  4  5  1  0  0  0  0
  4 21  1  0  0  0  0
  5  6  2  0  0  0  0
  5 14  1  0  0  0  0
  6  7  1  0  0  0  0
  6 20  1  0  0  0  0
  7  8  2  0  0  0  0
  8  9  1  0  0  0  0
  8 19  1  0  0  0  0
  9 10  2  0  0  0  0
  9 14  1  0  0  0  0
 10 11  1  0  0  0  0
 10 18  1  0  0  0  0
 11 12  2  0  0  0  0
 11 17  1  0  0  0  0
 12 13  1  0  0  0  0
 12 16  1  0  0  0  0
 13 14  2  0  0  0  0
 13 15  1  0  0  0  0
 21 22  2  0  0  0  0
 23 21  1  1  0  0  0
 23 24  1  0  0  0  0
 23 44  1  0  0  0  0
 24 25  1  0  0  0  0
 24 48  1  0  0  0  0
 24 49  1  0  0  0  0
 25 26  1  0  0  0  0
 25 36  1  0  0  0  0
 26 27  1  0  0  0  0
 26 34  1  0  0  0  0
 26 35  1  0  0  0  0
 27 28  1  0  0  0  0
 27 31  2  0  0  0  0
 28 29  2  0  0  0  0
 28 33  1  0  0  0  0
 29 30  1  0  0  0  0
 30 31  1  0  0  0  0
 30 32  1  0  0  0  0
 36 37  2  0  0  0  0
 36 38  1  0  0  0  0
 38 39  2  0  0  0  0
 38 44  1  0  0  0  0
 39 40  1  0  0  0  0
 39 47  1  0  0  0  0
 40 41  2  0  0  0  0
 40 46  1  0  0  0  0
 41 42  1  0  0  0  0
 41 43  1  0  0  0  0
 43 44  2  0  0  0  0
 43 45  1  0  0  0  0
M  END
>  <MODEL>
       1

$$$$
