output/tmp_first_model_1_91.pdb
 OpenBabel07242613193D

 66 71  0  0  1  0  0  0  0  0999 V2000
   -5.8610   -0.1720  -29.5540 C   0  0  0  0  0  0  0  0  0  0  0  0
   -5.7640    0.2560  -28.1780 N   0  0  0  0  0  0  0  0  0  0  0  0
   -5.1380   -0.5000  -27.2370 C   0  0  0  0  0  0  0  0  0  0  0  0
   -4.4310   -1.4620  -27.4930 O   0  0  0  0  0  0  0  0  0  0  0  0
   -5.3580   -0.0110  -25.7920 C   0  0  0  0  0  0  0  0  0  0  0  0
   -6.5470   -0.5620  -25.1500 N   0  0  0  0  0  0  0  0  0  0  0  0
   -6.4560   -1.8030  -24.3850 C   0  0  0  0  0  0  0  0  0  0  0  0
   -7.5430   -1.9050  -23.2650 C   0  0  2  0  0  0  0  0  0  0  0  0
   -7.1970   -1.0450  -22.0310 C   0  0  0  0  0  0  0  0  0  0  0  0
   -7.5870    0.0680  -21.7650 O   0  0  0  0  0  0  0  0  0  0  0  0
   -6.3850   -1.8030  -21.2050 N   0  0  0  0  0  0  0  0  0  0  0  0
   -5.8260   -1.2050  -20.0550 C   0  0  0  0  0  0  0  0  0  0  0  0
   -6.2570   -1.5340  -18.7960 C   0  0  0  0  0  0  0  0  0  0  0  0
   -5.8390   -0.9240  -17.6610 N   0  0  0  0  0  0  0  0  0  0  0  0
   -4.9580    0.0420  -17.7740 C   0  0  0  0  0  0  0  0  0  0  0  0
   -4.4000    0.4650  -19.0130 C   0  0  0  0  0  0  0  0  0  0  0  0
   -3.4220    1.4970  -19.1000 C   0  0  0  0  0  0  0  0  0  0  0  0
   -2.9280    1.8830  -20.3170 C   0  0  0  0  0  0  0  0  0  0  0  0
   -3.3630    1.2430  -21.5000 C   0  0  0  0  0  0  0  0  0  0  0  0
   -4.2840    0.2310  -21.4360 C   0  0  0  0  0  0  0  0  0  0  0  0
   -4.8440   -0.1710  -20.1910 C   0  0  0  0  0  0  0  0  0  0  0  0
   -4.6040   -0.2780  -22.3390 H   0  0  0  0  0  0  0  0  0  0  0  0
   -2.9670    1.5580  -22.4610 H   0  0  0  0  0  0  0  0  0  0  0  0
   -2.1960    2.6830  -20.3890 H   0  0  0  0  0  0  0  0  0  0  0  0
   -3.0800    1.9750  -18.1860 H   0  0  0  0  0  0  0  0  0  0  0  0
   -4.6410    0.5410  -16.8560 H   0  0  0  0  0  0  0  0  0  0  0  0
   -7.0070   -2.3130  -18.6630 H   0  0  0  0  0  0  0  0  0  0  0  0
   -6.3530   -3.2090  -21.5880 C   0  0  0  0  0  0  0  0  0  0  0  0
   -7.5350   -3.2840  -22.5640 C   0  0  2  0  0  0  0  0  0  0  0  0
   -7.6290   -4.5190  -23.4650 C   0  0  0  0  0  0  0  0  0  0  0  0
   -7.7890   -5.7650  -22.7280 N   0  0  0  0  0  0  0  0  0  0  0  0
   -6.6680   -6.4420  -22.2760 C   0  0  0  0  0  0  0  0  0  0  0  0
   -5.5190   -6.6200  -23.0790 C   0  0  0  0  0  0  0  0  0  0  0  0
   -4.4690   -7.3060  -22.6560 N   0  0  0  0  0  0  0  0  0  0  0  0
   -4.5350   -7.8260  -21.4270 C   0  0  0  0  0  0  0  0  0  0  0  0
   -5.6560   -7.6550  -20.6360 C   0  0  0  0  0  0  0  0  0  0  0  0
   -6.7230   -6.9700  -21.0570 N   0  0  0  0  0  0  0  0  0  0  0  0
   -5.7320   -8.0880  -19.6370 H   0  0  0  0  0  0  0  0  0  0  0  0
   -3.6730   -8.3920  -21.0770 H   0  0  0  0  0  0  0  0  0  0  0  0
   -5.4610   -6.2170  -24.0890 H   0  0  0  0  0  0  0  0  0  0  0  0
   -8.5100   -5.7520  -22.0160 H   0  0  0  0  0  0  0  0  0  0  0  0
   -8.4770   -4.4020  -24.1530 H   0  0  0  0  0  0  0  0  0  0  0  0
   -6.7340   -4.6190  -24.0810 H   0  0  0  0  0  0  0  0  0  0  0  0
   -8.4430   -3.2730  -21.9560 H   0  0  0  0  0  0  0  0  0  0  0  0
   -5.4180   -3.4780  -22.0990 H   0  0  0  0  0  0  0  0  0  0  0  0
   -6.4560   -3.8610  -20.7180 H   0  0  0  0  0  0  0  0  0  0  0  0
   -8.8790   -1.5060  -23.8250 C   0  0  0  0  0  0  0  0  0  0  0  0
  -10.0790   -1.7940  -23.1610 C   0  0  0  0  0  0  0  0  0  0  0  0
  -11.2950   -1.4960  -23.7420 C   0  0  0  0  0  0  0  0  0  0  0  0
  -12.7300   -1.9670  -22.8730 Cl  0  0  0  0  0  0  0  0  0  0  0  0
  -11.3480   -0.8560  -24.9800 C   0  0  0  0  0  0  0  0  0  0  0  0
  -10.1700   -0.4850  -25.5750 C   0  0  0  0  0  0  0  0  0  0  0  0
   -8.9460   -0.7480  -24.9900 C   0  0  0  0  0  0  0  0  0  0  0  0
   -7.7490   -0.1040  -25.5920 C   0  0  0  0  0  0  0  0  0  0  0  0
   -7.8440    0.7930  -26.4340 O   0  0  0  0  0  0  0  0  0  0  0  0
  -10.1820    0.0290  -26.5160 H   0  0  0  0  0  0  0  0  0  0  0  0
  -12.2520   -0.5600  -25.4870 H   0  0  0  0  0  0  0  0  0  0  0  0
  -10.0640   -2.2230  -22.1670 H   0  0  0  0  0  0  0  0  0  0  0  0
   -5.4520   -1.8570  -23.9510 H   0  0  0  0  0  0  0  0  0  0  0  0
   -6.5540   -2.6590  -25.0690 H   0  0  0  0  0  0  0  0  0  0  0  0
   -4.4780   -0.2880  -25.2080 H   0  0  0  0  0  0  0  0  0  0  0  0
   -5.4600    1.0760  -25.7720 H   0  0  0  0  0  0  0  0  0  0  0  0
   -6.5130    0.8410  -27.8300 H   0  0  0  0  0  0  0  0  0  0  0  0
   -6.5320   -1.0290  -29.6900 H   0  0  0  0  0  0  0  0  0  0  0  0
   -6.2360    0.6720  -30.1360 H   0  0  0  0  0  0  0  0  0  0  0  0
   -4.8790   -0.4440  -29.9390 H   0  0  0  0  0  0  0  0  0  0  0  0
  1  2  1  0  0  0  0
  1 64  1  0  0  0  0
  1 65  1  0  0  0  0
  1 66  1  0  0  0  0
  2  3  1  0  0  0  0
  2 63  1  0  0  0  0
  3  4  2  0  0  0  0
  3  5  1  0  0  0  0
  5  6  1  0  0  0  0
  5 61  1  0  0  0  0
  5 62  1  0  0  0  0
  6  7  1  0  0  0  0
  6 54  1  0  0  0  0
  7  8  1  0  0  0  0
  7 59  1  0  0  0  0
  7 60  1  0  0  0  0
  8  9  1  1  0  0  0
  8 29  1  0  0  0  0
  8 47  1  0  0  0  0
  9 10  2  0  0  0  0
  9 11  1  0  0  0  0
 11 12  1  0  0  0  0
 11 28  1  0  0  0  0
 12 13  2  0  0  0  0
 12 21  1  0  0  0  0
 13 14  1  0  0  0  0
 13 27  1  0  0  0  0
 14 15  2  0  0  0  0
 15 16  1  0  0  0  0
 15 26  1  0  0  0  0
 16 17  2  0  0  0  0
 16 21  1  0  0  0  0
 17 18  1  0  0  0  0
 17 25  1  0  0  0  0
 18 19  2  0  0  0  0
 18 24  1  0  0  0  0
 19 20  1  0  0  0  0
 19 23  1  0  0  0  0
 20 21  2  0  0  0  0
 20 22  1  0  0  0  0
 28 29  1  0  0  0  0
 28 45  1  0  0  0  0
 28 46  1  0  0  0  0
 29 30  1  0  0  0  0
 29 44  1  1  0  0  0
 30 31  1  0  0  0  0
 30 42  1  0  0  0  0
 30 43  1  0  0  0  0
 31 32  1  0  0  0  0
 31 41  1  0  0  0  0
 32 33  2  0  0  0  0
 32 37  1  0  0  0  0
 33 34  1  0  0  0  0
 33 40  1  0  0  0  0
 34 35  2  0  0  0  0
 35 36  1  0  0  0  0
 35 39  1  0  0  0  0
 36 37  2  0  0  0  0
 36 38  1  0  0  0  0
 47 48  2  0  0  0  0
 47 53  1  0  0  0  0
 48 49  1  0  0  0  0
 48 58  1  0  0  0  0
 49 50  1  0  0  0  0
 49 51  2  0  0  0  0
 51 52  1  0  0  0  0
 51 57  1  0  0  0  0
 52 53  2  0  0  0  0
 52 56  1  0  0  0  0
 53 54  1  0  0  0  0
 54 55  2  0  0  0  0
M  END
>  <MODEL>
       1

$$$$
