output/tmp_first_model_5_5.pdb
 OpenBabel07242615323D

 58 61  0  0  1  0  0  0  0  0999 V2000
   -5.7010   -4.3340  -20.2490 C   0  0  0  0  0  0  0  0  0  0  0  0
   -6.1470   -3.5160  -21.1940 C   0  0  0  0  0  0  0  0  0  0  0  0
   -7.4990   -2.8650  -21.2520 C   0  0  0  0  0  0  0  0  0  0  0  0
   -7.3530   -1.4460  -20.9150 N   0  0  0  0  0  0  0  0  0  0  0  0
   -8.0130   -0.3960  -21.5480 C   0  0  0  0  0  0  0  0  0  0  0  0
   -8.2200    0.6560  -20.9810 O   0  0  0  0  0  0  0  0  0  0  0  0
   -8.4280   -0.6480  -22.9800 C   0  0  2  0  0  0  0  0  0  0  0  0
   -8.1480    0.6170  -23.8030 C   0  0  0  0  0  0  0  0  0  0  0  0
   -8.6130    0.4000  -25.1570 N   0  0  0  0  0  0  0  0  0  0  0  0
   -7.8820    0.8920  -26.3160 C   0  0  0  0  0  0  0  0  0  0  0  0
   -8.2380    2.3170  -26.7660 C   0  0  0  0  0  0  0  0  0  0  0  0
   -8.8510    2.5600  -27.7900 O   0  0  0  0  0  0  0  0  0  0  0  0
   -7.8040    3.3170  -25.9560 N   0  0  0  0  0  0  0  0  0  0  0  0
   -8.1560    4.6830  -26.2760 C   0  0  0  0  0  0  0  0  0  0  0  0
   -7.6500    5.3630  -25.5900 H   0  0  0  0  0  0  0  0  0  0  0  0
   -9.2370    4.8310  -26.1940 H   0  0  0  0  0  0  0  0  0  0  0  0
   -7.8600    4.9160  -27.3020 H   0  0  0  0  0  0  0  0  0  0  0  0
   -7.2720    3.1230  -25.1230 H   0  0  0  0  0  0  0  0  0  0  0  0
   -8.1010    0.2360  -27.1570 H   0  0  0  0  0  0  0  0  0  0  0  0
   -6.8100    0.8260  -26.0920 H   0  0  0  0  0  0  0  0  0  0  0  0
   -9.8730   -0.0910  -25.3730 C   0  0  0  0  0  0  0  0  0  0  0  0
  -10.4030    0.0010  -26.4650 O   0  0  0  0  0  0  0  0  0  0  0  0
  -10.5550   -0.7730  -24.2310 C   0  0  0  0  0  0  0  0  0  0  0  0
  -11.8800   -1.1580  -24.3840 C   0  0  0  0  0  0  0  0  0  0  0  0
  -12.5460   -1.8480  -23.3950 C   0  0  0  0  0  0  0  0  0  0  0  0
  -11.8610   -2.1750  -22.2310 C   0  0  0  0  0  0  0  0  0  0  0  0
  -12.7180   -3.1080  -21.0380 Cl  0  0  0  0  0  0  0  0  0  0  0  0
  -10.5400   -1.7870  -22.0450 C   0  0  0  0  0  0  0  0  0  0  0  0
   -9.8810   -1.0690  -23.0540 C   0  0  0  0  0  0  0  0  0  0  0  0
  -10.0340   -2.0410  -21.1170 H   0  0  0  0  0  0  0  0  0  0  0  0
  -13.5850   -2.1350  -23.4990 H   0  0  0  0  0  0  0  0  0  0  0  0
  -12.3690   -0.9240  -25.3080 H   0  0  0  0  0  0  0  0  0  0  0  0
   -8.6340    1.4730  -23.3160 H   0  0  0  0  0  0  0  0  0  0  0  0
   -7.0690    0.8100  -23.8370 H   0  0  0  0  0  0  0  0  0  0  0  0
   -7.7930   -1.4230  -23.4300 H   0  0  0  0  0  0  0  0  0  0  0  0
   -6.3990   -1.0870  -19.9530 C   0  0  0  0  0  0  0  0  0  0  0  0
   -6.5580   -1.4150  -18.6300 C   0  0  0  0  0  0  0  0  0  0  0  0
   -5.6140   -1.1940  -17.6900 N   0  0  0  0  0  0  0  0  0  0  0  0
   -4.5170   -0.5760  -18.0700 C   0  0  0  0  0  0  0  0  0  0  0  0
   -4.2750   -0.1310  -19.4010 C   0  0  0  0  0  0  0  0  0  0  0  0
   -3.2190    0.7590  -19.7210 C   0  0  0  0  0  0  0  0  0  0  0  0
   -3.1980    1.4020  -20.9280 C   0  0  0  0  0  0  0  0  0  0  0  0
   -4.0840    1.0100  -21.9630 C   0  0  0  0  0  0  0  0  0  0  0  0
   -5.0070    0.0250  -21.7270 C   0  0  0  0  0  0  0  0  0  0  0  0
   -5.2280   -0.4190  -20.3900 C   0  0  0  0  0  0  0  0  0  0  0  0
   -5.5330   -0.4560  -22.5510 H   0  0  0  0  0  0  0  0  0  0  0  0
   -3.9700    1.4160  -22.9650 H   0  0  0  0  0  0  0  0  0  0  0  0
   -2.4660    2.1750  -21.1310 H   0  0  0  0  0  0  0  0  0  0  0  0
   -2.5360    1.0340  -18.9230 H   0  0  0  0  0  0  0  0  0  0  0  0
   -3.7660   -0.3530  -17.3090 H   0  0  0  0  0  0  0  0  0  0  0  0
   -7.4780   -1.9010  -18.3040 H   0  0  0  0  0  0  0  0  0  0  0  0
   -7.9250   -2.9510  -22.2520 H   0  0  0  0  0  0  0  0  0  0  0  0
   -8.2030   -3.3270  -20.5590 H   0  0  0  0  0  0  0  0  0  0  0  0
   -5.1870   -3.0080  -22.2740 C   0  0  0  0  0  0  0  0  0  0  0  0
   -3.9840   -3.2440  -22.0580 O   0  0  0  0  0  0  0  0  0  0  0  0
   -5.7010   -2.4780  -23.2870 O   0  5  0  0  0  0  0  0  0  0  0  0
   -4.6690   -4.6610  -20.2330 H   0  0  0  0  0  0  0  0  0  0  0  0
   -6.3380   -4.6610  -19.4300 H   0  0  0  0  0  0  0  0  0  0  0  0
  1  2  2  0  0  0  0
  1 57  1  0  0  0  0
  1 58  1  0  0  0  0
  2  3  1  0  0  0  0
  2 54  1  0  0  0  0
  3  4  1  0  0  0  0
  3 52  1  0  0  0  0
  3 53  1  0  0  0  0
  4  5  1  0  0  0  0
  4 36  1  0  0  0  0
  5  6  2  0  0  0  0
  5  7  1  0  0  0  0
  7  8  1  0  0  0  0
  7 29  1  0  0  0  0
  7 35  1  6  0  0  0
  8  9  1  0  0  0  0
  8 33  1  0  0  0  0
  8 34  1  0  0  0  0
  9 10  1  0  0  0  0
  9 21  1  0  0  0  0
 10 11  1  0  0  0  0
 10 19  1  0  0  0  0
 10 20  1  0  0  0  0
 11 12  2  0  0  0  0
 11 13  1  0  0  0  0
 13 14  1  0  0  0  0
 13 18  1  0  0  0  0
 14 15  1  0  0  0  0
 14 16  1  0  0  0  0
 14 17  1  0  0  0  0
 21 22  2  0  0  0  0
 21 23  1  0  0  0  0
 23 24  2  0  0  0  0
 23 29  1  0  0  0  0
 24 25  1  0  0  0  0
 24 32  1  0  0  0  0
 25 26  2  0  0  0  0
 25 31  1  0  0  0  0
 26 27  1  0  0  0  0
 26 28  1  0  0  0  0
 28 29  2  0  0  0  0
 28 30  1  0  0  0  0
 36 37  2  0  0  0  0
 36 45  1  0  0  0  0
 37 38  1  0  0  0  0
 37 51  1  0  0  0  0
 38 39  2  0  0  0  0
 39 40  1  0  0  0  0
 39 50  1  0  0  0  0
 40 41  2  0  0  0  0
 40 45  1  0  0  0  0
 41 42  1  0  0  0  0
 41 49  1  0  0  0  0
 42 43  2  0  0  0  0
 42 48  1  0  0  0  0
 43 44  1  0  0  0  0
 43 47  1  0  0  0  0
 44 45  2  0  0  0  0
 44 46  1  0  0  0  0
 54 55  2  0  0  0  0
 54 56  1  0  0  0  0
M  CHG  1  56  -1
M  END
>  <MODEL>
       1

$$$$
