output/tmp_first_model_5_11.pdb
 OpenBabel07242615323D

 48 52  0  0  0  0  0  0  0  0999 V2000
  -10.1190   -0.8200  -23.6020 C   0  0  0  0  0  0  0  0  0  0  0  0
   -9.1160   -1.4170  -22.7370 N   0  0  0  0  0  0  0  0  0  0  0  0
   -8.4140   -0.6470  -21.8460 C   0  0  0  0  0  0  0  0  0  0  0  0
   -8.5490    0.5410  -21.6430 O   0  0  0  0  0  0  0  0  0  0  0  0
   -7.5170   -1.5050  -21.1870 N   0  0  0  0  0  0  0  0  0  0  0  0
   -6.5380   -1.1160  -20.2200 C   0  0  0  0  0  0  0  0  0  0  0  0
   -6.6510   -1.5730  -18.9270 C   0  0  0  0  0  0  0  0  0  0  0  0
   -5.6800   -1.4480  -17.9890 N   0  0  0  0  0  0  0  0  0  0  0  0
   -4.5800   -0.8210  -18.3320 C   0  0  0  0  0  0  0  0  0  0  0  0
   -4.3960   -0.1750  -19.5840 C   0  0  0  0  0  0  0  0  0  0  0  0
   -3.2680    0.6610  -19.8070 C   0  0  0  0  0  0  0  0  0  0  0  0
   -3.2110    1.4420  -20.9280 C   0  0  0  0  0  0  0  0  0  0  0  0
   -4.2180    1.3310  -21.9170 C   0  0  0  0  0  0  0  0  0  0  0  0
   -5.3080    0.5110  -21.7300 C   0  0  0  0  0  0  0  0  0  0  0  0
   -5.4230   -0.2700  -20.5470 C   0  0  0  0  0  0  0  0  0  0  0  0
   -6.1190    0.4840  -22.4480 H   0  0  0  0  0  0  0  0  0  0  0  0
   -4.1070    1.8740  -22.8490 H   0  0  0  0  0  0  0  0  0  0  0  0
   -2.3690    2.1130  -21.0820 H   0  0  0  0  0  0  0  0  0  0  0  0
   -2.5380    0.7310  -19.0060 H   0  0  0  0  0  0  0  0  0  0  0  0
   -3.7800   -0.7390  -17.5910 H   0  0  0  0  0  0  0  0  0  0  0  0
   -7.5760   -2.0460  -18.5920 H   0  0  0  0  0  0  0  0  0  0  0  0
   -7.7510   -2.8330  -21.5360 C   0  0  0  0  0  0  0  0  0  0  0  0
   -7.1280   -3.7860  -21.1300 O   0  0  0  0  0  0  0  0  0  0  0  0
   -8.9030   -2.8310  -22.5270 C   0  0  0  0  0  0  0  0  0  0  0  0
   -8.7180   -3.7560  -23.7480 C   0  0  0  0  0  0  0  0  0  0  0  0
   -9.9530   -4.4940  -23.4000 N   0  0  0  0  0  0  0  0  0  0  0  0
  -11.2070   -4.3920  -24.5310 S   0  0  0  0  0  0  0  0  0  0  0  0
  -11.2280   -3.0620  -25.1270 O   0  0  0  0  0  0  0  0  0  0  0  0
  -12.4010   -4.8920  -23.8890 O   0  0  0  0  0  0  0  0  0  0  0  0
  -10.6090   -5.5040  -25.7640 C   0  0  0  0  0  0  0  0  0  0  0  0
  -10.2540   -5.0110  -27.0160 C   0  0  0  0  0  0  0  0  0  0  0  0
   -9.6900   -5.8720  -27.9470 C   0  0  0  0  0  0  0  0  0  0  0  0
   -9.4580   -7.2040  -27.6090 C   0  0  0  0  0  0  0  0  0  0  0  0
   -9.8240   -7.6790  -26.3490 C   0  0  0  0  0  0  0  0  0  0  0  0
  -10.4050   -6.8300  -25.4140 C   0  0  0  0  0  0  0  0  0  0  0  0
  -10.6800   -7.1790  -24.4220 H   0  0  0  0  0  0  0  0  0  0  0  0
   -9.6490   -8.7180  -26.0910 H   0  0  0  0  0  0  0  0  0  0  0  0
   -8.9510   -7.8660  -28.3090 H   0  0  0  0  0  0  0  0  0  0  0  0
   -9.4200   -5.4830  -28.9260 H   0  0  0  0  0  0  0  0  0  0  0  0
  -10.3870   -3.9540  -27.2210 H   0  0  0  0  0  0  0  0  0  0  0  0
  -10.1320   -3.7020  -22.1520 C   0  0  0  0  0  0  0  0  0  0  0  0
   -9.9570   -4.3240  -21.2740 H   0  0  0  0  0  0  0  0  0  0  0  0
  -11.0900   -3.1810  -22.0710 H   0  0  0  0  0  0  0  0  0  0  0  0
   -7.8530   -4.4120  -23.6580 H   0  0  0  0  0  0  0  0  0  0  0  0
   -8.7200   -3.2590  -24.7200 H   0  0  0  0  0  0  0  0  0  0  0  0
   -9.9640    0.2580  -23.5550 H   0  0  0  0  0  0  0  0  0  0  0  0
  -11.1330   -1.0450  -23.2550 H   0  0  0  0  0  0  0  0  0  0  0  0
  -10.0150   -1.1760  -24.6290 H   0  0  0  0  0  0  0  0  0  0  0  0
  1  2  1  0  0  0  0
  1 46  1  0  0  0  0
  1 47  1  0  0  0  0
  1 48  1  0  0  0  0
  2  3  1  0  0  0  0
  2 24  1  0  0  0  0
  3  4  2  0  0  0  0
  3  5  1  0  0  0  0
  5  6  1  0  0  0  0
  5 22  1  0  0  0  0
  6  7  2  0  0  0  0
  6 15  1  0  0  0  0
  7  8  1  0  0  0  0
  7 21  1  0  0  0  0
  8  9  2  0  0  0  0
  9 10  1  0  0  0  0
  9 20  1  0  0  0  0
 10 11  2  0  0  0  0
 10 15  1  0  0  0  0
 11 12  1  0  0  0  0
 11 19  1  0  0  0  0
 12 13  2  0  0  0  0
 12 18  1  0  0  0  0
 13 14  1  0  0  0  0
 13 17  1  0  0  0  0
 14 15  2  0  0  0  0
 14 16  1  0  0  0  0
 22 23  2  0  0  0  0
 22 24  1  0  0  0  0
 24 25  1  0  0  0  0
 24 41  1  0  0  0  0
 25 26  1  0  0  0  0
 25 44  1  0  0  0  0
 25 45  1  0  0  0  0
 26 27  1  0  0  0  0
 26 41  1  0  0  0  0
 27 28  2  0  0  0  0
 27 29  2  0  0  0  0
 27 30  1  0  0  0  0
 30 31  2  0  0  0  0
 30 35  1  0  0  0  0
 31 32  1  0  0  0  0
 31 40  1  0  0  0  0
 32 33  2  0  0  0  0
 32 39  1  0  0  0  0
 33 34  1  0  0  0  0
 33 38  1  0  0  0  0
 34 35  2  0  0  0  0
 34 37  1  0  0  0  0
 35 36  1  0  0  0  0
 41 42  1  0  0  0  0
 41 43  1  0  0  0  0
M  END
>  <MODEL>
       1

$$$$
