output/tmp_first_model_1_80.pdb
 OpenBabel07242613193D

 60 65  0  0  1  0  0  0  0  0999 V2000
   -2.6860   -6.7840  -22.7220 C   0  0  0  0  0  0  0  0  0  0  0  0
   -3.9430   -6.1870  -22.2560 N   0  0  0  0  0  0  0  0  0  0  0  0
   -4.9960   -6.9940  -22.0020 C   0  0  0  0  0  0  0  0  0  0  0  0
   -4.9470   -8.1900  -22.0280 O   0  0  0  0  0  0  0  0  0  0  0  0
   -6.6690   -6.0200  -21.4680 C   0  0  0  0  0  0  0  0  0  0  0  0
   -7.5000   -5.5020  -22.5670 N   0  0  0  0  0  0  0  0  0  0  0  0
   -8.4570   -4.4260  -22.3510 C   0  0  0  0  0  0  0  0  0  0  0  0
   -7.9800   -3.0490  -22.8680 C   0  0  2  0  0  0  0  0  0  0  0  0
   -6.8320   -2.4970  -22.0010 C   0  0  0  0  0  0  0  0  0  0  0  0
   -5.6790   -2.8860  -21.9960 O   0  0  0  0  0  0  0  0  0  0  0  0
   -7.3170   -1.4680  -21.2220 N   0  0  0  0  0  0  0  0  0  0  0  0
   -6.5560   -0.8650  -20.1970 C   0  0  0  0  0  0  0  0  0  0  0  0
   -6.9000   -1.0700  -18.8850 C   0  0  0  0  0  0  0  0  0  0  0  0
   -6.2250   -0.5650  -17.8240 N   0  0  0  0  0  0  0  0  0  0  0  0
   -5.1900    0.1980  -18.0820 C   0  0  0  0  0  0  0  0  0  0  0  0
   -4.7370    0.5110  -19.3960 C   0  0  0  0  0  0  0  0  0  0  0  0
   -3.6140    1.3510  -19.6190 C   0  0  0  0  0  0  0  0  0  0  0  0
   -3.2190    1.6550  -20.8930 C   0  0  0  0  0  0  0  0  0  0  0  0
   -3.9280    1.1410  -22.0020 C   0  0  0  0  0  0  0  0  0  0  0  0
   -5.0160    0.3250  -21.8150 C   0  0  0  0  0  0  0  0  0  0  0  0
   -5.4380   -0.0230  -20.4990 C   0  0  0  0  0  0  0  0  0  0  0  0
   -5.5600   -0.0660  -22.6690 H   0  0  0  0  0  0  0  0  0  0  0  0
   -3.6090    1.4000  -23.0080 H   0  0  0  0  0  0  0  0  0  0  0  0
   -2.3650    2.3050  -21.0630 H   0  0  0  0  0  0  0  0  0  0  0  0
   -3.0920    1.7540  -18.7560 H   0  0  0  0  0  0  0  0  0  0  0  0
   -4.6530    0.6110  -17.2300 H   0  0  0  0  0  0  0  0  0  0  0  0
   -7.7500   -1.7090  -18.6470 H   0  0  0  0  0  0  0  0  0  0  0  0
   -8.7610   -1.3340  -21.3010 C   0  0  0  0  0  0  0  0  0  0  0  0
   -9.1040   -1.9890  -22.6480 C   0  0  2  0  0  0  0  0  0  0  0  0
  -10.5420   -2.5090  -22.6810 C   0  0  0  0  0  0  0  0  0  0  0  0
  -10.7410   -3.1870  -21.8410 H   0  0  0  0  0  0  0  0  0  0  0  0
  -11.2600   -1.6880  -22.6020 H   0  0  0  0  0  0  0  0  0  0  0  0
  -10.7540   -3.0550  -23.6070 H   0  0  0  0  0  0  0  0  0  0  0  0
   -8.9980   -1.2250  -23.4220 H   0  0  0  0  0  0  0  0  0  0  0  0
   -9.0490   -0.2790  -21.2570 H   0  0  0  0  0  0  0  0  0  0  0  0
   -9.2650   -1.8670  -20.4800 H   0  0  0  0  0  0  0  0  0  0  0  0
   -7.4830   -3.2390  -24.2850 C   0  0  0  0  0  0  0  0  0  0  0  0
   -7.3630   -2.1310  -25.1330 C   0  0  0  0  0  0  0  0  0  0  0  0
   -6.9260   -2.2990  -26.4340 C   0  0  0  0  0  0  0  0  0  0  0  0
   -6.8250   -0.8990  -27.4720 Cl  0  0  0  0  0  0  0  0  0  0  0  0
   -6.5700   -3.5560  -26.9280 C   0  0  0  0  0  0  0  0  0  0  0  0
   -6.6220   -4.6410  -26.0720 C   0  0  0  0  0  0  0  0  0  0  0  0
   -7.0520   -4.4950  -24.7440 C   0  0  0  0  0  0  0  0  0  0  0  0
   -6.9590   -5.6700  -23.8170 C   0  0  0  0  0  0  0  0  0  0  0  0
   -6.4120   -6.7150  -24.1390 O   0  0  0  0  0  0  0  0  0  0  0  0
   -6.3270   -5.6230  -26.4270 H   0  0  0  0  0  0  0  0  0  0  0  0
   -6.2480   -3.6520  -27.9630 H   0  0  0  0  0  0  0  0  0  0  0  0
   -7.6070   -1.1300  -24.7840 H   0  0  0  0  0  0  0  0  0  0  0  0
   -9.3880   -4.7050  -22.8650 H   0  0  0  0  0  0  0  0  0  0  0  0
   -8.6450   -4.3760  -21.2810 H   0  0  0  0  0  0  0  0  0  0  0  0
   -6.9550   -6.2850  -21.3090 C   0  0  0  0  0  0  0  0  0  0  0  0
   -5.9660   -5.3830  -20.3660 C   0  0  0  0  0  0  0  0  0  0  0  0
   -5.5000   -6.0740  -19.7180 H   0  0  0  0  0  0  0  0  0  0  0  0
   -6.4760   -4.4920  -20.0600 H   0  0  0  0  0  0  0  0  0  0  0  0
   -7.8660   -6.4860  -20.7440 H   0  0  0  0  0  0  0  0  0  0  0  0
   -7.2310   -7.3960  -21.5190 H   0  0  0  0  0  0  0  0  0  0  0  0
   -4.0360   -5.1760  -22.3270 H   0  0  0  0  0  0  0  0  0  0  0  0
   -2.3330   -7.5330  -22.0040 H   0  0  0  0  0  0  0  0  0  0  0  0
   -2.8220   -7.3050  -23.6790 H   0  0  0  0  0  0  0  0  0  0  0  0
   -1.9260   -6.0070  -22.8300 H   0  0  0  0  0  0  0  0  0  0  0  0
  1  2  1  0  0  0  0
  1 58  1  0  0  0  0
  1 59  1  0  0  0  0
  1 60  1  0  0  0  0
  2  3  1  0  0  0  0
  2 57  1  0  0  0  0
  3  4  2  0  0  0  0
  3  5  1  0  0  0  0
  5  6  1  0  0  0  0
  5 51  1  0  0  0  0
  5 52  1  0  0  0  0
  6  7  1  0  0  0  0
  6 44  1  0  0  0  0
  7  8  1  0  0  0  0
  7 49  1  0  0  0  0
  7 50  1  0  0  0  0
  8  9  1  1  0  0  0
  8 29  1  0  0  0  0
  8 37  1  0  0  0  0
  9 10  2  0  0  0  0
  9 11  1  0  0  0  0
 11 12  1  0  0  0  0
 11 28  1  0  0  0  0
 12 13  2  0  0  0  0
 12 21  1  0  0  0  0
 13 14  1  0  0  0  0
 13 27  1  0  0  0  0
 14 15  2  0  0  0  0
 15 16  1  0  0  0  0
 15 26  1  0  0  0  0
 16 17  2  0  0  0  0
 16 21  1  0  0  0  0
 17 18  1  0  0  0  0
 17 25  1  0  0  0  0
 18 19  2  0  0  0  0
 18 24  1  0  0  0  0
 19 20  1  0  0  0  0
 19 23  1  0  0  0  0
 20 21  2  0  0  0  0
 20 22  1  0  0  0  0
 28 29  1  0  0  0  0
 28 35  1  0  0  0  0
 28 36  1  0  0  0  0
 29 30  1  0  0  0  0
 29 34  1  6  0  0  0
 30 31  1  0  0  0  0
 30 32  1  0  0  0  0
 30 33  1  0  0  0  0
 37 38  2  0  0  0  0
 37 43  1  0  0  0  0
 38 39  1  0  0  0  0
 38 48  1  0  0  0  0
 39 40  1  0  0  0  0
 39 41  2  0  0  0  0
 41 42  1  0  0  0  0
 41 47  1  0  0  0  0
 42 43  2  0  0  0  0
 42 46  1  0  0  0  0
 43 44  1  0  0  0  0
 44 45  2  0  0  0  0
 51 52  1  0  0  0  0
 51 55  1  0  0  0  0
 51 56  1  0  0  0  0
 52 53  1  0  0  0  0
 52 54  1  0  0  0  0
M  END
>  <MODEL>
       1

$$$$
