output/tmp_first_model_20_44.pdb
 OpenBabel07242623363D

 60 64  0  0  1  0  0  0  0  0999 V2000
  -14.9610   -2.1370  -23.8880 C   0  0  0  0  0  0  0  0  0  0  0  0
  -14.1470   -3.0710  -23.1580 N   0  0  0  0  0  0  0  0  0  0  0  0
  -13.2910   -2.6340  -22.1970 C   0  0  0  0  0  0  0  0  0  0  0  0
  -13.2200   -1.4640  -21.8520 O   0  0  0  0  0  0  0  0  0  0  0  0
  -12.4370   -3.7760  -21.6530 C   0  0  0  0  0  0  0  0  0  0  0  0
  -11.1070   -3.7950  -22.2450 N   0  0  0  0  0  0  0  0  0  0  0  0
   -9.9580   -3.3270  -21.4800 C   0  0  0  0  0  0  0  0  0  0  0  0
   -8.7760   -2.8820  -22.3670 C   0  0  2  0  0  0  0  0  0  0  0  0
   -7.5600   -2.6770  -21.4540 C   0  0  0  0  0  0  0  0  0  0  0  0
   -6.8360   -3.5270  -20.9850 O   0  0  0  0  0  0  0  0  0  0  0  0
   -7.4020   -1.3250  -21.2400 N   0  0  0  0  0  0  0  0  0  0  0  0
   -6.5830   -0.8450  -20.1950 C   0  0  0  0  0  0  0  0  0  0  0  0
   -6.8950   -1.1080  -18.8860 C   0  0  0  0  0  0  0  0  0  0  0  0
   -6.2170   -0.5860  -17.8350 N   0  0  0  0  0  0  0  0  0  0  0  0
   -5.1940    0.1880  -18.0930 C   0  0  0  0  0  0  0  0  0  0  0  0
   -4.7460    0.5070  -19.4070 C   0  0  0  0  0  0  0  0  0  0  0  0
   -3.6160    1.3290  -19.6470 C   0  0  0  0  0  0  0  0  0  0  0  0
   -3.2230    1.6030  -20.9260 C   0  0  0  0  0  0  0  0  0  0  0  0
   -3.9300    1.0700  -22.0270 C   0  0  0  0  0  0  0  0  0  0  0  0
   -5.0280    0.2680  -21.8240 C   0  0  0  0  0  0  0  0  0  0  0  0
   -5.4600   -0.0210  -20.5020 C   0  0  0  0  0  0  0  0  0  0  0  0
   -5.5690   -0.1520  -22.6650 H   0  0  0  0  0  0  0  0  0  0  0  0
   -3.6090    1.3000  -23.0380 H   0  0  0  0  0  0  0  0  0  0  0  0
   -2.3630    2.2410  -21.1100 H   0  0  0  0  0  0  0  0  0  0  0  0
   -3.0790    1.7270  -18.7910 H   0  0  0  0  0  0  0  0  0  0  0  0
   -4.6580    0.6070  -17.2400 H   0  0  0  0  0  0  0  0  0  0  0  0
   -7.7360   -1.7530  -18.6390 H   0  0  0  0  0  0  0  0  0  0  0  0
   -8.4030   -0.4960  -21.8890 C   0  0  0  0  0  0  0  0  0  0  0  0
   -8.9860   -1.4440  -22.9480 C   0  0  2  0  0  0  0  0  0  0  0  0
  -10.4250   -1.1260  -23.3140 C   0  0  0  0  0  0  0  0  0  0  0  0
  -10.5220    0.1190  -23.9610 O   0  0  0  0  0  0  0  0  0  0  0  0
  -11.8790    0.3590  -24.2560 C   0  0  0  0  0  0  0  0  0  0  0  0
  -12.4860    0.3820  -23.3390 H   0  0  0  0  0  0  0  0  0  0  0  0
  -12.2720   -0.4510  -24.8900 H   0  0  0  0  0  0  0  0  0  0  0  0
  -11.9580    1.3080  -24.7900 H   0  0  0  0  0  0  0  0  0  0  0  0
  -10.8020   -1.9150  -23.9800 H   0  0  0  0  0  0  0  0  0  0  0  0
  -11.0650   -1.1180  -22.4190 H   0  0  0  0  0  0  0  0  0  0  0  0
   -8.3790   -1.3690  -23.8580 H   0  0  0  0  0  0  0  0  0  0  0  0
   -9.1630   -0.1600  -21.1650 H   0  0  0  0  0  0  0  0  0  0  0  0
   -7.9540    0.3980  -22.3310 H   0  0  0  0  0  0  0  0  0  0  0  0
   -8.5350   -3.9370  -23.4130 C   0  0  0  0  0  0  0  0  0  0  0  0
   -7.2680   -4.0960  -23.9770 C   0  0  0  0  0  0  0  0  0  0  0  0
   -7.0630   -5.0470  -24.9580 C   0  0  0  0  0  0  0  0  0  0  0  0
   -5.4720   -5.2300  -25.6380 Cl  0  0  0  0  0  0  0  0  0  0  0  0
   -8.0990   -5.8650  -25.4070 C   0  0  0  0  0  0  0  0  0  0  0  0
   -9.3640   -5.6750  -24.8840 C   0  0  0  0  0  0  0  0  0  0  0  0
   -9.5830   -4.7220  -23.8940 C   0  0  0  0  0  0  0  0  0  0  0  0
  -10.9700   -4.5360  -23.3830 C   0  0  0  0  0  0  0  0  0  0  0  0
  -11.9400   -5.0150  -23.9640 O   0  0  0  0  0  0  0  0  0  0  0  0
  -10.2130   -6.2500  -25.2370 H   0  0  0  0  0  0  0  0  0  0  0  0
   -7.9080   -6.6370  -26.1440 H   0  0  0  0  0  0  0  0  0  0  0  0
   -6.4370   -3.4960  -23.6290 H   0  0  0  0  0  0  0  0  0  0  0  0
   -9.6150   -4.1110  -20.8060 H   0  0  0  0  0  0  0  0  0  0  0  0
  -10.2380   -2.4690  -20.8590 H   0  0  0  0  0  0  0  0  0  0  0  0
  -12.9760   -4.6720  -21.9530 H   0  0  0  0  0  0  0  0  0  0  0  0
  -12.3740   -3.7680  -20.5660 H   0  0  0  0  0  0  0  0  0  0  0  0
  -13.8780   -3.9190  -23.6280 H   0  0  0  0  0  0  0  0  0  0  0  0
  -15.5100   -1.5390  -23.1680 H   0  0  0  0  0  0  0  0  0  0  0  0
  -15.6440   -2.6840  -24.5410 H   0  0  0  0  0  0  0  0  0  0  0  0
  -14.3790   -1.4410  -24.4990 H   0  0  0  0  0  0  0  0  0  0  0  0
  1  2  1  0  0  0  0
  1 58  1  0  0  0  0
  1 59  1  0  0  0  0
  1 60  1  0  0  0  0
  2  3  1  0  0  0  0
  2 57  1  0  0  0  0
  3  4  2  0  0  0  0
  3  5  1  0  0  0  0
  5  6  1  0  0  0  0
  5 55  1  0  0  0  0
  5 56  1  0  0  0  0
  6  7  1  0  0  0  0
  6 48  1  0  0  0  0
  7  8  1  0  0  0  0
  7 53  1  0  0  0  0
  7 54  1  0  0  0  0
  8  9  1  1  0  0  0
  8 29  1  0  0  0  0
  8 41  1  0  0  0  0
  9 10  2  0  0  0  0
  9 11  1  0  0  0  0
 11 12  1  0  0  0  0
 11 28  1  0  0  0  0
 12 13  2  0  0  0  0
 12 21  1  0  0  0  0
 13 14  1  0  0  0  0
 13 27  1  0  0  0  0
 14 15  2  0  0  0  0
 15 16  1  0  0  0  0
 15 26  1  0  0  0  0
 16 17  2  0  0  0  0
 16 21  1  0  0  0  0
 17 18  1  0  0  0  0
 17 25  1  0  0  0  0
 18 19  2  0  0  0  0
 18 24  1  0  0  0  0
 19 20  1  0  0  0  0
 19 23  1  0  0  0  0
 20 21  2  0  0  0  0
 20 22  1  0  0  0  0
 28 29  1  0  0  0  0
 28 39  1  0  0  0  0
 28 40  1  0  0  0  0
 29 30  1  0  0  0  0
 29 38  1  6  0  0  0
 30 31  1  0  0  0  0
 30 36  1  0  0  0  0
 30 37  1  0  0  0  0
 31 32  1  0  0  0  0
 32 33  1  0  0  0  0
 32 34  1  0  0  0  0
 32 35  1  0  0  0  0
 41 42  2  0  0  0  0
 41 47  1  0  0  0  0
 42 43  1  0  0  0  0
 42 52  1  0  0  0  0
 43 44  1  0  0  0  0
 43 45  2  0  0  0  0
 45 46  1  0  0  0  0
 45 51  1  0  0  0  0
 46 47  2  0  0  0  0
 46 50  1  0  0  0  0
 47 48  1  0  0  0  0
 48 49  2  0  0  0  0
M  END
>  <MODEL>
       1

$$$$
