output/tmp_first_model_6_51.pdb
 OpenBabel07242616043D

 50 52  0  0  0  0  0  0  0  0999 V2000
  -11.5580   -1.0100  -24.4950 C   0  0  0  0  0  0  0  0  0  0  0  0
  -10.8450   -0.0540  -23.9100 C   0  0  0  0  0  0  0  0  0  0  0  0
   -9.3460   -0.0540  -24.0860 C   0  0  0  0  0  0  0  0  0  0  0  0
   -8.6300   -0.9700  -23.1650 N   0  0  0  0  0  0  0  0  0  0  0  0
   -7.9460   -0.3620  -22.1190 C   0  0  0  0  0  0  0  0  0  0  0  0
   -7.7490    0.8390  -22.0720 O   0  0  0  0  0  0  0  0  0  0  0  0
   -7.4130   -1.2440  -21.2010 N   0  0  0  0  0  0  0  0  0  0  0  0
   -6.6030   -0.7740  -20.1520 C   0  0  0  0  0  0  0  0  0  0  0  0
   -6.8860   -1.1050  -18.8510 C   0  0  0  0  0  0  0  0  0  0  0  0
   -6.2050   -0.6270  -17.7800 N   0  0  0  0  0  0  0  0  0  0  0  0
   -5.2000    0.1830  -18.0130 C   0  0  0  0  0  0  0  0  0  0  0  0
   -4.7670    0.5600  -19.3130 C   0  0  0  0  0  0  0  0  0  0  0  0
   -3.6570    1.4190  -19.5250 C   0  0  0  0  0  0  0  0  0  0  0  0
   -3.2760    1.7680  -20.7940 C   0  0  0  0  0  0  0  0  0  0  0  0
   -3.9810    1.2600  -21.9050 C   0  0  0  0  0  0  0  0  0  0  0  0
   -5.0340    0.4010  -21.7290 C   0  0  0  0  0  0  0  0  0  0  0  0
   -5.4780    0.0610  -20.4230 C   0  0  0  0  0  0  0  0  0  0  0  0
   -5.5270   -0.0200  -22.5950 H   0  0  0  0  0  0  0  0  0  0  0  0
   -3.6860    1.5340  -22.9130 H   0  0  0  0  0  0  0  0  0  0  0  0
   -2.4290    2.4260  -20.9600 H   0  0  0  0  0  0  0  0  0  0  0  0
   -3.1220    1.7930  -18.6580 H   0  0  0  0  0  0  0  0  0  0  0  0
   -4.6680    0.5800  -17.1490 H   0  0  0  0  0  0  0  0  0  0  0  0
   -7.7230   -1.7640  -18.6160 H   0  0  0  0  0  0  0  0  0  0  0  0
   -7.8160   -2.1690  -21.1180 H   0  0  0  0  0  0  0  0  0  0  0  0
   -9.2010   -2.2670  -22.9560 C   0  0  0  0  0  0  0  0  0  0  0  0
   -8.9090   -3.3520  -23.7830 C   0  0  0  0  0  0  0  0  0  0  0  0
   -9.7090   -4.4900  -23.6990 C   0  0  0  0  0  0  0  0  0  0  0  0
  -10.8250   -4.5240  -22.8660 C   0  0  0  0  0  0  0  0  0  0  0  0
  -11.0770   -3.4330  -22.0400 C   0  0  0  0  0  0  0  0  0  0  0  0
  -12.5740   -3.2910  -21.1570 Cl  0  0  0  0  0  0  0  0  0  0  0  0
  -10.1980   -2.3640  -21.9870 C   0  0  0  0  0  0  0  0  0  0  0  0
  -10.3850   -1.5350  -21.3040 H   0  0  0  0  0  0  0  0  0  0  0  0
  -11.4980   -5.3720  -22.8850 H   0  0  0  0  0  0  0  0  0  0  0  0
   -9.4840   -5.3580  -24.3170 H   0  0  0  0  0  0  0  0  0  0  0  0
   -8.0840   -3.2960  -24.4910 H   0  0  0  0  0  0  0  0  0  0  0  0
   -8.9160    0.9360  -23.9120 H   0  0  0  0  0  0  0  0  0  0  0  0
   -9.1230   -0.3630  -25.1280 H   0  0  0  0  0  0  0  0  0  0  0  0
  -11.5290    0.9470  -23.0250 C   0  0  0  0  0  0  0  0  0  0  0  0
  -10.9740    1.5050  -22.0810 O   0  0  0  0  0  0  0  0  0  0  0  0
  -12.7670    1.1750  -23.3950 N   0  0  0  0  0  0  0  0  0  0  0  0
  -13.7950    1.7490  -22.5500 C   0  0  0  0  0  0  0  0  0  0  0  0
  -13.6060    1.9980  -22.5650 C   0  0  0  0  0  0  0  0  0  0  0  0
  -14.5400    2.4940  -21.8420 H   0  0  0  0  0  0  0  0  0  0  0  0
  -13.2110    1.5850  -21.5040 H   0  0  0  0  0  0  0  0  0  0  0  0
  -14.8310    0.5810  -22.3860 H   0  0  0  0  0  0  0  0  0  0  0  0
  -14.3720    2.3140  -23.4580 H   0  0  0  0  0  0  0  0  0  0  0  0
  -12.8850    3.3800  -22.4590 H   0  0  0  0  0  0  0  0  0  0  0  0
  -13.0910    0.6650  -24.1890 H   0  0  0  0  0  0  0  0  0  0  0  0
  -12.6340   -1.1260  -24.3980 H   0  0  0  0  0  0  0  0  0  0  0  0
  -11.0270   -1.7930  -25.0230 H   0  0  0  0  0  0  0  0  0  0  0  0
  1  2  2  0  0  0  0
  1 49  1  0  0  0  0
  1 50  1  0  0  0  0
  2  3  1  0  0  0  0
  2 38  1  0  0  0  0
  3  4  1  0  0  0  0
  3 36  1  0  0  0  0
  3 37  1  0  0  0  0
  4  5  1  0  0  0  0
  4 25  1  0  0  0  0
  5  6  2  0  0  0  0
  5  7  1  0  0  0  0
  7  8  1  0  0  0  0
  7 24  1  0  0  0  0
  8  9  2  0  0  0  0
  8 17  1  0  0  0  0
  9 10  1  0  0  0  0
  9 23  1  0  0  0  0
 10 11  2  0  0  0  0
 11 12  1  0  0  0  0
 11 22  1  0  0  0  0
 12 13  2  0  0  0  0
 12 17  1  0  0  0  0
 13 14  1  0  0  0  0
 13 21  1  0  0  0  0
 14 15  2  0  0  0  0
 14 20  1  0  0  0  0
 15 16  1  0  0  0  0
 15 19  1  0  0  0  0
 16 17  2  0  0  0  0
 16 18  1  0  0  0  0
 25 26  2  0  0  0  0
 25 31  1  0  0  0  0
 26 27  1  0  0  0  0
 26 35  1  0  0  0  0
 27 28  2  0  0  0  0
 27 34  1  0  0  0  0
 28 29  1  0  0  0  0
 28 33  1  0  0  0  0
 29 30  1  0  0  0  0
 29 31  2  0  0  0  0
 31 32  1  0  0  0  0
 38 39  2  0  0  0  0
 38 40  1  0  0  0  0
 40 41  1  0  0  0  0
 40 48  1  0  0  0  0
 41 42  1  0  0  0  0
 41 46  1  0  0  0  0
 41 47  1  0  0  0  0
 42 43  1  0  0  0  0
 42 44  1  0  0  0  0
 42 45  1  0  0  0  0
M  END
>  <MODEL>
       1

$$$$
