output/tmp_first_model_6_35.pdb
 OpenBabel07242616043D

 40 42  0  0  0  0  0  0  0  0999 V2000
   -9.2470   -1.8720  -22.4800 O   0  0  0  0  0  0  0  0  0  0  0  0
   -8.3680   -1.0450  -22.2410 C   0  0  0  0  0  0  0  0  0  0  0  0
   -6.9850   -1.4870  -21.7680 C   0  0  0  0  0  0  0  0  0  0  0  0
   -6.4380   -0.7660  -20.5430 C   0  0  0  0  0  0  0  0  0  0  0  0
   -6.9840   -1.0060  -19.3040 C   0  0  0  0  0  0  0  0  0  0  0  0
   -6.4980   -0.5380  -18.1280 N   0  0  0  0  0  0  0  0  0  0  0  0
   -5.4350    0.2290  -18.1850 C   0  0  0  0  0  0  0  0  0  0  0  0
   -4.7990    0.6210  -19.3920 C   0  0  0  0  0  0  0  0  0  0  0  0
   -3.6930    1.5100  -19.4070 C   0  0  0  0  0  0  0  0  0  0  0  0
   -3.1290    1.9110  -20.5890 C   0  0  0  0  0  0  0  0  0  0  0  0
   -3.6380    1.4170  -21.8060 C   0  0  0  0  0  0  0  0  0  0  0  0
   -4.6910    0.5330  -21.8100 C   0  0  0  0  0  0  0  0  0  0  0  0
   -5.3120    0.1110  -20.6090 C   0  0  0  0  0  0  0  0  0  0  0  0
   -5.0010    0.1220  -22.7660 H   0  0  0  0  0  0  0  0  0  0  0  0
   -3.1850    1.7170  -22.7470 H   0  0  0  0  0  0  0  0  0  0  0  0
   -2.2930    2.6050  -20.6040 H   0  0  0  0  0  0  0  0  0  0  0  0
   -3.3120    1.8770  -18.4580 H   0  0  0  0  0  0  0  0  0  0  0  0
   -5.0220    0.5830  -17.2390 H   0  0  0  0  0  0  0  0  0  0  0  0
   -7.8800   -1.6220  -19.2200 H   0  0  0  0  0  0  0  0  0  0  0  0
   -7.1040   -2.5500  -21.5450 H   0  0  0  0  0  0  0  0  0  0  0  0
   -6.2720   -1.4210  -22.5950 H   0  0  0  0  0  0  0  0  0  0  0  0
   -8.5150    0.3180  -22.3390 N   0  0  0  0  0  0  0  0  0  0  0  0
   -7.5450    1.1790  -23.0800 C   0  0  0  0  0  0  0  0  0  0  0  0
   -8.1150    2.4400  -23.6710 C   0  0  0  0  0  0  0  0  0  0  0  0
   -9.3850    2.8290  -23.6200 C   0  0  0  0  0  0  0  0  0  0  0  0
   -8.5820    5.3730  -22.6820 C   0  0  0  0  0  0  0  0  0  0  0  0
   -7.8700    4.9430  -21.6590 F   0  0  0  0  0  0  0  0  0  0  0  0
   -9.3520    6.3770  -22.3150 F   0  0  0  0  0  0  0  0  0  0  0  0
   -7.7850    5.7270  -23.6770 F   0  0  0  0  0  0  0  0  0  0  0  0
   -9.6820    1.1030  -21.8790 C   0  0  0  0  0  0  0  0  0  0  0  0
   -9.6970    0.9480  -21.6910 C   0  0  0  0  0  0  0  0  0  0  0  0
  -10.4850    0.5820  -22.6280 H   0  0  0  0  0  0  0  0  0  0  0  0
   -9.8970    0.1280  -20.3630 H   0  0  0  0  0  0  0  0  0  0  0  0
  -10.5740    1.8860  -21.6230 H   0  0  0  0  0  0  0  0  0  0  0  0
   -8.9500    1.9410  -21.3850 H   0  0  0  0  0  0  0  0  0  0  0  0
   -9.5980    3.8990  -23.5470 H   0  0  0  0  0  0  0  0  0  0  0  0
   -7.3530    3.0870  -24.1000 H   0  0  0  0  0  0  0  0  0  0  0  0
  -10.1840    2.1080  -23.6110 H   0  0  0  0  0  0  0  0  0  0  0  0
   -7.0750    0.5790  -23.8610 H   0  0  0  0  0  0  0  0  0  0  0  0
   -6.7690    1.4970  -22.3740 H   0  0  0  0  0  0  0  0  0  0  0  0
  1  2  2  0  0  0  0
  2  3  1  0  0  0  0
  2 22  1  0  0  0  0
  3  4  1  0  0  0  0
  3 20  1  0  0  0  0
  3 21  1  0  0  0  0
  4  5  2  0  0  0  0
  4 13  1  0  0  0  0
  5  6  1  0  0  0  0
  5 19  1  0  0  0  0
  6  7  2  0  0  0  0
  7  8  1  0  0  0  0
  7 18  1  0  0  0  0
  8  9  2  0  0  0  0
  8 13  1  0  0  0  0
  9 10  1  0  0  0  0
  9 17  1  0  0  0  0
 10 11  2  0  0  0  0
 10 16  1  0  0  0  0
 11 12  1  0  0  0  0
 11 15  1  0  0  0  0
 12 13  2  0  0  0  0
 12 14  1  0  0  0  0
 22 23  1  0  0  0  0
 22 31  1  0  0  0  0
 23 24  1  0  0  0  0
 23 39  1  0  0  0  0
 23 40  1  0  0  0  0
 24 25  1  0  0  0  0
 24 37  1  0  0  0  0
 24 38  1  0  0  0  0
 25 26  1  0  0  0  0
 25 30  1  0  0  0  0
 25 36  1  0  0  0  0
 26 27  1  0  0  0  0
 26 28  1  0  0  0  0
 26 29  1  0  0  0  0
 30 31  1  0  0  0  0
 30 34  1  0  0  0  0
 30 35  1  0  0  0  0
 31 32  1  0  0  0  0
 31 33  1  0  0  0  0
M  END
>  <MODEL>
       1

$$$$
