output/tmp_first_model_14_0.pdb
 OpenBabel07242620283D

 66 71  0  0  1  0  0  0  0  0999 V2000
   -7.8250   -6.0310  -26.6790 C   0  0  0  0  0  0  0  0  0  0  0  0
   -8.0210   -4.6170  -26.9520 N   0  0  0  0  0  0  0  0  0  0  0  0
   -7.0870   -3.7120  -26.5720 C   0  0  0  0  0  0  0  0  0  0  0  0
   -6.0500   -4.0120  -25.9910 O   0  0  0  0  0  0  0  0  0  0  0  0
   -7.4620   -2.2480  -26.8300 C   0  0  0  0  0  0  0  0  0  0  0  0
   -8.3670   -1.7730  -25.7860 N   0  0  0  0  0  0  0  0  0  0  0  0
   -7.8350   -1.3120  -24.5110 C   0  0  0  0  0  0  0  0  0  0  0  0
   -8.7410   -1.5760  -23.2650 C   0  0  2  0  0  0  0  0  0  0  0  0
   -8.2210   -0.6070  -22.1920 C   0  0  0  0  0  0  0  0  0  0  0  0
   -8.4230    0.5850  -22.1210 O   0  0  0  0  0  0  0  0  0  0  0  0
   -7.3840   -1.3100  -21.3430 N   0  0  0  0  0  0  0  0  0  0  0  0
   -6.6250   -0.7130  -20.3070 C   0  0  0  0  0  0  0  0  0  0  0  0
   -6.9600   -0.9600  -18.9990 C   0  0  0  0  0  0  0  0  0  0  0  0
   -6.3030   -0.4560  -17.9270 N   0  0  0  0  0  0  0  0  0  0  0  0
   -5.2460    0.2810  -18.1630 C   0  0  0  0  0  0  0  0  0  0  0  0
   -4.7560    0.5800  -19.4660 C   0  0  0  0  0  0  0  0  0  0  0  0
   -3.5910    1.3690  -19.6600 C   0  0  0  0  0  0  0  0  0  0  0  0
   -3.1350    1.6280  -20.9230 C   0  0  0  0  0  0  0  0  0  0  0  0
   -3.8110    1.1020  -22.0470 C   0  0  0  0  0  0  0  0  0  0  0  0
   -4.9400    0.3380  -21.8830 C   0  0  0  0  0  0  0  0  0  0  0  0
   -5.4530    0.0660  -20.5830 C   0  0  0  0  0  0  0  0  0  0  0  0
   -5.4460   -0.0690  -22.7530 H   0  0  0  0  0  0  0  0  0  0  0  0
   -3.4360    1.3130  -23.0450 H   0  0  0  0  0  0  0  0  0  0  0  0
   -2.2550    2.2470  -21.0700 H   0  0  0  0  0  0  0  0  0  0  0  0
   -3.0850    1.7690  -18.7840 H   0  0  0  0  0  0  0  0  0  0  0  0
   -4.7170    0.6760  -17.2970 H   0  0  0  0  0  0  0  0  0  0  0  0
   -7.8270   -1.5830  -18.7800 H   0  0  0  0  0  0  0  0  0  0  0  0
   -7.3180   -2.7340  -21.6040 C   0  0  0  0  0  0  0  0  0  0  0  0
   -8.5190   -2.9380  -22.5340 C   0  0  2  0  0  0  0  0  0  0  0  0
   -8.4540   -4.1310  -23.4820 C   0  0  0  0  0  0  0  0  0  0  0  0
   -8.3850   -5.4380  -22.8500 N   0  0  0  0  0  0  0  0  0  0  0  0
   -7.2000   -5.9510  -22.4000 C   0  0  0  0  0  0  0  0  0  0  0  0
   -5.9790   -5.6690  -23.0420 C   0  0  0  0  0  0  0  0  0  0  0  0
   -4.8510   -6.1660  -22.4180 C   0  0  0  0  0  0  0  0  0  0  0  0
   -4.8780   -6.8840  -21.2870 N   0  0  0  0  0  0  0  0  0  0  0  0
   -6.0910   -7.1370  -20.8200 C   0  0  0  0  0  0  0  0  0  0  0  0
   -7.2580   -6.7640  -21.3350 N   0  0  0  0  0  0  0  0  0  0  0  0
   -6.1420   -7.7020  -19.8880 H   0  0  0  0  0  0  0  0  0  0  0  0
   -3.8590   -5.9680  -22.8200 H   0  0  0  0  0  0  0  0  0  0  0  0
   -5.9320   -5.1030  -23.9770 H   0  0  0  0  0  0  0  0  0  0  0  0
   -9.1610   -5.6570  -22.2420 H   0  0  0  0  0  0  0  0  0  0  0  0
   -9.3600   -4.1210  -24.0940 H   0  0  0  0  0  0  0  0  0  0  0  0
   -7.5970   -4.0260  -24.1430 H   0  0  0  0  0  0  0  0  0  0  0  0
   -9.3970   -3.0820  -21.8830 H   0  0  0  0  0  0  0  0  0  0  0  0
   -7.4100   -3.2790  -20.6610 H   0  0  0  0  0  0  0  0  0  0  0  0
   -6.3520   -3.0190  -22.0580 H   0  0  0  0  0  0  0  0  0  0  0  0
  -10.2020   -1.4110  -23.6160 C   0  0  0  0  0  0  0  0  0  0  0  0
  -11.1760   -1.3060  -22.6090 C   0  0  0  0  0  0  0  0  0  0  0  0
  -12.5170   -1.3140  -22.9650 C   0  0  0  0  0  0  0  0  0  0  0  0
  -13.7550   -1.3600  -21.7490 Cl  0  0  0  0  0  0  0  0  0  0  0  0
  -12.9360   -1.3940  -24.2920 C   0  0  0  0  0  0  0  0  0  0  0  0
  -11.9760   -1.5050  -25.2730 C   0  0  0  0  0  0  0  0  0  0  0  0
  -10.6290   -1.5560  -24.9400 C   0  0  0  0  0  0  0  0  0  0  0  0
   -9.6920   -1.9350  -26.0330 C   0  0  0  0  0  0  0  0  0  0  0  0
  -10.0900   -2.4290  -27.0900 O   0  0  0  0  0  0  0  0  0  0  0  0
  -12.2190   -1.6200  -26.3220 H   0  0  0  0  0  0  0  0  0  0  0  0
  -14.0010   -1.4470  -24.4930 H   0  0  0  0  0  0  0  0  0  0  0  0
  -10.9000   -1.2650  -21.5550 H   0  0  0  0  0  0  0  0  0  0  0  0
   -7.6720   -0.2290  -24.5490 H   0  0  0  0  0  0  0  0  0  0  0  0
   -6.8580   -1.7970  -24.3700 H   0  0  0  0  0  0  0  0  0  0  0  0
   -6.5520   -1.6460  -26.8690 H   0  0  0  0  0  0  0  0  0  0  0  0
   -7.9940   -2.1700  -27.7800 H   0  0  0  0  0  0  0  0  0  0  0  0
   -8.9230   -4.2760  -27.2660 H   0  0  0  0  0  0  0  0  0  0  0  0
   -7.5710   -6.1960  -25.6220 H   0  0  0  0  0  0  0  0  0  0  0  0
   -8.7420   -6.5750  -26.9190 H   0  0  0  0  0  0  0  0  0  0  0  0
   -7.0070   -6.4330  -27.2850 H   0  0  0  0  0  0  0  0  0  0  0  0
  1  2  1  0  0  0  0
  1 64  1  0  0  0  0
  1 65  1  0  0  0  0
  1 66  1  0  0  0  0
  2  3  1  0  0  0  0
  2 63  1  0  0  0  0
  3  4  2  0  0  0  0
  3  5  1  0  0  0  0
  5  6  1  0  0  0  0
  5 61  1  0  0  0  0
  5 62  1  0  0  0  0
  6  7  1  0  0  0  0
  6 54  1  0  0  0  0
  7  8  1  0  0  0  0
  7 59  1  0  0  0  0
  7 60  1  0  0  0  0
  8  9  1  1  0  0  0
  8 29  1  0  0  0  0
  8 47  1  0  0  0  0
  9 10  2  0  0  0  0
  9 11  1  0  0  0  0
 11 12  1  0  0  0  0
 11 28  1  0  0  0  0
 12 13  2  0  0  0  0
 12 21  1  0  0  0  0
 13 14  1  0  0  0  0
 13 27  1  0  0  0  0
 14 15  2  0  0  0  0
 15 16  1  0  0  0  0
 15 26  1  0  0  0  0
 16 17  2  0  0  0  0
 16 21  1  0  0  0  0
 17 18  1  0  0  0  0
 17 25  1  0  0  0  0
 18 19  2  0  0  0  0
 18 24  1  0  0  0  0
 19 20  1  0  0  0  0
 19 23  1  0  0  0  0
 20 21  2  0  0  0  0
 20 22  1  0  0  0  0
 28 29  1  0  0  0  0
 28 45  1  0  0  0  0
 28 46  1  0  0  0  0
 29 30  1  0  0  0  0
 29 44  1  1  0  0  0
 30 31  1  0  0  0  0
 30 42  1  0  0  0  0
 30 43  1  0  0  0  0
 31 32  1  0  0  0  0
 31 41  1  0  0  0  0
 32 33  2  0  0  0  0
 32 37  1  0  0  0  0
 33 34  1  0  0  0  0
 33 40  1  0  0  0  0
 34 35  2  0  0  0  0
 34 39  1  0  0  0  0
 35 36  1  0  0  0  0
 36 37  2  0  0  0  0
 36 38  1  0  0  0  0
 47 48  2  0  0  0  0
 47 53  1  0  0  0  0
 48 49  1  0  0  0  0
 48 58  1  0  0  0  0
 49 50  1  0  0  0  0
 49 51  2  0  0  0  0
 51 52  1  0  0  0  0
 51 57  1  0  0  0  0
 52 53  2  0  0  0  0
 52 56  1  0  0  0  0
 53 54  1  0  0  0  0
 54 55  2  0  0  0  0
M  END
>  <MODEL>
       1

$$$$
