output/tmp_first_model_4_27.pdb
 OpenBabel07242615033D

 58 62  0  0  1  0  0  0  0  0999 V2000
   -7.0730    3.4600  -22.0260 C   0  0  0  0  0  0  0  0  0  0  0  0
   -7.4440    2.4020  -22.9660 N   0  3  0  0  0  0  0  0  0  0  0  0
   -8.4690    2.8030  -23.9550 C   0  0  0  0  0  0  0  0  0  0  0  0
   -8.7310    1.6840  -24.9620 C   0  0  0  0  0  0  0  0  0  0  0  0
   -9.3770    0.5320  -24.3420 N   0  0  0  0  0  0  0  0  0  0  0  0
   -8.6620   -0.7190  -24.1830 C   0  0  0  0  0  0  0  0  0  0  0  0
   -9.0490   -1.4650  -22.8760 C   0  0  2  0  0  0  0  0  0  0  0  0
   -8.3890   -0.6840  -21.7130 C   0  0  0  0  0  0  0  0  0  0  0  0
   -8.5970    0.4890  -21.4260 O   0  0  0  0  0  0  0  0  0  0  0  0
   -7.4150   -1.4610  -21.1450 N   0  0  0  0  0  0  0  0  0  0  0  0
   -6.5120   -0.9770  -20.1600 C   0  0  0  0  0  0  0  0  0  0  0  0
   -6.6970   -1.3440  -18.8500 C   0  0  0  0  0  0  0  0  0  0  0  0
   -5.7890   -1.1420  -17.8710 N   0  0  0  0  0  0  0  0  0  0  0  0
   -4.6720   -0.5430  -18.2080 C   0  0  0  0  0  0  0  0  0  0  0  0
   -4.3960   -0.0290  -19.5090 C   0  0  0  0  0  0  0  0  0  0  0  0
   -3.1990    0.6870  -19.7890 C   0  0  0  0  0  0  0  0  0  0  0  0
   -2.9860    1.2250  -21.0290 C   0  0  0  0  0  0  0  0  0  0  0  0
   -3.9360    1.0280  -22.0550 C   0  0  0  0  0  0  0  0  0  0  0  0
   -5.0550    0.2590  -21.8320 C   0  0  0  0  0  0  0  0  0  0  0  0
   -5.3430   -0.2440  -20.5300 C   0  0  0  0  0  0  0  0  0  0  0  0
   -5.6940   -0.0210  -22.6630 H   0  0  0  0  0  0  0  0  0  0  0  0
   -3.7840    1.4900  -23.0260 H   0  0  0  0  0  0  0  0  0  0  0  0
   -2.0970    1.8190  -21.2230 H   0  0  0  0  0  0  0  0  0  0  0  0
   -2.5090    0.8620  -18.9720 H   0  0  0  0  0  0  0  0  0  0  0  0
   -3.9240   -0.4180  -17.4280 H   0  0  0  0  0  0  0  0  0  0  0  0
   -7.6230   -1.8180  -18.5380 H   0  0  0  0  0  0  0  0  0  0  0  0
   -7.0500   -2.5950  -21.9730 C   0  0  0  0  0  0  0  0  0  0  0  0
   -8.3300   -2.8480  -22.7770 C   0  0  2  0  0  0  0  0  0  0  0  0
   -8.0400   -3.5660  -24.0920 C   0  0  0  0  0  0  0  0  0  0  0  0
   -7.5720   -4.5410  -23.9120 H   0  0  0  0  0  0  0  0  0  0  0  0
   -8.9490   -3.7290  -24.6810 H   0  0  0  0  0  0  0  0  0  0  0  0
   -7.3420   -2.9870  -24.7090 H   0  0  0  0  0  0  0  0  0  0  0  0
   -8.9500   -3.4950  -22.1550 H   0  0  0  0  0  0  0  0  0  0  0  0
   -6.7440   -3.4520  -21.3630 H   0  0  0  0  0  0  0  0  0  0  0  0
   -6.2040   -2.3650  -22.6410 H   0  0  0  0  0  0  0  0  0  0  0  0
  -10.5710   -1.5240  -22.7820 C   0  0  0  0  0  0  0  0  0  0  0  0
  -11.2400   -2.5180  -22.0470 C   0  0  0  0  0  0  0  0  0  0  0  0
  -12.6190   -2.5230  -21.9860 C   0  0  0  0  0  0  0  0  0  0  0  0
  -13.2330   -3.4860  -21.2720 F   0  0  0  0  0  0  0  0  0  0  0  0
  -13.3960   -1.5690  -22.6320 C   0  0  0  0  0  0  0  0  0  0  0  0
  -12.7490   -0.5760  -23.3410 C   0  0  0  0  0  0  0  0  0  0  0  0
  -11.3540   -0.5390  -23.4090 C   0  0  0  0  0  0  0  0  0  0  0  0
  -10.7290    0.6040  -24.1580 C   0  0  0  0  0  0  0  0  0  0  0  0
  -11.3960    1.5450  -24.5720 O   0  0  0  0  0  0  0  0  0  0  0  0
  -13.3140    0.1980  -23.8520 H   0  0  0  0  0  0  0  0  0  0  0  0
  -14.4760   -1.6160  -22.5540 H   0  0  0  0  0  0  0  0  0  0  0  0
  -10.7160   -3.2890  -21.4910 H   0  0  0  0  0  0  0  0  0  0  0  0
   -8.8680   -1.3670  -25.0430 H   0  0  0  0  0  0  0  0  0  0  0  0
   -7.5850   -0.5140  -24.1550 H   0  0  0  0  0  0  0  0  0  0  0  0
   -7.7910    1.3570  -25.4230 H   0  0  0  0  0  0  0  0  0  0  0  0
   -9.3960    2.0400  -25.7520 H   0  0  0  0  0  0  0  0  0  0  0  0
   -9.4070    3.0370  -23.4450 H   0  0  0  0  0  0  0  0  0  0  0  0
   -8.1530    3.7130  -24.4760 H   0  0  0  0  0  0  0  0  0  0  0  0
   -6.5820    2.1260  -23.4710 H   0  0  0  0  0  0  0  0  0  0  0  0
   -7.7860    1.5790  -22.4350 H   0  0  0  0  0  0  0  0  0  0  0  0
   -6.1980    3.1500  -21.4500 H   0  0  0  0  0  0  0  0  0  0  0  0
   -7.8990    3.6650  -21.3440 H   0  0  0  0  0  0  0  0  0  0  0  0
   -6.8360    4.3890  -22.5540 H   0  0  0  0  0  0  0  0  0  0  0  0
  1  2  1  0  0  0  0
  1 56  1  0  0  0  0
  1 57  1  0  0  0  0
  1 58  1  0  0  0  0
  2  3  1  0  0  0  0
  2 54  1  0  0  0  0
  2 55  1  0  0  0  0
  3  4  1  0  0  0  0
  3 52  1  0  0  0  0
  3 53  1  0  0  0  0
  4  5  1  0  0  0  0
  4 50  1  0  0  0  0
  4 51  1  0  0  0  0
  5  6  1  0  0  0  0
  5 43  1  0  0  0  0
  6  7  1  0  0  0  0
  6 48  1  0  0  0  0
  6 49  1  0  0  0  0
  7  8  1  1  0  0  0
  7 28  1  0  0  0  0
  7 36  1  0  0  0  0
  8  9  2  0  0  0  0
  8 10  1  0  0  0  0
 10 11  1  0  0  0  0
 10 27  1  0  0  0  0
 11 12  2  0  0  0  0
 11 20  1  0  0  0  0
 12 13  1  0  0  0  0
 12 26  1  0  0  0  0
 13 14  2  0  0  0  0
 14 15  1  0  0  0  0
 14 25  1  0  0  0  0
 15 16  2  0  0  0  0
 15 20  1  0  0  0  0
 16 17  1  0  0  0  0
 16 24  1  0  0  0  0
 17 18  2  0  0  0  0
 17 23  1  0  0  0  0
 18 19  1  0  0  0  0
 18 22  1  0  0  0  0
 19 20  2  0  0  0  0
 19 21  1  0  0  0  0
 27 28  1  0  0  0  0
 27 34  1  0  0  0  0
 27 35  1  0  0  0  0
 28 29  1  0  0  0  0
 28 33  1  1  0  0  0
 29 30  1  0  0  0  0
 29 31  1  0  0  0  0
 29 32  1  0  0  0  0
 36 37  2  0  0  0  0
 36 42  1  0  0  0  0
 37 38  1  0  0  0  0
 37 47  1  0  0  0  0
 38 39  1  0  0  0  0
 38 40  2  0  0  0  0
 40 41  1  0  0  0  0
 40 46  1  0  0  0  0
 41 42  2  0  0  0  0
 41 45  1  0  0  0  0
 42 43  1  0  0  0  0
 43 44  2  0  0  0  0
M  CHG  1   2   1
M  END
>  <MODEL>
       1

$$$$
