output/tmp_first_model_20_83.pdb
 OpenBabel07242623363D

 46 50  0  0  1  0  0  0  0  0999 V2000
   -6.6290    1.5410  -25.2410 N   0  0  0  0  0  0  0  0  0  0  0  0
   -8.2480    1.9590  -25.3800 S   0  0  0  0  0  0  0  0  0  0  0  0
   -8.4800    2.9910  -24.3810 O   0  0  0  0  0  0  0  0  0  0  0  0
   -8.5530    2.2050  -26.7780 O   0  0  0  0  0  0  0  0  0  0  0  0
   -9.0790    0.4620  -24.9480 C   0  0  0  0  0  0  0  0  0  0  0  0
  -10.3400    0.2460  -25.4970 C   0  0  0  0  0  0  0  0  0  0  0  0
  -11.1170   -0.8160  -25.0590 C   0  0  0  0  0  0  0  0  0  0  0  0
  -10.6180   -1.6700  -24.0780 C   0  0  0  0  0  0  0  0  0  0  0  0
   -9.3780   -1.4160  -23.4960 C   0  0  0  0  0  0  0  0  0  0  0  0
   -8.5860   -0.3870  -23.9780 C   0  0  0  0  0  0  0  0  0  0  0  0
   -7.5980   -0.2500  -23.5550 H   0  0  0  0  0  0  0  0  0  0  0  0
   -8.8840   -2.1840  -22.3030 C   0  0  1  0  0  0  0  0  0  0  0  0
  -10.0140   -3.0660  -21.7710 C   0  0  0  0  0  0  0  0  0  0  0  0
  -10.7870   -3.7030  -22.9070 C   0  0  0  0  0  0  0  0  0  0  0  0
  -11.4140   -2.7020  -23.6940 O   0  0  0  0  0  0  0  0  0  0  0  0
  -10.1370   -4.3210  -23.5440 H   0  0  0  0  0  0  0  0  0  0  0  0
  -11.5990   -4.3340  -22.5360 H   0  0  0  0  0  0  0  0  0  0  0  0
   -9.5890   -3.8260  -21.1230 H   0  0  0  0  0  0  0  0  0  0  0  0
  -10.6840   -2.4230  -21.1960 H   0  0  0  0  0  0  0  0  0  0  0  0
   -7.6700   -2.9200  -22.6000 N   0  0  0  0  0  0  0  0  0  0  0  0
   -6.6150   -2.6350  -21.7810 C   0  0  0  0  0  0  0  0  0  0  0  0
   -5.5060   -3.1220  -21.7690 O   0  0  0  0  0  0  0  0  0  0  0  0
   -7.0750   -1.6240  -20.9110 N   0  0  0  0  0  0  0  0  0  0  0  0
   -6.3060   -0.9270  -19.9410 C   0  0  0  0  0  0  0  0  0  0  0  0
   -6.6600   -1.0000  -18.6180 C   0  0  0  0  0  0  0  0  0  0  0  0
   -5.9720   -0.4080  -17.6150 N   0  0  0  0  0  0  0  0  0  0  0  0
   -4.9290    0.3070  -17.9470 C   0  0  0  0  0  0  0  0  0  0  0  0
   -4.4980    0.5250  -19.2830 C   0  0  0  0  0  0  0  0  0  0  0  0
   -3.4060    1.3790  -19.5750 C   0  0  0  0  0  0  0  0  0  0  0  0
   -3.1060    1.6920  -20.8720 C   0  0  0  0  0  0  0  0  0  0  0  0
   -3.8720    1.1520  -21.9310 C   0  0  0  0  0  0  0  0  0  0  0  0
   -4.8990    0.2790  -21.6700 C   0  0  0  0  0  0  0  0  0  0  0  0
   -5.2280   -0.0700  -20.3300 C   0  0  0  0  0  0  0  0  0  0  0  0
   -5.4880   -0.1300  -22.4870 H   0  0  0  0  0  0  0  0  0  0  0  0
   -3.6600    1.4490  -22.9560 H   0  0  0  0  0  0  0  0  0  0  0  0
   -2.2970    2.3790  -21.0940 H   0  0  0  0  0  0  0  0  0  0  0  0
   -2.8510    1.7950  -18.7400 H   0  0  0  0  0  0  0  0  0  0  0  0
   -4.3880    0.7890  -17.1380 H   0  0  0  0  0  0  0  0  0  0  0  0
   -7.5420   -1.5630  -18.3230 H   0  0  0  0  0  0  0  0  0  0  0  0
   -8.3740   -1.2400  -21.2100 C   0  0  0  0  0  0  0  0  0  0  0  0
   -8.9410   -0.3010  -20.7080 O   0  0  0  0  0  0  0  0  0  0  0  0
   -7.6060   -3.5760  -23.3600 H   0  0  0  0  0  0  0  0  0  0  0  0
  -12.1160   -1.0230  -25.4220 H   0  0  0  0  0  0  0  0  0  0  0  0
  -10.6730    0.9310  -26.2610 H   0  0  0  0  0  0  0  0  0  0  0  0
   -6.2450    1.4320  -26.1700 H   0  0  0  0  0  0  0  0  0  0  0  0
   -6.1650    2.3070  -24.7570 H   0  0  0  0  0  0  0  0  0  0  0  0
  1  2  1  0  0  0  0
  1 45  1  0  0  0  0
  1 46  1  0  0  0  0
  2  3  2  0  0  0  0
  2  4  2  0  0  0  0
  2  5  1  0  0  0  0
  5  6  2  0  0  0  0
  5 10  1  0  0  0  0
  6  7  1  0  0  0  0
  6 44  1  0  0  0  0
  7  8  2  0  0  0  0
  7 43  1  0  0  0  0
  8  9  1  0  0  0  0
  8 15  1  0  0  0  0
  9 10  2  0  0  0  0
 10 11  1  0  0  0  0
 12  9  1  6  0  0  0
 12 13  1  0  0  0  0
 12 20  1  0  0  0  0
 12 40  1  0  0  0  0
 13 14  1  0  0  0  0
 13 18  1  0  0  0  0
 13 19  1  0  0  0  0
 14 15  1  0  0  0  0
 14 16  1  0  0  0  0
 14 17  1  0  0  0  0
 20 21  1  0  0  0  0
 20 42  1  0  0  0  0
 21 22  2  0  0  0  0
 21 23  1  0  0  0  0
 23 24  1  0  0  0  0
 23 40  1  0  0  0  0
 24 25  2  0  0  0  0
 24 33  1  0  0  0  0
 25 26  1  0  0  0  0
 25 39  1  0  0  0  0
 26 27  2  0  0  0  0
 27 28  1  0  0  0  0
 27 38  1  0  0  0  0
 28 29  2  0  0  0  0
 28 33  1  0  0  0  0
 29 30  1  0  0  0  0
 29 37  1  0  0  0  0
 30 31  2  0  0  0  0
 30 36  1  0  0  0  0
 31 32  1  0  0  0  0
 31 35  1  0  0  0  0
 32 33  2  0  0  0  0
 32 34  1  0  0  0  0
 40 41  2  0  0  0  0
M  END
>  <MODEL>
       1

$$$$
