output/tmp_first_model_10_69.pdb
 OpenBabel07242618173D

 63 67  0  0  0  0  0  0  0  0999 V2000
  -15.2020   -5.0370  -25.2870 C   0  0  0  0  0  0  0  0  0  0  0  0
  -14.4620   -4.3660  -24.4160 C   0  0  0  0  0  0  0  0  0  0  0  0
  -13.5320   -3.3130  -24.8900 C   0  0  0  0  0  0  0  0  0  0  0  0
  -13.5690   -2.8690  -26.0210 O   0  0  0  0  0  0  0  0  0  0  0  0
  -12.5870   -2.9020  -23.9550 N   0  0  0  0  0  0  0  0  0  0  0  0
  -12.9870   -2.6620  -22.5740 C   0  0  0  0  0  0  0  0  0  0  0  0
  -12.8190   -1.1680  -22.3690 C   0  0  0  0  0  0  0  0  0  0  0  0
  -11.3200   -0.9050  -22.3610 C   0  0  0  0  0  0  0  0  0  0  0  0
  -10.6280   -1.5140  -23.5640 C   0  0  0  0  0  0  0  0  0  0  0  0
  -11.3240   -2.4280  -24.3760 C   0  0  0  0  0  0  0  0  0  0  0  0
  -10.7470   -2.8990  -25.5640 C   0  0  0  0  0  0  0  0  0  0  0  0
   -9.4340   -2.5940  -25.8590 C   0  0  0  0  0  0  0  0  0  0  0  0
   -8.6870   -1.7780  -25.0110 C   0  0  0  0  0  0  0  0  0  0  0  0
   -9.3100   -1.2130  -23.9060 C   0  0  0  0  0  0  0  0  0  0  0  0
   -8.5210   -0.1250  -23.1490 N   0  3  0  0  0  0  0  0  0  0  0  0
   -8.9310    1.3160  -23.5630 C   0  0  0  0  0  0  0  0  0  0  0  0
   -7.8140    2.2930  -23.2850 C   0  0  0  0  0  0  0  0  0  0  0  0
   -7.7610    2.9440  -22.0490 C   0  0  0  0  0  0  0  0  0  0  0  0
   -6.8210    3.9420  -21.8210 C   0  0  0  0  0  0  0  0  0  0  0  0
   -5.8830    4.2650  -22.7990 C   0  0  0  0  0  0  0  0  0  0  0  0
   -5.8650    3.5150  -23.9720 C   0  0  0  0  0  0  0  0  0  0  0  0
   -4.5310    3.7070  -25.0750 Cl  0  0  0  0  0  0  0  0  0  0  0  0
   -6.8310    2.5520  -24.2430 C   0  0  0  0  0  0  0  0  0  0  0  0
   -6.7980    1.9850  -25.1720 H   0  0  0  0  0  0  0  0  0  0  0  0
   -5.1470    5.0520  -22.6390 H   0  0  0  0  0  0  0  0  0  0  0  0
   -6.8030    4.4750  -20.8730 H   0  0  0  0  0  0  0  0  0  0  0  0
   -8.4460    2.6130  -21.2700 H   0  0  0  0  0  0  0  0  0  0  0  0
   -9.2020    1.2820  -24.6190 H   0  0  0  0  0  0  0  0  0  0  0  0
   -9.8120    1.5940  -22.9790 H   0  0  0  0  0  0  0  0  0  0  0  0
   -8.4420   -0.2770  -21.6830 C   0  0  0  0  0  0  0  0  0  0  0  0
   -9.1600    0.3440  -20.9440 O   0  0  0  0  0  0  0  0  0  0  0  0
   -7.4730   -1.3400  -21.1940 C   0  0  0  0  0  0  0  0  0  0  0  0
   -6.6050   -0.7850  -20.0950 C   0  0  0  0  0  0  0  0  0  0  0  0
   -6.8400   -1.0980  -18.7840 C   0  0  0  0  0  0  0  0  0  0  0  0
   -6.1350   -0.6200  -17.7250 N   0  0  0  0  0  0  0  0  0  0  0  0
   -5.1500    0.2020  -17.9950 C   0  0  0  0  0  0  0  0  0  0  0  0
   -4.8030    0.6290  -19.3070 C   0  0  0  0  0  0  0  0  0  0  0  0
   -3.7520    1.5510  -19.5420 C   0  0  0  0  0  0  0  0  0  0  0  0
   -3.4810    1.9880  -20.8080 C   0  0  0  0  0  0  0  0  0  0  0  0
   -4.2460    1.5140  -21.8960 C   0  0  0  0  0  0  0  0  0  0  0  0
   -5.2800    0.6340  -21.6920 C   0  0  0  0  0  0  0  0  0  0  0  0
   -5.5780    0.1570  -20.3890 C   0  0  0  0  0  0  0  0  0  0  0  0
   -5.9170    0.3610  -22.5260 H   0  0  0  0  0  0  0  0  0  0  0  0
   -4.0270    1.8710  -22.9000 H   0  0  0  0  0  0  0  0  0  0  0  0
   -2.7060    2.7330  -20.9750 H   0  0  0  0  0  0  0  0  0  0  0  0
   -3.1650    1.8850  -18.6900 H   0  0  0  0  0  0  0  0  0  0  0  0
   -4.5790    0.5900  -17.1500 H   0  0  0  0  0  0  0  0  0  0  0  0
   -7.6560   -1.7730  -18.5270 H   0  0  0  0  0  0  0  0  0  0  0  0
   -6.8910   -1.7240  -22.0370 H   0  0  0  0  0  0  0  0  0  0  0  0
   -8.0850   -2.1670  -20.8110 H   0  0  0  0  0  0  0  0  0  0  0  0
   -7.5530   -0.2640  -23.5000 H   0  0  0  0  0  0  0  0  0  0  0  0
   -7.6400   -1.5730  -25.2130 H   0  0  0  0  0  0  0  0  0  0  0  0
   -9.0030   -2.9820  -26.7750 H   0  0  0  0  0  0  0  0  0  0  0  0
  -11.3160   -3.4940  -26.2650 H   0  0  0  0  0  0  0  0  0  0  0  0
  -11.1240    0.1670  -22.3210 H   0  0  0  0  0  0  0  0  0  0  0  0
  -10.8630   -1.3250  -21.4530 H   0  0  0  0  0  0  0  0  0  0  0  0
  -13.2840   -0.6370  -23.2140 H   0  0  0  0  0  0  0  0  0  0  0  0
  -13.3000   -0.8210  -21.4500 H   0  0  0  0  0  0  0  0  0  0  0  0
  -12.3450   -3.2330  -21.8810 H   0  0  0  0  0  0  0  0  0  0  0  0
  -14.0220   -2.9740  -22.4220 H   0  0  0  0  0  0  0  0  0  0  0  0
  -14.4410   -4.6420  -23.3660 H   0  0  0  0  0  0  0  0  0  0  0  0
  -15.7370   -5.9220  -24.9660 H   0  0  0  0  0  0  0  0  0  0  0  0
  -15.2530   -4.7380  -26.3300 H   0  0  0  0  0  0  0  0  0  0  0  0
  1  2  2  0  0  0  0
  1 62  1  0  0  0  0
  1 63  1  0  0  0  0
  2  3  1  0  0  0  0
  2 61  1  0  0  0  0
  3  4  2  0  0  0  0
  3  5  1  0  0  0  0
  5  6  1  0  0  0  0
  5 10  1  0  0  0  0
  6  7  1  0  0  0  0
  6 59  1  0  0  0  0
  6 60  1  0  0  0  0
  7  8  1  0  0  0  0
  7 57  1  0  0  0  0
  7 58  1  0  0  0  0
  8  9  1  0  0  0  0
  8 55  1  0  0  0  0
  8 56  1  0  0  0  0
  9 10  2  0  0  0  0
  9 14  1  0  0  0  0
 10 11  1  0  0  0  0
 11 12  2  0  0  0  0
 11 54  1  0  0  0  0
 12 13  1  0  0  0  0
 12 53  1  0  0  0  0
 13 14  2  0  0  0  0
 13 52  1  0  0  0  0
 14 15  1  0  0  0  0
 15 16  1  0  0  0  0
 15 30  1  0  0  0  0
 15 51  1  0  0  0  0
 16 17  1  0  0  0  0
 16 28  1  0  0  0  0
 16 29  1  0  0  0  0
 17 18  2  0  0  0  0
 17 23  1  0  0  0  0
 18 19  1  0  0  0  0
 18 27  1  0  0  0  0
 19 20  2  0  0  0  0
 19 26  1  0  0  0  0
 20 21  1  0  0  0  0
 20 25  1  0  0  0  0
 21 22  1  0  0  0  0
 21 23  2  0  0  0  0
 23 24  1  0  0  0  0
 30 31  2  0  0  0  0
 30 32  1  0  0  0  0
 32 33  1  0  0  0  0
 32 49  1  0  0  0  0
 32 50  1  0  0  0  0
 33 34  2  0  0  0  0
 33 42  1  0  0  0  0
 34 35  1  0  0  0  0
 34 48  1  0  0  0  0
 35 36  2  0  0  0  0
 36 37  1  0  0  0  0
 36 47  1  0  0  0  0
 37 38  2  0  0  0  0
 37 42  1  0  0  0  0
 38 39  1  0  0  0  0
 38 46  1  0  0  0  0
 39 40  2  0  0  0  0
 39 45  1  0  0  0  0
 40 41  1  0  0  0  0
 40 44  1  0  0  0  0
 41 42  2  0  0  0  0
 41 43  1  0  0  0  0
M  CHG  1  15   1
M  END
>  <MODEL>
       1

$$$$
