output/tmp_first_model_8_24.pdb
 OpenBabel07242617113D

 65 70  0  0  1  0  0  0  0  0999 V2000
   -6.0170   -7.6080  -25.4740 O   0  0  0  0  0  0  0  0  0  0  0  0
   -5.9690   -7.1980  -24.3200 C   0  0  0  0  0  0  0  0  0  0  0  0
   -7.1560   -6.5660  -23.6150 C   0  0  0  0  0  0  0  0  0  0  0  0
   -7.0980   -5.0760  -23.7800 N   0  3  1  0  0  0  0  0  0  0  0  0
   -7.2750   -4.7420  -25.2770 C   0  0  0  0  0  0  0  0  0  0  0  0
   -7.2110   -3.2620  -25.5180 C   0  0  0  0  0  0  0  0  0  0  0  0
   -6.8440   -2.7830  -26.7730 C   0  0  0  0  0  0  0  0  0  0  0  0
   -6.7780   -1.4220  -27.0330 C   0  0  0  0  0  0  0  0  0  0  0  0
   -7.0850   -0.5280  -26.0130 C   0  0  0  0  0  0  0  0  0  0  0  0
   -6.9910    1.1870  -26.3130 Cl  0  0  0  0  0  0  0  0  0  0  0  0
   -7.4660   -0.9840  -24.7630 C   0  0  0  0  0  0  0  0  0  0  0  0
   -7.5430   -2.3580  -24.5070 C   0  0  0  0  0  0  0  0  0  0  0  0
   -7.9490   -2.8100  -23.1160 C   0  0  2  0  0  0  0  0  0  0  0  0
   -9.1870   -2.0900  -22.5700 C   0  0  0  0  0  0  0  0  0  0  0  0
   -8.7140   -1.1460  -21.4610 C   0  0  0  0  0  0  0  0  0  0  0  0
   -7.3150   -1.4960  -21.2450 N   0  0  0  0  0  0  0  0  0  0  0  0
   -6.5510   -0.8970  -20.2060 C   0  0  0  0  0  0  0  0  0  0  0  0
   -6.8990   -1.0720  -18.8860 C   0  0  0  0  0  0  0  0  0  0  0  0
   -6.2200   -0.5530  -17.8320 N   0  0  0  0  0  0  0  0  0  0  0  0
   -5.1810    0.2030  -18.0920 C   0  0  0  0  0  0  0  0  0  0  0  0
   -4.7410    0.5150  -19.4090 C   0  0  0  0  0  0  0  0  0  0  0  0
   -3.6240    1.3660  -19.6310 C   0  0  0  0  0  0  0  0  0  0  0  0
   -3.2470    1.6870  -20.9050 C   0  0  0  0  0  0  0  0  0  0  0  0
   -3.9810    1.1900  -22.0060 C   0  0  0  0  0  0  0  0  0  0  0  0
   -5.0480    0.3490  -21.8220 C   0  0  0  0  0  0  0  0  0  0  0  0
   -5.4510   -0.0260  -20.5070 C   0  0  0  0  0  0  0  0  0  0  0  0
   -5.5840   -0.0380  -22.6860 H   0  0  0  0  0  0  0  0  0  0  0  0
   -3.6610    1.4390  -23.0130 H   0  0  0  0  0  0  0  0  0  0  0  0
   -2.3810    2.3180  -21.0840 H   0  0  0  0  0  0  0  0  0  0  0  0
   -3.0890    1.7560  -18.7690 H   0  0  0  0  0  0  0  0  0  0  0  0
   -4.6330    0.6120  -17.2420 H   0  0  0  0  0  0  0  0  0  0  0  0
   -7.7580   -1.6830  -18.6140 H   0  0  0  0  0  0  0  0  0  0  0  0
   -6.8420   -2.4440  -22.1240 C   0  0  0  0  0  0  0  0  0  0  0  0
   -5.7480   -2.9880  -22.1380 O   0  0  0  0  0  0  0  0  0  0  0  0
   -9.2890   -1.3420  -20.5650 H   0  0  0  0  0  0  0  0  0  0  0  0
   -8.8350   -0.0840  -21.7110 H   0  0  0  0  0  0  0  0  0  0  0  0
   -9.8570   -2.8380  -22.1380 H   0  0  0  0  0  0  0  0  0  0  0  0
   -9.7460   -1.5820  -23.3590 H   0  0  0  0  0  0  0  0  0  0  0  0
   -8.1640   -4.3290  -23.0170 C   0  0  0  0  0  0  0  0  0  0  0  0
   -8.1450   -4.6070  -21.9590 H   0  0  0  0  0  0  0  0  0  0  0  0
   -9.1420   -4.5900  -23.4350 H   0  0  0  0  0  0  0  0  0  0  0  0
   -7.7020   -0.2560  -23.9900 H   0  0  0  0  0  0  0  0  0  0  0  0
   -6.4880   -1.0500  -28.0080 H   0  0  0  0  0  0  0  0  0  0  0  0
   -6.6000   -3.4930  -27.5600 H   0  0  0  0  0  0  0  0  0  0  0  0
   -6.5140   -5.2730  -25.8460 H   0  0  0  0  0  0  0  0  0  0  0  0
   -8.2440   -5.1580  -25.5890 H   0  0  0  0  0  0  0  0  0  0  0  0
   -6.1810   -4.6930  -23.4400 H   0  0  0  0  0  0  0  0  0  0  0  0
   -7.1760   -6.8270  -22.5580 H   0  0  0  0  0  0  0  0  0  0  0  0
   -8.0710   -6.9670  -24.0620 H   0  0  0  0  0  0  0  0  0  0  0  0
   -4.8200   -7.2140  -23.6070 N   0  0  0  0  0  0  0  0  0  0  0  0
   -3.6650   -7.8600  -24.1950 C   0  0  0  0  0  0  0  0  0  0  0  0
   -2.4020   -7.5580  -23.4120 C   0  0  1  0  0  0  0  0  0  0  0  0
   -1.0870   -8.0320  -24.0920 C   0  0  0  0  0  0  0  0  0  0  0  0
   -0.6130   -6.5670  -24.2050 C   0  0  1  0  0  0  0  0  0  0  0  0
   -0.5050   -6.1240  -25.5160 F   0  0  0  0  0  0  0  0  0  0  0  0
   -1.9020   -6.0850  -23.5060 C   0  0  0  0  0  0  0  0  0  0  0  0
   -1.7700   -5.5680  -22.5500 H   0  0  0  0  0  0  0  0  0  0  0  0
   -2.5080   -5.4370  -24.1500 H   0  0  0  0  0  0  0  0  0  0  0  0
    0.3380   -6.3200  -23.7160 H   0  0  0  0  0  0  0  0  0  0  0  0
   -1.2290   -8.5150  -25.0660 H   0  0  0  0  0  0  0  0  0  0  0  0
   -0.4550   -8.6920  -23.4890 H   0  0  0  0  0  0  0  0  0  0  0  0
   -2.5360   -7.9280  -22.3840 H   0  0  0  0  0  0  0  0  0  0  0  0
   -3.5890   -7.5030  -25.2300 H   0  0  0  0  0  0  0  0  0  0  0  0
   -3.8510   -8.9410  -24.2570 H   0  0  0  0  0  0  0  0  0  0  0  0
   -4.7880   -6.7570  -22.7130 H   0  0  0  0  0  0  0  0  0  0  0  0
  1  2  2  0  0  0  0
  2  3  1  0  0  0  0
  2 50  1  0  0  0  0
  3  4  1  0  0  0  0
  3 48  1  0  0  0  0
  3 49  1  0  0  0  0
  4  5  1  0  0  0  0
  4 39  1  0  0  0  0
  4 47  1  1  0  0  0
  5  6  1  0  0  0  0
  5 45  1  0  0  0  0
  5 46  1  0  0  0  0
  6  7  2  0  0  0  0
  6 12  1  0  0  0  0
  7  8  1  0  0  0  0
  7 44  1  0  0  0  0
  8  9  2  0  0  0  0
  8 43  1  0  0  0  0
  9 10  1  0  0  0  0
  9 11  1  0  0  0  0
 11 12  2  0  0  0  0
 11 42  1  0  0  0  0
 13 12  1  6  0  0  0
 13 14  1  0  0  0  0
 13 33  1  0  0  0  0
 13 39  1  0  0  0  0
 14 15  1  0  0  0  0
 14 37  1  0  0  0  0
 14 38  1  0  0  0  0
 15 16  1  0  0  0  0
 15 35  1  0  0  0  0
 15 36  1  0  0  0  0
 16 17  1  0  0  0  0
 16 33  1  0  0  0  0
 17 18  2  0  0  0  0
 17 26  1  0  0  0  0
 18 19  1  0  0  0  0
 18 32  1  0  0  0  0
 19 20  2  0  0  0  0
 20 21  1  0  0  0  0
 20 31  1  0  0  0  0
 21 22  2  0  0  0  0
 21 26  1  0  0  0  0
 22 23  1  0  0  0  0
 22 30  1  0  0  0  0
 23 24  2  0  0  0  0
 23 29  1  0  0  0  0
 24 25  1  0  0  0  0
 24 28  1  0  0  0  0
 25 26  2  0  0  0  0
 25 27  1  0  0  0  0
 33 34  2  0  0  0  0
 39 40  1  0  0  0  0
 39 41  1  0  0  0  0
 50 51  1  0  0  0  0
 50 65  1  0  0  0  0
 51 52  1  0  0  0  0
 51 63  1  0  0  0  0
 51 64  1  0  0  0  0
 52 53  1  0  0  0  0
 52 56  1  0  0  0  0
 52 62  1  1  0  0  0
 53 54  1  0  0  0  0
 53 60  1  0  0  0  0
 53 61  1  0  0  0  0
 54 55  1  0  0  0  0
 54 56  1  0  0  0  0
 54 59  1  1  0  0  0
 56 57  1  0  0  0  0
 56 58  1  0  0  0  0
M  CHG  1   4   1
M  END
>  <MODEL>
       1

$$$$
