output/tmp_first_model_17_10.pdb
 OpenBabel07242622053D

 57 62  0  0  1  0  0  0  0  0999 V2000
  -10.2830   -0.9850  -23.4920 C   0  0  0  0  0  0  0  0  0  0  0  0
   -8.8820   -1.4420  -23.0660 C   0  0  1  0  0  0  0  0  0  0  0  0
   -8.3100   -0.5840  -21.9260 C   0  0  0  0  0  0  0  0  0  0  0  0
   -7.3250   -1.4470  -21.3000 N   0  0  0  0  0  0  0  0  0  0  0  0
   -6.5400   -0.9600  -20.2240 C   0  0  0  0  0  0  0  0  0  0  0  0
   -6.8660   -1.2220  -18.9170 C   0  0  0  0  0  0  0  0  0  0  0  0
   -6.2350   -0.6550  -17.8580 N   0  0  0  0  0  0  0  0  0  0  0  0
   -5.2460    0.1720  -18.0910 C   0  0  0  0  0  0  0  0  0  0  0  0
   -4.7830    0.5080  -19.3970 C   0  0  0  0  0  0  0  0  0  0  0  0
   -3.6860    1.3850  -19.6250 C   0  0  0  0  0  0  0  0  0  0  0  0
   -3.2910    1.6830  -20.9010 C   0  0  0  0  0  0  0  0  0  0  0  0
   -3.9720    1.1250  -22.0060 C   0  0  0  0  0  0  0  0  0  0  0  0
   -5.0270    0.2680  -21.8100 C   0  0  0  0  0  0  0  0  0  0  0  0
   -5.4560   -0.0630  -20.4980 C   0  0  0  0  0  0  0  0  0  0  0  0
   -5.5420   -0.1760  -22.6540 H   0  0  0  0  0  0  0  0  0  0  0  0
   -3.6470    1.3670  -23.0140 H   0  0  0  0  0  0  0  0  0  0  0  0
   -2.4400    2.3370  -21.0800 H   0  0  0  0  0  0  0  0  0  0  0  0
   -3.1620    1.8070  -18.7720 H   0  0  0  0  0  0  0  0  0  0  0  0
   -4.7610    0.6230  -17.2230 H   0  0  0  0  0  0  0  0  0  0  0  0
   -7.6780   -1.9050  -18.6730 H   0  0  0  0  0  0  0  0  0  0  0  0
   -7.5890   -2.7850  -21.5060 C   0  0  0  0  0  0  0  0  0  0  0  0
   -7.0230   -3.6920  -20.9270 O   0  0  0  0  0  0  0  0  0  0  0  0
   -8.7010   -2.9280  -22.5740 C   0  0  1  0  0  0  0  0  0  0  0  0
   -9.9690   -3.4450  -21.8420 C   0  0  0  0  0  0  0  0  0  0  0  0
  -11.0160   -3.9230  -22.7530 N   0  0  0  0  0  0  0  0  0  0  0  0
  -12.4190   -3.8790  -22.3610 C   0  0  0  0  0  0  0  0  0  0  0  0
  -13.1590   -2.6870  -22.8770 C   0  0  0  0  0  0  0  0  0  0  0  0
  -13.6910   -1.6980  -22.1320 C   0  0  0  0  0  0  0  0  0  0  0  0
  -14.4910   -0.9320  -22.9470 N   0  3  0  0  0  0  0  0  0  0  0  0
  -14.4120   -1.4350  -24.1880 C   0  0  0  0  0  0  0  0  0  0  0  0
  -13.6110   -2.5150  -24.1700 N   0  0  0  0  0  0  0  0  0  0  0  0
  -13.2440   -3.0550  -24.9490 H   0  0  0  0  0  0  0  0  0  0  0  0
  -14.9090   -1.0240  -25.0470 H   0  0  0  0  0  0  0  0  0  0  0  0
  -15.0150   -0.1200  -22.6300 H   0  0  0  0  0  0  0  0  0  0  0  0
  -13.4800   -1.5000  -21.0960 H   0  0  0  0  0  0  0  0  0  0  0  0
  -12.9130   -4.7810  -22.7500 H   0  0  0  0  0  0  0  0  0  0  0  0
  -12.4980   -3.8950  -21.2680 H   0  0  0  0  0  0  0  0  0  0  0  0
  -10.7540   -4.4760  -23.9680 C   0  0  0  0  0  0  0  0  0  0  0  0
  -11.6520   -4.7700  -24.7540 O   0  0  0  0  0  0  0  0  0  0  0  0
   -9.3120   -4.6960  -24.2820 C   0  0  0  0  0  0  0  0  0  0  0  0
   -8.9990   -5.6890  -25.2100 C   0  0  0  0  0  0  0  0  0  0  0  0
   -7.6900   -5.9190  -25.5810 C   0  0  0  0  0  0  0  0  0  0  0  0
   -6.7160   -5.0920  -25.0370 C   0  0  0  0  0  0  0  0  0  0  0  0
   -5.4480   -5.2710  -25.4440 F   0  0  0  0  0  0  0  0  0  0  0  0
   -6.9920   -4.1140  -24.0950 C   0  0  0  0  0  0  0  0  0  0  0  0
   -8.3160   -3.9270  -23.6620 C   0  0  0  0  0  0  0  0  0  0  0  0
   -6.1560   -3.5390  -23.7080 H   0  0  0  0  0  0  0  0  0  0  0  0
   -7.4160   -6.7080  -26.2740 H   0  0  0  0  0  0  0  0  0  0  0  0
   -9.8180   -6.2750  -25.6140 H   0  0  0  0  0  0  0  0  0  0  0  0
   -9.6680   -4.2380  -21.1510 H   0  0  0  0  0  0  0  0  0  0  0  0
  -10.3480   -2.6040  -21.2500 H   0  0  0  0  0  0  0  0  0  0  0  0
   -7.8380    0.3320  -22.2880 H   0  0  0  0  0  0  0  0  0  0  0  0
   -9.0830   -0.2920  -21.1950 H   0  0  0  0  0  0  0  0  0  0  0  0
   -8.2180   -1.3380  -23.9330 H   0  0  0  0  0  0  0  0  0  0  0  0
  -10.9840   -0.8920  -22.6530 H   0  0  0  0  0  0  0  0  0  0  0  0
  -10.7230   -1.6860  -24.2060 H   0  0  0  0  0  0  0  0  0  0  0  0
  -10.2280   -0.0050  -23.9770 H   0  0  0  0  0  0  0  0  0  0  0  0
  1  2  1  0  0  0  0
  1 55  1  0  0  0  0
  1 56  1  0  0  0  0
  1 57  1  0  0  0  0
  2  3  1  0  0  0  0
  2 23  1  0  0  0  0
  2 54  1  6  0  0  0
  3  4  1  0  0  0  0
  3 52  1  0  0  0  0
  3 53  1  0  0  0  0
  4  5  1  0  0  0  0
  4 21  1  0  0  0  0
  5  6  2  0  0  0  0
  5 14  1  0  0  0  0
  6  7  1  0  0  0  0
  6 20  1  0  0  0  0
  7  8  2  0  0  0  0
  8  9  1  0  0  0  0
  8 19  1  0  0  0  0
  9 10  2  0  0  0  0
  9 14  1  0  0  0  0
 10 11  1  0  0  0  0
 10 18  1  0  0  0  0
 11 12  2  0  0  0  0
 11 17  1  0  0  0  0
 12 13  1  0  0  0  0
 12 16  1  0  0  0  0
 13 14  2  0  0  0  0
 13 15  1  0  0  0  0
 21 22  2  0  0  0  0
 23 21  1  1  0  0  0
 23 24  1  0  0  0  0
 23 46  1  0  0  0  0
 24 25  1  0  0  0  0
 24 50  1  0  0  0  0
 24 51  1  0  0  0  0
 25 26  1  0  0  0  0
 25 38  1  0  0  0  0
 26 27  1  0  0  0  0
 26 36  1  0  0  0  0
 26 37  1  0  0  0  0
 27 28  2  0  0  0  0
 27 31  1  0  0  0  0
 28 29  1  0  0  0  0
 28 35  1  0  0  0  0
 29 30  2  0  0  0  0
 29 34  1  0  0  0  0
 30 31  1  0  0  0  0
 30 33  1  0  0  0  0
 31 32  1  0  0  0  0
 38 39  2  0  0  0  0
 38 40  1  0  0  0  0
 40 41  2  0  0  0  0
 40 46  1  0  0  0  0
 41 42  1  0  0  0  0
 41 49  1  0  0  0  0
 42 43  2  0  0  0  0
 42 48  1  0  0  0  0
 43 44  1  0  0  0  0
 43 45  1  0  0  0  0
 45 46  2  0  0  0  0
 45 47  1  0  0  0  0
M  CHG  1  29   1
M  END
>  <MODEL>
       1

$$$$
