output/tmp_first_model_1_4.pdb
 OpenBabel07242613193D

 59 64  0  0  1  0  0  0  0  0999 V2000
  -10.2010   -2.9670  -22.0720 C   0  0  0  0  0  0  0  0  0  0  0  0
   -9.1440   -2.0110  -22.6420 C   0  0  1  0  0  0  0  0  0  0  0  0
   -8.6750   -1.0170  -21.5620 C   0  0  0  0  0  0  0  0  0  0  0  0
   -7.3500   -1.4680  -21.2050 N   0  0  0  0  0  0  0  0  0  0  0  0
   -6.5760   -0.8600  -20.1980 C   0  0  0  0  0  0  0  0  0  0  0  0
   -6.9190   -1.0640  -18.8880 C   0  0  0  0  0  0  0  0  0  0  0  0
   -6.2390   -0.5650  -17.8320 N   0  0  0  0  0  0  0  0  0  0  0  0
   -5.1990    0.1900  -18.1010 C   0  0  0  0  0  0  0  0  0  0  0  0
   -4.7530    0.4990  -19.4190 C   0  0  0  0  0  0  0  0  0  0  0  0
   -3.6310    1.3410  -19.6360 C   0  0  0  0  0  0  0  0  0  0  0  0
   -3.2370    1.6500  -20.9070 C   0  0  0  0  0  0  0  0  0  0  0  0
   -3.9470    1.1420  -22.0180 C   0  0  0  0  0  0  0  0  0  0  0  0
   -5.0370    0.3240  -21.8400 C   0  0  0  0  0  0  0  0  0  0  0  0
   -5.4570   -0.0290  -20.5190 C   0  0  0  0  0  0  0  0  0  0  0  0
   -5.5780   -0.0460  -22.7120 H   0  0  0  0  0  0  0  0  0  0  0  0
   -3.6260    1.4120  -23.0200 H   0  0  0  0  0  0  0  0  0  0  0  0
   -2.3840    2.3030  -21.0710 H   0  0  0  0  0  0  0  0  0  0  0  0
   -3.1120    1.7390  -18.7690 H   0  0  0  0  0  0  0  0  0  0  0  0
   -4.6510    0.6020  -17.2550 H   0  0  0  0  0  0  0  0  0  0  0  0
   -7.7820   -1.6900  -18.6630 H   0  0  0  0  0  0  0  0  0  0  0  0
   -6.8290   -2.4360  -22.0250 C   0  0  0  0  0  0  0  0  0  0  0  0
   -5.7560   -2.9790  -21.8460 O   0  0  0  0  0  0  0  0  0  0  0  0
   -7.8360   -2.6800  -23.1680 C   0  0  1  0  0  0  0  0  0  0  0  0
   -7.9740   -4.1900  -23.4000 C   0  0  0  0  0  0  0  0  0  0  0  0
   -6.7630   -4.7340  -23.9890 N   0  0  0  0  0  0  0  0  0  0  0  0
   -6.2180   -5.9350  -23.3820 C   0  0  0  0  0  0  0  0  0  0  0  0
   -7.2680   -7.0060  -23.4120 C   0  0  0  0  0  0  0  0  0  0  0  0
   -7.9430   -7.5030  -22.3970 N   0  0  0  0  0  0  0  0  0  0  0  0
   -8.9100   -8.2930  -22.9820 C   0  0  0  0  0  0  0  0  0  0  0  0
   -8.8320   -8.2320  -24.3340 C   0  0  0  0  0  0  0  0  0  0  0  0
   -7.7650   -7.4260  -24.6130 N   0  0  0  0  0  0  0  0  0  0  0  0
   -7.2460   -7.2210  -25.9480 C   0  0  0  0  0  0  0  0  0  0  0  0
   -7.7530   -7.9160  -26.6200 H   0  0  0  0  0  0  0  0  0  0  0  0
   -7.4450   -6.2110  -26.3080 H   0  0  0  0  0  0  0  0  0  0  0  0
   -6.1740   -7.4210  -25.9610 H   0  0  0  0  0  0  0  0  0  0  0  0
   -9.4490   -8.6460  -25.1190 H   0  0  0  0  0  0  0  0  0  0  0  0
   -9.6410   -8.8370  -22.4050 H   0  0  0  0  0  0  0  0  0  0  0  0
   -5.3240   -6.2100  -23.9460 H   0  0  0  0  0  0  0  0  0  0  0  0
   -5.9240   -5.6830  -22.3600 H   0  0  0  0  0  0  0  0  0  0  0  0
   -6.1710   -4.1790  -25.0810 C   0  0  0  0  0  0  0  0  0  0  0  0
   -5.3510   -4.7650  -25.7740 O   0  0  0  0  0  0  0  0  0  0  0  0
   -6.5840   -2.7750  -25.3800 C   0  0  0  0  0  0  0  0  0  0  0  0
   -6.1330   -2.2100  -26.5730 C   0  0  0  0  0  0  0  0  0  0  0  0
   -6.3790   -0.8830  -26.8580 C   0  0  0  0  0  0  0  0  0  0  0  0
   -7.0820   -0.1400  -25.9170 C   0  0  0  0  0  0  0  0  0  0  0  0
   -7.3170    1.1580  -26.1780 F   0  0  0  0  0  0  0  0  0  0  0  0
   -7.5570   -0.6810  -24.7350 C   0  0  0  0  0  0  0  0  0  0  0  0
   -7.3320   -2.0370  -24.4580 C   0  0  0  0  0  0  0  0  0  0  0  0
   -8.1140   -0.0360  -24.0630 H   0  0  0  0  0  0  0  0  0  0  0  0
   -6.0240   -0.4160  -27.7720 H   0  0  0  0  0  0  0  0  0  0  0  0
   -5.5770   -2.8460  -27.2530 H   0  0  0  0  0  0  0  0  0  0  0  0
   -8.8510   -4.3810  -24.0340 H   0  0  0  0  0  0  0  0  0  0  0  0
   -8.1350   -4.6960  -22.4490 H   0  0  0  0  0  0  0  0  0  0  0  0
   -9.3280   -1.0430  -20.6910 H   0  0  0  0  0  0  0  0  0  0  0  0
   -8.6610    0.0210  -21.9220 H   0  0  0  0  0  0  0  0  0  0  0  0
   -9.6230   -1.4830  -23.4740 H   0  0  0  0  0  0  0  0  0  0  0  0
   -9.8040   -3.5620  -21.2410 H   0  0  0  0  0  0  0  0  0  0  0  0
  -10.5750   -3.6510  -22.8400 H   0  0  0  0  0  0  0  0  0  0  0  0
  -11.0550   -2.3900  -21.7000 H   0  0  0  0  0  0  0  0  0  0  0  0
  1  2  1  0  0  0  0
  1 57  1  0  0  0  0
  1 58  1  0  0  0  0
  1 59  1  0  0  0  0
  2  3  1  0  0  0  0
  2 23  1  0  0  0  0
  2 56  1  6  0  0  0
  3  4  1  0  0  0  0
  3 54  1  0  0  0  0
  3 55  1  0  0  0  0
  4  5  1  0  0  0  0
  4 21  1  0  0  0  0
  5  6  2  0  0  0  0
  5 14  1  0  0  0  0
  6  7  1  0  0  0  0
  6 20  1  0  0  0  0
  7  8  2  0  0  0  0
  8  9  1  0  0  0  0
  8 19  1  0  0  0  0
  9 10  2  0  0  0  0
  9 14  1  0  0  0  0
 10 11  1  0  0  0  0
 10 18  1  0  0  0  0
 11 12  2  0  0  0  0
 11 17  1  0  0  0  0
 12 13  1  0  0  0  0
 12 16  1  0  0  0  0
 13 14  2  0  0  0  0
 13 15  1  0  0  0  0
 21 22  2  0  0  0  0
 23 21  1  1  0  0  0
 23 24  1  0  0  0  0
 23 48  1  0  0  0  0
 24 25  1  0  0  0  0
 24 52  1  0  0  0  0
 24 53  1  0  0  0  0
 25 26  1  0  0  0  0
 25 40  1  0  0  0  0
 26 27  1  0  0  0  0
 26 38  1  0  0  0  0
 26 39  1  0  0  0  0
 27 28  2  0  0  0  0
 27 31  1  0  0  0  0
 28 29  1  0  0  0  0
 29 30  2  0  0  0  0
 29 37  1  0  0  0  0
 30 31  1  0  0  0  0
 30 36  1  0  0  0  0
 31 32  1  0  0  0  0
 32 33  1  0  0  0  0
 32 34  1  0  0  0  0
 32 35  1  0  0  0  0
 40 41  2  0  0  0  0
 40 42  1  0  0  0  0
 42 43  2  0  0  0  0
 42 48  1  0  0  0  0
 43 44  1  0  0  0  0
 43 51  1  0  0  0  0
 44 45  2  0  0  0  0
 44 50  1  0  0  0  0
 45 46  1  0  0  0  0
 45 47  1  0  0  0  0
 47 48  2  0  0  0  0
 47 49  1  0  0  0  0
M  END
>  <MODEL>
       1

$$$$
