output/tmp_first_model_14_35.pdb
 OpenBabel07242620283D

 40 42  0  0  0  0  0  0  0  0999 V2000
   -9.0760   -1.8550  -22.7560 O   0  0  0  0  0  0  0  0  0  0  0  0
   -8.1600   -1.0870  -22.4770 C   0  0  0  0  0  0  0  0  0  0  0  0
   -6.7760   -1.5910  -22.0890 C   0  0  0  0  0  0  0  0  0  0  0  0
   -6.2460   -0.8950  -20.8480 C   0  0  0  0  0  0  0  0  0  0  0  0
   -6.9610   -0.9720  -19.6790 C   0  0  0  0  0  0  0  0  0  0  0  0
   -6.6360   -0.3650  -18.5110 N   0  0  0  0  0  0  0  0  0  0  0  0
   -5.5540    0.3780  -18.5070 C   0  0  0  0  0  0  0  0  0  0  0  0
   -4.7090    0.5590  -19.6340 C   0  0  0  0  0  0  0  0  0  0  0  0
   -3.5670    1.4040  -19.6020 C   0  0  0  0  0  0  0  0  0  0  0  0
   -2.8110    1.5990  -20.7260 C   0  0  0  0  0  0  0  0  0  0  0  0
   -3.1650    0.9700  -21.9380 C   0  0  0  0  0  0  0  0  0  0  0  0
   -4.2640    0.1440  -21.9920 C   0  0  0  0  0  0  0  0  0  0  0  0
   -5.0580   -0.1000  -20.8430 C   0  0  0  0  0  0  0  0  0  0  0  0
   -4.5590   -0.2800  -22.9470 H   0  0  0  0  0  0  0  0  0  0  0  0
   -2.5820    1.1590  -22.8360 H   0  0  0  0  0  0  0  0  0  0  0  0
   -1.9480    2.2600  -20.7020 H   0  0  0  0  0  0  0  0  0  0  0  0
   -3.3280    1.9230  -18.6750 H   0  0  0  0  0  0  0  0  0  0  0  0
   -5.3090    0.8860  -17.5740 H   0  0  0  0  0  0  0  0  0  0  0  0
   -7.8750   -1.5680  -19.6500 H   0  0  0  0  0  0  0  0  0  0  0  0
   -6.0960   -1.4940  -22.9390 H   0  0  0  0  0  0  0  0  0  0  0  0
   -6.9020   -2.6630  -21.9140 H   0  0  0  0  0  0  0  0  0  0  0  0
   -8.2510    0.2720  -22.4340 N   0  0  0  0  0  0  0  0  0  0  0  0
   -9.4400    1.0310  -21.9860 C   0  0  0  0  0  0  0  0  0  0  0  0
   -9.4620    0.8690  -21.8190 C   0  0  0  0  0  0  0  0  0  0  0  0
   -9.0960    2.8690  -23.6500 C   0  0  0  0  0  0  0  0  0  0  0  0
   -8.5440    5.5780  -23.0360 C   0  0  0  0  0  0  0  0  0  0  0  0
   -8.1610    5.3330  -21.8000 F   0  0  0  0  0  0  0  0  0  0  0  0
   -7.5580    6.0820  -23.7480 F   0  0  0  0  0  0  0  0  0  0  0  0
   -9.6020    6.3600  -23.0630 F   0  0  0  0  0  0  0  0  0  0  0  0
   -7.8440    2.4310  -23.6940 C   0  0  0  0  0  0  0  0  0  0  0  0
   -7.2930    1.1390  -23.1780 C   0  0  0  0  0  0  0  0  0  0  0  0
   -6.8870    0.5640  -24.0120 H   0  0  0  0  0  0  0  0  0  0  0  0
   -6.4620    1.4100  -22.5250 H   0  0  0  0  0  0  0  0  0  0  0  0
   -7.0680    3.0770  -24.1050 H   0  0  0  0  0  0  0  0  0  0  0  0
   -9.9130    2.1940  -23.5320 H   0  0  0  0  0  0  0  0  0  0  0  0
   -9.2700    3.9390  -23.7790 H   0  0  0  0  0  0  0  0  0  0  0  0
   -8.7370    1.8470  -21.3940 H   0  0  0  0  0  0  0  0  0  0  0  0
  -10.3680    1.7830  -21.7240 H   0  0  0  0  0  0  0  0  0  0  0  0
  -10.1730    0.5700  -22.8440 H   0  0  0  0  0  0  0  0  0  0  0  0
   -9.8860   -0.0800  -20.6560 H   0  0  0  0  0  0  0  0  0  0  0  0
  1  2  2  0  0  0  0
  2  3  1  0  0  0  0
  2 22  1  0  0  0  0
  3  4  1  0  0  0  0
  3 20  1  0  0  0  0
  3 21  1  0  0  0  0
  4  5  2  0  0  0  0
  4 13  1  0  0  0  0
  5  6  1  0  0  0  0
  5 19  1  0  0  0  0
  6  7  2  0  0  0  0
  7  8  1  0  0  0  0
  7 18  1  0  0  0  0
  8  9  2  0  0  0  0
  8 13  1  0  0  0  0
  9 10  1  0  0  0  0
  9 17  1  0  0  0  0
 10 11  2  0  0  0  0
 10 16  1  0  0  0  0
 11 12  1  0  0  0  0
 11 15  1  0  0  0  0
 12 13  2  0  0  0  0
 12 14  1  0  0  0  0
 22 23  1  0  0  0  0
 22 31  1  0  0  0  0
 23 24  1  0  0  0  0
 23 39  1  0  0  0  0
 23 40  1  0  0  0  0
 24 25  1  0  0  0  0
 24 37  1  0  0  0  0
 24 38  1  0  0  0  0
 25 26  1  0  0  0  0
 25 30  1  0  0  0  0
 25 36  1  0  0  0  0
 26 27  1  0  0  0  0
 26 28  1  0  0  0  0
 26 29  1  0  0  0  0
 30 31  1  0  0  0  0
 30 34  1  0  0  0  0
 30 35  1  0  0  0  0
 31 32  1  0  0  0  0
 31 33  1  0  0  0  0
M  END
>  <MODEL>
       1

$$$$
