output/tmp_first_model_17_21.pdb
 OpenBabel07242622053D

 63 68  0  0  1  0  0  0  0  0999 V2000
   -8.2190   -4.1300  -23.4260 C   0  0  0  0  0  0  0  0  0  0  0  0
   -8.4160   -3.3120  -22.1520 C   0  0  1  0  0  0  0  0  0  0  0  0
   -7.0040   -2.7020  -21.8080 C   0  0  0  0  0  0  0  0  0  0  0  0
   -7.2460   -1.3700  -21.2660 N   0  0  0  0  0  0  0  0  0  0  0  0
   -6.4760   -0.8960  -20.1840 C   0  0  0  0  0  0  0  0  0  0  0  0
   -6.8350   -1.0710  -18.8610 C   0  0  0  0  0  0  0  0  0  0  0  0
   -6.1720   -0.5390  -17.8110 N   0  0  0  0  0  0  0  0  0  0  0  0
   -5.1370    0.2200  -18.0550 C   0  0  0  0  0  0  0  0  0  0  0  0
   -4.6900    0.5300  -19.3700 C   0  0  0  0  0  0  0  0  0  0  0  0
   -3.5840    1.3790  -19.6150 C   0  0  0  0  0  0  0  0  0  0  0  0
   -3.2160    1.6700  -20.8990 C   0  0  0  0  0  0  0  0  0  0  0  0
   -3.9330    1.1490  -21.9980 C   0  0  0  0  0  0  0  0  0  0  0  0
   -5.0070    0.3210  -21.7890 C   0  0  0  0  0  0  0  0  0  0  0  0
   -5.3820   -0.0250  -20.4680 C   0  0  0  0  0  0  0  0  0  0  0  0
   -5.5900   -0.0770  -22.6140 H   0  0  0  0  0  0  0  0  0  0  0  0
   -3.6190    1.3910  -23.0080 H   0  0  0  0  0  0  0  0  0  0  0  0
   -2.3560    2.3040  -21.0820 H   0  0  0  0  0  0  0  0  0  0  0  0
   -3.0470    1.7800  -18.7610 H   0  0  0  0  0  0  0  0  0  0  0  0
   -4.6070    0.6190  -17.1880 H   0  0  0  0  0  0  0  0  0  0  0  0
   -7.7150   -1.6240  -18.5450 H   0  0  0  0  0  0  0  0  0  0  0  0
   -8.7060   -1.2450  -20.9900 C   0  0  0  0  0  0  0  0  0  0  0  0
   -9.1350   -0.0750  -20.6870 O   0  0  0  0  0  0  0  0  0  0  0  0
   -9.4780   -2.0660  -22.0880 C   0  0  1  0  0  0  0  0  0  0  0  0
   -9.4500   -1.1960  -23.3890 C   0  0  0  0  0  0  0  0  0  0  0  0
  -10.1620   -1.9140  -24.3840 N   0  0  0  0  0  0  0  0  0  0  0  0
   -9.7280   -1.8180  -25.7470 C   0  0  0  0  0  0  0  0  0  0  0  0
   -8.9230   -3.0810  -26.2080 C   0  0  0  0  0  0  0  0  0  0  0  0
   -7.7520   -2.9970  -26.4690 O   0  0  0  0  0  0  0  0  0  0  0  0
   -9.5820   -4.2820  -26.3130 N   0  0  0  0  0  0  0  0  0  0  0  0
   -8.8860   -5.3690  -27.0020 C   0  0  0  0  0  0  0  0  0  0  0  0
   -9.6580   -6.6580  -26.9400 C   0  0  0  0  0  0  0  0  0  0  0  0
   -8.9100   -7.9450  -26.7760 C   0  0  0  0  0  0  0  0  0  0  0  0
   -9.7180   -7.3880  -25.6360 C   0  0  0  0  0  0  0  0  0  0  0  0
  -10.6370   -7.8870  -25.3680 H   0  0  0  0  0  0  0  0  0  0  0  0
   -9.1800   -6.9460  -24.8010 H   0  0  0  0  0  0  0  0  0  0  0  0
   -7.8250   -7.8850  -26.7040 H   0  0  0  0  0  0  0  0  0  0  0  0
   -9.2840   -8.8300  -27.2850 H   0  0  0  0  0  0  0  0  0  0  0  0
  -10.5390   -6.6980  -27.5790 H   0  0  0  0  0  0  0  0  0  0  0  0
   -8.6880   -5.0850  -28.0410 H   0  0  0  0  0  0  0  0  0  0  0  0
   -7.8910   -5.4740  -26.5500 H   0  0  0  0  0  0  0  0  0  0  0  0
  -10.5910   -4.3280  -26.1980 H   0  0  0  0  0  0  0  0  0  0  0  0
  -10.5610   -1.5510  -26.4150 H   0  0  0  0  0  0  0  0  0  0  0  0
   -9.0050   -1.0010  -25.8610 H   0  0  0  0  0  0  0  0  0  0  0  0
  -11.2260   -2.6550  -23.9460 C   0  0  0  0  0  0  0  0  0  0  0  0
  -12.0440   -3.1040  -24.7860 O   0  0  0  0  0  0  0  0  0  0  0  0
  -11.1860   -3.0830  -22.6180 C   0  0  0  0  0  0  0  0  0  0  0  0
  -12.3540   -3.9250  -22.1940 C   0  0  0  0  0  0  0  0  0  0  0  0
  -12.8130   -3.8800  -20.7720 C   0  0  0  0  0  0  0  0  0  0  0  0
  -12.8930   -3.6940  -21.0060 C   0  0  0  0  0  0  0  0  0  0  0  0
  -12.8190   -4.6150  -19.5940 F   0  0  0  0  0  0  0  0  0  0  0  0
  -11.0610   -1.7530  -21.7610 C   0  0  0  0  0  0  0  0  0  0  0  0
  -11.0600   -1.7530  -21.7600 C   0  0  0  0  0  0  0  0  0  0  0  0
   -8.9070   -1.9700  -20.1380 H   0  0  0  0  0  0  0  0  0  0  0  0
  -13.3140   -2.9380  -20.1720 H   0  0  0  0  0  0  0  0  0  0  0  0
  -13.2470   -3.6770  -22.6620 H   0  0  0  0  0  0  0  0  0  0  0  0
   -8.4110   -1.1390  -23.7300 H   0  0  0  0  0  0  0  0  0  0  0  0
   -9.7690   -0.1150  -23.3380 H   0  0  0  0  0  0  0  0  0  0  0  0
   -6.3880   -2.5820  -22.7300 H   0  0  0  0  0  0  0  0  0  0  0  0
   -6.4020   -3.3690  -21.1470 H   0  0  0  0  0  0  0  0  0  0  0  0
   -8.7800   -3.9620  -21.3440 H   0  0  0  0  0  0  0  0  0  0  0  0
   -9.1150   -4.5410  -23.8960 H   0  0  0  0  0  0  0  0  0  0  0  0
   -7.5060   -4.9550  -23.2330 H   0  0  0  0  0  0  0  0  0  0  0  0
   -7.7330   -3.4820  -24.1600 H   0  0  0  0  0  0  0  0  0  0  0  0
  1  2  1  0  0  0  0
  1 61  1  0  0  0  0
  1 62  1  0  0  0  0
  1 63  1  0  0  0  0
  2  3  1  0  0  0  0
  2 23  1  0  0  0  0
  2 60  1  1  0  0  0
  3  4  1  0  0  0  0
  3 58  1  0  0  0  0
  3 59  1  0  0  0  0
  4  5  1  0  0  0  0
  4 21  1  0  0  0  0
  5  6  2  0  0  0  0
  5 14  1  0  0  0  0
  6  7  1  0  0  0  0
  6 20  1  0  0  0  0
  7  8  2  0  0  0  0
  8  9  1  0  0  0  0
  8 19  1  0  0  0  0
  9 10  2  0  0  0  0
  9 14  1  0  0  0  0
 10 11  1  0  0  0  0
 10 18  1  0  0  0  0
 11 12  2  0  0  0  0
 11 17  1  0  0  0  0
 12 13  1  0  0  0  0
 12 16  1  0  0  0  0
 13 14  2  0  0  0  0
 13 15  1  0  0  0  0
 21 22  2  0  0  0  0
 23 21  1  1  0  0  0
 23 24  1  0  0  0  0
 23 52  1  0  0  0  0
 24 25  1  0  0  0  0
 24 56  1  0  0  0  0
 24 57  1  0  0  0  0
 25 26  1  0  0  0  0
 25 44  1  0  0  0  0
 26 27  1  0  0  0  0
 26 42  1  0  0  0  0
 26 43  1  0  0  0  0
 27 28  2  0  0  0  0
 27 29  1  0  0  0  0
 29 30  1  0  0  0  0
 29 41  1  0  0  0  0
 30 31  1  0  0  0  0
 30 39  1  0  0  0  0
 30 40  1  0  0  0  0
 31 32  1  0  0  0  0
 31 33  1  0  0  0  0
 31 38  1  0  0  0  0
 32 33  1  0  0  0  0
 32 36  1  0  0  0  0
 32 37  1  0  0  0  0
 33 34  1  0  0  0  0
 33 35  1  0  0  0  0
 44 45  2  0  0  0  0
 44 46  1  0  0  0  0
 46 47  2  0  0  0  0
 46 52  1  0  0  0  0
 47 48  1  0  0  0  0
 47 55  1  0  0  0  0
 48 49  2  0  0  0  0
 48 54  1  0  0  0  0
 49 50  1  0  0  0  0
 49 51  1  0  0  0  0
 51 52  2  0  0  0  0
 51 53  1  0  0  0  0
M  END
>  <MODEL>
       1

$$$$
