output/tmp_first_model_17_12.pdb
 OpenBabel07242622053D

 76 82  0  0  1  0  0  0  0  0999 V2000
  -12.6740    0.0020  -23.6090 O   0  0  0  0  0  0  0  0  0  0  0  0
  -11.6840   -0.6870  -23.3710 C   0  0  0  0  0  0  0  0  0  0  0  0
  -11.7960   -1.8630  -22.4700 C   0  0  0  0  0  0  0  0  0  0  0  0
  -13.0220   -2.0600  -21.8430 C   0  0  0  0  0  0  0  0  0  0  0  0
  -13.1580   -3.0550  -20.9060 C   0  0  0  0  0  0  0  0  0  0  0  0
  -12.1620   -4.0070  -20.7950 C   0  0  0  0  0  0  0  0  0  0  0  0
  -12.2330   -5.0460  -19.3270 Cl  0  0  0  0  0  0  0  0  0  0  0  0
  -10.9610   -3.8660  -21.4880 C   0  0  0  0  0  0  0  0  0  0  0  0
  -10.6940   -2.6740  -22.1770 C   0  0  0  0  0  0  0  0  0  0  0  0
   -9.2970   -2.1610  -22.5050 C   0  0  1  0  0  0  0  0  0  0  0  0
   -9.3990   -1.4130  -23.8630 C   0  0  0  0  0  0  0  0  0  0  0  0
  -10.4390   -0.3990  -23.8320 N   0  0  0  0  0  0  0  0  0  0  0  0
  -10.2140    0.8570  -24.5250 C   0  0  0  0  0  0  0  0  0  0  0  0
   -9.2750    1.7780  -23.7310 C   0  0  0  0  0  0  0  0  0  0  0  0
   -9.9910    2.9140  -23.1180 N   0  3  0  0  0  0  0  0  0  0  0  0
  -10.4120    3.9370  -24.1270 C   0  0  0  0  0  0  0  0  0  0  0  0
  -10.8230    5.2030  -23.3710 C   0  0  0  0  0  0  0  0  0  0  0  0
  -11.0480    4.9170  -22.0030 O   0  0  0  0  0  0  0  0  0  0  0  0
  -11.8840    3.7970  -21.8160 C   0  0  0  0  0  0  0  0  0  0  0  0
  -11.1360    2.5180  -22.2070 C   0  0  0  0  0  0  0  0  0  0  0  0
  -10.7090    2.0100  -21.3350 H   0  0  0  0  0  0  0  0  0  0  0  0
  -11.8250    1.8470  -22.7110 H   0  0  0  0  0  0  0  0  0  0  0  0
  -12.1440    3.7550  -20.7550 H   0  0  0  0  0  0  0  0  0  0  0  0
  -12.8070    3.8960  -22.4060 H   0  0  0  0  0  0  0  0  0  0  0  0
  -10.0210    5.9460  -23.3910 H   0  0  0  0  0  0  0  0  0  0  0  0
  -11.7190    5.6490  -23.8280 H   0  0  0  0  0  0  0  0  0  0  0  0
   -9.5650    4.1320  -24.7890 H   0  0  0  0  0  0  0  0  0  0  0  0
  -11.2420    3.5590  -24.7320 H   0  0  0  0  0  0  0  0  0  0  0  0
   -9.3450    3.4100  -22.4730 H   0  0  0  0  0  0  0  0  0  0  0  0
   -8.7820    1.2280  -22.9250 H   0  0  0  0  0  0  0  0  0  0  0  0
   -8.4910    2.1830  -24.3820 H   0  0  0  0  0  0  0  0  0  0  0  0
   -9.8270    0.6520  -25.5280 H   0  0  0  0  0  0  0  0  0  0  0  0
  -11.1960    1.3180  -24.6680 H   0  0  0  0  0  0  0  0  0  0  0  0
   -8.4530   -0.9220  -24.1030 H   0  0  0  0  0  0  0  0  0  0  0  0
   -9.6150   -2.1260  -24.6710 H   0  0  0  0  0  0  0  0  0  0  0  0
   -8.7340   -1.1550  -21.4630 C   0  0  0  0  0  0  0  0  0  0  0  0
   -9.3180   -0.1840  -21.0110 O   0  0  0  0  0  0  0  0  0  0  0  0
   -7.4100   -1.4630  -21.2160 N   0  0  0  0  0  0  0  0  0  0  0  0
   -6.6470   -0.8300  -20.1970 C   0  0  0  0  0  0  0  0  0  0  0  0
   -6.9480   -1.0480  -18.8740 C   0  0  0  0  0  0  0  0  0  0  0  0
   -6.2350   -0.5570  -17.8290 N   0  0  0  0  0  0  0  0  0  0  0  0
   -5.1940    0.1890  -18.0940 C   0  0  0  0  0  0  0  0  0  0  0  0
   -4.7710    0.5080  -19.4140 C   0  0  0  0  0  0  0  0  0  0  0  0
   -3.6470    1.3430  -19.6410 C   0  0  0  0  0  0  0  0  0  0  0  0
   -3.2670    1.6540  -20.9170 C   0  0  0  0  0  0  0  0  0  0  0  0
   -3.9880    1.1380  -22.0170 C   0  0  0  0  0  0  0  0  0  0  0  0
   -5.0770    0.3220  -21.8200 C   0  0  0  0  0  0  0  0  0  0  0  0
   -5.5050   -0.0150  -20.5070 C   0  0  0  0  0  0  0  0  0  0  0  0
   -5.6250   -0.0550  -22.6780 H   0  0  0  0  0  0  0  0  0  0  0  0
   -3.6720    1.3890  -23.0250 H   0  0  0  0  0  0  0  0  0  0  0  0
   -2.4050    2.2920  -21.0960 H   0  0  0  0  0  0  0  0  0  0  0  0
   -3.1060    1.7310  -18.7810 H   0  0  0  0  0  0  0  0  0  0  0  0
   -4.6180    0.5850  -17.2530 H   0  0  0  0  0  0  0  0  0  0  0  0
   -7.8010   -1.6680  -18.6090 H   0  0  0  0  0  0  0  0  0  0  0  0
   -6.9180   -2.5740  -22.0170 C   0  0  0  0  0  0  0  0  0  0  0  0
   -8.2090   -3.2490  -22.4970 C   0  0  2  0  0  0  0  0  0  0  0  0
   -8.0950   -4.0040  -23.8130 C   0  0  0  0  0  0  0  0  0  0  0  0
   -7.1750   -5.1070  -23.7160 N   0  0  0  0  0  0  0  0  0  0  0  0
   -6.9110   -5.9080  -24.7740 C   0  0  0  0  0  0  0  0  0  0  0  0
   -6.0660   -6.9310  -24.5390 N   0  0  0  0  0  0  0  0  0  0  0  0
   -5.7790   -7.6870  -25.5860 C   0  0  0  0  0  0  0  0  0  0  0  0
   -6.3030   -7.4730  -26.8570 C   0  0  0  0  0  0  0  0  0  0  0  0
   -7.1770   -6.4050  -26.9730 C   0  0  0  0  0  0  0  0  0  0  0  0
   -7.4880   -5.6080  -25.9510 N   0  0  0  0  0  0  0  0  0  0  0  0
   -7.6450   -6.1720  -27.9310 H   0  0  0  0  0  0  0  0  0  0  0  0
   -6.0500   -8.1080  -27.6960 H   0  0  0  0  0  0  0  0  0  0  0  0
   -5.0890   -8.5070  -25.3950 H   0  0  0  0  0  0  0  0  0  0  0  0
   -6.8260   -5.4120  -22.8220 H   0  0  0  0  0  0  0  0  0  0  0  0
   -7.7480   -3.3400  -24.6170 H   0  0  0  0  0  0  0  0  0  0  0  0
   -9.0880   -4.3720  -24.1050 H   0  0  0  0  0  0  0  0  0  0  0  0
   -8.4770   -3.9550  -21.7050 H   0  0  0  0  0  0  0  0  0  0  0  0
   -6.3120   -3.2440  -21.3990 H   0  0  0  0  0  0  0  0  0  0  0  0
   -6.2930   -2.2330  -22.8560 H   0  0  0  0  0  0  0  0  0  0  0  0
  -10.2120   -4.6360  -21.3880 H   0  0  0  0  0  0  0  0  0  0  0  0
  -14.0440   -3.1300  -20.2890 H   0  0  0  0  0  0  0  0  0  0  0  0
  -13.8350   -1.3830  -22.0720 H   0  0  0  0  0  0  0  0  0  0  0  0
  1  2  2  0  0  0  0
  2  3  1  0  0  0  0
  2 12  1  0  0  0  0
  3  4  2  0  0  0  0
  3  9  1  0  0  0  0
  4  5  1  0  0  0  0
  4 76  1  0  0  0  0
  5  6  2  0  0  0  0
  5 75  1  0  0  0  0
  6  7  1  0  0  0  0
  6  8  1  0  0  0  0
  8  9  2  0  0  0  0
  8 74  1  0  0  0  0
 10  9  1  1  0  0  0
 10 11  1  0  0  0  0
 10 36  1  0  0  0  0
 10 56  1  0  0  0  0
 11 12  1  0  0  0  0
 11 34  1  0  0  0  0
 11 35  1  0  0  0  0
 12 13  1  0  0  0  0
 13 14  1  0  0  0  0
 13 32  1  0  0  0  0
 13 33  1  0  0  0  0
 14 15  1  0  0  0  0
 14 30  1  0  0  0  0
 14 31  1  0  0  0  0
 15 16  1  0  0  0  0
 15 20  1  0  0  0  0
 15 29  1  0  0  0  0
 16 17  1  0  0  0  0
 16 27  1  0  0  0  0
 16 28  1  0  0  0  0
 17 18  1  0  0  0  0
 17 25  1  0  0  0  0
 17 26  1  0  0  0  0
 18 19  1  0  0  0  0
 19 20  1  0  0  0  0
 19 23  1  0  0  0  0
 19 24  1  0  0  0  0
 20 21  1  0  0  0  0
 20 22  1  0  0  0  0
 36 37  2  0  0  0  0
 36 38  1  0  0  0  0
 38 39  1  0  0  0  0
 38 55  1  0  0  0  0
 39 40  2  0  0  0  0
 39 48  1  0  0  0  0
 40 41  1  0  0  0  0
 40 54  1  0  0  0  0
 41 42  2  0  0  0  0
 42 43  1  0  0  0  0
 42 53  1  0  0  0  0
 43 44  2  0  0  0  0
 43 48  1  0  0  0  0
 44 45  1  0  0  0  0
 44 52  1  0  0  0  0
 45 46  2  0  0  0  0
 45 51  1  0  0  0  0
 46 47  1  0  0  0  0
 46 50  1  0  0  0  0
 47 48  2  0  0  0  0
 47 49  1  0  0  0  0
 55 56  1  0  0  0  0
 55 72  1  0  0  0  0
 55 73  1  0  0  0  0
 56 57  1  0  0  0  0
 56 71  1  1  0  0  0
 57 58  1  0  0  0  0
 57 69  1  0  0  0  0
 57 70  1  0  0  0  0
 58 59  1  0  0  0  0
 58 68  1  0  0  0  0
 59 60  2  0  0  0  0
 59 64  1  0  0  0  0
 60 61  1  0  0  0  0
 61 62  2  0  0  0  0
 61 67  1  0  0  0  0
 62 63  1  0  0  0  0
 62 66  1  0  0  0  0
 63 64  2  0  0  0  0
 63 65  1  0  0  0  0
M  CHG  1  15   1
M  END
>  <MODEL>
       1

$$$$
