output/tmp_first_model_20_24.pdb
 OpenBabel07242623363D

 65 70  0  0  1  0  0  0  0  0999 V2000
   -4.8600   -7.1960  -23.7240 O   0  0  0  0  0  0  0  0  0  0  0  0
   -5.9450   -7.1170  -24.2760 C   0  0  0  0  0  0  0  0  0  0  0  0
   -7.1720   -6.5030  -23.6040 C   0  0  0  0  0  0  0  0  0  0  0  0
   -7.1380   -5.0270  -23.7900 N   0  3  1  0  0  0  0  0  0  0  0  0
   -7.2840   -4.6750  -25.2690 C   0  0  0  0  0  0  0  0  0  0  0  0
   -7.2270   -3.1970  -25.5280 C   0  0  0  0  0  0  0  0  0  0  0  0
   -6.8730   -2.7030  -26.7840 C   0  0  0  0  0  0  0  0  0  0  0  0
   -6.8150   -1.3410  -27.0380 C   0  0  0  0  0  0  0  0  0  0  0  0
   -7.1150   -0.4660  -26.0000 C   0  0  0  0  0  0  0  0  0  0  0  0
   -7.0240    1.2500  -26.2810 Cl  0  0  0  0  0  0  0  0  0  0  0  0
   -7.4930   -0.9360  -24.7510 C   0  0  0  0  0  0  0  0  0  0  0  0
   -7.5850   -2.3130  -24.5160 C   0  0  0  0  0  0  0  0  0  0  0  0
   -8.0030   -2.8210  -23.1490 C   0  0  2  0  0  0  0  0  0  0  0  0
   -9.2030   -2.0760  -22.5640 C   0  0  0  0  0  0  0  0  0  0  0  0
   -8.6580   -1.1680  -21.4600 C   0  0  0  0  0  0  0  0  0  0  0  0
   -7.2680   -1.5700  -21.2950 N   0  0  0  0  0  0  0  0  0  0  0  0
   -6.4980   -0.9690  -20.2740 C   0  0  0  0  0  0  0  0  0  0  0  0
   -6.9010   -1.1030  -18.9670 C   0  0  0  0  0  0  0  0  0  0  0  0
   -6.2570   -0.5710  -17.9050 N   0  0  0  0  0  0  0  0  0  0  0  0
   -5.2020    0.1610  -18.1490 C   0  0  0  0  0  0  0  0  0  0  0  0
   -4.7240    0.4510  -19.4570 C   0  0  0  0  0  0  0  0  0  0  0  0
   -3.6140    1.3090  -19.6580 C   0  0  0  0  0  0  0  0  0  0  0  0
   -3.2250    1.6460  -20.9200 C   0  0  0  0  0  0  0  0  0  0  0  0
   -3.9280    1.1440  -22.0410 C   0  0  0  0  0  0  0  0  0  0  0  0
   -4.9920    0.2910  -21.8770 C   0  0  0  0  0  0  0  0  0  0  0  0
   -5.4040   -0.0960  -20.5700 C   0  0  0  0  0  0  0  0  0  0  0  0
   -5.5360   -0.0700  -22.7500 H   0  0  0  0  0  0  0  0  0  0  0  0
   -3.6280    1.4550  -23.0350 H   0  0  0  0  0  0  0  0  0  0  0  0
   -2.3910    2.3250  -21.0740 H   0  0  0  0  0  0  0  0  0  0  0  0
   -3.1050    1.7020  -18.7810 H   0  0  0  0  0  0  0  0  0  0  0  0
   -4.6800    0.5870  -17.2920 H   0  0  0  0  0  0  0  0  0  0  0  0
   -7.7880   -1.6890  -18.7360 H   0  0  0  0  0  0  0  0  0  0  0  0
   -6.8630   -2.5520  -22.1640 C   0  0  0  0  0  0  0  0  0  0  0  0
   -5.8190   -3.1840  -22.1790 O   0  0  0  0  0  0  0  0  0  0  0  0
   -8.7390   -0.0990  -21.7000 H   0  0  0  0  0  0  0  0  0  0  0  0
   -9.1980   -1.3490  -20.5370 H   0  0  0  0  0  0  0  0  0  0  0  0
   -9.7570   -1.5260  -23.3290 H   0  0  0  0  0  0  0  0  0  0  0  0
   -9.8950   -2.8080  -22.1340 H   0  0  0  0  0  0  0  0  0  0  0  0
   -8.2420   -4.3330  -23.0740 C   0  0  0  0  0  0  0  0  0  0  0  0
   -9.2100   -4.6090  -23.5080 H   0  0  0  0  0  0  0  0  0  0  0  0
   -8.2480   -4.6210  -22.0180 H   0  0  0  0  0  0  0  0  0  0  0  0
   -7.7110   -0.2150  -23.9680 H   0  0  0  0  0  0  0  0  0  0  0  0
   -6.5330   -0.9610  -28.0170 H   0  0  0  0  0  0  0  0  0  0  0  0
   -6.6370   -3.3890  -27.5930 H   0  0  0  0  0  0  0  0  0  0  0  0
   -8.2530   -5.0740  -25.5970 H   0  0  0  0  0  0  0  0  0  0  0  0
   -6.5130   -5.1900  -25.8330 H   0  0  0  0  0  0  0  0  0  0  0  0
   -6.2530   -4.6230  -23.3930 H   0  0  0  0  0  0  0  0  0  0  0  0
   -7.1870   -6.7470  -22.5420 H   0  0  0  0  0  0  0  0  0  0  0  0
   -8.1010   -6.9070  -24.0370 H   0  0  0  0  0  0  0  0  0  0  0  0
   -6.1420   -7.4850  -25.5790 N   0  0  0  0  0  0  0  0  0  0  0  0
   -5.1010   -8.2280  -26.2700 C   0  0  0  0  0  0  0  0  0  0  0  0
   -4.0800   -7.2720  -26.8730 C   0  0  1  0  0  0  0  0  0  0  0  0
   -3.0600   -7.8960  -27.8580 C   0  0  0  0  0  0  0  0  0  0  0  0
   -3.6260   -7.0270  -28.9920 C   0  0  1  0  0  0  0  0  0  0  0  0
   -4.2240   -7.7770  -29.9990 F   0  0  0  0  0  0  0  0  0  0  0  0
   -4.6630   -6.4250  -28.0360 C   0  0  0  0  0  0  0  0  0  0  0  0
   -5.6510   -6.7830  -28.3420 H   0  0  0  0  0  0  0  0  0  0  0  0
   -4.6930   -5.3320  -27.9210 H   0  0  0  0  0  0  0  0  0  0  0  0
   -2.9150   -6.3340  -29.4560 H   0  0  0  0  0  0  0  0  0  0  0  0
   -2.0120   -7.6860  -27.6130 H   0  0  0  0  0  0  0  0  0  0  0  0
   -3.2000   -8.9640  -28.0600 H   0  0  0  0  0  0  0  0  0  0  0  0
   -3.5920   -6.6830  -26.0870 H   0  0  0  0  0  0  0  0  0  0  0  0
   -5.5740   -8.8200  -27.0630 H   0  0  0  0  0  0  0  0  0  0  0  0
   -4.6190   -8.9260  -25.5740 H   0  0  0  0  0  0  0  0  0  0  0  0
   -7.0960   -7.5730  -25.9010 H   0  0  0  0  0  0  0  0  0  0  0  0
  1  2  2  0  0  0  0
  2  3  1  0  0  0  0
  2 50  1  0  0  0  0
  3  4  1  0  0  0  0
  3 48  1  0  0  0  0
  3 49  1  0  0  0  0
  4  5  1  0  0  0  0
  4 39  1  0  0  0  0
  4 47  1  1  0  0  0
  5  6  1  0  0  0  0
  5 45  1  0  0  0  0
  5 46  1  0  0  0  0
  6  7  2  0  0  0  0
  6 12  1  0  0  0  0
  7  8  1  0  0  0  0
  7 44  1  0  0  0  0
  8  9  2  0  0  0  0
  8 43  1  0  0  0  0
  9 10  1  0  0  0  0
  9 11  1  0  0  0  0
 11 12  2  0  0  0  0
 11 42  1  0  0  0  0
 13 12  1  6  0  0  0
 13 14  1  0  0  0  0
 13 33  1  0  0  0  0
 13 39  1  0  0  0  0
 14 15  1  0  0  0  0
 14 37  1  0  0  0  0
 14 38  1  0  0  0  0
 15 16  1  0  0  0  0
 15 35  1  0  0  0  0
 15 36  1  0  0  0  0
 16 17  1  0  0  0  0
 16 33  1  0  0  0  0
 17 18  2  0  0  0  0
 17 26  1  0  0  0  0
 18 19  1  0  0  0  0
 18 32  1  0  0  0  0
 19 20  2  0  0  0  0
 20 21  1  0  0  0  0
 20 31  1  0  0  0  0
 21 22  2  0  0  0  0
 21 26  1  0  0  0  0
 22 23  1  0  0  0  0
 22 30  1  0  0  0  0
 23 24  2  0  0  0  0
 23 29  1  0  0  0  0
 24 25  1  0  0  0  0
 24 28  1  0  0  0  0
 25 26  2  0  0  0  0
 25 27  1  0  0  0  0
 33 34  2  0  0  0  0
 39 40  1  0  0  0  0
 39 41  1  0  0  0  0
 50 51  1  0  0  0  0
 50 65  1  0  0  0  0
 51 52  1  0  0  0  0
 51 63  1  0  0  0  0
 51 64  1  0  0  0  0
 52 53  1  0  0  0  0
 52 56  1  0  0  0  0
 52 62  1  1  0  0  0
 53 54  1  0  0  0  0
 53 60  1  0  0  0  0
 53 61  1  0  0  0  0
 54 55  1  0  0  0  0
 54 56  1  0  0  0  0
 54 59  1  6  0  0  0
 56 57  1  0  0  0  0
 56 58  1  0  0  0  0
M  CHG  1   4   1
M  END
>  <MODEL>
       1

$$$$
