output/tmp_first_model_1_5.pdb
 OpenBabel07242613193D

 58 61  0  0  1  0  0  0  0  0999 V2000
   -5.7610   -3.3080  -23.5170 C   0  0  0  0  0  0  0  0  0  0  0  0
   -6.1430   -3.2580  -22.2440 C   0  0  0  0  0  0  0  0  0  0  0  0
   -7.3990   -2.9150  -21.5240 C   0  0  0  0  0  0  0  0  0  0  0  0
   -7.4160   -1.4810  -21.2310 N   0  0  0  0  0  0  0  0  0  0  0  0
   -8.2860   -0.5300  -21.7850 C   0  0  0  0  0  0  0  0  0  0  0  0
   -8.5700    0.4690  -21.1520 O   0  0  0  0  0  0  0  0  0  0  0  0
   -8.7320   -0.7530  -23.2260 C   0  0  2  0  0  0  0  0  0  0  0  0
   -8.4390    0.4840  -24.0660 C   0  0  0  0  0  0  0  0  0  0  0  0
   -8.7710    0.1730  -25.4590 N   0  0  0  0  0  0  0  0  0  0  0  0
   -7.8950    0.7710  -26.4630 C   0  0  0  0  0  0  0  0  0  0  0  0
   -6.7490   -0.1080  -27.0230 C   0  0  0  0  0  0  0  0  0  0  0  0
   -6.5910   -0.2690  -28.2230 O   0  0  0  0  0  0  0  0  0  0  0  0
   -5.9130   -0.6840  -26.1160 N   0  0  0  0  0  0  0  0  0  0  0  0
   -4.9010   -1.6120  -26.5780 C   0  0  0  0  0  0  0  0  0  0  0  0
   -4.4150   -1.2230  -27.4730 H   0  0  0  0  0  0  0  0  0  0  0  0
   -4.1560   -1.7540  -25.7940 H   0  0  0  0  0  0  0  0  0  0  0  0
   -5.3370   -2.5820  -26.8450 H   0  0  0  0  0  0  0  0  0  0  0  0
   -5.9570   -0.4600  -25.1340 H   0  0  0  0  0  0  0  0  0  0  0  0
   -8.4630    1.1030  -27.3370 H   0  0  0  0  0  0  0  0  0  0  0  0
   -7.4430    1.6690  -26.0110 H   0  0  0  0  0  0  0  0  0  0  0  0
   -9.8450   -0.6160  -25.9450 C   0  0  0  0  0  0  0  0  0  0  0  0
   -9.7180   -1.0720  -27.0770 O   0  0  0  0  0  0  0  0  0  0  0  0
  -10.8810   -0.5020  -24.8000 C   0  0  0  0  0  0  0  0  0  0  0  0
  -11.2200   -0.7580  -24.8860 C   0  0  0  0  0  0  0  0  0  0  0  0
  -11.1690   -2.9070  -23.1170 C   0  0  0  0  0  0  0  0  0  0  0  0
  -12.3300   -2.5090  -22.5090 C   0  0  0  0  0  0  0  0  0  0  0  0
  -13.0110   -3.2430  -21.0890 Cl  0  0  0  0  0  0  0  0  0  0  0  0
  -10.7420   -1.8640  -22.3480 C   0  0  0  0  0  0  0  0  0  0  0  0
  -10.2130   -1.0520  -23.4200 C   0  0  0  0  0  0  0  0  0  0  0  0
  -10.3400   -1.8070  -21.3230 H   0  0  0  0  0  0  0  0  0  0  0  0
  -13.0570   -1.9210  -23.0780 H   0  0  0  0  0  0  0  0  0  0  0  0
  -11.5560   -1.7590  -25.1320 H   0  0  0  0  0  0  0  0  0  0  0  0
   -9.0110    1.3430  -23.6830 H   0  0  0  0  0  0  0  0  0  0  0  0
   -7.3800    0.7650  -24.0110 H   0  0  0  0  0  0  0  0  0  0  0  0
   -8.1760   -1.6060  -23.6270 H   0  0  0  0  0  0  0  0  0  0  0  0
   -6.5770   -1.0200  -20.1800 C   0  0  0  0  0  0  0  0  0  0  0  0
   -6.9060   -1.2440  -18.8680 C   0  0  0  0  0  0  0  0  0  0  0  0
   -6.2340   -0.7270  -17.8130 N   0  0  0  0  0  0  0  0  0  0  0  0
   -5.2090    0.0520  -18.0620 C   0  0  0  0  0  0  0  0  0  0  0  0
   -4.7490    0.3530  -19.3740 C   0  0  0  0  0  0  0  0  0  0  0  0
   -3.6460    1.2200  -19.6030 C   0  0  0  0  0  0  0  0  0  0  0  0
   -3.2380    1.5040  -20.8780 C   0  0  0  0  0  0  0  0  0  0  0  0
   -3.8980    0.9180  -21.9830 C   0  0  0  0  0  0  0  0  0  0  0  0
   -4.9600    0.0680  -21.7840 C   0  0  0  0  0  0  0  0  0  0  0  0
   -5.4330   -0.2140  -20.4720 C   0  0  0  0  0  0  0  0  0  0  0  0
   -5.4650   -0.3950  -22.6290 H   0  0  0  0  0  0  0  0  0  0  0  0
   -3.5700    1.1520  -22.9920 H   0  0  0  0  0  0  0  0  0  0  0  0
   -2.4130    2.1910  -21.0500 H   0  0  0  0  0  0  0  0  0  0  0  0
   -3.1530    1.6670  -18.7430 H   0  0  0  0  0  0  0  0  0  0  0  0
   -4.6860    0.4790  -17.2060 H   0  0  0  0  0  0  0  0  0  0  0  0
   -7.7520   -1.8860  -18.6180 H   0  0  0  0  0  0  0  0  0  0  0  0
   -7.2560   -3.4080  -20.5590 H   0  0  0  0  0  0  0  0  0  0  0  0
   -8.3180   -3.2440  -22.0130 H   0  0  0  0  0  0  0  0  0  0  0  0
   -5.0750   -3.5300  -21.2080 C   0  0  0  0  0  0  0  0  0  0  0  0
   -3.9440   -3.7160  -21.6910 O   0  0  0  0  0  0  0  0  0  0  0  0
   -5.4450   -3.6430  -20.0210 O   0  5  0  0  0  0  0  0  0  0  0  0
   -6.4290   -3.1530  -24.3650 H   0  0  0  0  0  0  0  0  0  0  0  0
   -4.7100   -3.5160  -23.7050 H   0  0  0  0  0  0  0  0  0  0  0  0
  1  2  2  0  0  0  0
  1 57  1  0  0  0  0
  1 58  1  0  0  0  0
  2  3  1  0  0  0  0
  2 54  1  0  0  0  0
  3  4  1  0  0  0  0
  3 52  1  0  0  0  0
  3 53  1  0  0  0  0
  4  5  1  0  0  0  0
  4 36  1  0  0  0  0
  5  6  2  0  0  0  0
  5  7  1  0  0  0  0
  7  8  1  0  0  0  0
  7 29  1  0  0  0  0
  7 35  1  6  0  0  0
  8  9  1  0  0  0  0
  8 33  1  0  0  0  0
  8 34  1  0  0  0  0
  9 10  1  0  0  0  0
  9 21  1  0  0  0  0
 10 11  1  0  0  0  0
 10 19  1  0  0  0  0
 10 20  1  0  0  0  0
 11 12  2  0  0  0  0
 11 13  1  0  0  0  0
 13 14  1  0  0  0  0
 13 18  1  0  0  0  0
 14 15  1  0  0  0  0
 14 16  1  0  0  0  0
 14 17  1  0  0  0  0
 21 22  2  0  0  0  0
 21 23  1  0  0  0  0
 23 24  2  0  0  0  0
 23 29  1  0  0  0  0
 24 25  1  0  0  0  0
 24 32  1  0  0  0  0
 25 26  2  0  0  0  0
 25 31  1  0  0  0  0
 26 27  1  0  0  0  0
 26 28  1  0  0  0  0
 28 29  2  0  0  0  0
 28 30  1  0  0  0  0
 36 37  2  0  0  0  0
 36 45  1  0  0  0  0
 37 38  1  0  0  0  0
 37 51  1  0  0  0  0
 38 39  2  0  0  0  0
 39 40  1  0  0  0  0
 39 50  1  0  0  0  0
 40 41  2  0  0  0  0
 40 45  1  0  0  0  0
 41 42  1  0  0  0  0
 41 49  1  0  0  0  0
 42 43  2  0  0  0  0
 42 48  1  0  0  0  0
 43 44  1  0  0  0  0
 43 47  1  0  0  0  0
 44 45  2  0  0  0  0
 44 46  1  0  0  0  0
 54 55  2  0  0  0  0
 54 56  1  0  0  0  0
M  CHG  1  56  -1
M  END
>  <MODEL>
       1

$$$$
