output/tmp_first_model_7_59.pdb
 OpenBabel07242616393D

 60 65  0  0  1  0  0  0  0  0999 V2000
   -7.0190    3.4660  -22.7150 C   0  0  0  0  0  0  0  0  0  0  0  0
   -7.6670    2.7660  -23.8020 N   0  0  0  0  0  0  0  0  0  0  0  0
   -7.0230    1.8460  -24.5440 C   0  0  0  0  0  0  0  0  0  0  0  0
   -5.8110    1.6860  -24.5270 O   0  0  0  0  0  0  0  0  0  0  0  0
   -7.9460    0.9950  -25.4390 C   0  0  0  0  0  0  0  0  0  0  0  0
   -8.8980    0.2100  -24.6680 N   0  0  0  0  0  0  0  0  0  0  0  0
   -8.4760   -1.1260  -24.2950 C   0  0  0  0  0  0  0  0  0  0  0  0
   -8.9480   -1.5290  -22.8700 C   0  0  2  0  0  0  0  0  0  0  0  0
   -8.2310   -0.6580  -21.8250 C   0  0  0  0  0  0  0  0  0  0  0  0
   -8.3990    0.5250  -21.6060 O   0  0  0  0  0  0  0  0  0  0  0  0
   -7.3250   -1.4390  -21.1570 N   0  0  0  0  0  0  0  0  0  0  0  0
   -6.5340   -0.8690  -20.1400 C   0  0  0  0  0  0  0  0  0  0  0  0
   -6.8540   -1.0860  -18.8280 C   0  0  0  0  0  0  0  0  0  0  0  0
   -6.1700   -0.5620  -17.7860 N   0  0  0  0  0  0  0  0  0  0  0  0
   -5.1450    0.2060  -18.0630 C   0  0  0  0  0  0  0  0  0  0  0  0
   -4.7130    0.5140  -19.3840 C   0  0  0  0  0  0  0  0  0  0  0  0
   -3.5900    1.3470  -19.6300 C   0  0  0  0  0  0  0  0  0  0  0  0
   -3.2040    1.6390  -20.9110 C   0  0  0  0  0  0  0  0  0  0  0  0
   -3.9350    1.1210  -22.0060 C   0  0  0  0  0  0  0  0  0  0  0  0
   -5.0190    0.3070  -21.7940 C   0  0  0  0  0  0  0  0  0  0  0  0
   -5.4370   -0.0230  -20.4710 C   0  0  0  0  0  0  0  0  0  0  0  0
   -5.5770   -0.0760  -22.6450 H   0  0  0  0  0  0  0  0  0  0  0  0
   -3.6610    1.3880  -23.0230 H   0  0  0  0  0  0  0  0  0  0  0  0
   -2.3440    2.2800  -21.0910 H   0  0  0  0  0  0  0  0  0  0  0  0
   -3.0600    1.7560  -18.7750 H   0  0  0  0  0  0  0  0  0  0  0  0
   -4.6040    0.6320  -17.2170 H   0  0  0  0  0  0  0  0  0  0  0  0
   -7.7170   -1.7030  -18.5790 H   0  0  0  0  0  0  0  0  0  0  0  0
   -7.2520   -2.8090  -21.5990 C   0  0  0  0  0  0  0  0  0  0  0  0
   -8.4980   -2.9640  -22.4840 C   0  0  2  0  0  0  0  0  0  0  0  0
   -8.2920   -3.9630  -23.6400 C   0  0  0  0  0  0  0  0  0  0  0  0
   -7.9840   -5.3200  -23.1020 C   0  0  0  0  0  0  0  0  0  0  0  0
   -6.7620   -5.7580  -22.8220 N   0  0  0  0  0  0  0  0  0  0  0  0
   -6.9460   -6.9640  -22.2900 N   0  0  0  0  0  0  0  0  0  0  0  0
   -8.2250   -7.2320  -22.2580 N   0  5  0  0  0  0  0  0  0  0  0  0
   -8.9030   -6.2090  -22.7660 N   0  0  0  0  0  0  0  0  0  0  0  0
   -7.4500   -3.6520  -24.2650 H   0  0  0  0  0  0  0  0  0  0  0  0
   -9.2020   -4.0310  -24.2470 H   0  0  0  0  0  0  0  0  0  0  0  0
   -9.2840   -3.3810  -21.8540 H   0  0  0  0  0  0  0  0  0  0  0  0
   -6.3370   -3.0040  -22.1720 H   0  0  0  0  0  0  0  0  0  0  0  0
   -7.2560   -3.5080  -20.7590 H   0  0  0  0  0  0  0  0  0  0  0  0
  -10.4380   -1.2670  -22.7780 C   0  0  0  0  0  0  0  0  0  0  0  0
  -11.2770   -2.0080  -21.9360 C   0  0  0  0  0  0  0  0  0  0  0  0
  -12.6410   -1.7860  -21.9460 C   0  0  0  0  0  0  0  0  0  0  0  0
  -13.6430   -2.7580  -20.8890 Cl  0  0  0  0  0  0  0  0  0  0  0  0
  -13.1870   -0.7360  -22.6890 C   0  0  0  0  0  0  0  0  0  0  0  0
  -12.3280    0.1130  -23.3690 C   0  0  0  0  0  0  0  0  0  0  0  0
  -10.9640   -0.1560  -23.4430 C   0  0  0  0  0  0  0  0  0  0  0  0
  -10.0640    0.7550  -24.2320 C   0  0  0  0  0  0  0  0  0  0  0  0
  -10.3500    1.9370  -24.4450 O   0  0  0  0  0  0  0  0  0  0  0  0
  -12.7120    1.0070  -23.8350 H   0  0  0  0  0  0  0  0  0  0  0  0
  -14.2590   -0.5750  -22.7030 H   0  0  0  0  0  0  0  0  0  0  0  0
  -10.8650   -2.6940  -21.2020 H   0  0  0  0  0  0  0  0  0  0  0  0
   -7.3800   -1.1510  -24.3400 H   0  0  0  0  0  0  0  0  0  0  0  0
   -8.8700   -1.8440  -25.0230 H   0  0  0  0  0  0  0  0  0  0  0  0
   -8.4780    1.6270  -26.1570 H   0  0  0  0  0  0  0  0  0  0  0  0
   -7.3030    0.3000  -25.9890 H   0  0  0  0  0  0  0  0  0  0  0  0
   -8.6730    2.8000  -23.8850 H   0  0  0  0  0  0  0  0  0  0  0  0
   -7.7750    4.0610  -22.1970 H   0  0  0  0  0  0  0  0  0  0  0  0
   -6.2400    4.1280  -23.1000 H   0  0  0  0  0  0  0  0  0  0  0  0
   -6.5690    2.7630  -22.0020 H   0  0  0  0  0  0  0  0  0  0  0  0
  1  2  1  0  0  0  0
  1 58  1  0  0  0  0
  1 59  1  0  0  0  0
  1 60  1  0  0  0  0
  2  3  1  0  0  0  0
  2 57  1  0  0  0  0
  3  4  2  0  0  0  0
  3  5  1  0  0  0  0
  5  6  1  0  0  0  0
  5 55  1  0  0  0  0
  5 56  1  0  0  0  0
  6  7  1  0  0  0  0
  6 48  1  0  0  0  0
  7  8  1  0  0  0  0
  7 53  1  0  0  0  0
  7 54  1  0  0  0  0
  8  9  1  1  0  0  0
  8 29  1  0  0  0  0
  8 41  1  0  0  0  0
  9 10  2  0  0  0  0
  9 11  1  0  0  0  0
 11 12  1  0  0  0  0
 11 28  1  0  0  0  0
 12 13  2  0  0  0  0
 12 21  1  0  0  0  0
 13 14  1  0  0  0  0
 13 27  1  0  0  0  0
 14 15  2  0  0  0  0
 15 16  1  0  0  0  0
 15 26  1  0  0  0  0
 16 17  2  0  0  0  0
 16 21  1  0  0  0  0
 17 18  1  0  0  0  0
 17 25  1  0  0  0  0
 18 19  2  0  0  0  0
 18 24  1  0  0  0  0
 19 20  1  0  0  0  0
 19 23  1  0  0  0  0
 20 21  2  0  0  0  0
 20 22  1  0  0  0  0
 28 29  1  0  0  0  0
 28 39  1  0  0  0  0
 28 40  1  0  0  0  0
 29 30  1  0  0  0  0
 29 38  1  1  0  0  0
 30 31  1  0  0  0  0
 30 36  1  0  0  0  0
 30 37  1  0  0  0  0
 31 32  1  0  0  0  0
 31 35  2  0  0  0  0
 32 33  2  0  0  0  0
 33 34  1  0  0  0  0
 34 35  1  0  0  0  0
 41 42  2  0  0  0  0
 41 47  1  0  0  0  0
 42 43  1  0  0  0  0
 42 52  1  0  0  0  0
 43 44  1  0  0  0  0
 43 45  2  0  0  0  0
 45 46  1  0  0  0  0
 45 51  1  0  0  0  0
 46 47  2  0  0  0  0
 46 50  1  0  0  0  0
 47 48  1  0  0  0  0
 48 49  2  0  0  0  0
M  CHG  1  34  -1
M  END
>  <MODEL>
       1

$$$$
