output/tmp_first_model_15_12.pdb
 OpenBabel07242621043D

 76 82  0  0  1  0  0  0  0  0999 V2000
  -12.6190    0.2460  -23.9270 O   0  0  0  0  0  0  0  0  0  0  0  0
  -11.7040   -0.5210  -23.6260 C   0  0  0  0  0  0  0  0  0  0  0  0
  -11.9720   -1.7180  -22.7710 C   0  0  0  0  0  0  0  0  0  0  0  0
  -13.3010   -1.9580  -22.4160 C   0  0  0  0  0  0  0  0  0  0  0  0
  -13.6210   -2.9580  -21.5320 C   0  0  0  0  0  0  0  0  0  0  0  0
  -12.5870   -3.7540  -21.0490 C   0  0  0  0  0  0  0  0  0  0  0  0
  -12.9800   -4.8420  -19.7560 Cl  0  0  0  0  0  0  0  0  0  0  0  0
  -11.2750   -3.6050  -21.4740 C   0  0  0  0  0  0  0  0  0  0  0  0
  -10.9240   -2.5290  -22.2930 C   0  0  0  0  0  0  0  0  0  0  0  0
   -9.4760   -2.1300  -22.5410 C   0  0  1  0  0  0  0  0  0  0  0  0
   -9.4240   -1.4080  -23.9130 C   0  0  0  0  0  0  0  0  0  0  0  0
  -10.4170   -0.3470  -24.0280 N   0  0  0  0  0  0  0  0  0  0  0  0
  -10.0220    0.9050  -24.6560 C   0  0  0  0  0  0  0  0  0  0  0  0
   -9.3280    1.8620  -23.6700 C   0  0  0  0  0  0  0  0  0  0  0  0
  -10.1660    2.9770  -23.1550 N   0  3  0  0  0  0  0  0  0  0  0  0
  -10.5280    4.0010  -24.1900 C   0  0  0  0  0  0  0  0  0  0  0  0
  -10.9380    5.2880  -23.4480 C   0  0  0  0  0  0  0  0  0  0  0  0
  -11.2760    5.0070  -22.1000 O   0  0  0  0  0  0  0  0  0  0  0  0
  -12.1480    3.8980  -22.0010 C   0  0  0  0  0  0  0  0  0  0  0  0
  -11.4110    2.5990  -22.3790 C   0  0  0  0  0  0  0  0  0  0  0  0
  -11.1110    2.0210  -21.5000 H   0  0  0  0  0  0  0  0  0  0  0  0
  -12.0520    1.9890  -23.0070 H   0  0  0  0  0  0  0  0  0  0  0  0
  -12.5000    3.8490  -20.9680 H   0  0  0  0  0  0  0  0  0  0  0  0
  -13.0230    4.0450  -22.6560 H   0  0  0  0  0  0  0  0  0  0  0  0
  -10.1100    6.0000  -23.3960 H   0  0  0  0  0  0  0  0  0  0  0  0
  -11.7860    5.7620  -23.9640 H   0  0  0  0  0  0  0  0  0  0  0  0
   -9.6740    4.1620  -24.8530 H   0  0  0  0  0  0  0  0  0  0  0  0
  -11.3530    3.6190  -24.8010 H   0  0  0  0  0  0  0  0  0  0  0  0
   -9.6020    3.4820  -22.4440 H   0  0  0  0  0  0  0  0  0  0  0  0
   -8.9640    1.3000  -22.8050 H   0  0  0  0  0  0  0  0  0  0  0  0
   -8.4530    2.3110  -24.1570 H   0  0  0  0  0  0  0  0  0  0  0  0
   -9.3410    0.6660  -25.4790 H   0  0  0  0  0  0  0  0  0  0  0  0
  -10.9140    1.3460  -25.1080 H   0  0  0  0  0  0  0  0  0  0  0  0
   -8.4320   -0.9600  -24.0490 H   0  0  0  0  0  0  0  0  0  0  0  0
   -9.5890   -2.1650  -24.6930 H   0  0  0  0  0  0  0  0  0  0  0  0
   -8.9140   -1.1340  -21.4850 C   0  0  0  0  0  0  0  0  0  0  0  0
   -9.4960   -0.1940  -20.9750 O   0  0  0  0  0  0  0  0  0  0  0  0
   -7.5830   -1.4220  -21.2830 N   0  0  0  0  0  0  0  0  0  0  0  0
   -6.8240   -0.8340  -20.2410 C   0  0  0  0  0  0  0  0  0  0  0  0
   -7.1660   -1.0530  -18.9310 C   0  0  0  0  0  0  0  0  0  0  0  0
   -6.4620   -0.6010  -17.8660 N   0  0  0  0  0  0  0  0  0  0  0  0
   -5.3900    0.1130  -18.1160 C   0  0  0  0  0  0  0  0  0  0  0  0
   -4.9280    0.4390  -19.4220 C   0  0  0  0  0  0  0  0  0  0  0  0
   -3.7850    1.2540  -19.6350 C   0  0  0  0  0  0  0  0  0  0  0  0
   -3.3680    1.5390  -20.9070 C   0  0  0  0  0  0  0  0  0  0  0  0
   -4.0730    1.0250  -22.0180 C   0  0  0  0  0  0  0  0  0  0  0  0
   -5.1880    0.2450  -21.8350 C   0  0  0  0  0  0  0  0  0  0  0  0
   -5.6500   -0.0650  -20.5280 C   0  0  0  0  0  0  0  0  0  0  0  0
   -5.7320   -0.1300  -22.6950 H   0  0  0  0  0  0  0  0  0  0  0  0
   -3.7340    1.2630  -23.0220 H   0  0  0  0  0  0  0  0  0  0  0  0
   -2.5000    2.1700  -21.0690 H   0  0  0  0  0  0  0  0  0  0  0  0
   -3.2570    1.6500  -18.7700 H   0  0  0  0  0  0  0  0  0  0  0  0
   -4.8400    0.4780  -17.2520 H   0  0  0  0  0  0  0  0  0  0  0  0
   -8.0500   -1.6440  -18.7070 H   0  0  0  0  0  0  0  0  0  0  0  0
   -7.1160   -2.5630  -22.0460 C   0  0  0  0  0  0  0  0  0  0  0  0
   -8.4100   -3.2700  -22.4730 C   0  0  2  0  0  0  0  0  0  0  0  0
   -8.1980   -4.0670  -23.7590 C   0  0  0  0  0  0  0  0  0  0  0  0
   -7.2600   -5.1630  -23.6240 N   0  0  0  0  0  0  0  0  0  0  0  0
   -6.8980   -5.8760  -24.7220 C   0  0  0  0  0  0  0  0  0  0  0  0
   -5.9270   -6.7950  -24.5550 N   0  0  0  0  0  0  0  0  0  0  0  0
   -5.6350   -7.5180  -25.6280 C   0  0  0  0  0  0  0  0  0  0  0  0
   -6.2670   -7.3560  -26.8560 C   0  0  0  0  0  0  0  0  0  0  0  0
   -7.2280   -6.3580  -26.9120 C   0  0  0  0  0  0  0  0  0  0  0  0
   -7.5470   -5.6030  -25.8650 N   0  0  0  0  0  0  0  0  0  0  0  0
   -7.7680   -6.1460  -27.8340 H   0  0  0  0  0  0  0  0  0  0  0  0
   -6.0310   -7.9770  -27.7090 H   0  0  0  0  0  0  0  0  0  0  0  0
   -4.8610   -8.2720  -25.4900 H   0  0  0  0  0  0  0  0  0  0  0  0
   -6.7030   -5.3080  -22.8010 H   0  0  0  0  0  0  0  0  0  0  0  0
   -7.8110   -3.4060  -24.5440 H   0  0  0  0  0  0  0  0  0  0  0  0
   -9.1400   -4.4720  -24.1370 H   0  0  0  0  0  0  0  0  0  0  0  0
   -8.6890   -3.9640  -21.6760 H   0  0  0  0  0  0  0  0  0  0  0  0
   -6.4640   -3.1830  -21.4240 H   0  0  0  0  0  0  0  0  0  0  0  0
   -6.5470   -2.2580  -22.9390 H   0  0  0  0  0  0  0  0  0  0  0  0
  -10.5180   -4.2580  -21.0500 H   0  0  0  0  0  0  0  0  0  0  0  0
  -14.6300   -3.1140  -21.1590 H   0  0  0  0  0  0  0  0  0  0  0  0
  -14.0660   -1.2950  -22.8060 H   0  0  0  0  0  0  0  0  0  0  0  0
  1  2  2  0  0  0  0
  2  3  1  0  0  0  0
  2 12  1  0  0  0  0
  3  4  2  0  0  0  0
  3  9  1  0  0  0  0
  4  5  1  0  0  0  0
  4 76  1  0  0  0  0
  5  6  2  0  0  0  0
  5 75  1  0  0  0  0
  6  7  1  0  0  0  0
  6  8  1  0  0  0  0
  8  9  2  0  0  0  0
  8 74  1  0  0  0  0
 10  9  1  1  0  0  0
 10 11  1  0  0  0  0
 10 36  1  0  0  0  0
 10 56  1  0  0  0  0
 11 12  1  0  0  0  0
 11 34  1  0  0  0  0
 11 35  1  0  0  0  0
 12 13  1  0  0  0  0
 13 14  1  0  0  0  0
 13 32  1  0  0  0  0
 13 33  1  0  0  0  0
 14 15  1  0  0  0  0
 14 30  1  0  0  0  0
 14 31  1  0  0  0  0
 15 16  1  0  0  0  0
 15 20  1  0  0  0  0
 15 29  1  0  0  0  0
 16 17  1  0  0  0  0
 16 27  1  0  0  0  0
 16 28  1  0  0  0  0
 17 18  1  0  0  0  0
 17 25  1  0  0  0  0
 17 26  1  0  0  0  0
 18 19  1  0  0  0  0
 19 20  1  0  0  0  0
 19 23  1  0  0  0  0
 19 24  1  0  0  0  0
 20 21  1  0  0  0  0
 20 22  1  0  0  0  0
 36 37  2  0  0  0  0
 36 38  1  0  0  0  0
 38 39  1  0  0  0  0
 38 55  1  0  0  0  0
 39 40  2  0  0  0  0
 39 48  1  0  0  0  0
 40 41  1  0  0  0  0
 40 54  1  0  0  0  0
 41 42  2  0  0  0  0
 42 43  1  0  0  0  0
 42 53  1  0  0  0  0
 43 44  2  0  0  0  0
 43 48  1  0  0  0  0
 44 45  1  0  0  0  0
 44 52  1  0  0  0  0
 45 46  2  0  0  0  0
 45 51  1  0  0  0  0
 46 47  1  0  0  0  0
 46 50  1  0  0  0  0
 47 48  2  0  0  0  0
 47 49  1  0  0  0  0
 55 56  1  0  0  0  0
 55 72  1  0  0  0  0
 55 73  1  0  0  0  0
 56 57  1  0  0  0  0
 56 71  1  1  0  0  0
 57 58  1  0  0  0  0
 57 69  1  0  0  0  0
 57 70  1  0  0  0  0
 58 59  1  0  0  0  0
 58 68  1  0  0  0  0
 59 60  2  0  0  0  0
 59 64  1  0  0  0  0
 60 61  1  0  0  0  0
 61 62  2  0  0  0  0
 61 67  1  0  0  0  0
 62 63  1  0  0  0  0
 62 66  1  0  0  0  0
 63 64  2  0  0  0  0
 63 65  1  0  0  0  0
M  CHG  1  15   1
M  END
>  <MODEL>
       1

$$$$
