output/tmp_first_model_10_12.pdb
 OpenBabel07242618173D

 76 82  0  0  1  0  0  0  0  0999 V2000
  -12.9230   -0.2670  -23.1820 O   0  0  0  0  0  0  0  0  0  0  0  0
  -11.9580   -1.0250  -23.1340 C   0  0  0  0  0  0  0  0  0  0  0  0
  -11.9740   -2.2640  -22.3160 C   0  0  0  0  0  0  0  0  0  0  0  0
  -13.2140   -2.7020  -21.8570 C   0  0  0  0  0  0  0  0  0  0  0  0
  -13.3080   -3.8280  -21.0680 C   0  0  0  0  0  0  0  0  0  0  0  0
  -12.1250   -4.4670  -20.7230 C   0  0  0  0  0  0  0  0  0  0  0  0
  -12.1950   -5.7180  -19.5070 Cl  0  0  0  0  0  0  0  0  0  0  0  0
  -10.8820   -4.0520  -21.2020 C   0  0  0  0  0  0  0  0  0  0  0  0
  -10.7700   -2.9140  -21.9930 C   0  0  0  0  0  0  0  0  0  0  0  0
   -9.4260   -2.3050  -22.4070 C   0  0  1  0  0  0  0  0  0  0  0  0
   -9.6840   -1.7060  -23.8180 C   0  0  0  0  0  0  0  0  0  0  0  0
  -10.8150   -0.7950  -23.8370 N   0  0  0  0  0  0  0  0  0  0  0  0
  -10.8480    0.3460  -24.7350 C   0  0  0  0  0  0  0  0  0  0  0  0
  -10.5880    1.6430  -23.9780 C   0  0  0  0  0  0  0  0  0  0  0  0
   -9.1330    1.8010  -23.6730 N   0  3  0  0  0  0  0  0  0  0  0  0
   -8.9620    2.6740  -22.4540 C   0  0  0  0  0  0  0  0  0  0  0  0
   -7.5510    3.2180  -22.2860 C   0  0  0  0  0  0  0  0  0  0  0  0
   -7.0020    3.7490  -23.4740 O   0  0  0  0  0  0  0  0  0  0  0  0
   -6.9790    2.7740  -24.4990 C   0  0  0  0  0  0  0  0  0  0  0  0
   -8.3870    2.3440  -24.8740 C   0  0  0  0  0  0  0  0  0  0  0  0
   -8.9370    3.2200  -25.2330 H   0  0  0  0  0  0  0  0  0  0  0  0
   -8.3560    1.5970  -25.6750 H   0  0  0  0  0  0  0  0  0  0  0  0
   -6.3910    1.8930  -24.1910 H   0  0  0  0  0  0  0  0  0  0  0  0
   -6.4940    3.2500  -25.3570 H   0  0  0  0  0  0  0  0  0  0  0  0
   -6.9090    2.4440  -21.8520 H   0  0  0  0  0  0  0  0  0  0  0  0
   -7.5870    4.0420  -21.5720 H   0  0  0  0  0  0  0  0  0  0  0  0
   -9.6710    3.5060  -22.5370 H   0  0  0  0  0  0  0  0  0  0  0  0
   -9.2440    2.0700  -21.5840 H   0  0  0  0  0  0  0  0  0  0  0  0
   -8.7680    0.8580  -23.4370 H   0  0  0  0  0  0  0  0  0  0  0  0
  -11.1440    1.6440  -23.0360 H   0  0  0  0  0  0  0  0  0  0  0  0
  -10.9190    2.5130  -24.5570 H   0  0  0  0  0  0  0  0  0  0  0  0
  -11.8270    0.3750  -25.2130 H   0  0  0  0  0  0  0  0  0  0  0  0
  -10.0890    0.2070  -25.5090 H   0  0  0  0  0  0  0  0  0  0  0  0
   -8.8030   -1.1620  -24.1700 H   0  0  0  0  0  0  0  0  0  0  0  0
   -9.8680   -2.5370  -24.5130 H   0  0  0  0  0  0  0  0  0  0  0  0
   -8.9630   -1.1630  -21.4430 C   0  0  0  0  0  0  0  0  0  0  0  0
   -9.6370   -0.2450  -21.0280 O   0  0  0  0  0  0  0  0  0  0  0  0
   -7.6080   -1.2930  -21.2170 N   0  0  0  0  0  0  0  0  0  0  0  0
   -6.8740   -0.6800  -20.1660 C   0  0  0  0  0  0  0  0  0  0  0  0
   -7.1080   -1.0130  -18.8530 C   0  0  0  0  0  0  0  0  0  0  0  0
   -6.3430   -0.6080  -17.8090 N   0  0  0  0  0  0  0  0  0  0  0  0
   -5.3220    0.1730  -18.0650 C   0  0  0  0  0  0  0  0  0  0  0  0
   -4.9750    0.6200  -19.3720 C   0  0  0  0  0  0  0  0  0  0  0  0
   -3.8960    1.5170  -19.6040 C   0  0  0  0  0  0  0  0  0  0  0  0
   -3.6200    1.9640  -20.8680 C   0  0  0  0  0  0  0  0  0  0  0  0
   -4.3780    1.4980  -21.9650 C   0  0  0  0  0  0  0  0  0  0  0  0
   -5.3910    0.5870  -21.7680 C   0  0  0  0  0  0  0  0  0  0  0  0
   -5.7550    0.1630  -20.4620 C   0  0  0  0  0  0  0  0  0  0  0  0
   -5.9820    0.2400  -22.6110 H   0  0  0  0  0  0  0  0  0  0  0  0
   -4.1690    1.8820  -22.9620 H   0  0  0  0  0  0  0  0  0  0  0  0
   -2.8320    2.6930  -21.0300 H   0  0  0  0  0  0  0  0  0  0  0  0
   -3.3110    1.8560  -18.7520 H   0  0  0  0  0  0  0  0  0  0  0  0
   -4.7080    0.4870  -17.2180 H   0  0  0  0  0  0  0  0  0  0  0  0
   -7.9400   -1.6640  -18.5960 H   0  0  0  0  0  0  0  0  0  0  0  0
   -6.9920   -2.3350  -22.0020 C   0  0  0  0  0  0  0  0  0  0  0  0
   -8.1680   -3.2430  -22.3900 C   0  0  2  0  0  0  0  0  0  0  0  0
   -7.8390   -3.9990  -23.6860 C   0  0  0  0  0  0  0  0  0  0  0  0
   -6.6200   -4.7970  -23.5920 N   0  0  0  0  0  0  0  0  0  0  0  0
   -6.6810   -6.1220  -23.2660 C   0  0  0  0  0  0  0  0  0  0  0  0
   -5.6120   -6.8840  -23.5760 N   0  0  0  0  0  0  0  0  0  0  0  0
   -5.6810   -8.1550  -23.2040 C   0  0  0  0  0  0  0  0  0  0  0  0
   -6.7730   -8.6950  -22.5290 C   0  0  0  0  0  0  0  0  0  0  0  0
   -7.8120   -7.8200  -22.2740 C   0  0  0  0  0  0  0  0  0  0  0  0
   -7.7890   -6.5430  -22.6350 N   0  0  0  0  0  0  0  0  0  0  0  0
   -8.7180   -8.1360  -21.7620 H   0  0  0  0  0  0  0  0  0  0  0  0
   -6.8300   -9.7380  -22.2500 H   0  0  0  0  0  0  0  0  0  0  0  0
   -4.8310   -8.7880  -23.4650 H   0  0  0  0  0  0  0  0  0  0  0  0
   -5.8580   -4.5640  -24.2120 H   0  0  0  0  0  0  0  0  0  0  0  0
   -7.6950   -3.2770  -24.4970 H   0  0  0  0  0  0  0  0  0  0  0  0
   -8.6720   -4.6610  -23.9350 H   0  0  0  0  0  0  0  0  0  0  0  0
   -8.2960   -3.9800  -21.5920 H   0  0  0  0  0  0  0  0  0  0  0  0
   -6.2210   -2.8330  -21.4100 H   0  0  0  0  0  0  0  0  0  0  0  0
   -6.5040   -1.9370  -22.9050 H   0  0  0  0  0  0  0  0  0  0  0  0
   -9.9940   -4.4900  -20.7640 H   0  0  0  0  0  0  0  0  0  0  0  0
  -14.2520   -4.1840  -20.6730 H   0  0  0  0  0  0  0  0  0  0  0  0
  -14.0850   -2.1020  -22.0970 H   0  0  0  0  0  0  0  0  0  0  0  0
  1  2  2  0  0  0  0
  2  3  1  0  0  0  0
  2 12  1  0  0  0  0
  3  4  2  0  0  0  0
  3  9  1  0  0  0  0
  4  5  1  0  0  0  0
  4 76  1  0  0  0  0
  5  6  2  0  0  0  0
  5 75  1  0  0  0  0
  6  7  1  0  0  0  0
  6  8  1  0  0  0  0
  8  9  2  0  0  0  0
  8 74  1  0  0  0  0
 10  9  1  1  0  0  0
 10 11  1  0  0  0  0
 10 36  1  0  0  0  0
 10 56  1  0  0  0  0
 11 12  1  0  0  0  0
 11 34  1  0  0  0  0
 11 35  1  0  0  0  0
 12 13  1  0  0  0  0
 13 14  1  0  0  0  0
 13 32  1  0  0  0  0
 13 33  1  0  0  0  0
 14 15  1  0  0  0  0
 14 30  1  0  0  0  0
 14 31  1  0  0  0  0
 15 16  1  0  0  0  0
 15 20  1  0  0  0  0
 15 29  1  0  0  0  0
 16 17  1  0  0  0  0
 16 27  1  0  0  0  0
 16 28  1  0  0  0  0
 17 18  1  0  0  0  0
 17 25  1  0  0  0  0
 17 26  1  0  0  0  0
 18 19  1  0  0  0  0
 19 20  1  0  0  0  0
 19 23  1  0  0  0  0
 19 24  1  0  0  0  0
 20 21  1  0  0  0  0
 20 22  1  0  0  0  0
 36 37  2  0  0  0  0
 36 38  1  0  0  0  0
 38 39  1  0  0  0  0
 38 55  1  0  0  0  0
 39 40  2  0  0  0  0
 39 48  1  0  0  0  0
 40 41  1  0  0  0  0
 40 54  1  0  0  0  0
 41 42  2  0  0  0  0
 42 43  1  0  0  0  0
 42 53  1  0  0  0  0
 43 44  2  0  0  0  0
 43 48  1  0  0  0  0
 44 45  1  0  0  0  0
 44 52  1  0  0  0  0
 45 46  2  0  0  0  0
 45 51  1  0  0  0  0
 46 47  1  0  0  0  0
 46 50  1  0  0  0  0
 47 48  2  0  0  0  0
 47 49  1  0  0  0  0
 55 56  1  0  0  0  0
 55 72  1  0  0  0  0
 55 73  1  0  0  0  0
 56 57  1  0  0  0  0
 56 71  1  1  0  0  0
 57 58  1  0  0  0  0
 57 69  1  0  0  0  0
 57 70  1  0  0  0  0
 58 59  1  0  0  0  0
 58 68  1  0  0  0  0
 59 60  2  0  0  0  0
 59 64  1  0  0  0  0
 60 61  1  0  0  0  0
 61 62  2  0  0  0  0
 61 67  1  0  0  0  0
 62 63  1  0  0  0  0
 62 66  1  0  0  0  0
 63 64  2  0  0  0  0
 63 65  1  0  0  0  0
M  CHG  1  15   1
M  END
>  <MODEL>
       1

$$$$
