output/tmp_first_model_16_30.pdb
 OpenBabel07242621343D

 58 63  0  0  1  0  0  0  0  0999 V2000
   -8.4230   -4.1400  -23.9810 C   0  0  0  0  0  0  0  0  0  0  0  0
   -8.5490   -3.1200  -22.8640 C   0  0  1  0  0  0  0  0  0  0  0  0
   -7.1970   -2.4580  -22.5800 C   0  0  0  0  0  0  0  0  0  0  0  0
   -7.5740   -1.3940  -21.6740 N   0  0  0  0  0  0  0  0  0  0  0  0
   -6.8140   -1.0800  -20.5260 C   0  0  0  0  0  0  0  0  0  0  0  0
   -7.1930   -1.4690  -19.2630 C   0  0  0  0  0  0  0  0  0  0  0  0
   -6.4640   -1.2090  -18.1560 N   0  0  0  0  0  0  0  0  0  0  0  0
   -5.3460   -0.5430  -18.2900 C   0  0  0  0  0  0  0  0  0  0  0  0
   -4.8470   -0.0830  -19.5360 C   0  0  0  0  0  0  0  0  0  0  0  0
   -3.6580    0.6860  -19.6390 C   0  0  0  0  0  0  0  0  0  0  0  0
   -3.2660    1.1800  -20.8500 C   0  0  0  0  0  0  0  0  0  0  0  0
   -4.0120    0.9010  -22.0180 C   0  0  0  0  0  0  0  0  0  0  0  0
   -5.1040    0.0690  -21.9490 C   0  0  0  0  0  0  0  0  0  0  0  0
   -5.5840   -0.3880  -20.6980 C   0  0  0  0  0  0  0  0  0  0  0  0
   -5.6350   -0.1960  -22.8570 H   0  0  0  0  0  0  0  0  0  0  0  0
   -3.7630    1.3800  -22.9590 H   0  0  0  0  0  0  0  0  0  0  0  0
   -2.3680    1.7850  -20.9250 H   0  0  0  0  0  0  0  0  0  0  0  0
   -3.1000    0.8980  -18.7280 H   0  0  0  0  0  0  0  0  0  0  0  0
   -4.7810   -0.3320  -17.3810 H   0  0  0  0  0  0  0  0  0  0  0  0
   -8.1120   -2.0310  -19.1050 H   0  0  0  0  0  0  0  0  0  0  0  0
   -8.9090   -1.0640  -21.7820 C   0  0  0  0  0  0  0  0  0  0  0  0
   -9.4820   -0.2810  -21.0590 O   0  0  0  0  0  0  0  0  0  0  0  0
   -9.5330   -1.9010  -22.9380 C   0  0  1  0  0  0  0  0  0  0  0  0
   -9.4130   -1.1630  -24.3080 C   0  0  0  0  0  0  0  0  0  0  0  0
  -10.3770   -0.0940  -24.5110 N   0  0  0  0  0  0  0  0  0  0  0  0
   -9.9510    1.0870  -25.2470 C   0  0  0  0  0  0  0  0  0  0  0  0
   -8.8450    1.7960  -24.4910 C   0  0  0  0  0  0  0  0  0  0  0  0
   -7.7010    2.2350  -25.0960 C   0  0  0  0  0  0  0  0  0  0  0  0
   -6.5080    2.4770  -24.2990 C   0  0  0  0  0  0  0  0  0  0  0  0
   -5.3690    2.6500  -24.6980 O   0  0  0  0  0  0  0  0  0  0  0  0
   -6.7870    2.4480  -22.9190 N   0  0  0  0  0  0  0  0  0  0  0  0
   -8.0120    2.1350  -22.4110 C   0  0  0  0  0  0  0  0  0  0  0  0
   -9.0480    1.8650  -23.1400 N   0  0  0  0  0  0  0  0  0  0  0  0
   -8.0830    2.0540  -21.3310 H   0  0  0  0  0  0  0  0  0  0  0  0
   -5.9920    2.5710  -22.2980 H   0  0  0  0  0  0  0  0  0  0  0  0
   -7.6430    2.3590  -26.1690 H   0  0  0  0  0  0  0  0  0  0  0  0
  -10.8340    1.7190  -25.3420 H   0  0  0  0  0  0  0  0  0  0  0  0
   -9.6240    0.8240  -26.2580 H   0  0  0  0  0  0  0  0  0  0  0  0
  -11.6730   -0.1640  -24.1000 C   0  0  0  0  0  0  0  0  0  0  0  0
  -12.5300    0.6240  -24.4770 O   0  0  0  0  0  0  0  0  0  0  0  0
  -11.9780   -1.2530  -23.1280 C   0  0  0  0  0  0  0  0  0  0  0  0
  -13.3020   -1.3160  -22.6990 C   0  0  0  0  0  0  0  0  0  0  0  0
  -13.7010   -2.2350  -21.7540 C   0  0  0  0  0  0  0  0  0  0  0  0
  -12.7240   -3.0830  -21.2440 C   0  0  0  0  0  0  0  0  0  0  0  0
  -13.0700   -3.9360  -20.2680 F   0  0  0  0  0  0  0  0  0  0  0  0
  -11.4060   -3.0660  -21.6670 C   0  0  0  0  0  0  0  0  0  0  0  0
  -10.9980   -2.1230  -22.6200 C   0  0  0  0  0  0  0  0  0  0  0  0
  -10.6940   -3.7430  -21.2000 H   0  0  0  0  0  0  0  0  0  0  0  0
  -14.7230   -2.3120  -21.3930 H   0  0  0  0  0  0  0  0  0  0  0  0
  -14.0060   -0.6170  -23.1330 H   0  0  0  0  0  0  0  0  0  0  0  0
   -9.5200   -1.8970  -25.1180 H   0  0  0  0  0  0  0  0  0  0  0  0
   -8.4240   -0.7070  -24.3910 H   0  0  0  0  0  0  0  0  0  0  0  0
   -6.4590   -3.1230  -22.1180 H   0  0  0  0  0  0  0  0  0  0  0  0
   -6.7530   -2.0550  -23.5070 H   0  0  0  0  0  0  0  0  0  0  0  0
   -8.8200   -3.6430  -21.9420 H   0  0  0  0  0  0  0  0  0  0  0  0
   -9.3420   -4.7020  -24.1500 H   0  0  0  0  0  0  0  0  0  0  0  0
   -8.1170   -3.6760  -24.9230 H   0  0  0  0  0  0  0  0  0  0  0  0
   -7.6360   -4.8570  -23.7150 H   0  0  0  0  0  0  0  0  0  0  0  0
  1  2  1  0  0  0  0
  1 56  1  0  0  0  0
  1 57  1  0  0  0  0
  1 58  1  0  0  0  0
  2  3  1  0  0  0  0
  2 23  1  0  0  0  0
  2 55  1  1  0  0  0
  3  4  1  0  0  0  0
  3 53  1  0  0  0  0
  3 54  1  0  0  0  0
  4  5  1  0  0  0  0
  4 21  1  0  0  0  0
  5  6  2  0  0  0  0
  5 14  1  0  0  0  0
  6  7  1  0  0  0  0
  6 20  1  0  0  0  0
  7  8  2  0  0  0  0
  8  9  1  0  0  0  0
  8 19  1  0  0  0  0
  9 10  2  0  0  0  0
  9 14  1  0  0  0  0
 10 11  1  0  0  0  0
 10 18  1  0  0  0  0
 11 12  2  0  0  0  0
 11 17  1  0  0  0  0
 12 13  1  0  0  0  0
 12 16  1  0  0  0  0
 13 14  2  0  0  0  0
 13 15  1  0  0  0  0
 21 22  2  0  0  0  0
 23 21  1  1  0  0  0
 23 24  1  0  0  0  0
 23 47  1  0  0  0  0
 24 25  1  0  0  0  0
 24 51  1  0  0  0  0
 24 52  1  0  0  0  0
 25 26  1  0  0  0  0
 25 39  1  0  0  0  0
 26 27  1  0  0  0  0
 26 37  1  0  0  0  0
 26 38  1  0  0  0  0
 27 28  2  0  0  0  0
 27 33  1  0  0  0  0
 28 29  1  0  0  0  0
 28 36  1  0  0  0  0
 29 30  2  0  0  0  0
 29 31  1  0  0  0  0
 31 32  1  0  0  0  0
 31 35  1  0  0  0  0
 32 33  2  0  0  0  0
 32 34  1  0  0  0  0
 39 40  2  0  0  0  0
 39 41  1  0  0  0  0
 41 42  2  0  0  0  0
 41 47  1  0  0  0  0
 42 43  1  0  0  0  0
 42 50  1  0  0  0  0
 43 44  2  0  0  0  0
 43 49  1  0  0  0  0
 44 45  1  0  0  0  0
 44 46  1  0  0  0  0
 46 47  2  0  0  0  0
 46 48  1  0  0  0  0
M  END
>  <MODEL>
       1

$$$$
