output/tmp_first_model_20_50.pdb
 OpenBabel07242623363D

 66 70  0  0  1  0  0  0  0  0999 V2000
   -7.8020    3.1870  -22.4790 C   0  0  0  0  0  0  0  0  0  0  0  0
   -8.6640    2.6520  -23.5140 N   0  0  0  0  0  0  0  0  0  0  0  0
   -8.1070    1.9660  -24.5430 C   0  0  0  0  0  0  0  0  0  0  0  0
   -6.8990    1.8950  -24.7320 O   0  0  0  0  0  0  0  0  0  0  0  0
   -9.1170    1.2020  -25.4070 C   0  0  0  0  0  0  0  0  0  0  0  0
   -9.7340    0.1480  -24.6150 N   0  0  0  0  0  0  0  0  0  0  0  0
   -8.8720   -0.9640  -24.2540 C   0  0  0  0  0  0  0  0  0  0  0  0
   -9.2080   -1.6170  -22.8790 C   0  0  2  0  0  0  0  0  0  0  0  0
   -8.6440   -0.7370  -21.7280 C   0  0  0  0  0  0  0  0  0  0  0  0
   -9.1420    0.2820  -21.2940 O   0  0  0  0  0  0  0  0  0  0  0  0
   -7.4720   -1.3040  -21.2700 N   0  0  0  0  0  0  0  0  0  0  0  0
   -6.6850   -0.7370  -20.2290 C   0  0  0  0  0  0  0  0  0  0  0  0
   -6.9920   -0.9810  -18.9150 C   0  0  0  0  0  0  0  0  0  0  0  0
   -6.2640   -0.5400  -17.8600 N   0  0  0  0  0  0  0  0  0  0  0  0
   -5.1930    0.1690  -18.1110 C   0  0  0  0  0  0  0  0  0  0  0  0
   -4.7580    0.5100  -19.4230 C   0  0  0  0  0  0  0  0  0  0  0  0
   -3.5960    1.2950  -19.6540 C   0  0  0  0  0  0  0  0  0  0  0  0
   -3.2170    1.6080  -20.9300 C   0  0  0  0  0  0  0  0  0  0  0  0
   -3.9840    1.1690  -22.0310 C   0  0  0  0  0  0  0  0  0  0  0  0
   -5.1210    0.4210  -21.8320 C   0  0  0  0  0  0  0  0  0  0  0  0
   -5.5270    0.0530  -20.5210 C   0  0  0  0  0  0  0  0  0  0  0  0
   -5.7360    0.1430  -22.6840 H   0  0  0  0  0  0  0  0  0  0  0  0
   -3.6830    1.4310  -23.0410 H   0  0  0  0  0  0  0  0  0  0  0  0
   -2.3330    2.2150  -21.1070 H   0  0  0  0  0  0  0  0  0  0  0  0
   -3.0240    1.6450  -18.7990 H   0  0  0  0  0  0  0  0  0  0  0  0
   -4.6140    0.5210  -17.2560 H   0  0  0  0  0  0  0  0  0  0  0  0
   -7.8670   -1.5800  -18.6750 H   0  0  0  0  0  0  0  0  0  0  0  0
   -7.0780   -2.5040  -21.9840 C   0  0  0  0  0  0  0  0  0  0  0  0
   -8.3830   -2.9210  -22.6910 C   0  0  2  0  0  0  0  0  0  0  0  0
   -8.1410   -3.7100  -23.9670 C   0  0  0  0  0  0  0  0  0  0  0  0
   -7.4980   -4.9220  -23.6600 O   0  0  0  0  0  0  0  0  0  0  0  0
   -7.3240   -5.7480  -24.8040 C   0  0  0  0  0  0  0  0  0  0  0  0
   -8.4710   -6.7470  -24.8810 C   0  0  0  0  0  0  0  0  0  0  0  0
   -8.4770   -7.3560  -23.9720 H   0  0  0  0  0  0  0  0  0  0  0  0
   -8.3600   -7.4040  -25.7500 H   0  0  0  0  0  0  0  0  0  0  0  0
   -9.4400   -6.2390  -24.9550 H   0  0  0  0  0  0  0  0  0  0  0  0
   -5.9700   -6.4250  -24.6770 C   0  0  0  0  0  0  0  0  0  0  0  0
   -5.9570   -7.0400  -23.7710 H   0  0  0  0  0  0  0  0  0  0  0  0
   -5.7740   -7.0650  -25.5470 H   0  0  0  0  0  0  0  0  0  0  0  0
   -5.1730   -5.6770  -24.6050 H   0  0  0  0  0  0  0  0  0  0  0  0
   -7.3280   -5.1130  -25.7060 H   0  0  0  0  0  0  0  0  0  0  0  0
   -9.1000   -3.8890  -24.4840 H   0  0  0  0  0  0  0  0  0  0  0  0
   -7.4930   -3.1370  -24.6520 H   0  0  0  0  0  0  0  0  0  0  0  0
   -8.9210   -3.5780  -22.0050 H   0  0  0  0  0  0  0  0  0  0  0  0
   -6.7240   -3.2690  -21.2840 H   0  0  0  0  0  0  0  0  0  0  0  0
   -6.2590   -2.3100  -22.6970 H   0  0  0  0  0  0  0  0  0  0  0  0
  -10.7190   -1.7560  -22.7480 C   0  0  0  0  0  0  0  0  0  0  0  0
  -11.3180   -2.7210  -21.9240 C   0  0  0  0  0  0  0  0  0  0  0  0
  -12.6860   -2.7140  -21.7330 C   0  0  0  0  0  0  0  0  0  0  0  0
  -13.2360   -3.6510  -20.9420 F   0  0  0  0  0  0  0  0  0  0  0  0
  -13.5220   -1.7700  -22.3150 C   0  0  0  0  0  0  0  0  0  0  0  0
  -12.9410   -0.8100  -23.1150 C   0  0  0  0  0  0  0  0  0  0  0  0
  -11.5640   -0.8030  -23.3390 C   0  0  0  0  0  0  0  0  0  0  0  0
  -11.0200    0.3010  -24.1880 C   0  0  0  0  0  0  0  0  0  0  0  0
  -11.6900    1.2870  -24.4720 O   0  0  0  0  0  0  0  0  0  0  0  0
  -13.5380   -0.0330  -23.5770 H   0  0  0  0  0  0  0  0  0  0  0  0
  -14.5890   -1.7980  -22.1210 H   0  0  0  0  0  0  0  0  0  0  0  0
  -10.7540   -3.4800  -21.3930 H   0  0  0  0  0  0  0  0  0  0  0  0
   -8.9070   -1.7140  -25.0540 H   0  0  0  0  0  0  0  0  0  0  0  0
   -7.8490   -0.5740  -24.2130 H   0  0  0  0  0  0  0  0  0  0  0  0
   -8.5870    0.7820  -26.2660 H   0  0  0  0  0  0  0  0  0  0  0  0
   -9.9220    1.8450  -25.7710 H   0  0  0  0  0  0  0  0  0  0  0  0
   -9.6150    2.4080  -23.2750 H   0  0  0  0  0  0  0  0  0  0  0  0
   -8.3060    3.9870  -21.9280 H   0  0  0  0  0  0  0  0  0  0  0  0
   -7.4780    2.3960  -21.7810 H   0  0  0  0  0  0  0  0  0  0  0  0
   -6.9200    3.5990  -22.9780 H   0  0  0  0  0  0  0  0  0  0  0  0
  1  2  1  0  0  0  0
  1 64  1  0  0  0  0
  1 65  1  0  0  0  0
  1 66  1  0  0  0  0
  2  3  1  0  0  0  0
  2 63  1  0  0  0  0
  3  4  2  0  0  0  0
  3  5  1  0  0  0  0
  5  6  1  0  0  0  0
  5 61  1  0  0  0  0
  5 62  1  0  0  0  0
  6  7  1  0  0  0  0
  6 54  1  0  0  0  0
  7  8  1  0  0  0  0
  7 59  1  0  0  0  0
  7 60  1  0  0  0  0
  8  9  1  1  0  0  0
  8 29  1  0  0  0  0
  8 47  1  0  0  0  0
  9 10  2  0  0  0  0
  9 11  1  0  0  0  0
 11 12  1  0  0  0  0
 11 28  1  0  0  0  0
 12 13  2  0  0  0  0
 12 21  1  0  0  0  0
 13 14  1  0  0  0  0
 13 27  1  0  0  0  0
 14 15  2  0  0  0  0
 15 16  1  0  0  0  0
 15 26  1  0  0  0  0
 16 17  2  0  0  0  0
 16 21  1  0  0  0  0
 17 18  1  0  0  0  0
 17 25  1  0  0  0  0
 18 19  2  0  0  0  0
 18 24  1  0  0  0  0
 19 20  1  0  0  0  0
 19 23  1  0  0  0  0
 20 21  2  0  0  0  0
 20 22  1  0  0  0  0
 28 29  1  0  0  0  0
 28 45  1  0  0  0  0
 28 46  1  0  0  0  0
 29 30  1  0  0  0  0
 29 44  1  1  0  0  0
 30 31  1  0  0  0  0
 30 42  1  0  0  0  0
 30 43  1  0  0  0  0
 31 32  1  0  0  0  0
 32 33  1  0  0  0  0
 32 37  1  0  0  0  0
 32 41  1  0  0  0  0
 33 34  1  0  0  0  0
 33 35  1  0  0  0  0
 33 36  1  0  0  0  0
 37 38  1  0  0  0  0
 37 39  1  0  0  0  0
 37 40  1  0  0  0  0
 47 48  2  0  0  0  0
 47 53  1  0  0  0  0
 48 49  1  0  0  0  0
 48 58  1  0  0  0  0
 49 50  1  0  0  0  0
 49 51  2  0  0  0  0
 51 52  1  0  0  0  0
 51 57  1  0  0  0  0
 52 53  2  0  0  0  0
 52 56  1  0  0  0  0
 53 54  1  0  0  0  0
 54 55  2  0  0  0  0
M  END
>  <MODEL>
       1

$$$$
