output/tmp_first_model_13_90.pdb
 OpenBabel07242619583D

 64 68  0  0  1  0  0  0  0  0999 V2000
   -7.3560   -4.1670  -27.2910 C   0  0  0  0  0  0  0  0  0  0  0  0
   -8.2920   -3.1450  -26.8640 N   0  0  0  0  0  0  0  0  0  0  0  0
   -9.3640   -3.4310  -26.0800 C   0  0  0  0  0  0  0  0  0  0  0  0
   -9.6430   -4.5630  -25.7110 O   0  0  0  0  0  0  0  0  0  0  0  0
  -10.1870   -2.2240  -25.6150 C   0  0  0  0  0  0  0  0  0  0  0  0
  -10.3370   -2.2720  -24.1820 N   0  0  0  0  0  0  0  0  0  0  0  0
   -9.3870   -1.5000  -23.3880 C   0  0  0  0  0  0  0  0  0  0  0  0
   -8.9020   -2.1800  -22.0950 C   0  0  2  0  0  0  0  0  0  0  0  0
   -8.2750   -1.1020  -21.2120 C   0  0  0  0  0  0  0  0  0  0  0  0
   -8.8840   -0.1890  -20.6870 O   0  0  0  0  0  0  0  0  0  0  0  0
   -6.9310   -1.3350  -21.0850 N   0  0  0  0  0  0  0  0  0  0  0  0
   -6.1960   -0.6960  -20.0610 C   0  0  0  0  0  0  0  0  0  0  0  0
   -6.5630   -0.8620  -18.7490 C   0  0  0  0  0  0  0  0  0  0  0  0
   -5.8860   -0.3320  -17.7040 N   0  0  0  0  0  0  0  0  0  0  0  0
   -4.8430    0.4130  -17.9700 C   0  0  0  0  0  0  0  0  0  0  0  0
   -4.3790    0.6950  -19.2850 C   0  0  0  0  0  0  0  0  0  0  0  0
   -3.2700    1.5450  -19.5290 C   0  0  0  0  0  0  0  0  0  0  0  0
   -2.8950    1.8410  -20.8100 C   0  0  0  0  0  0  0  0  0  0  0  0
   -3.6020    1.2920  -21.9040 C   0  0  0  0  0  0  0  0  0  0  0  0
   -4.6670    0.4520  -21.6960 C   0  0  0  0  0  0  0  0  0  0  0  0
   -5.0770    0.1340  -20.3750 C   0  0  0  0  0  0  0  0  0  0  0  0
   -5.2190    0.0440  -22.5380 H   0  0  0  0  0  0  0  0  0  0  0  0
   -3.3130    1.5470  -22.9180 H   0  0  0  0  0  0  0  0  0  0  0  0
   -2.0610    2.5120  -20.9960 H   0  0  0  0  0  0  0  0  0  0  0  0
   -2.7480    1.9630  -18.6760 H   0  0  0  0  0  0  0  0  0  0  0  0
   -4.3150    0.8480  -17.1210 H   0  0  0  0  0  0  0  0  0  0  0  0
   -7.4350   -1.4610  -18.4950 H   0  0  0  0  0  0  0  0  0  0  0  0
   -6.4650   -2.4490  -21.8890 C   0  0  0  0  0  0  0  0  0  0  0  0
   -7.7580   -3.2420  -22.2040 C   0  0  2  0  0  0  0  0  0  0  0  0
   -7.6360   -4.0420  -23.5000 C   0  0  0  0  0  0  0  0  0  0  0  0
   -6.4780   -5.4210  -23.4610 S   0  0  0  0  0  0  0  0  0  0  0  0
   -6.5240   -6.0650  -24.7640 O   0  0  0  0  0  0  0  0  0  0  0  0
   -5.2150   -4.9820  -22.8900 O   0  0  0  0  0  0  0  0  0  0  0  0
   -7.1280   -6.4900  -22.3810 N   0  0  0  0  0  0  0  0  0  0  0  0
   -8.3920   -7.1180  -22.7430 C   0  0  0  0  0  0  0  0  0  0  0  0
   -8.2530   -7.6710  -23.6740 H   0  0  0  0  0  0  0  0  0  0  0  0
   -9.2080   -6.3970  -22.8890 H   0  0  0  0  0  0  0  0  0  0  0  0
   -8.6670   -7.8170  -21.9500 H   0  0  0  0  0  0  0  0  0  0  0  0
   -7.0050   -6.1830  -21.4230 H   0  0  0  0  0  0  0  0  0  0  0  0
   -7.2810   -3.4240  -24.3310 H   0  0  0  0  0  0  0  0  0  0  0  0
   -8.5940   -4.4650  -23.8050 H   0  0  0  0  0  0  0  0  0  0  0  0
   -7.9380   -3.9520  -21.3870 H   0  0  0  0  0  0  0  0  0  0  0  0
   -5.9910   -2.0990  -22.8180 H   0  0  0  0  0  0  0  0  0  0  0  0
   -5.7230   -3.0420  -21.3510 H   0  0  0  0  0  0  0  0  0  0  0  0
  -10.1660   -2.5920  -21.3400 C   0  0  0  0  0  0  0  0  0  0  0  0
  -10.6450   -3.8380  -21.4400 C   0  0  0  0  0  0  0  0  0  0  0  0
  -13.4350   -4.0640  -20.6320 C   0  0  0  0  0  0  0  0  0  0  0  0
  -13.3020   -4.8670  -19.5730 F   0  0  0  0  0  0  0  0  0  0  0  0
  -13.4560   -3.9890  -20.6760 C   0  0  0  0  0  0  0  0  0  0  0  0
  -12.9270   -3.4560  -21.8050 C   0  0  0  0  0  0  0  0  0  0  0  0
  -11.4880   -3.2200  -22.2510 C   0  0  0  0  0  0  0  0  0  0  0  0
  -11.4790   -2.8980  -23.7040 C   0  0  0  0  0  0  0  0  0  0  0  0
  -12.4260   -3.1550  -24.4250 O   0  0  0  0  0  0  0  0  0  0  0  0
  -13.7240   -3.0410  -22.3090 H   0  0  0  0  0  0  0  0  0  0  0  0
  -14.7360   -4.1620  -20.7610 H   0  0  0  0  0  0  0  0  0  0  0  0
  -10.4740   -1.8220  -20.6130 H   0  0  0  0  0  0  0  0  0  0  0  0
   -9.8320   -0.5390  -23.0890 H   0  0  0  0  0  0  0  0  0  0  0  0
   -8.5240   -1.2860  -24.0280 H   0  0  0  0  0  0  0  0  0  0  0  0
  -11.2060   -2.2560  -26.0010 H   0  0  0  0  0  0  0  0  0  0  0  0
   -9.7230   -1.2830  -25.9140 H   0  0  0  0  0  0  0  0  0  0  0  0
   -8.2160   -2.2130  -27.2390 H   0  0  0  0  0  0  0  0  0  0  0  0
   -6.3290   -3.8760  -27.0510 H   0  0  0  0  0  0  0  0  0  0  0  0
   -7.4250   -4.3660  -28.3660 H   0  0  0  0  0  0  0  0  0  0  0  0
   -7.5900   -5.0820  -26.7450 H   0  0  0  0  0  0  0  0  0  0  0  0
  1  2  1  0  0  0  0
  1 62  1  0  0  0  0
  1 63  1  0  0  0  0
  1 64  1  0  0  0  0
  2  3  1  0  0  0  0
  2 61  1  0  0  0  0
  3  4  2  0  0  0  0
  3  5  1  0  0  0  0
  5  6  1  0  0  0  0
  5 59  1  0  0  0  0
  5 60  1  0  0  0  0
  6  7  1  0  0  0  0
  6 52  1  0  0  0  0
  7  8  1  0  0  0  0
  7 57  1  0  0  0  0
  7 58  1  0  0  0  0
  8  9  1  1  0  0  0
  8 29  1  0  0  0  0
  8 45  1  0  0  0  0
  9 10  2  0  0  0  0
  9 11  1  0  0  0  0
 11 12  1  0  0  0  0
 11 28  1  0  0  0  0
 12 13  2  0  0  0  0
 12 21  1  0  0  0  0
 13 14  1  0  0  0  0
 13 27  1  0  0  0  0
 14 15  2  0  0  0  0
 15 16  1  0  0  0  0
 15 26  1  0  0  0  0
 16 17  2  0  0  0  0
 16 21  1  0  0  0  0
 17 18  1  0  0  0  0
 17 25  1  0  0  0  0
 18 19  2  0  0  0  0
 18 24  1  0  0  0  0
 19 20  1  0  0  0  0
 19 23  1  0  0  0  0
 20 21  2  0  0  0  0
 20 22  1  0  0  0  0
 28 29  1  0  0  0  0
 28 43  1  0  0  0  0
 28 44  1  0  0  0  0
 29 30  1  0  0  0  0
 29 42  1  1  0  0  0
 30 31  1  0  0  0  0
 30 40  1  0  0  0  0
 30 41  1  0  0  0  0
 31 32  2  0  0  0  0
 31 33  2  0  0  0  0
 31 34  1  0  0  0  0
 34 35  1  0  0  0  0
 34 39  1  0  0  0  0
 35 36  1  0  0  0  0
 35 37  1  0  0  0  0
 35 38  1  0  0  0  0
 45 46  2  0  0  0  0
 45 51  1  0  0  0  0
 46 47  1  0  0  0  0
 46 56  1  0  0  0  0
 47 48  1  0  0  0  0
 47 49  2  0  0  0  0
 49 50  1  0  0  0  0
 49 55  1  0  0  0  0
 50 51  2  0  0  0  0
 50 54  1  0  0  0  0
 51 52  1  0  0  0  0
 52 53  2  0  0  0  0
M  END
>  <MODEL>
       1

$$$$
