output/tmp_first_model_4_81.pdb
 OpenBabel07242615033D

 36 38  0  0  0  0  0  0  0  0999 V2000
   -8.5380    0.7480  -21.4320 O   0  0  0  0  0  0  0  0  0  0  0  0
   -8.3940   -0.3660  -21.8990 C   0  0  0  0  0  0  0  0  0  0  0  0
   -7.4560   -1.4250  -21.3010 C   0  0  0  0  0  0  0  0  0  0  0  0
   -6.5020   -0.9890  -20.2250 C   0  0  0  0  0  0  0  0  0  0  0  0
   -6.7620   -1.2610  -18.9110 C   0  0  0  0  0  0  0  0  0  0  0  0
   -5.9270   -0.9920  -17.8760 N   0  0  0  0  0  0  0  0  0  0  0  0
   -4.8160   -0.3570  -18.1510 C   0  0  0  0  0  0  0  0  0  0  0  0
   -4.4370    0.0410  -19.4630 C   0  0  0  0  0  0  0  0  0  0  0  0
   -3.2830    0.8310  -19.7140 C   0  0  0  0  0  0  0  0  0  0  0  0
   -3.0650    1.3570  -20.9590 C   0  0  0  0  0  0  0  0  0  0  0  0
   -3.9180    1.0220  -22.0360 C   0  0  0  0  0  0  0  0  0  0  0  0
   -4.9940    0.1940  -21.8390 C   0  0  0  0  0  0  0  0  0  0  0  0
   -5.3110   -0.2720  -20.5340 C   0  0  0  0  0  0  0  0  0  0  0  0
   -5.6860    0.0020  -22.6550 H   0  0  0  0  0  0  0  0  0  0  0  0
   -3.7370    1.4420  -23.0230 H   0  0  0  0  0  0  0  0  0  0  0  0
   -2.2850    2.0960  -21.1120 H   0  0  0  0  0  0  0  0  0  0  0  0
   -2.6300    1.0730  -18.8780 H   0  0  0  0  0  0  0  0  0  0  0  0
   -4.1820   -0.1020  -17.3010 H   0  0  0  0  0  0  0  0  0  0  0  0
   -7.7210   -1.6970  -18.6310 H   0  0  0  0  0  0  0  0  0  0  0  0
   -6.8760   -1.8800  -22.1130 H   0  0  0  0  0  0  0  0  0  0  0  0
   -8.1070   -2.2060  -20.8960 H   0  0  0  0  0  0  0  0  0  0  0  0
   -9.0560   -0.7650  -23.0510 N   0  0  0  0  0  0  0  0  0  0  0  0
   -9.9870    0.1860  -23.6310 C   0  0  0  0  0  0  0  0  0  0  0  0
  -11.3650    0.1830  -23.0230 C   0  0  0  0  0  0  0  0  0  0  0  0
  -12.0150   -0.8020  -22.3910 C   0  0  0  0  0  0  0  0  0  0  0  0
  -11.5710   -2.1800  -22.1250 C   0  0  0  0  0  0  0  0  0  0  0  0
  -10.4470   -2.7750  -22.5400 C   0  0  0  0  0  0  0  0  0  0  0  0
   -9.3520   -2.1540  -23.3770 C   0  0  0  0  0  0  0  0  0  0  0  0
   -8.4410   -2.7620  -23.3060 H   0  0  0  0  0  0  0  0  0  0  0  0
   -9.6340   -2.1600  -24.4400 H   0  0  0  0  0  0  0  0  0  0  0  0
  -10.3030   -3.8210  -22.2770 H   0  0  0  0  0  0  0  0  0  0  0  0
  -12.2850   -2.7710  -21.5510 H   0  0  0  0  0  0  0  0  0  0  0  0
  -13.0170   -0.5850  -22.0210 H   0  0  0  0  0  0  0  0  0  0  0  0
  -11.8740    1.1410  -23.1110 H   0  0  0  0  0  0  0  0  0  0  0  0
  -10.0450   -0.0250  -24.7120 H   0  0  0  0  0  0  0  0  0  0  0  0
   -9.5510    1.1810  -23.5170 H   0  0  0  0  0  0  0  0  0  0  0  0
  1  2  2  0  0  0  0
  2  3  1  0  0  0  0
  2 22  1  0  0  0  0
  3  4  1  0  0  0  0
  3 20  1  0  0  0  0
  3 21  1  0  0  0  0
  4  5  2  0  0  0  0
  4 13  1  0  0  0  0
  5  6  1  0  0  0  0
  5 19  1  0  0  0  0
  6  7  2  0  0  0  0
  7  8  1  0  0  0  0
  7 18  1  0  0  0  0
  8  9  2  0  0  0  0
  8 13  1  0  0  0  0
  9 10  1  0  0  0  0
  9 17  1  0  0  0  0
 10 11  2  0  0  0  0
 10 16  1  0  0  0  0
 11 12  1  0  0  0  0
 11 15  1  0  0  0  0
 12 13  2  0  0  0  0
 12 14  1  0  0  0  0
 22 23  1  0  0  0  0
 22 28  1  0  0  0  0
 23 24  1  0  0  0  0
 23 35  1  0  0  0  0
 23 36  1  0  0  0  0
 24 25  2  0  0  0  0
 24 34  1  0  0  0  0
 25 26  1  0  0  0  0
 25 33  1  0  0  0  0
 26 27  2  0  0  0  0
 26 32  1  0  0  0  0
 27 28  1  0  0  0  0
 27 31  1  0  0  0  0
 28 29  1  0  0  0  0
 28 30  1  0  0  0  0
M  END
>  <MODEL>
       1

$$$$
