output/tmp_first_model_17_14.pdb
 OpenBabel07242622053D

 73 78  0  0  1  0  0  0  0  0999 V2000
   -8.3670   -3.9950  -23.5730 C   0  0  0  0  0  0  0  0  0  0  0  0
   -8.5590   -2.8950  -22.5300 C   0  0  1  0  0  0  0  0  0  0  0  0
   -7.3940   -2.7760  -21.5390 C   0  0  0  0  0  0  0  0  0  0  0  0
   -7.4110   -1.3810  -21.1540 N   0  0  0  0  0  0  0  0  0  0  0  0
   -6.5910   -0.8290  -20.1570 C   0  0  0  0  0  0  0  0  0  0  0  0
   -6.8880   -1.0760  -18.8440 C   0  0  0  0  0  0  0  0  0  0  0  0
   -6.1960   -0.5630  -17.8050 N   0  0  0  0  0  0  0  0  0  0  0  0
   -5.1760    0.2100  -18.0870 C   0  0  0  0  0  0  0  0  0  0  0  0
   -4.7580    0.5320  -19.4090 C   0  0  0  0  0  0  0  0  0  0  0  0
   -3.6330    1.3610  -19.6510 C   0  0  0  0  0  0  0  0  0  0  0  0
   -3.2370    1.6470  -20.9260 C   0  0  0  0  0  0  0  0  0  0  0  0
   -3.9450    1.1130  -22.0270 C   0  0  0  0  0  0  0  0  0  0  0  0
   -5.0240    0.2910  -21.8230 C   0  0  0  0  0  0  0  0  0  0  0  0
   -5.4760   -0.0050  -20.4980 C   0  0  0  0  0  0  0  0  0  0  0  0
   -5.5330   -0.1320  -22.6840 H   0  0  0  0  0  0  0  0  0  0  0  0
   -3.6220    1.3550  -23.0380 H   0  0  0  0  0  0  0  0  0  0  0  0
   -2.3630    2.2680  -21.0960 H   0  0  0  0  0  0  0  0  0  0  0  0
   -3.1000    1.7580  -18.7930 H   0  0  0  0  0  0  0  0  0  0  0  0
   -4.6110    0.6180  -17.2490 H   0  0  0  0  0  0  0  0  0  0  0  0
   -7.7490   -1.6990  -18.6050 H   0  0  0  0  0  0  0  0  0  0  0  0
   -8.1470   -0.5710  -21.9770 C   0  0  0  0  0  0  0  0  0  0  0  0
   -8.2570    0.6300  -21.8410 O   0  0  0  0  0  0  0  0  0  0  0  0
   -8.7260   -1.4570  -23.0980 C   0  0  1  0  0  0  0  0  0  0  0  0
   -7.8860   -1.2730  -24.3810 C   0  0  0  0  0  0  0  0  0  0  0  0
   -8.0800    0.0520  -24.9210 N   0  0  0  0  0  0  0  0  0  0  0  0
   -7.0000    0.8590  -25.4410 C   0  0  0  0  0  0  0  0  0  0  0  0
   -6.7960    2.1000  -24.5720 C   0  0  0  0  0  0  0  0  0  0  0  0
   -5.5780    2.8820  -24.9720 N   0  3  0  0  0  0  0  0  0  0  0  0
   -5.2120    3.9300  -23.9480 C   0  0  0  0  0  0  0  0  0  0  0  0
   -5.7640    5.2960  -24.3290 C   0  0  0  0  0  0  0  0  0  0  0  0
   -5.1400    5.7840  -25.5820 N   0  0  0  0  0  0  0  0  0  0  0  0
   -3.9140    6.9100  -25.2640 S   0  0  0  0  0  0  0  0  0  0  0  0
   -2.7720    6.2440  -24.6510 O   0  0  0  0  0  0  0  0  0  0  0  0
   -4.5310    8.0360  -24.5870 O   0  0  0  0  0  0  0  0  0  0  0  0
   -3.4030    7.4600  -26.8760 C   0  0  0  0  0  0  0  0  0  0  0  0
   -2.6950    8.2700  -26.6970 H   0  0  0  0  0  0  0  0  0  0  0  0
   -2.8980    6.6540  -27.4100 H   0  0  0  0  0  0  0  0  0  0  0  0
   -4.2600    7.8300  -27.4400 H   0  0  0  0  0  0  0  0  0  0  0  0
   -4.7500    4.6980  -26.5090 C   0  0  0  0  0  0  0  0  0  0  0  0
   -5.6730    3.4950  -26.3560 C   0  0  0  0  0  0  0  0  0  0  0  0
   -5.4080    2.7440  -27.1010 H   0  0  0  0  0  0  0  0  0  0  0  0
   -6.7070    3.8020  -26.5390 H   0  0  0  0  0  0  0  0  0  0  0  0
   -3.7080    4.3810  -26.3500 H   0  0  0  0  0  0  0  0  0  0  0  0
   -4.8450    5.0750  -27.5330 H   0  0  0  0  0  0  0  0  0  0  0  0
   -6.8490    5.2570  -24.4800 H   0  0  0  0  0  0  0  0  0  0  0  0
   -5.5770    6.0280  -23.5410 H   0  0  0  0  0  0  0  0  0  0  0  0
   -5.5920    3.6180  -22.9750 H   0  0  0  0  0  0  0  0  0  0  0  0
   -4.1230    3.9790  -23.8790 H   0  0  0  0  0  0  0  0  0  0  0  0
   -4.7970    2.2000  -24.9920 H   0  0  0  0  0  0  0  0  0  0  0  0
   -7.6800    2.7430  -24.6430 H   0  0  0  0  0  0  0  0  0  0  0  0
   -6.6870    1.8200  -23.5180 H   0  0  0  0  0  0  0  0  0  0  0  0
   -6.0840    0.2590  -25.4830 H   0  0  0  0  0  0  0  0  0  0  0  0
   -7.2780    1.1570  -26.4570 H   0  0  0  0  0  0  0  0  0  0  0  0
   -9.3420    0.4420  -25.2600 C   0  0  0  0  0  0  0  0  0  0  0  0
   -9.5520    1.2060  -26.1890 O   0  0  0  0  0  0  0  0  0  0  0  0
  -10.4340   -0.1130  -24.4050 C   0  0  0  0  0  0  0  0  0  0  0  0
  -11.7400    0.3130  -24.6350 C   0  0  0  0  0  0  0  0  0  0  0  0
  -12.7780   -0.1920  -23.8770 C   0  0  0  0  0  0  0  0  0  0  0  0
  -12.4760   -1.1120  -22.8750 C   0  0  0  0  0  0  0  0  0  0  0  0
  -13.7550   -1.7740  -21.9220 Cl  0  0  0  0  0  0  0  0  0  0  0  0
  -11.1870   -1.5070  -22.5980 C   0  0  0  0  0  0  0  0  0  0  0  0
  -10.1430   -1.0390  -23.3950 C   0  0  0  0  0  0  0  0  0  0  0  0
  -10.9960   -2.1590  -21.7490 H   0  0  0  0  0  0  0  0  0  0  0  0
  -13.8090    0.1170  -24.0160 H   0  0  0  0  0  0  0  0  0  0  0  0
  -11.9250    1.0440  -25.4110 H   0  0  0  0  0  0  0  0  0  0  0  0
   -8.2290   -2.0230  -25.1130 H   0  0  0  0  0  0  0  0  0  0  0  0
   -6.8220   -1.4390  -24.1590 H   0  0  0  0  0  0  0  0  0  0  0  0
   -6.4440   -3.0480  -22.0220 H   0  0  0  0  0  0  0  0  0  0  0  0
   -7.5250   -3.4140  -20.6630 H   0  0  0  0  0  0  0  0  0  0  0  0
   -9.4580   -3.1280  -21.9550 H   0  0  0  0  0  0  0  0  0  0  0  0
   -9.1910   -4.0150  -24.2970 H   0  0  0  0  0  0  0  0  0  0  0  0
   -8.3140   -4.9770  -23.0960 H   0  0  0  0  0  0  0  0  0  0  0  0
   -7.4310   -3.8450  -24.1240 H   0  0  0  0  0  0  0  0  0  0  0  0
  1  2  1  0  0  0  0
  1 71  1  0  0  0  0
  1 72  1  0  0  0  0
  1 73  1  0  0  0  0
  2  3  1  0  0  0  0
  2 23  1  0  0  0  0
  2 70  1  1  0  0  0
  3  4  1  0  0  0  0
  3 68  1  0  0  0  0
  3 69  1  0  0  0  0
  4  5  1  0  0  0  0
  4 21  1  0  0  0  0
  5  6  2  0  0  0  0
  5 14  1  0  0  0  0
  6  7  1  0  0  0  0
  6 20  1  0  0  0  0
  7  8  2  0  0  0  0
  8  9  1  0  0  0  0
  8 19  1  0  0  0  0
  9 10  2  0  0  0  0
  9 14  1  0  0  0  0
 10 11  1  0  0  0  0
 10 18  1  0  0  0  0
 11 12  2  0  0  0  0
 11 17  1  0  0  0  0
 12 13  1  0  0  0  0
 12 16  1  0  0  0  0
 13 14  2  0  0  0  0
 13 15  1  0  0  0  0
 21 22  2  0  0  0  0
 23 21  1  1  0  0  0
 23 24  1  0  0  0  0
 23 62  1  0  0  0  0
 24 25  1  0  0  0  0
 24 66  1  0  0  0  0
 24 67  1  0  0  0  0
 25 26  1  0  0  0  0
 25 54  1  0  0  0  0
 26 27  1  0  0  0  0
 26 52  1  0  0  0  0
 26 53  1  0  0  0  0
 27 28  1  0  0  0  0
 27 50  1  0  0  0  0
 27 51  1  0  0  0  0
 28 29  1  0  0  0  0
 28 40  1  0  0  0  0
 28 49  1  0  0  0  0
 29 30  1  0  0  0  0
 29 47  1  0  0  0  0
 29 48  1  0  0  0  0
 30 31  1  0  0  0  0
 30 45  1  0  0  0  0
 30 46  1  0  0  0  0
 31 32  1  0  0  0  0
 31 39  1  0  0  0  0
 32 33  2  0  0  0  0
 32 34  2  0  0  0  0
 32 35  1  0  0  0  0
 35 36  1  0  0  0  0
 35 37  1  0  0  0  0
 35 38  1  0  0  0  0
 39 40  1  0  0  0  0
 39 43  1  0  0  0  0
 39 44  1  0  0  0  0
 40 41  1  0  0  0  0
 40 42  1  0  0  0  0
 54 55  2  0  0  0  0
 54 56  1  0  0  0  0
 56 57  2  0  0  0  0
 56 62  1  0  0  0  0
 57 58  1  0  0  0  0
 57 65  1  0  0  0  0
 58 59  2  0  0  0  0
 58 64  1  0  0  0  0
 59 60  1  0  0  0  0
 59 61  1  0  0  0  0
 61 62  2  0  0  0  0
 61 63  1  0  0  0  0
M  CHG  1  28   1
M  END
>  <MODEL>
       1

$$$$
