output/tmp_first_model_5_83.pdb
 OpenBabel07242615323D

 46 50  0  0  1  0  0  0  0  0999 V2000
   -6.8090   -0.3910  -26.5180 N   0  0  0  0  0  0  0  0  0  0  0  0
   -8.0790    0.6310  -26.1310 S   0  0  0  0  0  0  0  0  0  0  0  0
   -7.5140    1.6410  -25.2450 O   0  0  0  0  0  0  0  0  0  0  0  0
   -8.7990    1.0090  -27.3380 O   0  0  0  0  0  0  0  0  0  0  0  0
   -9.1300   -0.4600  -25.2290 C   0  0  0  0  0  0  0  0  0  0  0  0
  -10.5030   -0.2730  -25.3190 C   0  0  0  0  0  0  0  0  0  0  0  0
  -11.3660   -1.1100  -24.6310 C   0  0  0  0  0  0  0  0  0  0  0  0
  -10.8250   -2.1060  -23.8140 C   0  0  0  0  0  0  0  0  0  0  0  0
   -9.4400   -2.1870  -23.6140 C   0  0  0  0  0  0  0  0  0  0  0  0
   -8.5890   -1.4300  -24.4030 C   0  0  0  0  0  0  0  0  0  0  0  0
   -7.5150   -1.5590  -24.3160 H   0  0  0  0  0  0  0  0  0  0  0  0
   -8.8530   -2.8700  -22.4070 C   0  0  1  0  0  0  0  0  0  0  0  0
   -9.8860   -3.8530  -21.8380 C   0  0  0  0  0  0  0  0  0  0  0  0
  -11.2740   -3.2400  -21.8540 C   0  0  0  0  0  0  0  0  0  0  0  0
  -11.6800   -2.9720  -23.1960 O   0  0  0  0  0  0  0  0  0  0  0  0
  -11.9980   -3.9370  -21.4150 H   0  0  0  0  0  0  0  0  0  0  0  0
  -11.2560   -2.2950  -21.2900 H   0  0  0  0  0  0  0  0  0  0  0  0
   -9.8630   -4.7650  -22.4500 H   0  0  0  0  0  0  0  0  0  0  0  0
   -9.6030   -4.1050  -20.8220 H   0  0  0  0  0  0  0  0  0  0  0  0
   -7.5700   -3.5110  -22.6470 N   0  0  0  0  0  0  0  0  0  0  0  0
   -6.5330   -3.0110  -21.9110 C   0  0  0  0  0  0  0  0  0  0  0  0
   -5.3640   -3.3220  -21.9260 O   0  0  0  0  0  0  0  0  0  0  0  0
   -7.0890   -2.0040  -21.1060 N   0  0  0  0  0  0  0  0  0  0  0  0
   -6.3190   -1.3840  -20.0920 C   0  0  0  0  0  0  0  0  0  0  0  0
   -6.4410   -1.7940  -18.7880 C   0  0  0  0  0  0  0  0  0  0  0  0
   -5.5430   -1.5070  -17.8170 N   0  0  0  0  0  0  0  0  0  0  0  0
   -4.5050   -0.7810  -18.1660 C   0  0  0  0  0  0  0  0  0  0  0  0
   -4.3320   -0.1940  -19.4490 C   0  0  0  0  0  0  0  0  0  0  0  0
   -3.2640    0.6970  -19.7260 C   0  0  0  0  0  0  0  0  0  0  0  0
   -3.2720    1.4500  -20.8670 C   0  0  0  0  0  0  0  0  0  0  0  0
   -4.2880    1.2640  -21.8340 C   0  0  0  0  0  0  0  0  0  0  0  0
   -5.2850    0.3460  -21.6190 C   0  0  0  0  0  0  0  0  0  0  0  0
   -5.3190   -0.4220  -20.4260 C   0  0  0  0  0  0  0  0  0  0  0  0
   -6.0990    0.2290  -22.3250 H   0  0  0  0  0  0  0  0  0  0  0  0
   -4.2680    1.8430  -22.7510 H   0  0  0  0  0  0  0  0  0  0  0  0
   -2.5080    2.2030  -21.0290 H   0  0  0  0  0  0  0  0  0  0  0  0
   -2.5380    0.8830  -18.9410 H   0  0  0  0  0  0  0  0  0  0  0  0
   -3.7520   -0.5980  -17.4000 H   0  0  0  0  0  0  0  0  0  0  0  0
   -7.2900   -2.4040  -18.4820 H   0  0  0  0  0  0  0  0  0  0  0  0
   -8.4330   -1.7890  -21.3810 C   0  0  0  0  0  0  0  0  0  0  0  0
   -9.1060   -0.8960  -20.9340 O   0  0  0  0  0  0  0  0  0  0  0  0
   -7.3650   -4.0510  -23.4730 H   0  0  0  0  0  0  0  0  0  0  0  0
  -12.4460   -1.0110  -24.6800 H   0  0  0  0  0  0  0  0  0  0  0  0
  -10.8450    0.5560  -25.9220 H   0  0  0  0  0  0  0  0  0  0  0  0
   -6.9010   -0.7170  -27.4760 H   0  0  0  0  0  0  0  0  0  0  0  0
   -5.9380    0.1240  -26.3880 H   0  0  0  0  0  0  0  0  0  0  0  0
  1  2  1  0  0  0  0
  1 45  1  0  0  0  0
  1 46  1  0  0  0  0
  2  3  2  0  0  0  0
  2  4  2  0  0  0  0
  2  5  1  0  0  0  0
  5  6  2  0  0  0  0
  5 10  1  0  0  0  0
  6  7  1  0  0  0  0
  6 44  1  0  0  0  0
  7  8  2  0  0  0  0
  7 43  1  0  0  0  0
  8  9  1  0  0  0  0
  8 15  1  0  0  0  0
  9 10  2  0  0  0  0
 10 11  1  0  0  0  0
 12  9  1  6  0  0  0
 12 13  1  0  0  0  0
 12 20  1  0  0  0  0
 12 40  1  0  0  0  0
 13 14  1  0  0  0  0
 13 18  1  0  0  0  0
 13 19  1  0  0  0  0
 14 15  1  0  0  0  0
 14 16  1  0  0  0  0
 14 17  1  0  0  0  0
 20 21  1  0  0  0  0
 20 42  1  0  0  0  0
 21 22  2  0  0  0  0
 21 23  1  0  0  0  0
 23 24  1  0  0  0  0
 23 40  1  0  0  0  0
 24 25  2  0  0  0  0
 24 33  1  0  0  0  0
 25 26  1  0  0  0  0
 25 39  1  0  0  0  0
 26 27  2  0  0  0  0
 27 28  1  0  0  0  0
 27 38  1  0  0  0  0
 28 29  2  0  0  0  0
 28 33  1  0  0  0  0
 29 30  1  0  0  0  0
 29 37  1  0  0  0  0
 30 31  2  0  0  0  0
 30 36  1  0  0  0  0
 31 32  1  0  0  0  0
 31 35  1  0  0  0  0
 32 33  2  0  0  0  0
 32 34  1  0  0  0  0
 40 41  2  0  0  0  0
M  END
>  <MODEL>
       1

$$$$
