output/tmp_first_model_12_4.pdb
 OpenBabel07242619253D

 59 64  0  0  1  0  0  0  0  0999 V2000
  -10.0960   -2.6510  -22.3190 C   0  0  0  0  0  0  0  0  0  0  0  0
   -8.9590   -1.7930  -22.8900 C   0  0  1  0  0  0  0  0  0  0  0  0
   -8.5750   -0.7000  -21.8670 C   0  0  0  0  0  0  0  0  0  0  0  0
   -7.4350   -1.2800  -21.1830 N   0  0  0  0  0  0  0  0  0  0  0  0
   -6.7150   -0.6810  -20.1200 C   0  0  0  0  0  0  0  0  0  0  0  0
   -6.9400   -1.0670  -18.8270 C   0  0  0  0  0  0  0  0  0  0  0  0
   -6.2250   -0.6150  -17.7660 N   0  0  0  0  0  0  0  0  0  0  0  0
   -5.2350    0.2120  -18.0070 C   0  0  0  0  0  0  0  0  0  0  0  0
   -4.8820    0.6690  -19.3100 C   0  0  0  0  0  0  0  0  0  0  0  0
   -3.7980    1.5570  -19.5350 C   0  0  0  0  0  0  0  0  0  0  0  0
   -3.5360    2.0220  -20.7940 C   0  0  0  0  0  0  0  0  0  0  0  0
   -4.3350    1.6220  -21.8900 C   0  0  0  0  0  0  0  0  0  0  0  0
   -5.3680    0.7360  -21.7050 C   0  0  0  0  0  0  0  0  0  0  0  0
   -5.6630    0.2390  -20.4020 C   0  0  0  0  0  0  0  0  0  0  0  0
   -5.9620    0.4120  -22.5560 H   0  0  0  0  0  0  0  0  0  0  0  0
   -4.1270    2.0100  -22.8810 H   0  0  0  0  0  0  0  0  0  0  0  0
   -2.7050    2.6980  -20.9640 H   0  0  0  0  0  0  0  0  0  0  0  0
   -3.1930    1.8630  -18.6860 H   0  0  0  0  0  0  0  0  0  0  0  0
   -4.6560    0.5590  -17.1500 H   0  0  0  0  0  0  0  0  0  0  0  0
   -7.7250   -1.7890  -18.6070 H   0  0  0  0  0  0  0  0  0  0  0  0
   -6.8090   -2.2760  -21.8980 C   0  0  0  0  0  0  0  0  0  0  0  0
   -5.8090   -2.8530  -21.5200 O   0  0  0  0  0  0  0  0  0  0  0  0
   -7.6090   -2.5450  -23.1870 C   0  0  1  0  0  0  0  0  0  0  0  0
   -7.7480   -4.0750  -23.3490 C   0  0  0  0  0  0  0  0  0  0  0  0
   -6.5110   -4.6990  -23.8280 N   0  0  0  0  0  0  0  0  0  0  0  0
   -6.0240   -5.8850  -23.1300 C   0  0  0  0  0  0  0  0  0  0  0  0
   -7.0980   -6.9240  -23.0880 C   0  0  0  0  0  0  0  0  0  0  0  0
   -7.6810   -7.3520  -21.9930 N   0  0  0  0  0  0  0  0  0  0  0  0
   -8.7750   -8.0490  -22.4360 C   0  0  0  0  0  0  0  0  0  0  0  0
   -8.8200   -8.0610  -23.7990 C   0  0  0  0  0  0  0  0  0  0  0  0
   -7.7140   -7.3650  -24.2190 N   0  0  0  0  0  0  0  0  0  0  0  0
   -7.2980   -7.1510  -25.5950 C   0  0  0  0  0  0  0  0  0  0  0  0
   -7.6740   -7.9690  -26.2110 H   0  0  0  0  0  0  0  0  0  0  0  0
   -7.6930   -6.2080  -25.9930 H   0  0  0  0  0  0  0  0  0  0  0  0
   -6.2090   -7.1570  -25.6380 H   0  0  0  0  0  0  0  0  0  0  0  0
   -9.5490   -8.4560  -24.4890 H   0  0  0  0  0  0  0  0  0  0  0  0
   -9.5040   -8.4450  -21.7480 H   0  0  0  0  0  0  0  0  0  0  0  0
   -5.1190   -6.2360  -23.6350 H   0  0  0  0  0  0  0  0  0  0  0  0
   -5.7700   -5.6100  -22.1000 H   0  0  0  0  0  0  0  0  0  0  0  0
   -5.8770   -4.2470  -24.9450 C   0  0  0  0  0  0  0  0  0  0  0  0
   -5.0800   -4.9150  -25.5970 O   0  0  0  0  0  0  0  0  0  0  0  0
   -6.1930   -2.8340  -25.3130 C   0  0  0  0  0  0  0  0  0  0  0  0
   -5.6830   -2.3690  -26.5270 C   0  0  0  0  0  0  0  0  0  0  0  0
   -5.8150   -1.0450  -26.8920 C   0  0  0  0  0  0  0  0  0  0  0  0
   -6.4790   -0.2040  -26.0080 C   0  0  0  0  0  0  0  0  0  0  0  0
   -6.5910    1.0970  -26.3330 F   0  0  0  0  0  0  0  0  0  0  0  0
   -7.0450   -0.6550  -24.8260 C   0  0  0  0  0  0  0  0  0  0  0  0
   -6.9270   -2.0030  -24.4530 C   0  0  0  0  0  0  0  0  0  0  0  0
   -7.6130    0.0600  -24.2420 H   0  0  0  0  0  0  0  0  0  0  0  0
   -5.4160   -0.6630  -27.8260 H   0  0  0  0  0  0  0  0  0  0  0  0
   -5.1740   -3.0790  -27.1710 H   0  0  0  0  0  0  0  0  0  0  0  0
   -7.9980   -4.5300  -22.3900 H   0  0  0  0  0  0  0  0  0  0  0  0
   -8.5740   -4.2720  -24.0430 H   0  0  0  0  0  0  0  0  0  0  0  0
   -9.3790   -0.4870  -21.1570 H   0  0  0  0  0  0  0  0  0  0  0  0
   -8.3240    0.2490  -22.3630 H   0  0  0  0  0  0  0  0  0  0  0  0
   -9.3240   -1.3540  -23.8270 H   0  0  0  0  0  0  0  0  0  0  0  0
  -10.9500   -2.0030  -22.0900 H   0  0  0  0  0  0  0  0  0  0  0  0
   -9.8030   -3.1570  -21.3910 H   0  0  0  0  0  0  0  0  0  0  0  0
  -10.4380   -3.4020  -23.0370 H   0  0  0  0  0  0  0  0  0  0  0  0
  1  2  1  0  0  0  0
  1 57  1  0  0  0  0
  1 58  1  0  0  0  0
  1 59  1  0  0  0  0
  2  3  1  0  0  0  0
  2 23  1  0  0  0  0
  2 56  1  6  0  0  0
  3  4  1  0  0  0  0
  3 54  1  0  0  0  0
  3 55  1  0  0  0  0
  4  5  1  0  0  0  0
  4 21  1  0  0  0  0
  5  6  2  0  0  0  0
  5 14  1  0  0  0  0
  6  7  1  0  0  0  0
  6 20  1  0  0  0  0
  7  8  2  0  0  0  0
  8  9  1  0  0  0  0
  8 19  1  0  0  0  0
  9 10  2  0  0  0  0
  9 14  1  0  0  0  0
 10 11  1  0  0  0  0
 10 18  1  0  0  0  0
 11 12  2  0  0  0  0
 11 17  1  0  0  0  0
 12 13  1  0  0  0  0
 12 16  1  0  0  0  0
 13 14  2  0  0  0  0
 13 15  1  0  0  0  0
 21 22  2  0  0  0  0
 23 21  1  1  0  0  0
 23 24  1  0  0  0  0
 23 48  1  0  0  0  0
 24 25  1  0  0  0  0
 24 52  1  0  0  0  0
 24 53  1  0  0  0  0
 25 26  1  0  0  0  0
 25 40  1  0  0  0  0
 26 27  1  0  0  0  0
 26 38  1  0  0  0  0
 26 39  1  0  0  0  0
 27 28  2  0  0  0  0
 27 31  1  0  0  0  0
 28 29  1  0  0  0  0
 29 30  2  0  0  0  0
 29 37  1  0  0  0  0
 30 31  1  0  0  0  0
 30 36  1  0  0  0  0
 31 32  1  0  0  0  0
 32 33  1  0  0  0  0
 32 34  1  0  0  0  0
 32 35  1  0  0  0  0
 40 41  2  0  0  0  0
 40 42  1  0  0  0  0
 42 43  2  0  0  0  0
 42 48  1  0  0  0  0
 43 44  1  0  0  0  0
 43 51  1  0  0  0  0
 44 45  2  0  0  0  0
 44 50  1  0  0  0  0
 45 46  1  0  0  0  0
 45 47  1  0  0  0  0
 47 48  2  0  0  0  0
 47 49  1  0  0  0  0
M  END
>  <MODEL>
       1

$$$$
