output/tmp_first_model_17_59.pdb
 OpenBabel07242622053D

 60 65  0  0  1  0  0  0  0  0999 V2000
  -14.3460   -0.2740  -23.1020 C   0  0  0  0  0  0  0  0  0  0  0  0
  -13.8980   -1.5490  -22.5750 N   0  0  0  0  0  0  0  0  0  0  0  0
  -13.1260   -2.4030  -23.3100 C   0  0  0  0  0  0  0  0  0  0  0  0
  -12.9150   -2.2340  -24.5060 O   0  0  0  0  0  0  0  0  0  0  0  0
  -12.5310   -3.5790  -22.5060 C   0  0  0  0  0  0  0  0  0  0  0  0
  -11.1310   -3.8480  -22.7900 N   0  0  0  0  0  0  0  0  0  0  0  0
  -10.1150   -3.5150  -21.7920 C   0  0  0  0  0  0  0  0  0  0  0  0
   -8.7950   -3.0510  -22.4440 C   0  0  2  0  0  0  0  0  0  0  0  0
   -7.6690   -2.9300  -21.3770 C   0  0  0  0  0  0  0  0  0  0  0  0
   -7.1210   -3.8470  -20.7980 O   0  0  0  0  0  0  0  0  0  0  0  0
   -7.3020   -1.5970  -21.2450 N   0  0  0  0  0  0  0  0  0  0  0  0
   -6.5220   -1.0780  -20.1830 C   0  0  0  0  0  0  0  0  0  0  0  0
   -6.8370   -1.3100  -18.8650 C   0  0  0  0  0  0  0  0  0  0  0  0
   -6.2220   -0.6990  -17.8230 N   0  0  0  0  0  0  0  0  0  0  0  0
   -5.2550    0.1440  -18.0830 C   0  0  0  0  0  0  0  0  0  0  0  0
   -4.8070    0.4530  -19.3950 C   0  0  0  0  0  0  0  0  0  0  0  0
   -3.7410    1.3620  -19.6230 C   0  0  0  0  0  0  0  0  0  0  0  0
   -3.3610    1.6730  -20.8990 C   0  0  0  0  0  0  0  0  0  0  0  0
   -4.0400    1.0980  -21.9980 C   0  0  0  0  0  0  0  0  0  0  0  0
   -5.0670    0.2090  -21.7990 C   0  0  0  0  0  0  0  0  0  0  0  0
   -5.4700   -0.1510  -20.4850 C   0  0  0  0  0  0  0  0  0  0  0  0
   -5.5870   -0.2260  -22.6460 H   0  0  0  0  0  0  0  0  0  0  0  0
   -3.7470    1.3660  -23.0080 H   0  0  0  0  0  0  0  0  0  0  0  0
   -2.5420    2.3640  -21.0790 H   0  0  0  0  0  0  0  0  0  0  0  0
   -3.2470    1.8070  -18.7640 H   0  0  0  0  0  0  0  0  0  0  0  0
   -4.7720    0.6370  -17.2360 H   0  0  0  0  0  0  0  0  0  0  0  0
   -7.6390   -1.9930  -18.5920 H   0  0  0  0  0  0  0  0  0  0  0  0
   -8.2520   -0.7250  -21.9020 C   0  0  0  0  0  0  0  0  0  0  0  0
   -8.8250   -1.5970  -23.0180 C   0  0  2  0  0  0  0  0  0  0  0  0
  -10.1510   -1.0020  -23.4980 C   0  0  0  0  0  0  0  0  0  0  0  0
   -9.8660    0.3590  -24.0500 C   0  0  0  0  0  0  0  0  0  0  0  0
   -8.9600    0.5620  -25.0020 N   0  0  0  0  0  0  0  0  0  0  0  0
   -8.9030    1.8820  -25.1460 N   0  0  0  0  0  0  0  0  0  0  0  0
   -9.7330    2.4430  -24.3080 N   0  5  0  0  0  0  0  0  0  0  0  0
  -10.3580    1.5040  -23.6000 N   0  0  0  0  0  0  0  0  0  0  0  0
  -10.8480   -0.9030  -22.6600 H   0  0  0  0  0  0  0  0  0  0  0  0
  -10.6100   -1.6240  -24.2690 H   0  0  0  0  0  0  0  0  0  0  0  0
   -8.1340   -1.5870  -23.8750 H   0  0  0  0  0  0  0  0  0  0  0  0
   -7.7980    0.1960  -22.2810 H   0  0  0  0  0  0  0  0  0  0  0  0
   -9.0470   -0.4270  -21.1980 H   0  0  0  0  0  0  0  0  0  0  0  0
   -8.4410   -4.0960  -23.4890 C   0  0  0  0  0  0  0  0  0  0  0  0
   -7.1160   -4.2130  -23.9170 C   0  0  0  0  0  0  0  0  0  0  0  0
   -6.7750   -5.1220  -24.9030 C   0  0  0  0  0  0  0  0  0  0  0  0
   -5.1260   -5.2310  -25.4430 Cl  0  0  0  0  0  0  0  0  0  0  0  0
   -7.7330   -5.9450  -25.4890 C   0  0  0  0  0  0  0  0  0  0  0  0
   -9.0420   -5.8390  -25.0650 C   0  0  0  0  0  0  0  0  0  0  0  0
   -9.4010   -4.9180  -24.0860 C   0  0  0  0  0  0  0  0  0  0  0  0
  -10.8520   -4.7630  -23.7740 C   0  0  0  0  0  0  0  0  0  0  0  0
  -11.7180   -5.3690  -24.3870 O   0  0  0  0  0  0  0  0  0  0  0  0
   -9.8310   -6.4560  -25.4760 H   0  0  0  0  0  0  0  0  0  0  0  0
   -7.4620   -6.6420  -26.2740 H   0  0  0  0  0  0  0  0  0  0  0  0
   -6.3420   -3.6050  -23.4670 H   0  0  0  0  0  0  0  0  0  0  0  0
  -10.5290   -2.7310  -21.1540 H   0  0  0  0  0  0  0  0  0  0  0  0
   -9.8960   -4.3970  -21.1750 H   0  0  0  0  0  0  0  0  0  0  0  0
  -12.6430   -3.3830  -21.4340 H   0  0  0  0  0  0  0  0  0  0  0  0
  -13.1010   -4.4800  -22.7640 H   0  0  0  0  0  0  0  0  0  0  0  0
  -14.1040   -1.7810  -21.6130 H   0  0  0  0  0  0  0  0  0  0  0  0
  -13.8320    0.5610  -22.6050 H   0  0  0  0  0  0  0  0  0  0  0  0
  -15.4340   -0.1670  -23.0070 H   0  0  0  0  0  0  0  0  0  0  0  0
  -14.0730   -0.2610  -24.1570 H   0  0  0  0  0  0  0  0  0  0  0  0
  1  2  1  0  0  0  0
  1 58  1  0  0  0  0
  1 59  1  0  0  0  0
  1 60  1  0  0  0  0
  2  3  1  0  0  0  0
  2 57  1  0  0  0  0
  3  4  2  0  0  0  0
  3  5  1  0  0  0  0
  5  6  1  0  0  0  0
  5 55  1  0  0  0  0
  5 56  1  0  0  0  0
  6  7  1  0  0  0  0
  6 48  1  0  0  0  0
  7  8  1  0  0  0  0
  7 53  1  0  0  0  0
  7 54  1  0  0  0  0
  8  9  1  1  0  0  0
  8 29  1  0  0  0  0
  8 41  1  0  0  0  0
  9 10  2  0  0  0  0
  9 11  1  0  0  0  0
 11 12  1  0  0  0  0
 11 28  1  0  0  0  0
 12 13  2  0  0  0  0
 12 21  1  0  0  0  0
 13 14  1  0  0  0  0
 13 27  1  0  0  0  0
 14 15  2  0  0  0  0
 15 16  1  0  0  0  0
 15 26  1  0  0  0  0
 16 17  2  0  0  0  0
 16 21  1  0  0  0  0
 17 18  1  0  0  0  0
 17 25  1  0  0  0  0
 18 19  2  0  0  0  0
 18 24  1  0  0  0  0
 19 20  1  0  0  0  0
 19 23  1  0  0  0  0
 20 21  2  0  0  0  0
 20 22  1  0  0  0  0
 28 29  1  0  0  0  0
 28 39  1  0  0  0  0
 28 40  1  0  0  0  0
 29 30  1  0  0  0  0
 29 38  1  6  0  0  0
 30 31  1  0  0  0  0
 30 36  1  0  0  0  0
 30 37  1  0  0  0  0
 31 32  1  0  0  0  0
 31 35  2  0  0  0  0
 32 33  2  0  0  0  0
 33 34  1  0  0  0  0
 34 35  1  0  0  0  0
 41 42  2  0  0  0  0
 41 47  1  0  0  0  0
 42 43  1  0  0  0  0
 42 52  1  0  0  0  0
 43 44  1  0  0  0  0
 43 45  2  0  0  0  0
 45 46  1  0  0  0  0
 45 51  1  0  0  0  0
 46 47  2  0  0  0  0
 46 50  1  0  0  0  0
 47 48  1  0  0  0  0
 48 49  2  0  0  0  0
M  CHG  1  34  -1
M  END
>  <MODEL>
       1

$$$$
