output/tmp_first_model_15_96.pdb
 OpenBabel07242621043D

 66 70  0  0  1  0  0  0  0  0999 V2000
   -7.5130    3.2940  -21.8760 C   0  0  0  0  0  0  0  0  0  0  0  0
   -8.5320    2.8330  -22.8090 N   0  0  0  0  0  0  0  0  0  0  0  0
   -8.0710    2.0790  -23.8520 C   0  0  0  0  0  0  0  0  0  0  0  0
   -6.8740    1.8940  -24.0310 O   0  0  0  0  0  0  0  0  0  0  0  0
   -9.1010    1.4630  -24.7920 C   0  0  0  0  0  0  0  0  0  0  0  0
   -9.6580    0.2560  -24.2170 N   0  0  0  0  0  0  0  0  0  0  0  0
   -8.8170   -0.9220  -24.0960 C   0  0  0  0  0  0  0  0  0  0  0  0
   -9.0930   -1.7000  -22.7890 C   0  0  2  0  0  0  0  0  0  0  0  0
   -8.5780   -0.8900  -21.5770 C   0  0  0  0  0  0  0  0  0  0  0  0
   -9.1090    0.0670  -21.0530 O   0  0  0  0  0  0  0  0  0  0  0  0
   -7.3750   -1.4280  -21.1910 N   0  0  0  0  0  0  0  0  0  0  0  0
   -6.5980   -0.8280  -20.1720 C   0  0  0  0  0  0  0  0  0  0  0  0
   -6.9240   -1.0490  -18.8590 C   0  0  0  0  0  0  0  0  0  0  0  0
   -6.2330   -0.5490  -17.8060 N   0  0  0  0  0  0  0  0  0  0  0  0
   -5.1940    0.2040  -18.0730 C   0  0  0  0  0  0  0  0  0  0  0  0
   -4.7500    0.5180  -19.3900 C   0  0  0  0  0  0  0  0  0  0  0  0
   -3.6290    1.3570  -19.6310 C   0  0  0  0  0  0  0  0  0  0  0  0
   -3.2440    1.6540  -20.9060 C   0  0  0  0  0  0  0  0  0  0  0  0
   -3.9610    1.1390  -22.0090 C   0  0  0  0  0  0  0  0  0  0  0  0
   -5.0580    0.3330  -21.8080 C   0  0  0  0  0  0  0  0  0  0  0  0
   -5.4730   -0.0080  -20.4900 C   0  0  0  0  0  0  0  0  0  0  0  0
   -5.6230   -0.0180  -22.6680 H   0  0  0  0  0  0  0  0  0  0  0  0
   -3.6520    1.3860  -23.0210 H   0  0  0  0  0  0  0  0  0  0  0  0
   -2.3860    2.2980  -21.0860 H   0  0  0  0  0  0  0  0  0  0  0  0
   -3.0990    1.7630  -18.7730 H   0  0  0  0  0  0  0  0  0  0  0  0
   -4.6290    0.6060  -17.2280 H   0  0  0  0  0  0  0  0  0  0  0  0
   -7.7900   -1.6630  -18.6190 H   0  0  0  0  0  0  0  0  0  0  0  0
   -6.9600   -2.5920  -21.9480 C   0  0  0  0  0  0  0  0  0  0  0  0
   -8.2320   -2.9970  -22.7120 C   0  0  2  0  0  0  0  0  0  0  0  0
   -7.9330   -3.6880  -24.0400 C   0  0  0  0  0  0  0  0  0  0  0  0
   -7.2260   -4.8880  -23.7970 O   0  0  0  0  0  0  0  0  0  0  0  0
   -7.0490   -5.7000  -24.9540 C   0  0  0  0  0  0  0  0  0  0  0  0
   -5.6750   -6.3460  -24.8750 C   0  0  0  0  0  0  0  0  0  0  0  0
   -5.4910   -6.9610  -25.7610 H   0  0  0  0  0  0  0  0  0  0  0  0
   -4.8830   -5.5950  -24.8140 H   0  0  0  0  0  0  0  0  0  0  0  0
   -5.6070   -6.9900  -23.9940 H   0  0  0  0  0  0  0  0  0  0  0  0
   -8.1490   -6.7520  -25.0460 C   0  0  0  0  0  0  0  0  0  0  0  0
   -8.1270   -7.3990  -24.1650 H   0  0  0  0  0  0  0  0  0  0  0  0
   -9.1430   -6.2990  -25.1100 H   0  0  0  0  0  0  0  0  0  0  0  0
   -8.0040   -7.3750  -25.9350 H   0  0  0  0  0  0  0  0  0  0  0  0
   -7.0840   -5.0690  -25.8570 H   0  0  0  0  0  0  0  0  0  0  0  0
   -8.8770   -3.8810  -24.5790 H   0  0  0  0  0  0  0  0  0  0  0  0
   -7.3210   -3.0230  -24.6730 H   0  0  0  0  0  0  0  0  0  0  0  0
   -8.7700   -3.7200  -22.0990 H   0  0  0  0  0  0  0  0  0  0  0  0
   -6.1350   -2.3560  -22.6350 H   0  0  0  0  0  0  0  0  0  0  0  0
   -6.6170   -3.3810  -21.2760 H   0  0  0  0  0  0  0  0  0  0  0  0
  -10.5920   -1.8890  -22.6830 C   0  0  0  0  0  0  0  0  0  0  0  0
  -11.1300   -2.8700  -21.8470 C   0  0  0  0  0  0  0  0  0  0  0  0
  -12.5020   -2.9800  -21.7060 C   0  0  0  0  0  0  0  0  0  0  0  0
  -13.1350   -4.1640  -20.6030 Cl  0  0  0  0  0  0  0  0  0  0  0  0
  -13.3930   -2.1570  -22.3920 C   0  0  0  0  0  0  0  0  0  0  0  0
  -12.8660   -1.1650  -23.1910 C   0  0  0  0  0  0  0  0  0  0  0  0
  -11.4880   -1.0110  -23.3070 C   0  0  0  0  0  0  0  0  0  0  0  0
  -11.0100    0.1800  -24.0680 C   0  0  0  0  0  0  0  0  0  0  0  0
  -11.7700    1.0370  -24.4960 O   0  0  0  0  0  0  0  0  0  0  0  0
  -13.5020   -0.4670  -23.7220 H   0  0  0  0  0  0  0  0  0  0  0  0
  -14.4640   -2.2900  -22.2650 H   0  0  0  0  0  0  0  0  0  0  0  0
  -10.4880   -3.5390  -21.2840 H   0  0  0  0  0  0  0  0  0  0  0  0
   -9.0110   -1.5900  -24.9420 H   0  0  0  0  0  0  0  0  0  0  0  0
   -7.7710   -0.6110  -24.1500 H   0  0  0  0  0  0  0  0  0  0  0  0
   -8.5740    1.2280  -25.7230 H   0  0  0  0  0  0  0  0  0  0  0  0
   -9.9360    2.1400  -24.9990 H   0  0  0  0  0  0  0  0  0  0  0  0
   -9.4430    2.6340  -22.4190 H   0  0  0  0  0  0  0  0  0  0  0  0
   -6.7700    3.8480  -22.4550 H   0  0  0  0  0  0  0  0  0  0  0  0
   -7.9340    3.9680  -21.1320 H   0  0  0  0  0  0  0  0  0  0  0  0
   -7.0090    2.4390  -21.3950 H   0  0  0  0  0  0  0  0  0  0  0  0
  1  2  1  0  0  0  0
  1 64  1  0  0  0  0
  1 65  1  0  0  0  0
  1 66  1  0  0  0  0
  2  3  1  0  0  0  0
  2 63  1  0  0  0  0
  3  4  2  0  0  0  0
  3  5  1  0  0  0  0
  5  6  1  0  0  0  0
  5 61  1  0  0  0  0
  5 62  1  0  0  0  0
  6  7  1  0  0  0  0
  6 54  1  0  0  0  0
  7  8  1  0  0  0  0
  7 59  1  0  0  0  0
  7 60  1  0  0  0  0
  8  9  1  1  0  0  0
  8 29  1  0  0  0  0
  8 47  1  0  0  0  0
  9 10  2  0  0  0  0
  9 11  1  0  0  0  0
 11 12  1  0  0  0  0
 11 28  1  0  0  0  0
 12 13  2  0  0  0  0
 12 21  1  0  0  0  0
 13 14  1  0  0  0  0
 13 27  1  0  0  0  0
 14 15  2  0  0  0  0
 15 16  1  0  0  0  0
 15 26  1  0  0  0  0
 16 17  2  0  0  0  0
 16 21  1  0  0  0  0
 17 18  1  0  0  0  0
 17 25  1  0  0  0  0
 18 19  2  0  0  0  0
 18 24  1  0  0  0  0
 19 20  1  0  0  0  0
 19 23  1  0  0  0  0
 20 21  2  0  0  0  0
 20 22  1  0  0  0  0
 28 29  1  0  0  0  0
 28 45  1  0  0  0  0
 28 46  1  0  0  0  0
 29 30  1  0  0  0  0
 29 44  1  1  0  0  0
 30 31  1  0  0  0  0
 30 42  1  0  0  0  0
 30 43  1  0  0  0  0
 31 32  1  0  0  0  0
 32 33  1  0  0  0  0
 32 37  1  0  0  0  0
 32 41  1  0  0  0  0
 33 34  1  0  0  0  0
 33 35  1  0  0  0  0
 33 36  1  0  0  0  0
 37 38  1  0  0  0  0
 37 39  1  0  0  0  0
 37 40  1  0  0  0  0
 47 48  2  0  0  0  0
 47 53  1  0  0  0  0
 48 49  1  0  0  0  0
 48 58  1  0  0  0  0
 49 50  1  0  0  0  0
 49 51  2  0  0  0  0
 51 52  1  0  0  0  0
 51 57  1  0  0  0  0
 52 53  2  0  0  0  0
 52 56  1  0  0  0  0
 53 54  1  0  0  0  0
 54 55  2  0  0  0  0
M  END
>  <MODEL>
       1

$$$$
