output/tmp_first_model_1_49.pdb
 OpenBabel07242613193D

 67 72  0  0  1  0  0  0  0  0999 V2000
   -5.3030   -8.5940  -23.6880 C   0  0  0  0  0  0  0  0  0  0  0  0
   -6.4190   -7.8710  -23.1110 N   0  0  0  0  0  0  0  0  0  0  0  0
   -7.4590   -7.4750  -23.8960 C   0  0  0  0  0  0  0  0  0  0  0  0
   -7.4590   -7.6250  -25.1030 O   0  0  0  0  0  0  0  0  0  0  0  0
   -8.6180   -6.7870  -23.1700 C   0  0  0  0  0  0  0  0  0  0  0  0
   -8.6350   -5.3540  -23.4440 N   0  0  0  0  0  0  0  0  0  0  0  0
   -7.7700   -4.5290  -22.6140 C   0  0  0  0  0  0  0  0  0  0  0  0
   -7.8900   -3.0060  -22.8690 C   0  0  2  0  0  0  0  0  0  0  0  0
   -6.7280   -2.3720  -22.0860 C   0  0  0  0  0  0  0  0  0  0  0  0
   -5.5640   -2.7290  -22.1050 O   0  0  0  0  0  0  0  0  0  0  0  0
   -7.2190   -1.3510  -21.3060 N   0  0  0  0  0  0  0  0  0  0  0  0
   -6.4670   -0.7840  -20.2430 C   0  0  0  0  0  0  0  0  0  0  0  0
   -6.8270   -1.0120  -18.9370 C   0  0  0  0  0  0  0  0  0  0  0  0
   -6.1690   -0.5260  -17.8560 N   0  0  0  0  0  0  0  0  0  0  0  0
   -5.1290    0.2400  -18.0800 C   0  0  0  0  0  0  0  0  0  0  0  0
   -4.6530    0.5650  -19.3800 C   0  0  0  0  0  0  0  0  0  0  0  0
   -3.5270    1.4110  -19.5670 C   0  0  0  0  0  0  0  0  0  0  0  0
   -3.0960    1.7240  -20.8270 C   0  0  0  0  0  0  0  0  0  0  0  0
   -3.7670    1.2040  -21.9580 C   0  0  0  0  0  0  0  0  0  0  0  0
   -4.8540    0.3830  -21.8020 C   0  0  0  0  0  0  0  0  0  0  0  0
   -5.3290    0.0390  -20.5030 C   0  0  0  0  0  0  0  0  0  0  0  0
   -5.3560   -0.0210  -22.6760 H   0  0  0  0  0  0  0  0  0  0  0  0
   -3.4220    1.4600  -22.9560 H   0  0  0  0  0  0  0  0  0  0  0  0
   -2.2460    2.3840  -20.9730 H   0  0  0  0  0  0  0  0  0  0  0  0
   -3.0280    1.8100  -18.6870 H   0  0  0  0  0  0  0  0  0  0  0  0
   -4.6020    0.6440  -17.2130 H   0  0  0  0  0  0  0  0  0  0  0  0
   -7.6890   -1.6410  -18.7130 H   0  0  0  0  0  0  0  0  0  0  0  0
   -8.5620   -0.9610  -21.6880 C   0  0  0  0  0  0  0  0  0  0  0  0
   -9.1480   -2.2300  -22.3190 C   0  0  2  0  0  0  0  0  0  0  0  0
  -10.0530   -2.9640  -21.3430 C   0  0  0  0  0  0  0  0  0  0  0  0
  -10.8090   -3.9990  -21.9790 N   0  0  0  0  0  0  0  0  0  0  0  0
  -12.0440   -3.7840  -22.5410 C   0  0  0  0  0  0  0  0  0  0  0  0
  -13.1160   -3.0690  -22.1000 C   0  0  0  0  0  0  0  0  0  0  0  0
  -14.3080   -3.3270  -22.7410 N   0  0  0  0  0  0  0  0  0  0  0  0
  -14.1370   -4.1660  -23.7170 C   0  0  0  0  0  0  0  0  0  0  0  0
  -15.2710   -4.8050  -24.4520 C   0  0  0  0  0  0  0  0  0  0  0  0
  -16.0040   -4.0370  -24.7130 H   0  0  0  0  0  0  0  0  0  0  0  0
  -14.9660   -5.3600  -25.3460 H   0  0  0  0  0  0  0  0  0  0  0  0
  -15.7640   -5.5050  -23.7680 H   0  0  0  0  0  0  0  0  0  0  0  0
  -12.4820   -4.6520  -23.9930 S   0  0  0  0  0  0  0  0  0  0  0  0
  -13.1170   -2.3430  -21.2900 H   0  0  0  0  0  0  0  0  0  0  0  0
  -10.2730   -4.7480  -22.4120 H   0  0  0  0  0  0  0  0  0  0  0  0
   -9.4780   -3.3880  -20.5200 H   0  0  0  0  0  0  0  0  0  0  0  0
  -10.7590   -2.2360  -20.9380 H   0  0  0  0  0  0  0  0  0  0  0  0
   -9.8120   -1.9850  -23.1560 H   0  0  0  0  0  0  0  0  0  0  0  0
   -9.1240   -0.6160  -20.8180 H   0  0  0  0  0  0  0  0  0  0  0  0
   -8.5410   -0.1500  -22.4310 H   0  0  0  0  0  0  0  0  0  0  0  0
   -7.8480   -2.7770  -24.3700 C   0  0  0  0  0  0  0  0  0  0  0  0
   -7.4000   -1.5650  -24.9110 C   0  0  0  0  0  0  0  0  0  0  0  0
   -7.7090   -1.2410  -26.2250 C   0  0  0  0  0  0  0  0  0  0  0  0
   -7.2720    0.3190  -26.8610 Cl  0  0  0  0  0  0  0  0  0  0  0  0
   -8.4010   -2.1230  -27.0520 C   0  0  0  0  0  0  0  0  0  0  0  0
   -8.7980   -3.3420  -26.5350 C   0  0  0  0  0  0  0  0  0  0  0  0
   -8.5350   -3.6630  -25.2040 C   0  0  0  0  0  0  0  0  0  0  0  0
   -9.0690   -4.9630  -24.6930 C   0  0  0  0  0  0  0  0  0  0  0  0
   -9.8580   -5.6350  -25.3390 O   0  0  0  0  0  0  0  0  0  0  0  0
   -9.3300   -4.0710  -27.1390 H   0  0  0  0  0  0  0  0  0  0  0  0
   -8.6300   -1.8530  -28.0780 H   0  0  0  0  0  0  0  0  0  0  0  0
   -6.8230   -0.8680  -24.3110 H   0  0  0  0  0  0  0  0  0  0  0  0
   -8.0010   -4.7350  -21.5630 H   0  0  0  0  0  0  0  0  0  0  0  0
   -6.7230   -4.8200  -22.7650 H   0  0  0  0  0  0  0  0  0  0  0  0
   -9.5570   -7.2090  -23.5370 H   0  0  0  0  0  0  0  0  0  0  0  0
   -8.5280   -6.9250  -22.0900 H   0  0  0  0  0  0  0  0  0  0  0  0
   -6.4850   -7.7710  -22.1120 H   0  0  0  0  0  0  0  0  0  0  0  0
   -5.3180   -8.4260  -24.7670 H   0  0  0  0  0  0  0  0  0  0  0  0
   -5.3820   -9.6720  -23.5030 H   0  0  0  0  0  0  0  0  0  0  0  0
   -4.3610   -8.2240  -23.2790 H   0  0  0  0  0  0  0  0  0  0  0  0
  1  2  1  0  0  0  0
  1 65  1  0  0  0  0
  1 66  1  0  0  0  0
  1 67  1  0  0  0  0
  2  3  1  0  0  0  0
  2 64  1  0  0  0  0
  3  4  2  0  0  0  0
  3  5  1  0  0  0  0
  5  6  1  0  0  0  0
  5 62  1  0  0  0  0
  5 63  1  0  0  0  0
  6  7  1  0  0  0  0
  6 55  1  0  0  0  0
  7  8  1  0  0  0  0
  7 60  1  0  0  0  0
  7 61  1  0  0  0  0
  8  9  1  1  0  0  0
  8 29  1  0  0  0  0
  8 48  1  0  0  0  0
  9 10  2  0  0  0  0
  9 11  1  0  0  0  0
 11 12  1  0  0  0  0
 11 28  1  0  0  0  0
 12 13  2  0  0  0  0
 12 21  1  0  0  0  0
 13 14  1  0  0  0  0
 13 27  1  0  0  0  0
 14 15  2  0  0  0  0
 15 16  1  0  0  0  0
 15 26  1  0  0  0  0
 16 17  2  0  0  0  0
 16 21  1  0  0  0  0
 17 18  1  0  0  0  0
 17 25  1  0  0  0  0
 18 19  2  0  0  0  0
 18 24  1  0  0  0  0
 19 20  1  0  0  0  0
 19 23  1  0  0  0  0
 20 21  2  0  0  0  0
 20 22  1  0  0  0  0
 28 29  1  0  0  0  0
 28 46  1  0  0  0  0
 28 47  1  0  0  0  0
 29 30  1  0  0  0  0
 29 45  1  6  0  0  0
 30 31  1  0  0  0  0
 30 43  1  0  0  0  0
 30 44  1  0  0  0  0
 31 32  1  0  0  0  0
 31 42  1  0  0  0  0
 32 33  2  0  0  0  0
 32 40  1  0  0  0  0
 33 34  1  0  0  0  0
 33 41  1  0  0  0  0
 34 35  2  0  0  0  0
 35 36  1  0  0  0  0
 35 40  1  0  0  0  0
 36 37  1  0  0  0  0
 36 38  1  0  0  0  0
 36 39  1  0  0  0  0
 48 49  2  0  0  0  0
 48 54  1  0  0  0  0
 49 50  1  0  0  0  0
 49 59  1  0  0  0  0
 50 51  1  0  0  0  0
 50 52  2  0  0  0  0
 52 53  1  0  0  0  0
 52 58  1  0  0  0  0
 53 54  2  0  0  0  0
 53 57  1  0  0  0  0
 54 55  1  0  0  0  0
 55 56  2  0  0  0  0
M  END
>  <MODEL>
       1

$$$$
