output/tmp_first_model_9_63.pdb
 OpenBabel07242617433D

 57 61  0  0  1  0  0  0  0  0999 V2000
  -14.5620   -1.6870  -23.7330 C   0  0  0  0  0  0  0  0  0  0  0  0
  -13.6110   -2.7020  -23.3500 N   0  0  0  0  0  0  0  0  0  0  0  0
  -13.3030   -2.8890  -22.0400 C   0  0  0  0  0  0  0  0  0  0  0  0
  -13.8220   -2.2530  -21.1400 O   0  0  0  0  0  0  0  0  0  0  0  0
  -12.3120   -4.0260  -21.7940 C   0  0  0  0  0  0  0  0  0  0  0  0
  -11.0040   -3.9140  -22.4110 N   0  0  0  0  0  0  0  0  0  0  0  0
   -9.8950   -3.3940  -21.6250 C   0  0  0  0  0  0  0  0  0  0  0  0
   -8.7140   -2.8650  -22.4710 C   0  0  2  0  0  0  0  0  0  0  0  0
   -7.5350   -2.6720  -21.5040 C   0  0  0  0  0  0  0  0  0  0  0  0
   -6.8390   -3.5420  -21.0170 O   0  0  0  0  0  0  0  0  0  0  0  0
   -7.3640   -1.3250  -21.2710 N   0  0  0  0  0  0  0  0  0  0  0  0
   -6.5600   -0.8520  -20.2100 C   0  0  0  0  0  0  0  0  0  0  0  0
   -6.8780   -1.1260  -18.9050 C   0  0  0  0  0  0  0  0  0  0  0  0
   -6.2190   -0.5910  -17.8480 N   0  0  0  0  0  0  0  0  0  0  0  0
   -5.2150    0.2140  -18.0930 C   0  0  0  0  0  0  0  0  0  0  0  0
   -4.7560    0.5480  -19.3990 C   0  0  0  0  0  0  0  0  0  0  0  0
   -3.6320    1.3850  -19.6290 C   0  0  0  0  0  0  0  0  0  0  0  0
   -3.2240    1.6540  -20.9060 C   0  0  0  0  0  0  0  0  0  0  0  0
   -3.9200    1.1080  -22.0110 C   0  0  0  0  0  0  0  0  0  0  0  0
   -5.0100    0.2970  -21.8140 C   0  0  0  0  0  0  0  0  0  0  0  0
   -5.4510    0.0010  -20.4990 C   0  0  0  0  0  0  0  0  0  0  0  0
   -5.5370   -0.1460  -22.6530 H   0  0  0  0  0  0  0  0  0  0  0  0
   -3.5820    1.3150  -23.0220 H   0  0  0  0  0  0  0  0  0  0  0  0
   -2.3570    2.2840  -21.0850 H   0  0  0  0  0  0  0  0  0  0  0  0
   -3.1100    1.7970  -18.7690 H   0  0  0  0  0  0  0  0  0  0  0  0
   -4.6990    0.6350  -17.2300 H   0  0  0  0  0  0  0  0  0  0  0  0
   -7.7060   -1.7890  -18.6590 H   0  0  0  0  0  0  0  0  0  0  0  0
   -8.3660   -0.4880  -21.9060 C   0  0  0  0  0  0  0  0  0  0  0  0
   -8.9170   -1.4010  -23.0100 C   0  0  2  0  0  0  0  0  0  0  0  0
  -10.3290   -1.0340  -23.4670 C   0  0  0  0  0  0  0  0  0  0  0  0
  -11.2090   -0.8940  -22.3620 O   0  0  0  0  0  0  0  0  0  0  0  0
  -11.4360    0.0350  -22.2490 H   0  0  0  0  0  0  0  0  0  0  0  0
  -10.7000   -1.8390  -24.1110 H   0  0  0  0  0  0  0  0  0  0  0  0
  -10.3260   -0.1150  -24.0690 H   0  0  0  0  0  0  0  0  0  0  0  0
   -8.2480   -1.3260  -23.8790 H   0  0  0  0  0  0  0  0  0  0  0  0
   -9.1470   -0.1940  -21.1890 H   0  0  0  0  0  0  0  0  0  0  0  0
   -7.9180    0.4380  -22.2820 H   0  0  0  0  0  0  0  0  0  0  0  0
   -8.4010   -3.8780  -23.5530 C   0  0  0  0  0  0  0  0  0  0  0  0
   -7.1080   -3.9990  -24.0820 C   0  0  0  0  0  0  0  0  0  0  0  0
   -6.8510   -4.9400  -25.0630 C   0  0  0  0  0  0  0  0  0  0  0  0
   -5.2440   -5.0780  -25.7280 Cl  0  0  0  0  0  0  0  0  0  0  0  0
   -7.8480   -5.8150  -25.4980 C   0  0  0  0  0  0  0  0  0  0  0  0
   -9.1370   -5.6720  -25.0130 C   0  0  0  0  0  0  0  0  0  0  0  0
   -9.4200   -4.6860  -24.0710 C   0  0  0  0  0  0  0  0  0  0  0  0
  -10.8310   -4.5070  -23.6250 C   0  0  0  0  0  0  0  0  0  0  0  0
  -11.7990   -4.8590  -24.3050 O   0  0  0  0  0  0  0  0  0  0  0  0
   -9.9440   -6.3180  -25.3540 H   0  0  0  0  0  0  0  0  0  0  0  0
   -7.6070   -6.5940  -26.2090 H   0  0  0  0  0  0  0  0  0  0  0  0
   -6.2890   -3.4060  -23.6880 H   0  0  0  0  0  0  0  0  0  0  0  0
   -9.5020   -4.1630  -20.9560 H   0  0  0  0  0  0  0  0  0  0  0  0
  -10.2670   -2.5640  -21.0270 H   0  0  0  0  0  0  0  0  0  0  0  0
  -12.7710   -4.9050  -22.2460 H   0  0  0  0  0  0  0  0  0  0  0  0
  -12.2200   -4.1510  -20.7140 H   0  0  0  0  0  0  0  0  0  0  0  0
  -13.2360   -3.3270  -24.0500 H   0  0  0  0  0  0  0  0  0  0  0  0
  -14.1420   -0.6790  -23.6720 H   0  0  0  0  0  0  0  0  0  0  0  0
  -15.4200   -1.6930  -23.0630 H   0  0  0  0  0  0  0  0  0  0  0  0
  -14.8930   -1.8800  -24.7550 H   0  0  0  0  0  0  0  0  0  0  0  0
  1  2  1  0  0  0  0
  1 55  1  0  0  0  0
  1 56  1  0  0  0  0
  1 57  1  0  0  0  0
  2  3  1  0  0  0  0
  2 54  1  0  0  0  0
  3  4  2  0  0  0  0
  3  5  1  0  0  0  0
  5  6  1  0  0  0  0
  5 52  1  0  0  0  0
  5 53  1  0  0  0  0
  6  7  1  0  0  0  0
  6 45  1  0  0  0  0
  7  8  1  0  0  0  0
  7 50  1  0  0  0  0
  7 51  1  0  0  0  0
  8  9  1  1  0  0  0
  8 29  1  0  0  0  0
  8 38  1  0  0  0  0
  9 10  2  0  0  0  0
  9 11  1  0  0  0  0
 11 12  1  0  0  0  0
 11 28  1  0  0  0  0
 12 13  2  0  0  0  0
 12 21  1  0  0  0  0
 13 14  1  0  0  0  0
 13 27  1  0  0  0  0
 14 15  2  0  0  0  0
 15 16  1  0  0  0  0
 15 26  1  0  0  0  0
 16 17  2  0  0  0  0
 16 21  1  0  0  0  0
 17 18  1  0  0  0  0
 17 25  1  0  0  0  0
 18 19  2  0  0  0  0
 18 24  1  0  0  0  0
 19 20  1  0  0  0  0
 19 23  1  0  0  0  0
 20 21  2  0  0  0  0
 20 22  1  0  0  0  0
 28 29  1  0  0  0  0
 28 36  1  0  0  0  0
 28 37  1  0  0  0  0
 29 30  1  0  0  0  0
 29 35  1  6  0  0  0
 30 31  1  0  0  0  0
 30 33  1  0  0  0  0
 30 34  1  0  0  0  0
 31 32  1  0  0  0  0
 38 39  2  0  0  0  0
 38 44  1  0  0  0  0
 39 40  1  0  0  0  0
 39 49  1  0  0  0  0
 40 41  1  0  0  0  0
 40 42  2  0  0  0  0
 42 43  1  0  0  0  0
 42 48  1  0  0  0  0
 43 44  2  0  0  0  0
 43 47  1  0  0  0  0
 44 45  1  0  0  0  0
 45 46  2  0  0  0  0
M  END
>  <MODEL>
       1

$$$$
