output/tmp_first_model_20_71.pdb
 OpenBabel07242623363D

 50 54  0  0  1  0  0  0  0  0999 V2000
  -10.4330   -1.0590  -23.3310 C   0  0  0  0  0  0  0  0  0  0  0  0
   -8.9940   -1.4180  -22.9670 C   0  0  1  0  0  0  0  0  0  0  0  0
   -8.3930   -0.4850  -21.9000 C   0  0  0  0  0  0  0  0  0  0  0  0
   -7.3990   -1.3190  -21.2470 N   0  0  0  0  0  0  0  0  0  0  0  0
   -6.5790   -0.8380  -20.1990 C   0  0  0  0  0  0  0  0  0  0  0  0
   -6.8900   -1.0970  -18.8890 C   0  0  0  0  0  0  0  0  0  0  0  0
   -6.2100   -0.5800  -17.8380 N   0  0  0  0  0  0  0  0  0  0  0  0
   -5.1870    0.1970  -18.0910 C   0  0  0  0  0  0  0  0  0  0  0  0
   -4.7380    0.5220  -19.4040 C   0  0  0  0  0  0  0  0  0  0  0  0
   -3.6040    1.3420  -19.6410 C   0  0  0  0  0  0  0  0  0  0  0  0
   -3.2100    1.6160  -20.9220 C   0  0  0  0  0  0  0  0  0  0  0  0
   -3.9200    1.0800  -22.0220 C   0  0  0  0  0  0  0  0  0  0  0  0
   -5.0180    0.2800  -21.8180 C   0  0  0  0  0  0  0  0  0  0  0  0
   -5.4540   -0.0100  -20.4980 C   0  0  0  0  0  0  0  0  0  0  0  0
   -5.5610   -0.1440  -22.6580 H   0  0  0  0  0  0  0  0  0  0  0  0
   -3.5980    1.3060  -23.0340 H   0  0  0  0  0  0  0  0  0  0  0  0
   -2.3470    2.2490  -21.1080 H   0  0  0  0  0  0  0  0  0  0  0  0
   -3.0610    1.7400  -18.7870 H   0  0  0  0  0  0  0  0  0  0  0  0
   -4.6510    0.6120  -17.2350 H   0  0  0  0  0  0  0  0  0  0  0  0
   -7.7300   -1.7410  -18.6400 H   0  0  0  0  0  0  0  0  0  0  0  0
   -7.5730   -2.6670  -21.4700 C   0  0  0  0  0  0  0  0  0  0  0  0
   -6.8580   -3.5370  -21.0150 O   0  0  0  0  0  0  0  0  0  0  0  0
   -8.7870   -2.8650  -22.3860 C   0  0  1  0  0  0  0  0  0  0  0  0
   -9.9830   -3.2980  -21.5070 C   0  0  0  0  0  0  0  0  0  0  0  0
  -11.1370   -3.7070  -22.3040 N   0  0  0  0  0  0  0  0  0  0  0  0
  -12.4950   -3.4920  -21.8180 C   0  0  0  0  0  0  0  0  0  0  0  0
  -13.3550   -2.6750  -22.7040 C   0  0  0  0  0  0  0  0  0  0  0  0
  -14.0980   -2.0660  -23.3490 N   0  0  0  0  0  0  0  0  0  0  0  0
  -12.4760   -2.9990  -20.8400 H   0  0  0  0  0  0  0  0  0  0  0  0
  -13.0130   -4.4460  -21.7040 H   0  0  0  0  0  0  0  0  0  0  0  0
  -10.9840   -4.5380  -23.3920 C   0  0  0  0  0  0  0  0  0  0  0  0
  -11.9350   -5.0460  -23.9600 O   0  0  0  0  0  0  0  0  0  0  0  0
   -9.5760   -4.7470  -23.8760 C   0  0  0  0  0  0  0  0  0  0  0  0
   -9.3530   -5.7160  -24.8540 C   0  0  0  0  0  0  0  0  0  0  0  0
   -8.0860   -5.9090  -25.3740 C   0  0  0  0  0  0  0  0  0  0  0  0
   -7.0530   -5.0940  -24.9290 C   0  0  0  0  0  0  0  0  0  0  0  0
   -5.8190   -5.2610  -25.4330 F   0  0  0  0  0  0  0  0  0  0  0  0
   -7.2540   -4.1130  -23.9790 C   0  0  0  0  0  0  0  0  0  0  0  0
   -8.5270   -3.9390  -23.4230 C   0  0  0  0  0  0  0  0  0  0  0  0
   -6.4100   -3.5300  -23.6340 H   0  0  0  0  0  0  0  0  0  0  0  0
   -7.8870   -6.6850  -26.1000 H   0  0  0  0  0  0  0  0  0  0  0  0
  -10.2010   -6.2980  -25.2050 H   0  0  0  0  0  0  0  0  0  0  0  0
   -9.6720   -4.1330  -20.8750 H   0  0  0  0  0  0  0  0  0  0  0  0
  -10.2370   -2.4500  -20.8560 H   0  0  0  0  0  0  0  0  0  0  0  0
   -9.1570   -0.1370  -21.1850 H   0  0  0  0  0  0  0  0  0  0  0  0
   -7.9410    0.4150  -22.3320 H   0  0  0  0  0  0  0  0  0  0  0  0
   -8.3670   -1.3580  -23.8680 H   0  0  0  0  0  0  0  0  0  0  0  0
  -10.5120   -0.0750  -23.8020 H   0  0  0  0  0  0  0  0  0  0  0  0
  -11.0640   -1.0430  -22.4360 H   0  0  0  0  0  0  0  0  0  0  0  0
  -10.8410   -1.8080  -24.0150 H   0  0  0  0  0  0  0  0  0  0  0  0
  1  2  1  0  0  0  0
  1 48  1  0  0  0  0
  1 49  1  0  0  0  0
  1 50  1  0  0  0  0
  2  3  1  0  0  0  0
  2 23  1  0  0  0  0
  2 47  1  6  0  0  0
  3  4  1  0  0  0  0
  3 45  1  0  0  0  0
  3 46  1  0  0  0  0
  4  5  1  0  0  0  0
  4 21  1  0  0  0  0
  5  6  2  0  0  0  0
  5 14  1  0  0  0  0
  6  7  1  0  0  0  0
  6 20  1  0  0  0  0
  7  8  2  0  0  0  0
  8  9  1  0  0  0  0
  8 19  1  0  0  0  0
  9 10  2  0  0  0  0
  9 14  1  0  0  0  0
 10 11  1  0  0  0  0
 10 18  1  0  0  0  0
 11 12  2  0  0  0  0
 11 17  1  0  0  0  0
 12 13  1  0  0  0  0
 12 16  1  0  0  0  0
 13 14  2  0  0  0  0
 13 15  1  0  0  0  0
 21 22  2  0  0  0  0
 23 21  1  1  0  0  0
 23 24  1  0  0  0  0
 23 39  1  0  0  0  0
 24 25  1  0  0  0  0
 24 43  1  0  0  0  0
 24 44  1  0  0  0  0
 25 26  1  0  0  0  0
 25 31  1  0  0  0  0
 26 27  1  0  0  0  0
 26 29  1  0  0  0  0
 26 30  1  0  0  0  0
 27 28  3  0  0  0  0
 31 32  2  0  0  0  0
 31 33  1  0  0  0  0
 33 34  2  0  0  0  0
 33 39  1  0  0  0  0
 34 35  1  0  0  0  0
 34 42  1  0  0  0  0
 35 36  2  0  0  0  0
 35 41  1  0  0  0  0
 36 37  1  0  0  0  0
 36 38  1  0  0  0  0
 38 39  2  0  0  0  0
 38 40  1  0  0  0  0
M  END
>  <MODEL>
       1

$$$$
