output/tmp_first_model_5_47.pdb
 OpenBabel07242615323D

 58 63  0  0  1  0  0  0  0  0999 V2000
   -8.6400    0.6030  -21.1110 O   0  0  0  0  0  0  0  0  0  0  0  0
   -8.3910   -0.3600  -21.8140 C   0  0  0  0  0  0  0  0  0  0  0  0
   -7.5130   -1.5080  -21.2990 C   0  0  0  0  0  0  0  0  0  0  0  0
   -6.5680   -1.0290  -20.2410 C   0  0  0  0  0  0  0  0  0  0  0  0
   -6.8320   -1.2330  -18.9110 C   0  0  0  0  0  0  0  0  0  0  0  0
   -5.9680   -0.9710  -17.8920 N   0  0  0  0  0  0  0  0  0  0  0  0
   -4.8050   -0.4710  -18.2300 C   0  0  0  0  0  0  0  0  0  0  0  0
   -4.4540   -0.0830  -19.5540 C   0  0  0  0  0  0  0  0  0  0  0  0
   -3.2730    0.6620  -19.8160 C   0  0  0  0  0  0  0  0  0  0  0  0
   -3.1450    1.3660  -20.9770 C   0  0  0  0  0  0  0  0  0  0  0  0
   -4.0800    1.1620  -22.0210 C   0  0  0  0  0  0  0  0  0  0  0  0
   -5.1310    0.2940  -21.8610 C   0  0  0  0  0  0  0  0  0  0  0  0
   -5.3970   -0.2880  -20.5880 C   0  0  0  0  0  0  0  0  0  0  0  0
   -5.7550    0.0550  -22.7160 H   0  0  0  0  0  0  0  0  0  0  0  0
   -3.9210    1.6380  -22.9800 H   0  0  0  0  0  0  0  0  0  0  0  0
   -2.2580    1.9640  -21.1630 H   0  0  0  0  0  0  0  0  0  0  0  0
   -2.5330    0.7580  -19.0290 H   0  0  0  0  0  0  0  0  0  0  0  0
   -4.0890   -0.2850  -17.4230 H   0  0  0  0  0  0  0  0  0  0  0  0
   -7.7950   -1.6240  -18.5830 H   0  0  0  0  0  0  0  0  0  0  0  0
   -6.9410   -1.9520  -22.1170 H   0  0  0  0  0  0  0  0  0  0  0  0
   -8.1610   -2.2970  -20.8900 H   0  0  0  0  0  0  0  0  0  0  0  0
   -8.8420   -0.4320  -23.1160 N   0  0  0  0  0  0  0  0  0  0  0  0
   -9.1350    0.8430  -23.7730 C   0  0  0  0  0  0  0  0  0  0  0  0
   -7.8600    1.6150  -24.0420 C   0  0  0  0  0  0  0  0  0  0  0  0
   -7.5360    2.7170  -23.2540 C   0  0  0  0  0  0  0  0  0  0  0  0
   -6.3640    3.4270  -23.4840 C   0  0  0  0  0  0  0  0  0  0  0  0
   -5.4830    3.0300  -24.4860 C   0  0  0  0  0  0  0  0  0  0  0  0
   -5.7820    1.8870  -25.2190 C   0  0  0  0  0  0  0  0  0  0  0  0
   -4.6160    1.3010  -26.3750 Cl  0  0  0  0  0  0  0  0  0  0  0  0
   -6.9620    1.1830  -25.0200 C   0  0  0  0  0  0  0  0  0  0  0  0
   -7.1520    0.3080  -25.6360 H   0  0  0  0  0  0  0  0  0  0  0  0
   -4.5610    3.5720  -24.6710 H   0  0  0  0  0  0  0  0  0  0  0  0
   -6.1230    4.2870  -22.8670 H   0  0  0  0  0  0  0  0  0  0  0  0
   -8.2000    3.0060  -22.4410 H   0  0  0  0  0  0  0  0  0  0  0  0
   -9.7960    1.4260  -23.1240 H   0  0  0  0  0  0  0  0  0  0  0  0
   -9.6630    0.6240  -24.7030 H   0  0  0  0  0  0  0  0  0  0  0  0
   -9.1410   -1.6740  -23.7580 C   0  0  2  0  0  0  0  0  0  0  0  0
  -10.2690   -2.5190  -23.1330 C   0  0  0  0  0  0  0  0  0  0  0  0
  -10.2430   -3.6940  -24.0940 N   0  3  1  0  0  0  0  0  0  0  0  0
  -11.5050   -4.1070  -24.7040 C   0  0  0  0  0  0  0  0  0  0  0  0
  -11.6760   -5.5790  -24.8860 C   0  0  0  0  0  0  0  0  0  0  0  0
  -12.4510   -4.8360  -23.8140 C   0  0  0  0  0  0  0  0  0  0  0  0
  -12.1500   -4.9370  -22.7760 H   0  0  0  0  0  0  0  0  0  0  0  0
  -13.5220   -4.7370  -23.9370 H   0  0  0  0  0  0  0  0  0  0  0  0
  -10.8370   -6.2000  -24.5860 H   0  0  0  0  0  0  0  0  0  0  0  0
  -12.2060   -5.9440  -25.7590 H   0  0  0  0  0  0  0  0  0  0  0  0
  -11.8910   -3.4430  -25.4640 H   0  0  0  0  0  0  0  0  0  0  0  0
   -9.1930   -3.2230  -25.0620 C   0  0  2  0  0  0  0  0  0  0  0  0
   -8.1040   -2.7810  -24.0880 C   0  0  0  0  0  0  0  0  0  0  0  0
   -7.9120   -3.5130  -23.2940 H   0  0  0  0  0  0  0  0  0  0  0  0
   -7.1870   -2.4310  -24.5580 H   0  0  0  0  0  0  0  0  0  0  0  0
   -9.5380   -1.7430  -25.2480 C   0  0  0  0  0  0  0  0  0  0  0  0
  -10.5800   -1.4920  -25.4670 H   0  0  0  0  0  0  0  0  0  0  0  0
   -8.8480   -1.2380  -25.9200 H   0  0  0  0  0  0  0  0  0  0  0  0
   -9.0250   -3.9050  -25.8860 H   0  0  0  0  0  0  0  0  0  0  0  0
   -9.8740   -4.5240  -23.5880 H   0  0  0  0  0  0  0  0  0  0  0  0
  -11.2440   -2.0330  -23.1510 H   0  0  0  0  0  0  0  0  0  0  0  0
  -10.0510   -2.8550  -22.1180 H   0  0  0  0  0  0  0  0  0  0  0  0
  1  2  2  0  0  0  0
  2  3  1  0  0  0  0
  2 22  1  0  0  0  0
  3  4  1  0  0  0  0
  3 20  1  0  0  0  0
  3 21  1  0  0  0  0
  4  5  2  0  0  0  0
  4 13  1  0  0  0  0
  5  6  1  0  0  0  0
  5 19  1  0  0  0  0
  6  7  2  0  0  0  0
  7  8  1  0  0  0  0
  7 18  1  0  0  0  0
  8  9  2  0  0  0  0
  8 13  1  0  0  0  0
  9 10  1  0  0  0  0
  9 17  1  0  0  0  0
 10 11  2  0  0  0  0
 10 16  1  0  0  0  0
 11 12  1  0  0  0  0
 11 15  1  0  0  0  0
 12 13  2  0  0  0  0
 12 14  1  0  0  0  0
 22 23  1  0  0  0  0
 23 24  1  0  0  0  0
 23 35  1  0  0  0  0
 23 36  1  0  0  0  0
 24 25  2  0  0  0  0
 24 30  1  0  0  0  0
 25 26  1  0  0  0  0
 25 34  1  0  0  0  0
 26 27  2  0  0  0  0
 26 33  1  0  0  0  0
 27 28  1  0  0  0  0
 27 32  1  0  0  0  0
 28 29  1  0  0  0  0
 28 30  2  0  0  0  0
 30 31  1  0  0  0  0
 37 22  1  1  0  0  0
 37 38  1  0  0  0  0
 37 49  1  0  0  0  0
 37 52  1  0  0  0  0
 38 39  1  0  0  0  0
 38 57  1  0  0  0  0
 38 58  1  0  0  0  0
 39 40  1  0  0  0  0
 39 48  1  0  0  0  0
 39 56  1  1  0  0  0
 40 41  1  0  0  0  0
 40 42  1  0  0  0  0
 40 47  1  0  0  0  0
 41 42  1  0  0  0  0
 41 45  1  0  0  0  0
 41 46  1  0  0  0  0
 42 43  1  0  0  0  0
 42 44  1  0  0  0  0
 48 49  1  0  0  0  0
 48 52  1  0  0  0  0
 48 55  1  6  0  0  0
 49 50  1  0  0  0  0
 49 51  1  0  0  0  0
 52 53  1  0  0  0  0
 52 54  1  0  0  0  0
M  CHG  1  39   1
M  END
>  <MODEL>
       1

$$$$
