output/tmp_first_model_15_51.pdb
 OpenBabel07242621043D

 50 52  0  0  0  0  0  0  0  0999 V2000
   -9.7350   -0.9340  -26.4540 C   0  0  0  0  0  0  0  0  0  0  0  0
   -9.1720   -0.2800  -25.4390 C   0  0  0  0  0  0  0  0  0  0  0  0
   -9.6740   -0.4170  -24.0150 C   0  0  0  0  0  0  0  0  0  0  0  0
   -8.7340   -1.1650  -23.1620 N   0  0  0  0  0  0  0  0  0  0  0  0
   -8.0430   -0.4840  -22.1680 C   0  0  0  0  0  0  0  0  0  0  0  0
   -8.0330    0.7390  -22.0830 O   0  0  0  0  0  0  0  0  0  0  0  0
   -7.3660   -1.2940  -21.2810 N   0  0  0  0  0  0  0  0  0  0  0  0
   -6.6000   -0.7630  -20.2180 C   0  0  0  0  0  0  0  0  0  0  0  0
   -6.9210   -1.0310  -18.9120 C   0  0  0  0  0  0  0  0  0  0  0  0
   -6.2470   -0.5400  -17.8410 N   0  0  0  0  0  0  0  0  0  0  0  0
   -5.2090    0.2290  -18.0800 C   0  0  0  0  0  0  0  0  0  0  0  0
   -4.7480    0.5600  -19.3850 C   0  0  0  0  0  0  0  0  0  0  0  0
   -3.5970    1.3670  -19.6080 C   0  0  0  0  0  0  0  0  0  0  0  0
   -3.1620    1.6240  -20.8810 C   0  0  0  0  0  0  0  0  0  0  0  0
   -3.8580    1.0900  -21.9910 C   0  0  0  0  0  0  0  0  0  0  0  0
   -4.9770    0.3210  -21.8010 C   0  0  0  0  0  0  0  0  0  0  0  0
   -5.4580    0.0460  -20.4910 C   0  0  0  0  0  0  0  0  0  0  0  0
   -5.5210   -0.0810  -22.6470 H   0  0  0  0  0  0  0  0  0  0  0  0
   -3.5160    1.3080  -23.0010 H   0  0  0  0  0  0  0  0  0  0  0  0
   -2.2830    2.2440  -21.0430 H   0  0  0  0  0  0  0  0  0  0  0  0
   -3.0790    1.7780  -18.7440 H   0  0  0  0  0  0  0  0  0  0  0  0
   -4.6680    0.6140  -17.2150 H   0  0  0  0  0  0  0  0  0  0  0  0
   -7.7770   -1.6610  -18.6700 H   0  0  0  0  0  0  0  0  0  0  0  0
   -7.6720   -2.2540  -21.1990 H   0  0  0  0  0  0  0  0  0  0  0  0
   -8.3960   -2.4810  -23.5960 C   0  0  0  0  0  0  0  0  0  0  0  0
   -7.0760   -2.9200  -23.7470 C   0  0  0  0  0  0  0  0  0  0  0  0
   -6.8230   -4.1960  -24.2290 C   0  0  0  0  0  0  0  0  0  0  0  0
   -7.8490   -5.0050  -24.6970 C   0  0  0  0  0  0  0  0  0  0  0  0
   -9.1530   -4.5370  -24.5800 C   0  0  0  0  0  0  0  0  0  0  0  0
  -10.4920   -5.4970  -25.1440 Cl  0  0  0  0  0  0  0  0  0  0  0  0
   -9.4400   -3.3170  -23.9950 C   0  0  0  0  0  0  0  0  0  0  0  0
  -10.4770   -3.0280  -23.8480 H   0  0  0  0  0  0  0  0  0  0  0  0
   -7.6350   -5.9730  -25.1370 H   0  0  0  0  0  0  0  0  0  0  0  0
   -5.7980   -4.5550  -24.2460 H   0  0  0  0  0  0  0  0  0  0  0  0
   -6.2490   -2.2690  -23.4820 H   0  0  0  0  0  0  0  0  0  0  0  0
  -10.6220   -0.9650  -24.0570 H   0  0  0  0  0  0  0  0  0  0  0  0
   -9.8890    0.5360  -23.5250 H   0  0  0  0  0  0  0  0  0  0  0  0
   -7.8930    0.4640  -25.7210 C   0  0  0  0  0  0  0  0  0  0  0  0
   -7.2400    0.2310  -26.7340 O   0  0  0  0  0  0  0  0  0  0  0  0
   -7.5290    1.4170  -24.8220 N   0  0  0  0  0  0  0  0  0  0  0  0
   -6.2270    2.0440  -24.9680 C   0  0  0  0  0  0  0  0  0  0  0  0
   -6.0720    3.1390  -23.9250 C   0  0  0  0  0  0  0  0  0  0  0  0
   -6.7760    3.9590  -24.1050 H   0  0  0  0  0  0  0  0  0  0  0  0
   -5.0600    3.5560  -23.9340 H   0  0  0  0  0  0  0  0  0  0  0  0
   -6.2720    2.7360  -22.9230 H   0  0  0  0  0  0  0  0  0  0  0  0
   -6.1480    2.4330  -25.9890 H   0  0  0  0  0  0  0  0  0  0  0  0
   -5.4250    1.2940  -24.8670 H   0  0  0  0  0  0  0  0  0  0  0  0
   -7.9320    1.4320  -23.8890 H   0  0  0  0  0  0  0  0  0  0  0  0
   -9.2970   -0.9040  -27.4470 H   0  0  0  0  0  0  0  0  0  0  0  0
  -10.6140   -1.5630  -26.3100 H   0  0  0  0  0  0  0  0  0  0  0  0
  1  2  2  0  0  0  0
  1 49  1  0  0  0  0
  1 50  1  0  0  0  0
  2  3  1  0  0  0  0
  2 38  1  0  0  0  0
  3  4  1  0  0  0  0
  3 36  1  0  0  0  0
  3 37  1  0  0  0  0
  4  5  1  0  0  0  0
  4 25  1  0  0  0  0
  5  6  2  0  0  0  0
  5  7  1  0  0  0  0
  7  8  1  0  0  0  0
  7 24  1  0  0  0  0
  8  9  2  0  0  0  0
  8 17  1  0  0  0  0
  9 10  1  0  0  0  0
  9 23  1  0  0  0  0
 10 11  2  0  0  0  0
 11 12  1  0  0  0  0
 11 22  1  0  0  0  0
 12 13  2  0  0  0  0
 12 17  1  0  0  0  0
 13 14  1  0  0  0  0
 13 21  1  0  0  0  0
 14 15  2  0  0  0  0
 14 20  1  0  0  0  0
 15 16  1  0  0  0  0
 15 19  1  0  0  0  0
 16 17  2  0  0  0  0
 16 18  1  0  0  0  0
 25 26  2  0  0  0  0
 25 31  1  0  0  0  0
 26 27  1  0  0  0  0
 26 35  1  0  0  0  0
 27 28  2  0  0  0  0
 27 34  1  0  0  0  0
 28 29  1  0  0  0  0
 28 33  1  0  0  0  0
 29 30  1  0  0  0  0
 29 31  2  0  0  0  0
 31 32  1  0  0  0  0
 38 39  2  0  0  0  0
 38 40  1  0  0  0  0
 40 41  1  0  0  0  0
 40 48  1  0  0  0  0
 41 42  1  0  0  0  0
 41 46  1  0  0  0  0
 41 47  1  0  0  0  0
 42 43  1  0  0  0  0
 42 44  1  0  0  0  0
 42 45  1  0  0  0  0
M  END
>  <MODEL>
       1

$$$$
