output/tmp_first_model_15_18.pdb
 OpenBabel07242621043D

 56 61  0  0  1  0  0  0  0  0999 V2000
  -10.4110   -0.9680  -23.4020 C   0  0  0  0  0  0  0  0  0  0  0  0
   -8.9800   -1.3460  -23.0200 C   0  0  1  0  0  0  0  0  0  0  0  0
   -8.4060   -0.4560  -21.9040 C   0  0  0  0  0  0  0  0  0  0  0  0
   -7.4130   -1.3020  -21.2650 N   0  0  0  0  0  0  0  0  0  0  0  0
   -6.6040   -0.8450  -20.1980 C   0  0  0  0  0  0  0  0  0  0  0  0
   -6.9130   -1.1300  -18.8930 C   0  0  0  0  0  0  0  0  0  0  0  0
   -6.2560   -0.6030  -17.8260 N   0  0  0  0  0  0  0  0  0  0  0  0
   -5.2450    0.2000  -18.0680 C   0  0  0  0  0  0  0  0  0  0  0  0
   -4.7840    0.5320  -19.3770 C   0  0  0  0  0  0  0  0  0  0  0  0
   -3.6600    1.3670  -19.6090 C   0  0  0  0  0  0  0  0  0  0  0  0
   -3.2400    1.6270  -20.8870 C   0  0  0  0  0  0  0  0  0  0  0  0
   -3.9290    1.0750  -21.9930 C   0  0  0  0  0  0  0  0  0  0  0  0
   -5.0250    0.2770  -21.7930 C   0  0  0  0  0  0  0  0  0  0  0  0
   -5.4810   -0.0080  -20.4800 C   0  0  0  0  0  0  0  0  0  0  0  0
   -5.5500   -0.1650  -22.6340 H   0  0  0  0  0  0  0  0  0  0  0  0
   -3.5840    1.2850  -23.0030 H   0  0  0  0  0  0  0  0  0  0  0  0
   -2.3750    2.2580  -21.0640 H   0  0  0  0  0  0  0  0  0  0  0  0
   -3.1350    1.7870  -18.7530 H   0  0  0  0  0  0  0  0  0  0  0  0
   -4.7280    0.6210  -17.2050 H   0  0  0  0  0  0  0  0  0  0  0  0
   -7.7380   -1.8000  -18.6560 H   0  0  0  0  0  0  0  0  0  0  0  0
   -7.5960   -2.6420  -21.5100 C   0  0  0  0  0  0  0  0  0  0  0  0
   -6.9200   -3.5230  -21.0140 O   0  0  0  0  0  0  0  0  0  0  0  0
   -8.7740   -2.8120  -22.4850 C   0  0  1  0  0  0  0  0  0  0  0  0
   -9.9770   -3.2930  -21.6330 C   0  0  0  0  0  0  0  0  0  0  0  0
  -11.1000   -3.7890  -22.4350 N   0  0  0  0  0  0  0  0  0  0  0  0
  -12.4740   -3.7670  -21.9240 C   0  0  0  0  0  0  0  0  0  0  0  0
  -13.3320   -2.6490  -22.4530 C   0  0  0  0  0  0  0  0  0  0  0  0
  -14.0500   -1.6740  -21.7210 C   0  0  0  0  0  0  0  0  0  0  0  0
  -14.8190   -1.0250  -22.6590 C   0  0  0  0  0  0  0  0  0  0  0  0
  -14.5050   -1.5830  -23.8540 N   0  0  0  0  0  0  0  0  0  0  0  0
  -13.6090   -2.5780  -23.7500 N   0  0  0  0  0  0  0  0  0  0  0  0
  -14.9820   -1.4810  -24.7370 H   0  0  0  0  0  0  0  0  0  0  0  0
  -15.5390   -0.2200  -22.5570 H   0  0  0  0  0  0  0  0  0  0  0  0
  -14.0110   -1.5150  -20.6500 H   0  0  0  0  0  0  0  0  0  0  0  0
  -12.9430   -4.6970  -22.2670 H   0  0  0  0  0  0  0  0  0  0  0  0
  -12.5000   -3.7640  -20.8290 H   0  0  0  0  0  0  0  0  0  0  0  0
  -10.9140   -4.5150  -23.5860 C   0  0  0  0  0  0  0  0  0  0  0  0
  -11.8480   -5.0340  -24.1830 O   0  0  0  0  0  0  0  0  0  0  0  0
   -9.5080   -4.6620  -24.0590 C   0  0  0  0  0  0  0  0  0  0  0  0
   -9.2530   -5.6350  -25.0290 C   0  0  0  0  0  0  0  0  0  0  0  0
   -7.9690   -5.8660  -25.4840 C   0  0  0  0  0  0  0  0  0  0  0  0
   -6.9630   -5.0610  -24.9690 C   0  0  0  0  0  0  0  0  0  0  0  0
   -5.7120   -5.2730  -25.4060 F   0  0  0  0  0  0  0  0  0  0  0  0
   -7.1830   -4.0840  -24.0150 C   0  0  0  0  0  0  0  0  0  0  0  0
   -8.4830   -3.8690  -23.5340 C   0  0  0  0  0  0  0  0  0  0  0  0
   -6.3340   -3.5080  -23.6690 H   0  0  0  0  0  0  0  0  0  0  0  0
   -7.7450   -6.6220  -26.2300 H   0  0  0  0  0  0  0  0  0  0  0  0
  -10.0820   -6.2150  -25.4150 H   0  0  0  0  0  0  0  0  0  0  0  0
  -10.3080   -2.4610  -21.0010 H   0  0  0  0  0  0  0  0  0  0  0  0
   -9.6070   -4.0750  -20.9610 H   0  0  0  0  0  0  0  0  0  0  0  0
   -9.1830   -0.1630  -21.1800 H   0  0  0  0  0  0  0  0  0  0  0  0
   -7.9400    0.4630  -22.2740 H   0  0  0  0  0  0  0  0  0  0  0  0
   -8.3290   -1.2510  -23.9000 H   0  0  0  0  0  0  0  0  0  0  0  0
  -11.0680   -0.9710  -22.5240 H   0  0  0  0  0  0  0  0  0  0  0  0
  -10.4450    0.0320  -23.8450 H   0  0  0  0  0  0  0  0  0  0  0  0
  -10.8230   -1.6830  -24.1180 H   0  0  0  0  0  0  0  0  0  0  0  0
  1  2  1  0  0  0  0
  1 54  1  0  0  0  0
  1 55  1  0  0  0  0
  1 56  1  0  0  0  0
  2  3  1  0  0  0  0
  2 23  1  0  0  0  0
  2 53  1  6  0  0  0
  3  4  1  0  0  0  0
  3 51  1  0  0  0  0
  3 52  1  0  0  0  0
  4  5  1  0  0  0  0
  4 21  1  0  0  0  0
  5  6  2  0  0  0  0
  5 14  1  0  0  0  0
  6  7  1  0  0  0  0
  6 20  1  0  0  0  0
  7  8  2  0  0  0  0
  8  9  1  0  0  0  0
  8 19  1  0  0  0  0
  9 10  2  0  0  0  0
  9 14  1  0  0  0  0
 10 11  1  0  0  0  0
 10 18  1  0  0  0  0
 11 12  2  0  0  0  0
 11 17  1  0  0  0  0
 12 13  1  0  0  0  0
 12 16  1  0  0  0  0
 13 14  2  0  0  0  0
 13 15  1  0  0  0  0
 21 22  2  0  0  0  0
 23 21  1  1  0  0  0
 23 24  1  0  0  0  0
 23 45  1  0  0  0  0
 24 25  1  0  0  0  0
 24 49  1  0  0  0  0
 24 50  1  0  0  0  0
 25 26  1  0  0  0  0
 25 37  1  0  0  0  0
 26 27  1  0  0  0  0
 26 35  1  0  0  0  0
 26 36  1  0  0  0  0
 27 28  1  0  0  0  0
 27 31  2  0  0  0  0
 28 29  2  0  0  0  0
 28 34  1  0  0  0  0
 29 30  1  0  0  0  0
 29 33  1  0  0  0  0
 30 31  1  0  0  0  0
 30 32  1  0  0  0  0
 37 38  2  0  0  0  0
 37 39  1  0  0  0  0
 39 40  2  0  0  0  0
 39 45  1  0  0  0  0
 40 41  1  0  0  0  0
 40 48  1  0  0  0  0
 41 42  2  0  0  0  0
 41 47  1  0  0  0  0
 42 43  1  0  0  0  0
 42 44  1  0  0  0  0
 44 45  2  0  0  0  0
 44 46  1  0  0  0  0
M  END
>  <MODEL>
       1

$$$$
