output/tmp_first_model_5_29.pdb
 OpenBabel07242615323D

 55 60  0  0  1  0  0  0  0  0999 V2000
  -10.1050   -0.9650  -23.6350 C   0  0  0  0  0  0  0  0  0  0  0  0
   -8.7780   -1.4330  -23.0630 C   0  0  1  0  0  0  0  0  0  0  0  0
   -8.3630   -0.7220  -21.7700 C   0  0  0  0  0  0  0  0  0  0  0  0
   -7.2530   -1.5580  -21.3250 N   0  0  0  0  0  0  0  0  0  0  0  0
   -6.2820   -1.2540  -20.3490 C   0  0  0  0  0  0  0  0  0  0  0  0
   -6.2720   -1.9560  -19.1680 C   0  0  0  0  0  0  0  0  0  0  0  0
   -5.3500   -1.7980  -18.1910 N   0  0  0  0  0  0  0  0  0  0  0  0
   -4.3800   -0.9450  -18.4170 C   0  0  0  0  0  0  0  0  0  0  0  0
   -4.2510   -0.1770  -19.6040 C   0  0  0  0  0  0  0  0  0  0  0  0
   -3.1620    0.7140  -19.8030 C   0  0  0  0  0  0  0  0  0  0  0  0
   -3.1460    1.5540  -20.8800 C   0  0  0  0  0  0  0  0  0  0  0  0
   -4.1840    1.5000  -21.8380 C   0  0  0  0  0  0  0  0  0  0  0  0
   -5.2170    0.6060  -21.6970 C   0  0  0  0  0  0  0  0  0  0  0  0
   -5.2720   -0.2650  -20.5760 C   0  0  0  0  0  0  0  0  0  0  0  0
   -5.9990    0.5690  -22.4460 H   0  0  0  0  0  0  0  0  0  0  0  0
   -4.1560    2.1600  -22.6990 H   0  0  0  0  0  0  0  0  0  0  0  0
   -2.3250    2.2500  -21.0200 H   0  0  0  0  0  0  0  0  0  0  0  0
   -2.3830    0.7530  -19.0490 H   0  0  0  0  0  0  0  0  0  0  0  0
   -3.6370   -0.8230  -17.6300 H   0  0  0  0  0  0  0  0  0  0  0  0
   -7.0470   -2.6950  -18.9750 H   0  0  0  0  0  0  0  0  0  0  0  0
   -7.3910   -2.8630  -21.7630 C   0  0  0  0  0  0  0  0  0  0  0  0
   -6.6660   -3.7790  -21.4280 O   0  0  0  0  0  0  0  0  0  0  0  0
   -8.6150   -2.9460  -22.6870 C   0  0  1  0  0  0  0  0  0  0  0  0
   -9.7400   -3.5390  -21.8090 C   0  0  0  0  0  0  0  0  0  0  0  0
  -10.9910   -3.7630  -22.5460 N   0  0  0  0  0  0  0  0  0  0  0  0
  -12.1470   -4.0370  -21.7880 C   0  0  0  0  0  0  0  0  0  0  0  0
  -13.3680   -3.0350  -21.5120 C   0  0  0  0  0  0  0  0  0  0  0  0
  -14.4700   -3.9430  -21.8090 C   0  0  0  0  0  0  0  0  0  0  0  0
  -15.1500   -1.4300  -22.8820 N   0  0  0  0  0  0  0  0  0  0  0  0
  -14.1850   -1.7590  -23.5640 N   0  0  0  0  0  0  0  0  0  0  0  0
  -13.3720   -3.0520  -21.5160 N   0  0  0  0  0  0  0  0  0  0  0  0
  -14.3190   -1.3170  -24.4890 H   0  0  0  0  0  0  0  0  0  0  0  0
  -15.1630   -1.7930  -21.9100 H   0  0  0  0  0  0  0  0  0  0  0  0
  -12.0930   -4.3420  -20.7780 H   0  0  0  0  0  0  0  0  0  0  0  0
  -12.9870   -4.4970  -22.2400 H   0  0  0  0  0  0  0  0  0  0  0  0
  -10.9050   -4.3900  -23.7960 C   0  0  0  0  0  0  0  0  0  0  0  0
  -11.9000   -4.7450  -24.4030 O   0  0  0  0  0  0  0  0  0  0  0  0
   -9.5250   -4.6090  -24.3330 C   0  0  0  0  0  0  0  0  0  0  0  0
   -9.3500   -5.5880  -25.3100 C   0  0  0  0  0  0  0  0  0  0  0  0
   -8.0890   -5.8950  -25.7920 C   0  0  0  0  0  0  0  0  0  0  0  0
   -7.0110   -5.1600  -25.3120 C   0  0  0  0  0  0  0  0  0  0  0  0
   -5.7780   -5.4490  -25.7650 F   0  0  0  0  0  0  0  0  0  0  0  0
   -7.1540   -4.1590  -24.3730 C   0  0  0  0  0  0  0  0  0  0  0  0
   -8.4220   -3.9020  -23.8360 C   0  0  0  0  0  0  0  0  0  0  0  0
   -6.2750   -3.6320  -24.0180 H   0  0  0  0  0  0  0  0  0  0  0  0
   -7.9170   -6.6880  -26.5140 H   0  0  0  0  0  0  0  0  0  0  0  0
  -10.2250   -6.1260  -25.6620 H   0  0  0  0  0  0  0  0  0  0  0  0
   -9.3510   -4.4850  -21.4060 H   0  0  0  0  0  0  0  0  0  0  0  0
   -9.9520   -2.8790  -20.9660 H   0  0  0  0  0  0  0  0  0  0  0  0
   -8.0740    0.3220  -21.9090 H   0  0  0  0  0  0  0  0  0  0  0  0
   -9.1890   -0.7340  -21.0390 H   0  0  0  0  0  0  0  0  0  0  0  0
   -7.9860   -1.2440  -23.8000 H   0  0  0  0  0  0  0  0  0  0  0  0
  -10.0940    0.1170  -23.8110 H   0  0  0  0  0  0  0  0  0  0  0  0
  -10.3160   -1.4670  -24.5840 H   0  0  0  0  0  0  0  0  0  0  0  0
  -10.9210   -1.1830  -22.9420 H   0  0  0  0  0  0  0  0  0  0  0  0
  1  2  1  0  0  0  0
  1 53  1  0  0  0  0
  1 54  1  0  0  0  0
  1 55  1  0  0  0  0
  2  3  1  0  0  0  0
  2 23  1  0  0  0  0
  2 52  1  6  0  0  0
  3  4  1  0  0  0  0
  3 50  1  0  0  0  0
  3 51  1  0  0  0  0
  4  5  1  0  0  0  0
  4 21  1  0  0  0  0
  5  6  2  0  0  0  0
  5 14  1  0  0  0  0
  6  7  1  0  0  0  0
  6 20  1  0  0  0  0
  7  8  2  0  0  0  0
  8  9  1  0  0  0  0
  8 19  1  0  0  0  0
  9 10  2  0  0  0  0
  9 14  1  0  0  0  0
 10 11  1  0  0  0  0
 10 18  1  0  0  0  0
 11 12  2  0  0  0  0
 11 17  1  0  0  0  0
 12 13  1  0  0  0  0
 12 16  1  0  0  0  0
 13 14  2  0  0  0  0
 13 15  1  0  0  0  0
 21 22  2  0  0  0  0
 23 21  1  1  0  0  0
 23 24  1  0  0  0  0
 23 44  1  0  0  0  0
 24 25  1  0  0  0  0
 24 48  1  0  0  0  0
 24 49  1  0  0  0  0
 25 26  1  0  0  0  0
 25 36  1  0  0  0  0
 26 27  1  0  0  0  0
 26 34  1  0  0  0  0
 26 35  1  0  0  0  0
 27 28  1  0  0  0  0
 27 31  2  0  0  0  0
 28 29  2  0  0  0  0
 28 33  1  0  0  0  0
 29 30  1  0  0  0  0
 30 31  1  0  0  0  0
 30 32  1  0  0  0  0
 36 37  2  0  0  0  0
 36 38  1  0  0  0  0
 38 39  2  0  0  0  0
 38 44  1  0  0  0  0
 39 40  1  0  0  0  0
 39 47  1  0  0  0  0
 40 41  2  0  0  0  0
 40 46  1  0  0  0  0
 41 42  1  0  0  0  0
 41 43  1  0  0  0  0
 43 44  2  0  0  0  0
 43 45  1  0  0  0  0
M  END
>  <MODEL>
       1

$$$$
