output/tmp_first_model_1_2.pdb
 OpenBabel07242613193D

 60 65  0  0  1  0  0  0  0  0999 V2000
   -5.5270   -1.2600  -31.1680 C   0  0  0  0  0  0  0  0  0  0  0  0
   -5.1390   -1.0020  -29.7410 C   0  0  0  0  0  0  0  0  0  0  0  0
   -5.0320    0.2910  -29.2240 C   0  0  0  0  0  0  0  0  0  0  0  0
   -4.9680    0.5300  -27.9200 N   0  0  0  0  0  0  0  0  0  0  0  0
   -4.9530   -0.5320  -27.1100 C   0  0  0  0  0  0  0  0  0  0  0  0
   -5.1320   -0.2730  -25.6320 C   0  0  0  0  0  0  0  0  0  0  0  0
   -6.3320   -0.8920  -25.0760 N   0  0  0  0  0  0  0  0  0  0  0  0
   -6.2480   -2.0780  -24.2250 C   0  0  0  0  0  0  0  0  0  0  0  0
   -7.4200   -2.1880  -23.1950 C   0  0  2  0  0  0  0  0  0  0  0  0
   -7.2320   -1.1710  -22.0460 C   0  0  0  0  0  0  0  0  0  0  0  0
   -7.6560   -0.0400  -21.9870 O   0  0  0  0  0  0  0  0  0  0  0  0
   -6.4980   -1.7970  -21.0620 N   0  0  0  0  0  0  0  0  0  0  0  0
   -6.0080   -1.0560  -19.9670 C   0  0  0  0  0  0  0  0  0  0  0  0
   -6.4530   -1.2870  -18.6900 C   0  0  0  0  0  0  0  0  0  0  0  0
   -5.9930   -0.6380  -17.5910 N   0  0  0  0  0  0  0  0  0  0  0  0
   -5.0450    0.2550  -17.7570 C   0  0  0  0  0  0  0  0  0  0  0  0
   -4.4850    0.5830  -19.0270 C   0  0  0  0  0  0  0  0  0  0  0  0
   -3.4160    1.5110  -19.1730 C   0  0  0  0  0  0  0  0  0  0  0  0
   -2.9470    1.8380  -20.4170 C   0  0  0  0  0  0  0  0  0  0  0  0
   -3.5450    1.2870  -21.5760 C   0  0  0  0  0  0  0  0  0  0  0  0
   -4.5660    0.3820  -21.4570 C   0  0  0  0  0  0  0  0  0  0  0  0
   -5.0260   -0.0360  -20.1740 C   0  0  0  0  0  0  0  0  0  0  0  0
   -5.0560   -0.0020  -22.3460 H   0  0  0  0  0  0  0  0  0  0  0  0
   -3.1970    1.5920  -22.5620 H   0  0  0  0  0  0  0  0  0  0  0  0
   -2.1220    2.5360  -20.5280 H   0  0  0  0  0  0  0  0  0  0  0  0
   -2.9830    1.9550  -18.2790 H   0  0  0  0  0  0  0  0  0  0  0  0
   -4.6840    0.7690  -16.8620 H   0  0  0  0  0  0  0  0  0  0  0  0
   -7.2470   -2.0160  -18.5230 H   0  0  0  0  0  0  0  0  0  0  0  0
   -6.2540   -3.2090  -21.3360 C   0  0  0  0  0  0  0  0  0  0  0  0
   -7.3530   -3.5130  -22.3680 C   0  0  2  0  0  0  0  0  0  0  0  0
   -7.2010   -4.8080  -23.1600 C   0  0  0  0  0  0  0  0  0  0  0  0
   -8.0150   -4.9180  -23.8870 H   0  0  0  0  0  0  0  0  0  0  0  0
   -6.2470   -4.8340  -23.7010 H   0  0  0  0  0  0  0  0  0  0  0  0
   -7.2320   -5.6920  -22.5140 H   0  0  0  0  0  0  0  0  0  0  0  0
   -8.2720   -3.5590  -21.7670 H   0  0  0  0  0  0  0  0  0  0  0  0
   -5.2450   -3.3840  -21.7430 H   0  0  0  0  0  0  0  0  0  0  0  0
   -6.3290   -3.7950  -20.4180 H   0  0  0  0  0  0  0  0  0  0  0  0
   -8.7180   -1.8710  -23.8820 C   0  0  0  0  0  0  0  0  0  0  0  0
   -9.9350   -2.3030  -23.3500 C   0  0  0  0  0  0  0  0  0  0  0  0
  -11.1160   -1.7930  -23.8510 C   0  0  0  0  0  0  0  0  0  0  0  0
  -12.2540   -2.1830  -23.2520 F   0  0  0  0  0  0  0  0  0  0  0  0
  -11.1630   -0.8750  -24.9010 C   0  0  0  0  0  0  0  0  0  0  0  0
   -9.9570   -0.4720  -25.4410 C   0  0  0  0  0  0  0  0  0  0  0  0
   -8.7520   -0.9570  -24.9370 C   0  0  0  0  0  0  0  0  0  0  0  0
   -7.5100   -0.3770  -25.5230 C   0  0  0  0  0  0  0  0  0  0  0  0
   -7.5610    0.5200  -26.3570 O   0  0  0  0  0  0  0  0  0  0  0  0
   -9.8970    0.2510  -26.2440 H   0  0  0  0  0  0  0  0  0  0  0  0
  -12.1050   -0.4870  -25.2810 H   0  0  0  0  0  0  0  0  0  0  0  0
   -9.9870   -3.0230  -22.5410 H   0  0  0  0  0  0  0  0  0  0  0  0
   -6.2430   -2.9760  -24.8570 H   0  0  0  0  0  0  0  0  0  0  0  0
   -5.2880   -2.0510  -23.6950 H   0  0  0  0  0  0  0  0  0  0  0  0
   -5.2340    0.8080  -25.5010 H   0  0  0  0  0  0  0  0  0  0  0  0
   -4.2680   -0.6160  -25.0570 H   0  0  0  0  0  0  0  0  0  0  0  0
   -4.8030   -1.8140  -27.6460 C   0  0  0  0  0  0  0  0  0  0  0  0
   -4.9310   -2.0600  -28.9490 N   0  0  0  0  0  0  0  0  0  0  0  0
   -4.5980   -2.6780  -27.0150 H   0  0  0  0  0  0  0  0  0  0  0  0
   -5.0180    1.1550  -29.8870 H   0  0  0  0  0  0  0  0  0  0  0  0
   -6.5810   -1.5700  -31.2020 H   0  0  0  0  0  0  0  0  0  0  0  0
   -4.9280   -2.0730  -31.5880 H   0  0  0  0  0  0  0  0  0  0  0  0
   -5.4160   -0.3600  -31.7820 H   0  0  0  0  0  0  0  0  0  0  0  0
  1  2  1  0  0  0  0
  1 58  1  0  0  0  0
  1 59  1  0  0  0  0
  1 60  1  0  0  0  0
  2  3  2  0  0  0  0
  2 55  1  0  0  0  0
  3  4  1  0  0  0  0
  3 57  1  0  0  0  0
  4  5  2  0  0  0  0
  5  6  1  0  0  0  0
  5 54  1  0  0  0  0
  6  7  1  0  0  0  0
  6 52  1  0  0  0  0
  6 53  1  0  0  0  0
  7  8  1  0  0  0  0
  7 45  1  0  0  0  0
  8  9  1  0  0  0  0
  8 50  1  0  0  0  0
  8 51  1  0  0  0  0
  9 10  1  1  0  0  0
  9 30  1  0  0  0  0
  9 38  1  0  0  0  0
 10 11  2  0  0  0  0
 10 12  1  0  0  0  0
 12 13  1  0  0  0  0
 12 29  1  0  0  0  0
 13 14  2  0  0  0  0
 13 22  1  0  0  0  0
 14 15  1  0  0  0  0
 14 28  1  0  0  0  0
 15 16  2  0  0  0  0
 16 17  1  0  0  0  0
 16 27  1  0  0  0  0
 17 18  2  0  0  0  0
 17 22  1  0  0  0  0
 18 19  1  0  0  0  0
 18 26  1  0  0  0  0
 19 20  2  0  0  0  0
 19 25  1  0  0  0  0
 20 21  1  0  0  0  0
 20 24  1  0  0  0  0
 21 22  2  0  0  0  0
 21 23  1  0  0  0  0
 29 30  1  0  0  0  0
 29 36  1  0  0  0  0
 29 37  1  0  0  0  0
 30 31  1  0  0  0  0
 30 35  1  1  0  0  0
 31 32  1  0  0  0  0
 31 33  1  0  0  0  0
 31 34  1  0  0  0  0
 38 39  2  0  0  0  0
 38 44  1  0  0  0  0
 39 40  1  0  0  0  0
 39 49  1  0  0  0  0
 40 41  1  0  0  0  0
 40 42  2  0  0  0  0
 42 43  1  0  0  0  0
 42 48  1  0  0  0  0
 43 44  2  0  0  0  0
 43 47  1  0  0  0  0
 44 45  1  0  0  0  0
 45 46  2  0  0  0  0
 54 55  2  0  0  0  0
 54 56  1  0  0  0  0
M  END
>  <MODEL>
       1

$$$$
