output/tmp_first_model_4_56.pdb
 OpenBabel07242615033D

 57 62  0  0  1  0  0  0  0  0999 V2000
   -8.3020   -4.1380  -23.4880 C   0  0  0  0  0  0  0  0  0  0  0  0
   -8.5420   -2.9760  -22.5440 C   0  0  1  0  0  0  0  0  0  0  0  0
   -7.3820   -2.7890  -21.5680 C   0  0  0  0  0  0  0  0  0  0  0  0
   -7.4220   -1.3870  -21.2370 N   0  0  0  0  0  0  0  0  0  0  0  0
   -6.5280   -0.9190  -20.2430 C   0  0  0  0  0  0  0  0  0  0  0  0
   -6.7550   -1.2660  -18.9350 C   0  0  0  0  0  0  0  0  0  0  0  0
   -5.9090   -1.0150  -17.9080 N   0  0  0  0  0  0  0  0  0  0  0  0
   -4.7870   -0.4000  -18.1830 C   0  0  0  0  0  0  0  0  0  0  0  0
   -4.4340    0.0330  -19.4900 C   0  0  0  0  0  0  0  0  0  0  0  0
   -3.2540    0.7800  -19.7220 C   0  0  0  0  0  0  0  0  0  0  0  0
   -2.9930    1.2810  -20.9690 C   0  0  0  0  0  0  0  0  0  0  0  0
   -3.8450    0.9740  -22.0550 C   0  0  0  0  0  0  0  0  0  0  0  0
   -4.9650    0.2110  -21.8640 C   0  0  0  0  0  0  0  0  0  0  0  0
   -5.3140   -0.2380  -20.5610 C   0  0  0  0  0  0  0  0  0  0  0  0
   -5.5920   -0.0580  -22.7080 H   0  0  0  0  0  0  0  0  0  0  0  0
   -3.6200    1.3700  -23.0420 H   0  0  0  0  0  0  0  0  0  0  0  0
   -2.1330    1.9250  -21.1280 H   0  0  0  0  0  0  0  0  0  0  0  0
   -2.6200    0.9950  -18.8670 H   0  0  0  0  0  0  0  0  0  0  0  0
   -4.0810   -0.2180  -17.3670 H   0  0  0  0  0  0  0  0  0  0  0  0
   -7.6720   -1.7990  -18.6890 H   0  0  0  0  0  0  0  0  0  0  0  0
   -8.1540   -0.6230  -22.1250 C   0  0  0  0  0  0  0  0  0  0  0  0
   -8.2620    0.5810  -22.0770 O   0  0  0  0  0  0  0  0  0  0  0  0
   -8.7590   -1.5630  -23.1930 C   0  0  1  0  0  0  0  0  0  0  0  0
   -7.9710   -1.3030  -24.5000 C   0  0  0  0  0  0  0  0  0  0  0  0
   -8.6140   -1.8760  -25.6770 N   0  0  0  0  0  0  0  0  0  0  0  0
   -7.7940   -2.3040  -26.8020 C   0  0  0  0  0  0  0  0  0  0  0  0
   -7.6950   -3.8100  -26.8600 C   0  0  0  0  0  0  0  0  0  0  0  0
   -6.5250   -4.3490  -26.5200 N   0  0  0  0  0  0  0  0  0  0  0  0
   -6.4370   -5.6770  -26.6590 C   0  0  0  0  0  0  0  0  0  0  0  0
   -7.4940   -6.4590  -27.0830 C   0  0  0  0  0  0  0  0  0  0  0  0
   -8.6790   -5.7910  -27.3510 C   0  0  0  0  0  0  0  0  0  0  0  0
   -8.8000   -4.4730  -27.2310 N   0  0  0  0  0  0  0  0  0  0  0  0
   -9.5630   -6.3360  -27.6800 H   0  0  0  0  0  0  0  0  0  0  0  0
   -7.4050   -7.5340  -27.2030 H   0  0  0  0  0  0  0  0  0  0  0  0
   -5.4720   -6.1250  -26.4320 H   0  0  0  0  0  0  0  0  0  0  0  0
   -8.2720   -1.9250  -27.7120 H   0  0  0  0  0  0  0  0  0  0  0  0
   -6.7940   -1.8730  -26.7060 H   0  0  0  0  0  0  0  0  0  0  0  0
   -9.9530   -1.7290  -25.9150 C   0  0  0  0  0  0  0  0  0  0  0  0
  -10.4490   -1.9120  -27.0200 O   0  0  0  0  0  0  0  0  0  0  0  0
  -10.7760   -1.3590  -24.7360 C   0  0  0  0  0  0  0  0  0  0  0  0
  -12.1360   -1.1580  -24.9520 C   0  0  0  0  0  0  0  0  0  0  0  0
  -12.9860   -0.8700  -23.9080 C   0  0  0  0  0  0  0  0  0  0  0  0
  -12.4290   -0.7910  -22.6400 C   0  0  0  0  0  0  0  0  0  0  0  0
  -13.2610   -0.5320  -21.6260 F   0  0  0  0  0  0  0  0  0  0  0  0
  -11.0810   -0.9880  -22.3930 C   0  0  0  0  0  0  0  0  0  0  0  0
  -10.2220   -1.2700  -23.4570 C   0  0  0  0  0  0  0  0  0  0  0  0
  -10.6910   -0.9300  -21.3850 H   0  0  0  0  0  0  0  0  0  0  0  0
  -14.0500   -0.7110  -24.0520 H   0  0  0  0  0  0  0  0  0  0  0  0
  -12.5020   -1.2470  -25.9650 H   0  0  0  0  0  0  0  0  0  0  0  0
   -6.9600   -1.7200  -24.4130 H   0  0  0  0  0  0  0  0  0  0  0  0
   -7.8620   -0.2150  -24.6290 H   0  0  0  0  0  0  0  0  0  0  0  0
   -7.4980   -3.3550  -20.6510 H   0  0  0  0  0  0  0  0  0  0  0  0
   -6.4130   -3.0780  -22.0080 H   0  0  0  0  0  0  0  0  0  0  0  0
   -9.4500   -3.1750  -21.9520 H   0  0  0  0  0  0  0  0  0  0  0  0
   -7.3450   -4.0120  -24.0030 H   0  0  0  0  0  0  0  0  0  0  0  0
   -8.2600   -5.0730  -22.9190 H   0  0  0  0  0  0  0  0  0  0  0  0
   -9.0960   -4.2070  -24.2360 H   0  0  0  0  0  0  0  0  0  0  0  0
  1  2  1  0  0  0  0
  1 55  1  0  0  0  0
  1 56  1  0  0  0  0
  1 57  1  0  0  0  0
  2  3  1  0  0  0  0
  2 23  1  0  0  0  0
  2 54  1  1  0  0  0
  3  4  1  0  0  0  0
  3 52  1  0  0  0  0
  3 53  1  0  0  0  0
  4  5  1  0  0  0  0
  4 21  1  0  0  0  0
  5  6  2  0  0  0  0
  5 14  1  0  0  0  0
  6  7  1  0  0  0  0
  6 20  1  0  0  0  0
  7  8  2  0  0  0  0
  8  9  1  0  0  0  0
  8 19  1  0  0  0  0
  9 10  2  0  0  0  0
  9 14  1  0  0  0  0
 10 11  1  0  0  0  0
 10 18  1  0  0  0  0
 11 12  2  0  0  0  0
 11 17  1  0  0  0  0
 12 13  1  0  0  0  0
 12 16  1  0  0  0  0
 13 14  2  0  0  0  0
 13 15  1  0  0  0  0
 21 22  2  0  0  0  0
 23 21  1  1  0  0  0
 23 24  1  0  0  0  0
 23 46  1  0  0  0  0
 24 25  1  0  0  0  0
 24 50  1  0  0  0  0
 24 51  1  0  0  0  0
 25 26  1  0  0  0  0
 25 38  1  0  0  0  0
 26 27  1  0  0  0  0
 26 36  1  0  0  0  0
 26 37  1  0  0  0  0
 27 28  2  0  0  0  0
 27 32  1  0  0  0  0
 28 29  1  0  0  0  0
 29 30  2  0  0  0  0
 29 35  1  0  0  0  0
 30 31  1  0  0  0  0
 30 34  1  0  0  0  0
 31 32  2  0  0  0  0
 31 33  1  0  0  0  0
 38 39  2  0  0  0  0
 38 40  1  0  0  0  0
 40 41  2  0  0  0  0
 40 46  1  0  0  0  0
 41 42  1  0  0  0  0
 41 49  1  0  0  0  0
 42 43  2  0  0  0  0
 42 48  1  0  0  0  0
 43 44  1  0  0  0  0
 43 45  1  0  0  0  0
 45 46  2  0  0  0  0
 45 47  1  0  0  0  0
M  END
>  <MODEL>
       1

$$$$
