output/tmp_first_model_5_34.pdb
 OpenBabel07242615323D

 66 70  0  0  1  0  0  0  0  0999 V2000
   -7.3720    3.5430  -22.6930 C   0  0  0  0  0  0  0  0  0  0  0  0
   -8.3160    2.9670  -23.6330 N   0  0  0  0  0  0  0  0  0  0  0  0
   -7.8800    2.0420  -24.5290 C   0  0  0  0  0  0  0  0  0  0  0  0
   -6.6960    1.7670  -24.6780 O   0  0  0  0  0  0  0  0  0  0  0  0
   -8.9790    1.3320  -25.3300 C   0  0  0  0  0  0  0  0  0  0  0  0
   -9.5170    0.2020  -24.6020 N   0  0  0  0  0  0  0  0  0  0  0  0
   -8.6790   -0.9850  -24.4580 C   0  0  0  0  0  0  0  0  0  0  0  0
   -8.9220   -1.7060  -23.0440 C   0  0  2  0  0  0  0  0  0  0  0  0
   -8.2250   -0.7580  -21.9970 C   0  0  0  0  0  0  0  0  0  0  0  0
   -8.4020    0.4380  -21.8820 O   0  0  0  0  0  0  0  0  0  0  0  0
   -7.3580   -1.4980  -21.2450 N   0  0  0  0  0  0  0  0  0  0  0  0
   -6.5230   -0.9550  -20.2410 C   0  0  0  0  0  0  0  0  0  0  0  0
   -6.8020   -1.1810  -18.9180 C   0  0  0  0  0  0  0  0  0  0  0  0
   -5.9880   -0.8280  -17.8940 N   0  0  0  0  0  0  0  0  0  0  0  0
   -4.8440   -0.2660  -18.2090 C   0  0  0  0  0  0  0  0  0  0  0  0
   -4.4390    0.0340  -19.5490 C   0  0  0  0  0  0  0  0  0  0  0  0
   -3.2770    0.8250  -19.8140 C   0  0  0  0  0  0  0  0  0  0  0  0
   -3.1370    1.4640  -21.0150 C   0  0  0  0  0  0  0  0  0  0  0  0
   -4.0250    1.1710  -22.0810 C   0  0  0  0  0  0  0  0  0  0  0  0
   -5.0610    0.2910  -21.8940 C   0  0  0  0  0  0  0  0  0  0  0  0
   -5.3420   -0.2350  -20.6000 C   0  0  0  0  0  0  0  0  0  0  0  0
   -5.6870    0.0140  -22.7360 H   0  0  0  0  0  0  0  0  0  0  0  0
   -3.8570    1.6110  -23.0610 H   0  0  0  0  0  0  0  0  0  0  0  0
   -2.3060    2.1410  -21.1760 H   0  0  0  0  0  0  0  0  0  0  0  0
   -2.6170    1.0580  -18.9780 H   0  0  0  0  0  0  0  0  0  0  0  0
   -4.2100    0.0650  -17.3820 H   0  0  0  0  0  0  0  0  0  0  0  0
   -7.7420   -1.6520  -18.6330 H   0  0  0  0  0  0  0  0  0  0  0  0
   -7.3620   -2.9110  -21.5260 C   0  0  0  0  0  0  0  0  0  0  0  0
   -8.1680   -3.0500  -22.8340 C   0  0  2  0  0  0  0  0  0  0  0  0
   -7.2560   -3.4780  -23.9770 C   0  0  0  0  0  0  0  0  0  0  0  0
   -6.2080   -2.5410  -24.0750 O   0  0  0  0  0  0  0  0  0  0  0  0
   -5.3150   -2.7340  -25.1560 C   0  0  0  0  0  0  0  0  0  0  0  0
   -5.6390   -1.8140  -26.3320 C   0  0  0  0  0  0  0  0  0  0  0  0
   -6.6270   -2.0170  -26.7580 H   0  0  0  0  0  0  0  0  0  0  0  0
   -5.6090   -0.7630  -26.0130 H   0  0  0  0  0  0  0  0  0  0  0  0
   -4.8900   -1.9500  -27.1240 H   0  0  0  0  0  0  0  0  0  0  0  0
   -3.9640   -2.3830  -24.5950 C   0  0  0  0  0  0  0  0  0  0  0  0
   -3.1890   -2.4630  -25.3660 H   0  0  0  0  0  0  0  0  0  0  0  0
   -3.6940   -3.0120  -23.7420 H   0  0  0  0  0  0  0  0  0  0  0  0
   -4.0430   -1.3440  -24.2410 H   0  0  0  0  0  0  0  0  0  0  0  0
   -5.3440   -3.7870  -25.4760 H   0  0  0  0  0  0  0  0  0  0  0  0
   -6.8380   -4.4790  -23.7900 H   0  0  0  0  0  0  0  0  0  0  0  0
   -7.8160   -3.5270  -24.9190 H   0  0  0  0  0  0  0  0  0  0  0  0
   -8.9600   -3.7960  -22.7090 H   0  0  0  0  0  0  0  0  0  0  0  0
   -7.8400   -3.4390  -20.7020 H   0  0  0  0  0  0  0  0  0  0  0  0
   -6.3350   -3.2770  -21.6210 H   0  0  0  0  0  0  0  0  0  0  0  0
  -10.4180   -1.9120  -22.8170 C   0  0  0  0  0  0  0  0  0  0  0  0
  -11.1560   -2.9800  -22.2490 C   0  0  0  0  0  0  0  0  0  0  0  0
  -12.6040   -2.5580  -22.3360 C   0  0  0  0  0  0  0  0  0  0  0  0
  -12.6600   -4.1450  -20.5160 Cl  0  0  0  0  0  0  0  0  0  0  0  0
  -12.6240   -2.5410  -22.3600 C   0  0  0  0  0  0  0  0  0  0  0  0
  -12.5540   -1.1660  -23.1440 C   0  0  0  0  0  0  0  0  0  0  0  0
  -11.2840   -0.9200  -23.3620 C   0  0  0  0  0  0  0  0  0  0  0  0
  -10.8160    0.2530  -24.1600 C   0  0  0  0  0  0  0  0  0  0  0  0
  -11.5620    1.1930  -24.4000 O   0  0  0  0  0  0  0  0  0  0  0  0
  -13.5290   -1.0300  -23.5100 H   0  0  0  0  0  0  0  0  0  0  0  0
  -13.7380   -2.5600  -22.7730 H   0  0  0  0  0  0  0  0  0  0  0  0
  -11.4100   -2.9910  -21.2840 H   0  0  0  0  0  0  0  0  0  0  0  0
   -8.8570   -1.6660  -25.3090 H   0  0  0  0  0  0  0  0  0  0  0  0
   -7.6440   -0.6620  -24.5360 H   0  0  0  0  0  0  0  0  0  0  0  0
   -9.8150    2.0040  -25.5470 H   0  0  0  0  0  0  0  0  0  0  0  0
   -8.5320    0.9850  -26.2690 H   0  0  0  0  0  0  0  0  0  0  0  0
   -9.2930    2.9470  -23.3720 H   0  0  0  0  0  0  0  0  0  0  0  0
   -6.6460    4.1580  -23.2310 H   0  0  0  0  0  0  0  0  0  0  0  0
   -6.8240    2.7580  -22.1510 H   0  0  0  0  0  0  0  0  0  0  0  0
   -7.9110    4.1740  -21.9840 H   0  0  0  0  0  0  0  0  0  0  0  0
  1  2  1  0  0  0  0
  1 64  1  0  0  0  0
  1 65  1  0  0  0  0
  1 66  1  0  0  0  0
  2  3  1  0  0  0  0
  2 63  1  0  0  0  0
  3  4  2  0  0  0  0
  3  5  1  0  0  0  0
  5  6  1  0  0  0  0
  5 61  1  0  0  0  0
  5 62  1  0  0  0  0
  6  7  1  0  0  0  0
  6 54  1  0  0  0  0
  7  8  1  0  0  0  0
  7 59  1  0  0  0  0
  7 60  1  0  0  0  0
  8  9  1  1  0  0  0
  8 29  1  0  0  0  0
  8 47  1  0  0  0  0
  9 10  2  0  0  0  0
  9 11  1  0  0  0  0
 11 12  1  0  0  0  0
 11 28  1  0  0  0  0
 12 13  2  0  0  0  0
 12 21  1  0  0  0  0
 13 14  1  0  0  0  0
 13 27  1  0  0  0  0
 14 15  2  0  0  0  0
 15 16  1  0  0  0  0
 15 26  1  0  0  0  0
 16 17  2  0  0  0  0
 16 21  1  0  0  0  0
 17 18  1  0  0  0  0
 17 25  1  0  0  0  0
 18 19  2  0  0  0  0
 18 24  1  0  0  0  0
 19 20  1  0  0  0  0
 19 23  1  0  0  0  0
 20 21  2  0  0  0  0
 20 22  1  0  0  0  0
 28 29  1  0  0  0  0
 28 45  1  0  0  0  0
 28 46  1  0  0  0  0
 29 30  1  0  0  0  0
 29 44  1  1  0  0  0
 30 31  1  0  0  0  0
 30 42  1  0  0  0  0
 30 43  1  0  0  0  0
 31 32  1  0  0  0  0
 32 33  1  0  0  0  0
 32 37  1  0  0  0  0
 32 41  1  0  0  0  0
 33 34  1  0  0  0  0
 33 35  1  0  0  0  0
 33 36  1  0  0  0  0
 37 38  1  0  0  0  0
 37 39  1  0  0  0  0
 37 40  1  0  0  0  0
 47 48  2  0  0  0  0
 47 53  1  0  0  0  0
 48 49  1  0  0  0  0
 48 58  1  0  0  0  0
 49 50  1  0  0  0  0
 49 51  2  0  0  0  0
 51 52  1  0  0  0  0
 51 57  1  0  0  0  0
 52 53  2  0  0  0  0
 52 56  1  0  0  0  0
 53 54  1  0  0  0  0
 54 55  2  0  0  0  0
M  END
>  <MODEL>
       1

$$$$
