output/tmp_first_model_12_37.pdb
 OpenBabel07242619253D

 56 60  0  0  1  0  0  0  0  0999 V2000
   -6.8260    3.5770  -23.2080 C   0  0  0  0  0  0  0  0  0  0  0  0
   -7.7080    2.9570  -24.1770 N   0  0  0  0  0  0  0  0  0  0  0  0
   -7.2870    1.8510  -24.8340 C   0  0  0  0  0  0  0  0  0  0  0  0
   -6.1470    1.4110  -24.7550 O   0  0  0  0  0  0  0  0  0  0  0  0
   -8.3620    1.1600  -25.6750 C   0  0  0  0  0  0  0  0  0  0  0  0
   -9.1790    0.3010  -24.8350 N   0  0  0  0  0  0  0  0  0  0  0  0
   -8.6880   -1.0220  -24.5000 C   0  0  0  0  0  0  0  0  0  0  0  0
   -9.0000   -1.4180  -23.0330 C   0  0  2  0  0  0  0  0  0  0  0  0
   -8.2030   -0.4970  -22.0840 C   0  0  0  0  0  0  0  0  0  0  0  0
   -8.1870    0.7160  -22.1000 O   0  0  0  0  0  0  0  0  0  0  0  0
   -7.4560   -1.2730  -21.2250 N   0  0  0  0  0  0  0  0  0  0  0  0
   -6.6580   -0.7360  -20.1930 C   0  0  0  0  0  0  0  0  0  0  0  0
   -6.8990   -1.0820  -18.8850 C   0  0  0  0  0  0  0  0  0  0  0  0
   -6.2010   -0.6170  -17.8220 N   0  0  0  0  0  0  0  0  0  0  0  0
   -5.2010    0.1950  -18.0660 C   0  0  0  0  0  0  0  0  0  0  0  0
   -4.8060    0.5910  -19.3760 C   0  0  0  0  0  0  0  0  0  0  0  0
   -3.6700    1.4200  -19.5890 C   0  0  0  0  0  0  0  0  0  0  0  0
   -3.3170    1.8080  -20.8530 C   0  0  0  0  0  0  0  0  0  0  0  0
   -4.0920    1.3960  -21.9590 C   0  0  0  0  0  0  0  0  0  0  0  0
   -5.1790    0.5730  -21.7830 C   0  0  0  0  0  0  0  0  0  0  0  0
   -5.5610    0.1390  -20.4800 C   0  0  0  0  0  0  0  0  0  0  0  0
   -5.7680    0.2970  -22.6490 H   0  0  0  0  0  0  0  0  0  0  0  0
   -3.8490    1.7450  -22.9600 H   0  0  0  0  0  0  0  0  0  0  0  0
   -2.4470    2.4400  -21.0100 H   0  0  0  0  0  0  0  0  0  0  0  0
   -3.1010    1.7410  -18.7220 H   0  0  0  0  0  0  0  0  0  0  0  0
   -4.6410    0.5720  -17.2100 H   0  0  0  0  0  0  0  0  0  0  0  0
   -7.7190   -1.7570  -18.6460 H   0  0  0  0  0  0  0  0  0  0  0  0
   -7.8060   -2.6800  -21.2890 C   0  0  0  0  0  0  0  0  0  0  0  0
   -8.4910   -2.8420  -22.6610 C   0  0  2  0  0  0  0  0  0  0  0  0
   -7.5900   -3.5400  -23.6860 C   0  0  0  0  0  0  0  0  0  0  0  0
   -8.1160   -3.6590  -24.6390 H   0  0  0  0  0  0  0  0  0  0  0  0
   -7.3340   -4.5470  -23.3350 H   0  0  0  0  0  0  0  0  0  0  0  0
   -6.6610   -2.9890  -23.8670 H   0  0  0  0  0  0  0  0  0  0  0  0
   -9.3530   -3.4980  -22.5530 H   0  0  0  0  0  0  0  0  0  0  0  0
   -6.9030   -3.2900  -21.1870 H   0  0  0  0  0  0  0  0  0  0  0  0
   -8.4940   -2.9420  -20.4740 H   0  0  0  0  0  0  0  0  0  0  0  0
  -10.5060   -1.2290  -22.8430 C   0  0  0  0  0  0  0  0  0  0  0  0
  -11.3150   -2.1020  -22.1030 C   0  0  0  0  0  0  0  0  0  0  0  0
  -12.6740   -1.8770  -21.9900 C   0  0  0  0  0  0  0  0  0  0  0  0
  -13.2640   -0.7570  -22.5720 C   0  0  0  0  0  0  0  0  0  0  0  0
  -12.4800    0.1360  -23.2810 C   0  0  0  0  0  0  0  0  0  0  0  0
  -11.1230   -0.1260  -23.4490 C   0  0  0  0  0  0  0  0  0  0  0  0
  -10.3410    0.7980  -24.3370 C   0  0  0  0  0  0  0  0  0  0  0  0
  -10.7230    1.9380  -24.6040 O   0  0  0  0  0  0  0  0  0  0  0  0
  -12.8940    1.0030  -23.7840 H   0  0  0  0  0  0  0  0  0  0  0  0
  -14.3300   -0.6090  -22.4950 H   0  0  0  0  0  0  0  0  0  0  0  0
  -13.2910   -2.5610  -21.4100 H   0  0  0  0  0  0  0  0  0  0  0  0
  -10.9260   -2.9920  -21.6140 H   0  0  0  0  0  0  0  0  0  0  0  0
   -9.1460   -1.7700  -25.1580 H   0  0  0  0  0  0  0  0  0  0  0  0
   -7.6120   -1.0110  -24.6730 H   0  0  0  0  0  0  0  0  0  0  0  0
   -9.0230    1.8950  -26.1400 H   0  0  0  0  0  0  0  0  0  0  0  0
   -7.8690    0.5640  -26.4490 H   0  0  0  0  0  0  0  0  0  0  0  0
   -8.7070    3.0830  -24.0560 H   0  0  0  0  0  0  0  0  0  0  0  0
   -7.3290    4.4310  -22.7490 H   0  0  0  0  0  0  0  0  0  0  0  0
   -5.9130    3.9210  -23.7040 H   0  0  0  0  0  0  0  0  0  0  0  0
   -6.5450    2.8570  -22.4280 H   0  0  0  0  0  0  0  0  0  0  0  0
  1  2  1  0  0  0  0
  1 54  1  0  0  0  0
  1 55  1  0  0  0  0
  1 56  1  0  0  0  0
  2  3  1  0  0  0  0
  2 53  1  0  0  0  0
  3  4  2  0  0  0  0
  3  5  1  0  0  0  0
  5  6  1  0  0  0  0
  5 51  1  0  0  0  0
  5 52  1  0  0  0  0
  6  7  1  0  0  0  0
  6 43  1  0  0  0  0
  7  8  1  0  0  0  0
  7 49  1  0  0  0  0
  7 50  1  0  0  0  0
  8  9  1  1  0  0  0
  8 29  1  0  0  0  0
  8 37  1  0  0  0  0
  9 10  2  0  0  0  0
  9 11  1  0  0  0  0
 11 12  1  0  0  0  0
 11 28  1  0  0  0  0
 12 13  2  0  0  0  0
 12 21  1  0  0  0  0
 13 14  1  0  0  0  0
 13 27  1  0  0  0  0
 14 15  2  0  0  0  0
 15 16  1  0  0  0  0
 15 26  1  0  0  0  0
 16 17  2  0  0  0  0
 16 21  1  0  0  0  0
 17 18  1  0  0  0  0
 17 25  1  0  0  0  0
 18 19  2  0  0  0  0
 18 24  1  0  0  0  0
 19 20  1  0  0  0  0
 19 23  1  0  0  0  0
 20 21  2  0  0  0  0
 20 22  1  0  0  0  0
 28 29  1  0  0  0  0
 28 35  1  0  0  0  0
 28 36  1  0  0  0  0
 29 30  1  0  0  0  0
 29 34  1  1  0  0  0
 30 31  1  0  0  0  0
 30 32  1  0  0  0  0
 30 33  1  0  0  0  0
 37 38  2  0  0  0  0
 37 42  1  0  0  0  0
 38 39  1  0  0  0  0
 38 48  1  0  0  0  0
 39 40  2  0  0  0  0
 39 47  1  0  0  0  0
 40 41  1  0  0  0  0
 40 46  1  0  0  0  0
 41 42  2  0  0  0  0
 41 45  1  0  0  0  0
 42 43  1  0  0  0  0
 43 44  2  0  0  0  0
M  END
>  <MODEL>
       1

$$$$
