output/tmp_first_model_9_79.pdb
 OpenBabel07242617433D

 45 49  0  0  0  0  0  0  0  0999 V2000
   -9.4300   -4.0790  -22.3480 C   0  0  0  0  0  0  0  0  0  0  0  0
   -8.7350   -2.8220  -22.1630 N   0  0  0  0  0  0  0  0  0  0  0  0
   -7.5680   -2.7210  -21.4510 C   0  0  0  0  0  0  0  0  0  0  0  0
   -6.8610   -3.6190  -21.0600 O   0  0  0  0  0  0  0  0  0  0  0  0
   -7.3320   -1.3420  -21.2760 N   0  0  0  0  0  0  0  0  0  0  0  0
   -6.5370   -0.8150  -20.2220 C   0  0  0  0  0  0  0  0  0  0  0  0
   -6.8760   -1.0580  -18.9150 C   0  0  0  0  0  0  0  0  0  0  0  0
   -6.2100   -0.5460  -17.8520 N   0  0  0  0  0  0  0  0  0  0  0  0
   -5.1790    0.2240  -18.0970 C   0  0  0  0  0  0  0  0  0  0  0  0
   -4.7130    0.5400  -19.4050 C   0  0  0  0  0  0  0  0  0  0  0  0
   -3.5870    1.3760  -19.6230 C   0  0  0  0  0  0  0  0  0  0  0  0
   -3.1690    1.6470  -20.8970 C   0  0  0  0  0  0  0  0  0  0  0  0
   -3.8560    1.1100  -22.0080 C   0  0  0  0  0  0  0  0  0  0  0  0
   -4.9510    0.3030  -21.8250 C   0  0  0  0  0  0  0  0  0  0  0  0
   -5.4080    0.0050  -20.5110 C   0  0  0  0  0  0  0  0  0  0  0  0
   -5.4830   -0.1080  -22.6790 H   0  0  0  0  0  0  0  0  0  0  0  0
   -3.5150    1.3310  -23.0160 H   0  0  0  0  0  0  0  0  0  0  0  0
   -2.3070    2.2860  -21.0650 H   0  0  0  0  0  0  0  0  0  0  0  0
   -3.0800    1.7950  -18.7580 H   0  0  0  0  0  0  0  0  0  0  0  0
   -4.6520    0.6360  -17.2350 H   0  0  0  0  0  0  0  0  0  0  0  0
   -7.7400   -1.6790  -18.6850 H   0  0  0  0  0  0  0  0  0  0  0  0
   -8.2420   -0.5710  -21.9930 C   0  0  0  0  0  0  0  0  0  0  0  0
   -8.2740    0.6340  -22.0540 O   0  0  0  0  0  0  0  0  0  0  0  0
   -9.1960   -1.5470  -22.6420 C   0  0  0  0  0  0  0  0  0  0  0  0
  -10.6730   -1.1660  -22.4740 C   0  0  0  0  0  0  0  0  0  0  0  0
  -10.8630   -1.1480  -23.9550 N   0  0  0  0  0  0  0  0  0  0  0  0
  -11.8970   -2.2910  -24.6400 S   0  0  0  0  0  0  0  0  0  0  0  0
  -11.1710   -2.7820  -25.8020 O   0  0  0  0  0  0  0  0  0  0  0  0
  -12.3960   -3.1610  -23.5830 O   0  0  0  0  0  0  0  0  0  0  0  0
  -13.2950   -1.3730  -25.1750 C   0  0  0  0  0  0  0  0  0  0  0  0
  -13.7090   -0.1310  -24.3770 C   0  0  0  0  0  0  0  0  0  0  0  0
  -13.7790   -0.4250  -24.3100 C   0  0  0  0  0  0  0  0  0  0  0  0
  -14.4810    0.7940  -24.5630 H   0  0  0  0  0  0  0  0  0  0  0  0
  -12.8300    1.0840  -24.9060 H   0  0  0  0  0  0  0  0  0  0  0  0
  -14.6650   -0.9420  -23.6520 H   0  0  0  0  0  0  0  0  0  0  0  0
  -13.0900   -0.1760  -23.3100 H   0  0  0  0  0  0  0  0  0  0  0  0
  -14.0380   -2.0340  -25.5790 H   0  0  0  0  0  0  0  0  0  0  0  0
   -9.3940   -1.3900  -24.1610 C   0  0  0  0  0  0  0  0  0  0  0  0
   -9.1520   -2.2720  -24.7590 H   0  0  0  0  0  0  0  0  0  0  0  0
   -8.8950   -0.5070  -24.5640 H   0  0  0  0  0  0  0  0  0  0  0  0
  -10.7650   -0.1420  -22.1070 H   0  0  0  0  0  0  0  0  0  0  0  0
  -11.3000   -1.8660  -21.9220 H   0  0  0  0  0  0  0  0  0  0  0  0
   -9.5670   -4.3140  -23.4090 H   0  0  0  0  0  0  0  0  0  0  0  0
   -8.8110   -4.8520  -21.8920 H   0  0  0  0  0  0  0  0  0  0  0  0
  -10.4120   -4.0660  -21.8610 H   0  0  0  0  0  0  0  0  0  0  0  0
  1  2  1  0  0  0  0
  1 43  1  0  0  0  0
  1 44  1  0  0  0  0
  1 45  1  0  0  0  0
  2  3  1  0  0  0  0
  2 24  1  0  0  0  0
  3  4  2  0  0  0  0
  3  5  1  0  0  0  0
  5  6  1  0  0  0  0
  5 22  1  0  0  0  0
  6  7  2  0  0  0  0
  6 15  1  0  0  0  0
  7  8  1  0  0  0  0
  7 21  1  0  0  0  0
  8  9  2  0  0  0  0
  9 10  1  0  0  0  0
  9 20  1  0  0  0  0
 10 11  2  0  0  0  0
 10 15  1  0  0  0  0
 11 12  1  0  0  0  0
 11 19  1  0  0  0  0
 12 13  2  0  0  0  0
 12 18  1  0  0  0  0
 13 14  1  0  0  0  0
 13 17  1  0  0  0  0
 14 15  2  0  0  0  0
 14 16  1  0  0  0  0
 22 23  2  0  0  0  0
 22 24  1  0  0  0  0
 24 25  1  0  0  0  0
 24 38  1  0  0  0  0
 25 26  1  0  0  0  0
 25 41  1  0  0  0  0
 25 42  1  0  0  0  0
 26 27  1  0  0  0  0
 26 38  1  0  0  0  0
 27 28  2  0  0  0  0
 27 29  2  0  0  0  0
 27 30  1  0  0  0  0
 30 31  1  0  0  0  0
 30 32  1  0  0  0  0
 30 37  1  0  0  0  0
 31 32  1  0  0  0  0
 31 35  1  0  0  0  0
 31 36  1  0  0  0  0
 32 33  1  0  0  0  0
 32 34  1  0  0  0  0
 38 39  1  0  0  0  0
 38 40  1  0  0  0  0
M  END
>  <MODEL>
       1

$$$$
