output/tmp_first_model_3_29.pdb
 OpenBabel07242614263D

 55 60  0  0  1  0  0  0  0  0999 V2000
  -10.0540   -0.9050  -23.4600 C   0  0  0  0  0  0  0  0  0  0  0  0
   -8.6640   -1.2530  -22.9220 C   0  0  1  0  0  0  0  0  0  0  0  0
   -8.1880   -0.3190  -21.7950 C   0  0  0  0  0  0  0  0  0  0  0  0
   -7.2330   -1.1350  -21.0510 N   0  0  0  0  0  0  0  0  0  0  0  0
   -6.4040   -0.6400  -20.0120 C   0  0  0  0  0  0  0  0  0  0  0  0
   -6.6810   -0.9020  -18.6930 C   0  0  0  0  0  0  0  0  0  0  0  0
   -6.0120   -0.3490  -17.6470 N   0  0  0  0  0  0  0  0  0  0  0  0
   -5.0120    0.4540  -17.9200 C   0  0  0  0  0  0  0  0  0  0  0  0
   -4.5710    0.7510  -19.2390 C   0  0  0  0  0  0  0  0  0  0  0  0
   -3.4400    1.5740  -19.4790 C   0  0  0  0  0  0  0  0  0  0  0  0
   -3.0210    1.8100  -20.7580 C   0  0  0  0  0  0  0  0  0  0  0  0
   -3.7180    1.2460  -21.8510 C   0  0  0  0  0  0  0  0  0  0  0  0
   -4.8290    0.4640  -21.6430 C   0  0  0  0  0  0  0  0  0  0  0  0
   -5.2830    0.1950  -20.3250 C   0  0  0  0  0  0  0  0  0  0  0  0
   -5.3630    0.0320  -22.4830 H   0  0  0  0  0  0  0  0  0  0  0  0
   -3.3770    1.4400  -22.8640 H   0  0  0  0  0  0  0  0  0  0  0  0
   -2.1540    2.4390  -20.9450 H   0  0  0  0  0  0  0  0  0  0  0  0
   -2.9290    2.0150  -18.6250 H   0  0  0  0  0  0  0  0  0  0  0  0
   -4.4770    0.8970  -17.0770 H   0  0  0  0  0  0  0  0  0  0  0  0
   -7.4920   -1.5730  -18.4220 H   0  0  0  0  0  0  0  0  0  0  0  0
   -7.3720   -2.4870  -21.2910 C   0  0  0  0  0  0  0  0  0  0  0  0
   -6.7270   -3.3630  -20.7500 O   0  0  0  0  0  0  0  0  0  0  0  0
   -8.5010   -2.6890  -22.3130 C   0  0  1  0  0  0  0  0  0  0  0  0
   -9.7420   -3.1670  -21.5190 C   0  0  0  0  0  0  0  0  0  0  0  0
  -10.8040   -3.6300  -22.4020 N   0  0  0  0  0  0  0  0  0  0  0  0
  -12.1950   -3.4730  -21.9830 C   0  0  0  0  0  0  0  0  0  0  0  0
  -12.9820   -2.3720  -22.6500 C   0  0  0  0  0  0  0  0  0  0  0  0
  -13.6300   -2.2710  -23.8960 C   0  0  0  0  0  0  0  0  0  0  0  0
  -14.2980   -1.1190  -23.9560 N   0  0  0  0  0  0  0  0  0  0  0  0
  -14.0470   -0.5800  -22.7810 N   0  0  0  0  0  0  0  0  0  0  0  0
  -13.2520   -1.2590  -21.9720 N   0  0  0  0  0  0  0  0  0  0  0  0
  -14.3450    0.3550  -22.5590 H   0  0  0  0  0  0  0  0  0  0  0  0
  -13.6610   -2.9640  -24.7220 H   0  0  0  0  0  0  0  0  0  0  0  0
  -12.1840   -3.2330  -20.9210 H   0  0  0  0  0  0  0  0  0  0  0  0
  -12.6920   -4.4390  -22.1100 H   0  0  0  0  0  0  0  0  0  0  0  0
  -10.4920   -4.6040  -23.3160 C   0  0  0  0  0  0  0  0  0  0  0  0
  -11.2960   -5.3980  -23.7610 O   0  0  0  0  0  0  0  0  0  0  0  0
   -9.0900   -4.6560  -23.8010 C   0  0  0  0  0  0  0  0  0  0  0  0
   -8.7730   -5.6270  -24.7540 C   0  0  0  0  0  0  0  0  0  0  0  0
   -7.4980   -5.7060  -25.2780 C   0  0  0  0  0  0  0  0  0  0  0  0
   -6.5530   -4.8020  -24.8010 C   0  0  0  0  0  0  0  0  0  0  0  0
   -5.3120   -4.8670  -25.3090 F   0  0  0  0  0  0  0  0  0  0  0  0
   -6.8390   -3.8530  -23.8360 C   0  0  0  0  0  0  0  0  0  0  0  0
   -8.1420   -3.7510  -23.3310 C   0  0  0  0  0  0  0  0  0  0  0  0
   -6.0350   -3.2330  -23.4550 H   0  0  0  0  0  0  0  0  0  0  0  0
   -7.2330   -6.4510  -26.0230 H   0  0  0  0  0  0  0  0  0  0  0  0
   -9.5590   -6.3120  -25.0590 H   0  0  0  0  0  0  0  0  0  0  0  0
  -10.1400   -2.3550  -20.9040 H   0  0  0  0  0  0  0  0  0  0  0  0
   -9.4160   -3.9630  -20.8330 H   0  0  0  0  0  0  0  0  0  0  0  0
   -9.0350   -0.0150  -21.1580 H   0  0  0  0  0  0  0  0  0  0  0  0
   -7.7240    0.5980  -22.1720 H   0  0  0  0  0  0  0  0  0  0  0  0
   -7.9420   -1.2040  -23.7540 H   0  0  0  0  0  0  0  0  0  0  0  0
  -10.0410    0.0550  -23.9890 H   0  0  0  0  0  0  0  0  0  0  0  0
  -10.3930   -1.6750  -24.1630 H   0  0  0  0  0  0  0  0  0  0  0  0
  -10.7940   -0.8400  -22.6500 H   0  0  0  0  0  0  0  0  0  0  0  0
  1  2  1  0  0  0  0
  1 53  1  0  0  0  0
  1 54  1  0  0  0  0
  1 55  1  0  0  0  0
  2  3  1  0  0  0  0
  2 23  1  0  0  0  0
  2 52  1  6  0  0  0
  3  4  1  0  0  0  0
  3 50  1  0  0  0  0
  3 51  1  0  0  0  0
  4  5  1  0  0  0  0
  4 21  1  0  0  0  0
  5  6  2  0  0  0  0
  5 14  1  0  0  0  0
  6  7  1  0  0  0  0
  6 20  1  0  0  0  0
  7  8  2  0  0  0  0
  8  9  1  0  0  0  0
  8 19  1  0  0  0  0
  9 10  2  0  0  0  0
  9 14  1  0  0  0  0
 10 11  1  0  0  0  0
 10 18  1  0  0  0  0
 11 12  2  0  0  0  0
 11 17  1  0  0  0  0
 12 13  1  0  0  0  0
 12 16  1  0  0  0  0
 13 14  2  0  0  0  0
 13 15  1  0  0  0  0
 21 22  2  0  0  0  0
 23 21  1  1  0  0  0
 23 24  1  0  0  0  0
 23 44  1  0  0  0  0
 24 25  1  0  0  0  0
 24 48  1  0  0  0  0
 24 49  1  0  0  0  0
 25 26  1  0  0  0  0
 25 36  1  0  0  0  0
 26 27  1  0  0  0  0
 26 34  1  0  0  0  0
 26 35  1  0  0  0  0
 27 28  1  0  0  0  0
 27 31  2  0  0  0  0
 28 29  2  0  0  0  0
 28 33  1  0  0  0  0
 29 30  1  0  0  0  0
 30 31  1  0  0  0  0
 30 32  1  0  0  0  0
 36 37  2  0  0  0  0
 36 38  1  0  0  0  0
 38 39  2  0  0  0  0
 38 44  1  0  0  0  0
 39 40  1  0  0  0  0
 39 47  1  0  0  0  0
 40 41  2  0  0  0  0
 40 46  1  0  0  0  0
 41 42  1  0  0  0  0
 41 43  1  0  0  0  0
 43 44  2  0  0  0  0
 43 45  1  0  0  0  0
M  END
>  <MODEL>
       1

$$$$
