output/tmp_first_model_14_60.pdb
 OpenBabel07242620283D

 62 67  0  0  1  0  0  0  0  0999 V2000
  -11.1510    3.0620  -22.6880 C   0  0  0  0  0  0  0  0  0  0  0  0
  -10.3840    1.8600  -22.1470 C   0  0  0  0  0  0  0  0  0  0  0  0
   -9.0000    1.8480  -22.6050 N   0  0  0  0  0  0  0  0  0  0  0  0
   -8.0880    2.5590  -21.9320 N   0  0  0  0  0  0  0  0  0  0  0  0
   -6.9600    2.4220  -22.6210 C   0  0  0  0  0  0  0  0  0  0  0  0
   -7.1510    1.6310  -23.7810 C   0  0  0  0  0  0  0  0  0  0  0  0
   -8.4850    1.2780  -23.7270 C   0  0  0  0  0  0  0  0  0  0  0  0
   -9.4150    0.6590  -24.7170 C   0  0  0  0  0  0  0  0  0  0  0  0
  -10.0370   -0.5880  -24.2970 N   0  0  0  0  0  0  0  0  0  0  0  0
   -9.2090   -1.7660  -24.1420 C   0  0  0  0  0  0  0  0  0  0  0  0
   -9.4010   -2.3800  -22.7320 C   0  0  2  0  0  0  0  0  0  0  0  0
   -8.8700   -1.4030  -21.6470 C   0  0  0  0  0  0  0  0  0  0  0  0
   -9.4970   -0.5340  -21.0810 O   0  0  0  0  0  0  0  0  0  0  0  0
   -7.5390   -1.6810  -21.4010 N   0  0  0  0  0  0  0  0  0  0  0  0
   -6.8400   -1.0170  -20.3650 C   0  0  0  0  0  0  0  0  0  0  0  0
   -7.3670   -0.9440  -19.0970 C   0  0  0  0  0  0  0  0  0  0  0  0
   -6.7880   -0.2910  -18.0620 N   0  0  0  0  0  0  0  0  0  0  0  0
   -5.6690    0.3500  -18.3020 C   0  0  0  0  0  0  0  0  0  0  0  0
   -5.0220    0.3760  -19.5700 C   0  0  0  0  0  0  0  0  0  0  0  0
   -3.8570    1.1530  -19.8150 C   0  0  0  0  0  0  0  0  0  0  0  0
   -3.2700    1.1450  -21.0500 C   0  0  0  0  0  0  0  0  0  0  0  0
   -3.8010    0.3530  -22.0930 C   0  0  0  0  0  0  0  0  0  0  0  0
   -4.9360   -0.3920  -21.8870 C   0  0  0  0  0  0  0  0  0  0  0  0
   -5.5890   -0.3730  -20.6270 C   0  0  0  0  0  0  0  0  0  0  0  0
   -5.3580   -0.9660  -22.7060 H   0  0  0  0  0  0  0  0  0  0  0  0
   -3.3320    0.3590  -23.0730 H   0  0  0  0  0  0  0  0  0  0  0  0
   -2.4020    1.7680  -21.2440 H   0  0  0  0  0  0  0  0  0  0  0  0
   -3.4710    1.7830  -19.0170 H   0  0  0  0  0  0  0  0  0  0  0  0
   -5.2160    0.8870  -17.4680 H   0  0  0  0  0  0  0  0  0  0  0  0
   -8.3140   -1.4290  -18.8730 H   0  0  0  0  0  0  0  0  0  0  0  0
   -7.1040   -2.8920  -22.0850 C   0  0  0  0  0  0  0  0  0  0  0  0
   -8.4330   -3.5650  -22.4770 C   0  0  2  0  0  0  0  0  0  0  0  0
   -8.2760   -4.6020  -23.5810 C   0  0  0  0  0  0  0  0  0  0  0  0
   -9.2300   -5.0720  -23.8430 H   0  0  0  0  0  0  0  0  0  0  0  0
   -7.5840   -5.3920  -23.2680 H   0  0  0  0  0  0  0  0  0  0  0  0
   -7.8640   -4.1570  -24.4940 H   0  0  0  0  0  0  0  0  0  0  0  0
   -8.7800   -4.0460  -21.5590 H   0  0  0  0  0  0  0  0  0  0  0  0
   -6.5120   -2.6690  -22.9860 H   0  0  0  0  0  0  0  0  0  0  0  0
   -6.5010   -3.5180  -21.4200 H   0  0  0  0  0  0  0  0  0  0  0  0
  -10.8900   -2.6250  -22.5370 C   0  0  0  0  0  0  0  0  0  0  0  0
  -11.3860   -3.5870  -21.6510 C   0  0  0  0  0  0  0  0  0  0  0  0
  -12.7210   -3.5700  -21.3080 C   0  0  0  0  0  0  0  0  0  0  0  0
  -13.1550   -4.3490  -20.3030 F   0  0  0  0  0  0  0  0  0  0  0  0
  -13.6530   -2.7530  -21.9330 C   0  0  0  0  0  0  0  0  0  0  0  0
  -13.1960   -1.8530  -22.8730 C   0  0  0  0  0  0  0  0  0  0  0  0
  -11.8250   -1.7690  -23.1410 C   0  0  0  0  0  0  0  0  0  0  0  0
  -11.3810   -0.6680  -24.0490 C   0  0  0  0  0  0  0  0  0  0  0  0
  -12.2030    0.1560  -24.4310 O   0  0  0  0  0  0  0  0  0  0  0  0
  -13.8730   -1.1930  -23.4080 H   0  0  0  0  0  0  0  0  0  0  0  0
  -14.6890   -2.8110  -21.6330 H   0  0  0  0  0  0  0  0  0  0  0  0
  -10.7540   -4.3100  -21.1490 H   0  0  0  0  0  0  0  0  0  0  0  0
   -9.4950   -2.5080  -24.9020 H   0  0  0  0  0  0  0  0  0  0  0  0
   -8.1640   -1.4830  -24.3130 H   0  0  0  0  0  0  0  0  0  0  0  0
   -8.9330    0.5650  -25.6990 H   0  0  0  0  0  0  0  0  0  0  0  0
  -10.2060    1.3830  -24.7970 H   0  0  0  0  0  0  0  0  0  0  0  0
   -6.4430    1.3430  -24.5500 H   0  0  0  0  0  0  0  0  0  0  0  0
   -6.0710    2.9350  -22.2780 H   0  0  0  0  0  0  0  0  0  0  0  0
  -10.8630    0.9240  -22.4190 H   0  0  0  0  0  0  0  0  0  0  0  0
  -10.3360    1.8520  -21.0620 H   0  0  0  0  0  0  0  0  0  0  0  0
  -11.4810    2.8960  -23.7170 H   0  0  0  0  0  0  0  0  0  0  0  0
  -10.5020    3.9400  -22.6810 H   0  0  0  0  0  0  0  0  0  0  0  0
  -12.0340    3.2940  -22.0860 H   0  0  0  0  0  0  0  0  0  0  0  0
  1  2  1  0  0  0  0
  1 60  1  0  0  0  0
  1 61  1  0  0  0  0
  1 62  1  0  0  0  0
  2  3  1  0  0  0  0
  2 58  1  0  0  0  0
  2 59  1  0  0  0  0
  3  4  1  0  0  0  0
  3  7  1  0  0  0  0
  4  5  2  0  0  0  0
  5  6  1  0  0  0  0
  5 57  1  0  0  0  0
  6  7  2  0  0  0  0
  6 56  1  0  0  0  0
  7  8  1  0  0  0  0
  8  9  1  0  0  0  0
  8 54  1  0  0  0  0
  8 55  1  0  0  0  0
  9 10  1  0  0  0  0
  9 47  1  0  0  0  0
 10 11  1  0  0  0  0
 10 52  1  0  0  0  0
 10 53  1  0  0  0  0
 11 12  1  1  0  0  0
 11 32  1  0  0  0  0
 11 40  1  0  0  0  0
 12 13  2  0  0  0  0
 12 14  1  0  0  0  0
 14 15  1  0  0  0  0
 14 31  1  0  0  0  0
 15 16  2  0  0  0  0
 15 24  1  0  0  0  0
 16 17  1  0  0  0  0
 16 30  1  0  0  0  0
 17 18  2  0  0  0  0
 18 19  1  0  0  0  0
 18 29  1  0  0  0  0
 19 20  2  0  0  0  0
 19 24  1  0  0  0  0
 20 21  1  0  0  0  0
 20 28  1  0  0  0  0
 21 22  2  0  0  0  0
 21 27  1  0  0  0  0
 22 23  1  0  0  0  0
 22 26  1  0  0  0  0
 23 24  2  0  0  0  0
 23 25  1  0  0  0  0
 31 32  1  0  0  0  0
 31 38  1  0  0  0  0
 31 39  1  0  0  0  0
 32 33  1  0  0  0  0
 32 37  1  1  0  0  0
 33 34  1  0  0  0  0
 33 35  1  0  0  0  0
 33 36  1  0  0  0  0
 40 41  2  0  0  0  0
 40 46  1  0  0  0  0
 41 42  1  0  0  0  0
 41 51  1  0  0  0  0
 42 43  1  0  0  0  0
 42 44  2  0  0  0  0
 44 45  1  0  0  0  0
 44 50  1  0  0  0  0
 45 46  2  0  0  0  0
 45 49  1  0  0  0  0
 46 47  1  0  0  0  0
 47 48  2  0  0  0  0
M  END
>  <MODEL>
       1

$$$$
