output/tmp_first_model_8_44.pdb
 OpenBabel07242617113D

 60 64  0  0  1  0  0  0  0  0999 V2000
  -12.2740    4.0520  -21.6800 C   0  0  0  0  0  0  0  0  0  0  0  0
  -12.2460    2.9450  -22.6060 N   0  0  0  0  0  0  0  0  0  0  0  0
  -11.1220    2.6420  -23.3040 C   0  0  0  0  0  0  0  0  0  0  0  0
  -10.0830    3.2830  -23.2550 O   0  0  0  0  0  0  0  0  0  0  0  0
  -11.2840    1.4490  -24.2520 C   0  0  0  0  0  0  0  0  0  0  0  0
  -11.2400    0.1580  -23.5950 N   0  0  0  0  0  0  0  0  0  0  0  0
  -10.1060   -0.7270  -23.8660 C   0  0  0  0  0  0  0  0  0  0  0  0
   -9.7320   -1.6490  -22.6570 C   0  0  2  0  0  0  0  0  0  0  0  0
   -9.0510   -0.7370  -21.5950 C   0  0  0  0  0  0  0  0  0  0  0  0
   -9.5130    0.2620  -21.0940 O   0  0  0  0  0  0  0  0  0  0  0  0
   -7.8010   -1.2370  -21.3120 N   0  0  0  0  0  0  0  0  0  0  0  0
   -7.0610   -0.7090  -20.2280 C   0  0  0  0  0  0  0  0  0  0  0  0
   -7.4620   -0.9450  -18.9390 C   0  0  0  0  0  0  0  0  0  0  0  0
   -6.8110   -0.4800  -17.8460 N   0  0  0  0  0  0  0  0  0  0  0  0
   -5.7410    0.2510  -18.0400 C   0  0  0  0  0  0  0  0  0  0  0  0
   -5.2190    0.5710  -19.3250 C   0  0  0  0  0  0  0  0  0  0  0  0
   -4.0700    1.3860  -19.4840 C   0  0  0  0  0  0  0  0  0  0  0  0
   -3.6030    1.6770  -20.7350 C   0  0  0  0  0  0  0  0  0  0  0  0
   -4.2480    1.1580  -21.8790 C   0  0  0  0  0  0  0  0  0  0  0  0
   -5.3580    0.3600  -21.7520 C   0  0  0  0  0  0  0  0  0  0  0  0
   -5.8800    0.0620  -20.4640 C   0  0  0  0  0  0  0  0  0  0  0  0
   -5.8490   -0.0440  -22.6330 H   0  0  0  0  0  0  0  0  0  0  0  0
   -3.8570    1.3950  -22.8650 H   0  0  0  0  0  0  0  0  0  0  0  0
   -2.7320    2.3130  -20.8590 H   0  0  0  0  0  0  0  0  0  0  0  0
   -3.5880    1.7790  -18.5930 H   0  0  0  0  0  0  0  0  0  0  0  0
   -5.2300    0.6320  -17.1540 H   0  0  0  0  0  0  0  0  0  0  0  0
   -8.3540   -1.5360  -18.7340 H   0  0  0  0  0  0  0  0  0  0  0  0
   -7.6040   -2.5840  -21.7940 C   0  0  0  0  0  0  0  0  0  0  0  0
   -8.5670   -2.6660  -22.9910 C   0  0  2  0  0  0  0  0  0  0  0  0
   -7.7780   -2.3680  -24.2730 C   0  0  0  0  0  0  0  0  0  0  0  0
   -6.8030   -3.3730  -24.4240 O   0  0  0  0  0  0  0  0  0  0  0  0
   -5.9660   -3.1590  -25.5310 C   0  0  0  0  0  0  0  0  0  0  0  0
   -5.4460   -2.1900  -25.4700 H   0  0  0  0  0  0  0  0  0  0  0  0
   -6.5230   -3.1950  -26.4800 H   0  0  0  0  0  0  0  0  0  0  0  0
   -5.2200   -3.9560  -25.5340 H   0  0  0  0  0  0  0  0  0  0  0  0
   -7.2870   -1.3820  -24.1940 H   0  0  0  0  0  0  0  0  0  0  0  0
   -8.4400   -2.3510  -25.1510 H   0  0  0  0  0  0  0  0  0  0  0  0
   -8.9370   -3.6850  -23.1270 H   0  0  0  0  0  0  0  0  0  0  0  0
   -6.5660   -2.7320  -22.0970 H   0  0  0  0  0  0  0  0  0  0  0  0
   -7.8300   -3.3230  -21.0170 H   0  0  0  0  0  0  0  0  0  0  0  0
  -11.0650   -2.2570  -22.1710 C   0  0  0  0  0  0  0  0  0  0  0  0
  -11.2260   -3.5130  -21.5000 C   0  0  0  0  0  0  0  0  0  0  0  0
  -12.8550   -3.7440  -21.1830 C   0  0  0  0  0  0  0  0  0  0  0  0
  -12.4990   -5.1830  -19.1290 Cl  0  0  0  0  0  0  0  0  0  0  0  0
  -12.9120   -3.8230  -20.8400 C   0  0  0  0  0  0  0  0  0  0  0  0
  -13.4870   -2.1990  -21.7480 C   0  0  0  0  0  0  0  0  0  0  0  0
  -12.3050   -1.5820  -22.3410 C   0  0  0  0  0  0  0  0  0  0  0  0
  -12.4050   -0.2920  -23.0260 C   0  0  0  0  0  0  0  0  0  0  0  0
  -13.4440    0.3690  -23.1020 O   0  0  0  0  0  0  0  0  0  0  0  0
  -14.1630   -2.4500  -22.5830 H   0  0  0  0  0  0  0  0  0  0  0  0
  -13.2680   -3.2620  -19.9760 H   0  0  0  0  0  0  0  0  0  0  0  0
  -10.8870   -4.3560  -22.0740 H   0  0  0  0  0  0  0  0  0  0  0  0
   -9.2560   -0.0900  -24.1040 H   0  0  0  0  0  0  0  0  0  0  0  0
  -10.3360   -1.3610  -24.7310 H   0  0  0  0  0  0  0  0  0  0  0  0
  -12.2530    1.5560  -24.7410 H   0  0  0  0  0  0  0  0  0  0  0  0
  -10.4860    1.5020  -24.9950 H   0  0  0  0  0  0  0  0  0  0  0  0
  -13.0490    2.3320  -22.6930 H   0  0  0  0  0  0  0  0  0  0  0  0
  -12.3210    3.7030  -20.6410 H   0  0  0  0  0  0  0  0  0  0  0  0
  -13.1320    4.6970  -21.8910 H   0  0  0  0  0  0  0  0  0  0  0  0
  -11.3540    4.6240  -21.8180 H   0  0  0  0  0  0  0  0  0  0  0  0
  1  2  1  0  0  0  0
  1 58  1  0  0  0  0
  1 59  1  0  0  0  0
  1 60  1  0  0  0  0
  2  3  1  0  0  0  0
  2 57  1  0  0  0  0
  3  4  2  0  0  0  0
  3  5  1  0  0  0  0
  5  6  1  0  0  0  0
  5 55  1  0  0  0  0
  5 56  1  0  0  0  0
  6  7  1  0  0  0  0
  6 48  1  0  0  0  0
  7  8  1  0  0  0  0
  7 53  1  0  0  0  0
  7 54  1  0  0  0  0
  8  9  1  1  0  0  0
  8 29  1  0  0  0  0
  8 41  1  0  0  0  0
  9 10  2  0  0  0  0
  9 11  1  0  0  0  0
 11 12  1  0  0  0  0
 11 28  1  0  0  0  0
 12 13  2  0  0  0  0
 12 21  1  0  0  0  0
 13 14  1  0  0  0  0
 13 27  1  0  0  0  0
 14 15  2  0  0  0  0
 15 16  1  0  0  0  0
 15 26  1  0  0  0  0
 16 17  2  0  0  0  0
 16 21  1  0  0  0  0
 17 18  1  0  0  0  0
 17 25  1  0  0  0  0
 18 19  2  0  0  0  0
 18 24  1  0  0  0  0
 19 20  1  0  0  0  0
 19 23  1  0  0  0  0
 20 21  2  0  0  0  0
 20 22  1  0  0  0  0
 28 29  1  0  0  0  0
 28 39  1  0  0  0  0
 28 40  1  0  0  0  0
 29 30  1  0  0  0  0
 29 38  1  6  0  0  0
 30 31  1  0  0  0  0
 30 36  1  0  0  0  0
 30 37  1  0  0  0  0
 31 32  1  0  0  0  0
 32 33  1  0  0  0  0
 32 34  1  0  0  0  0
 32 35  1  0  0  0  0
 41 42  2  0  0  0  0
 41 47  1  0  0  0  0
 42 43  1  0  0  0  0
 42 52  1  0  0  0  0
 43 44  1  0  0  0  0
 43 45  2  0  0  0  0
 45 46  1  0  0  0  0
 45 51  1  0  0  0  0
 46 47  2  0  0  0  0
 46 50  1  0  0  0  0
 47 48  1  0  0  0  0
 48 49  2  0  0  0  0
M  END
>  <MODEL>
       1

$$$$
