output/tmp_first_model_20_92.pdb
 OpenBabel07242623363D

 60 65  0  0  1  0  0  0  0  0999 V2000
   -7.8910   -6.2300  -23.9160 C   0  0  0  0  0  0  0  0  0  0  0  0
   -8.1380   -5.2450  -22.9460 O   0  0  0  0  0  0  0  0  0  0  0  0
   -8.4480   -4.0060  -23.5320 C   0  0  0  0  0  0  0  0  0  0  0  0
   -8.6340   -2.9820  -22.4210 C   0  0  1  0  0  0  0  0  0  0  0  0
   -7.3440   -2.7570  -21.6160 C   0  0  0  0  0  0  0  0  0  0  0  0
   -7.4180   -1.3680  -21.2290 N   0  0  0  0  0  0  0  0  0  0  0  0
   -6.6110   -0.8130  -20.2070 C   0  0  0  0  0  0  0  0  0  0  0  0
   -6.9120   -1.0630  -18.8930 C   0  0  0  0  0  0  0  0  0  0  0  0
   -6.2180   -0.5680  -17.8410 N   0  0  0  0  0  0  0  0  0  0  0  0
   -5.1820    0.1870  -18.1020 C   0  0  0  0  0  0  0  0  0  0  0  0
   -4.7390    0.5030  -19.4170 C   0  0  0  0  0  0  0  0  0  0  0  0
   -3.6070    1.3250  -19.6420 C   0  0  0  0  0  0  0  0  0  0  0  0
   -3.1940    1.6020  -20.9160 C   0  0  0  0  0  0  0  0  0  0  0  0
   -3.8920    1.0620  -22.0210 C   0  0  0  0  0  0  0  0  0  0  0  0
   -4.9970    0.2680  -21.8300 C   0  0  0  0  0  0  0  0  0  0  0  0
   -5.4590   -0.0210  -20.5160 C   0  0  0  0  0  0  0  0  0  0  0  0
   -5.5350   -0.1440  -22.6800 H   0  0  0  0  0  0  0  0  0  0  0  0
   -3.5540    1.2970  -23.0270 H   0  0  0  0  0  0  0  0  0  0  0  0
   -2.3290    2.2370  -21.0860 H   0  0  0  0  0  0  0  0  0  0  0  0
   -3.0820    1.7240  -18.7790 H   0  0  0  0  0  0  0  0  0  0  0  0
   -4.6320    0.5940  -17.2530 H   0  0  0  0  0  0  0  0  0  0  0  0
   -7.7690   -1.6870  -18.6440 H   0  0  0  0  0  0  0  0  0  0  0  0
   -8.4140   -0.6440  -21.8500 C   0  0  0  0  0  0  0  0  0  0  0  0
   -8.6840    0.5070  -21.5920 O   0  0  0  0  0  0  0  0  0  0  0  0
   -9.1120   -1.5720  -22.8800 C   0  0  1  0  0  0  0  0  0  0  0  0
   -8.6120   -1.2480  -24.3210 C   0  0  0  0  0  0  0  0  0  0  0  0
   -9.1070    0.0230  -24.8250 N   0  0  0  0  0  0  0  0  0  0  0  0
   -8.2320    0.9450  -25.5450 C   0  0  0  0  0  0  0  0  0  0  0  0
   -7.6910    2.0320  -24.6590 C   0  0  0  0  0  0  0  0  0  0  0  0
   -8.4310    3.0660  -24.0410 C   0  0  0  0  0  0  0  0  0  0  0  0
   -7.6660    3.8550  -23.2980 N   0  0  0  0  0  0  0  0  0  0  0  0
   -6.4420    3.3320  -23.4310 N   0  0  0  0  0  0  0  0  0  0  0  0
   -6.4010    2.2430  -24.2350 C   0  0  0  0  0  0  0  0  0  0  0  0
   -5.4860    1.6980  -24.4290 H   0  0  0  0  0  0  0  0  0  0  0  0
   -5.6840    3.7140  -22.8900 H   0  0  0  0  0  0  0  0  0  0  0  0
   -9.4930    3.2470  -24.1190 H   0  0  0  0  0  0  0  0  0  0  0  0
   -8.8320    1.3910  -26.3440 H   0  0  0  0  0  0  0  0  0  0  0  0
   -7.4200    0.3820  -26.0150 H   0  0  0  0  0  0  0  0  0  0  0  0
  -10.3810    0.4570  -24.6000 C   0  0  0  0  0  0  0  0  0  0  0  0
  -10.8310    1.4640  -25.1430 O   0  0  0  0  0  0  0  0  0  0  0  0
  -11.2050   -0.3650  -23.6640 C   0  0  0  0  0  0  0  0  0  0  0  0
  -12.5840   -0.1360  -23.6330 C   0  0  0  0  0  0  0  0  0  0  0  0
  -13.4080   -0.8700  -22.7990 C   0  0  0  0  0  0  0  0  0  0  0  0
  -12.8120   -1.8220  -21.9720 C   0  0  0  0  0  0  0  0  0  0  0  0
  -13.7670   -2.7980  -20.8940 Cl  0  0  0  0  0  0  0  0  0  0  0  0
  -11.4460   -2.0420  -21.9780 C   0  0  0  0  0  0  0  0  0  0  0  0
  -10.6150   -1.3520  -22.8620 C   0  0  0  0  0  0  0  0  0  0  0  0
  -11.0530   -2.7810  -21.2960 H   0  0  0  0  0  0  0  0  0  0  0  0
  -14.4840   -0.7220  -22.8010 H   0  0  0  0  0  0  0  0  0  0  0  0
  -12.9910    0.6360  -24.2780 H   0  0  0  0  0  0  0  0  0  0  0  0
   -8.9370   -2.0500  -24.9980 H   0  0  0  0  0  0  0  0  0  0  0  0
   -7.5180   -1.2150  -24.3170 H   0  0  0  0  0  0  0  0  0  0  0  0
   -6.4480   -2.9710  -22.2150 H   0  0  0  0  0  0  0  0  0  0  0  0
   -7.2940   -3.4030  -20.7390 H   0  0  0  0  0  0  0  0  0  0  0  0
   -9.3690   -3.4050  -21.7350 H   0  0  0  0  0  0  0  0  0  0  0  0
   -9.3650   -4.0800  -24.1450 H   0  0  0  0  0  0  0  0  0  0  0  0
   -7.6260   -3.6840  -24.1980 H   0  0  0  0  0  0  0  0  0  0  0  0
   -8.7610   -6.3790  -24.5750 H   0  0  0  0  0  0  0  0  0  0  0  0
   -7.6790   -7.1650  -23.3930 H   0  0  0  0  0  0  0  0  0  0  0  0
   -7.0260   -5.9730  -24.5490 H   0  0  0  0  0  0  0  0  0  0  0  0
  1  2  1  0  0  0  0
  1 58  1  0  0  0  0
  1 59  1  0  0  0  0
  1 60  1  0  0  0  0
  2  3  1  0  0  0  0
  3  4  1  0  0  0  0
  3 56  1  0  0  0  0
  3 57  1  0  0  0  0
  4  5  1  0  0  0  0
  4 25  1  0  0  0  0
  4 55  1  1  0  0  0
  5  6  1  0  0  0  0
  5 53  1  0  0  0  0
  5 54  1  0  0  0  0
  6  7  1  0  0  0  0
  6 23  1  0  0  0  0
  7  8  2  0  0  0  0
  7 16  1  0  0  0  0
  8  9  1  0  0  0  0
  8 22  1  0  0  0  0
  9 10  2  0  0  0  0
 10 11  1  0  0  0  0
 10 21  1  0  0  0  0
 11 12  2  0  0  0  0
 11 16  1  0  0  0  0
 12 13  1  0  0  0  0
 12 20  1  0  0  0  0
 13 14  2  0  0  0  0
 13 19  1  0  0  0  0
 14 15  1  0  0  0  0
 14 18  1  0  0  0  0
 15 16  2  0  0  0  0
 15 17  1  0  0  0  0
 23 24  2  0  0  0  0
 25 23  1  1  0  0  0
 25 26  1  0  0  0  0
 25 47  1  0  0  0  0
 26 27  1  0  0  0  0
 26 51  1  0  0  0  0
 26 52  1  0  0  0  0
 27 28  1  0  0  0  0
 27 39  1  0  0  0  0
 28 29  1  0  0  0  0
 28 37  1  0  0  0  0
 28 38  1  0  0  0  0
 29 30  1  0  0  0  0
 29 33  2  0  0  0  0
 30 31  2  0  0  0  0
 30 36  1  0  0  0  0
 31 32  1  0  0  0  0
 32 33  1  0  0  0  0
 32 35  1  0  0  0  0
 33 34  1  0  0  0  0
 39 40  2  0  0  0  0
 39 41  1  0  0  0  0
 41 42  2  0  0  0  0
 41 47  1  0  0  0  0
 42 43  1  0  0  0  0
 42 50  1  0  0  0  0
 43 44  2  0  0  0  0
 43 49  1  0  0  0  0
 44 45  1  0  0  0  0
 44 46  1  0  0  0  0
 46 47  2  0  0  0  0
 46 48  1  0  0  0  0
M  END
>  <MODEL>
       1

$$$$
