output/tmp_first_model_14_85.pdb
 OpenBabel07242620283D

 57 62  0  0  1  0  0  0  0  0999 V2000
   -9.2110   -8.4730  -23.7490 C   0  0  0  0  0  0  0  0  0  0  0  0
   -8.4830   -7.3450  -23.2370 N   0  0  0  0  0  0  0  0  0  0  0  0
   -7.2320   -7.2110  -23.7630 C   0  0  0  0  0  0  0  0  0  0  0  0
   -6.8500   -7.8740  -24.7040 O   0  0  0  0  0  0  0  0  0  0  0  0
   -6.3980   -6.0980  -23.1840 C   0  0  0  0  0  0  0  0  0  0  0  0
   -6.8130   -4.8530  -23.7770 N   0  0  0  0  0  0  0  0  0  0  0  0
   -8.0340   -4.2440  -23.2830 C   0  0  0  0  0  0  0  0  0  0  0  0
   -7.8630   -2.7220  -23.1590 C   0  0  2  0  0  0  0  0  0  0  0  0
   -6.8190   -2.4160  -22.0600 C   0  0  0  0  0  0  0  0  0  0  0  0
   -5.7140   -2.9050  -21.9410 O   0  0  0  0  0  0  0  0  0  0  0  0
   -7.3370   -1.4570  -21.2210 N   0  0  0  0  0  0  0  0  0  0  0  0
   -6.5660   -0.8530  -20.1980 C   0  0  0  0  0  0  0  0  0  0  0  0
   -6.9060   -1.0360  -18.8830 C   0  0  0  0  0  0  0  0  0  0  0  0
   -6.2320   -0.5010  -17.8380 N   0  0  0  0  0  0  0  0  0  0  0  0
   -5.1780    0.2300  -18.1000 C   0  0  0  0  0  0  0  0  0  0  0  0
   -4.7280    0.5230  -19.4150 C   0  0  0  0  0  0  0  0  0  0  0  0
   -3.6020    1.3570  -19.6440 C   0  0  0  0  0  0  0  0  0  0  0  0
   -3.2190    1.6650  -20.9180 C   0  0  0  0  0  0  0  0  0  0  0  0
   -3.9460    1.1560  -22.0200 C   0  0  0  0  0  0  0  0  0  0  0  0
   -5.0360    0.3450  -21.8280 C   0  0  0  0  0  0  0  0  0  0  0  0
   -5.4480   -0.0110  -20.5110 C   0  0  0  0  0  0  0  0  0  0  0  0
   -5.5950   -0.0270  -22.6880 H   0  0  0  0  0  0  0  0  0  0  0  0
   -3.6390    1.4140  -23.0290 H   0  0  0  0  0  0  0  0  0  0  0  0
   -2.3650    2.3140  -21.0960 H   0  0  0  0  0  0  0  0  0  0  0  0
   -3.0720    1.7590  -18.7830 H   0  0  0  0  0  0  0  0  0  0  0  0
   -4.6240    0.6280  -17.2470 H   0  0  0  0  0  0  0  0  0  0  0  0
   -7.7510   -1.6720  -18.6210 H   0  0  0  0  0  0  0  0  0  0  0  0
   -8.7140   -1.1160  -21.4950 C   0  0  0  0  0  0  0  0  0  0  0  0
   -9.1230   -2.0000  -22.6620 C   0  0  0  0  0  0  0  0  0  0  0  0
  -10.4860   -2.6440  -22.5970 C   0  0  0  0  0  0  0  0  0  0  0  0
  -10.2180   -1.5600  -23.5970 C   0  0  0  0  0  0  0  0  0  0  0  0
  -10.1240   -1.8440  -24.6400 H   0  0  0  0  0  0  0  0  0  0  0  0
  -10.6560   -0.5740  -23.4590 H   0  0  0  0  0  0  0  0  0  0  0  0
  -10.5970   -3.6670  -22.9430 H   0  0  0  0  0  0  0  0  0  0  0  0
  -11.1060   -2.4250  -21.7320 H   0  0  0  0  0  0  0  0  0  0  0  0
   -9.3370   -1.3400  -20.6360 H   0  0  0  0  0  0  0  0  0  0  0  0
   -8.8110   -0.0540  -21.7380 H   0  0  0  0  0  0  0  0  0  0  0  0
   -7.3180   -2.2190  -24.4910 C   0  0  0  0  0  0  0  0  0  0  0  0
   -7.4430   -0.8670  -24.8260 C   0  0  0  0  0  0  0  0  0  0  0  0
   -6.9100   -0.3970  -26.0120 C   0  0  0  0  0  0  0  0  0  0  0  0
   -7.0860    1.2870  -26.4210 Cl  0  0  0  0  0  0  0  0  0  0  0  0
   -6.2250   -1.2400  -26.8860 C   0  0  0  0  0  0  0  0  0  0  0  0
   -6.0540   -2.5670  -26.5410 C   0  0  0  0  0  0  0  0  0  0  0  0
   -6.5750   -3.0490  -25.3420 C   0  0  0  0  0  0  0  0  0  0  0  0
   -6.2370   -4.4520  -24.9490 C   0  0  0  0  0  0  0  0  0  0  0  0
   -5.4610   -5.1450  -25.5920 O   0  0  0  0  0  0  0  0  0  0  0  0
   -5.4970   -3.2600  -27.1660 H   0  0  0  0  0  0  0  0  0  0  0  0
   -5.8160   -0.8420  -27.8070 H   0  0  0  0  0  0  0  0  0  0  0  0
   -7.9680   -0.1810  -24.1690 H   0  0  0  0  0  0  0  0  0  0  0  0
   -8.2510   -4.6510  -22.2940 H   0  0  0  0  0  0  0  0  0  0  0  0
   -8.8800   -4.4620  -23.9530 H   0  0  0  0  0  0  0  0  0  0  0  0
   -5.3580   -6.2920  -23.4380 H   0  0  0  0  0  0  0  0  0  0  0  0
   -6.5200   -6.0320  -22.0980 H   0  0  0  0  0  0  0  0  0  0  0  0
   -8.6350   -7.0430  -22.2940 H   0  0  0  0  0  0  0  0  0  0  0  0
   -9.9730   -8.8650  -23.0680 H   0  0  0  0  0  0  0  0  0  0  0  0
   -9.6500   -8.2290  -24.7190 H   0  0  0  0  0  0  0  0  0  0  0  0
   -8.4710   -9.2090  -23.9400 H   0  0  0  0  0  0  0  0  0  0  0  0
  1  2  1  0  0  0  0
  1 55  1  0  0  0  0
  1 56  1  0  0  0  0
  1 57  1  0  0  0  0
  2  3  1  0  0  0  0
  2 54  1  0  0  0  0
  3  4  2  0  0  0  0
  3  5  1  0  0  0  0
  5  6  1  0  0  0  0
  5 52  1  0  0  0  0
  5 53  1  0  0  0  0
  6  7  1  0  0  0  0
  6 45  1  0  0  0  0
  7  8  1  0  0  0  0
  7 50  1  0  0  0  0
  7 51  1  0  0  0  0
  8  9  1  1  0  0  0
  8 29  1  0  0  0  0
  8 38  1  0  0  0  0
  9 10  2  0  0  0  0
  9 11  1  0  0  0  0
 11 12  1  0  0  0  0
 11 28  1  0  0  0  0
 12 13  2  0  0  0  0
 12 21  1  0  0  0  0
 13 14  1  0  0  0  0
 13 27  1  0  0  0  0
 14 15  2  0  0  0  0
 15 16  1  0  0  0  0
 15 26  1  0  0  0  0
 16 17  2  0  0  0  0
 16 21  1  0  0  0  0
 17 18  1  0  0  0  0
 17 25  1  0  0  0  0
 18 19  2  0  0  0  0
 18 24  1  0  0  0  0
 19 20  1  0  0  0  0
 19 23  1  0  0  0  0
 20 21  2  0  0  0  0
 20 22  1  0  0  0  0
 28 29  1  0  0  0  0
 28 36  1  0  0  0  0
 28 37  1  0  0  0  0
 29 30  1  0  0  0  0
 29 31  1  0  0  0  0
 30 31  1  0  0  0  0
 30 34  1  0  0  0  0
 30 35  1  0  0  0  0
 31 32  1  0  0  0  0
 31 33  1  0  0  0  0
 38 39  2  0  0  0  0
 38 44  1  0  0  0  0
 39 40  1  0  0  0  0
 39 49  1  0  0  0  0
 40 41  1  0  0  0  0
 40 42  2  0  0  0  0
 42 43  1  0  0  0  0
 42 48  1  0  0  0  0
 43 44  2  0  0  0  0
 43 47  1  0  0  0  0
 44 45  1  0  0  0  0
 45 46  2  0  0  0  0
M  END
>  <MODEL>
       1

$$$$
