output/tmp_first_model_11_79.pdb
 OpenBabel07242618513D

 45 49  0  0  0  0  0  0  0  0999 V2000
   -7.2690   -4.0720  -23.6670 C   0  0  0  0  0  0  0  0  0  0  0  0
   -7.4540   -2.9650  -22.7610 N   0  0  0  0  0  0  0  0  0  0  0  0
   -6.4440   -2.4810  -21.9700 C   0  0  0  0  0  0  0  0  0  0  0  0
   -5.3010   -2.8760  -21.9030 O   0  0  0  0  0  0  0  0  0  0  0  0
   -6.9930   -1.4090  -21.2440 N   0  0  0  0  0  0  0  0  0  0  0  0
   -6.3060   -0.7580  -20.1860 C   0  0  0  0  0  0  0  0  0  0  0  0
   -6.7000   -0.9810  -18.8910 C   0  0  0  0  0  0  0  0  0  0  0  0
   -6.0750   -0.4700  -17.8010 N   0  0  0  0  0  0  0  0  0  0  0  0
   -5.0340    0.2970  -18.0170 C   0  0  0  0  0  0  0  0  0  0  0  0
   -4.5320    0.6230  -19.3090 C   0  0  0  0  0  0  0  0  0  0  0  0
   -3.4070    1.4740  -19.4760 C   0  0  0  0  0  0  0  0  0  0  0  0
   -2.9700    1.7970  -20.7310 C   0  0  0  0  0  0  0  0  0  0  0  0
   -3.6320    1.2880  -21.8710 C   0  0  0  0  0  0  0  0  0  0  0  0
   -4.7200    0.4600  -21.7360 C   0  0  0  0  0  0  0  0  0  0  0  0
   -5.1890    0.0950  -20.4420 C   0  0  0  0  0  0  0  0  0  0  0  0
   -5.2340    0.0900  -22.6180 H   0  0  0  0  0  0  0  0  0  0  0  0
   -3.2800    1.5620  -22.8620 H   0  0  0  0  0  0  0  0  0  0  0  0
   -2.1180    2.4600  -20.8600 H   0  0  0  0  0  0  0  0  0  0  0  0
   -2.9280    1.8740  -18.5860 H   0  0  0  0  0  0  0  0  0  0  0  0
   -4.5290    0.7080  -17.1420 H   0  0  0  0  0  0  0  0  0  0  0  0
   -7.5600   -1.6170  -18.6950 H   0  0  0  0  0  0  0  0  0  0  0  0
   -8.3650   -1.2860  -21.4710 C   0  0  0  0  0  0  0  0  0  0  0  0
   -9.0790   -0.4310  -20.9990 O   0  0  0  0  0  0  0  0  0  0  0  0
   -8.7410   -2.4370  -22.3890 C   0  0  0  0  0  0  0  0  0  0  0  0
   -9.7610   -3.4090  -21.7620 C   0  0  0  0  0  0  0  0  0  0  0  0
  -10.8220   -2.8320  -22.6130 N   0  0  0  0  0  0  0  0  0  0  0  0
  -11.9420   -3.8340  -23.3060 S   0  0  0  0  0  0  0  0  0  0  0  0
  -13.2350   -3.8220  -22.6570 O   0  0  0  0  0  0  0  0  0  0  0  0
  -11.3550   -5.0070  -23.9370 O   0  0  0  0  0  0  0  0  0  0  0  0
  -14.2750   -4.0960  -25.1600 C   0  0  0  0  0  0  0  0  0  0  0  0
  -13.7660   -2.9490  -25.5140 C   0  0  0  0  0  0  0  0  0  0  0  0
  -14.5450   -4.1150  -25.1390 C   0  0  0  0  0  0  0  0  0  0  0  0
  -14.2080   -5.2180  -25.6940 H   0  0  0  0  0  0  0  0  0  0  0  0
  -16.1400   -3.9140  -25.1810 H   0  0  0  0  0  0  0  0  0  0  0  0
  -12.9530   -3.4970  -25.7230 H   0  0  0  0  0  0  0  0  0  0  0  0
  -14.0040   -1.8650  -25.5690 H   0  0  0  0  0  0  0  0  0  0  0  0
  -14.3240   -4.6710  -24.0560 H   0  0  0  0  0  0  0  0  0  0  0  0
   -9.8190   -2.1150  -23.4410 C   0  0  0  0  0  0  0  0  0  0  0  0
   -9.6310   -2.5960  -24.4120 H   0  0  0  0  0  0  0  0  0  0  0  0
  -10.0470   -1.0540  -23.5700 H   0  0  0  0  0  0  0  0  0  0  0  0
   -9.5680   -4.4680  -21.9740 H   0  0  0  0  0  0  0  0  0  0  0  0
   -9.9080   -3.2680  -20.7010 H   0  0  0  0  0  0  0  0  0  0  0  0
   -7.5740   -3.7900  -24.6790 H   0  0  0  0  0  0  0  0  0  0  0  0
   -7.8400   -4.9480  -23.3450 H   0  0  0  0  0  0  0  0  0  0  0  0
   -6.2100   -4.3250  -23.6580 H   0  0  0  0  0  0  0  0  0  0  0  0
  1  2  1  0  0  0  0
  1 43  1  0  0  0  0
  1 44  1  0  0  0  0
  1 45  1  0  0  0  0
  2  3  1  0  0  0  0
  2 24  1  0  0  0  0
  3  4  2  0  0  0  0
  3  5  1  0  0  0  0
  5  6  1  0  0  0  0
  5 22  1  0  0  0  0
  6  7  2  0  0  0  0
  6 15  1  0  0  0  0
  7  8  1  0  0  0  0
  7 21  1  0  0  0  0
  8  9  2  0  0  0  0
  9 10  1  0  0  0  0
  9 20  1  0  0  0  0
 10 11  2  0  0  0  0
 10 15  1  0  0  0  0
 11 12  1  0  0  0  0
 11 19  1  0  0  0  0
 12 13  2  0  0  0  0
 12 18  1  0  0  0  0
 13 14  1  0  0  0  0
 13 17  1  0  0  0  0
 14 15  2  0  0  0  0
 14 16  1  0  0  0  0
 22 23  2  0  0  0  0
 22 24  1  0  0  0  0
 24 25  1  0  0  0  0
 24 38  1  0  0  0  0
 25 26  1  0  0  0  0
 25 41  1  0  0  0  0
 25 42  1  0  0  0  0
 26 27  1  0  0  0  0
 26 38  1  0  0  0  0
 27 28  2  0  0  0  0
 27 29  2  0  0  0  0
 27 30  1  0  0  0  0
 30 31  1  0  0  0  0
 30 32  1  0  0  0  0
 30 37  1  0  0  0  0
 31 32  1  0  0  0  0
 31 35  1  0  0  0  0
 31 36  1  0  0  0  0
 32 33  1  0  0  0  0
 32 34  1  0  0  0  0
 38 39  1  0  0  0  0
 38 40  1  0  0  0  0
M  END
>  <MODEL>
       1

$$$$
