output/tmp_first_model_20_16.pdb
 OpenBabel07242623363D

 61 66  0  0  1  0  0  0  0  0999 V2000
   -7.7860    3.3060  -22.4600 C   0  0  0  0  0  0  0  0  0  0  0  0
   -8.5610    2.7740  -23.5520 N   0  0  0  0  0  0  0  0  0  0  0  0
   -7.9150    2.0800  -24.5170 C   0  0  0  0  0  0  0  0  0  0  0  0
   -6.6950    2.0340  -24.5930 O   0  0  0  0  0  0  0  0  0  0  0  0
   -8.8310    1.3000  -25.4690 C   0  0  0  0  0  0  0  0  0  0  0  0
   -9.5130    0.2330  -24.7410 N   0  0  0  0  0  0  0  0  0  0  0  0
   -8.6910   -0.8890  -24.3270 C   0  0  0  0  0  0  0  0  0  0  0  0
   -9.1020   -1.5310  -22.9660 C   0  0  2  0  0  0  0  0  0  0  0  0
   -8.5510   -0.6690  -21.7980 C   0  0  0  0  0  0  0  0  0  0  0  0
   -8.9940    0.3940  -21.4220 O   0  0  0  0  0  0  0  0  0  0  0  0
   -7.4610   -1.3110  -21.2450 N   0  0  0  0  0  0  0  0  0  0  0  0
   -6.6650   -0.7440  -20.2090 C   0  0  0  0  0  0  0  0  0  0  0  0
   -6.9610   -1.0000  -18.8960 C   0  0  0  0  0  0  0  0  0  0  0  0
   -6.2370   -0.5450  -17.8410 N   0  0  0  0  0  0  0  0  0  0  0  0
   -5.1790    0.1830  -18.0910 C   0  0  0  0  0  0  0  0  0  0  0  0
   -4.7450    0.5190  -19.4060 C   0  0  0  0  0  0  0  0  0  0  0  0
   -3.5910    1.3160  -19.6410 C   0  0  0  0  0  0  0  0  0  0  0  0
   -3.2180    1.6300  -20.9190 C   0  0  0  0  0  0  0  0  0  0  0  0
   -3.9780    1.1750  -22.0200 C   0  0  0  0  0  0  0  0  0  0  0  0
   -5.1030    0.4150  -21.8160 C   0  0  0  0  0  0  0  0  0  0  0  0
   -5.5100    0.0520  -20.5030 C   0  0  0  0  0  0  0  0  0  0  0  0
   -5.7050    0.1050  -22.6660 H   0  0  0  0  0  0  0  0  0  0  0  0
   -3.6750    1.4330  -23.0310 H   0  0  0  0  0  0  0  0  0  0  0  0
   -2.3460    2.2510  -21.1010 H   0  0  0  0  0  0  0  0  0  0  0  0
   -3.0250    1.6810  -18.7870 H   0  0  0  0  0  0  0  0  0  0  0  0
   -4.6010    0.5460  -17.2370 H   0  0  0  0  0  0  0  0  0  0  0  0
   -7.8320   -1.6020  -18.6480 H   0  0  0  0  0  0  0  0  0  0  0  0
   -7.0830   -2.5280  -21.9290 C   0  0  0  0  0  0  0  0  0  0  0  0
   -8.3400   -2.8690  -22.7430 C   0  0  2  0  0  0  0  0  0  0  0  0
   -8.0120   -3.6660  -24.0080 C   0  0  0  0  0  0  0  0  0  0  0  0
   -7.4720   -4.9780  -23.7000 N   0  0  0  0  0  0  0  0  0  0  0  0
   -6.1780   -5.2420  -23.6550 N   0  0  0  0  0  0  0  0  0  0  0  0
   -6.1880   -6.5230  -23.3210 C   0  0  0  0  0  0  0  0  0  0  0  0
   -7.4370   -7.0090  -23.1670 N   0  0  0  0  0  0  0  0  0  0  0  0
   -8.2370   -6.0090  -23.4170 N   0  0  0  0  0  0  0  0  0  0  0  0
   -5.2880   -7.1050  -23.1840 H   0  0  0  0  0  0  0  0  0  0  0  0
   -7.2610   -3.1540  -24.6080 H   0  0  0  0  0  0  0  0  0  0  0  0
   -8.8970   -3.8050  -24.6310 H   0  0  0  0  0  0  0  0  0  0  0  0
   -8.9670   -3.5100  -22.1240 H   0  0  0  0  0  0  0  0  0  0  0  0
   -6.2010   -2.3850  -22.5770 H   0  0  0  0  0  0  0  0  0  0  0  0
   -6.8380   -3.3120  -21.2070 H   0  0  0  0  0  0  0  0  0  0  0  0
  -10.6190   -1.6090  -22.8690 C   0  0  0  0  0  0  0  0  0  0  0  0
  -11.2590   -2.4940  -21.9890 C   0  0  0  0  0  0  0  0  0  0  0  0
  -12.6410   -2.5010  -21.8860 C   0  0  0  0  0  0  0  0  0  0  0  0
  -13.4100   -3.6260  -20.8050 Cl  0  0  0  0  0  0  0  0  0  0  0  0
  -13.4440   -1.6130  -22.6000 C   0  0  0  0  0  0  0  0  0  0  0  0
  -12.8160   -0.6950  -23.4140 C   0  0  0  0  0  0  0  0  0  0  0  0
  -11.4270   -0.6870  -23.5500 C   0  0  0  0  0  0  0  0  0  0  0  0
  -10.8190    0.4000  -24.3870 C   0  0  0  0  0  0  0  0  0  0  0  0
  -11.4520    1.3980  -24.7120 O   0  0  0  0  0  0  0  0  0  0  0  0
  -13.3910    0.0440  -23.9580 H   0  0  0  0  0  0  0  0  0  0  0  0
  -14.5260   -1.6360  -22.4910 H   0  0  0  0  0  0  0  0  0  0  0  0
  -10.7000   -3.1680  -21.3480 H   0  0  0  0  0  0  0  0  0  0  0  0
   -8.6870   -1.6320  -25.1320 H   0  0  0  0  0  0  0  0  0  0  0  0
   -7.6650   -0.5220  -24.2340 H   0  0  0  0  0  0  0  0  0  0  0  0
   -8.2030    0.8800  -26.2630 H   0  0  0  0  0  0  0  0  0  0  0  0
   -9.6090    1.9430  -25.8960 H   0  0  0  0  0  0  0  0  0  0  0  0
   -9.5310    2.5570  -23.3750 H   0  0  0  0  0  0  0  0  0  0  0  0
   -6.8740    3.7440  -22.8600 H   0  0  0  0  0  0  0  0  0  0  0  0
   -7.4720    2.5210  -21.7650 H   0  0  0  0  0  0  0  0  0  0  0  0
   -8.3830    4.0590  -21.9500 H   0  0  0  0  0  0  0  0  0  0  0  0
  1  2  1  0  0  0  0
  1 59  1  0  0  0  0
  1 60  1  0  0  0  0
  1 61  1  0  0  0  0
  2  3  1  0  0  0  0
  2 58  1  0  0  0  0
  3  4  2  0  0  0  0
  3  5  1  0  0  0  0
  5  6  1  0  0  0  0
  5 56  1  0  0  0  0
  5 57  1  0  0  0  0
  6  7  1  0  0  0  0
  6 49  1  0  0  0  0
  7  8  1  0  0  0  0
  7 54  1  0  0  0  0
  7 55  1  0  0  0  0
  8  9  1  1  0  0  0
  8 29  1  0  0  0  0
  8 42  1  0  0  0  0
  9 10  2  0  0  0  0
  9 11  1  0  0  0  0
 11 12  1  0  0  0  0
 11 28  1  0  0  0  0
 12 13  2  0  0  0  0
 12 21  1  0  0  0  0
 13 14  1  0  0  0  0
 13 27  1  0  0  0  0
 14 15  2  0  0  0  0
 15 16  1  0  0  0  0
 15 26  1  0  0  0  0
 16 17  2  0  0  0  0
 16 21  1  0  0  0  0
 17 18  1  0  0  0  0
 17 25  1  0  0  0  0
 18 19  2  0  0  0  0
 18 24  1  0  0  0  0
 19 20  1  0  0  0  0
 19 23  1  0  0  0  0
 20 21  2  0  0  0  0
 20 22  1  0  0  0  0
 28 29  1  0  0  0  0
 28 40  1  0  0  0  0
 28 41  1  0  0  0  0
 29 30  1  0  0  0  0
 29 39  1  1  0  0  0
 30 31  1  0  0  0  0
 30 37  1  0  0  0  0
 30 38  1  0  0  0  0
 31 32  1  0  0  0  0
 31 35  1  0  0  0  0
 32 33  2  0  0  0  0
 33 34  1  0  0  0  0
 33 36  1  0  0  0  0
 34 35  2  0  0  0  0
 42 43  2  0  0  0  0
 42 48  1  0  0  0  0
 43 44  1  0  0  0  0
 43 53  1  0  0  0  0
 44 45  1  0  0  0  0
 44 46  2  0  0  0  0
 46 47  1  0  0  0  0
 46 52  1  0  0  0  0
 47 48  2  0  0  0  0
 47 51  1  0  0  0  0
 48 49  1  0  0  0  0
 49 50  2  0  0  0  0
M  END
>  <MODEL>
       1

$$$$
