output/tmp_first_model_20_49.pdb
 OpenBabel07242623363D

 67 72  0  0  1  0  0  0  0  0999 V2000
   -7.7330    3.2290  -22.4340 C   0  0  0  0  0  0  0  0  0  0  0  0
   -8.5280    2.7050  -23.5220 N   0  0  0  0  0  0  0  0  0  0  0  0
   -7.9200    2.0380  -24.5340 C   0  0  0  0  0  0  0  0  0  0  0  0
   -6.7120    2.0120  -24.6850 O   0  0  0  0  0  0  0  0  0  0  0  0
   -8.8880    1.2700  -25.4470 C   0  0  0  0  0  0  0  0  0  0  0  0
   -9.5470    0.2020  -24.7010 N   0  0  0  0  0  0  0  0  0  0  0  0
   -8.7110   -0.9190  -24.3070 C   0  0  0  0  0  0  0  0  0  0  0  0
   -9.1210   -1.5870  -22.9570 C   0  0  2  0  0  0  0  0  0  0  0  0
   -8.5780   -0.7260  -21.7820 C   0  0  0  0  0  0  0  0  0  0  0  0
   -9.0570    0.3120  -21.3730 O   0  0  0  0  0  0  0  0  0  0  0  0
   -7.4420   -1.3270  -21.2820 N   0  0  0  0  0  0  0  0  0  0  0  0
   -6.6620   -0.7510  -20.2380 C   0  0  0  0  0  0  0  0  0  0  0  0
   -6.9640   -1.0040  -18.9240 C   0  0  0  0  0  0  0  0  0  0  0  0
   -6.2450   -0.5510  -17.8660 N   0  0  0  0  0  0  0  0  0  0  0  0
   -5.1840    0.1740  -18.1080 C   0  0  0  0  0  0  0  0  0  0  0  0
   -4.7460    0.5170  -19.4190 C   0  0  0  0  0  0  0  0  0  0  0  0
   -3.5900    1.3120  -19.6460 C   0  0  0  0  0  0  0  0  0  0  0  0
   -3.2130    1.6360  -20.9200 C   0  0  0  0  0  0  0  0  0  0  0  0
   -3.9750    1.1940  -22.0230 C   0  0  0  0  0  0  0  0  0  0  0  0
   -5.1060    0.4360  -21.8270 C   0  0  0  0  0  0  0  0  0  0  0  0
   -5.5110    0.0570  -20.5200 C   0  0  0  0  0  0  0  0  0  0  0  0
   -5.7180    0.1520  -22.6780 H   0  0  0  0  0  0  0  0  0  0  0  0
   -3.6750    1.4630  -23.0310 H   0  0  0  0  0  0  0  0  0  0  0  0
   -2.3350    2.2510  -21.0950 H   0  0  0  0  0  0  0  0  0  0  0  0
   -3.0210    1.6640  -18.7890 H   0  0  0  0  0  0  0  0  0  0  0  0
   -4.6160    0.5360  -17.2480 H   0  0  0  0  0  0  0  0  0  0  0  0
   -7.8310   -1.6120  -18.6780 H   0  0  0  0  0  0  0  0  0  0  0  0
   -7.0590   -2.5360  -21.9830 C   0  0  0  0  0  0  0  0  0  0  0  0
   -8.3450   -2.9150  -22.7380 C   0  0  2  0  0  0  0  0  0  0  0  0
   -8.0780   -3.7630  -23.9900 C   0  0  0  0  0  0  0  0  0  0  0  0
   -7.6150   -5.0900  -23.6640 N   0  0  0  0  0  0  0  0  0  0  0  0
   -6.2830   -5.3920  -23.5860 C   0  0  0  0  0  0  0  0  0  0  0  0
   -5.2180   -4.6590  -24.0170 C   0  0  0  0  0  0  0  0  0  0  0  0
   -3.9780   -5.2210  -23.8450 N   0  0  0  0  0  0  0  0  0  0  0  0
   -4.0620   -6.3860  -23.2880 C   0  0  0  0  0  0  0  0  0  0  0  0
   -2.8860   -7.2630  -22.9970 C   0  0  0  0  0  0  0  0  0  0  0  0
   -3.0570   -7.8680  -22.1050 H   0  0  0  0  0  0  0  0  0  0  0  0
   -2.7090   -7.9540  -23.8300 H   0  0  0  0  0  0  0  0  0  0  0  0
   -1.9940   -6.6440  -22.8650 H   0  0  0  0  0  0  0  0  0  0  0  0
   -5.6960   -6.8930  -22.9120 S   0  0  0  0  0  0  0  0  0  0  0  0
   -5.2930   -3.6840  -24.4820 H   0  0  0  0  0  0  0  0  0  0  0  0
   -8.2860   -5.8310  -23.5520 H   0  0  0  0  0  0  0  0  0  0  0  0
   -8.9930   -3.8370  -24.5890 H   0  0  0  0  0  0  0  0  0  0  0  0
   -7.3130   -3.2780  -24.6090 H   0  0  0  0  0  0  0  0  0  0  0  0
   -8.9440   -3.5210  -22.0540 H   0  0  0  0  0  0  0  0  0  0  0  0
   -6.1990   -2.3740  -22.6560 H   0  0  0  0  0  0  0  0  0  0  0  0
   -6.7500   -3.3150  -21.2810 H   0  0  0  0  0  0  0  0  0  0  0  0
  -10.6360   -1.6850  -22.8650 C   0  0  0  0  0  0  0  0  0  0  0  0
  -11.2700   -2.5860  -21.9970 C   0  0  0  0  0  0  0  0  0  0  0  0
  -12.6490   -2.6040  -21.8820 C   0  0  0  0  0  0  0  0  0  0  0  0
  -13.4080   -3.7510  -20.8200 Cl  0  0  0  0  0  0  0  0  0  0  0  0
  -13.4590   -1.7120  -22.5790 C   0  0  0  0  0  0  0  0  0  0  0  0
  -12.8400   -0.7800  -23.3830 C   0  0  0  0  0  0  0  0  0  0  0  0
  -11.4520   -0.7580  -23.5260 C   0  0  0  0  0  0  0  0  0  0  0  0
  -10.8560    0.3480  -24.3470 C   0  0  0  0  0  0  0  0  0  0  0  0
  -11.5080    1.3360  -24.6620 O   0  0  0  0  0  0  0  0  0  0  0  0
  -13.4230   -0.0320  -23.9050 H   0  0  0  0  0  0  0  0  0  0  0  0
  -14.5390   -1.7460  -22.4660 H   0  0  0  0  0  0  0  0  0  0  0  0
  -10.7100   -3.2730  -21.3730 H   0  0  0  0  0  0  0  0  0  0  0  0
   -7.6950   -0.5290  -24.2090 H   0  0  0  0  0  0  0  0  0  0  0  0
   -8.6810   -1.6480  -25.1260 H   0  0  0  0  0  0  0  0  0  0  0  0
   -9.6790    1.9150  -25.8420 H   0  0  0  0  0  0  0  0  0  0  0  0
   -8.3090    0.8670  -26.2860 H   0  0  0  0  0  0  0  0  0  0  0  0
   -9.4860    2.4640  -23.3210 H   0  0  0  0  0  0  0  0  0  0  0  0
   -7.3730    2.4170  -21.7830 H   0  0  0  0  0  0  0  0  0  0  0  0
   -6.8550    3.7270  -22.8560 H   0  0  0  0  0  0  0  0  0  0  0  0
   -8.3320    3.9420  -21.8600 H   0  0  0  0  0  0  0  0  0  0  0  0
  1  2  1  0  0  0  0
  1 65  1  0  0  0  0
  1 66  1  0  0  0  0
  1 67  1  0  0  0  0
  2  3  1  0  0  0  0
  2 64  1  0  0  0  0
  3  4  2  0  0  0  0
  3  5  1  0  0  0  0
  5  6  1  0  0  0  0
  5 62  1  0  0  0  0
  5 63  1  0  0  0  0
  6  7  1  0  0  0  0
  6 55  1  0  0  0  0
  7  8  1  0  0  0  0
  7 60  1  0  0  0  0
  7 61  1  0  0  0  0
  8  9  1  1  0  0  0
  8 29  1  0  0  0  0
  8 48  1  0  0  0  0
  9 10  2  0  0  0  0
  9 11  1  0  0  0  0
 11 12  1  0  0  0  0
 11 28  1  0  0  0  0
 12 13  2  0  0  0  0
 12 21  1  0  0  0  0
 13 14  1  0  0  0  0
 13 27  1  0  0  0  0
 14 15  2  0  0  0  0
 15 16  1  0  0  0  0
 15 26  1  0  0  0  0
 16 17  2  0  0  0  0
 16 21  1  0  0  0  0
 17 18  1  0  0  0  0
 17 25  1  0  0  0  0
 18 19  2  0  0  0  0
 18 24  1  0  0  0  0
 19 20  1  0  0  0  0
 19 23  1  0  0  0  0
 20 21  2  0  0  0  0
 20 22  1  0  0  0  0
 28 29  1  0  0  0  0
 28 46  1  0  0  0  0
 28 47  1  0  0  0  0
 29 30  1  0  0  0  0
 29 45  1  1  0  0  0
 30 31  1  0  0  0  0
 30 43  1  0  0  0  0
 30 44  1  0  0  0  0
 31 32  1  0  0  0  0
 31 42  1  0  0  0  0
 32 33  2  0  0  0  0
 32 40  1  0  0  0  0
 33 34  1  0  0  0  0
 33 41  1  0  0  0  0
 34 35  2  0  0  0  0
 35 36  1  0  0  0  0
 35 40  1  0  0  0  0
 36 37  1  0  0  0  0
 36 38  1  0  0  0  0
 36 39  1  0  0  0  0
 48 49  2  0  0  0  0
 48 54  1  0  0  0  0
 49 50  1  0  0  0  0
 49 59  1  0  0  0  0
 50 51  1  0  0  0  0
 50 52  2  0  0  0  0
 52 53  1  0  0  0  0
 52 58  1  0  0  0  0
 53 54  2  0  0  0  0
 53 57  1  0  0  0  0
 54 55  1  0  0  0  0
 55 56  2  0  0  0  0
M  END
>  <MODEL>
       1

$$$$
