output/tmp_first_model_16_35.pdb
 OpenBabel07242621343D

 40 42  0  0  0  0  0  0  0  0999 V2000
   -9.2230   -1.8260  -22.7700 O   0  0  0  0  0  0  0  0  0  0  0  0
   -8.2920   -1.0880  -22.4640 C   0  0  0  0  0  0  0  0  0  0  0  0
   -6.9140   -1.6350  -22.1030 C   0  0  0  0  0  0  0  0  0  0  0  0
   -6.3380   -1.0700  -20.8170 C   0  0  0  0  0  0  0  0  0  0  0  0
   -6.9470   -1.3420  -19.6140 C   0  0  0  0  0  0  0  0  0  0  0  0
   -6.4990   -0.9410  -18.3970 N   0  0  0  0  0  0  0  0  0  0  0  0
   -5.4200   -0.1960  -18.3770 C   0  0  0  0  0  0  0  0  0  0  0  0
   -4.7120    0.2150  -19.5400 C   0  0  0  0  0  0  0  0  0  0  0  0
   -3.6040    1.1000  -19.4750 C   0  0  0  0  0  0  0  0  0  0  0  0
   -2.9800    1.5160  -20.6170 C   0  0  0  0  0  0  0  0  0  0  0  0
   -3.4340    1.0660  -21.8740 C   0  0  0  0  0  0  0  0  0  0  0  0
   -4.4820    0.1810  -21.9640 C   0  0  0  0  0  0  0  0  0  0  0  0
   -5.1670   -0.2530  -20.7980 C   0  0  0  0  0  0  0  0  0  0  0  0
   -4.7960   -0.1530  -22.9500 H   0  0  0  0  0  0  0  0  0  0  0  0
   -2.9160    1.3870  -22.7720 H   0  0  0  0  0  0  0  0  0  0  0  0
   -2.1250    2.1830  -20.5670 H   0  0  0  0  0  0  0  0  0  0  0  0
   -3.2840    1.4570  -18.4990 H   0  0  0  0  0  0  0  0  0  0  0  0
   -5.0560    0.1210  -17.3990 H   0  0  0  0  0  0  0  0  0  0  0  0
   -7.8690   -1.9240  -19.5910 H   0  0  0  0  0  0  0  0  0  0  0  0
   -7.0430   -2.7140  -22.0090 H   0  0  0  0  0  0  0  0  0  0  0  0
   -6.2310   -1.4770  -22.9400 H   0  0  0  0  0  0  0  0  0  0  0  0
   -8.3510    0.2730  -22.3970 N   0  0  0  0  0  0  0  0  0  0  0  0
   -7.3710    1.1440  -23.1140 C   0  0  0  0  0  0  0  0  0  0  0  0
   -7.9420    2.4350  -23.6470 C   0  0  0  0  0  0  0  0  0  0  0  0
   -9.2270    2.7810  -23.6860 C   0  0  0  0  0  0  0  0  0  0  0  0
   -8.6180    5.4200  -23.0030 C   0  0  0  0  0  0  0  0  0  0  0  0
   -7.9040    5.0820  -21.9490 F   0  0  0  0  0  0  0  0  0  0  0  0
   -9.5300    6.3140  -22.6800 F   0  0  0  0  0  0  0  0  0  0  0  0
   -7.8410    5.8560  -23.9740 F   0  0  0  0  0  0  0  0  0  0  0  0
   -9.5150    1.0470  -21.9130 C   0  0  0  0  0  0  0  0  0  0  0  0
   -9.5290    0.8900  -21.7380 C   0  0  0  0  0  0  0  0  0  0  0  0
  -10.3020    0.5580  -22.7010 H   0  0  0  0  0  0  0  0  0  0  0  0
   -9.8220    0.0260  -20.4700 H   0  0  0  0  0  0  0  0  0  0  0  0
  -10.4240    1.8120  -21.6330 H   0  0  0  0  0  0  0  0  0  0  0  0
   -8.7830    1.8840  -21.3890 H   0  0  0  0  0  0  0  0  0  0  0  0
   -9.4900    3.8330  -23.8220 H   0  0  0  0  0  0  0  0  0  0  0  0
   -7.1740    3.1100  -24.0130 H   0  0  0  0  0  0  0  0  0  0  0  0
   -9.9920    2.0430  -23.5540 H   0  0  0  0  0  0  0  0  0  0  0  0
   -6.9280    0.5760  -23.9360 H   0  0  0  0  0  0  0  0  0  0  0  0
   -6.5670    1.3770  -22.4080 H   0  0  0  0  0  0  0  0  0  0  0  0
  1  2  2  0  0  0  0
  2  3  1  0  0  0  0
  2 22  1  0  0  0  0
  3  4  1  0  0  0  0
  3 20  1  0  0  0  0
  3 21  1  0  0  0  0
  4  5  2  0  0  0  0
  4 13  1  0  0  0  0
  5  6  1  0  0  0  0
  5 19  1  0  0  0  0
  6  7  2  0  0  0  0
  7  8  1  0  0  0  0
  7 18  1  0  0  0  0
  8  9  2  0  0  0  0
  8 13  1  0  0  0  0
  9 10  1  0  0  0  0
  9 17  1  0  0  0  0
 10 11  2  0  0  0  0
 10 16  1  0  0  0  0
 11 12  1  0  0  0  0
 11 15  1  0  0  0  0
 12 13  2  0  0  0  0
 12 14  1  0  0  0  0
 22 23  1  0  0  0  0
 22 31  1  0  0  0  0
 23 24  1  0  0  0  0
 23 39  1  0  0  0  0
 23 40  1  0  0  0  0
 24 25  1  0  0  0  0
 24 37  1  0  0  0  0
 24 38  1  0  0  0  0
 25 26  1  0  0  0  0
 25 30  1  0  0  0  0
 25 36  1  0  0  0  0
 26 27  1  0  0  0  0
 26 28  1  0  0  0  0
 26 29  1  0  0  0  0
 30 31  1  0  0  0  0
 30 34  1  0  0  0  0
 30 35  1  0  0  0  0
 31 32  1  0  0  0  0
 31 33  1  0  0  0  0
M  END
>  <MODEL>
       1

$$$$
