output/tmp_first_model_17_93.pdb
 OpenBabel07242622053D

 62 67  0  0  1  0  0  0  0  0999 V2000
   -6.6030    2.5650  -28.8180 C   0  0  0  0  0  0  0  0  0  0  0  0
   -5.3860    2.2940  -27.9310 C   0  0  0  0  0  0  0  0  0  0  0  0
   -5.6540    2.5040  -26.5110 N   0  0  0  0  0  0  0  0  0  0  0  0
   -5.3960    3.7070  -25.9740 N   0  0  0  0  0  0  0  0  0  0  0  0
   -5.7980    3.6230  -24.7120 C   0  0  0  0  0  0  0  0  0  0  0  0
   -6.3340    2.3460  -24.4350 C   0  0  0  0  0  0  0  0  0  0  0  0
   -6.2420    1.6580  -25.6220 C   0  0  0  0  0  0  0  0  0  0  0  0
   -6.6390    0.2390  -25.9130 C   0  0  0  0  0  0  0  0  0  0  0  0
   -7.8030   -0.1880  -25.1550 N   0  0  0  0  0  0  0  0  0  0  0  0
   -7.7680   -1.4640  -24.4630 C   0  0  0  0  0  0  0  0  0  0  0  0
   -8.6840   -1.4810  -23.2140 C   0  0  2  0  0  0  0  0  0  0  0  0
   -8.0860   -0.5690  -22.1130 C   0  0  0  0  0  0  0  0  0  0  0  0
   -8.1560    0.6430  -22.0460 O   0  0  0  0  0  0  0  0  0  0  0  0
   -7.4240   -1.3560  -21.2010 N   0  0  0  0  0  0  0  0  0  0  0  0
   -6.6110   -0.8050  -20.1820 C   0  0  0  0  0  0  0  0  0  0  0  0
   -6.8970   -1.0570  -18.8650 C   0  0  0  0  0  0  0  0  0  0  0  0
   -6.1950   -0.5570  -17.8210 N   0  0  0  0  0  0  0  0  0  0  0  0
   -5.1680    0.2090  -18.0880 C   0  0  0  0  0  0  0  0  0  0  0  0
   -4.7380    0.5320  -19.4030 C   0  0  0  0  0  0  0  0  0  0  0  0
   -3.6070    1.3610  -19.6380 C   0  0  0  0  0  0  0  0  0  0  0  0
   -3.2020    1.6400  -20.9110 C   0  0  0  0  0  0  0  0  0  0  0  0
   -3.9030    1.0860  -22.0110 C   0  0  0  0  0  0  0  0  0  0  0  0
   -4.9920    0.2770  -21.8070 C   0  0  0  0  0  0  0  0  0  0  0  0
   -5.4650    0.0010  -20.4940 C   0  0  0  0  0  0  0  0  0  0  0  0
   -5.5080   -0.1590  -22.6560 H   0  0  0  0  0  0  0  0  0  0  0  0
   -3.5590    1.2960  -23.0180 H   0  0  0  0  0  0  0  0  0  0  0  0
   -2.3360    2.2700  -21.0910 H   0  0  0  0  0  0  0  0  0  0  0  0
   -3.0780    1.7670  -18.7780 H   0  0  0  0  0  0  0  0  0  0  0  0
   -4.6230    0.6140  -17.2350 H   0  0  0  0  0  0  0  0  0  0  0  0
   -7.7480   -1.6820  -18.6000 H   0  0  0  0  0  0  0  0  0  0  0  0
   -7.5160   -2.7790  -21.4780 C   0  0  0  0  0  0  0  0  0  0  0  0
   -8.6470   -2.8830  -22.5210 C   0  0  2  0  0  0  0  0  0  0  0  0
   -8.5010   -4.1080  -23.4330 C   0  0  0  0  0  0  0  0  0  0  0  0
   -9.2680   -4.1310  -24.2170 H   0  0  0  0  0  0  0  0  0  0  0  0
   -8.5830   -5.0390  -22.8600 H   0  0  0  0  0  0  0  0  0  0  0  0
   -7.5210   -4.1190  -23.9300 H   0  0  0  0  0  0  0  0  0  0  0  0
   -9.5880   -2.9750  -21.9720 H   0  0  0  0  0  0  0  0  0  0  0  0
   -7.7370   -3.3300  -20.5590 H   0  0  0  0  0  0  0  0  0  0  0  0
   -6.5650   -3.1690  -21.8750 H   0  0  0  0  0  0  0  0  0  0  0  0
  -10.0540   -0.9700  -23.6130 C   0  0  0  0  0  0  0  0  0  0  0  0
  -11.1850   -1.2450  -22.8330 C   0  0  0  0  0  0  0  0  0  0  0  0
  -12.4100   -0.7290  -23.2010 C   0  0  0  0  0  0  0  0  0  0  0  0
  -13.4890   -1.0130  -22.4540 F   0  0  0  0  0  0  0  0  0  0  0  0
  -12.5720    0.0760  -24.3230 C   0  0  0  0  0  0  0  0  0  0  0  0
  -11.4520    0.3790  -25.0670 C   0  0  0  0  0  0  0  0  0  0  0  0
  -10.1940   -0.1010  -24.7080 C   0  0  0  0  0  0  0  0  0  0  0  0
   -9.0060    0.3660  -25.5000 C   0  0  0  0  0  0  0  0  0  0  0  0
   -9.0930    1.1980  -26.3950 O   0  0  0  0  0  0  0  0  0  0  0  0
  -11.5110    0.9940  -25.9500 H   0  0  0  0  0  0  0  0  0  0  0  0
  -13.5560    0.4540  -24.5720 H   0  0  0  0  0  0  0  0  0  0  0  0
  -11.1380   -1.8360  -21.9250 H   0  0  0  0  0  0  0  0  0  0  0  0
   -6.7390   -1.6560  -24.1380 H   0  0  0  0  0  0  0  0  0  0  0  0
   -8.0850   -2.2750  -25.1380 H   0  0  0  0  0  0  0  0  0  0  0  0
   -6.8140    0.1020  -26.9880 H   0  0  0  0  0  0  0  0  0  0  0  0
   -5.8270   -0.4330  -25.6200 H   0  0  0  0  0  0  0  0  0  0  0  0
   -6.7290    1.9320  -23.5130 H   0  0  0  0  0  0  0  0  0  0  0  0
   -5.6870    4.4970  -24.0770 H   0  0  0  0  0  0  0  0  0  0  0  0
   -4.5570    2.9680  -28.1770 H   0  0  0  0  0  0  0  0  0  0  0  0
   -5.0300    1.2640  -28.0550 H   0  0  0  0  0  0  0  0  0  0  0  0
   -6.9210    3.6090  -28.7310 H   0  0  0  0  0  0  0  0  0  0  0  0
   -7.4480    1.9210  -28.5450 H   0  0  0  0  0  0  0  0  0  0  0  0
   -6.3430    2.3730  -29.8640 H   0  0  0  0  0  0  0  0  0  0  0  0
  1  2  1  0  0  0  0
  1 60  1  0  0  0  0
  1 61  1  0  0  0  0
  1 62  1  0  0  0  0
  2  3  1  0  0  0  0
  2 58  1  0  0  0  0
  2 59  1  0  0  0  0
  3  4  1  0  0  0  0
  3  7  1  0  0  0  0
  4  5  2  0  0  0  0
  5  6  1  0  0  0  0
  5 57  1  0  0  0  0
  6  7  2  0  0  0  0
  6 56  1  0  0  0  0
  7  8  1  0  0  0  0
  8  9  1  0  0  0  0
  8 54  1  0  0  0  0
  8 55  1  0  0  0  0
  9 10  1  0  0  0  0
  9 47  1  0  0  0  0
 10 11  1  0  0  0  0
 10 52  1  0  0  0  0
 10 53  1  0  0  0  0
 11 12  1  1  0  0  0
 11 32  1  0  0  0  0
 11 40  1  0  0  0  0
 12 13  2  0  0  0  0
 12 14  1  0  0  0  0
 14 15  1  0  0  0  0
 14 31  1  0  0  0  0
 15 16  2  0  0  0  0
 15 24  1  0  0  0  0
 16 17  1  0  0  0  0
 16 30  1  0  0  0  0
 17 18  2  0  0  0  0
 18 19  1  0  0  0  0
 18 29  1  0  0  0  0
 19 20  2  0  0  0  0
 19 24  1  0  0  0  0
 20 21  1  0  0  0  0
 20 28  1  0  0  0  0
 21 22  2  0  0  0  0
 21 27  1  0  0  0  0
 22 23  1  0  0  0  0
 22 26  1  0  0  0  0
 23 24  2  0  0  0  0
 23 25  1  0  0  0  0
 31 32  1  0  0  0  0
 31 38  1  0  0  0  0
 31 39  1  0  0  0  0
 32 33  1  0  0  0  0
 32 37  1  1  0  0  0
 33 34  1  0  0  0  0
 33 35  1  0  0  0  0
 33 36  1  0  0  0  0
 40 41  2  0  0  0  0
 40 46  1  0  0  0  0
 41 42  1  0  0  0  0
 41 51  1  0  0  0  0
 42 43  1  0  0  0  0
 42 44  2  0  0  0  0
 44 45  1  0  0  0  0
 44 50  1  0  0  0  0
 45 46  2  0  0  0  0
 45 49  1  0  0  0  0
 46 47  1  0  0  0  0
 47 48  2  0  0  0  0
M  END
>  <MODEL>
       1

$$$$
