output/tmp_first_model_5_44.pdb
 OpenBabel07242615323D

 60 64  0  0  1  0  0  0  0  0999 V2000
  -14.6900   -1.6620  -23.3150 C   0  0  0  0  0  0  0  0  0  0  0  0
  -13.6780   -2.6180  -22.9370 N   0  0  0  0  0  0  0  0  0  0  0  0
  -13.3380   -2.8890  -21.6530 C   0  0  0  0  0  0  0  0  0  0  0  0
  -13.7820   -2.3260  -20.6700 O   0  0  0  0  0  0  0  0  0  0  0  0
  -12.3720   -4.0590  -21.5850 C   0  0  0  0  0  0  0  0  0  0  0  0
  -11.1470   -3.8750  -22.3460 N   0  0  0  0  0  0  0  0  0  0  0  0
   -9.9860   -3.3810  -21.6250 C   0  0  0  0  0  0  0  0  0  0  0  0
   -8.8350   -2.8670  -22.5210 C   0  0  2  0  0  0  0  0  0  0  0  0
   -7.6490   -2.7190  -21.5680 C   0  0  0  0  0  0  0  0  0  0  0  0
   -6.9910   -3.6260  -21.1030 O   0  0  0  0  0  0  0  0  0  0  0  0
   -7.4750   -1.3860  -21.2510 N   0  0  0  0  0  0  0  0  0  0  0  0
   -6.5200   -1.0780  -20.2530 C   0  0  0  0  0  0  0  0  0  0  0  0
   -6.6150   -1.6280  -18.9950 C   0  0  0  0  0  0  0  0  0  0  0  0
   -5.6630   -1.5030  -18.0370 N   0  0  0  0  0  0  0  0  0  0  0  0
   -4.5800   -0.8220  -18.3340 C   0  0  0  0  0  0  0  0  0  0  0  0
   -4.3840   -0.1540  -19.5730 C   0  0  0  0  0  0  0  0  0  0  0  0
   -3.2610    0.6860  -19.8010 C   0  0  0  0  0  0  0  0  0  0  0  0
   -3.1940    1.4480  -20.9340 C   0  0  0  0  0  0  0  0  0  0  0  0
   -4.1720    1.3030  -21.9460 C   0  0  0  0  0  0  0  0  0  0  0  0
   -5.2360    0.4560  -21.7700 C   0  0  0  0  0  0  0  0  0  0  0  0
   -5.3890   -0.2610  -20.5580 C   0  0  0  0  0  0  0  0  0  0  0  0
   -6.0000    0.3570  -22.5310 H   0  0  0  0  0  0  0  0  0  0  0  0
   -4.0620    1.8360  -22.8840 H   0  0  0  0  0  0  0  0  0  0  0  0
   -2.3720    2.1430  -21.0770 H   0  0  0  0  0  0  0  0  0  0  0  0
   -2.5170    0.7680  -19.0130 H   0  0  0  0  0  0  0  0  0  0  0  0
   -3.8110   -0.7300  -17.5610 H   0  0  0  0  0  0  0  0  0  0  0  0
   -7.5040   -2.1840  -18.6930 H   0  0  0  0  0  0  0  0  0  0  0  0
   -8.5010   -0.5250  -21.8500 C   0  0  0  0  0  0  0  0  0  0  0  0
   -9.0200   -1.3970  -23.0100 C   0  0  2  0  0  0  0  0  0  0  0  0
  -10.4310   -1.0780  -23.4660 C   0  0  0  0  0  0  0  0  0  0  0  0
  -10.4810    0.2400  -23.9540 O   0  0  0  0  0  0  0  0  0  0  0  0
  -11.8020    0.5700  -24.2860 C   0  0  0  0  0  0  0  0  0  0  0  0
  -12.4310    0.6560  -23.3860 H   0  0  0  0  0  0  0  0  0  0  0  0
  -12.2370   -0.2090  -24.9310 H   0  0  0  0  0  0  0  0  0  0  0  0
  -11.8020    1.5250  -24.8160 H   0  0  0  0  0  0  0  0  0  0  0  0
  -10.7100   -1.7890  -24.2630 H   0  0  0  0  0  0  0  0  0  0  0  0
  -11.1470   -1.2040  -22.6390 H   0  0  0  0  0  0  0  0  0  0  0  0
   -8.3540   -1.2470  -23.8700 H   0  0  0  0  0  0  0  0  0  0  0  0
   -9.2860   -0.2860  -21.1200 H   0  0  0  0  0  0  0  0  0  0  0  0
   -8.1030    0.4310  -22.1940 H   0  0  0  0  0  0  0  0  0  0  0  0
   -8.6070   -3.8930  -23.6090 C   0  0  0  0  0  0  0  0  0  0  0  0
   -7.3280   -4.1060  -24.1370 C   0  0  0  0  0  0  0  0  0  0  0  0
   -7.1120   -5.1230  -25.0490 C   0  0  0  0  0  0  0  0  0  0  0  0
   -5.4930   -5.4520  -25.5980 Cl  0  0  0  0  0  0  0  0  0  0  0  0
   -8.1610   -5.9090  -25.5180 C   0  0  0  0  0  0  0  0  0  0  0  0
   -9.4420   -5.6580  -25.0580 C   0  0  0  0  0  0  0  0  0  0  0  0
   -9.6690   -4.6760  -24.0920 C   0  0  0  0  0  0  0  0  0  0  0  0
  -11.0590   -4.4780  -23.5710 C   0  0  0  0  0  0  0  0  0  0  0  0
  -12.0720   -4.8110  -24.1860 O   0  0  0  0  0  0  0  0  0  0  0  0
  -10.2850   -6.2340  -25.4310 H   0  0  0  0  0  0  0  0  0  0  0  0
   -7.9770   -6.7030  -26.2340 H   0  0  0  0  0  0  0  0  0  0  0  0
   -6.4840   -3.5060  -23.8210 H   0  0  0  0  0  0  0  0  0  0  0  0
   -9.5760   -4.1730  -20.9920 H   0  0  0  0  0  0  0  0  0  0  0  0
  -10.2830   -2.5630  -20.9630 H   0  0  0  0  0  0  0  0  0  0  0  0
  -12.9160   -4.8680  -22.0710 H   0  0  0  0  0  0  0  0  0  0  0  0
  -12.1590   -4.3130  -20.5450 H   0  0  0  0  0  0  0  0  0  0  0  0
  -13.3260   -3.2710  -23.6290 H   0  0  0  0  0  0  0  0  0  0  0  0
  -15.2230   -1.3450  -22.4190 H   0  0  0  0  0  0  0  0  0  0  0  0
  -15.3910   -2.1340  -24.0010 H   0  0  0  0  0  0  0  0  0  0  0  0
  -14.2370   -0.7890  -23.8050 H   0  0  0  0  0  0  0  0  0  0  0  0
  1  2  1  0  0  0  0
  1 58  1  0  0  0  0
  1 59  1  0  0  0  0
  1 60  1  0  0  0  0
  2  3  1  0  0  0  0
  2 57  1  0  0  0  0
  3  4  2  0  0  0  0
  3  5  1  0  0  0  0
  5  6  1  0  0  0  0
  5 55  1  0  0  0  0
  5 56  1  0  0  0  0
  6  7  1  0  0  0  0
  6 48  1  0  0  0  0
  7  8  1  0  0  0  0
  7 53  1  0  0  0  0
  7 54  1  0  0  0  0
  8  9  1  1  0  0  0
  8 29  1  0  0  0  0
  8 41  1  0  0  0  0
  9 10  2  0  0  0  0
  9 11  1  0  0  0  0
 11 12  1  0  0  0  0
 11 28  1  0  0  0  0
 12 13  2  0  0  0  0
 12 21  1  0  0  0  0
 13 14  1  0  0  0  0
 13 27  1  0  0  0  0
 14 15  2  0  0  0  0
 15 16  1  0  0  0  0
 15 26  1  0  0  0  0
 16 17  2  0  0  0  0
 16 21  1  0  0  0  0
 17 18  1  0  0  0  0
 17 25  1  0  0  0  0
 18 19  2  0  0  0  0
 18 24  1  0  0  0  0
 19 20  1  0  0  0  0
 19 23  1  0  0  0  0
 20 21  2  0  0  0  0
 20 22  1  0  0  0  0
 28 29  1  0  0  0  0
 28 39  1  0  0  0  0
 28 40  1  0  0  0  0
 29 30  1  0  0  0  0
 29 38  1  6  0  0  0
 30 31  1  0  0  0  0
 30 36  1  0  0  0  0
 30 37  1  0  0  0  0
 31 32  1  0  0  0  0
 32 33  1  0  0  0  0
 32 34  1  0  0  0  0
 32 35  1  0  0  0  0
 41 42  2  0  0  0  0
 41 47  1  0  0  0  0
 42 43  1  0  0  0  0
 42 52  1  0  0  0  0
 43 44  1  0  0  0  0
 43 45  2  0  0  0  0
 45 46  1  0  0  0  0
 45 51  1  0  0  0  0
 46 47  2  0  0  0  0
 46 50  1  0  0  0  0
 47 48  1  0  0  0  0
 48 49  2  0  0  0  0
M  END
>  <MODEL>
       1

$$$$
