output/tmp_first_model_20_26.pdb
 OpenBabel07242623363D

 55 60  0  0  1  0  0  0  0  0999 V2000
  -10.4500   -1.0260  -23.3500 C   0  0  0  0  0  0  0  0  0  0  0  0
   -9.0170   -1.3850  -22.9680 C   0  0  1  0  0  0  0  0  0  0  0  0
   -8.4100   -0.4640  -21.8960 C   0  0  0  0  0  0  0  0  0  0  0  0
   -7.4210   -1.3080  -21.2510 N   0  0  0  0  0  0  0  0  0  0  0  0
   -6.5910   -0.8430  -20.2060 C   0  0  0  0  0  0  0  0  0  0  0  0
   -6.8990   -1.1080  -18.8960 C   0  0  0  0  0  0  0  0  0  0  0  0
   -6.2190   -0.5910  -17.8440 N   0  0  0  0  0  0  0  0  0  0  0  0
   -5.1960    0.1870  -18.0980 C   0  0  0  0  0  0  0  0  0  0  0  0
   -4.7480    0.5100  -19.4120 C   0  0  0  0  0  0  0  0  0  0  0  0
   -3.6130    1.3330  -19.6450 C   0  0  0  0  0  0  0  0  0  0  0  0
   -3.2180    1.6110  -20.9260 C   0  0  0  0  0  0  0  0  0  0  0  0
   -3.9260    1.0780  -22.0270 C   0  0  0  0  0  0  0  0  0  0  0  0
   -5.0250    0.2770  -21.8270 C   0  0  0  0  0  0  0  0  0  0  0  0
   -5.4630   -0.0170  -20.5060 C   0  0  0  0  0  0  0  0  0  0  0  0
   -5.5700   -0.1410  -22.6670 H   0  0  0  0  0  0  0  0  0  0  0  0
   -3.6040    1.3080  -23.0390 H   0  0  0  0  0  0  0  0  0  0  0  0
   -2.3520    2.2440  -21.1080 H   0  0  0  0  0  0  0  0  0  0  0  0
   -3.0740    1.7270  -18.7890 H   0  0  0  0  0  0  0  0  0  0  0  0
   -4.6630    0.6050  -17.2430 H   0  0  0  0  0  0  0  0  0  0  0  0
   -7.7370   -1.7580  -18.6460 H   0  0  0  0  0  0  0  0  0  0  0  0
   -7.6230   -2.6510  -21.4650 C   0  0  0  0  0  0  0  0  0  0  0  0
   -6.9110   -3.5230  -21.0110 O   0  0  0  0  0  0  0  0  0  0  0  0
   -8.8390   -2.8290  -22.3840 C   0  0  1  0  0  0  0  0  0  0  0  0
  -10.0480   -3.2510  -21.5210 C   0  0  0  0  0  0  0  0  0  0  0  0
  -11.1960   -3.6810  -22.3180 N   0  0  0  0  0  0  0  0  0  0  0  0
  -12.5560   -3.6250  -21.7770 C   0  0  0  0  0  0  0  0  0  0  0  0
  -13.4630   -2.5310  -22.2880 C   0  0  0  0  0  0  0  0  0  0  0  0
  -13.9240   -1.2870  -21.8190 C   0  0  0  0  0  0  0  0  0  0  0  0
  -14.8850   -0.8330  -22.6200 N   0  0  0  0  0  0  0  0  0  0  0  0
  -14.9610   -1.7720  -23.5390 N   0  0  0  0  0  0  0  0  0  0  0  0
  -14.1780   -2.8120  -23.3730 N   0  0  0  0  0  0  0  0  0  0  0  0
  -15.6800   -1.7590  -24.2470 H   0  0  0  0  0  0  0  0  0  0  0  0
  -13.6320   -0.7130  -20.9610 H   0  0  0  0  0  0  0  0  0  0  0  0
  -12.5270   -3.6550  -20.6870 H   0  0  0  0  0  0  0  0  0  0  0  0
  -13.0370   -4.5370  -22.1360 H   0  0  0  0  0  0  0  0  0  0  0  0
  -11.0230   -4.4990  -23.4090 C   0  0  0  0  0  0  0  0  0  0  0  0
  -11.9560   -5.0490  -23.9760 O   0  0  0  0  0  0  0  0  0  0  0  0
   -9.6270   -4.6850  -23.8950 C   0  0  0  0  0  0  0  0  0  0  0  0
   -9.4020   -5.6640  -24.8630 C   0  0  0  0  0  0  0  0  0  0  0  0
   -8.1280   -5.8610  -25.3660 C   0  0  0  0  0  0  0  0  0  0  0  0
   -7.0950   -5.0510  -24.9070 C   0  0  0  0  0  0  0  0  0  0  0  0
   -5.8550   -5.2130  -25.4040 F   0  0  0  0  0  0  0  0  0  0  0  0
   -7.3000   -4.0720  -23.9580 C   0  0  0  0  0  0  0  0  0  0  0  0
   -8.5810   -3.8930  -23.4220 C   0  0  0  0  0  0  0  0  0  0  0  0
   -6.4560   -3.4920  -23.6020 H   0  0  0  0  0  0  0  0  0  0  0  0
   -7.9090   -6.6360  -26.0900 H   0  0  0  0  0  0  0  0  0  0  0  0
  -10.2470   -6.2510  -25.2160 H   0  0  0  0  0  0  0  0  0  0  0  0
   -9.7200   -4.0580  -20.8620 H   0  0  0  0  0  0  0  0  0  0  0  0
  -10.3230   -2.4010  -20.8880 H   0  0  0  0  0  0  0  0  0  0  0  0
   -7.9470    0.4350  -22.3140 H   0  0  0  0  0  0  0  0  0  0  0  0
   -9.1680   -0.1250  -21.1750 H   0  0  0  0  0  0  0  0  0  0  0  0
   -8.3750   -1.3400  -23.8580 H   0  0  0  0  0  0  0  0  0  0  0  0
  -10.5270   -0.0470  -23.8250 H   0  0  0  0  0  0  0  0  0  0  0  0
  -10.8570   -1.7780  -24.0320 H   0  0  0  0  0  0  0  0  0  0  0  0
  -11.0870   -1.0030  -22.4610 H   0  0  0  0  0  0  0  0  0  0  0  0
  1  2  1  0  0  0  0
  1 53  1  0  0  0  0
  1 54  1  0  0  0  0
  1 55  1  0  0  0  0
  2  3  1  0  0  0  0
  2 23  1  0  0  0  0
  2 52  1  6  0  0  0
  3  4  1  0  0  0  0
  3 50  1  0  0  0  0
  3 51  1  0  0  0  0
  4  5  1  0  0  0  0
  4 21  1  0  0  0  0
  5  6  2  0  0  0  0
  5 14  1  0  0  0  0
  6  7  1  0  0  0  0
  6 20  1  0  0  0  0
  7  8  2  0  0  0  0
  8  9  1  0  0  0  0
  8 19  1  0  0  0  0
  9 10  2  0  0  0  0
  9 14  1  0  0  0  0
 10 11  1  0  0  0  0
 10 18  1  0  0  0  0
 11 12  2  0  0  0  0
 11 17  1  0  0  0  0
 12 13  1  0  0  0  0
 12 16  1  0  0  0  0
 13 14  2  0  0  0  0
 13 15  1  0  0  0  0
 21 22  2  0  0  0  0
 23 21  1  1  0  0  0
 23 24  1  0  0  0  0
 23 44  1  0  0  0  0
 24 25  1  0  0  0  0
 24 48  1  0  0  0  0
 24 49  1  0  0  0  0
 25 26  1  0  0  0  0
 25 36  1  0  0  0  0
 26 27  1  0  0  0  0
 26 34  1  0  0  0  0
 26 35  1  0  0  0  0
 27 28  1  0  0  0  0
 27 31  2  0  0  0  0
 28 29  2  0  0  0  0
 28 33  1  0  0  0  0
 29 30  1  0  0  0  0
 30 31  1  0  0  0  0
 30 32  1  0  0  0  0
 36 37  2  0  0  0  0
 36 38  1  0  0  0  0
 38 39  2  0  0  0  0
 38 44  1  0  0  0  0
 39 40  1  0  0  0  0
 39 47  1  0  0  0  0
 40 41  2  0  0  0  0
 40 46  1  0  0  0  0
 41 42  1  0  0  0  0
 41 43  1  0  0  0  0
 43 44  2  0  0  0  0
 43 45  1  0  0  0  0
M  END
>  <MODEL>
       1

$$$$
