output/tmp_first_model_5_71.pdb
 OpenBabel07242615323D

 50 54  0  0  1  0  0  0  0  0999 V2000
  -10.3710   -0.9660  -23.4580 C   0  0  0  0  0  0  0  0  0  0  0  0
   -8.9870   -1.4200  -23.0090 C   0  0  1  0  0  0  0  0  0  0  0  0
   -8.4160   -0.5450  -21.8780 C   0  0  0  0  0  0  0  0  0  0  0  0
   -7.4540   -1.4240  -21.2340 N   0  0  0  0  0  0  0  0  0  0  0  0
   -6.5080   -1.0620  -20.2470 C   0  0  0  0  0  0  0  0  0  0  0  0
   -6.6980   -1.4480  -18.9440 C   0  0  0  0  0  0  0  0  0  0  0  0
   -5.7770   -1.2870  -17.9620 N   0  0  0  0  0  0  0  0  0  0  0  0
   -4.6470   -0.6960  -18.2810 C   0  0  0  0  0  0  0  0  0  0  0  0
   -4.3780   -0.1350  -19.5650 C   0  0  0  0  0  0  0  0  0  0  0  0
   -3.2380    0.6830  -19.8140 C   0  0  0  0  0  0  0  0  0  0  0  0
   -3.1630    1.4120  -20.9670 C   0  0  0  0  0  0  0  0  0  0  0  0
   -4.1130    1.2230  -21.9970 C   0  0  0  0  0  0  0  0  0  0  0  0
   -5.1690    0.3710  -21.8200 C   0  0  0  0  0  0  0  0  0  0  0  0
   -5.3550   -0.2840  -20.5750 C   0  0  0  0  0  0  0  0  0  0  0  0
   -5.8810    0.2300  -22.6240 H   0  0  0  0  0  0  0  0  0  0  0  0
   -4.0020    1.7410  -22.9410 H   0  0  0  0  0  0  0  0  0  0  0  0
   -2.3250    2.0750  -21.1470 H   0  0  0  0  0  0  0  0  0  0  0  0
   -2.4970    0.8140  -19.0310 H   0  0  0  0  0  0  0  0  0  0  0  0
   -3.8960   -0.5930  -17.4940 H   0  0  0  0  0  0  0  0  0  0  0  0
   -7.6400   -1.9090  -18.6490 H   0  0  0  0  0  0  0  0  0  0  0  0
   -7.6940   -2.7560  -21.4930 C   0  0  0  0  0  0  0  0  0  0  0  0
   -7.0410   -3.6680  -21.0200 O   0  0  0  0  0  0  0  0  0  0  0  0
   -8.8790   -2.8850  -22.4640 C   0  0  1  0  0  0  0  0  0  0  0  0
  -10.1100   -3.3110  -21.6270 C   0  0  0  0  0  0  0  0  0  0  0  0
  -11.2380   -3.7500  -22.4490 N   0  0  0  0  0  0  0  0  0  0  0  0
  -12.5980   -3.6460  -21.9420 C   0  0  0  0  0  0  0  0  0  0  0  0
  -13.4390   -2.6590  -22.6610 C   0  0  0  0  0  0  0  0  0  0  0  0
  -14.1560   -1.9430  -23.2180 N   0  0  0  0  0  0  0  0  0  0  0  0
  -12.5750   -3.3910  -20.8770 H   0  0  0  0  0  0  0  0  0  0  0  0
  -13.0990   -4.6100  -22.0720 H   0  0  0  0  0  0  0  0  0  0  0  0
  -11.0710   -4.5850  -23.5280 C   0  0  0  0  0  0  0  0  0  0  0  0
  -12.0180   -5.1310  -24.0720 O   0  0  0  0  0  0  0  0  0  0  0  0
   -9.6680   -4.7650  -23.9900 C   0  0  0  0  0  0  0  0  0  0  0  0
   -9.4340   -5.7870  -24.9060 C   0  0  0  0  0  0  0  0  0  0  0  0
   -8.1630   -6.0110  -25.3920 C   0  0  0  0  0  0  0  0  0  0  0  0
   -7.1490   -5.1650  -24.9620 C   0  0  0  0  0  0  0  0  0  0  0  0
   -5.9140   -5.3550  -25.4500 F   0  0  0  0  0  0  0  0  0  0  0  0
   -7.3570   -4.1460  -24.0540 C   0  0  0  0  0  0  0  0  0  0  0  0
   -8.6340   -3.9470  -23.5200 C   0  0  0  0  0  0  0  0  0  0  0  0
   -6.5240   -3.5270  -23.7440 H   0  0  0  0  0  0  0  0  0  0  0  0
   -7.9420   -6.8050  -26.0950 H   0  0  0  0  0  0  0  0  0  0  0  0
  -10.2810   -6.3930  -25.2130 H   0  0  0  0  0  0  0  0  0  0  0  0
   -9.7790   -4.1110  -20.9510 H   0  0  0  0  0  0  0  0  0  0  0  0
  -10.4450   -2.4580  -21.0230 H   0  0  0  0  0  0  0  0  0  0  0  0
   -9.2040   -0.2400  -21.1730 H   0  0  0  0  0  0  0  0  0  0  0  0
   -7.9440    0.3690  -22.2460 H   0  0  0  0  0  0  0  0  0  0  0  0
   -8.2970   -1.3590  -23.8620 H   0  0  0  0  0  0  0  0  0  0  0  0
  -10.3310    0.0520  -23.8570 H   0  0  0  0  0  0  0  0  0  0  0  0
  -11.0780   -0.9740  -22.6230 H   0  0  0  0  0  0  0  0  0  0  0  0
  -10.7830   -1.6270  -24.2260 H   0  0  0  0  0  0  0  0  0  0  0  0
  1  2  1  0  0  0  0
  1 48  1  0  0  0  0
  1 49  1  0  0  0  0
  1 50  1  0  0  0  0
  2  3  1  0  0  0  0
  2 23  1  0  0  0  0
  2 47  1  6  0  0  0
  3  4  1  0  0  0  0
  3 45  1  0  0  0  0
  3 46  1  0  0  0  0
  4  5  1  0  0  0  0
  4 21  1  0  0  0  0
  5  6  2  0  0  0  0
  5 14  1  0  0  0  0
  6  7  1  0  0  0  0
  6 20  1  0  0  0  0
  7  8  2  0  0  0  0
  8  9  1  0  0  0  0
  8 19  1  0  0  0  0
  9 10  2  0  0  0  0
  9 14  1  0  0  0  0
 10 11  1  0  0  0  0
 10 18  1  0  0  0  0
 11 12  2  0  0  0  0
 11 17  1  0  0  0  0
 12 13  1  0  0  0  0
 12 16  1  0  0  0  0
 13 14  2  0  0  0  0
 13 15  1  0  0  0  0
 21 22  2  0  0  0  0
 23 21  1  1  0  0  0
 23 24  1  0  0  0  0
 23 39  1  0  0  0  0
 24 25  1  0  0  0  0
 24 43  1  0  0  0  0
 24 44  1  0  0  0  0
 25 26  1  0  0  0  0
 25 31  1  0  0  0  0
 26 27  1  0  0  0  0
 26 29  1  0  0  0  0
 26 30  1  0  0  0  0
 27 28  3  0  0  0  0
 31 32  2  0  0  0  0
 31 33  1  0  0  0  0
 33 34  2  0  0  0  0
 33 39  1  0  0  0  0
 34 35  1  0  0  0  0
 34 42  1  0  0  0  0
 35 36  2  0  0  0  0
 35 41  1  0  0  0  0
 36 37  1  0  0  0  0
 36 38  1  0  0  0  0
 38 39  2  0  0  0  0
 38 40  1  0  0  0  0
M  END
>  <MODEL>
       1

$$$$
