output/tmp_first_model_2_0.pdb
 OpenBabel07242613513D

 66 71  0  0  1  0  0  0  0  0999 V2000
  -14.3930   -1.3310  -23.6940 C   0  0  0  0  0  0  0  0  0  0  0  0
  -13.5840   -2.4730  -23.2980 N   0  0  0  0  0  0  0  0  0  0  0  0
  -13.3200   -2.7270  -21.9920 C   0  0  0  0  0  0  0  0  0  0  0  0
  -13.8500   -2.1200  -21.0750 O   0  0  0  0  0  0  0  0  0  0  0  0
  -12.3670   -3.8970  -21.7010 C   0  0  0  0  0  0  0  0  0  0  0  0
  -11.0200   -3.8590  -22.2780 N   0  0  0  0  0  0  0  0  0  0  0  0
   -9.8340   -3.4490  -21.5400 C   0  0  0  0  0  0  0  0  0  0  0  0
   -8.6740   -2.8750  -22.4150 C   0  0  2  0  0  0  0  0  0  0  0  0
   -7.5100   -2.6450  -21.4470 C   0  0  0  0  0  0  0  0  0  0  0  0
   -6.8120   -3.4930  -20.9220 O   0  0  0  0  0  0  0  0  0  0  0  0
   -7.3960   -1.2920  -21.2100 N   0  0  0  0  0  0  0  0  0  0  0  0
   -6.5890   -0.8110  -20.1550 C   0  0  0  0  0  0  0  0  0  0  0  0
   -6.8840   -1.1040  -18.8480 C   0  0  0  0  0  0  0  0  0  0  0  0
   -6.2270   -0.5690  -17.7890 N   0  0  0  0  0  0  0  0  0  0  0  0
   -5.2220    0.2390  -18.0400 C   0  0  0  0  0  0  0  0  0  0  0  0
   -4.7640    0.5620  -19.3530 C   0  0  0  0  0  0  0  0  0  0  0  0
   -3.6350    1.3880  -19.6000 C   0  0  0  0  0  0  0  0  0  0  0  0
   -3.2310    1.6390  -20.8850 C   0  0  0  0  0  0  0  0  0  0  0  0
   -3.9240    1.0800  -21.9810 C   0  0  0  0  0  0  0  0  0  0  0  0
   -5.0170    0.2780  -21.7680 C   0  0  0  0  0  0  0  0  0  0  0  0
   -5.4640    0.0160  -20.4470 C   0  0  0  0  0  0  0  0  0  0  0  0
   -5.5410   -0.1810  -22.5990 H   0  0  0  0  0  0  0  0  0  0  0  0
   -3.5930    1.2850  -22.9960 H   0  0  0  0  0  0  0  0  0  0  0  0
   -2.3670    2.2710  -21.0740 H   0  0  0  0  0  0  0  0  0  0  0  0
   -3.0990    1.8070  -18.7530 H   0  0  0  0  0  0  0  0  0  0  0  0
   -4.7100    0.6650  -17.1780 H   0  0  0  0  0  0  0  0  0  0  0  0
   -7.6950   -1.7900  -18.6130 H   0  0  0  0  0  0  0  0  0  0  0  0
   -8.4000   -0.4820  -21.8890 C   0  0  0  0  0  0  0  0  0  0  0  0
   -8.8890   -1.4370  -22.9890 C   0  0  2  0  0  0  0  0  0  0  0  0
  -10.3130   -1.1830  -23.4820 C   0  0  0  0  0  0  0  0  0  0  0  0
  -10.4780    0.0490  -24.2160 N   0  0  0  0  0  0  0  0  0  0  0  0
  -11.0240    1.1620  -23.6660 C   0  0  0  0  0  0  0  0  0  0  0  0
  -11.0710    2.3710  -24.3950 C   0  0  0  0  0  0  0  0  0  0  0  0
  -11.5860    3.4610  -23.7350 C   0  0  0  0  0  0  0  0  0  0  0  0
  -12.0740    3.4060  -22.4840 N   0  0  0  0  0  0  0  0  0  0  0  0
  -12.0140    2.2160  -21.9110 C   0  0  0  0  0  0  0  0  0  0  0  0
  -11.5210    1.0820  -22.4240 N   0  0  0  0  0  0  0  0  0  0  0  0
  -12.4140    2.1420  -20.8980 H   0  0  0  0  0  0  0  0  0  0  0  0
  -11.6200    4.4410  -24.2140 H   0  0  0  0  0  0  0  0  0  0  0  0
  -10.7130    2.4270  -25.4200 H   0  0  0  0  0  0  0  0  0  0  0  0
  -10.0850    0.1210  -25.1420 H   0  0  0  0  0  0  0  0  0  0  0  0
  -10.6030   -2.0200  -24.1270 H   0  0  0  0  0  0  0  0  0  0  0  0
  -10.9850   -1.1170  -22.6240 H   0  0  0  0  0  0  0  0  0  0  0  0
   -8.1970   -1.3460  -23.8430 H   0  0  0  0  0  0  0  0  0  0  0  0
   -7.9540    0.4350  -22.2910 H   0  0  0  0  0  0  0  0  0  0  0  0
   -9.2050   -0.1770  -21.1970 H   0  0  0  0  0  0  0  0  0  0  0  0
   -8.3900   -3.9090  -23.4790 C   0  0  0  0  0  0  0  0  0  0  0  0
   -7.1040   -4.1180  -24.0040 C   0  0  0  0  0  0  0  0  0  0  0  0
   -6.8980   -5.1220  -24.9380 C   0  0  0  0  0  0  0  0  0  0  0  0
   -5.3060   -5.3990  -25.5900 Cl  0  0  0  0  0  0  0  0  0  0  0  0
   -7.9520   -5.9180  -25.3860 C   0  0  0  0  0  0  0  0  0  0  0  0
   -9.2300   -5.6590  -24.9180 C   0  0  0  0  0  0  0  0  0  0  0  0
   -9.4630   -4.6680  -23.9700 C   0  0  0  0  0  0  0  0  0  0  0  0
  -10.8720   -4.4220  -23.5010 C   0  0  0  0  0  0  0  0  0  0  0  0
  -11.8780   -4.6760  -24.1690 O   0  0  0  0  0  0  0  0  0  0  0  0
  -10.0900   -6.2180  -25.2690 H   0  0  0  0  0  0  0  0  0  0  0  0
   -7.7760   -6.7240  -26.0940 H   0  0  0  0  0  0  0  0  0  0  0  0
   -6.2550   -3.5230  -23.6800 H   0  0  0  0  0  0  0  0  0  0  0  0
  -10.1210   -2.6950  -20.8090 H   0  0  0  0  0  0  0  0  0  0  0  0
   -9.3960   -4.3260  -21.0510 H   0  0  0  0  0  0  0  0  0  0  0  0
  -12.3390   -4.0300  -20.6190 H   0  0  0  0  0  0  0  0  0  0  0  0
  -12.8700   -4.7640  -22.1340 H   0  0  0  0  0  0  0  0  0  0  0  0
  -13.1820   -3.0860  -23.9980 H   0  0  0  0  0  0  0  0  0  0  0  0
  -13.8250   -0.3920  -23.6130 H   0  0  0  0  0  0  0  0  0  0  0  0
  -15.2700   -1.2460  -23.0420 H   0  0  0  0  0  0  0  0  0  0  0  0
  -14.7060   -1.4790  -24.7350 H   0  0  0  0  0  0  0  0  0  0  0  0
  1  2  1  0  0  0  0
  1 64  1  0  0  0  0
  1 65  1  0  0  0  0
  1 66  1  0  0  0  0
  2  3  1  0  0  0  0
  2 63  1  0  0  0  0
  3  4  2  0  0  0  0
  3  5  1  0  0  0  0
  5  6  1  0  0  0  0
  5 61  1  0  0  0  0
  5 62  1  0  0  0  0
  6  7  1  0  0  0  0
  6 54  1  0  0  0  0
  7  8  1  0  0  0  0
  7 59  1  0  0  0  0
  7 60  1  0  0  0  0
  8  9  1  1  0  0  0
  8 29  1  0  0  0  0
  8 47  1  0  0  0  0
  9 10  2  0  0  0  0
  9 11  1  0  0  0  0
 11 12  1  0  0  0  0
 11 28  1  0  0  0  0
 12 13  2  0  0  0  0
 12 21  1  0  0  0  0
 13 14  1  0  0  0  0
 13 27  1  0  0  0  0
 14 15  2  0  0  0  0
 15 16  1  0  0  0  0
 15 26  1  0  0  0  0
 16 17  2  0  0  0  0
 16 21  1  0  0  0  0
 17 18  1  0  0  0  0
 17 25  1  0  0  0  0
 18 19  2  0  0  0  0
 18 24  1  0  0  0  0
 19 20  1  0  0  0  0
 19 23  1  0  0  0  0
 20 21  2  0  0  0  0
 20 22  1  0  0  0  0
 28 29  1  0  0  0  0
 28 45  1  0  0  0  0
 28 46  1  0  0  0  0
 29 30  1  0  0  0  0
 29 44  1  6  0  0  0
 30 31  1  0  0  0  0
 30 42  1  0  0  0  0
 30 43  1  0  0  0  0
 31 32  1  0  0  0  0
 31 41  1  0  0  0  0
 32 33  2  0  0  0  0
 32 37  1  0  0  0  0
 33 34  1  0  0  0  0
 33 40  1  0  0  0  0
 34 35  2  0  0  0  0
 34 39  1  0  0  0  0
 35 36  1  0  0  0  0
 36 37  2  0  0  0  0
 36 38  1  0  0  0  0
 47 48  2  0  0  0  0
 47 53  1  0  0  0  0
 48 49  1  0  0  0  0
 48 58  1  0  0  0  0
 49 50  1  0  0  0  0
 49 51  2  0  0  0  0
 51 52  1  0  0  0  0
 51 57  1  0  0  0  0
 52 53  2  0  0  0  0
 52 56  1  0  0  0  0
 53 54  1  0  0  0  0
 54 55  2  0  0  0  0
M  END
>  <MODEL>
       1

$$$$
