output/tmp_first_model_11_71.pdb
 OpenBabel07242618513D

 50 54  0  0  1  0  0  0  0  0999 V2000
   -7.7460   -3.7440  -23.5660 C   0  0  0  0  0  0  0  0  0  0  0  0
   -8.5000   -2.9450  -22.5050 C   0  0  1  0  0  0  0  0  0  0  0  0
   -7.6330   -2.7630  -21.2400 C   0  0  0  0  0  0  0  0  0  0  0  0
   -7.4220   -1.3380  -21.1480 N   0  0  0  0  0  0  0  0  0  0  0  0
   -6.5970   -0.7840  -20.1410 C   0  0  0  0  0  0  0  0  0  0  0  0
   -6.8790   -1.0470  -18.8240 C   0  0  0  0  0  0  0  0  0  0  0  0
   -6.1960   -0.5430  -17.7680 N   0  0  0  0  0  0  0  0  0  0  0  0
   -5.1700    0.2290  -18.0360 C   0  0  0  0  0  0  0  0  0  0  0  0
   -4.7250    0.5330  -19.3530 C   0  0  0  0  0  0  0  0  0  0  0  0
   -3.5900    1.3570  -19.5760 C   0  0  0  0  0  0  0  0  0  0  0  0
   -3.1550    1.6080  -20.8480 C   0  0  0  0  0  0  0  0  0  0  0  0
   -3.8260    1.0370  -21.9520 C   0  0  0  0  0  0  0  0  0  0  0  0
   -4.9320    0.2430  -21.7640 C   0  0  0  0  0  0  0  0  0  0  0  0
   -5.4320   -0.0050  -20.4520 C   0  0  0  0  0  0  0  0  0  0  0  0
   -5.4320   -0.1990  -22.6210 H   0  0  0  0  0  0  0  0  0  0  0  0
   -3.4660    1.2380  -22.9570 H   0  0  0  0  0  0  0  0  0  0  0  0
   -2.2960    2.2530  -21.0160 H   0  0  0  0  0  0  0  0  0  0  0  0
   -3.0890    1.7900  -18.7150 H   0  0  0  0  0  0  0  0  0  0  0  0
   -4.6260    0.6430  -17.1880 H   0  0  0  0  0  0  0  0  0  0  0  0
   -7.7270   -1.6820  -18.5720 H   0  0  0  0  0  0  0  0  0  0  0  0
   -8.2500   -0.5870  -21.9570 C   0  0  0  0  0  0  0  0  0  0  0  0
   -8.3370    0.6190  -21.8990 O   0  0  0  0  0  0  0  0  0  0  0  0
   -8.9690   -1.5280  -22.9680 C   0  0  1  0  0  0  0  0  0  0  0  0
   -8.4960   -1.0560  -24.4160 C   0  0  0  0  0  0  0  0  0  0  0  0
   -9.2510    0.1020  -24.9080 N   0  0  0  0  0  0  0  0  0  0  0  0
   -8.5720    1.1170  -25.6830 C   0  0  0  0  0  0  0  0  0  0  0  0
   -8.0770    2.2420  -24.8610 C   0  0  0  0  0  0  0  0  0  0  0  0
   -7.7030    3.1410  -24.2320 N   0  0  0  0  0  0  0  0  0  0  0  0
   -7.7330    0.6670  -26.2270 H   0  0  0  0  0  0  0  0  0  0  0  0
   -9.2820    1.5180  -26.4110 H   0  0  0  0  0  0  0  0  0  0  0  0
  -10.5890    0.3300  -24.6550 C   0  0  0  0  0  0  0  0  0  0  0  0
  -11.1830    1.2770  -25.1450 O   0  0  0  0  0  0  0  0  0  0  0  0
  -11.2270   -0.6300  -23.7040 C   0  0  0  0  0  0  0  0  0  0  0  0
  -12.4980   -0.7270  -23.4380 C   0  0  0  0  0  0  0  0  0  0  0  0
  -12.5660   -1.6290  -22.2010 C   0  0  0  0  0  0  0  0  0  0  0  0
  -12.5110   -1.7620  -22.2090 C   0  0  0  0  0  0  0  0  0  0  0  0
  -12.3110   -3.9550  -22.3690 F   0  0  0  0  0  0  0  0  0  0  0  0
  -11.2320   -2.1610  -21.8730 C   0  0  0  0  0  0  0  0  0  0  0  0
  -10.4680   -1.4920  -22.8780 C   0  0  0  0  0  0  0  0  0  0  0  0
  -11.7150   -3.1920  -21.9840 H   0  0  0  0  0  0  0  0  0  0  0  0
  -13.4090   -1.2320  -21.6160 H   0  0  0  0  0  0  0  0  0  0  0  0
  -13.2810    0.0200  -23.4440 H   0  0  0  0  0  0  0  0  0  0  0  0
   -7.4390   -0.7750  -24.3710 H   0  0  0  0  0  0  0  0  0  0  0  0
   -8.5950   -1.8750  -25.1410 H   0  0  0  0  0  0  0  0  0  0  0  0
   -8.1300   -3.1500  -20.3380 H   0  0  0  0  0  0  0  0  0  0  0  0
   -6.6680   -3.2820  -21.3150 H   0  0  0  0  0  0  0  0  0  0  0  0
   -9.4300   -3.4510  -22.2040 H   0  0  0  0  0  0  0  0  0  0  0  0
   -8.3580   -3.9170  -24.4570 H   0  0  0  0  0  0  0  0  0  0  0  0
   -7.4260   -4.7180  -23.1800 H   0  0  0  0  0  0  0  0  0  0  0  0
   -6.8450   -3.1940  -23.8690 H   0  0  0  0  0  0  0  0  0  0  0  0
  1  2  1  0  0  0  0
  1 48  1  0  0  0  0
  1 49  1  0  0  0  0
  1 50  1  0  0  0  0
  2  3  1  0  0  0  0
  2 23  1  0  0  0  0
  2 47  1  1  0  0  0
  3  4  1  0  0  0  0
  3 45  1  0  0  0  0
  3 46  1  0  0  0  0
  4  5  1  0  0  0  0
  4 21  1  0  0  0  0
  5  6  2  0  0  0  0
  5 14  1  0  0  0  0
  6  7  1  0  0  0  0
  6 20  1  0  0  0  0
  7  8  2  0  0  0  0
  8  9  1  0  0  0  0
  8 19  1  0  0  0  0
  9 10  2  0  0  0  0
  9 14  1  0  0  0  0
 10 11  1  0  0  0  0
 10 18  1  0  0  0  0
 11 12  2  0  0  0  0
 11 17  1  0  0  0  0
 12 13  1  0  0  0  0
 12 16  1  0  0  0  0
 13 14  2  0  0  0  0
 13 15  1  0  0  0  0
 21 22  2  0  0  0  0
 23 21  1  1  0  0  0
 23 24  1  0  0  0  0
 23 39  1  0  0  0  0
 24 25  1  0  0  0  0
 24 43  1  0  0  0  0
 24 44  1  0  0  0  0
 25 26  1  0  0  0  0
 25 31  1  0  0  0  0
 26 27  1  0  0  0  0
 26 29  1  0  0  0  0
 26 30  1  0  0  0  0
 27 28  3  0  0  0  0
 31 32  2  0  0  0  0
 31 33  1  0  0  0  0
 33 34  2  0  0  0  0
 33 39  1  0  0  0  0
 34 35  1  0  0  0  0
 34 42  1  0  0  0  0
 35 36  2  0  0  0  0
 35 41  1  0  0  0  0
 36 37  1  0  0  0  0
 36 38  1  0  0  0  0
 38 39  2  0  0  0  0
 38 40  1  0  0  0  0
M  END
>  <MODEL>
       1

$$$$
