output/tmp_first_model_2_63.pdb
 OpenBabel07242613513D

 57 61  0  0  1  0  0  0  0  0999 V2000
  -14.9340   -0.3430  -22.8300 C   0  0  0  0  0  0  0  0  0  0  0  0
  -14.0680   -1.3080  -22.1900 N   0  0  0  0  0  0  0  0  0  0  0  0
  -13.1720   -2.0600  -22.8710 C   0  0  0  0  0  0  0  0  0  0  0  0
  -12.9440   -1.8890  -24.0560 O   0  0  0  0  0  0  0  0  0  0  0  0
  -12.4800   -3.1280  -22.0100 C   0  0  0  0  0  0  0  0  0  0  0  0
  -11.1490   -3.4300  -22.4560 N   0  0  0  0  0  0  0  0  0  0  0  0
  -10.0420   -3.0190  -21.6180 C   0  0  0  0  0  0  0  0  0  0  0  0
   -8.8010   -2.6400  -22.4400 C   0  0  2  0  0  0  0  0  0  0  0  0
   -7.6250   -2.5690  -21.4430 C   0  0  0  0  0  0  0  0  0  0  0  0
   -7.0610   -3.5060  -20.9150 O   0  0  0  0  0  0  0  0  0  0  0  0
   -7.3040   -1.2470  -21.2340 N   0  0  0  0  0  0  0  0  0  0  0  0
   -6.5130   -0.8260  -20.1470 C   0  0  0  0  0  0  0  0  0  0  0  0
   -6.8500   -1.1310  -18.8520 C   0  0  0  0  0  0  0  0  0  0  0  0
   -6.2240   -0.5980  -17.7730 N   0  0  0  0  0  0  0  0  0  0  0  0
   -5.2320    0.2330  -17.9940 C   0  0  0  0  0  0  0  0  0  0  0  0
   -4.7620    0.5900  -19.2920 C   0  0  0  0  0  0  0  0  0  0  0  0
   -3.6590    1.4580  -19.4920 C   0  0  0  0  0  0  0  0  0  0  0  0
   -3.2130    1.7290  -20.7570 C   0  0  0  0  0  0  0  0  0  0  0  0
   -3.8480    1.1540  -21.8810 C   0  0  0  0  0  0  0  0  0  0  0  0
   -4.9330    0.3300  -21.7150 C   0  0  0  0  0  0  0  0  0  0  0  0
   -5.4110    0.0370  -20.4100 C   0  0  0  0  0  0  0  0  0  0  0  0
   -5.4230   -0.1200  -22.5730 H   0  0  0  0  0  0  0  0  0  0  0  0
   -3.4820    1.3700  -22.8800 H   0  0  0  0  0  0  0  0  0  0  0  0
   -2.3650    2.3920  -20.9100 H   0  0  0  0  0  0  0  0  0  0  0  0
   -3.1890    1.9030  -18.6210 H   0  0  0  0  0  0  0  0  0  0  0  0
   -4.7320    0.6590  -17.1220 H   0  0  0  0  0  0  0  0  0  0  0  0
   -7.6650   -1.8200  -18.6380 H   0  0  0  0  0  0  0  0  0  0  0  0
   -8.2310   -0.3310  -21.8750 C   0  0  0  0  0  0  0  0  0  0  0  0
   -8.8310   -1.1690  -23.0040 C   0  0  2  0  0  0  0  0  0  0  0  0
  -10.1400   -0.5500  -23.4850 C   0  0  0  0  0  0  0  0  0  0  0  0
  -10.9560   -0.2210  -22.3720 O   0  0  0  0  0  0  0  0  0  0  0  0
  -11.7570    0.1930  -22.7140 H   0  0  0  0  0  0  0  0  0  0  0  0
  -10.6740   -1.2210  -24.1670 H   0  0  0  0  0  0  0  0  0  0  0  0
   -9.8950    0.3650  -24.0430 H   0  0  0  0  0  0  0  0  0  0  0  0
   -8.1510   -1.1810  -23.8710 H   0  0  0  0  0  0  0  0  0  0  0  0
   -7.7290    0.5730  -22.2280 H   0  0  0  0  0  0  0  0  0  0  0  0
   -9.0190   -0.0130  -21.1800 H   0  0  0  0  0  0  0  0  0  0  0  0
   -8.5820   -3.7240  -23.4770 C   0  0  0  0  0  0  0  0  0  0  0  0
   -7.2930   -3.9440  -23.9720 C   0  0  0  0  0  0  0  0  0  0  0  0
   -7.0580   -4.9690  -24.8680 C   0  0  0  0  0  0  0  0  0  0  0  0
   -5.4310   -5.2480  -25.4100 Cl  0  0  0  0  0  0  0  0  0  0  0  0
   -8.0890   -5.7770  -25.3480 C   0  0  0  0  0  0  0  0  0  0  0  0
   -9.3690   -5.5640  -24.8700 C   0  0  0  0  0  0  0  0  0  0  0  0
   -9.6150   -4.5490  -23.9440 C   0  0  0  0  0  0  0  0  0  0  0  0
  -11.0110   -4.3560  -23.4540 C   0  0  0  0  0  0  0  0  0  0  0  0
  -11.9710   -4.9550  -23.9130 O   0  0  0  0  0  0  0  0  0  0  0  0
  -10.1990   -6.1880  -25.1960 H   0  0  0  0  0  0  0  0  0  0  0  0
   -7.8920   -6.5530  -26.0820 H   0  0  0  0  0  0  0  0  0  0  0  0
   -6.4680   -3.3240  -23.6410 H   0  0  0  0  0  0  0  0  0  0  0  0
   -9.7750   -3.8190  -20.9150 H   0  0  0  0  0  0  0  0  0  0  0  0
  -10.3770   -2.1490  -21.0530 H   0  0  0  0  0  0  0  0  0  0  0  0
  -13.0530   -4.0590  -22.0190 H   0  0  0  0  0  0  0  0  0  0  0  0
  -12.4260   -2.7960  -20.9720 H   0  0  0  0  0  0  0  0  0  0  0  0
  -14.1420   -1.4430  -21.1970 H   0  0  0  0  0  0  0  0  0  0  0  0
  -15.9280   -0.4420  -22.3990 H   0  0  0  0  0  0  0  0  0  0  0  0
  -14.5910    0.6840  -22.6820 H   0  0  0  0  0  0  0  0  0  0  0  0
  -14.9630   -0.5530  -23.8990 H   0  0  0  0  0  0  0  0  0  0  0  0
  1  2  1  0  0  0  0
  1 55  1  0  0  0  0
  1 56  1  0  0  0  0
  1 57  1  0  0  0  0
  2  3  1  0  0  0  0
  2 54  1  0  0  0  0
  3  4  2  0  0  0  0
  3  5  1  0  0  0  0
  5  6  1  0  0  0  0
  5 52  1  0  0  0  0
  5 53  1  0  0  0  0
  6  7  1  0  0  0  0
  6 45  1  0  0  0  0
  7  8  1  0  0  0  0
  7 50  1  0  0  0  0
  7 51  1  0  0  0  0
  8  9  1  1  0  0  0
  8 29  1  0  0  0  0
  8 38  1  0  0  0  0
  9 10  2  0  0  0  0
  9 11  1  0  0  0  0
 11 12  1  0  0  0  0
 11 28  1  0  0  0  0
 12 13  2  0  0  0  0
 12 21  1  0  0  0  0
 13 14  1  0  0  0  0
 13 27  1  0  0  0  0
 14 15  2  0  0  0  0
 15 16  1  0  0  0  0
 15 26  1  0  0  0  0
 16 17  2  0  0  0  0
 16 21  1  0  0  0  0
 17 18  1  0  0  0  0
 17 25  1  0  0  0  0
 18 19  2  0  0  0  0
 18 24  1  0  0  0  0
 19 20  1  0  0  0  0
 19 23  1  0  0  0  0
 20 21  2  0  0  0  0
 20 22  1  0  0  0  0
 28 29  1  0  0  0  0
 28 36  1  0  0  0  0
 28 37  1  0  0  0  0
 29 30  1  0  0  0  0
 29 35  1  6  0  0  0
 30 31  1  0  0  0  0
 30 33  1  0  0  0  0
 30 34  1  0  0  0  0
 31 32  1  0  0  0  0
 38 39  2  0  0  0  0
 38 44  1  0  0  0  0
 39 40  1  0  0  0  0
 39 49  1  0  0  0  0
 40 41  1  0  0  0  0
 40 42  2  0  0  0  0
 42 43  1  0  0  0  0
 42 48  1  0  0  0  0
 43 44  2  0  0  0  0
 43 47  1  0  0  0  0
 44 45  1  0  0  0  0
 45 46  2  0  0  0  0
M  END
>  <MODEL>
       1

$$$$
