output/tmp_first_model_9_41.pdb
 OpenBabel07242617433D

 67 71  0  0  1  0  0  0  0  0999 V2000
   -7.6200    3.0420  -21.9390 C   0  0  0  0  0  0  0  0  0  0  0  0
   -8.7930    2.5490  -22.6460 N   0  0  0  0  0  0  0  0  0  0  0  0
   -8.5370    1.7420  -23.7160 C   0  0  0  0  0  0  0  0  0  0  0  0
   -7.3910    1.4760  -24.0550 O   0  0  0  0  0  0  0  0  0  0  0  0
   -9.7070    1.1560  -24.4980 C   0  0  0  0  0  0  0  0  0  0  0  0
  -10.1390   -0.0840  -23.8970 N   0  0  0  0  0  0  0  0  0  0  0  0
   -9.2390   -1.2300  -23.8960 C   0  0  0  0  0  0  0  0  0  0  0  0
   -9.2980   -1.9720  -22.5320 C   0  0  2  0  0  0  0  0  0  0  0  0
   -8.6990   -1.0290  -21.4510 C   0  0  0  0  0  0  0  0  0  0  0  0
   -9.2340   -0.0530  -20.9600 O   0  0  0  0  0  0  0  0  0  0  0  0
   -7.4080   -1.4410  -21.1730 N   0  0  0  0  0  0  0  0  0  0  0  0
   -6.6210   -0.8330  -20.1650 C   0  0  0  0  0  0  0  0  0  0  0  0
   -6.9310   -1.0470  -18.8430 C   0  0  0  0  0  0  0  0  0  0  0  0
   -6.2200   -0.5510  -17.8060 N   0  0  0  0  0  0  0  0  0  0  0  0
   -5.1830    0.1970  -18.0880 C   0  0  0  0  0  0  0  0  0  0  0  0
   -4.7570    0.5100  -19.4080 C   0  0  0  0  0  0  0  0  0  0  0  0
   -3.6390    1.3510  -19.6480 C   0  0  0  0  0  0  0  0  0  0  0  0
   -3.2620    1.6520  -20.9280 C   0  0  0  0  0  0  0  0  0  0  0  0
   -3.9940    1.1410  -22.0210 C   0  0  0  0  0  0  0  0  0  0  0  0
   -5.0920    0.3350  -21.8150 C   0  0  0  0  0  0  0  0  0  0  0  0
   -5.4940   -0.0160  -20.4950 C   0  0  0  0  0  0  0  0  0  0  0  0
   -5.6780    0.0150  -22.6710 H   0  0  0  0  0  0  0  0  0  0  0  0
   -3.6890    1.3850  -23.0340 H   0  0  0  0  0  0  0  0  0  0  0  0
   -2.4070    2.2980  -21.1060 H   0  0  0  0  0  0  0  0  0  0  0  0
   -3.1100    1.7560  -18.7900 H   0  0  0  0  0  0  0  0  0  0  0  0
   -4.6200    0.6040  -17.2480 H   0  0  0  0  0  0  0  0  0  0  0  0
   -7.7860   -1.6670  -18.5890 H   0  0  0  0  0  0  0  0  0  0  0  0
   -6.9680   -2.5720  -21.9670 C   0  0  0  0  0  0  0  0  0  0  0  0
   -8.3050   -3.1690  -22.4510 C   0  0  2  0  0  0  0  0  0  0  0  0
   -8.1980   -3.9760  -23.7420 C   0  0  0  0  0  0  0  0  0  0  0  0
   -7.2500   -5.4760  -23.5270 S   0  0  0  0  0  0  0  0  0  0  0  0
   -5.8510   -5.1150  -23.3710 O   0  0  0  0  0  0  0  0  0  0  0  0
   -7.8960   -6.2930  -22.5110 O   0  0  0  0  0  0  0  0  0  0  0  0
   -7.4210   -6.2390  -24.9930 N   0  0  0  0  0  0  0  0  0  0  0  0
   -8.6770   -6.9390  -25.2450 C   0  0  0  0  0  0  0  0  0  0  0  0
   -9.5130   -6.2790  -25.5370 H   0  0  0  0  0  0  0  0  0  0  0  0
   -8.5000   -7.6410  -26.0640 H   0  0  0  0  0  0  0  0  0  0  0  0
   -8.9490   -7.5030  -24.3490 H   0  0  0  0  0  0  0  0  0  0  0  0
   -6.7520   -5.6420  -26.1450 C   0  0  0  0  0  0  0  0  0  0  0  0
   -7.2970   -4.7920  -26.5930 H   0  0  0  0  0  0  0  0  0  0  0  0
   -6.6600   -6.4210  -26.9070 H   0  0  0  0  0  0  0  0  0  0  0  0
   -5.7480   -5.3230  -25.8490 H   0  0  0  0  0  0  0  0  0  0  0  0
   -9.1940   -4.2710  -24.0880 H   0  0  0  0  0  0  0  0  0  0  0  0
   -7.7010   -3.3960  -24.5290 H   0  0  0  0  0  0  0  0  0  0  0  0
   -8.6460   -3.8410  -21.6560 H   0  0  0  0  0  0  0  0  0  0  0  0
   -6.3360   -2.2560  -22.8140 H   0  0  0  0  0  0  0  0  0  0  0  0
   -6.3940   -3.2910  -21.3730 H   0  0  0  0  0  0  0  0  0  0  0  0
  -10.7690   -2.3050  -22.2950 C   0  0  0  0  0  0  0  0  0  0  0  0
  -11.1940   -3.4170  -21.5590 C   0  0  0  0  0  0  0  0  0  0  0  0
  -12.5160   -3.5020  -21.1620 C   0  0  0  0  0  0  0  0  0  0  0  0
  -12.8660   -4.4090  -20.2370 F   0  0  0  0  0  0  0  0  0  0  0  0
  -13.5040   -2.6390  -21.6090 C   0  0  0  0  0  0  0  0  0  0  0  0
  -13.1120   -1.5930  -22.4100 C   0  0  0  0  0  0  0  0  0  0  0  0
  -11.7650   -1.4080  -22.7110 C   0  0  0  0  0  0  0  0  0  0  0  0
  -11.4260   -0.1670  -23.4580 C   0  0  0  0  0  0  0  0  0  0  0  0
  -12.2590    0.7100  -23.6500 O   0  0  0  0  0  0  0  0  0  0  0  0
  -13.8200   -0.8770  -22.8120 H   0  0  0  0  0  0  0  0  0  0  0  0
  -14.5280   -2.7750  -21.2900 H   0  0  0  0  0  0  0  0  0  0  0  0
  -10.5150   -4.1880  -21.2220 H   0  0  0  0  0  0  0  0  0  0  0  0
   -9.5210   -1.9240  -24.7030 H   0  0  0  0  0  0  0  0  0  0  0  0
   -8.2270   -0.8550  -24.0860 H   0  0  0  0  0  0  0  0  0  0  0  0
   -9.3670    0.9670  -25.5210 H   0  0  0  0  0  0  0  0  0  0  0  0
  -10.5840    1.8040  -24.5350 H   0  0  0  0  0  0  0  0  0  0  0  0
   -9.6330    2.4110  -22.0870 H   0  0  0  0  0  0  0  0  0  0  0  0
   -7.9020    3.7580  -21.1640 H   0  0  0  0  0  0  0  0  0  0  0  0
   -7.0570    2.2140  -21.4850 H   0  0  0  0  0  0  0  0  0  0  0  0
   -6.9640    3.5650  -22.6410 H   0  0  0  0  0  0  0  0  0  0  0  0
  1  2  1  0  0  0  0
  1 65  1  0  0  0  0
  1 66  1  0  0  0  0
  1 67  1  0  0  0  0
  2  3  1  0  0  0  0
  2 64  1  0  0  0  0
  3  4  2  0  0  0  0
  3  5  1  0  0  0  0
  5  6  1  0  0  0  0
  5 62  1  0  0  0  0
  5 63  1  0  0  0  0
  6  7  1  0  0  0  0
  6 55  1  0  0  0  0
  7  8  1  0  0  0  0
  7 60  1  0  0  0  0
  7 61  1  0  0  0  0
  8  9  1  1  0  0  0
  8 29  1  0  0  0  0
  8 48  1  0  0  0  0
  9 10  2  0  0  0  0
  9 11  1  0  0  0  0
 11 12  1  0  0  0  0
 11 28  1  0  0  0  0
 12 13  2  0  0  0  0
 12 21  1  0  0  0  0
 13 14  1  0  0  0  0
 13 27  1  0  0  0  0
 14 15  2  0  0  0  0
 15 16  1  0  0  0  0
 15 26  1  0  0  0  0
 16 17  2  0  0  0  0
 16 21  1  0  0  0  0
 17 18  1  0  0  0  0
 17 25  1  0  0  0  0
 18 19  2  0  0  0  0
 18 24  1  0  0  0  0
 19 20  1  0  0  0  0
 19 23  1  0  0  0  0
 20 21  2  0  0  0  0
 20 22  1  0  0  0  0
 28 29  1  0  0  0  0
 28 46  1  0  0  0  0
 28 47  1  0  0  0  0
 29 30  1  0  0  0  0
 29 45  1  1  0  0  0
 30 31  1  0  0  0  0
 30 43  1  0  0  0  0
 30 44  1  0  0  0  0
 31 32  2  0  0  0  0
 31 33  2  0  0  0  0
 31 34  1  0  0  0  0
 34 35  1  0  0  0  0
 34 39  1  0  0  0  0
 35 36  1  0  0  0  0
 35 37  1  0  0  0  0
 35 38  1  0  0  0  0
 39 40  1  0  0  0  0
 39 41  1  0  0  0  0
 39 42  1  0  0  0  0
 48 49  2  0  0  0  0
 48 54  1  0  0  0  0
 49 50  1  0  0  0  0
 49 59  1  0  0  0  0
 50 51  1  0  0  0  0
 50 52  2  0  0  0  0
 52 53  1  0  0  0  0
 52 58  1  0  0  0  0
 53 54  2  0  0  0  0
 53 57  1  0  0  0  0
 54 55  1  0  0  0  0
 55 56  2  0  0  0  0
M  END
>  <MODEL>
       1

$$$$
