output/tmp_first_model_3_72.pdb
 OpenBabel07242614263D

 41 44  0  0  0  0  0  0  0  0999 V2000
   -8.7430    0.7420  -21.4080 O   0  0  0  0  0  0  0  0  0  0  0  0
   -8.4830   -0.3110  -21.9650 C   0  0  0  0  0  0  0  0  0  0  0  0
   -7.5650   -1.3610  -21.3150 C   0  0  0  0  0  0  0  0  0  0  0  0
   -6.7240   -0.8020  -20.2150 C   0  0  0  0  0  0  0  0  0  0  0  0
   -7.0560   -1.0270  -18.9030 C   0  0  0  0  0  0  0  0  0  0  0  0
   -6.3720   -0.5510  -17.8310 N   0  0  0  0  0  0  0  0  0  0  0  0
   -5.3180    0.1830  -18.0840 C   0  0  0  0  0  0  0  0  0  0  0  0
   -4.8530    0.5000  -19.3940 C   0  0  0  0  0  0  0  0  0  0  0  0
   -3.7040    1.3020  -19.6130 C   0  0  0  0  0  0  0  0  0  0  0  0
   -3.2850    1.5860  -20.8860 C   0  0  0  0  0  0  0  0  0  0  0  0
   -3.9990    1.0810  -21.9990 C   0  0  0  0  0  0  0  0  0  0  0  0
   -5.1180    0.3060  -21.8140 C   0  0  0  0  0  0  0  0  0  0  0  0
   -5.5760   -0.0040  -20.5000 C   0  0  0  0  0  0  0  0  0  0  0  0
   -5.6610   -0.0720  -22.6790 H   0  0  0  0  0  0  0  0  0  0  0  0
   -3.6600    1.3200  -23.0060 H   0  0  0  0  0  0  0  0  0  0  0  0
   -2.4120    2.2110  -21.0490 H   0  0  0  0  0  0  0  0  0  0  0  0
   -3.1770    1.6970  -18.7470 H   0  0  0  0  0  0  0  0  0  0  0  0
   -4.7710    0.5730  -17.2250 H   0  0  0  0  0  0  0  0  0  0  0  0
   -7.9260   -1.6350  -18.6540 H   0  0  0  0  0  0  0  0  0  0  0  0
   -6.9230   -1.8110  -22.0820 H   0  0  0  0  0  0  0  0  0  0  0  0
   -8.1830   -2.1810  -20.9250 H   0  0  0  0  0  0  0  0  0  0  0  0
   -8.9460   -0.6310  -23.2280 N   0  0  0  0  0  0  0  0  0  0  0  0
   -9.6280    0.4210  -23.9770 C   0  0  0  0  0  0  0  0  0  0  0  0
  -11.0860    0.6780  -23.5940 C   0  0  0  0  0  0  0  0  0  0  0  0
  -12.0210   -0.5240  -23.7780 C   0  0  0  0  0  0  0  0  0  0  0  0
  -11.6900   -1.7390  -22.9440 C   0  0  0  0  0  0  0  0  0  0  0  0
  -12.9220   -2.4560  -21.9830 S   0  0  0  0  0  0  0  0  0  0  0  0
  -11.9050   -3.7410  -21.5040 C   0  0  0  0  0  0  0  0  0  0  0  0
  -10.6680   -3.6300  -22.0600 C   0  0  0  0  0  0  0  0  0  0  0  0
  -10.5390   -2.4650  -22.8720 C   0  0  0  0  0  0  0  0  0  0  0  0
   -9.2680   -2.0180  -23.5370 C   0  0  0  0  0  0  0  0  0  0  0  0
   -8.4450   -2.6510  -23.1980 H   0  0  0  0  0  0  0  0  0  0  0  0
   -9.3380   -2.1220  -24.6250 H   0  0  0  0  0  0  0  0  0  0  0  0
   -9.8870   -4.3710  -21.9380 H   0  0  0  0  0  0  0  0  0  0  0  0
  -12.2600   -4.4570  -20.7860 H   0  0  0  0  0  0  0  0  0  0  0  0
  -13.0300   -0.1880  -23.5290 H   0  0  0  0  0  0  0  0  0  0  0  0
  -12.0610   -0.8200  -24.8410 H   0  0  0  0  0  0  0  0  0  0  0  0
  -11.4640    1.4970  -24.2250 H   0  0  0  0  0  0  0  0  0  0  0  0
  -11.1290    1.0390  -22.5580 H   0  0  0  0  0  0  0  0  0  0  0  0
   -9.5660    0.1740  -25.0480 H   0  0  0  0  0  0  0  0  0  0  0  0
   -9.0540    1.3360  -23.8210 H   0  0  0  0  0  0  0  0  0  0  0  0
  1  2  2  0  0  0  0
  2  3  1  0  0  0  0
  2 22  1  0  0  0  0
  3  4  1  0  0  0  0
  3 20  1  0  0  0  0
  3 21  1  0  0  0  0
  4  5  2  0  0  0  0
  4 13  1  0  0  0  0
  5  6  1  0  0  0  0
  5 19  1  0  0  0  0
  6  7  2  0  0  0  0
  7  8  1  0  0  0  0
  7 18  1  0  0  0  0
  8  9  2  0  0  0  0
  8 13  1  0  0  0  0
  9 10  1  0  0  0  0
  9 17  1  0  0  0  0
 10 11  2  0  0  0  0
 10 16  1  0  0  0  0
 11 12  1  0  0  0  0
 11 15  1  0  0  0  0
 12 13  2  0  0  0  0
 12 14  1  0  0  0  0
 22 23  1  0  0  0  0
 22 31  1  0  0  0  0
 23 24  1  0  0  0  0
 23 40  1  0  0  0  0
 23 41  1  0  0  0  0
 24 25  1  0  0  0  0
 24 38  1  0  0  0  0
 24 39  1  0  0  0  0
 25 26  1  0  0  0  0
 25 36  1  0  0  0  0
 25 37  1  0  0  0  0
 26 27  1  0  0  0  0
 26 30  2  0  0  0  0
 27 28  1  0  0  0  0
 28 29  2  0  0  0  0
 28 35  1  0  0  0  0
 29 30  1  0  0  0  0
 29 34  1  0  0  0  0
 30 31  1  0  0  0  0
 31 32  1  0  0  0  0
 31 33  1  0  0  0  0
M  END
>  <MODEL>
       1

$$$$
