output/tmp_first_model_2_37.pdb
 OpenBabel07242613513D

 56 60  0  0  1  0  0  0  0  0999 V2000
  -14.4980   -1.5590  -23.7150 C   0  0  0  0  0  0  0  0  0  0  0  0
  -13.7900   -2.7230  -23.2360 N   0  0  0  0  0  0  0  0  0  0  0  0
  -13.3920   -2.7550  -21.9430 C   0  0  0  0  0  0  0  0  0  0  0  0
  -13.7410   -1.9300  -21.1160 O   0  0  0  0  0  0  0  0  0  0  0  0
  -12.4860   -3.9260  -21.6090 C   0  0  0  0  0  0  0  0  0  0  0  0
  -11.1690   -3.8370  -22.2200 N   0  0  0  0  0  0  0  0  0  0  0  0
  -10.0410   -3.3470  -21.4430 C   0  0  0  0  0  0  0  0  0  0  0  0
   -8.8350   -2.9120  -22.3050 C   0  0  2  0  0  0  0  0  0  0  0  0
   -7.6350   -2.7250  -21.3650 C   0  0  0  0  0  0  0  0  0  0  0  0
   -7.0030   -3.6000  -20.8130 O   0  0  0  0  0  0  0  0  0  0  0  0
   -7.3780   -1.3750  -21.2370 N   0  0  0  0  0  0  0  0  0  0  0  0
   -6.5750   -0.8740  -20.1850 C   0  0  0  0  0  0  0  0  0  0  0  0
   -6.8970   -1.1110  -18.8710 C   0  0  0  0  0  0  0  0  0  0  0  0
   -6.2370   -0.5710  -17.8150 N   0  0  0  0  0  0  0  0  0  0  0  0
   -5.2130    0.2060  -18.0820 C   0  0  0  0  0  0  0  0  0  0  0  0
   -4.7580    0.5080  -19.3970 C   0  0  0  0  0  0  0  0  0  0  0  0
   -3.6330    1.3390  -19.6300 C   0  0  0  0  0  0  0  0  0  0  0  0
   -3.2280    1.6050  -20.9110 C   0  0  0  0  0  0  0  0  0  0  0  0
   -3.9260    1.0610  -22.0100 C   0  0  0  0  0  0  0  0  0  0  0  0
   -5.0190    0.2550  -21.8120 C   0  0  0  0  0  0  0  0  0  0  0  0
   -5.4590   -0.0370  -20.4910 C   0  0  0  0  0  0  0  0  0  0  0  0
   -5.5490   -0.1700  -22.6580 H   0  0  0  0  0  0  0  0  0  0  0  0
   -3.5970    1.2890  -23.0210 H   0  0  0  0  0  0  0  0  0  0  0  0
   -2.3700    2.2470  -21.0880 H   0  0  0  0  0  0  0  0  0  0  0  0
   -3.1170    1.7590  -18.7730 H   0  0  0  0  0  0  0  0  0  0  0  0
   -4.6810    0.6370  -17.2340 H   0  0  0  0  0  0  0  0  0  0  0  0
   -7.7390   -1.7550  -18.6220 H   0  0  0  0  0  0  0  0  0  0  0  0
   -8.3700   -0.5360  -21.8980 C   0  0  0  0  0  0  0  0  0  0  0  0
   -9.0130   -1.4810  -22.9210 C   0  0  2  0  0  0  0  0  0  0  0  0
  -10.4530   -1.1250  -23.2650 C   0  0  0  0  0  0  0  0  0  0  0  0
  -10.8770   -1.8910  -23.9210 H   0  0  0  0  0  0  0  0  0  0  0  0
  -10.5290   -0.1570  -23.7680 H   0  0  0  0  0  0  0  0  0  0  0  0
  -11.0670   -1.0930  -22.3580 H   0  0  0  0  0  0  0  0  0  0  0  0
   -8.4050   -1.4640  -23.8380 H   0  0  0  0  0  0  0  0  0  0  0  0
   -9.1130   -0.1630  -21.1730 H   0  0  0  0  0  0  0  0  0  0  0  0
   -7.8940    0.3340  -22.3640 H   0  0  0  0  0  0  0  0  0  0  0  0
   -8.5770   -3.9580  -23.3590 C   0  0  0  0  0  0  0  0  0  0  0  0
   -7.3030   -4.1050  -23.9150 C   0  0  0  0  0  0  0  0  0  0  0  0
   -7.0760   -5.0360  -24.9150 C   0  0  0  0  0  0  0  0  0  0  0  0
   -8.1080   -5.8690  -25.3510 C   0  0  0  0  0  0  0  0  0  0  0  0
   -9.3790   -5.7150  -24.8230 C   0  0  0  0  0  0  0  0  0  0  0  0
   -9.6240   -4.7250  -23.8720 C   0  0  0  0  0  0  0  0  0  0  0  0
  -11.0200   -4.4830  -23.4040 C   0  0  0  0  0  0  0  0  0  0  0  0
  -12.0090   -4.8110  -24.0580 O   0  0  0  0  0  0  0  0  0  0  0  0
  -10.1950   -6.3620  -25.1310 H   0  0  0  0  0  0  0  0  0  0  0  0
   -7.9150   -6.6350  -26.1010 H   0  0  0  0  0  0  0  0  0  0  0  0
   -6.0890   -5.1270  -25.3540 H   0  0  0  0  0  0  0  0  0  0  0  0
   -6.4800   -3.5010  -23.5400 H   0  0  0  0  0  0  0  0  0  0  0  0
  -10.3610   -2.4680  -20.8720 H   0  0  0  0  0  0  0  0  0  0  0  0
   -9.7330   -4.1390  -20.7580 H   0  0  0  0  0  0  0  0  0  0  0  0
  -12.4230   -4.0640  -20.5300 H   0  0  0  0  0  0  0  0  0  0  0  0
  -12.9800   -4.7830  -22.0630 H   0  0  0  0  0  0  0  0  0  0  0  0
  -13.4370   -3.4370  -23.8620 H   0  0  0  0  0  0  0  0  0  0  0  0
  -13.8530   -0.6720  -23.7160 H   0  0  0  0  0  0  0  0  0  0  0  0
  -15.3490   -1.3540  -23.0640 H   0  0  0  0  0  0  0  0  0  0  0  0
  -14.8510   -1.7400  -24.7290 H   0  0  0  0  0  0  0  0  0  0  0  0
  1  2  1  0  0  0  0
  1 54  1  0  0  0  0
  1 55  1  0  0  0  0
  1 56  1  0  0  0  0
  2  3  1  0  0  0  0
  2 53  1  0  0  0  0
  3  4  2  0  0  0  0
  3  5  1  0  0  0  0
  5  6  1  0  0  0  0
  5 51  1  0  0  0  0
  5 52  1  0  0  0  0
  6  7  1  0  0  0  0
  6 43  1  0  0  0  0
  7  8  1  0  0  0  0
  7 49  1  0  0  0  0
  7 50  1  0  0  0  0
  8  9  1  1  0  0  0
  8 29  1  0  0  0  0
  8 37  1  0  0  0  0
  9 10  2  0  0  0  0
  9 11  1  0  0  0  0
 11 12  1  0  0  0  0
 11 28  1  0  0  0  0
 12 13  2  0  0  0  0
 12 21  1  0  0  0  0
 13 14  1  0  0  0  0
 13 27  1  0  0  0  0
 14 15  2  0  0  0  0
 15 16  1  0  0  0  0
 15 26  1  0  0  0  0
 16 17  2  0  0  0  0
 16 21  1  0  0  0  0
 17 18  1  0  0  0  0
 17 25  1  0  0  0  0
 18 19  2  0  0  0  0
 18 24  1  0  0  0  0
 19 20  1  0  0  0  0
 19 23  1  0  0  0  0
 20 21  2  0  0  0  0
 20 22  1  0  0  0  0
 28 29  1  0  0  0  0
 28 35  1  0  0  0  0
 28 36  1  0  0  0  0
 29 30  1  0  0  0  0
 29 34  1  6  0  0  0
 30 31  1  0  0  0  0
 30 32  1  0  0  0  0
 30 33  1  0  0  0  0
 37 38  2  0  0  0  0
 37 42  1  0  0  0  0
 38 39  1  0  0  0  0
 38 48  1  0  0  0  0
 39 40  2  0  0  0  0
 39 47  1  0  0  0  0
 40 41  1  0  0  0  0
 40 46  1  0  0  0  0
 41 42  2  0  0  0  0
 41 45  1  0  0  0  0
 42 43  1  0  0  0  0
 43 44  2  0  0  0  0
M  END
>  <MODEL>
       1

$$$$
