output/tmp_first_model_13_7.pdb
 OpenBabel07242619583D

 44 47  0  0  0  0  0  0  0  0999 V2000
  -13.9400   -2.1660  -24.3900 C   0  0  0  0  0  0  0  0  0  0  0  0
  -12.9080   -3.1240  -24.9730 C   0  0  0  0  0  0  0  0  0  0  0  0
  -12.0910   -4.0820  -23.7160 S   0  0  0  0  0  0  0  0  0  0  0  0
  -13.1340   -4.5680  -22.8320 O   0  0  0  0  0  0  0  0  0  0  0  0
  -11.1970   -5.0120  -24.3940 O   0  0  0  0  0  0  0  0  0  0  0  0
  -11.1730   -2.9570  -22.8570 N   0  0  0  0  0  0  0  0  0  0  0  0
  -10.1680   -2.0790  -23.5040 C   0  0  0  0  0  0  0  0  0  0  0  0
   -9.1130   -2.4860  -22.4440 C   0  0  0  0  0  0  0  0  0  0  0  0
  -10.1600   -3.5090  -21.9280 C   0  0  0  0  0  0  0  0  0  0  0  0
  -10.3970   -3.4440  -20.8810 H   0  0  0  0  0  0  0  0  0  0  0  0
   -9.8960   -4.5480  -22.1380 H   0  0  0  0  0  0  0  0  0  0  0  0
   -8.6890   -1.3780  -21.4870 C   0  0  0  0  0  0  0  0  0  0  0  0
   -9.3500   -0.4570  -21.0700 O   0  0  0  0  0  0  0  0  0  0  0  0
   -7.3300   -1.5810  -21.2280 N   0  0  0  0  0  0  0  0  0  0  0  0
   -6.5890   -0.9040  -20.2170 C   0  0  0  0  0  0  0  0  0  0  0  0
   -6.9370   -1.0840  -18.8990 C   0  0  0  0  0  0  0  0  0  0  0  0
   -6.2530   -0.5580  -17.8550 N   0  0  0  0  0  0  0  0  0  0  0  0
   -5.2120    0.1850  -18.1270 C   0  0  0  0  0  0  0  0  0  0  0  0
   -4.7720    0.4870  -19.4430 C   0  0  0  0  0  0  0  0  0  0  0  0
   -3.6510    1.3290  -19.6540 C   0  0  0  0  0  0  0  0  0  0  0  0
   -3.2520    1.6460  -20.9220 C   0  0  0  0  0  0  0  0  0  0  0  0
   -3.9650    1.1350  -22.0300 C   0  0  0  0  0  0  0  0  0  0  0  0
   -5.0540    0.3130  -21.8540 C   0  0  0  0  0  0  0  0  0  0  0  0
   -5.4790   -0.0520  -20.5390 C   0  0  0  0  0  0  0  0  0  0  0  0
   -5.5880   -0.0540  -22.7260 H   0  0  0  0  0  0  0  0  0  0  0  0
   -3.6470    1.3960  -23.0360 H   0  0  0  0  0  0  0  0  0  0  0  0
   -2.3930    2.2940  -21.0840 H   0  0  0  0  0  0  0  0  0  0  0  0
   -3.1350    1.7140  -18.7810 H   0  0  0  0  0  0  0  0  0  0  0  0
   -4.6500    0.6000  -17.2900 H   0  0  0  0  0  0  0  0  0  0  0  0
   -7.8000   -1.6930  -18.6350 H   0  0  0  0  0  0  0  0  0  0  0  0
   -6.7870   -2.5610  -22.0810 C   0  0  0  0  0  0  0  0  0  0  0  0
   -5.6320   -2.9170  -22.1390 O   0  0  0  0  0  0  0  0  0  0  0  0
   -7.8340   -3.0270  -22.8290 N   0  0  0  0  0  0  0  0  0  0  0  0
   -7.6960   -4.1490  -23.7260 C   0  0  0  0  0  0  0  0  0  0  0  0
   -7.2630   -5.0070  -23.2040 H   0  0  0  0  0  0  0  0  0  0  0  0
   -8.6850   -4.4180  -24.1010 H   0  0  0  0  0  0  0  0  0  0  0  0
   -7.0490   -3.8840  -24.5630 H   0  0  0  0  0  0  0  0  0  0  0  0
  -10.4810   -1.0430  -23.4030 H   0  0  0  0  0  0  0  0  0  0  0  0
   -9.9240   -2.2870  -24.5490 H   0  0  0  0  0  0  0  0  0  0  0  0
  -13.3820   -3.9140  -25.5630 H   0  0  0  0  0  0  0  0  0  0  0  0
  -12.1460   -2.6530  -25.6060 H   0  0  0  0  0  0  0  0  0  0  0  0
  -13.4680   -1.4010  -23.7630 H   0  0  0  0  0  0  0  0  0  0  0  0
  -14.6310   -2.7360  -23.7630 H   0  0  0  0  0  0  0  0  0  0  0  0
  -14.5090   -1.6710  -25.1870 H   0  0  0  0  0  0  0  0  0  0  0  0
  1  2  1  0  0  0  0
  1 42  1  0  0  0  0
  1 43  1  0  0  0  0
  1 44  1  0  0  0  0
  2  3  1  0  0  0  0
  2 40  1  0  0  0  0
  2 41  1  0  0  0  0
  3  4  2  0  0  0  0
  3  5  2  0  0  0  0
  3  6  1  0  0  0  0
  6  7  1  0  0  0  0
  6  9  1  0  0  0  0
  7  8  1  0  0  0  0
  7 38  1  0  0  0  0
  7 39  1  0  0  0  0
  8  9  1  0  0  0  0
  8 12  1  0  0  0  0
  8 33  1  0  0  0  0
  9 10  1  0  0  0  0
  9 11  1  0  0  0  0
 12 13  2  0  0  0  0
 12 14  1  0  0  0  0
 14 15  1  0  0  0  0
 14 31  1  0  0  0  0
 15 16  2  0  0  0  0
 15 24  1  0  0  0  0
 16 17  1  0  0  0  0
 16 30  1  0  0  0  0
 17 18  2  0  0  0  0
 18 19  1  0  0  0  0
 18 29  1  0  0  0  0
 19 20  2  0  0  0  0
 19 24  1  0  0  0  0
 20 21  1  0  0  0  0
 20 28  1  0  0  0  0
 21 22  2  0  0  0  0
 21 27  1  0  0  0  0
 22 23  1  0  0  0  0
 22 26  1  0  0  0  0
 23 24  2  0  0  0  0
 23 25  1  0  0  0  0
 31 32  2  0  0  0  0
 31 33  1  0  0  0  0
 33 34  1  0  0  0  0
 34 35  1  0  0  0  0
 34 36  1  0  0  0  0
 34 37  1  0  0  0  0
M  END
>  <MODEL>
       1

$$$$
