output/tmp_first_model_12_59.pdb
 OpenBabel07242619253D

 60 65  0  0  1  0  0  0  0  0999 V2000
  -10.2960    1.2860  -28.3970 C   0  0  0  0  0  0  0  0  0  0  0  0
  -10.2880    1.2410  -26.9540 N   0  0  0  0  0  0  0  0  0  0  0  0
   -9.1440    1.2420  -26.2310 C   0  0  0  0  0  0  0  0  0  0  0  0
   -8.0200    1.1880  -26.7100 O   0  0  0  0  0  0  0  0  0  0  0  0
   -9.4200    1.3130  -24.7260 C   0  0  0  0  0  0  0  0  0  0  0  0
  -10.0040    0.0820  -24.2210 N   0  0  0  0  0  0  0  0  0  0  0  0
   -9.1460   -1.0780  -24.0410 C   0  0  0  0  0  0  0  0  0  0  0  0
   -9.4370   -1.8300  -22.7110 C   0  0  2  0  0  0  0  0  0  0  0  0
   -8.9080   -0.9590  -21.5340 C   0  0  0  0  0  0  0  0  0  0  0  0
   -9.4890   -0.0740  -20.9510 O   0  0  0  0  0  0  0  0  0  0  0  0
   -7.6130   -1.3520  -21.2740 N   0  0  0  0  0  0  0  0  0  0  0  0
   -6.8620   -0.7720  -20.2260 C   0  0  0  0  0  0  0  0  0  0  0  0
   -7.1290   -1.1290  -18.9300 C   0  0  0  0  0  0  0  0  0  0  0  0
   -6.3850   -0.7400  -17.8670 N   0  0  0  0  0  0  0  0  0  0  0  0
   -5.3560    0.0350  -18.1000 C   0  0  0  0  0  0  0  0  0  0  0  0
   -4.9970    0.5230  -19.3880 C   0  0  0  0  0  0  0  0  0  0  0  0
   -3.8890    1.3870  -19.5770 C   0  0  0  0  0  0  0  0  0  0  0  0
   -3.6170    1.9000  -20.8150 C   0  0  0  0  0  0  0  0  0  0  0  0
   -4.4360    1.5690  -21.9160 C   0  0  0  0  0  0  0  0  0  0  0  0
   -5.4960    0.7080  -21.7630 C   0  0  0  0  0  0  0  0  0  0  0  0
   -5.7940    0.1460  -20.4920 C   0  0  0  0  0  0  0  0  0  0  0  0
   -6.1190    0.4480  -22.6140 H   0  0  0  0  0  0  0  0  0  0  0  0
   -4.2240    2.0030  -22.8880 H   0  0  0  0  0  0  0  0  0  0  0  0
   -2.7730    2.5690  -20.9560 H   0  0  0  0  0  0  0  0  0  0  0  0
   -3.2820    1.6390  -18.7120 H   0  0  0  0  0  0  0  0  0  0  0  0
   -4.7510    0.3260  -17.2410 H   0  0  0  0  0  0  0  0  0  0  0  0
   -7.9740   -1.7780  -18.7070 H   0  0  0  0  0  0  0  0  0  0  0  0
   -7.1930   -2.5070  -22.0370 C   0  0  0  0  0  0  0  0  0  0  0  0
   -8.5190   -3.0800  -22.5580 C   0  0  2  0  0  0  0  0  0  0  0  0
   -8.2680   -3.9960  -23.7710 C   0  0  0  0  0  0  0  0  0  0  0  0
   -7.2770   -5.0660  -23.4160 C   0  0  0  0  0  0  0  0  0  0  0  0
   -5.9770   -4.9680  -23.6720 N   0  0  0  0  0  0  0  0  0  0  0  0
   -5.4370   -6.0570  -23.1310 N   0  0  0  0  0  0  0  0  0  0  0  0
   -6.3790   -6.7770  -22.5800 N   0  5  0  0  0  0  0  0  0  0  0  0
   -7.5550   -6.1750  -22.7470 N   0  0  0  0  0  0  0  0  0  0  0  0
   -7.8140   -3.4330  -24.5920 H   0  0  0  0  0  0  0  0  0  0  0  0
   -9.1940   -4.4600  -24.1210 H   0  0  0  0  0  0  0  0  0  0  0  0
   -8.9580   -3.6850  -21.7570 H   0  0  0  0  0  0  0  0  0  0  0  0
   -6.6470   -3.2420  -21.4370 H   0  0  0  0  0  0  0  0  0  0  0  0
   -6.5420   -2.2270  -22.8810 H   0  0  0  0  0  0  0  0  0  0  0  0
  -10.9400   -2.0180  -22.5730 C   0  0  0  0  0  0  0  0  0  0  0  0
  -11.5170   -3.0130  -21.7710 C   0  0  0  0  0  0  0  0  0  0  0  0
  -12.8530   -2.9270  -21.4110 C   0  0  0  0  0  0  0  0  0  0  0  0
  -13.5530   -4.1130  -20.3620 Cl  0  0  0  0  0  0  0  0  0  0  0  0
  -13.6630   -1.8750  -21.8260 C   0  0  0  0  0  0  0  0  0  0  0  0
  -13.1300   -0.9530  -22.6930 C   0  0  0  0  0  0  0  0  0  0  0  0
  -11.8060   -1.0460  -23.1030 C   0  0  0  0  0  0  0  0  0  0  0  0
  -11.3490   -0.0220  -24.0910 C   0  0  0  0  0  0  0  0  0  0  0  0
  -12.1270    0.7080  -24.7100 O   0  0  0  0  0  0  0  0  0  0  0  0
  -13.7110   -0.1180  -23.0580 H   0  0  0  0  0  0  0  0  0  0  0  0
  -14.6810   -1.7950  -21.4660 H   0  0  0  0  0  0  0  0  0  0  0  0
  -10.9420   -3.8480  -21.3860 H   0  0  0  0  0  0  0  0  0  0  0  0
   -8.1190   -0.7040  -24.0560 H   0  0  0  0  0  0  0  0  0  0  0  0
   -9.2650   -1.7780  -24.8800 H   0  0  0  0  0  0  0  0  0  0  0  0
   -8.4780    1.4790  -24.2040 H   0  0  0  0  0  0  0  0  0  0  0  0
  -10.1150    2.1330  -24.4980 H   0  0  0  0  0  0  0  0  0  0  0  0
  -11.1590    1.2280  -26.4370 H   0  0  0  0  0  0  0  0  0  0  0  0
  -10.3880    0.2920  -28.8530 H   0  0  0  0  0  0  0  0  0  0  0  0
   -9.3590    1.7250  -28.7460 H   0  0  0  0  0  0  0  0  0  0  0  0
  -11.1270    1.9140  -28.7370 H   0  0  0  0  0  0  0  0  0  0  0  0
  1  2  1  0  0  0  0
  1 58  1  0  0  0  0
  1 59  1  0  0  0  0
  1 60  1  0  0  0  0
  2  3  1  0  0  0  0
  2 57  1  0  0  0  0
  3  4  2  0  0  0  0
  3  5  1  0  0  0  0
  5  6  1  0  0  0  0
  5 55  1  0  0  0  0
  5 56  1  0  0  0  0
  6  7  1  0  0  0  0
  6 48  1  0  0  0  0
  7  8  1  0  0  0  0
  7 53  1  0  0  0  0
  7 54  1  0  0  0  0
  8  9  1  1  0  0  0
  8 29  1  0  0  0  0
  8 41  1  0  0  0  0
  9 10  2  0  0  0  0
  9 11  1  0  0  0  0
 11 12  1  0  0  0  0
 11 28  1  0  0  0  0
 12 13  2  0  0  0  0
 12 21  1  0  0  0  0
 13 14  1  0  0  0  0
 13 27  1  0  0  0  0
 14 15  2  0  0  0  0
 15 16  1  0  0  0  0
 15 26  1  0  0  0  0
 16 17  2  0  0  0  0
 16 21  1  0  0  0  0
 17 18  1  0  0  0  0
 17 25  1  0  0  0  0
 18 19  2  0  0  0  0
 18 24  1  0  0  0  0
 19 20  1  0  0  0  0
 19 23  1  0  0  0  0
 20 21  2  0  0  0  0
 20 22  1  0  0  0  0
 28 29  1  0  0  0  0
 28 39  1  0  0  0  0
 28 40  1  0  0  0  0
 29 30  1  0  0  0  0
 29 38  1  1  0  0  0
 30 31  1  0  0  0  0
 30 36  1  0  0  0  0
 30 37  1  0  0  0  0
 31 32  1  0  0  0  0
 31 35  2  0  0  0  0
 32 33  2  0  0  0  0
 33 34  1  0  0  0  0
 34 35  1  0  0  0  0
 41 42  2  0  0  0  0
 41 47  1  0  0  0  0
 42 43  1  0  0  0  0
 42 52  1  0  0  0  0
 43 44  1  0  0  0  0
 43 45  2  0  0  0  0
 45 46  1  0  0  0  0
 45 51  1  0  0  0  0
 46 47  2  0  0  0  0
 46 50  1  0  0  0  0
 47 48  1  0  0  0  0
 48 49  2  0  0  0  0
M  CHG  1  34  -1
M  END
>  <MODEL>
       1

$$$$
