output/tmp_first_model_19_24.pdb
 OpenBabel07242623063D

 65 70  0  0  1  0  0  0  0  0999 V2000
   -5.9560   -7.5260  -25.2510 O   0  0  0  0  0  0  0  0  0  0  0  0
   -5.8830   -7.0900  -24.1150 C   0  0  0  0  0  0  0  0  0  0  0  0
   -7.0750   -6.4350  -23.4270 C   0  0  0  0  0  0  0  0  0  0  0  0
   -7.0970   -4.9840  -23.6920 N   0  3  1  0  0  0  0  0  0  0  0  0
   -7.2240   -4.7280  -25.1830 C   0  0  0  0  0  0  0  0  0  0  0  0
   -7.1850   -3.2570  -25.4950 C   0  0  0  0  0  0  0  0  0  0  0  0
   -6.8340   -2.7870  -26.7620 C   0  0  0  0  0  0  0  0  0  0  0  0
   -6.7800   -1.4260  -27.0370 C   0  0  0  0  0  0  0  0  0  0  0  0
   -7.0820   -0.5260  -26.0200 C   0  0  0  0  0  0  0  0  0  0  0  0
   -6.9870    1.1880  -26.3290 Cl  0  0  0  0  0  0  0  0  0  0  0  0
   -7.4710   -0.9750  -24.7690 C   0  0  0  0  0  0  0  0  0  0  0  0
   -7.5680   -2.3480  -24.5090 C   0  0  0  0  0  0  0  0  0  0  0  0
   -8.0220   -2.8150  -23.1390 C   0  0  2  0  0  0  0  0  0  0  0  0
   -9.2160   -2.0430  -22.5770 C   0  0  0  0  0  0  0  0  0  0  0  0
   -8.6640   -1.1370  -21.4710 C   0  0  0  0  0  0  0  0  0  0  0  0
   -7.2800   -1.5420  -21.3040 N   0  0  0  0  0  0  0  0  0  0  0  0
   -6.5010   -0.9640  -20.2760 C   0  0  0  0  0  0  0  0  0  0  0  0
   -6.8980   -1.1200  -18.9720 C   0  0  0  0  0  0  0  0  0  0  0  0
   -6.2590   -0.5930  -17.9050 N   0  0  0  0  0  0  0  0  0  0  0  0
   -5.2160    0.1640  -18.1450 C   0  0  0  0  0  0  0  0  0  0  0  0
   -4.7310    0.4530  -19.4520 C   0  0  0  0  0  0  0  0  0  0  0  0
   -3.6190    1.3110  -19.6510 C   0  0  0  0  0  0  0  0  0  0  0  0
   -3.2240    1.6450  -20.9160 C   0  0  0  0  0  0  0  0  0  0  0  0
   -3.9190    1.1380  -22.0370 C   0  0  0  0  0  0  0  0  0  0  0  0
   -4.9850    0.2850  -21.8760 C   0  0  0  0  0  0  0  0  0  0  0  0
   -5.4040   -0.0940  -20.5670 C   0  0  0  0  0  0  0  0  0  0  0  0
   -5.5210   -0.0910  -22.7470 H   0  0  0  0  0  0  0  0  0  0  0  0
   -3.6120    1.4380  -23.0340 H   0  0  0  0  0  0  0  0  0  0  0  0
   -2.3860    2.3210  -21.0660 H   0  0  0  0  0  0  0  0  0  0  0  0
   -3.1210    1.7180  -18.7750 H   0  0  0  0  0  0  0  0  0  0  0  0
   -4.7020    0.5930  -17.2850 H   0  0  0  0  0  0  0  0  0  0  0  0
   -7.7810   -1.7160  -18.7460 H   0  0  0  0  0  0  0  0  0  0  0  0
   -6.8870   -2.5400  -22.1520 C   0  0  0  0  0  0  0  0  0  0  0  0
   -5.8380   -3.1650  -22.1470 O   0  0  0  0  0  0  0  0  0  0  0  0
   -9.2070   -1.3020  -20.5480 H   0  0  0  0  0  0  0  0  0  0  0  0
   -8.7340   -0.0710  -21.7150 H   0  0  0  0  0  0  0  0  0  0  0  0
   -9.9320   -2.7540  -22.1510 H   0  0  0  0  0  0  0  0  0  0  0  0
   -9.7510   -1.4830  -23.3480 H   0  0  0  0  0  0  0  0  0  0  0  0
   -8.2570   -4.3220  -23.0480 C   0  0  0  0  0  0  0  0  0  0  0  0
   -8.3160   -4.6100  -21.9920 H   0  0  0  0  0  0  0  0  0  0  0  0
   -9.1970   -4.6190  -23.5360 H   0  0  0  0  0  0  0  0  0  0  0  0
   -7.6940   -0.2440  -23.9970 H   0  0  0  0  0  0  0  0  0  0  0  0
   -6.5030   -1.0640  -28.0220 H   0  0  0  0  0  0  0  0  0  0  0  0
   -6.6010   -3.4900  -27.5610 H   0  0  0  0  0  0  0  0  0  0  0  0
   -6.4480   -5.2830  -25.7070 H   0  0  0  0  0  0  0  0  0  0  0  0
   -8.1880   -5.1500  -25.5050 H   0  0  0  0  0  0  0  0  0  0  0  0
   -6.2430   -4.5120  -23.2990 H   0  0  0  0  0  0  0  0  0  0  0  0
   -7.0530   -6.6410  -22.3530 H   0  0  0  0  0  0  0  0  0  0  0  0
   -7.9860   -6.8800  -23.8460 H   0  0  0  0  0  0  0  0  0  0  0  0
   -4.7180   -7.1210  -23.4310 N   0  0  0  0  0  0  0  0  0  0  0  0
   -3.6230   -7.8600  -24.0250 C   0  0  0  0  0  0  0  0  0  0  0  0
   -2.3300   -7.5970  -23.2990 C   0  0  1  0  0  0  0  0  0  0  0  0
   -1.0670   -8.0400  -24.0720 C   0  0  0  0  0  0  0  0  0  0  0  0
   -0.5920   -6.5770  -24.1230 C   0  0  1  0  0  0  0  0  0  0  0  0
   -0.4680   -6.0760  -25.4120 F   0  0  0  0  0  0  0  0  0  0  0  0
   -1.8850   -6.1240  -23.4270 C   0  0  0  0  0  0  0  0  0  0  0  0
   -1.8090   -5.5710  -22.4910 H   0  0  0  0  0  0  0  0  0  0  0  0
   -2.5090   -5.5580  -24.1270 H   0  0  0  0  0  0  0  0  0  0  0  0
    0.3450   -6.3600  -23.6010 H   0  0  0  0  0  0  0  0  0  0  0  0
   -1.2680   -8.4370  -25.0720 H   0  0  0  0  0  0  0  0  0  0  0  0
   -0.4100   -8.7340  -23.5450 H   0  0  0  0  0  0  0  0  0  0  0  0
   -2.3680   -7.9720  -22.2660 H   0  0  0  0  0  0  0  0  0  0  0  0
   -3.5540   -7.5120  -25.0590 H   0  0  0  0  0  0  0  0  0  0  0  0
   -3.8690   -8.9240  -24.0910 H   0  0  0  0  0  0  0  0  0  0  0  0
   -4.6710   -6.7500  -22.4990 H   0  0  0  0  0  0  0  0  0  0  0  0
  1  2  2  0  0  0  0
  2  3  1  0  0  0  0
  2 50  1  0  0  0  0
  3  4  1  0  0  0  0
  3 48  1  0  0  0  0
  3 49  1  0  0  0  0
  4  5  1  0  0  0  0
  4 39  1  0  0  0  0
  4 47  1  1  0  0  0
  5  6  1  0  0  0  0
  5 45  1  0  0  0  0
  5 46  1  0  0  0  0
  6  7  2  0  0  0  0
  6 12  1  0  0  0  0
  7  8  1  0  0  0  0
  7 44  1  0  0  0  0
  8  9  2  0  0  0  0
  8 43  1  0  0  0  0
  9 10  1  0  0  0  0
  9 11  1  0  0  0  0
 11 12  2  0  0  0  0
 11 42  1  0  0  0  0
 13 12  1  6  0  0  0
 13 14  1  0  0  0  0
 13 33  1  0  0  0  0
 13 39  1  0  0  0  0
 14 15  1  0  0  0  0
 14 37  1  0  0  0  0
 14 38  1  0  0  0  0
 15 16  1  0  0  0  0
 15 35  1  0  0  0  0
 15 36  1  0  0  0  0
 16 17  1  0  0  0  0
 16 33  1  0  0  0  0
 17 18  2  0  0  0  0
 17 26  1  0  0  0  0
 18 19  1  0  0  0  0
 18 32  1  0  0  0  0
 19 20  2  0  0  0  0
 20 21  1  0  0  0  0
 20 31  1  0  0  0  0
 21 22  2  0  0  0  0
 21 26  1  0  0  0  0
 22 23  1  0  0  0  0
 22 30  1  0  0  0  0
 23 24  2  0  0  0  0
 23 29  1  0  0  0  0
 24 25  1  0  0  0  0
 24 28  1  0  0  0  0
 25 26  2  0  0  0  0
 25 27  1  0  0  0  0
 33 34  2  0  0  0  0
 39 40  1  0  0  0  0
 39 41  1  0  0  0  0
 50 51  1  0  0  0  0
 50 65  1  0  0  0  0
 51 52  1  0  0  0  0
 51 63  1  0  0  0  0
 51 64  1  0  0  0  0
 52 53  1  0  0  0  0
 52 56  1  0  0  0  0
 52 62  1  1  0  0  0
 53 54  1  0  0  0  0
 53 60  1  0  0  0  0
 53 61  1  0  0  0  0
 54 55  1  0  0  0  0
 54 56  1  0  0  0  0
 54 59  1  1  0  0  0
 56 57  1  0  0  0  0
 56 58  1  0  0  0  0
M  CHG  1   4   1
M  END
>  <MODEL>
       1

$$$$
