output/tmp_first_model_5_10.pdb
 OpenBabel07242615323D

 57 62  0  0  1  0  0  0  0  0999 V2000
  -10.2790   -2.8540  -22.0080 C   0  0  0  0  0  0  0  0  0  0  0  0
   -9.2300   -1.9610  -22.6890 C   0  0  1  0  0  0  0  0  0  0  0  0
   -8.6270   -0.9970  -21.6470 C   0  0  0  0  0  0  0  0  0  0  0  0
   -7.4180   -1.6740  -21.2330 N   0  0  0  0  0  0  0  0  0  0  0  0
   -6.5400   -1.1430  -20.2530 C   0  0  0  0  0  0  0  0  0  0  0  0
   -6.8000   -1.3730  -18.9270 C   0  0  0  0  0  0  0  0  0  0  0  0
   -5.9250   -1.1220  -17.9230 N   0  0  0  0  0  0  0  0  0  0  0  0
   -4.7670   -0.5970  -18.2610 C   0  0  0  0  0  0  0  0  0  0  0  0
   -4.4560   -0.1330  -19.5740 C   0  0  0  0  0  0  0  0  0  0  0  0
   -3.3170    0.6830  -19.8280 C   0  0  0  0  0  0  0  0  0  0  0  0
   -3.2190    1.3810  -20.9980 C   0  0  0  0  0  0  0  0  0  0  0  0
   -4.1570    1.1630  -22.0370 C   0  0  0  0  0  0  0  0  0  0  0  0
   -5.2030    0.2920  -21.8660 C   0  0  0  0  0  0  0  0  0  0  0  0
   -5.3950   -0.3540  -20.6060 C   0  0  0  0  0  0  0  0  0  0  0  0
   -5.9140    0.1320  -22.6770 H   0  0  0  0  0  0  0  0  0  0  0  0
   -4.0340    1.6790  -22.9820 H   0  0  0  0  0  0  0  0  0  0  0  0
   -2.3650    2.0280  -21.1870 H   0  0  0  0  0  0  0  0  0  0  0  0
   -2.6230    0.8750  -19.0150 H   0  0  0  0  0  0  0  0  0  0  0  0
   -4.0290   -0.4600  -17.4680 H   0  0  0  0  0  0  0  0  0  0  0  0
   -7.7690   -1.7720  -18.6270 H   0  0  0  0  0  0  0  0  0  0  0  0
   -6.9740   -2.6180  -22.1400 C   0  0  0  0  0  0  0  0  0  0  0  0
   -5.9300   -3.2240  -22.0360 O   0  0  0  0  0  0  0  0  0  0  0  0
   -8.0010   -2.7280  -23.2970 C   0  0  1  0  0  0  0  0  0  0  0  0
   -8.3260   -4.2170  -23.6280 C   0  0  0  0  0  0  0  0  0  0  0  0
   -7.2940   -4.9120  -24.3850 N   0  0  0  0  0  0  0  0  0  0  0  0
   -6.9640   -6.2950  -24.0310 C   0  0  0  0  0  0  0  0  0  0  0  0
   -5.8690   -6.3650  -23.0120 C   0  0  0  0  0  0  0  0  0  0  0  0
   -4.5340   -6.4100  -23.2030 C   0  0  0  0  0  0  0  0  0  0  0  0
   -3.9370   -6.2660  -21.9700 N   0  3  0  0  0  0  0  0  0  0  0  0
   -4.8970   -6.1470  -21.0380 C   0  0  0  0  0  0  0  0  0  0  0  0
   -6.0900   -6.2270  -21.6500 N   0  0  0  0  0  0  0  0  0  0  0  0
   -6.9940   -6.0730  -21.2100 H   0  0  0  0  0  0  0  0  0  0  0  0
   -4.7610   -5.9480  -19.9920 H   0  0  0  0  0  0  0  0  0  0  0  0
   -2.9340   -6.1950  -21.8470 H   0  0  0  0  0  0  0  0  0  0  0  0
   -3.9600   -6.5110  -24.1200 H   0  0  0  0  0  0  0  0  0  0  0  0
   -6.6430   -6.7930  -24.9460 H   0  0  0  0  0  0  0  0  0  0  0  0
   -7.8800   -6.7900  -23.6860 H   0  0  0  0  0  0  0  0  0  0  0  0
   -6.4920   -4.2980  -25.3050 C   0  0  0  0  0  0  0  0  0  0  0  0
   -5.6350   -4.9100  -25.9370 O   0  0  0  0  0  0  0  0  0  0  0  0
   -6.7020   -2.8300  -25.4910 C   0  0  0  0  0  0  0  0  0  0  0  0
   -6.1050   -2.2450  -26.6080 C   0  0  0  0  0  0  0  0  0  0  0  0
   -6.2710   -0.9030  -26.8690 C   0  0  0  0  0  0  0  0  0  0  0  0
   -7.0160   -0.1620  -25.9640 C   0  0  0  0  0  0  0  0  0  0  0  0
   -7.1910    1.1470  -26.2090 F   0  0  0  0  0  0  0  0  0  0  0  0
   -7.5790   -0.7060  -24.8250 C   0  0  0  0  0  0  0  0  0  0  0  0
   -7.4450   -2.0780  -24.5720 C   0  0  0  0  0  0  0  0  0  0  0  0
   -8.1170   -0.0400  -24.1620 H   0  0  0  0  0  0  0  0  0  0  0  0
   -5.8390   -0.4190  -27.7360 H   0  0  0  0  0  0  0  0  0  0  0  0
   -5.5030   -2.8860  -27.2430 H   0  0  0  0  0  0  0  0  0  0  0  0
   -9.2730   -4.2460  -24.1860 H   0  0  0  0  0  0  0  0  0  0  0  0
   -8.4610   -4.7730  -22.6970 H   0  0  0  0  0  0  0  0  0  0  0  0
   -8.4030   -0.0020  -22.0590 H   0  0  0  0  0  0  0  0  0  0  0  0
   -9.2900   -0.8390  -20.7950 H   0  0  0  0  0  0  0  0  0  0  0  0
   -9.7390   -1.4050  -23.4820 H   0  0  0  0  0  0  0  0  0  0  0  0
  -11.0780   -2.2430  -21.5730 H   0  0  0  0  0  0  0  0  0  0  0  0
  -10.7500   -3.5430  -22.7150 H   0  0  0  0  0  0  0  0  0  0  0  0
   -9.8460   -3.4490  -21.1970 H   0  0  0  0  0  0  0  0  0  0  0  0
  1  2  1  0  0  0  0
  1 55  1  0  0  0  0
  1 56  1  0  0  0  0
  1 57  1  0  0  0  0
  2  3  1  0  0  0  0
  2 23  1  0  0  0  0
  2 54  1  6  0  0  0
  3  4  1  0  0  0  0
  3 52  1  0  0  0  0
  3 53  1  0  0  0  0
  4  5  1  0  0  0  0
  4 21  1  0  0  0  0
  5  6  2  0  0  0  0
  5 14  1  0  0  0  0
  6  7  1  0  0  0  0
  6 20  1  0  0  0  0
  7  8  2  0  0  0  0
  8  9  1  0  0  0  0
  8 19  1  0  0  0  0
  9 10  2  0  0  0  0
  9 14  1  0  0  0  0
 10 11  1  0  0  0  0
 10 18  1  0  0  0  0
 11 12  2  0  0  0  0
 11 17  1  0  0  0  0
 12 13  1  0  0  0  0
 12 16  1  0  0  0  0
 13 14  2  0  0  0  0
 13 15  1  0  0  0  0
 21 22  2  0  0  0  0
 23 21  1  1  0  0  0
 23 24  1  0  0  0  0
 23 46  1  0  0  0  0
 24 25  1  0  0  0  0
 24 50  1  0  0  0  0
 24 51  1  0  0  0  0
 25 26  1  0  0  0  0
 25 38  1  0  0  0  0
 26 27  1  0  0  0  0
 26 36  1  0  0  0  0
 26 37  1  0  0  0  0
 27 28  2  0  0  0  0
 27 31  1  0  0  0  0
 28 29  1  0  0  0  0
 28 35  1  0  0  0  0
 29 30  2  0  0  0  0
 29 34  1  0  0  0  0
 30 31  1  0  0  0  0
 30 33  1  0  0  0  0
 31 32  1  0  0  0  0
 38 39  2  0  0  0  0
 38 40  1  0  0  0  0
 40 41  2  0  0  0  0
 40 46  1  0  0  0  0
 41 42  1  0  0  0  0
 41 49  1  0  0  0  0
 42 43  2  0  0  0  0
 42 48  1  0  0  0  0
 43 44  1  0  0  0  0
 43 45  1  0  0  0  0
 45 46  2  0  0  0  0
 45 47  1  0  0  0  0
M  CHG  1  29   1
M  END
>  <MODEL>
       1

$$$$
