output/tmp_first_model_17_7.pdb
 OpenBabel07242622053D

 44 47  0  0  0  0  0  0  0  0999 V2000
  -10.1020   -5.9900  -27.5670 C   0  0  0  0  0  0  0  0  0  0  0  0
   -8.9770   -5.3050  -26.7840 C   0  0  0  0  0  0  0  0  0  0  0  0
   -9.2410   -5.5280  -25.0310 S   0  0  0  0  0  0  0  0  0  0  0  0
   -9.0740   -6.9340  -24.7110 O   0  0  0  0  0  0  0  0  0  0  0  0
  -10.4850   -4.8350  -24.7160 O   0  0  0  0  0  0  0  0  0  0  0  0
   -7.9640   -4.7050  -24.2690 N   0  0  0  0  0  0  0  0  0  0  0  0
   -8.0750   -4.6910  -22.7670 C   0  0  0  0  0  0  0  0  0  0  0  0
   -8.0700   -3.1510  -22.7660 C   0  0  0  0  0  0  0  0  0  0  0  0
   -7.9980   -3.2180  -24.3130 C   0  0  0  0  0  0  0  0  0  0  0  0
   -7.0700   -2.8280  -24.7310 H   0  0  0  0  0  0  0  0  0  0  0  0
   -8.8580   -2.7850  -24.8350 H   0  0  0  0  0  0  0  0  0  0  0  0
   -6.8720   -2.5290  -22.0660 C   0  0  0  0  0  0  0  0  0  0  0  0
   -5.7120   -2.8170  -22.2290 O   0  0  0  0  0  0  0  0  0  0  0  0
   -7.3670   -1.5360  -21.2160 N   0  0  0  0  0  0  0  0  0  0  0  0
   -6.5990   -0.8690  -20.2020 C   0  0  0  0  0  0  0  0  0  0  0  0
   -6.9140   -1.0640  -18.8780 C   0  0  0  0  0  0  0  0  0  0  0  0
   -6.2150   -0.5460  -17.8370 N   0  0  0  0  0  0  0  0  0  0  0  0
   -5.1800    0.2050  -18.1030 C   0  0  0  0  0  0  0  0  0  0  0  0
   -4.7510    0.5220  -19.4180 C   0  0  0  0  0  0  0  0  0  0  0  0
   -3.6230    1.3600  -19.6390 C   0  0  0  0  0  0  0  0  0  0  0  0
   -3.2350    1.6690  -20.9120 C   0  0  0  0  0  0  0  0  0  0  0  0
   -3.9640    1.1550  -22.0070 C   0  0  0  0  0  0  0  0  0  0  0  0
   -5.0550    0.3420  -21.8170 C   0  0  0  0  0  0  0  0  0  0  0  0
   -5.4800   -0.0150  -20.5080 C   0  0  0  0  0  0  0  0  0  0  0  0
   -5.5970   -0.0470  -22.6720 H   0  0  0  0  0  0  0  0  0  0  0  0
   -3.6450    1.4000  -23.0140 H   0  0  0  0  0  0  0  0  0  0  0  0
   -2.3690    2.3030  -21.0910 H   0  0  0  0  0  0  0  0  0  0  0  0
   -3.0840    1.7490  -18.7780 H   0  0  0  0  0  0  0  0  0  0  0  0
   -4.6280    0.6060  -17.2510 H   0  0  0  0  0  0  0  0  0  0  0  0
   -7.7600   -1.6850  -18.5980 H   0  0  0  0  0  0  0  0  0  0  0  0
   -8.7610   -1.3810  -21.4060 C   0  0  0  0  0  0  0  0  0  0  0  0
   -9.4350   -0.4550  -21.0130 O   0  0  0  0  0  0  0  0  0  0  0  0
   -9.1740   -2.4440  -22.1740 N   0  0  0  0  0  0  0  0  0  0  0  0
  -10.5640   -2.7000  -22.4930 C   0  0  0  0  0  0  0  0  0  0  0  0
  -10.8330   -3.7420  -22.2760 H   0  0  0  0  0  0  0  0  0  0  0  0
  -10.7670   -2.4960  -23.5520 H   0  0  0  0  0  0  0  0  0  0  0  0
  -11.1500   -2.0260  -21.8680 H   0  0  0  0  0  0  0  0  0  0  0  0
   -7.1900   -5.1300  -22.3030 H   0  0  0  0  0  0  0  0  0  0  0  0
   -8.9820   -5.1480  -22.3580 H   0  0  0  0  0  0  0  0  0  0  0  0
   -8.9550   -4.2200  -26.9280 H   0  0  0  0  0  0  0  0  0  0  0  0
   -7.9910   -5.7210  -27.0100 H   0  0  0  0  0  0  0  0  0  0  0  0
   -9.9560   -5.8520  -28.6430 H   0  0  0  0  0  0  0  0  0  0  0  0
  -11.0810   -5.5810  -27.2950 H   0  0  0  0  0  0  0  0  0  0  0  0
  -10.1150   -7.0650  -27.3560 H   0  0  0  0  0  0  0  0  0  0  0  0
  1  2  1  0  0  0  0
  1 42  1  0  0  0  0
  1 43  1  0  0  0  0
  1 44  1  0  0  0  0
  2  3  1  0  0  0  0
  2 40  1  0  0  0  0
  2 41  1  0  0  0  0
  3  4  2  0  0  0  0
  3  5  2  0  0  0  0
  3  6  1  0  0  0  0
  6  7  1  0  0  0  0
  6  9  1  0  0  0  0
  7  8  1  0  0  0  0
  7 38  1  0  0  0  0
  7 39  1  0  0  0  0
  8  9  1  0  0  0  0
  8 12  1  0  0  0  0
  8 33  1  0  0  0  0
  9 10  1  0  0  0  0
  9 11  1  0  0  0  0
 12 13  2  0  0  0  0
 12 14  1  0  0  0  0
 14 15  1  0  0  0  0
 14 31  1  0  0  0  0
 15 16  2  0  0  0  0
 15 24  1  0  0  0  0
 16 17  1  0  0  0  0
 16 30  1  0  0  0  0
 17 18  2  0  0  0  0
 18 19  1  0  0  0  0
 18 29  1  0  0  0  0
 19 20  2  0  0  0  0
 19 24  1  0  0  0  0
 20 21  1  0  0  0  0
 20 28  1  0  0  0  0
 21 22  2  0  0  0  0
 21 27  1  0  0  0  0
 22 23  1  0  0  0  0
 22 26  1  0  0  0  0
 23 24  2  0  0  0  0
 23 25  1  0  0  0  0
 31 32  2  0  0  0  0
 31 33  1  0  0  0  0
 33 34  1  0  0  0  0
 34 35  1  0  0  0  0
 34 36  1  0  0  0  0
 34 37  1  0  0  0  0
M  END
>  <MODEL>
       1

$$$$
