output/tmp_first_model_7_28.pdb
 OpenBabel07242616393D

 64 68  0  0  1  0  0  0  0  0999 V2000
   -7.4690    3.1470  -22.0680 C   0  0  0  0  0  0  0  0  0  0  0  0
   -8.5780    2.5750  -22.8170 N   0  0  0  0  0  0  0  0  0  0  0  0
   -8.3260    1.7670  -23.8920 C   0  0  0  0  0  0  0  0  0  0  0  0
   -7.1940    1.4930  -24.2730 O   0  0  0  0  0  0  0  0  0  0  0  0
   -9.5830    1.2210  -24.5900 C   0  0  0  0  0  0  0  0  0  0  0  0
  -10.0530    0.0200  -23.9280 N   0  0  0  0  0  0  0  0  0  0  0  0
   -9.2200   -1.1740  -23.9360 C   0  0  0  0  0  0  0  0  0  0  0  0
   -9.3050   -1.9170  -22.5700 C   0  0  2  0  0  0  0  0  0  0  0  0
   -8.6990   -0.9870  -21.4850 C   0  0  0  0  0  0  0  0  0  0  0  0
   -9.2220   -0.0100  -20.9780 O   0  0  0  0  0  0  0  0  0  0  0  0
   -7.4250   -1.4230  -21.1900 N   0  0  0  0  0  0  0  0  0  0  0  0
   -6.6450   -0.8200  -20.1750 C   0  0  0  0  0  0  0  0  0  0  0  0
   -6.9530   -1.0430  -18.8540 C   0  0  0  0  0  0  0  0  0  0  0  0
   -6.2290   -0.5630  -17.8170 N   0  0  0  0  0  0  0  0  0  0  0  0
   -5.1840    0.1750  -18.0930 C   0  0  0  0  0  0  0  0  0  0  0  0
   -4.7570    0.4930  -19.4130 C   0  0  0  0  0  0  0  0  0  0  0  0
   -3.6290    1.3190  -19.6610 C   0  0  0  0  0  0  0  0  0  0  0  0
   -3.2730    1.6400  -20.9420 C   0  0  0  0  0  0  0  0  0  0  0  0
   -4.0290    1.1590  -22.0330 C   0  0  0  0  0  0  0  0  0  0  0  0
   -5.1300    0.3580  -21.8190 C   0  0  0  0  0  0  0  0  0  0  0  0
   -5.5130   -0.0070  -20.4990 C   0  0  0  0  0  0  0  0  0  0  0  0
   -5.7390    0.0510  -22.6620 H   0  0  0  0  0  0  0  0  0  0  0  0
   -3.7540    1.4340  -23.0460 H   0  0  0  0  0  0  0  0  0  0  0  0
   -2.4220    2.2920  -21.1230 H   0  0  0  0  0  0  0  0  0  0  0  0
   -3.0890    1.7160  -18.8050 H   0  0  0  0  0  0  0  0  0  0  0  0
   -4.6160    0.5710  -17.2500 H   0  0  0  0  0  0  0  0  0  0  0  0
   -7.8150   -1.6540  -18.5930 H   0  0  0  0  0  0  0  0  0  0  0  0
   -6.9930   -2.5570  -21.9770 C   0  0  0  0  0  0  0  0  0  0  0  0
   -8.3350   -3.1250  -22.4750 C   0  0  2  0  0  0  0  0  0  0  0  0
   -8.2140   -3.9660  -23.7370 C   0  0  0  0  0  0  0  0  0  0  0  0
   -7.4050   -5.5240  -23.4270 S   0  0  0  0  0  0  0  0  0  0  0  0
   -8.2590   -6.3140  -22.5470 O   0  0  0  0  0  0  0  0  0  0  0  0
   -6.0060   -5.3000  -23.0870 O   0  0  0  0  0  0  0  0  0  0  0  0
   -7.3940   -6.1570  -24.9590 N   0  0  0  0  0  0  0  0  0  0  0  0
   -8.5970   -6.7780  -25.4910 C   0  0  0  0  0  0  0  0  0  0  0  0
   -9.0940   -7.4300  -24.7640 H   0  0  0  0  0  0  0  0  0  0  0  0
   -8.3090   -7.3580  -26.3720 H   0  0  0  0  0  0  0  0  0  0  0  0
   -9.3060   -6.0090  -25.8140 H   0  0  0  0  0  0  0  0  0  0  0  0
   -6.5200   -6.6400  -25.1220 H   0  0  0  0  0  0  0  0  0  0  0  0
   -9.2050   -4.2130  -24.1300 H   0  0  0  0  0  0  0  0  0  0  0  0
   -7.6270   -3.4610  -24.5110 H   0  0  0  0  0  0  0  0  0  0  0  0
   -8.6990   -3.7710  -21.6730 H   0  0  0  0  0  0  0  0  0  0  0  0
   -6.3450   -2.2420  -22.8090 H   0  0  0  0  0  0  0  0  0  0  0  0
   -6.4300   -3.2770  -21.3790 H   0  0  0  0  0  0  0  0  0  0  0  0
  -10.7810   -2.2070  -22.3150 C   0  0  0  0  0  0  0  0  0  0  0  0
  -11.2670   -3.3260  -21.6220 C   0  0  0  0  0  0  0  0  0  0  0  0
  -12.6110   -3.3750  -21.2830 C   0  0  0  0  0  0  0  0  0  0  0  0
  -13.1960   -4.4610  -20.0730 Cl  0  0  0  0  0  0  0  0  0  0  0  0
  -13.5400   -2.4660  -21.7680 C   0  0  0  0  0  0  0  0  0  0  0  0
  -13.0820   -1.3940  -22.4950 C   0  0  0  0  0  0  0  0  0  0  0  0
  -11.7170   -1.2390  -22.7110 C   0  0  0  0  0  0  0  0  0  0  0  0
  -11.2720    0.0490  -23.3220 C   0  0  0  0  0  0  0  0  0  0  0  0
  -11.9480    1.0710  -23.2550 O   0  0  0  0  0  0  0  0  0  0  0  0
  -13.7680   -0.6550  -22.8850 H   0  0  0  0  0  0  0  0  0  0  0  0
  -14.5880   -2.6090  -21.5410 H   0  0  0  0  0  0  0  0  0  0  0  0
  -10.6150   -4.1310  -21.3020 H   0  0  0  0  0  0  0  0  0  0  0  0
   -8.1920   -0.8510  -24.1330 H   0  0  0  0  0  0  0  0  0  0  0  0
   -9.5370   -1.8380  -24.7540 H   0  0  0  0  0  0  0  0  0  0  0  0
  -10.4070    1.9400  -24.5530 H   0  0  0  0  0  0  0  0  0  0  0  0
   -9.3630    1.0150  -25.6450 H   0  0  0  0  0  0  0  0  0  0  0  0
   -9.4550    2.4530  -22.3190 H   0  0  0  0  0  0  0  0  0  0  0  0
   -6.9800    2.4000  -21.4190 H   0  0  0  0  0  0  0  0  0  0  0  0
   -7.8120    4.0130  -21.4860 H   0  0  0  0  0  0  0  0  0  0  0  0
   -6.7150    3.4830  -22.7850 H   0  0  0  0  0  0  0  0  0  0  0  0
  1  2  1  0  0  0  0
  1 62  1  0  0  0  0
  1 63  1  0  0  0  0
  1 64  1  0  0  0  0
  2  3  1  0  0  0  0
  2 61  1  0  0  0  0
  3  4  2  0  0  0  0
  3  5  1  0  0  0  0
  5  6  1  0  0  0  0
  5 59  1  0  0  0  0
  5 60  1  0  0  0  0
  6  7  1  0  0  0  0
  6 52  1  0  0  0  0
  7  8  1  0  0  0  0
  7 57  1  0  0  0  0
  7 58  1  0  0  0  0
  8  9  1  1  0  0  0
  8 29  1  0  0  0  0
  8 45  1  0  0  0  0
  9 10  2  0  0  0  0
  9 11  1  0  0  0  0
 11 12  1  0  0  0  0
 11 28  1  0  0  0  0
 12 13  2  0  0  0  0
 12 21  1  0  0  0  0
 13 14  1  0  0  0  0
 13 27  1  0  0  0  0
 14 15  2  0  0  0  0
 15 16  1  0  0  0  0
 15 26  1  0  0  0  0
 16 17  2  0  0  0  0
 16 21  1  0  0  0  0
 17 18  1  0  0  0  0
 17 25  1  0  0  0  0
 18 19  2  0  0  0  0
 18 24  1  0  0  0  0
 19 20  1  0  0  0  0
 19 23  1  0  0  0  0
 20 21  2  0  0  0  0
 20 22  1  0  0  0  0
 28 29  1  0  0  0  0
 28 43  1  0  0  0  0
 28 44  1  0  0  0  0
 29 30  1  0  0  0  0
 29 42  1  1  0  0  0
 30 31  1  0  0  0  0
 30 40  1  0  0  0  0
 30 41  1  0  0  0  0
 31 32  2  0  0  0  0
 31 33  2  0  0  0  0
 31 34  1  0  0  0  0
 34 35  1  0  0  0  0
 34 39  1  0  0  0  0
 35 36  1  0  0  0  0
 35 37  1  0  0  0  0
 35 38  1  0  0  0  0
 45 46  2  0  0  0  0
 45 51  1  0  0  0  0
 46 47  1  0  0  0  0
 46 56  1  0  0  0  0
 47 48  1  0  0  0  0
 47 49  2  0  0  0  0
 49 50  1  0  0  0  0
 49 55  1  0  0  0  0
 50 51  2  0  0  0  0
 50 54  1  0  0  0  0
 51 52  1  0  0  0  0
 52 53  2  0  0  0  0
M  END
>  <MODEL>
       1

$$$$
