output/tmp_first_model_4_93.pdb
 OpenBabel07242615033D

 62 67  0  0  1  0  0  0  0  0999 V2000
  -11.6560    3.2020  -22.6850 C   0  0  0  0  0  0  0  0  0  0  0  0
  -10.8450    1.9450  -22.3700 C   0  0  0  0  0  0  0  0  0  0  0  0
   -9.5050    1.9520  -22.9420 N   0  0  0  0  0  0  0  0  0  0  0  0
   -8.5200    2.4850  -22.1980 N   0  0  0  0  0  0  0  0  0  0  0  0
   -7.4370    2.4590  -22.9580 C   0  0  0  0  0  0  0  0  0  0  0  0
   -7.7180    1.8920  -24.2170 C   0  0  0  0  0  0  0  0  0  0  0  0
   -9.0630    1.5750  -24.1720 C   0  0  0  0  0  0  0  0  0  0  0  0
   -9.8910    0.8130  -25.1640 C   0  0  0  0  0  0  0  0  0  0  0  0
  -10.3550   -0.4480  -24.5970 N   0  0  0  0  0  0  0  0  0  0  0  0
   -9.3570   -1.4570  -24.2770 C   0  0  0  0  0  0  0  0  0  0  0  0
   -9.5460   -2.1150  -22.8840 C   0  0  2  0  0  0  0  0  0  0  0  0
   -8.9060   -1.2610  -21.7350 C   0  0  0  0  0  0  0  0  0  0  0  0
   -9.4550   -0.4290  -21.0470 O   0  0  0  0  0  0  0  0  0  0  0  0
   -7.5810   -1.6360  -21.6050 N   0  0  0  0  0  0  0  0  0  0  0  0
   -6.7570   -1.3060  -20.5080 C   0  0  0  0  0  0  0  0  0  0  0  0
   -7.0300   -1.7420  -19.2320 C   0  0  0  0  0  0  0  0  0  0  0  0
   -6.1800   -1.5780  -18.1900 N   0  0  0  0  0  0  0  0  0  0  0  0
   -5.0370   -0.9800  -18.4120 C   0  0  0  0  0  0  0  0  0  0  0  0
   -4.6250   -0.5070  -19.6910 C   0  0  0  0  0  0  0  0  0  0  0  0
   -3.3650    0.1040  -19.9160 C   0  0  0  0  0  0  0  0  0  0  0  0
   -2.9960    0.5000  -21.1710 C   0  0  0  0  0  0  0  0  0  0  0  0
   -3.8590    0.2950  -22.2680 C   0  0  0  0  0  0  0  0  0  0  0  0
   -5.0870   -0.2840  -22.0750 C   0  0  0  0  0  0  0  0  0  0  0  0
   -5.5010   -0.6880  -20.7780 C   0  0  0  0  0  0  0  0  0  0  0  0
   -5.7560   -0.4470  -22.9110 H   0  0  0  0  0  0  0  0  0  0  0  0
   -3.5410    0.5840  -23.2650 H   0  0  0  0  0  0  0  0  0  0  0  0
   -2.0420    0.9920  -21.3300 H   0  0  0  0  0  0  0  0  0  0  0  0
   -2.7000    0.2460  -19.0720 H   0  0  0  0  0  0  0  0  0  0  0  0
   -4.3770   -0.8350  -17.5540 H   0  0  0  0  0  0  0  0  0  0  0  0
   -7.9560   -2.2630  -18.9960 H   0  0  0  0  0  0  0  0  0  0  0  0
   -7.2390   -2.8080  -22.3830 C   0  0  0  0  0  0  0  0  0  0  0  0
   -8.6180   -3.3680  -22.7440 C   0  0  2  0  0  0  0  0  0  0  0  0
   -8.5670   -4.3740  -23.8790 C   0  0  0  0  0  0  0  0  0  0  0  0
   -9.5610   -4.7520  -24.1380 H   0  0  0  0  0  0  0  0  0  0  0  0
   -7.9370   -5.2240  -23.5950 H   0  0  0  0  0  0  0  0  0  0  0  0
   -8.1170   -3.9320  -24.7750 H   0  0  0  0  0  0  0  0  0  0  0  0
   -8.9690   -3.8580  -21.8340 H   0  0  0  0  0  0  0  0  0  0  0  0
   -6.6390   -2.5670  -23.2790 H   0  0  0  0  0  0  0  0  0  0  0  0
   -6.6510   -3.5050  -21.7760 H   0  0  0  0  0  0  0  0  0  0  0  0
  -11.0360   -2.3370  -22.6540 C   0  0  0  0  0  0  0  0  0  0  0  0
  -11.4580   -3.2310  -21.6610 C   0  0  0  0  0  0  0  0  0  0  0  0
  -12.7880   -3.2930  -21.3090 C   0  0  0  0  0  0  0  0  0  0  0  0
  -13.1450   -4.1140  -20.3070 F   0  0  0  0  0  0  0  0  0  0  0  0
  -13.7660   -2.5330  -21.9260 C   0  0  0  0  0  0  0  0  0  0  0  0
  -13.3780   -1.6980  -22.9590 C   0  0  0  0  0  0  0  0  0  0  0  0
  -12.0360   -1.6160  -23.3360 C   0  0  0  0  0  0  0  0  0  0  0  0
  -11.6950   -0.6730  -24.4500 C   0  0  0  0  0  0  0  0  0  0  0  0
  -12.5530   -0.1020  -25.1130 O   0  0  0  0  0  0  0  0  0  0  0  0
  -14.1110   -1.1020  -23.4880 H   0  0  0  0  0  0  0  0  0  0  0  0
  -14.7910   -2.6440  -21.6000 H   0  0  0  0  0  0  0  0  0  0  0  0
  -10.7580   -3.8840  -21.1510 H   0  0  0  0  0  0  0  0  0  0  0  0
   -9.3820   -2.2460  -25.0420 H   0  0  0  0  0  0  0  0  0  0  0  0
   -8.3810   -0.9700  -24.3380 H   0  0  0  0  0  0  0  0  0  0  0  0
   -9.2680    0.6200  -26.0480 H   0  0  0  0  0  0  0  0  0  0  0  0
  -10.7700    1.3730  -25.4990 H   0  0  0  0  0  0  0  0  0  0  0  0
   -7.0400    1.6690  -25.0270 H   0  0  0  0  0  0  0  0  0  0  0  0
   -6.5050    2.8450  -22.5610 H   0  0  0  0  0  0  0  0  0  0  0  0
  -11.3760    1.0540  -22.7190 H   0  0  0  0  0  0  0  0  0  0  0  0
  -10.6750    1.8130  -21.3000 H   0  0  0  0  0  0  0  0  0  0  0  0
  -12.0100    3.1780  -23.7240 H   0  0  0  0  0  0  0  0  0  0  0  0
  -11.0610    4.1080  -22.5310 H   0  0  0  0  0  0  0  0  0  0  0  0
  -12.5370    3.2580  -22.0340 H   0  0  0  0  0  0  0  0  0  0  0  0
  1  2  1  0  0  0  0
  1 60  1  0  0  0  0
  1 61  1  0  0  0  0
  1 62  1  0  0  0  0
  2  3  1  0  0  0  0
  2 58  1  0  0  0  0
  2 59  1  0  0  0  0
  3  4  1  0  0  0  0
  3  7  1  0  0  0  0
  4  5  2  0  0  0  0
  5  6  1  0  0  0  0
  5 57  1  0  0  0  0
  6  7  2  0  0  0  0
  6 56  1  0  0  0  0
  7  8  1  0  0  0  0
  8  9  1  0  0  0  0
  8 54  1  0  0  0  0
  8 55  1  0  0  0  0
  9 10  1  0  0  0  0
  9 47  1  0  0  0  0
 10 11  1  0  0  0  0
 10 52  1  0  0  0  0
 10 53  1  0  0  0  0
 11 12  1  1  0  0  0
 11 32  1  0  0  0  0
 11 40  1  0  0  0  0
 12 13  2  0  0  0  0
 12 14  1  0  0  0  0
 14 15  1  0  0  0  0
 14 31  1  0  0  0  0
 15 16  2  0  0  0  0
 15 24  1  0  0  0  0
 16 17  1  0  0  0  0
 16 30  1  0  0  0  0
 17 18  2  0  0  0  0
 18 19  1  0  0  0  0
 18 29  1  0  0  0  0
 19 20  2  0  0  0  0
 19 24  1  0  0  0  0
 20 21  1  0  0  0  0
 20 28  1  0  0  0  0
 21 22  2  0  0  0  0
 21 27  1  0  0  0  0
 22 23  1  0  0  0  0
 22 26  1  0  0  0  0
 23 24  2  0  0  0  0
 23 25  1  0  0  0  0
 31 32  1  0  0  0  0
 31 38  1  0  0  0  0
 31 39  1  0  0  0  0
 32 33  1  0  0  0  0
 32 37  1  1  0  0  0
 33 34  1  0  0  0  0
 33 35  1  0  0  0  0
 33 36  1  0  0  0  0
 40 41  2  0  0  0  0
 40 46  1  0  0  0  0
 41 42  1  0  0  0  0
 41 51  1  0  0  0  0
 42 43  1  0  0  0  0
 42 44  2  0  0  0  0
 44 45  1  0  0  0  0
 44 50  1  0  0  0  0
 45 46  2  0  0  0  0
 45 49  1  0  0  0  0
 46 47  1  0  0  0  0
 47 48  2  0  0  0  0
M  END
>  <MODEL>
       1

$$$$
