output/tmp_first_model_17_91.pdb
 OpenBabel07242622053D

 66 71  0  0  1  0  0  0  0  0999 V2000
   -7.4540    3.2600  -21.8100 C   0  0  0  0  0  0  0  0  0  0  0  0
   -8.5360    2.8230  -22.6760 N   0  0  0  0  0  0  0  0  0  0  0  0
   -8.1790    2.0720  -23.7560 C   0  0  0  0  0  0  0  0  0  0  0  0
   -7.0140    1.8080  -24.0080 O   0  0  0  0  0  0  0  0  0  0  0  0
   -9.2860    1.5460  -24.6560 C   0  0  0  0  0  0  0  0  0  0  0  0
   -9.8340    0.3280  -24.0930 N   0  0  0  0  0  0  0  0  0  0  0  0
   -9.0340   -0.8890  -24.0530 C   0  0  0  0  0  0  0  0  0  0  0  0
   -9.2600   -1.6640  -22.7260 C   0  0  2  0  0  0  0  0  0  0  0  0
   -8.6570   -0.8430  -21.5530 C   0  0  0  0  0  0  0  0  0  0  0  0
   -9.1350    0.1440  -21.0290 O   0  0  0  0  0  0  0  0  0  0  0  0
   -7.4420   -1.3980  -21.2090 N   0  0  0  0  0  0  0  0  0  0  0  0
   -6.6300   -0.8260  -20.1950 C   0  0  0  0  0  0  0  0  0  0  0  0
   -6.9390   -1.0490  -18.8740 C   0  0  0  0  0  0  0  0  0  0  0  0
   -6.2280   -0.5650  -17.8300 N   0  0  0  0  0  0  0  0  0  0  0  0
   -5.1870    0.1830  -18.0960 C   0  0  0  0  0  0  0  0  0  0  0  0
   -4.7620    0.5110  -19.4130 C   0  0  0  0  0  0  0  0  0  0  0  0
   -3.6430    1.3540  -19.6430 C   0  0  0  0  0  0  0  0  0  0  0  0
   -3.2620    1.6640  -20.9200 C   0  0  0  0  0  0  0  0  0  0  0  0
   -3.9830    1.1500  -22.0190 C   0  0  0  0  0  0  0  0  0  0  0  0
   -5.0780    0.3380  -21.8230 C   0  0  0  0  0  0  0  0  0  0  0  0
   -5.4950   -0.0100  -20.5080 C   0  0  0  0  0  0  0  0  0  0  0  0
   -5.6510    0.0050  -22.6820 H   0  0  0  0  0  0  0  0  0  0  0  0
   -3.6670    1.4000  -23.0270 H   0  0  0  0  0  0  0  0  0  0  0  0
   -2.4000    2.3010  -21.0960 H   0  0  0  0  0  0  0  0  0  0  0  0
   -3.1050    1.7440  -18.7830 H   0  0  0  0  0  0  0  0  0  0  0  0
   -4.6210    0.5790  -17.2510 H   0  0  0  0  0  0  0  0  0  0  0  0
   -7.8010   -1.6610  -18.6250 H   0  0  0  0  0  0  0  0  0  0  0  0
   -7.0960   -2.5740  -21.9870 C   0  0  0  0  0  0  0  0  0  0  0  0
   -8.4280   -2.9730  -22.6380 C   0  0  2  0  0  0  0  0  0  0  0  0
   -8.2270   -3.7630  -23.9300 C   0  0  0  0  0  0  0  0  0  0  0  0
   -9.4720   -4.2730  -24.4450 N   0  0  0  0  0  0  0  0  0  0  0  0
   -9.5710   -4.9510  -25.6270 C   0  0  0  0  0  0  0  0  0  0  0  0
   -8.4500   -5.2110  -26.4570 C   0  0  0  0  0  0  0  0  0  0  0  0
   -8.5640   -5.8100  -27.6310 N   0  0  0  0  0  0  0  0  0  0  0  0
   -9.7950   -6.1750  -28.0030 C   0  0  0  0  0  0  0  0  0  0  0  0
  -10.8850   -5.9580  -27.1740 C   0  0  0  0  0  0  0  0  0  0  0  0
  -10.7870   -5.3690  -25.9830 N   0  0  0  0  0  0  0  0  0  0  0  0
  -11.8840   -6.2560  -27.4810 H   0  0  0  0  0  0  0  0  0  0  0  0
   -9.9010   -6.6440  -28.9780 H   0  0  0  0  0  0  0  0  0  0  0  0
   -7.4460   -4.9190  -26.1620 H   0  0  0  0  0  0  0  0  0  0  0  0
  -10.3570   -4.0390  -24.0090 H   0  0  0  0  0  0  0  0  0  0  0  0
   -7.5500   -4.6060  -23.7350 H   0  0  0  0  0  0  0  0  0  0  0  0
   -7.7360   -3.1260  -24.6860 H   0  0  0  0  0  0  0  0  0  0  0  0
   -8.9440   -3.6260  -21.9280 H   0  0  0  0  0  0  0  0  0  0  0  0
   -6.3270   -2.3500  -22.7440 H   0  0  0  0  0  0  0  0  0  0  0  0
   -6.7070   -3.3710  -21.3460 H   0  0  0  0  0  0  0  0  0  0  0  0
  -10.7610   -1.8430  -22.5510 C   0  0  0  0  0  0  0  0  0  0  0  0
  -11.3110   -2.8540  -21.7530 C   0  0  0  0  0  0  0  0  0  0  0  0
  -12.6530   -2.8100  -21.4170 C   0  0  0  0  0  0  0  0  0  0  0  0
  -13.2640   -3.8900  -20.2190 Cl  0  0  0  0  0  0  0  0  0  0  0  0
  -13.5230   -1.8540  -21.9250 C   0  0  0  0  0  0  0  0  0  0  0  0
  -13.0080   -0.8910  -22.7570 C   0  0  0  0  0  0  0  0  0  0  0  0
  -11.6490   -0.8790  -23.0520 C   0  0  0  0  0  0  0  0  0  0  0  0
  -11.1730    0.2990  -23.8310 C   0  0  0  0  0  0  0  0  0  0  0  0
  -11.9330    1.1950  -24.1740 O   0  0  0  0  0  0  0  0  0  0  0  0
  -13.6080   -0.0830  -23.1570 H   0  0  0  0  0  0  0  0  0  0  0  0
  -14.5640   -1.8620  -21.6260 H   0  0  0  0  0  0  0  0  0  0  0  0
  -10.7300   -3.6670  -21.3310 H   0  0  0  0  0  0  0  0  0  0  0  0
   -7.9790   -0.6160  -24.1720 H   0  0  0  0  0  0  0  0  0  0  0  0
   -9.3220   -1.5360  -24.8950 H   0  0  0  0  0  0  0  0  0  0  0  0
  -10.1140    2.2500  -24.7360 H   0  0  0  0  0  0  0  0  0  0  0  0
   -8.8830    1.3650  -25.6620 H   0  0  0  0  0  0  0  0  0  0  0  0
   -9.4500    2.7070  -22.2530 H   0  0  0  0  0  0  0  0  0  0  0  0
   -7.8760    3.7620  -20.9410 H   0  0  0  0  0  0  0  0  0  0  0  0
   -6.8540    2.3890  -21.5160 H   0  0  0  0  0  0  0  0  0  0  0  0
   -6.8170    3.9730  -22.3420 H   0  0  0  0  0  0  0  0  0  0  0  0
  1  2  1  0  0  0  0
  1 64  1  0  0  0  0
  1 65  1  0  0  0  0
  1 66  1  0  0  0  0
  2  3  1  0  0  0  0
  2 63  1  0  0  0  0
  3  4  2  0  0  0  0
  3  5  1  0  0  0  0
  5  6  1  0  0  0  0
  5 61  1  0  0  0  0
  5 62  1  0  0  0  0
  6  7  1  0  0  0  0
  6 54  1  0  0  0  0
  7  8  1  0  0  0  0
  7 59  1  0  0  0  0
  7 60  1  0  0  0  0
  8  9  1  1  0  0  0
  8 29  1  0  0  0  0
  8 47  1  0  0  0  0
  9 10  2  0  0  0  0
  9 11  1  0  0  0  0
 11 12  1  0  0  0  0
 11 28  1  0  0  0  0
 12 13  2  0  0  0  0
 12 21  1  0  0  0  0
 13 14  1  0  0  0  0
 13 27  1  0  0  0  0
 14 15  2  0  0  0  0
 15 16  1  0  0  0  0
 15 26  1  0  0  0  0
 16 17  2  0  0  0  0
 16 21  1  0  0  0  0
 17 18  1  0  0  0  0
 17 25  1  0  0  0  0
 18 19  2  0  0  0  0
 18 24  1  0  0  0  0
 19 20  1  0  0  0  0
 19 23  1  0  0  0  0
 20 21  2  0  0  0  0
 20 22  1  0  0  0  0
 28 29  1  0  0  0  0
 28 45  1  0  0  0  0
 28 46  1  0  0  0  0
 29 30  1  0  0  0  0
 29 44  1  1  0  0  0
 30 31  1  0  0  0  0
 30 42  1  0  0  0  0
 30 43  1  0  0  0  0
 31 32  1  0  0  0  0
 31 41  1  0  0  0  0
 32 33  2  0  0  0  0
 32 37  1  0  0  0  0
 33 34  1  0  0  0  0
 33 40  1  0  0  0  0
 34 35  2  0  0  0  0
 35 36  1  0  0  0  0
 35 39  1  0  0  0  0
 36 37  2  0  0  0  0
 36 38  1  0  0  0  0
 47 48  2  0  0  0  0
 47 53  1  0  0  0  0
 48 49  1  0  0  0  0
 48 58  1  0  0  0  0
 49 50  1  0  0  0  0
 49 51  2  0  0  0  0
 51 52  1  0  0  0  0
 51 57  1  0  0  0  0
 52 53  2  0  0  0  0
 52 56  1  0  0  0  0
 53 54  1  0  0  0  0
 54 55  2  0  0  0  0
M  END
>  <MODEL>
       1

$$$$
