output/tmp_first_model_17_35.pdb
 OpenBabel07242622053D

 40 42  0  0  0  0  0  0  0  0999 V2000
   -9.2640   -1.9260  -22.4320 O   0  0  0  0  0  0  0  0  0  0  0  0
   -8.3740   -1.0970  -22.2610 C   0  0  0  0  0  0  0  0  0  0  0  0
   -6.9840   -1.5470  -21.8250 C   0  0  0  0  0  0  0  0  0  0  0  0
   -6.3890   -0.8400  -20.6170 C   0  0  0  0  0  0  0  0  0  0  0  0
   -6.9690   -0.9930  -19.3810 C   0  0  0  0  0  0  0  0  0  0  0  0
   -6.4920   -0.4700  -18.2270 N   0  0  0  0  0  0  0  0  0  0  0  0
   -5.4050    0.2540  -18.2950 C   0  0  0  0  0  0  0  0  0  0  0  0
   -4.7280    0.5530  -19.5070 C   0  0  0  0  0  0  0  0  0  0  0  0
   -3.6230    1.4430  -19.5510 C   0  0  0  0  0  0  0  0  0  0  0  0
   -3.0630    1.7980  -20.7490 C   0  0  0  0  0  0  0  0  0  0  0  0
   -3.5620    1.2430  -21.9470 C   0  0  0  0  0  0  0  0  0  0  0  0
   -4.5730    0.3140  -21.9180 C   0  0  0  0  0  0  0  0  0  0  0  0
   -5.2210   -0.0230  -20.7030 C   0  0  0  0  0  0  0  0  0  0  0  0
   -4.9010   -0.1310  -22.8510 H   0  0  0  0  0  0  0  0  0  0  0  0
   -3.1060    1.5210  -22.8930 H   0  0  0  0  0  0  0  0  0  0  0  0
   -2.2350    2.5020  -20.7940 H   0  0  0  0  0  0  0  0  0  0  0  0
   -3.2500    1.8590  -18.6180 H   0  0  0  0  0  0  0  0  0  0  0  0
   -5.0140    0.6630  -17.3600 H   0  0  0  0  0  0  0  0  0  0  0  0
   -7.8780   -1.5840  -19.2760 H   0  0  0  0  0  0  0  0  0  0  0  0
   -7.1300   -2.6060  -21.5960 H   0  0  0  0  0  0  0  0  0  0  0  0
   -6.2990   -1.4940  -22.6770 H   0  0  0  0  0  0  0  0  0  0  0  0
   -8.5110    0.2610  -22.4090 N   0  0  0  0  0  0  0  0  0  0  0  0
   -7.5070    1.0800  -23.1690 C   0  0  0  0  0  0  0  0  0  0  0  0
   -7.9980    2.3750  -23.7390 C   0  0  0  0  0  0  0  0  0  0  0  0
   -9.2280    2.8640  -23.7960 C   0  0  0  0  0  0  0  0  0  0  0  0
   -8.3950    5.4500  -23.0140 C   0  0  0  0  0  0  0  0  0  0  0  0
   -7.6940    4.9100  -22.0400 F   0  0  0  0  0  0  0  0  0  0  0  0
   -9.3700    6.1900  -22.5290 F   0  0  0  0  0  0  0  0  0  0  0  0
   -7.6240    6.1510  -23.8200 F   0  0  0  0  0  0  0  0  0  0  0  0
   -9.7310    1.0620  -22.1430 C   0  0  0  0  0  0  0  0  0  0  0  0
   -9.7740    0.9080  -21.9730 C   0  0  0  0  0  0  0  0  0  0  0  0
  -10.3820    0.5780  -23.0520 H   0  0  0  0  0  0  0  0  0  0  0  0
  -10.2970    0.0080  -20.8120 H   0  0  0  0  0  0  0  0  0  0  0  0
  -10.6590    1.8440  -22.0060 H   0  0  0  0  0  0  0  0  0  0  0  0
   -9.0850    1.8960  -21.5170 H   0  0  0  0  0  0  0  0  0  0  0  0
   -9.3580    3.9400  -23.8860 H   0  0  0  0  0  0  0  0  0  0  0  0
   -7.1780    2.9870  -24.1030 H   0  0  0  0  0  0  0  0  0  0  0  0
  -10.0710    2.2120  -23.7850 H   0  0  0  0  0  0  0  0  0  0  0  0
   -7.1120    0.4800  -23.9900 H   0  0  0  0  0  0  0  0  0  0  0  0
   -6.6940    1.3320  -22.4830 H   0  0  0  0  0  0  0  0  0  0  0  0
  1  2  2  0  0  0  0
  2  3  1  0  0  0  0
  2 22  1  0  0  0  0
  3  4  1  0  0  0  0
  3 20  1  0  0  0  0
  3 21  1  0  0  0  0
  4  5  2  0  0  0  0
  4 13  1  0  0  0  0
  5  6  1  0  0  0  0
  5 19  1  0  0  0  0
  6  7  2  0  0  0  0
  7  8  1  0  0  0  0
  7 18  1  0  0  0  0
  8  9  2  0  0  0  0
  8 13  1  0  0  0  0
  9 10  1  0  0  0  0
  9 17  1  0  0  0  0
 10 11  2  0  0  0  0
 10 16  1  0  0  0  0
 11 12  1  0  0  0  0
 11 15  1  0  0  0  0
 12 13  2  0  0  0  0
 12 14  1  0  0  0  0
 22 23  1  0  0  0  0
 22 31  1  0  0  0  0
 23 24  1  0  0  0  0
 23 39  1  0  0  0  0
 23 40  1  0  0  0  0
 24 25  1  0  0  0  0
 24 37  1  0  0  0  0
 24 38  1  0  0  0  0
 25 26  1  0  0  0  0
 25 30  1  0  0  0  0
 25 36  1  0  0  0  0
 26 27  1  0  0  0  0
 26 28  1  0  0  0  0
 26 29  1  0  0  0  0
 30 31  1  0  0  0  0
 30 34  1  0  0  0  0
 30 35  1  0  0  0  0
 31 32  1  0  0  0  0
 31 33  1  0  0  0  0
M  END
>  <MODEL>
       1

$$$$
