output/tmp_first_model_1_7.pdb
 OpenBabel07242613193D

 44 47  0  0  0  0  0  0  0  0999 V2000
   -9.6220   -6.3980  -25.6810 C   0  0  0  0  0  0  0  0  0  0  0  0
  -10.9500   -6.2330  -24.9590 C   0  0  0  0  0  0  0  0  0  0  0  0
  -11.2130   -4.6060  -24.2560 S   0  0  0  0  0  0  0  0  0  0  0  0
  -12.5010   -4.6100  -23.5880 O   0  0  0  0  0  0  0  0  0  0  0  0
  -10.9480   -3.6310  -25.3050 O   0  0  0  0  0  0  0  0  0  0  0  0
  -10.0030   -4.5230  -23.0790 N   0  0  0  0  0  0  0  0  0  0  0  0
  -10.1340   -3.6120  -21.8980 C   0  0  0  0  0  0  0  0  0  0  0  0
   -8.8760   -2.8360  -22.3650 C   0  0  0  0  0  0  0  0  0  0  0  0
   -8.7180   -3.8990  -23.4640 C   0  0  0  0  0  0  0  0  0  0  0  0
   -8.6450   -3.5200  -24.4840 H   0  0  0  0  0  0  0  0  0  0  0  0
   -7.9030   -4.5830  -23.2260 H   0  0  0  0  0  0  0  0  0  0  0  0
   -7.6790   -2.7430  -21.4360 C   0  0  0  0  0  0  0  0  0  0  0  0
   -6.9950   -3.6380  -20.9970 O   0  0  0  0  0  0  0  0  0  0  0  0
   -7.4550   -1.3890  -21.2300 N   0  0  0  0  0  0  0  0  0  0  0  0
   -6.6210   -0.8560  -20.2140 C   0  0  0  0  0  0  0  0  0  0  0  0
   -6.9290   -1.0970  -18.9000 C   0  0  0  0  0  0  0  0  0  0  0  0
   -6.2480   -0.5910  -17.8470 N   0  0  0  0  0  0  0  0  0  0  0  0
   -5.2280    0.1870  -18.1120 C   0  0  0  0  0  0  0  0  0  0  0  0
   -4.7950    0.5100  -19.4250 C   0  0  0  0  0  0  0  0  0  0  0  0
   -3.6580    1.3330  -19.6360 C   0  0  0  0  0  0  0  0  0  0  0  0
   -3.2250    1.5910  -20.9060 C   0  0  0  0  0  0  0  0  0  0  0  0
   -3.9120    1.0440  -22.0140 C   0  0  0  0  0  0  0  0  0  0  0  0
   -5.0260    0.2600  -21.8370 C   0  0  0  0  0  0  0  0  0  0  0  0
   -5.4990   -0.0270  -20.5250 C   0  0  0  0  0  0  0  0  0  0  0  0
   -5.5510   -0.1430  -22.6980 H   0  0  0  0  0  0  0  0  0  0  0  0
   -3.5440    1.2390  -23.0180 H   0  0  0  0  0  0  0  0  0  0  0  0
   -2.3460    2.2060  -21.0730 H   0  0  0  0  0  0  0  0  0  0  0  0
   -3.1420    1.7310  -18.7650 H   0  0  0  0  0  0  0  0  0  0  0  0
   -4.6720    0.5860  -17.2640 H   0  0  0  0  0  0  0  0  0  0  0  0
   -7.7780   -1.7260  -18.6510 H   0  0  0  0  0  0  0  0  0  0  0  0
   -8.3050   -0.5950  -22.0100 C   0  0  0  0  0  0  0  0  0  0  0  0
   -8.3070    0.6120  -22.0270 O   0  0  0  0  0  0  0  0  0  0  0  0
   -9.0980   -1.4520  -22.7220 N   0  0  0  0  0  0  0  0  0  0  0  0
   -9.9740   -0.9740  -23.7770 C   0  0  0  0  0  0  0  0  0  0  0  0
  -10.2660    0.0480  -23.5360 H   0  0  0  0  0  0  0  0  0  0  0  0
   -9.4710   -0.9620  -24.7510 H   0  0  0  0  0  0  0  0  0  0  0  0
  -10.8570   -1.6120  -23.8540 H   0  0  0  0  0  0  0  0  0  0  0  0
  -11.0440   -3.0100  -21.8420 H   0  0  0  0  0  0  0  0  0  0  0  0
   -9.9780   -4.1590  -20.9700 H   0  0  0  0  0  0  0  0  0  0  0  0
  -11.7950   -6.3870  -25.6410 H   0  0  0  0  0  0  0  0  0  0  0  0
  -11.0480   -6.9320  -24.1360 H   0  0  0  0  0  0  0  0  0  0  0  0
   -8.7680   -6.3260  -24.9990 H   0  0  0  0  0  0  0  0  0  0  0  0
   -9.5240   -5.6370  -26.4570 H   0  0  0  0  0  0  0  0  0  0  0  0
   -9.5700   -7.3880  -26.1470 H   0  0  0  0  0  0  0  0  0  0  0  0
  1  2  1  0  0  0  0
  1 42  1  0  0  0  0
  1 43  1  0  0  0  0
  1 44  1  0  0  0  0
  2  3  1  0  0  0  0
  2 40  1  0  0  0  0
  2 41  1  0  0  0  0
  3  4  2  0  0  0  0
  3  5  2  0  0  0  0
  3  6  1  0  0  0  0
  6  7  1  0  0  0  0
  6  9  1  0  0  0  0
  7  8  1  0  0  0  0
  7 38  1  0  0  0  0
  7 39  1  0  0  0  0
  8  9  1  0  0  0  0
  8 12  1  0  0  0  0
  8 33  1  0  0  0  0
  9 10  1  0  0  0  0
  9 11  1  0  0  0  0
 12 13  2  0  0  0  0
 12 14  1  0  0  0  0
 14 15  1  0  0  0  0
 14 31  1  0  0  0  0
 15 16  2  0  0  0  0
 15 24  1  0  0  0  0
 16 17  1  0  0  0  0
 16 30  1  0  0  0  0
 17 18  2  0  0  0  0
 18 19  1  0  0  0  0
 18 29  1  0  0  0  0
 19 20  2  0  0  0  0
 19 24  1  0  0  0  0
 20 21  1  0  0  0  0
 20 28  1  0  0  0  0
 21 22  2  0  0  0  0
 21 27  1  0  0  0  0
 22 23  1  0  0  0  0
 22 26  1  0  0  0  0
 23 24  2  0  0  0  0
 23 25  1  0  0  0  0
 31 32  2  0  0  0  0
 31 33  1  0  0  0  0
 33 34  1  0  0  0  0
 34 35  1  0  0  0  0
 34 36  1  0  0  0  0
 34 37  1  0  0  0  0
M  END
>  <MODEL>
       1

$$$$
