output/tmp_first_model_13_79.pdb
 OpenBabel07242619583D

 45 49  0  0  0  0  0  0  0  0999 V2000
   -7.6300   -4.1920  -23.7470 C   0  0  0  0  0  0  0  0  0  0  0  0
   -7.7740   -3.0030  -22.9320 N   0  0  0  0  0  0  0  0  0  0  0  0
   -6.7710   -2.6010  -22.0810 C   0  0  0  0  0  0  0  0  0  0  0  0
   -5.6530   -3.0520  -21.9860 O   0  0  0  0  0  0  0  0  0  0  0  0
   -7.3080   -1.5550  -21.3090 N   0  0  0  0  0  0  0  0  0  0  0  0
   -6.5900   -0.9100  -20.2700 C   0  0  0  0  0  0  0  0  0  0  0  0
   -6.9610   -1.0960  -18.9620 C   0  0  0  0  0  0  0  0  0  0  0  0
   -6.2960   -0.5780  -17.9020 N   0  0  0  0  0  0  0  0  0  0  0  0
   -5.2460    0.1630  -18.1470 C   0  0  0  0  0  0  0  0  0  0  0  0
   -4.7740    0.4600  -19.4560 C   0  0  0  0  0  0  0  0  0  0  0  0
   -3.6530    1.3060  -19.6630 C   0  0  0  0  0  0  0  0  0  0  0  0
   -3.2600    1.6260  -20.9330 C   0  0  0  0  0  0  0  0  0  0  0  0
   -3.9630    1.1120  -22.0470 C   0  0  0  0  0  0  0  0  0  0  0  0
   -5.0440    0.2820  -21.8740 C   0  0  0  0  0  0  0  0  0  0  0  0
   -5.4680   -0.0750  -20.5620 C   0  0  0  0  0  0  0  0  0  0  0  0
   -5.5890   -0.0970  -22.7350 H   0  0  0  0  0  0  0  0  0  0  0  0
   -3.6560    1.3890  -23.0520 H   0  0  0  0  0  0  0  0  0  0  0  0
   -2.4190    2.2950  -21.0940 H   0  0  0  0  0  0  0  0  0  0  0  0
   -3.1490    1.7090  -18.7880 H   0  0  0  0  0  0  0  0  0  0  0  0
   -4.7160    0.5830  -17.2900 H   0  0  0  0  0  0  0  0  0  0  0  0
   -7.8330   -1.7000  -18.7280 H   0  0  0  0  0  0  0  0  0  0  0  0
   -8.6530   -1.3360  -21.5860 C   0  0  0  0  0  0  0  0  0  0  0  0
   -9.3430   -0.4660  -21.1010 O   0  0  0  0  0  0  0  0  0  0  0  0
   -9.0490   -2.4070  -22.5850 C   0  0  0  0  0  0  0  0  0  0  0  0
  -10.0170   -1.9720  -23.7080 C   0  0  0  0  0  0  0  0  0  0  0  0
  -11.0540   -2.8790  -23.1690 N   0  0  0  0  0  0  0  0  0  0  0  0
  -11.8960   -4.0700  -23.9830 S   0  0  0  0  0  0  0  0  0  0  0  0
  -10.9790   -4.9450  -24.7000 O   0  0  0  0  0  0  0  0  0  0  0  0
  -12.8130   -4.6190  -23.0000 O   0  0  0  0  0  0  0  0  0  0  0  0
  -12.9230   -3.2000  -25.1330 C   0  0  0  0  0  0  0  0  0  0  0  0
  -14.1390   -3.9850  -25.5530 C   0  0  0  0  0  0  0  0  0  0  0  0
  -14.2860   -2.8360  -24.6140 C   0  0  0  0  0  0  0  0  0  0  0  0
  -14.4790   -3.0610  -23.5700 H   0  0  0  0  0  0  0  0  0  0  0  0
  -14.7410   -1.9300  -24.9950 H   0  0  0  0  0  0  0  0  0  0  0  0
  -14.2660   -4.9770  -25.1330 H   0  0  0  0  0  0  0  0  0  0  0  0
  -14.5030   -3.8590  -26.5680 H   0  0  0  0  0  0  0  0  0  0  0  0
  -12.4230   -2.5840  -25.8750 H   0  0  0  0  0  0  0  0  0  0  0  0
  -10.1690   -3.3530  -22.0900 C   0  0  0  0  0  0  0  0  0  0  0  0
   -9.8890   -4.4090  -22.1210 H   0  0  0  0  0  0  0  0  0  0  0  0
  -10.5670   -3.0950  -21.1180 H   0  0  0  0  0  0  0  0  0  0  0  0
   -9.6890   -2.1620  -24.7280 H   0  0  0  0  0  0  0  0  0  0  0  0
  -10.3470   -0.9390  -23.5990 H   0  0  0  0  0  0  0  0  0  0  0  0
   -8.0830   -4.0560  -24.7330 H   0  0  0  0  0  0  0  0  0  0  0  0
   -8.0740   -5.0820  -23.2850 H   0  0  0  0  0  0  0  0  0  0  0  0
   -6.5610   -4.3750  -23.8620 H   0  0  0  0  0  0  0  0  0  0  0  0
  1  2  1  0  0  0  0
  1 43  1  0  0  0  0
  1 44  1  0  0  0  0
  1 45  1  0  0  0  0
  2  3  1  0  0  0  0
  2 24  1  0  0  0  0
  3  4  2  0  0  0  0
  3  5  1  0  0  0  0
  5  6  1  0  0  0  0
  5 22  1  0  0  0  0
  6  7  2  0  0  0  0
  6 15  1  0  0  0  0
  7  8  1  0  0  0  0
  7 21  1  0  0  0  0
  8  9  2  0  0  0  0
  9 10  1  0  0  0  0
  9 20  1  0  0  0  0
 10 11  2  0  0  0  0
 10 15  1  0  0  0  0
 11 12  1  0  0  0  0
 11 19  1  0  0  0  0
 12 13  2  0  0  0  0
 12 18  1  0  0  0  0
 13 14  1  0  0  0  0
 13 17  1  0  0  0  0
 14 15  2  0  0  0  0
 14 16  1  0  0  0  0
 22 23  2  0  0  0  0
 22 24  1  0  0  0  0
 24 25  1  0  0  0  0
 24 38  1  0  0  0  0
 25 26  1  0  0  0  0
 25 41  1  0  0  0  0
 25 42  1  0  0  0  0
 26 27  1  0  0  0  0
 26 38  1  0  0  0  0
 27 28  2  0  0  0  0
 27 29  2  0  0  0  0
 27 30  1  0  0  0  0
 30 31  1  0  0  0  0
 30 32  1  0  0  0  0
 30 37  1  0  0  0  0
 31 32  1  0  0  0  0
 31 35  1  0  0  0  0
 31 36  1  0  0  0  0
 32 33  1  0  0  0  0
 32 34  1  0  0  0  0
 38 39  1  0  0  0  0
 38 40  1  0  0  0  0
M  END
>  <MODEL>
       1

$$$$
