output/tmp_first_model_12_60.pdb
 OpenBabel07242619253D

 62 67  0  0  1  0  0  0  0  0999 V2000
  -11.4280    2.5470  -22.0980 C   0  0  0  0  0  0  0  0  0  0  0  0
  -10.4550    3.2820  -23.0120 C   0  0  0  0  0  0  0  0  0  0  0  0
   -9.1470    2.6870  -23.2730 N   0  0  0  0  0  0  0  0  0  0  0  0
   -6.9360    2.8410  -23.5340 N   0  0  0  0  0  0  0  0  0  0  0  0
   -7.9640    3.2000  -22.8090 C   0  0  0  0  0  0  0  0  0  0  0  0
   -7.4650    2.0740  -24.5410 C   0  0  0  0  0  0  0  0  0  0  0  0
   -8.8180    1.9430  -24.3930 C   0  0  0  0  0  0  0  0  0  0  0  0
   -9.8150    1.1370  -25.1370 C   0  0  0  0  0  0  0  0  0  0  0  0
  -10.2770   -0.0100  -24.3650 N   0  0  0  0  0  0  0  0  0  0  0  0
   -9.3220   -1.0740  -24.1380 C   0  0  0  0  0  0  0  0  0  0  0  0
   -9.4820   -1.7560  -22.7580 C   0  0  2  0  0  0  0  0  0  0  0  0
   -8.9950   -0.8200  -21.6050 C   0  0  0  0  0  0  0  0  0  0  0  0
   -9.6180    0.0650  -21.0620 O   0  0  0  0  0  0  0  0  0  0  0  0
   -7.6970   -1.1610  -21.2920 N   0  0  0  0  0  0  0  0  0  0  0  0
   -6.9680   -0.6160  -20.2100 C   0  0  0  0  0  0  0  0  0  0  0  0
   -7.2300   -1.0020  -18.9200 C   0  0  0  0  0  0  0  0  0  0  0  0
   -6.4510   -0.6720  -17.8600 N   0  0  0  0  0  0  0  0  0  0  0  0
   -5.3880    0.0610  -18.0820 C   0  0  0  0  0  0  0  0  0  0  0  0
   -5.0260    0.5670  -19.3600 C   0  0  0  0  0  0  0  0  0  0  0  0
   -3.8970    1.4040  -19.5590 C   0  0  0  0  0  0  0  0  0  0  0  0
   -3.6490    1.9510  -20.7880 C   0  0  0  0  0  0  0  0  0  0  0  0
   -4.5040    1.6690  -21.8780 C   0  0  0  0  0  0  0  0  0  0  0  0
   -5.5670    0.8140  -21.7170 C   0  0  0  0  0  0  0  0  0  0  0  0
   -5.8540    0.2440  -20.4540 C   0  0  0  0  0  0  0  0  0  0  0  0
   -6.2370    0.6220  -22.5500 H   0  0  0  0  0  0  0  0  0  0  0  0
   -4.3440    2.1430  -22.8410 H   0  0  0  0  0  0  0  0  0  0  0  0
   -2.8070    2.6260  -20.9240 H   0  0  0  0  0  0  0  0  0  0  0  0
   -3.2580    1.6210  -18.7060 H   0  0  0  0  0  0  0  0  0  0  0  0
   -4.7560    0.3040  -17.2260 H   0  0  0  0  0  0  0  0  0  0  0  0
   -8.0910   -1.6310  -18.7020 H   0  0  0  0  0  0  0  0  0  0  0  0
   -7.1740   -2.2210  -22.1230 C   0  0  0  0  0  0  0  0  0  0  0  0
   -8.4520   -2.9170  -22.6250 C   0  0  2  0  0  0  0  0  0  0  0  0
   -8.1820   -3.7560  -23.8690 C   0  0  0  0  0  0  0  0  0  0  0  0
   -7.6760   -3.1520  -24.6320 H   0  0  0  0  0  0  0  0  0  0  0  0
   -9.1050   -4.1480  -24.3080 H   0  0  0  0  0  0  0  0  0  0  0  0
   -7.5220   -4.5970  -23.6330 H   0  0  0  0  0  0  0  0  0  0  0  0
   -8.7990   -3.5680  -21.8130 H   0  0  0  0  0  0  0  0  0  0  0  0
   -6.5150   -2.8810  -21.5510 H   0  0  0  0  0  0  0  0  0  0  0  0
   -6.5920   -1.8140  -22.9700 H   0  0  0  0  0  0  0  0  0  0  0  0
  -10.9520   -2.0810  -22.5690 C   0  0  0  0  0  0  0  0  0  0  0  0
  -11.4040   -3.1470  -21.7790 C   0  0  0  0  0  0  0  0  0  0  0  0
  -12.7020   -3.1280  -21.3020 C   0  0  0  0  0  0  0  0  0  0  0  0
  -13.1130   -4.0920  -20.4610 F   0  0  0  0  0  0  0  0  0  0  0  0
  -13.6050   -2.1150  -21.6090 C   0  0  0  0  0  0  0  0  0  0  0  0
  -13.2090   -1.1560  -22.5130 C   0  0  0  0  0  0  0  0  0  0  0  0
  -11.9190   -1.1760  -23.0390 C   0  0  0  0  0  0  0  0  0  0  0  0
  -11.6010   -0.1670  -24.1000 C   0  0  0  0  0  0  0  0  0  0  0  0
  -12.4760    0.5210  -24.6220 O   0  0  0  0  0  0  0  0  0  0  0  0
  -13.8840   -0.3670  -22.8310 H   0  0  0  0  0  0  0  0  0  0  0  0
  -14.5910   -2.1190  -21.1580 H   0  0  0  0  0  0  0  0  0  0  0  0
  -10.7640   -3.9790  -21.5030 H   0  0  0  0  0  0  0  0  0  0  0  0
   -8.3210   -0.6470  -24.2210 H   0  0  0  0  0  0  0  0  0  0  0  0
   -9.4350   -1.8380  -24.9190 H   0  0  0  0  0  0  0  0  0  0  0  0
  -10.6990    1.7290  -25.3910 H   0  0  0  0  0  0  0  0  0  0  0  0
   -9.3430    0.7960  -26.0650 H   0  0  0  0  0  0  0  0  0  0  0  0
   -6.8460    1.6480  -25.3210 H   0  0  0  0  0  0  0  0  0  0  0  0
   -7.9510    3.8670  -21.9550 H   0  0  0  0  0  0  0  0  0  0  0  0
  -10.9700    3.4200  -23.9700 H   0  0  0  0  0  0  0  0  0  0  0  0
  -10.2700    4.2760  -22.5940 H   0  0  0  0  0  0  0  0  0  0  0  0
  -11.0340    2.2710  -21.1180 H   0  0  0  0  0  0  0  0  0  0  0  0
  -12.2740    3.2350  -21.9700 H   0  0  0  0  0  0  0  0  0  0  0  0
  -11.7970    1.6320  -22.5600 H   0  0  0  0  0  0  0  0  0  0  0  0
  1  2  1  0  0  0  0
  1 60  1  0  0  0  0
  1 61  1  0  0  0  0
  1 62  1  0  0  0  0
  2  3  1  0  0  0  0
  2 58  1  0  0  0  0
  2 59  1  0  0  0  0
  3  4  1  0  0  0  0
  3  7  1  0  0  0  0
  4  5  2  0  0  0  0
  5  6  1  0  0  0  0
  5 57  1  0  0  0  0
  6  7  2  0  0  0  0
  6 56  1  0  0  0  0
  7  8  1  0  0  0  0
  8  9  1  0  0  0  0
  8 54  1  0  0  0  0
  8 55  1  0  0  0  0
  9 10  1  0  0  0  0
  9 47  1  0  0  0  0
 10 11  1  0  0  0  0
 10 52  1  0  0  0  0
 10 53  1  0  0  0  0
 11 12  1  1  0  0  0
 11 32  1  0  0  0  0
 11 40  1  0  0  0  0
 12 13  2  0  0  0  0
 12 14  1  0  0  0  0
 14 15  1  0  0  0  0
 14 31  1  0  0  0  0
 15 16  2  0  0  0  0
 15 24  1  0  0  0  0
 16 17  1  0  0  0  0
 16 30  1  0  0  0  0
 17 18  2  0  0  0  0
 18 19  1  0  0  0  0
 18 29  1  0  0  0  0
 19 20  2  0  0  0  0
 19 24  1  0  0  0  0
 20 21  1  0  0  0  0
 20 28  1  0  0  0  0
 21 22  2  0  0  0  0
 21 27  1  0  0  0  0
 22 23  1  0  0  0  0
 22 26  1  0  0  0  0
 23 24  2  0  0  0  0
 23 25  1  0  0  0  0
 31 32  1  0  0  0  0
 31 38  1  0  0  0  0
 31 39  1  0  0  0  0
 32 33  1  0  0  0  0
 32 37  1  1  0  0  0
 33 34  1  0  0  0  0
 33 35  1  0  0  0  0
 33 36  1  0  0  0  0
 40 41  2  0  0  0  0
 40 46  1  0  0  0  0
 41 42  1  0  0  0  0
 41 51  1  0  0  0  0
 42 43  1  0  0  0  0
 42 44  2  0  0  0  0
 44 45  1  0  0  0  0
 44 50  1  0  0  0  0
 45 46  2  0  0  0  0
 45 49  1  0  0  0  0
 46 47  1  0  0  0  0
 47 48  2  0  0  0  0
M  END
>  <MODEL>
       1

$$$$
