output/tmp_first_model_20_76.pdb
 OpenBabel07242623363D

 66 71  0  0  1  0  0  0  0  0999 V2000
   -8.0380   -3.5930  -23.9970 C   0  0  0  0  0  0  0  0  0  0  0  0
   -8.3890   -2.7640  -22.7650 C   0  0  1  0  0  0  0  0  0  0  0  0
   -7.1880   -2.5890  -21.8240 C   0  0  0  0  0  0  0  0  0  0  0  0
   -7.4530   -1.3220  -21.1800 N   0  0  0  0  0  0  0  0  0  0  0  0
   -6.6190   -0.7850  -20.1720 C   0  0  0  0  0  0  0  0  0  0  0  0
   -6.9110   -1.0370  -18.8600 C   0  0  0  0  0  0  0  0  0  0  0  0
   -6.1990   -0.5610  -17.8140 N   0  0  0  0  0  0  0  0  0  0  0  0
   -5.1630    0.1920  -18.0890 C   0  0  0  0  0  0  0  0  0  0  0  0
   -4.7450    0.5230  -19.4090 C   0  0  0  0  0  0  0  0  0  0  0  0
   -3.6220    1.3570  -19.6440 C   0  0  0  0  0  0  0  0  0  0  0  0
   -3.2300    1.6450  -20.9230 C   0  0  0  0  0  0  0  0  0  0  0  0
   -3.9350    1.1060  -22.0220 C   0  0  0  0  0  0  0  0  0  0  0  0
   -5.0330    0.3050  -21.8220 C   0  0  0  0  0  0  0  0  0  0  0  0
   -5.4770    0.0080  -20.4990 C   0  0  0  0  0  0  0  0  0  0  0  0
   -5.5730   -0.0890  -22.6810 H   0  0  0  0  0  0  0  0  0  0  0  0
   -3.6090    1.3390  -23.0320 H   0  0  0  0  0  0  0  0  0  0  0  0
   -2.3740    2.2870  -21.1000 H   0  0  0  0  0  0  0  0  0  0  0  0
   -3.0880    1.7520  -18.7860 H   0  0  0  0  0  0  0  0  0  0  0  0
   -4.5980    0.5850  -17.2450 H   0  0  0  0  0  0  0  0  0  0  0  0
   -7.7760   -1.6530  -18.6210 H   0  0  0  0  0  0  0  0  0  0  0  0
   -8.3680   -0.5300  -21.8300 C   0  0  0  0  0  0  0  0  0  0  0  0
   -8.6450    0.6070  -21.4950 O   0  0  0  0  0  0  0  0  0  0  0  0
   -8.9370   -1.3240  -23.0270 C   0  0  1  0  0  0  0  0  0  0  0  0
   -8.3760   -0.7610  -24.3640 C   0  0  0  0  0  0  0  0  0  0  0  0
   -8.9770    0.4950  -24.7650 N   0  0  0  0  0  0  0  0  0  0  0  0
   -8.1380    1.5230  -25.3610 C   0  0  0  0  0  0  0  0  0  0  0  0
   -7.5430    2.3960  -24.2780 C   0  0  0  0  0  0  0  0  0  0  0  0
   -8.5500    3.2670  -23.6090 N   0  3  0  0  0  0  0  0  0  0  0  0
   -9.1550    4.3260  -24.4950 C   0  0  0  0  0  0  0  0  0  0  0  0
   -9.5240    5.5160  -23.6410 C   0  0  0  0  0  0  0  0  0  0  0  0
   -8.3720    6.1810  -23.1580 O   0  0  0  0  0  0  0  0  0  0  0  0
   -7.3590    5.2840  -22.7170 C   0  0  0  0  0  0  0  0  0  0  0  0
   -7.9080    3.8990  -22.4040 C   0  0  0  0  0  0  0  0  0  0  0  0
   -7.1420    3.1930  -22.0830 H   0  0  0  0  0  0  0  0  0  0  0  0
   -8.6320    3.9950  -21.6010 H   0  0  0  0  0  0  0  0  0  0  0  0
   -6.9230    5.7310  -21.8200 H   0  0  0  0  0  0  0  0  0  0  0  0
   -6.5710    5.2180  -23.4780 H   0  0  0  0  0  0  0  0  0  0  0  0
  -10.1080    6.2370  -24.2070 H   0  0  0  0  0  0  0  0  0  0  0  0
  -10.1460    5.1710  -22.8050 H   0  0  0  0  0  0  0  0  0  0  0  0
  -10.0110    3.8880  -25.0050 H   0  0  0  0  0  0  0  0  0  0  0  0
   -8.4120    4.6350  -25.2300 H   0  0  0  0  0  0  0  0  0  0  0  0
   -9.3240    2.6950  -23.2420 H   0  0  0  0  0  0  0  0  0  0  0  0
   -7.1250    1.7470  -23.5030 H   0  0  0  0  0  0  0  0  0  0  0  0
   -6.7260    3.0160  -24.6600 H   0  0  0  0  0  0  0  0  0  0  0  0
   -8.7430    2.1070  -26.0550 H   0  0  0  0  0  0  0  0  0  0  0  0
   -7.3330    1.0480  -25.9280 H   0  0  0  0  0  0  0  0  0  0  0  0
  -10.3000    0.7500  -24.6100 C   0  0  0  0  0  0  0  0  0  0  0  0
  -10.8300    1.7730  -25.0440 O   0  0  0  0  0  0  0  0  0  0  0  0
  -11.0890   -0.2430  -23.8220 C   0  0  0  0  0  0  0  0  0  0  0  0
  -12.4790   -0.1250  -23.8270 C   0  0  0  0  0  0  0  0  0  0  0  0
  -13.2570   -0.9250  -23.0140 C   0  0  0  0  0  0  0  0  0  0  0  0
  -12.6130   -1.8330  -22.1710 C   0  0  0  0  0  0  0  0  0  0  0  0
  -13.5580   -2.8260  -21.0960 Cl  0  0  0  0  0  0  0  0  0  0  0  0
  -11.2370   -1.9640  -22.1620 C   0  0  0  0  0  0  0  0  0  0  0  0
  -10.4490   -1.2060  -23.0350 C   0  0  0  0  0  0  0  0  0  0  0  0
  -10.7900   -2.6460  -21.4460 H   0  0  0  0  0  0  0  0  0  0  0  0
  -14.3390   -0.8290  -23.0060 H   0  0  0  0  0  0  0  0  0  0  0  0
  -12.9280    0.6200  -24.4750 H   0  0  0  0  0  0  0  0  0  0  0  0
   -7.2920   -0.6210  -24.2650 H   0  0  0  0  0  0  0  0  0  0  0  0
   -8.5470   -1.5000  -25.1560 H   0  0  0  0  0  0  0  0  0  0  0  0
   -7.1140   -3.3960  -21.0880 H   0  0  0  0  0  0  0  0  0  0  0  0
   -6.2390   -2.5740  -22.3840 H   0  0  0  0  0  0  0  0  0  0  0  0
   -9.1550   -3.3110  -22.2100 H   0  0  0  0  0  0  0  0  0  0  0  0
   -7.7270   -4.6000  -23.6980 H   0  0  0  0  0  0  0  0  0  0  0  0
   -8.8960   -3.6820  -24.6720 H   0  0  0  0  0  0  0  0  0  0  0  0
   -7.2080   -3.1410  -24.5550 H   0  0  0  0  0  0  0  0  0  0  0  0
  1  2  1  0  0  0  0
  1 64  1  0  0  0  0
  1 65  1  0  0  0  0
  1 66  1  0  0  0  0
  2  3  1  0  0  0  0
  2 23  1  0  0  0  0
  2 63  1  1  0  0  0
  3  4  1  0  0  0  0
  3 61  1  0  0  0  0
  3 62  1  0  0  0  0
  4  5  1  0  0  0  0
  4 21  1  0  0  0  0
  5  6  2  0  0  0  0
  5 14  1  0  0  0  0
  6  7  1  0  0  0  0
  6 20  1  0  0  0  0
  7  8  2  0  0  0  0
  8  9  1  0  0  0  0
  8 19  1  0  0  0  0
  9 10  2  0  0  0  0
  9 14  1  0  0  0  0
 10 11  1  0  0  0  0
 10 18  1  0  0  0  0
 11 12  2  0  0  0  0
 11 17  1  0  0  0  0
 12 13  1  0  0  0  0
 12 16  1  0  0  0  0
 13 14  2  0  0  0  0
 13 15  1  0  0  0  0
 21 22  2  0  0  0  0
 23 21  1  1  0  0  0
 23 24  1  0  0  0  0
 23 55  1  0  0  0  0
 24 25  1  0  0  0  0
 24 59  1  0  0  0  0
 24 60  1  0  0  0  0
 25 26  1  0  0  0  0
 25 47  1  0  0  0  0
 26 27  1  0  0  0  0
 26 45  1  0  0  0  0
 26 46  1  0  0  0  0
 27 28  1  0  0  0  0
 27 43  1  0  0  0  0
 27 44  1  0  0  0  0
 28 29  1  0  0  0  0
 28 33  1  0  0  0  0
 28 42  1  0  0  0  0
 29 30  1  0  0  0  0
 29 40  1  0  0  0  0
 29 41  1  0  0  0  0
 30 31  1  0  0  0  0
 30 38  1  0  0  0  0
 30 39  1  0  0  0  0
 31 32  1  0  0  0  0
 32 33  1  0  0  0  0
 32 36  1  0  0  0  0
 32 37  1  0  0  0  0
 33 34  1  0  0  0  0
 33 35  1  0  0  0  0
 47 48  2  0  0  0  0
 47 49  1  0  0  0  0
 49 50  2  0  0  0  0
 49 55  1  0  0  0  0
 50 51  1  0  0  0  0
 50 58  1  0  0  0  0
 51 52  2  0  0  0  0
 51 57  1  0  0  0  0
 52 53  1  0  0  0  0
 52 54  1  0  0  0  0
 54 55  2  0  0  0  0
 54 56  1  0  0  0  0
M  CHG  1  28   1
M  END
>  <MODEL>
       1

$$$$
