output/tmp_first_model_3_67.pdb
 OpenBabel07242614263D

 58 63  0  0  1  0  0  0  0  0999 V2000
  -14.9230    0.2540  -22.8540 C   0  0  0  0  0  0  0  0  0  0  0  0
  -13.9240   -0.8590  -22.8310 C   0  0  0  0  0  0  0  0  0  0  0  0
  -13.5820   -1.7670  -21.7940 C   0  0  0  0  0  0  0  0  0  0  0  0
  -12.7220   -2.6310  -22.3860 C   0  0  0  0  0  0  0  0  0  0  0  0
  -12.0340   -3.9050  -21.9960 C   0  0  0  0  0  0  0  0  0  0  0  0
  -10.6440   -3.9720  -22.4250 N   0  0  0  0  0  0  0  0  0  0  0  0
   -9.6360   -3.3530  -21.5760 C   0  0  0  0  0  0  0  0  0  0  0  0
   -8.4020   -2.8160  -22.3520 C   0  0  2  0  0  0  0  0  0  0  0  0
   -7.2950   -2.5980  -21.3010 C   0  0  0  0  0  0  0  0  0  0  0  0
   -6.6510   -3.4620  -20.7370 O   0  0  0  0  0  0  0  0  0  0  0  0
   -7.1600   -1.2470  -21.0680 N   0  0  0  0  0  0  0  0  0  0  0  0
   -6.3660   -0.7270  -20.0190 C   0  0  0  0  0  0  0  0  0  0  0  0
   -6.6760   -0.9620  -18.7030 C   0  0  0  0  0  0  0  0  0  0  0  0
   -6.0320   -0.3830  -17.6550 N   0  0  0  0  0  0  0  0  0  0  0  0
   -5.0310    0.4220  -17.9240 C   0  0  0  0  0  0  0  0  0  0  0  0
   -4.5740    0.7090  -19.2420 C   0  0  0  0  0  0  0  0  0  0  0  0
   -3.4570    1.5480  -19.4870 C   0  0  0  0  0  0  0  0  0  0  0  0
   -3.0430    1.7950  -20.7670 C   0  0  0  0  0  0  0  0  0  0  0  0
   -3.7310    1.2220  -21.8600 C   0  0  0  0  0  0  0  0  0  0  0  0
   -4.8200    0.4130  -21.6480 C   0  0  0  0  0  0  0  0  0  0  0  0
   -5.2630    0.1300  -20.3280 C   0  0  0  0  0  0  0  0  0  0  0  0
   -5.3490   -0.0250  -22.4860 H   0  0  0  0  0  0  0  0  0  0  0  0
   -3.4020    1.4310  -22.8730 H   0  0  0  0  0  0  0  0  0  0  0  0
   -2.1860    2.4390  -20.9520 H   0  0  0  0  0  0  0  0  0  0  0  0
   -2.9550    1.9950  -18.6340 H   0  0  0  0  0  0  0  0  0  0  0  0
   -4.5160    0.8850  -17.0800 H   0  0  0  0  0  0  0  0  0  0  0  0
   -7.4940   -1.6300  -18.4380 H   0  0  0  0  0  0  0  0  0  0  0  0
   -8.1120   -0.4400  -21.8050 C   0  0  0  0  0  0  0  0  0  0  0  0
   -8.5510   -1.3670  -22.9440 C   0  0  2  0  0  0  0  0  0  0  0  0
   -9.9100   -0.9710  -23.4910 C   0  0  0  0  0  0  0  0  0  0  0  0
   -9.8770   -0.0040  -24.0090 H   0  0  0  0  0  0  0  0  0  0  0  0
  -10.6380   -0.8860  -22.6750 H   0  0  0  0  0  0  0  0  0  0  0  0
  -10.2770   -1.7210  -24.1900 H   0  0  0  0  0  0  0  0  0  0  0  0
   -7.8090   -1.3220  -23.7590 H   0  0  0  0  0  0  0  0  0  0  0  0
   -7.6560    0.4850  -22.1700 H   0  0  0  0  0  0  0  0  0  0  0  0
   -8.9670   -0.1550  -21.1680 H   0  0  0  0  0  0  0  0  0  0  0  0
   -7.9930   -3.8440  -23.3860 C   0  0  0  0  0  0  0  0  0  0  0  0
   -6.6900   -3.8840  -23.8900 C   0  0  0  0  0  0  0  0  0  0  0  0
   -6.3660   -4.7940  -24.8780 C   0  0  0  0  0  0  0  0  0  0  0  0
   -5.1190   -4.7920  -25.3700 F   0  0  0  0  0  0  0  0  0  0  0  0
   -7.2720   -5.7080  -25.4000 C   0  0  0  0  0  0  0  0  0  0  0  0
   -8.5470   -5.6860  -24.8870 C   0  0  0  0  0  0  0  0  0  0  0  0
   -8.8950   -4.7740  -23.8930 C   0  0  0  0  0  0  0  0  0  0  0  0
  -10.3080   -4.8100  -23.4550 C   0  0  0  0  0  0  0  0  0  0  0  0
  -11.0870   -5.5390  -24.0400 O   0  0  0  0  0  0  0  0  0  0  0  0
   -9.3160   -6.3680  -25.2310 H   0  0  0  0  0  0  0  0  0  0  0  0
   -6.9760   -6.4130  -26.1680 H   0  0  0  0  0  0  0  0  0  0  0  0
   -5.9220   -3.2290  -23.5010 H   0  0  0  0  0  0  0  0  0  0  0  0
   -9.2700   -4.0530  -20.8070 H   0  0  0  0  0  0  0  0  0  0  0  0
  -10.1280   -2.5370  -21.0430 H   0  0  0  0  0  0  0  0  0  0  0  0
  -12.5410   -4.7300  -22.5010 H   0  0  0  0  0  0  0  0  0  0  0  0
  -12.1060   -4.0510  -20.9120 H   0  0  0  0  0  0  0  0  0  0  0  0
  -12.5360   -2.2660  -23.6680 O   0  0  0  0  0  0  0  0  0  0  0  0
  -13.2910   -1.1400  -23.9410 N   0  0  0  0  0  0  0  0  0  0  0  0
  -14.0070   -1.8220  -20.8040 H   0  0  0  0  0  0  0  0  0  0  0  0
  -15.7750   -0.0860  -23.4300 H   0  0  0  0  0  0  0  0  0  0  0  0
  -14.4950    1.1410  -23.3250 H   0  0  0  0  0  0  0  0  0  0  0  0
  -15.3410    0.5220  -21.8900 H   0  0  0  0  0  0  0  0  0  0  0  0
  1  2  1  0  0  0  0
  1 56  1  0  0  0  0
  1 57  1  0  0  0  0
  1 58  1  0  0  0  0
  2  3  1  0  0  0  0
  2 54  2  0  0  0  0
  3  4  2  0  0  0  0
  3 55  1  0  0  0  0
  4  5  1  0  0  0  0
  4 53  1  0  0  0  0
  5  6  1  0  0  0  0
  5 51  1  0  0  0  0
  5 52  1  0  0  0  0
  6  7  1  0  0  0  0
  6 44  1  0  0  0  0
  7  8  1  0  0  0  0
  7 49  1  0  0  0  0
  7 50  1  0  0  0  0
  8  9  1  1  0  0  0
  8 29  1  0  0  0  0
  8 37  1  0  0  0  0
  9 10  2  0  0  0  0
  9 11  1  0  0  0  0
 11 12  1  0  0  0  0
 11 28  1  0  0  0  0
 12 13  2  0  0  0  0
 12 21  1  0  0  0  0
 13 14  1  0  0  0  0
 13 27  1  0  0  0  0
 14 15  2  0  0  0  0
 15 16  1  0  0  0  0
 15 26  1  0  0  0  0
 16 17  2  0  0  0  0
 16 21  1  0  0  0  0
 17 18  1  0  0  0  0
 17 25  1  0  0  0  0
 18 19  2  0  0  0  0
 18 24  1  0  0  0  0
 19 20  1  0  0  0  0
 19 23  1  0  0  0  0
 20 21  2  0  0  0  0
 20 22  1  0  0  0  0
 28 29  1  0  0  0  0
 28 35  1  0  0  0  0
 28 36  1  0  0  0  0
 29 30  1  0  0  0  0
 29 34  1  6  0  0  0
 30 31  1  0  0  0  0
 30 32  1  0  0  0  0
 30 33  1  0  0  0  0
 37 38  2  0  0  0  0
 37 43  1  0  0  0  0
 38 39  1  0  0  0  0
 38 48  1  0  0  0  0
 39 40  1  0  0  0  0
 39 41  2  0  0  0  0
 41 42  1  0  0  0  0
 41 47  1  0  0  0  0
 42 43  2  0  0  0  0
 42 46  1  0  0  0  0
 43 44  1  0  0  0  0
 44 45  2  0  0  0  0
 53 54  1  0  0  0  0
M  END
>  <MODEL>
       1

$$$$
