output/tmp_first_model_20_51.pdb
 OpenBabel07242623363D

 50 52  0  0  0  0  0  0  0  0999 V2000
   -9.5120   -1.1250  -26.3370 C   0  0  0  0  0  0  0  0  0  0  0  0
   -9.0800   -0.3290  -25.3650 C   0  0  0  0  0  0  0  0  0  0  0  0
   -9.6370   -0.4140  -23.9600 C   0  0  0  0  0  0  0  0  0  0  0  0
   -8.7630   -1.2090  -23.0940 N   0  0  0  0  0  0  0  0  0  0  0  0
   -8.0310   -0.5200  -22.1430 C   0  0  0  0  0  0  0  0  0  0  0  0
   -8.0140    0.7000  -22.0680 O   0  0  0  0  0  0  0  0  0  0  0  0
   -7.3280   -1.3250  -21.2820 N   0  0  0  0  0  0  0  0  0  0  0  0
   -6.5750   -0.7800  -20.2310 C   0  0  0  0  0  0  0  0  0  0  0  0
   -6.9100   -1.0390  -18.9290 C   0  0  0  0  0  0  0  0  0  0  0  0
   -6.2380   -0.5480  -17.8650 N   0  0  0  0  0  0  0  0  0  0  0  0
   -5.1930    0.2070  -18.1050 C   0  0  0  0  0  0  0  0  0  0  0  0
   -4.7330    0.5380  -19.4100 C   0  0  0  0  0  0  0  0  0  0  0  0
   -3.5860    1.3440  -19.6350 C   0  0  0  0  0  0  0  0  0  0  0  0
   -3.1630    1.6090  -20.9110 C   0  0  0  0  0  0  0  0  0  0  0  0
   -3.8640    1.0860  -22.0200 C   0  0  0  0  0  0  0  0  0  0  0  0
   -4.9800    0.3150  -21.8290 C   0  0  0  0  0  0  0  0  0  0  0  0
   -5.4440    0.0300  -20.5140 C   0  0  0  0  0  0  0  0  0  0  0  0
   -5.5370   -0.0670  -22.6770 H   0  0  0  0  0  0  0  0  0  0  0  0
   -3.5330    1.3190  -23.0300 H   0  0  0  0  0  0  0  0  0  0  0  0
   -2.2870    2.2280  -21.0750 H   0  0  0  0  0  0  0  0  0  0  0  0
   -3.0550    1.7390  -18.7750 H   0  0  0  0  0  0  0  0  0  0  0  0
   -4.6640    0.5950  -17.2370 H   0  0  0  0  0  0  0  0  0  0  0  0
   -7.7740   -1.6630  -18.7010 H   0  0  0  0  0  0  0  0  0  0  0  0
   -7.6470   -2.2760  -21.1800 H   0  0  0  0  0  0  0  0  0  0  0  0
   -8.4150   -2.5170  -23.5510 C   0  0  0  0  0  0  0  0  0  0  0  0
   -7.0870   -2.8880  -23.7910 C   0  0  0  0  0  0  0  0  0  0  0  0
   -6.8050   -4.1670  -24.2590 C   0  0  0  0  0  0  0  0  0  0  0  0
   -7.8310   -5.0500  -24.5810 C   0  0  0  0  0  0  0  0  0  0  0  0
   -9.1440   -4.6340  -24.4060 C   0  0  0  0  0  0  0  0  0  0  0  0
  -10.4480   -5.6430  -24.9610 Cl  0  0  0  0  0  0  0  0  0  0  0  0
   -9.4520   -3.3920  -23.8730 C   0  0  0  0  0  0  0  0  0  0  0  0
  -10.4890   -3.1050  -23.7200 H   0  0  0  0  0  0  0  0  0  0  0  0
   -7.6340   -6.0450  -24.9620 H   0  0  0  0  0  0  0  0  0  0  0  0
   -5.7720   -4.4850  -24.3720 H   0  0  0  0  0  0  0  0  0  0  0  0
   -6.2810   -2.1770  -23.6170 H   0  0  0  0  0  0  0  0  0  0  0  0
  -10.6150   -0.9090  -23.9970 H   0  0  0  0  0  0  0  0  0  0  0  0
   -9.7680    0.5640  -23.4850 H   0  0  0  0  0  0  0  0  0  0  0  0
   -7.8520    0.4860  -25.6770 C   0  0  0  0  0  0  0  0  0  0  0  0
   -7.1920    0.2520  -26.6820 O   0  0  0  0  0  0  0  0  0  0  0  0
   -7.5200    1.4860  -24.8210 N   0  0  0  0  0  0  0  0  0  0  0  0
   -6.2080    2.0940  -24.9710 C   0  0  0  0  0  0  0  0  0  0  0  0
   -6.0510    3.1760  -23.9180 C   0  0  0  0  0  0  0  0  0  0  0  0
   -6.7570    3.9960  -24.0990 H   0  0  0  0  0  0  0  0  0  0  0  0
   -5.0390    3.5890  -23.9190 H   0  0  0  0  0  0  0  0  0  0  0  0
   -6.2470    2.7440  -22.9250 H   0  0  0  0  0  0  0  0  0  0  0  0
   -6.1120    2.4800  -25.9900 H   0  0  0  0  0  0  0  0  0  0  0  0
   -5.4250    1.3250  -24.8630 H   0  0  0  0  0  0  0  0  0  0  0  0
   -7.9140    1.5230  -23.8880 H   0  0  0  0  0  0  0  0  0  0  0  0
   -9.0290   -1.1360  -27.3110 H   0  0  0  0  0  0  0  0  0  0  0  0
  -10.3310   -1.8220  -26.1590 H   0  0  0  0  0  0  0  0  0  0  0  0
  1  2  2  0  0  0  0
  1 49  1  0  0  0  0
  1 50  1  0  0  0  0
  2  3  1  0  0  0  0
  2 38  1  0  0  0  0
  3  4  1  0  0  0  0
  3 36  1  0  0  0  0
  3 37  1  0  0  0  0
  4  5  1  0  0  0  0
  4 25  1  0  0  0  0
  5  6  2  0  0  0  0
  5  7  1  0  0  0  0
  7  8  1  0  0  0  0
  7 24  1  0  0  0  0
  8  9  2  0  0  0  0
  8 17  1  0  0  0  0
  9 10  1  0  0  0  0
  9 23  1  0  0  0  0
 10 11  2  0  0  0  0
 11 12  1  0  0  0  0
 11 22  1  0  0  0  0
 12 13  2  0  0  0  0
 12 17  1  0  0  0  0
 13 14  1  0  0  0  0
 13 21  1  0  0  0  0
 14 15  2  0  0  0  0
 14 20  1  0  0  0  0
 15 16  1  0  0  0  0
 15 19  1  0  0  0  0
 16 17  2  0  0  0  0
 16 18  1  0  0  0  0
 25 26  2  0  0  0  0
 25 31  1  0  0  0  0
 26 27  1  0  0  0  0
 26 35  1  0  0  0  0
 27 28  2  0  0  0  0
 27 34  1  0  0  0  0
 28 29  1  0  0  0  0
 28 33  1  0  0  0  0
 29 30  1  0  0  0  0
 29 31  2  0  0  0  0
 31 32  1  0  0  0  0
 38 39  2  0  0  0  0
 38 40  1  0  0  0  0
 40 41  1  0  0  0  0
 40 48  1  0  0  0  0
 41 42  1  0  0  0  0
 41 46  1  0  0  0  0
 41 47  1  0  0  0  0
 42 43  1  0  0  0  0
 42 44  1  0  0  0  0
 42 45  1  0  0  0  0
M  END
>  <MODEL>
       1

$$$$
