output/tmp_first_model_17_23.pdb
 OpenBabel07242622053D

 68 73  0  0  1  0  0  0  0  0999 V2000
  -14.4010   -1.1740  -24.2610 C   0  0  0  0  0  0  0  0  0  0  0  0
  -13.7170   -2.3770  -23.8340 N   0  0  0  0  0  0  0  0  0  0  0  0
  -13.1610   -2.4070  -22.6010 C   0  0  0  0  0  0  0  0  0  0  0  0
  -13.1330   -1.3970  -21.9120 O   0  0  0  0  0  0  0  0  0  0  0  0
  -12.5400   -3.7330  -22.1490 C   0  0  0  0  0  0  0  0  0  0  0  0
  -11.1650   -3.8770  -22.5920 N   0  0  0  0  0  0  0  0  0  0  0  0
  -10.1020   -3.3800  -21.7220 C   0  0  0  0  0  0  0  0  0  0  0  0
   -8.8340   -2.9400  -22.4930 C   0  0  2  0  0  0  0  0  0  0  0  0
   -7.7030   -2.7540  -21.4590 C   0  0  0  0  0  0  0  0  0  0  0  0
   -7.1120   -3.6310  -20.8620 O   0  0  0  0  0  0  0  0  0  0  0  0
   -7.4570   -1.4020  -21.2980 N   0  0  0  0  0  0  0  0  0  0  0  0
   -6.6430   -0.9150  -20.2410 C   0  0  0  0  0  0  0  0  0  0  0  0
   -6.9100   -1.2220  -18.9280 C   0  0  0  0  0  0  0  0  0  0  0  0
   -6.2450   -0.6920  -17.8690 N   0  0  0  0  0  0  0  0  0  0  0  0
   -5.2650    0.1410  -18.1090 C   0  0  0  0  0  0  0  0  0  0  0  0
   -4.8420    0.5020  -19.4190 C   0  0  0  0  0  0  0  0  0  0  0  0
   -3.7400    1.3730  -19.6290 C   0  0  0  0  0  0  0  0  0  0  0  0
   -3.3350    1.6670  -20.9010 C   0  0  0  0  0  0  0  0  0  0  0  0
   -4.0070    1.1100  -22.0120 C   0  0  0  0  0  0  0  0  0  0  0  0
   -5.0820    0.2720  -21.8310 C   0  0  0  0  0  0  0  0  0  0  0  0
   -5.5380   -0.0430  -20.5230 C   0  0  0  0  0  0  0  0  0  0  0  0
   -5.5840   -0.1680  -22.6850 H   0  0  0  0  0  0  0  0  0  0  0  0
   -3.6630    1.3420  -23.0150 H   0  0  0  0  0  0  0  0  0  0  0  0
   -2.4870    2.3250  -21.0670 H   0  0  0  0  0  0  0  0  0  0  0  0
   -3.2300    1.7870  -18.7610 H   0  0  0  0  0  0  0  0  0  0  0  0
   -4.7410    0.5670  -17.2490 H   0  0  0  0  0  0  0  0  0  0  0  0
   -7.7020   -1.9220  -18.6730 H   0  0  0  0  0  0  0  0  0  0  0  0
   -8.4210   -0.5660  -22.0070 C   0  0  0  0  0  0  0  0  0  0  0  0
   -8.9340   -1.5030  -23.1090 C   0  0  2  0  0  0  0  0  0  0  0  0
  -10.3080   -1.1020  -23.6760 C   0  0  0  0  0  0  0  0  0  0  0  0
  -10.2910    0.1180  -24.4570 N   0  0  0  0  0  0  0  0  0  0  0  0
  -10.5340    1.3750  -23.9210 C   0  0  0  0  0  0  0  0  0  0  0  0
  -11.5290    1.5750  -22.9500 C   0  0  0  0  0  0  0  0  0  0  0  0
  -11.7840    2.8580  -22.4730 C   0  0  0  0  0  0  0  0  0  0  0  0
  -11.0720    3.9520  -22.9520 C   0  0  0  0  0  0  0  0  0  0  0  0
  -10.0940    3.7570  -23.9220 C   0  0  0  0  0  0  0  0  0  0  0  0
   -9.8170    2.4840  -24.3960 C   0  0  0  0  0  0  0  0  0  0  0  0
   -9.0470    2.3330  -25.1510 H   0  0  0  0  0  0  0  0  0  0  0  0
   -9.5210    4.6020  -24.2960 H   0  0  0  0  0  0  0  0  0  0  0  0
  -11.2790    4.9470  -22.5690 H   0  0  0  0  0  0  0  0  0  0  0  0
  -12.5320    3.0060  -21.6930 H   0  0  0  0  0  0  0  0  0  0  0  0
  -12.0980    0.7290  -22.5640 H   0  0  0  0  0  0  0  0  0  0  0  0
   -9.6790    0.1080  -25.2570 H   0  0  0  0  0  0  0  0  0  0  0  0
  -11.0270   -0.9820  -22.8620 H   0  0  0  0  0  0  0  0  0  0  0  0
  -10.6650   -1.9110  -24.3240 H   0  0  0  0  0  0  0  0  0  0  0  0
   -8.2150   -1.4830  -23.9420 H   0  0  0  0  0  0  0  0  0  0  0  0
   -7.9560    0.3490  -22.3870 H   0  0  0  0  0  0  0  0  0  0  0  0
   -9.2380   -0.2580  -21.3320 H   0  0  0  0  0  0  0  0  0  0  0  0
   -8.5020   -4.0030  -23.5220 C   0  0  0  0  0  0  0  0  0  0  0  0
   -7.1820   -4.1660  -23.9640 C   0  0  0  0  0  0  0  0  0  0  0  0
   -6.8810   -5.1520  -24.8900 C   0  0  0  0  0  0  0  0  0  0  0  0
   -5.2260   -5.3970  -25.3750 Cl  0  0  0  0  0  0  0  0  0  0  0  0
   -7.8820   -5.9400  -25.4620 C   0  0  0  0  0  0  0  0  0  0  0  0
   -9.1950   -5.7310  -25.0770 C   0  0  0  0  0  0  0  0  0  0  0  0
   -9.5080   -4.7870  -24.1000 C   0  0  0  0  0  0  0  0  0  0  0  0
  -10.9430   -4.5800  -23.7400 C   0  0  0  0  0  0  0  0  0  0  0  0
  -11.8630   -4.9860  -24.4520 O   0  0  0  0  0  0  0  0  0  0  0  0
  -10.0120   -6.2820  -25.5350 H   0  0  0  0  0  0  0  0  0  0  0  0
   -7.6330   -6.6900  -26.2090 H   0  0  0  0  0  0  0  0  0  0  0  0
   -6.3930   -3.5170  -23.5930 H   0  0  0  0  0  0  0  0  0  0  0  0
   -9.8120   -4.1330  -20.9790 H   0  0  0  0  0  0  0  0  0  0  0  0
  -10.5000   -2.5270  -21.1620 H   0  0  0  0  0  0  0  0  0  0  0  0
  -12.5440   -3.7730  -21.0580 H   0  0  0  0  0  0  0  0  0  0  0  0
  -13.1040   -4.5770  -22.5510 H   0  0  0  0  0  0  0  0  0  0  0  0
  -13.6090   -3.1530  -24.4630 H   0  0  0  0  0  0  0  0  0  0  0  0
  -13.7510   -0.3020  -24.1340 H   0  0  0  0  0  0  0  0  0  0  0  0
  -15.2890   -0.9780  -23.6550 H   0  0  0  0  0  0  0  0  0  0  0  0
  -14.6980   -1.2770  -25.3050 H   0  0  0  0  0  0  0  0  0  0  0  0
  1  2  1  0  0  0  0
  1 66  1  0  0  0  0
  1 67  1  0  0  0  0
  1 68  1  0  0  0  0
  2  3  1  0  0  0  0
  2 65  1  0  0  0  0
  3  4  2  0  0  0  0
  3  5  1  0  0  0  0
  5  6  1  0  0  0  0
  5 63  1  0  0  0  0
  5 64  1  0  0  0  0
  6  7  1  0  0  0  0
  6 56  1  0  0  0  0
  7  8  1  0  0  0  0
  7 61  1  0  0  0  0
  7 62  1  0  0  0  0
  8  9  1  1  0  0  0
  8 29  1  0  0  0  0
  8 49  1  0  0  0  0
  9 10  2  0  0  0  0
  9 11  1  0  0  0  0
 11 12  1  0  0  0  0
 11 28  1  0  0  0  0
 12 13  2  0  0  0  0
 12 21  1  0  0  0  0
 13 14  1  0  0  0  0
 13 27  1  0  0  0  0
 14 15  2  0  0  0  0
 15 16  1  0  0  0  0
 15 26  1  0  0  0  0
 16 17  2  0  0  0  0
 16 21  1  0  0  0  0
 17 18  1  0  0  0  0
 17 25  1  0  0  0  0
 18 19  2  0  0  0  0
 18 24  1  0  0  0  0
 19 20  1  0  0  0  0
 19 23  1  0  0  0  0
 20 21  2  0  0  0  0
 20 22  1  0  0  0  0
 28 29  1  0  0  0  0
 28 47  1  0  0  0  0
 28 48  1  0  0  0  0
 29 30  1  0  0  0  0
 29 46  1  6  0  0  0
 30 31  1  0  0  0  0
 30 44  1  0  0  0  0
 30 45  1  0  0  0  0
 31 32  1  0  0  0  0
 31 43  1  0  0  0  0
 32 33  2  0  0  0  0
 32 37  1  0  0  0  0
 33 34  1  0  0  0  0
 33 42  1  0  0  0  0
 34 35  2  0  0  0  0
 34 41  1  0  0  0  0
 35 36  1  0  0  0  0
 35 40  1  0  0  0  0
 36 37  2  0  0  0  0
 36 39  1  0  0  0  0
 37 38  1  0  0  0  0
 49 50  2  0  0  0  0
 49 55  1  0  0  0  0
 50 51  1  0  0  0  0
 50 60  1  0  0  0  0
 51 52  1  0  0  0  0
 51 53  2  0  0  0  0
 53 54  1  0  0  0  0
 53 59  1  0  0  0  0
 54 55  2  0  0  0  0
 54 58  1  0  0  0  0
 55 56  1  0  0  0  0
 56 57  2  0  0  0  0
M  END
>  <MODEL>
       1

$$$$
