output/tmp_first_model_20_81.pdb
 OpenBabel07242623363D

 36 38  0  0  0  0  0  0  0  0999 V2000
   -8.5090    0.7090  -21.4610 O   0  0  0  0  0  0  0  0  0  0  0  0
   -8.3860   -0.4020  -21.9330 C   0  0  0  0  0  0  0  0  0  0  0  0
   -7.4390   -1.4330  -21.2760 C   0  0  0  0  0  0  0  0  0  0  0  0
   -6.5820   -0.8290  -20.1850 C   0  0  0  0  0  0  0  0  0  0  0  0
   -6.8790   -1.0380  -18.8640 C   0  0  0  0  0  0  0  0  0  0  0  0
   -6.1910   -0.5330  -17.8060 N   0  0  0  0  0  0  0  0  0  0  0  0
   -5.1540    0.2200  -18.0680 C   0  0  0  0  0  0  0  0  0  0  0  0
   -4.7220    0.5350  -19.3840 C   0  0  0  0  0  0  0  0  0  0  0  0
   -3.5970    1.3650  -19.6220 C   0  0  0  0  0  0  0  0  0  0  0  0
   -3.2090    1.6580  -20.9020 C   0  0  0  0  0  0  0  0  0  0  0  0
   -3.9320    1.1290  -21.9940 C   0  0  0  0  0  0  0  0  0  0  0  0
   -5.0260    0.3210  -21.7880 C   0  0  0  0  0  0  0  0  0  0  0  0
   -5.4540    0.0010  -20.4730 C   0  0  0  0  0  0  0  0  0  0  0  0
   -5.5790   -0.0640  -22.6370 H   0  0  0  0  0  0  0  0  0  0  0  0
   -3.6240    1.3740  -23.0050 H   0  0  0  0  0  0  0  0  0  0  0  0
   -2.3540    2.3030  -21.0890 H   0  0  0  0  0  0  0  0  0  0  0  0
   -3.0540    1.7720  -18.7720 H   0  0  0  0  0  0  0  0  0  0  0  0
   -4.6020    0.6250  -17.2170 H   0  0  0  0  0  0  0  0  0  0  0  0
   -7.7280   -1.6590  -18.5830 H   0  0  0  0  0  0  0  0  0  0  0  0
   -8.0410   -2.2450  -20.8440 H   0  0  0  0  0  0  0  0  0  0  0  0
   -6.8020   -1.9000  -22.0410 H   0  0  0  0  0  0  0  0  0  0  0  0
   -9.0620   -0.7720  -23.0890 N   0  0  0  0  0  0  0  0  0  0  0  0
   -9.3680   -2.1610  -23.4050 C   0  0  0  0  0  0  0  0  0  0  0  0
  -10.4470   -2.7810  -22.5520 C   0  0  0  0  0  0  0  0  0  0  0  0
  -11.5710   -2.1760  -22.1570 C   0  0  0  0  0  0  0  0  0  0  0  0
  -12.0220   -0.7930  -22.4200 C   0  0  0  0  0  0  0  0  0  0  0  0
  -11.3810    0.2150  -23.0220 C   0  0  0  0  0  0  0  0  0  0  0  0
  -10.0070    0.1960  -23.6430 C   0  0  0  0  0  0  0  0  0  0  0  0
   -9.5580    1.1920  -23.5950 H   0  0  0  0  0  0  0  0  0  0  0  0
  -10.1140   -0.0400  -24.7080 H   0  0  0  0  0  0  0  0  0  0  0  0
  -11.8930    1.1790  -23.0810 H   0  0  0  0  0  0  0  0  0  0  0  0
  -13.0200   -0.5790  -22.0390 H   0  0  0  0  0  0  0  0  0  0  0  0
  -12.2760   -2.7640  -21.5730 H   0  0  0  0  0  0  0  0  0  0  0  0
  -10.2840   -3.8160  -22.2470 H   0  0  0  0  0  0  0  0  0  0  0  0
   -9.6850   -2.1760  -24.4540 H   0  0  0  0  0  0  0  0  0  0  0  0
   -8.4500   -2.7530  -23.3600 H   0  0  0  0  0  0  0  0  0  0  0  0
  1  2  2  0  0  0  0
  2  3  1  0  0  0  0
  2 22  1  0  0  0  0
  3  4  1  0  0  0  0
  3 20  1  0  0  0  0
  3 21  1  0  0  0  0
  4  5  2  0  0  0  0
  4 13  1  0  0  0  0
  5  6  1  0  0  0  0
  5 19  1  0  0  0  0
  6  7  2  0  0  0  0
  7  8  1  0  0  0  0
  7 18  1  0  0  0  0
  8  9  2  0  0  0  0
  8 13  1  0  0  0  0
  9 10  1  0  0  0  0
  9 17  1  0  0  0  0
 10 11  2  0  0  0  0
 10 16  1  0  0  0  0
 11 12  1  0  0  0  0
 11 15  1  0  0  0  0
 12 13  2  0  0  0  0
 12 14  1  0  0  0  0
 22 23  1  0  0  0  0
 22 28  1  0  0  0  0
 23 24  1  0  0  0  0
 23 35  1  0  0  0  0
 23 36  1  0  0  0  0
 24 25  2  0  0  0  0
 24 34  1  0  0  0  0
 25 26  1  0  0  0  0
 25 33  1  0  0  0  0
 26 27  2  0  0  0  0
 26 32  1  0  0  0  0
 27 28  1  0  0  0  0
 27 31  1  0  0  0  0
 28 29  1  0  0  0  0
 28 30  1  0  0  0  0
M  END
>  <MODEL>
       1

$$$$
