output/tmp_first_model_9_51.pdb
 OpenBabel07242617433D

 50 52  0  0  0  0  0  0  0  0999 V2000
   -9.7510   -3.8840  -25.5830 C   0  0  0  0  0  0  0  0  0  0  0  0
   -8.7850   -3.5530  -24.7340 C   0  0  0  0  0  0  0  0  0  0  0  0
   -8.7060   -2.1550  -24.1720 C   0  0  0  0  0  0  0  0  0  0  0  0
   -9.4770   -1.9510  -22.9390 N   0  0  0  0  0  0  0  0  0  0  0  0
   -8.8980   -1.3060  -21.8450 C   0  0  0  0  0  0  0  0  0  0  0  0
   -9.4920   -0.5450  -21.1080 O   0  0  0  0  0  0  0  0  0  0  0  0
   -7.5680   -1.6310  -21.6530 N   0  0  0  0  0  0  0  0  0  0  0  0
   -6.9040   -1.0690  -20.5410 C   0  0  0  0  0  0  0  0  0  0  0  0
   -7.3490   -1.2800  -19.2650 C   0  0  0  0  0  0  0  0  0  0  0  0
   -6.7380   -0.8010  -18.1580 N   0  0  0  0  0  0  0  0  0  0  0  0
   -5.6720   -0.0560  -18.3220 C   0  0  0  0  0  0  0  0  0  0  0  0
   -5.1320    0.2830  -19.5910 C   0  0  0  0  0  0  0  0  0  0  0  0
   -4.0010    1.1300  -19.7360 C   0  0  0  0  0  0  0  0  0  0  0  0
   -3.5270    1.4370  -20.9820 C   0  0  0  0  0  0  0  0  0  0  0  0
   -4.1710    0.9410  -22.1390 C   0  0  0  0  0  0  0  0  0  0  0  0
   -5.2800    0.1390  -22.0200 C   0  0  0  0  0  0  0  0  0  0  0  0
   -5.7670   -0.2300  -20.7420 C   0  0  0  0  0  0  0  0  0  0  0  0
   -5.8110   -0.2120  -22.8980 H   0  0  0  0  0  0  0  0  0  0  0  0
   -3.7880    1.1970  -23.1250 H   0  0  0  0  0  0  0  0  0  0  0  0
   -2.6510    2.0700  -21.0980 H   0  0  0  0  0  0  0  0  0  0  0  0
   -3.5390    1.5390  -18.8410 H   0  0  0  0  0  0  0  0  0  0  0  0
   -5.1820    0.3140  -17.4220 H   0  0  0  0  0  0  0  0  0  0  0  0
   -8.2550   -1.8560  -19.0950 H   0  0  0  0  0  0  0  0  0  0  0  0
   -7.1970   -2.4900  -22.0680 H   0  0  0  0  0  0  0  0  0  0  0  0
  -10.8930   -2.1320  -22.8930 C   0  0  0  0  0  0  0  0  0  0  0  0
  -11.7800   -1.5610  -23.8070 C   0  0  0  0  0  0  0  0  0  0  0  0
  -13.1550   -1.7640  -23.6530 C   0  0  0  0  0  0  0  0  0  0  0  0
  -13.6610   -2.5310  -22.6090 C   0  0  0  0  0  0  0  0  0  0  0  0
  -12.7630   -3.0890  -21.7060 C   0  0  0  0  0  0  0  0  0  0  0  0
  -13.3940   -4.0090  -20.3720 Cl  0  0  0  0  0  0  0  0  0  0  0  0
  -11.3970   -2.8940  -21.8410 C   0  0  0  0  0  0  0  0  0  0  0  0
  -10.6820   -3.3530  -21.1660 H   0  0  0  0  0  0  0  0  0  0  0  0
  -14.7260   -2.7360  -22.5110 H   0  0  0  0  0  0  0  0  0  0  0  0
  -13.8450   -1.3170  -24.3620 H   0  0  0  0  0  0  0  0  0  0  0  0
  -11.4080   -0.9520  -24.6280 H   0  0  0  0  0  0  0  0  0  0  0  0
   -7.6670   -1.9210  -23.9470 H   0  0  0  0  0  0  0  0  0  0  0  0
   -9.0270   -1.4380  -24.9390 H   0  0  0  0  0  0  0  0  0  0  0  0
   -7.7230   -4.4880  -24.2260 C   0  0  0  0  0  0  0  0  0  0  0  0
   -7.0070   -4.1810  -23.2730 O   0  0  0  0  0  0  0  0  0  0  0  0
   -7.5660   -5.6620  -24.8900 N   0  0  0  0  0  0  0  0  0  0  0  0
   -6.8560   -6.7660  -24.2780 C   0  0  0  0  0  0  0  0  0  0  0  0
   -7.7700   -7.6070  -23.3930 C   0  0  0  0  0  0  0  0  0  0  0  0
   -8.1310   -7.0010  -22.5580 H   0  0  0  0  0  0  0  0  0  0  0  0
   -7.2470   -8.4760  -22.9860 H   0  0  0  0  0  0  0  0  0  0  0  0
   -8.6430   -7.9550  -23.9590 H   0  0  0  0  0  0  0  0  0  0  0  0
   -6.0470   -6.3300  -23.6940 H   0  0  0  0  0  0  0  0  0  0  0  0
   -6.4100   -7.3640  -25.0780 H   0  0  0  0  0  0  0  0  0  0  0  0
   -8.2240   -5.8790  -25.6180 H   0  0  0  0  0  0  0  0  0  0  0  0
   -9.9190   -4.8830  -25.9740 H   0  0  0  0  0  0  0  0  0  0  0  0
  -10.4750   -3.1380  -25.9090 H   0  0  0  0  0  0  0  0  0  0  0  0
  1  2  2  0  0  0  0
  1 49  1  0  0  0  0
  1 50  1  0  0  0  0
  2  3  1  0  0  0  0
  2 38  1  0  0  0  0
  3  4  1  0  0  0  0
  3 36  1  0  0  0  0
  3 37  1  0  0  0  0
  4  5  1  0  0  0  0
  4 25  1  0  0  0  0
  5  6  2  0  0  0  0
  5  7  1  0  0  0  0
  7  8  1  0  0  0  0
  7 24  1  0  0  0  0
  8  9  2  0  0  0  0
  8 17  1  0  0  0  0
  9 10  1  0  0  0  0
  9 23  1  0  0  0  0
 10 11  2  0  0  0  0
 11 12  1  0  0  0  0
 11 22  1  0  0  0  0
 12 13  2  0  0  0  0
 12 17  1  0  0  0  0
 13 14  1  0  0  0  0
 13 21  1  0  0  0  0
 14 15  2  0  0  0  0
 14 20  1  0  0  0  0
 15 16  1  0  0  0  0
 15 19  1  0  0  0  0
 16 17  2  0  0  0  0
 16 18  1  0  0  0  0
 25 26  2  0  0  0  0
 25 31  1  0  0  0  0
 26 27  1  0  0  0  0
 26 35  1  0  0  0  0
 27 28  2  0  0  0  0
 27 34  1  0  0  0  0
 28 29  1  0  0  0  0
 28 33  1  0  0  0  0
 29 30  1  0  0  0  0
 29 31  2  0  0  0  0
 31 32  1  0  0  0  0
 38 39  2  0  0  0  0
 38 40  1  0  0  0  0
 40 41  1  0  0  0  0
 40 48  1  0  0  0  0
 41 42  1  0  0  0  0
 41 46  1  0  0  0  0
 41 47  1  0  0  0  0
 42 43  1  0  0  0  0
 42 44  1  0  0  0  0
 42 45  1  0  0  0  0
M  END
>  <MODEL>
       1

$$$$
