output/tmp_first_model_6_71.pdb
 OpenBabel07242616043D

 50 54  0  0  1  0  0  0  0  0999 V2000
  -10.5100   -2.5320  -22.6390 C   0  0  0  0  0  0  0  0  0  0  0  0
   -9.0970   -1.9670  -22.6550 C   0  0  1  0  0  0  0  0  0  0  0  0
   -8.7510   -1.3790  -21.2830 C   0  0  0  0  0  0  0  0  0  0  0  0
   -7.3040   -1.4180  -21.2610 N   0  0  0  0  0  0  0  0  0  0  0  0
   -6.5650   -0.8370  -20.2120 C   0  0  0  0  0  0  0  0  0  0  0  0
   -6.9200   -1.0660  -18.9090 C   0  0  0  0  0  0  0  0  0  0  0  0
   -6.2550   -0.5750  -17.8380 N   0  0  0  0  0  0  0  0  0  0  0  0
   -5.2140    0.1900  -18.0680 C   0  0  0  0  0  0  0  0  0  0  0  0
   -4.7670    0.5420  -19.3730 C   0  0  0  0  0  0  0  0  0  0  0  0
   -3.6430    1.3870  -19.5810 C   0  0  0  0  0  0  0  0  0  0  0  0
   -3.2830    1.7580  -20.8460 C   0  0  0  0  0  0  0  0  0  0  0  0
   -4.0270    1.3100  -21.9630 C   0  0  0  0  0  0  0  0  0  0  0  0
   -5.0980    0.4670  -21.7920 C   0  0  0  0  0  0  0  0  0  0  0  0
   -5.4730    0.0400  -20.4880 C   0  0  0  0  0  0  0  0  0  0  0  0
   -5.6490    0.0890  -22.6500 H   0  0  0  0  0  0  0  0  0  0  0  0
   -3.7350    1.6110  -22.9650 H   0  0  0  0  0  0  0  0  0  0  0  0
   -2.4290    2.4130  -21.0080 H   0  0  0  0  0  0  0  0  0  0  0  0
   -3.0960    1.7450  -18.7110 H   0  0  0  0  0  0  0  0  0  0  0  0
   -4.6750    0.5860  -17.2040 H   0  0  0  0  0  0  0  0  0  0  0  0
   -7.7660   -1.7100  -18.6720 H   0  0  0  0  0  0  0  0  0  0  0  0
   -6.7850   -2.3650  -22.1270 C   0  0  0  0  0  0  0  0  0  0  0  0
   -5.6250   -2.7250  -22.1570 O   0  0  0  0  0  0  0  0  0  0  0  0
   -7.9170   -2.9500  -22.9870 C   0  0  1  0  0  0  0  0  0  0  0  0
   -8.1390   -4.3860  -22.4360 C   0  0  0  0  0  0  0  0  0  0  0  0
   -8.9460   -5.2160  -23.2970 N   0  0  0  0  0  0  0  0  0  0  0  0
   -9.7550   -6.2670  -22.7300 C   0  0  0  0  0  0  0  0  0  0  0  0
   -9.3140   -7.6020  -23.1700 C   0  0  0  0  0  0  0  0  0  0  0  0
   -8.9950   -8.6490  -23.5400 N   0  0  0  0  0  0  0  0  0  0  0  0
   -9.6700   -6.1860  -21.6450 H   0  0  0  0  0  0  0  0  0  0  0  0
  -10.7990   -6.1260  -23.0290 H   0  0  0  0  0  0  0  0  0  0  0  0
   -8.9120   -5.1450  -24.6530 C   0  0  0  0  0  0  0  0  0  0  0  0
   -9.5940   -5.8960  -25.3430 O   0  0  0  0  0  0  0  0  0  0  0  0
   -8.0210   -4.1070  -25.2390 C   0  0  0  0  0  0  0  0  0  0  0  0
   -7.7430   -4.2200  -26.6000 C   0  0  0  0  0  0  0  0  0  0  0  0
   -6.9780   -3.2700  -27.2380 C   0  0  0  0  0  0  0  0  0  0  0  0
   -6.5110   -2.2050  -26.4780 C   0  0  0  0  0  0  0  0  0  0  0  0
   -5.7770   -1.2680  -27.0980 F   0  0  0  0  0  0  0  0  0  0  0  0
   -6.7590   -2.0690  -25.1230 C   0  0  0  0  0  0  0  0  0  0  0  0
   -7.5450   -3.0360  -24.4670 C   0  0  0  0  0  0  0  0  0  0  0  0
   -6.3110   -1.2190  -24.6110 H   0  0  0  0  0  0  0  0  0  0  0  0
   -6.7660   -3.3410  -28.2990 H   0  0  0  0  0  0  0  0  0  0  0  0
   -8.1420   -5.0730  -27.1410 H   0  0  0  0  0  0  0  0  0  0  0  0
   -7.1570   -4.8370  -22.2450 H   0  0  0  0  0  0  0  0  0  0  0  0
   -8.6500   -4.3240  -21.4720 H   0  0  0  0  0  0  0  0  0  0  0  0
   -9.1900   -1.9860  -20.4780 H   0  0  0  0  0  0  0  0  0  0  0  0
   -9.1270   -0.3600  -21.1510 H   0  0  0  0  0  0  0  0  0  0  0  0
   -9.0230   -1.1570  -23.3920 H   0  0  0  0  0  0  0  0  0  0  0  0
  -10.6230   -3.2460  -21.8160 H   0  0  0  0  0  0  0  0  0  0  0  0
  -11.2460   -1.7370  -22.4770 H   0  0  0  0  0  0  0  0  0  0  0  0
  -10.7590   -3.0550  -23.5630 H   0  0  0  0  0  0  0  0  0  0  0  0
  1  2  1  0  0  0  0
  1 48  1  0  0  0  0
  1 49  1  0  0  0  0
  1 50  1  0  0  0  0
  2  3  1  0  0  0  0
  2 23  1  0  0  0  0
  2 47  1  6  0  0  0
  3  4  1  0  0  0  0
  3 45  1  0  0  0  0
  3 46  1  0  0  0  0
  4  5  1  0  0  0  0
  4 21  1  0  0  0  0
  5  6  2  0  0  0  0
  5 14  1  0  0  0  0
  6  7  1  0  0  0  0
  6 20  1  0  0  0  0
  7  8  2  0  0  0  0
  8  9  1  0  0  0  0
  8 19  1  0  0  0  0
  9 10  2  0  0  0  0
  9 14  1  0  0  0  0
 10 11  1  0  0  0  0
 10 18  1  0  0  0  0
 11 12  2  0  0  0  0
 11 17  1  0  0  0  0
 12 13  1  0  0  0  0
 12 16  1  0  0  0  0
 13 14  2  0  0  0  0
 13 15  1  0  0  0  0
 21 22  2  0  0  0  0
 23 21  1  1  0  0  0
 23 24  1  0  0  0  0
 23 39  1  0  0  0  0
 24 25  1  0  0  0  0
 24 43  1  0  0  0  0
 24 44  1  0  0  0  0
 25 26  1  0  0  0  0
 25 31  1  0  0  0  0
 26 27  1  0  0  0  0
 26 29  1  0  0  0  0
 26 30  1  0  0  0  0
 27 28  3  0  0  0  0
 31 32  2  0  0  0  0
 31 33  1  0  0  0  0
 33 34  2  0  0  0  0
 33 39  1  0  0  0  0
 34 35  1  0  0  0  0
 34 42  1  0  0  0  0
 35 36  2  0  0  0  0
 35 41  1  0  0  0  0
 36 37  1  0  0  0  0
 36 38  1  0  0  0  0
 38 39  2  0  0  0  0
 38 40  1  0  0  0  0
M  END
>  <MODEL>
       1

$$$$
