output/tmp_first_model_16_92.pdb
 OpenBabel07242621343D

 60 65  0  0  1  0  0  0  0  0999 V2000
   -7.1820   -5.6250  -24.9070 C   0  0  0  0  0  0  0  0  0  0  0  0
   -7.4390   -4.9220  -23.7170 O   0  0  0  0  0  0  0  0  0  0  0  0
   -8.2010   -3.7670  -23.9670 C   0  0  0  0  0  0  0  0  0  0  0  0
   -8.3990   -3.0110  -22.6640 C   0  0  1  0  0  0  0  0  0  0  0  0
   -7.0570   -2.5100  -22.0910 C   0  0  0  0  0  0  0  0  0  0  0  0
   -7.4400   -1.3380  -21.3310 N   0  0  0  0  0  0  0  0  0  0  0  0
   -6.6360   -0.8940  -20.2530 C   0  0  0  0  0  0  0  0  0  0  0  0
   -6.9520   -1.2120  -18.9550 C   0  0  0  0  0  0  0  0  0  0  0  0
   -6.1860   -0.8810  -17.8880 N   0  0  0  0  0  0  0  0  0  0  0  0
   -5.1010   -0.1770  -18.1060 C   0  0  0  0  0  0  0  0  0  0  0  0
   -4.6760    0.2490  -19.3970 C   0  0  0  0  0  0  0  0  0  0  0  0
   -3.5810    1.1360  -19.5940 C   0  0  0  0  0  0  0  0  0  0  0  0
   -3.2250    1.5230  -20.8570 C   0  0  0  0  0  0  0  0  0  0  0  0
   -3.8680    0.9600  -21.9820 C   0  0  0  0  0  0  0  0  0  0  0  0
   -4.9110    0.0810  -21.8130 C   0  0  0  0  0  0  0  0  0  0  0  0
   -5.4100   -0.2070  -20.5140 C   0  0  0  0  0  0  0  0  0  0  0  0
   -5.3770   -0.3680  -22.6840 H   0  0  0  0  0  0  0  0  0  0  0  0
   -3.5590    1.2620  -22.9810 H   0  0  0  0  0  0  0  0  0  0  0  0
   -2.4630    2.2800  -21.0100 H   0  0  0  0  0  0  0  0  0  0  0  0
   -3.0650    1.5270  -18.7230 H   0  0  0  0  0  0  0  0  0  0  0  0
   -4.4970    0.0800  -17.2360 H   0  0  0  0  0  0  0  0  0  0  0  0
   -7.8510   -1.7840  -18.7340 H   0  0  0  0  0  0  0  0  0  0  0  0
   -8.7330   -0.9070  -21.5680 C   0  0  0  0  0  0  0  0  0  0  0  0
   -9.2970   -0.0310  -20.9520 O   0  0  0  0  0  0  0  0  0  0  0  0
   -9.2980   -1.7440  -22.7570 C   0  0  1  0  0  0  0  0  0  0  0  0
   -9.0560   -1.0080  -24.1120 C   0  0  0  0  0  0  0  0  0  0  0  0
   -9.8730    0.1820  -24.2660 N   0  0  0  0  0  0  0  0  0  0  0  0
   -9.3120    1.4040  -24.8360 C   0  0  0  0  0  0  0  0  0  0  0  0
   -8.3480    2.1100  -23.9180 C   0  0  0  0  0  0  0  0  0  0  0  0
   -8.6280    3.0650  -22.9100 C   0  0  0  0  0  0  0  0  0  0  0  0
   -7.5280    3.4470  -22.2590 N   0  0  0  0  0  0  0  0  0  0  0  0
   -6.5530    2.7420  -22.8380 N   0  0  0  0  0  0  0  0  0  0  0  0
   -6.9840    1.9230  -23.8280 C   0  0  0  0  0  0  0  0  0  0  0  0
   -6.3140    1.2750  -24.3780 H   0  0  0  0  0  0  0  0  0  0  0  0
   -5.6180    2.8000  -22.4530 H   0  0  0  0  0  0  0  0  0  0  0  0
   -9.5960    3.4780  -22.6440 H   0  0  0  0  0  0  0  0  0  0  0  0
   -8.8350    1.1940  -25.8040 H   0  0  0  0  0  0  0  0  0  0  0  0
  -10.1750    2.0410  -25.0490 H   0  0  0  0  0  0  0  0  0  0  0  0
  -11.2010    0.1850  -23.9620 C   0  0  0  0  0  0  0  0  0  0  0  0
  -11.9580    1.0770  -24.3200 O   0  0  0  0  0  0  0  0  0  0  0  0
  -11.6710   -0.9750  -23.1570 C   0  0  0  0  0  0  0  0  0  0  0  0
  -13.0400   -0.9950  -22.9160 C   0  0  0  0  0  0  0  0  0  0  0  0
  -13.5820   -1.9290  -22.0720 C   0  0  0  0  0  0  0  0  0  0  0  0
  -12.7240   -2.8660  -21.5050 C   0  0  0  0  0  0  0  0  0  0  0  0
  -13.4260   -3.8900  -20.3020 Cl  0  0  0  0  0  0  0  0  0  0  0  0
  -11.3700   -2.9300  -21.8070 C   0  0  0  0  0  0  0  0  0  0  0  0
  -10.7990   -1.9360  -22.6180 C   0  0  0  0  0  0  0  0  0  0  0  0
  -10.7800   -3.7470  -21.3980 H   0  0  0  0  0  0  0  0  0  0  0  0
  -14.6360   -1.9380  -21.8140 H   0  0  0  0  0  0  0  0  0  0  0  0
  -13.6380   -0.2160  -23.3710 H   0  0  0  0  0  0  0  0  0  0  0  0
   -9.2730   -1.7040  -24.9360 H   0  0  0  0  0  0  0  0  0  0  0  0
   -8.0100   -0.6960  -24.1810 H   0  0  0  0  0  0  0  0  0  0  0  0
   -6.3400   -2.2610  -22.8900 H   0  0  0  0  0  0  0  0  0  0  0  0
   -6.5650   -3.2320  -21.4310 H   0  0  0  0  0  0  0  0  0  0  0  0
   -8.8270   -3.7030  -21.9340 H   0  0  0  0  0  0  0  0  0  0  0  0
   -9.1750   -4.0340  -24.4150 H   0  0  0  0  0  0  0  0  0  0  0  0
   -7.6700   -3.1230  -24.6930 H   0  0  0  0  0  0  0  0  0  0  0  0
   -6.5680   -5.0320  -25.6080 H   0  0  0  0  0  0  0  0  0  0  0  0
   -8.1160   -5.9070  -25.4230 H   0  0  0  0  0  0  0  0  0  0  0  0
   -6.6350   -6.5340  -24.6440 H   0  0  0  0  0  0  0  0  0  0  0  0
  1  2  1  0  0  0  0
  1 58  1  0  0  0  0
  1 59  1  0  0  0  0
  1 60  1  0  0  0  0
  2  3  1  0  0  0  0
  3  4  1  0  0  0  0
  3 56  1  0  0  0  0
  3 57  1  0  0  0  0
  4  5  1  0  0  0  0
  4 25  1  0  0  0  0
  4 55  1  1  0  0  0
  5  6  1  0  0  0  0
  5 53  1  0  0  0  0
  5 54  1  0  0  0  0
  6  7  1  0  0  0  0
  6 23  1  0  0  0  0
  7  8  2  0  0  0  0
  7 16  1  0  0  0  0
  8  9  1  0  0  0  0
  8 22  1  0  0  0  0
  9 10  2  0  0  0  0
 10 11  1  0  0  0  0
 10 21  1  0  0  0  0
 11 12  2  0  0  0  0
 11 16  1  0  0  0  0
 12 13  1  0  0  0  0
 12 20  1  0  0  0  0
 13 14  2  0  0  0  0
 13 19  1  0  0  0  0
 14 15  1  0  0  0  0
 14 18  1  0  0  0  0
 15 16  2  0  0  0  0
 15 17  1  0  0  0  0
 23 24  2  0  0  0  0
 25 23  1  1  0  0  0
 25 26  1  0  0  0  0
 25 47  1  0  0  0  0
 26 27  1  0  0  0  0
 26 51  1  0  0  0  0
 26 52  1  0  0  0  0
 27 28  1  0  0  0  0
 27 39  1  0  0  0  0
 28 29  1  0  0  0  0
 28 37  1  0  0  0  0
 28 38  1  0  0  0  0
 29 30  1  0  0  0  0
 29 33  2  0  0  0  0
 30 31  2  0  0  0  0
 30 36  1  0  0  0  0
 31 32  1  0  0  0  0
 32 33  1  0  0  0  0
 32 35  1  0  0  0  0
 33 34  1  0  0  0  0
 39 40  2  0  0  0  0
 39 41  1  0  0  0  0
 41 42  2  0  0  0  0
 41 47  1  0  0  0  0
 42 43  1  0  0  0  0
 42 50  1  0  0  0  0
 43 44  2  0  0  0  0
 43 49  1  0  0  0  0
 44 45  1  0  0  0  0
 44 46  1  0  0  0  0
 46 47  2  0  0  0  0
 46 48  1  0  0  0  0
M  END
>  <MODEL>
       1

$$$$
