output/tmp_first_model_1_85.pdb
 OpenBabel07242613193D

 57 62  0  0  1  0  0  0  0  0999 V2000
   -9.1080   -8.7420  -23.6010 C   0  0  0  0  0  0  0  0  0  0  0  0
   -8.3960   -7.5590  -23.1940 N   0  0  0  0  0  0  0  0  0  0  0  0
   -7.2080   -7.2450  -23.7820 C   0  0  0  0  0  0  0  0  0  0  0  0
   -6.7940   -7.7770  -24.7900 O   0  0  0  0  0  0  0  0  0  0  0  0
   -6.4210   -6.1080  -23.1620 C   0  0  0  0  0  0  0  0  0  0  0  0
   -6.8140   -4.8560  -23.7680 N   0  0  0  0  0  0  0  0  0  0  0  0
   -8.0350   -4.2480  -23.2920 C   0  0  0  0  0  0  0  0  0  0  0  0
   -7.8630   -2.7290  -23.1640 C   0  0  2  0  0  0  0  0  0  0  0  0
   -6.8120   -2.4160  -22.0660 C   0  0  0  0  0  0  0  0  0  0  0  0
   -5.6990   -2.8870  -21.9500 O   0  0  0  0  0  0  0  0  0  0  0  0
   -7.3340   -1.4620  -21.2210 N   0  0  0  0  0  0  0  0  0  0  0  0
   -6.5640   -0.8600  -20.1920 C   0  0  0  0  0  0  0  0  0  0  0  0
   -6.8930   -1.0570  -18.8750 C   0  0  0  0  0  0  0  0  0  0  0  0
   -6.2060   -0.5480  -17.8240 N   0  0  0  0  0  0  0  0  0  0  0  0
   -5.1700    0.2120  -18.0830 C   0  0  0  0  0  0  0  0  0  0  0  0
   -4.7310    0.5280  -19.4000 C   0  0  0  0  0  0  0  0  0  0  0  0
   -3.6050    1.3640  -19.6330 C   0  0  0  0  0  0  0  0  0  0  0  0
   -3.2210    1.6650  -20.9100 C   0  0  0  0  0  0  0  0  0  0  0  0
   -3.9500    1.1530  -22.0090 C   0  0  0  0  0  0  0  0  0  0  0  0
   -5.0430    0.3470  -21.8130 C   0  0  0  0  0  0  0  0  0  0  0  0
   -5.4510   -0.0070  -20.4950 C   0  0  0  0  0  0  0  0  0  0  0  0
   -5.5990   -0.0360  -22.6690 H   0  0  0  0  0  0  0  0  0  0  0  0
   -3.6390    1.3990  -23.0190 H   0  0  0  0  0  0  0  0  0  0  0  0
   -2.3650    2.3090  -21.0940 H   0  0  0  0  0  0  0  0  0  0  0  0
   -3.0690    1.7670  -18.7760 H   0  0  0  0  0  0  0  0  0  0  0  0
   -4.6240    0.6150  -17.2280 H   0  0  0  0  0  0  0  0  0  0  0  0
   -7.7440   -1.6800  -18.6070 H   0  0  0  0  0  0  0  0  0  0  0  0
   -8.7110   -1.1200  -21.5010 C   0  0  0  0  0  0  0  0  0  0  0  0
   -9.1230   -2.0100  -22.6640 C   0  0  0  0  0  0  0  0  0  0  0  0
  -10.4940   -2.6470  -22.5940 C   0  0  0  0  0  0  0  0  0  0  0  0
  -10.2120   -1.5630  -23.6030 C   0  0  0  0  0  0  0  0  0  0  0  0
  -10.1280   -1.8540  -24.6470 H   0  0  0  0  0  0  0  0  0  0  0  0
  -10.6390   -0.5670  -23.4890 H   0  0  0  0  0  0  0  0  0  0  0  0
  -10.6250   -3.6700  -22.9360 H   0  0  0  0  0  0  0  0  0  0  0  0
  -11.1270   -2.4270  -21.7340 H   0  0  0  0  0  0  0  0  0  0  0  0
   -9.3360   -1.3320  -20.6420 H   0  0  0  0  0  0  0  0  0  0  0  0
   -8.8190   -0.0580  -21.7430 H   0  0  0  0  0  0  0  0  0  0  0  0
   -7.3260   -2.2240  -24.4960 C   0  0  0  0  0  0  0  0  0  0  0  0
   -7.4450   -0.8710  -24.8300 C   0  0  0  0  0  0  0  0  0  0  0  0
   -6.9090   -0.3990  -26.0130 C   0  0  0  0  0  0  0  0  0  0  0  0
   -7.0840    1.2810  -26.4240 Cl  0  0  0  0  0  0  0  0  0  0  0  0
   -6.2220   -1.2350  -26.8880 C   0  0  0  0  0  0  0  0  0  0  0  0
   -6.0590   -2.5590  -26.5380 C   0  0  0  0  0  0  0  0  0  0  0  0
   -6.5850   -3.0530  -25.3460 C   0  0  0  0  0  0  0  0  0  0  0  0
   -6.2440   -4.4580  -24.9480 C   0  0  0  0  0  0  0  0  0  0  0  0
   -5.4770   -5.1580  -25.5910 O   0  0  0  0  0  0  0  0  0  0  0  0
   -5.4970   -3.2330  -27.1690 H   0  0  0  0  0  0  0  0  0  0  0  0
   -5.8130   -0.8300  -27.8080 H   0  0  0  0  0  0  0  0  0  0  0  0
   -7.9610   -0.1770  -24.1750 H   0  0  0  0  0  0  0  0  0  0  0  0
   -8.2480   -4.6560  -22.3080 H   0  0  0  0  0  0  0  0  0  0  0  0
   -8.8850   -4.4750  -23.9530 H   0  0  0  0  0  0  0  0  0  0  0  0
   -5.3780   -6.2950  -23.4130 H   0  0  0  0  0  0  0  0  0  0  0  0
   -6.5380   -6.0380  -22.0700 H   0  0  0  0  0  0  0  0  0  0  0  0
   -8.6360   -7.1420  -22.3140 H   0  0  0  0  0  0  0  0  0  0  0  0
  -10.0480   -8.8180  -23.0700 H   0  0  0  0  0  0  0  0  0  0  0  0
   -9.3030   -8.7550  -24.6780 H   0  0  0  0  0  0  0  0  0  0  0  0
   -8.5230   -9.6100  -23.3220 H   0  0  0  0  0  0  0  0  0  0  0  0
  1  2  1  0  0  0  0
  1 55  1  0  0  0  0
  1 56  1  0  0  0  0
  1 57  1  0  0  0  0
  2  3  1  0  0  0  0
  2 54  1  0  0  0  0
  3  4  2  0  0  0  0
  3  5  1  0  0  0  0
  5  6  1  0  0  0  0
  5 52  1  0  0  0  0
  5 53  1  0  0  0  0
  6  7  1  0  0  0  0
  6 45  1  0  0  0  0
  7  8  1  0  0  0  0
  7 50  1  0  0  0  0
  7 51  1  0  0  0  0
  8  9  1  1  0  0  0
  8 29  1  0  0  0  0
  8 38  1  0  0  0  0
  9 10  2  0  0  0  0
  9 11  1  0  0  0  0
 11 12  1  0  0  0  0
 11 28  1  0  0  0  0
 12 13  2  0  0  0  0
 12 21  1  0  0  0  0
 13 14  1  0  0  0  0
 13 27  1  0  0  0  0
 14 15  2  0  0  0  0
 15 16  1  0  0  0  0
 15 26  1  0  0  0  0
 16 17  2  0  0  0  0
 16 21  1  0  0  0  0
 17 18  1  0  0  0  0
 17 25  1  0  0  0  0
 18 19  2  0  0  0  0
 18 24  1  0  0  0  0
 19 20  1  0  0  0  0
 19 23  1  0  0  0  0
 20 21  2  0  0  0  0
 20 22  1  0  0  0  0
 28 29  1  0  0  0  0
 28 36  1  0  0  0  0
 28 37  1  0  0  0  0
 29 30  1  0  0  0  0
 29 31  1  0  0  0  0
 30 31  1  0  0  0  0
 30 34  1  0  0  0  0
 30 35  1  0  0  0  0
 31 32  1  0  0  0  0
 31 33  1  0  0  0  0
 38 39  2  0  0  0  0
 38 44  1  0  0  0  0
 39 40  1  0  0  0  0
 39 49  1  0  0  0  0
 40 41  1  0  0  0  0
 40 42  2  0  0  0  0
 42 43  1  0  0  0  0
 42 48  1  0  0  0  0
 43 44  2  0  0  0  0
 43 47  1  0  0  0  0
 44 45  1  0  0  0  0
 45 46  2  0  0  0  0
M  END
>  <MODEL>
       1

$$$$
