output/tmp_first_model_20_3.pdb
 OpenBabel07242623363D

 66 70  0  0  1  0  0  0  0  0999 V2000
   -7.7400    2.8790  -22.3080 C   0  0  0  0  0  0  0  0  0  0  0  0
   -8.6720    2.3780  -23.2880 N   0  0  0  0  0  0  0  0  0  0  0  0
   -8.2180    1.8470  -24.4460 C   0  0  0  0  0  0  0  0  0  0  0  0
   -7.0410    1.8220  -24.7800 O   0  0  0  0  0  0  0  0  0  0  0  0
   -9.3230    1.1750  -25.2570 C   0  0  0  0  0  0  0  0  0  0  0  0
   -9.8560    0.0550  -24.4960 N   0  0  0  0  0  0  0  0  0  0  0  0
   -8.9160   -1.0040  -24.1710 C   0  0  0  0  0  0  0  0  0  0  0  0
   -9.2090   -1.7370  -22.8260 C   0  0  2  0  0  0  0  0  0  0  0  0
   -8.6910   -0.8740  -21.6380 C   0  0  0  0  0  0  0  0  0  0  0  0
   -9.2630    0.0740  -21.1320 O   0  0  0  0  0  0  0  0  0  0  0  0
   -7.4530   -1.3460  -21.2600 N   0  0  0  0  0  0  0  0  0  0  0  0
   -6.6780   -0.7620  -20.2210 C   0  0  0  0  0  0  0  0  0  0  0  0
   -6.9900   -0.9980  -18.9050 C   0  0  0  0  0  0  0  0  0  0  0  0
   -6.2640   -0.5440  -17.8540 N   0  0  0  0  0  0  0  0  0  0  0  0
   -5.1950    0.1670  -18.1090 C   0  0  0  0  0  0  0  0  0  0  0  0
   -4.7570    0.4970  -19.4230 C   0  0  0  0  0  0  0  0  0  0  0  0
   -3.6020    1.2910  -19.6570 C   0  0  0  0  0  0  0  0  0  0  0  0
   -3.2230    1.6070  -20.9320 C   0  0  0  0  0  0  0  0  0  0  0  0
   -3.9840    1.1550  -22.0310 C   0  0  0  0  0  0  0  0  0  0  0  0
   -5.1070    0.3860  -21.8310 C   0  0  0  0  0  0  0  0  0  0  0  0
   -5.5200    0.0250  -20.5180 C   0  0  0  0  0  0  0  0  0  0  0  0
   -5.7240    0.1200  -22.6840 H   0  0  0  0  0  0  0  0  0  0  0  0
   -3.6960    1.4340  -23.0410 H   0  0  0  0  0  0  0  0  0  0  0  0
   -2.3490    2.2270  -21.1120 H   0  0  0  0  0  0  0  0  0  0  0  0
   -3.0330    1.6490  -18.8030 H   0  0  0  0  0  0  0  0  0  0  0  0
   -4.6160    0.5280  -17.2560 H   0  0  0  0  0  0  0  0  0  0  0  0
   -7.8620   -1.5980  -18.6600 H   0  0  0  0  0  0  0  0  0  0  0  0
   -7.0000   -2.4940  -22.0220 C   0  0  0  0  0  0  0  0  0  0  0  0
   -8.2900   -2.9890  -22.7050 C   0  0  2  0  0  0  0  0  0  0  0  0
   -8.0080   -3.7190  -24.0090 C   0  0  0  0  0  0  0  0  0  0  0  0
   -7.2680   -4.8880  -23.7470 O   0  0  0  0  0  0  0  0  0  0  0  0
   -7.0710   -5.6820  -24.9110 C   0  0  0  0  0  0  0  0  0  0  0  0
   -5.6980   -6.3240  -24.7990 C   0  0  0  0  0  0  0  0  0  0  0  0
   -5.4830   -6.9380  -25.6810 H   0  0  0  0  0  0  0  0  0  0  0  0
   -4.9180   -5.5620  -24.7090 H   0  0  0  0  0  0  0  0  0  0  0  0
   -5.6680   -6.9600  -23.9110 H   0  0  0  0  0  0  0  0  0  0  0  0
   -8.1820   -6.7190  -25.0100 C   0  0  0  0  0  0  0  0  0  0  0  0
   -8.1640   -7.3500  -24.1160 H   0  0  0  0  0  0  0  0  0  0  0  0
   -9.1700   -6.2490  -25.0700 H   0  0  0  0  0  0  0  0  0  0  0  0
   -8.0500   -7.3510  -25.8940 H   0  0  0  0  0  0  0  0  0  0  0  0
   -7.0930   -5.0320  -25.8020 H   0  0  0  0  0  0  0  0  0  0  0  0
   -8.9570   -3.9540  -24.5210 H   0  0  0  0  0  0  0  0  0  0  0  0
   -7.4140   -3.0750  -24.6800 H   0  0  0  0  0  0  0  0  0  0  0  0
   -8.7650   -3.7030  -22.0290 H   0  0  0  0  0  0  0  0  0  0  0  0
   -6.2220   -2.2210  -22.7560 H   0  0  0  0  0  0  0  0  0  0  0  0
   -6.5690   -3.2490  -21.3590 H   0  0  0  0  0  0  0  0  0  0  0  0
  -10.7100   -1.9780  -22.7070 C   0  0  0  0  0  0  0  0  0  0  0  0
  -11.2450   -2.9570  -21.8550 C   0  0  0  0  0  0  0  0  0  0  0  0
  -12.6150   -3.0390  -21.6500 C   0  0  0  0  0  0  0  0  0  0  0  0
  -13.2660   -4.1830  -20.5140 Cl  0  0  0  0  0  0  0  0  0  0  0  0
  -13.5160   -2.2030  -22.3040 C   0  0  0  0  0  0  0  0  0  0  0  0
  -13.0030   -1.2420  -23.1440 C   0  0  0  0  0  0  0  0  0  0  0  0
  -11.6270   -1.1160  -23.3300 C   0  0  0  0  0  0  0  0  0  0  0  0
  -11.1790    0.0320  -24.1780 C   0  0  0  0  0  0  0  0  0  0  0  0
  -11.9570    0.9100  -24.5340 O   0  0  0  0  0  0  0  0  0  0  0  0
  -13.6500   -0.5390  -23.6520 H   0  0  0  0  0  0  0  0  0  0  0  0
  -14.5830   -2.2990  -22.1240 H   0  0  0  0  0  0  0  0  0  0  0  0
  -10.6090   -3.6510  -21.3170 H   0  0  0  0  0  0  0  0  0  0  0  0
   -8.9080   -1.7220  -24.9960 H   0  0  0  0  0  0  0  0  0  0  0  0
   -7.9210   -0.5490  -24.1260 H   0  0  0  0  0  0  0  0  0  0  0  0
   -8.9060    0.8640  -26.2190 H   0  0  0  0  0  0  0  0  0  0  0  0
  -10.1530    1.8620  -25.4290 H   0  0  0  0  0  0  0  0  0  0  0  0
   -9.5790    2.0860  -22.9620 H   0  0  0  0  0  0  0  0  0  0  0  0
   -7.4390    3.9120  -22.5120 H   0  0  0  0  0  0  0  0  0  0  0  0
   -8.2080    2.8370  -21.3280 H   0  0  0  0  0  0  0  0  0  0  0  0
   -6.8540    2.2400  -22.2900 H   0  0  0  0  0  0  0  0  0  0  0  0
  1  2  1  0  0  0  0
  1 64  1  0  0  0  0
  1 65  1  0  0  0  0
  1 66  1  0  0  0  0
  2  3  1  0  0  0  0
  2 63  1  0  0  0  0
  3  4  2  0  0  0  0
  3  5  1  0  0  0  0
  5  6  1  0  0  0  0
  5 61  1  0  0  0  0
  5 62  1  0  0  0  0
  6  7  1  0  0  0  0
  6 54  1  0  0  0  0
  7  8  1  0  0  0  0
  7 59  1  0  0  0  0
  7 60  1  0  0  0  0
  8  9  1  1  0  0  0
  8 29  1  0  0  0  0
  8 47  1  0  0  0  0
  9 10  2  0  0  0  0
  9 11  1  0  0  0  0
 11 12  1  0  0  0  0
 11 28  1  0  0  0  0
 12 13  2  0  0  0  0
 12 21  1  0  0  0  0
 13 14  1  0  0  0  0
 13 27  1  0  0  0  0
 14 15  2  0  0  0  0
 15 16  1  0  0  0  0
 15 26  1  0  0  0  0
 16 17  2  0  0  0  0
 16 21  1  0  0  0  0
 17 18  1  0  0  0  0
 17 25  1  0  0  0  0
 18 19  2  0  0  0  0
 18 24  1  0  0  0  0
 19 20  1  0  0  0  0
 19 23  1  0  0  0  0
 20 21  2  0  0  0  0
 20 22  1  0  0  0  0
 28 29  1  0  0  0  0
 28 45  1  0  0  0  0
 28 46  1  0  0  0  0
 29 30  1  0  0  0  0
 29 44  1  1  0  0  0
 30 31  1  0  0  0  0
 30 42  1  0  0  0  0
 30 43  1  0  0  0  0
 31 32  1  0  0  0  0
 32 33  1  0  0  0  0
 32 37  1  0  0  0  0
 32 41  1  0  0  0  0
 33 34  1  0  0  0  0
 33 35  1  0  0  0  0
 33 36  1  0  0  0  0
 37 38  1  0  0  0  0
 37 39  1  0  0  0  0
 37 40  1  0  0  0  0
 47 48  2  0  0  0  0
 47 53  1  0  0  0  0
 48 49  1  0  0  0  0
 48 58  1  0  0  0  0
 49 50  1  0  0  0  0
 49 51  2  0  0  0  0
 51 52  1  0  0  0  0
 51 57  1  0  0  0  0
 52 53  2  0  0  0  0
 52 56  1  0  0  0  0
 53 54  1  0  0  0  0
 54 55  2  0  0  0  0
M  END
>  <MODEL>
       1

$$$$
