output/tmp_first_model_2_77.pdb
 OpenBabel07242613513D

 55 60  0  0  1  0  0  0  0  0999 V2000
  -10.4570   -1.1690  -23.2630 C   0  0  0  0  0  0  0  0  0  0  0  0
   -9.0080   -1.5020  -22.9250 C   0  0  1  0  0  0  0  0  0  0  0  0
   -8.3750   -0.5450  -21.9010 C   0  0  0  0  0  0  0  0  0  0  0  0
   -7.3730   -1.3680  -21.2370 N   0  0  0  0  0  0  0  0  0  0  0  0
   -6.5750   -0.8640  -20.1840 C   0  0  0  0  0  0  0  0  0  0  0  0
   -6.8970   -1.1070  -18.8720 C   0  0  0  0  0  0  0  0  0  0  0  0
   -6.2350   -0.5690  -17.8150 N   0  0  0  0  0  0  0  0  0  0  0  0
   -5.2120    0.2070  -18.0790 C   0  0  0  0  0  0  0  0  0  0  0  0
   -4.7560    0.5120  -19.3940 C   0  0  0  0  0  0  0  0  0  0  0  0
   -3.6310    1.3400  -19.6310 C   0  0  0  0  0  0  0  0  0  0  0  0
   -3.2260    1.6050  -20.9090 C   0  0  0  0  0  0  0  0  0  0  0  0
   -3.9240    1.0620  -22.0100 C   0  0  0  0  0  0  0  0  0  0  0  0
   -5.0190    0.2580  -21.8100 C   0  0  0  0  0  0  0  0  0  0  0  0
   -5.4590   -0.0310  -20.4900 C   0  0  0  0  0  0  0  0  0  0  0  0
   -5.5480   -0.1660  -22.6570 H   0  0  0  0  0  0  0  0  0  0  0  0
   -3.5960    1.2910  -23.0190 H   0  0  0  0  0  0  0  0  0  0  0  0
   -2.3690    2.2470  -21.0870 H   0  0  0  0  0  0  0  0  0  0  0  0
   -3.1140    1.7610  -18.7730 H   0  0  0  0  0  0  0  0  0  0  0  0
   -4.6790    0.6410  -17.2310 H   0  0  0  0  0  0  0  0  0  0  0  0
   -7.7350   -1.7540  -18.6250 H   0  0  0  0  0  0  0  0  0  0  0  0
   -7.6000   -2.7210  -21.3740 C   0  0  0  0  0  0  0  0  0  0  0  0
   -6.9610   -3.5890  -20.8160 O   0  0  0  0  0  0  0  0  0  0  0  0
   -8.7900   -2.9280  -22.3130 C   0  0  1  0  0  0  0  0  0  0  0  0
   -9.9820   -3.3890  -21.4460 C   0  0  0  0  0  0  0  0  0  0  0  0
  -11.0970   -3.8870  -22.2240 N   0  0  0  0  0  0  0  0  0  0  0  0
  -12.4630   -3.8490  -21.7210 C   0  0  0  0  0  0  0  0  0  0  0  0
  -13.3090   -2.7510  -22.2800 C   0  0  0  0  0  0  0  0  0  0  0  0
  -13.9780   -2.8200  -23.4570 C   0  0  0  0  0  0  0  0  0  0  0  0
  -14.7170   -1.6880  -23.6040 O   0  0  0  0  0  0  0  0  0  0  0  0
  -14.4670   -0.9890  -22.4830 C   0  0  0  0  0  0  0  0  0  0  0  0
  -13.6420   -1.5530  -21.6650 N   0  0  0  0  0  0  0  0  0  0  0  0
  -15.0000   -0.0550  -22.3480 H   0  0  0  0  0  0  0  0  0  0  0  0
  -14.0050   -3.5430  -24.2510 H   0  0  0  0  0  0  0  0  0  0  0  0
  -12.4610   -3.8620  -20.6290 H   0  0  0  0  0  0  0  0  0  0  0  0
  -12.9440   -4.7550  -22.1000 H   0  0  0  0  0  0  0  0  0  0  0  0
  -10.9410   -4.5520  -23.4010 C   0  0  0  0  0  0  0  0  0  0  0  0
  -11.9210   -4.9290  -24.0290 O   0  0  0  0  0  0  0  0  0  0  0  0
   -9.5410   -4.7650  -23.8630 C   0  0  0  0  0  0  0  0  0  0  0  0
   -9.2830   -5.7410  -24.8230 C   0  0  0  0  0  0  0  0  0  0  0  0
   -8.0220   -5.8820  -25.3730 C   0  0  0  0  0  0  0  0  0  0  0  0
   -7.0270   -5.0230  -24.9180 C   0  0  0  0  0  0  0  0  0  0  0  0
   -5.8050   -5.1230  -25.4610 F   0  0  0  0  0  0  0  0  0  0  0  0
   -7.2340   -4.0870  -23.9230 C   0  0  0  0  0  0  0  0  0  0  0  0
   -8.5080   -3.9700  -23.3630 C   0  0  0  0  0  0  0  0  0  0  0  0
   -6.4100   -3.4790  -23.5610 H   0  0  0  0  0  0  0  0  0  0  0  0
   -7.7910   -6.6390  -26.1190 H   0  0  0  0  0  0  0  0  0  0  0  0
  -10.0970   -6.3820  -25.1370 H   0  0  0  0  0  0  0  0  0  0  0  0
  -10.3270   -2.5250  -20.8730 H   0  0  0  0  0  0  0  0  0  0  0  0
   -9.6430   -4.1640  -20.7600 H   0  0  0  0  0  0  0  0  0  0  0  0
   -9.1250   -0.1790  -21.1790 H   0  0  0  0  0  0  0  0  0  0  0  0
   -7.9110    0.3280  -22.3710 H   0  0  0  0  0  0  0  0  0  0  0  0
   -8.4060   -1.4690  -23.8460 H   0  0  0  0  0  0  0  0  0  0  0  0
  -10.5410   -0.2120  -23.7830 H   0  0  0  0  0  0  0  0  0  0  0  0
  -10.8900   -1.9520  -23.8950 H   0  0  0  0  0  0  0  0  0  0  0  0
  -11.0630   -1.1220  -22.3520 H   0  0  0  0  0  0  0  0  0  0  0  0
  1  2  1  0  0  0  0
  1 53  1  0  0  0  0
  1 54  1  0  0  0  0
  1 55  1  0  0  0  0
  2  3  1  0  0  0  0
  2 23  1  0  0  0  0
  2 52  1  6  0  0  0
  3  4  1  0  0  0  0
  3 50  1  0  0  0  0
  3 51  1  0  0  0  0
  4  5  1  0  0  0  0
  4 21  1  0  0  0  0
  5  6  2  0  0  0  0
  5 14  1  0  0  0  0
  6  7  1  0  0  0  0
  6 20  1  0  0  0  0
  7  8  2  0  0  0  0
  8  9  1  0  0  0  0
  8 19  1  0  0  0  0
  9 10  2  0  0  0  0
  9 14  1  0  0  0  0
 10 11  1  0  0  0  0
 10 18  1  0  0  0  0
 11 12  2  0  0  0  0
 11 17  1  0  0  0  0
 12 13  1  0  0  0  0
 12 16  1  0  0  0  0
 13 14  2  0  0  0  0
 13 15  1  0  0  0  0
 21 22  2  0  0  0  0
 23 21  1  1  0  0  0
 23 24  1  0  0  0  0
 23 44  1  0  0  0  0
 24 25  1  0  0  0  0
 24 48  1  0  0  0  0
 24 49  1  0  0  0  0
 25 26  1  0  0  0  0
 25 36  1  0  0  0  0
 26 27  1  0  0  0  0
 26 34  1  0  0  0  0
 26 35  1  0  0  0  0
 27 28  2  0  0  0  0
 27 31  1  0  0  0  0
 28 29  1  0  0  0  0
 28 33  1  0  0  0  0
 29 30  1  0  0  0  0
 30 31  2  0  0  0  0
 30 32  1  0  0  0  0
 36 37  2  0  0  0  0
 36 38  1  0  0  0  0
 38 39  2  0  0  0  0
 38 44  1  0  0  0  0
 39 40  1  0  0  0  0
 39 47  1  0  0  0  0
 40 41  2  0  0  0  0
 40 46  1  0  0  0  0
 41 42  1  0  0  0  0
 41 43  1  0  0  0  0
 43 44  2  0  0  0  0
 43 45  1  0  0  0  0
M  END
>  <MODEL>
       1

$$$$
