output/tmp_first_model_20_14.pdb
 OpenBabel07242623363D

 73 78  0  0  1  0  0  0  0  0999 V2000
   -8.0330   -3.7430  -23.9480 C   0  0  0  0  0  0  0  0  0  0  0  0
   -8.3050   -2.8490  -22.7450 C   0  0  1  0  0  0  0  0  0  0  0  0
   -7.0620   -2.6320  -21.8660 C   0  0  0  0  0  0  0  0  0  0  0  0
   -7.3790   -1.3940  -21.1880 N   0  0  0  0  0  0  0  0  0  0  0  0
   -6.5890   -0.8150  -20.1700 C   0  0  0  0  0  0  0  0  0  0  0  0
   -6.9190   -1.0260  -18.8580 C   0  0  0  0  0  0  0  0  0  0  0  0
   -6.2120   -0.5360  -17.8120 N   0  0  0  0  0  0  0  0  0  0  0  0
   -5.1620    0.1970  -18.0810 C   0  0  0  0  0  0  0  0  0  0  0  0
   -4.7240    0.5170  -19.3990 C   0  0  0  0  0  0  0  0  0  0  0  0
   -3.5940    1.3410  -19.6410 C   0  0  0  0  0  0  0  0  0  0  0  0
   -3.2200    1.6440  -20.9210 C   0  0  0  0  0  0  0  0  0  0  0  0
   -3.9540    1.1400  -22.0180 C   0  0  0  0  0  0  0  0  0  0  0  0
   -5.0510    0.3400  -21.8100 C   0  0  0  0  0  0  0  0  0  0  0  0
   -5.4620    0.0040  -20.4880 C   0  0  0  0  0  0  0  0  0  0  0  0
   -5.6160   -0.0200  -22.6650 H   0  0  0  0  0  0  0  0  0  0  0  0
   -3.6690    1.4150  -23.0300 H   0  0  0  0  0  0  0  0  0  0  0  0
   -2.3680    2.2910  -21.1090 H   0  0  0  0  0  0  0  0  0  0  0  0
   -3.0540    1.7360  -18.7870 H   0  0  0  0  0  0  0  0  0  0  0  0
   -4.6010    0.5890  -17.2320 H   0  0  0  0  0  0  0  0  0  0  0  0
   -7.7980   -1.6210  -18.6150 H   0  0  0  0  0  0  0  0  0  0  0  0
   -8.4020   -0.6720  -21.7630 C   0  0  0  0  0  0  0  0  0  0  0  0
   -8.8360    0.3630  -21.3110 O   0  0  0  0  0  0  0  0  0  0  0  0
   -8.8460   -1.4160  -23.0490 C   0  0  1  0  0  0  0  0  0  0  0  0
   -8.1310   -0.8100  -24.3010 C   0  0  0  0  0  0  0  0  0  0  0  0
   -8.6130    0.5140  -24.6510 N   0  0  0  0  0  0  0  0  0  0  0  0
   -7.7180    1.5400  -25.1810 C   0  0  0  0  0  0  0  0  0  0  0  0
   -7.5620    2.6700  -24.1710 C   0  0  0  0  0  0  0  0  0  0  0  0
   -6.5710    3.7120  -24.6030 N   0  3  0  0  0  0  0  0  0  0  0  0
   -7.0550    4.7640  -25.5970 C   0  0  0  0  0  0  0  0  0  0  0  0
   -7.9730    5.8270  -24.9800 C   0  0  0  0  0  0  0  0  0  0  0  0
   -7.5060    6.3270  -23.6830 N   0  0  0  0  0  0  0  0  0  0  0  0
   -6.8190    7.8240  -23.4910 S   0  0  0  0  0  0  0  0  0  0  0  0
   -6.6710    8.0270  -22.0610 O   0  0  0  0  0  0  0  0  0  0  0  0
   -7.5730    8.7560  -24.3130 O   0  0  0  0  0  0  0  0  0  0  0  0
   -5.1550    7.7500  -24.1500 C   0  0  0  0  0  0  0  0  0  0  0  0
   -5.1890    7.6270  -25.2330 H   0  0  0  0  0  0  0  0  0  0  0  0
   -4.6230    6.9220  -23.6810 H   0  0  0  0  0  0  0  0  0  0  0  0
   -4.6350    8.6790  -23.8950 H   0  0  0  0  0  0  0  0  0  0  0  0
   -7.0750    5.2880  -22.7530 C   0  0  0  0  0  0  0  0  0  0  0  0
   -6.0010    4.4190  -23.4030 C   0  0  0  0  0  0  0  0  0  0  0  0
   -5.1720    5.0310  -23.7520 H   0  0  0  0  0  0  0  0  0  0  0  0
   -5.6140    3.6880  -22.6900 H   0  0  0  0  0  0  0  0  0  0  0  0
   -7.9540    4.6840  -22.5130 H   0  0  0  0  0  0  0  0  0  0  0  0
   -6.7470    5.7590  -21.8290 H   0  0  0  0  0  0  0  0  0  0  0  0
   -8.9690    5.4020  -24.8180 H   0  0  0  0  0  0  0  0  0  0  0  0
   -8.0650    6.6710  -25.6660 H   0  0  0  0  0  0  0  0  0  0  0  0
   -7.5570    4.2620  -26.4240 H   0  0  0  0  0  0  0  0  0  0  0  0
   -6.1570    5.2520  -25.9850 H   0  0  0  0  0  0  0  0  0  0  0  0
   -5.8110    3.1950  -25.0720 H   0  0  0  0  0  0  0  0  0  0  0  0
   -7.2230    2.2390  -23.2180 H   0  0  0  0  0  0  0  0  0  0  0  0
   -8.5280    3.1460  -24.0120 H   0  0  0  0  0  0  0  0  0  0  0  0
   -6.7360    1.1120  -25.4130 H   0  0  0  0  0  0  0  0  0  0  0  0
   -8.1470    1.9200  -26.1100 H   0  0  0  0  0  0  0  0  0  0  0  0
   -9.9520    0.7810  -24.6780 C   0  0  0  0  0  0  0  0  0  0  0  0
  -10.4090    1.7890  -25.2140 O   0  0  0  0  0  0  0  0  0  0  0  0
  -10.8560   -0.2120  -23.9990 C   0  0  0  0  0  0  0  0  0  0  0  0
  -12.2320   -0.0240  -24.1270 C   0  0  0  0  0  0  0  0  0  0  0  0
  -13.1240   -0.8920  -23.5300 C   0  0  0  0  0  0  0  0  0  0  0  0
  -12.6180   -1.9460  -22.7740 C   0  0  0  0  0  0  0  0  0  0  0  0
  -13.7280   -3.0380  -21.9980 Cl  0  0  0  0  0  0  0  0  0  0  0  0
  -11.2570   -2.1430  -22.6220 C   0  0  0  0  0  0  0  0  0  0  0  0
  -10.3450   -1.2840  -23.2510 C   0  0  0  0  0  0  0  0  0  0  0  0
  -10.9350   -2.9670  -21.9950 H   0  0  0  0  0  0  0  0  0  0  0  0
  -14.1950   -0.7530  -23.6340 H   0  0  0  0  0  0  0  0  0  0  0  0
  -12.5820    0.8260  -24.7020 H   0  0  0  0  0  0  0  0  0  0  0  0
   -8.2880   -1.4880  -25.1500 H   0  0  0  0  0  0  0  0  0  0  0  0
   -7.0520   -0.7530  -24.1190 H   0  0  0  0  0  0  0  0  0  0  0  0
   -6.1440   -2.5510  -22.4730 H   0  0  0  0  0  0  0  0  0  0  0  0
   -6.9050   -3.4440  -21.1460 H   0  0  0  0  0  0  0  0  0  0  0  0
   -9.0420   -3.3350  -22.0980 H   0  0  0  0  0  0  0  0  0  0  0  0
   -7.2130   -3.3370  -24.5520 H   0  0  0  0  0  0  0  0  0  0  0  0
   -7.7360   -4.7480  -23.6280 H   0  0  0  0  0  0  0  0  0  0  0  0
   -8.9170   -3.8310  -24.5890 H   0  0  0  0  0  0  0  0  0  0  0  0
  1  2  1  0  0  0  0
  1 71  1  0  0  0  0
  1 72  1  0  0  0  0
  1 73  1  0  0  0  0
  2  3  1  0  0  0  0
  2 23  1  0  0  0  0
  2 70  1  1  0  0  0
  3  4  1  0  0  0  0
  3 68  1  0  0  0  0
  3 69  1  0  0  0  0
  4  5  1  0  0  0  0
  4 21  1  0  0  0  0
  5  6  2  0  0  0  0
  5 14  1  0  0  0  0
  6  7  1  0  0  0  0
  6 20  1  0  0  0  0
  7  8  2  0  0  0  0
  8  9  1  0  0  0  0
  8 19  1  0  0  0  0
  9 10  2  0  0  0  0
  9 14  1  0  0  0  0
 10 11  1  0  0  0  0
 10 18  1  0  0  0  0
 11 12  2  0  0  0  0
 11 17  1  0  0  0  0
 12 13  1  0  0  0  0
 12 16  1  0  0  0  0
 13 14  2  0  0  0  0
 13 15  1  0  0  0  0
 21 22  2  0  0  0  0
 23 21  1  1  0  0  0
 23 24  1  0  0  0  0
 23 62  1  0  0  0  0
 24 25  1  0  0  0  0
 24 66  1  0  0  0  0
 24 67  1  0  0  0  0
 25 26  1  0  0  0  0
 25 54  1  0  0  0  0
 26 27  1  0  0  0  0
 26 52  1  0  0  0  0
 26 53  1  0  0  0  0
 27 28  1  0  0  0  0
 27 50  1  0  0  0  0
 27 51  1  0  0  0  0
 28 29  1  0  0  0  0
 28 40  1  0  0  0  0
 28 49  1  0  0  0  0
 29 30  1  0  0  0  0
 29 47  1  0  0  0  0
 29 48  1  0  0  0  0
 30 31  1  0  0  0  0
 30 45  1  0  0  0  0
 30 46  1  0  0  0  0
 31 32  1  0  0  0  0
 31 39  1  0  0  0  0
 32 33  2  0  0  0  0
 32 34  2  0  0  0  0
 32 35  1  0  0  0  0
 35 36  1  0  0  0  0
 35 37  1  0  0  0  0
 35 38  1  0  0  0  0
 39 40  1  0  0  0  0
 39 43  1  0  0  0  0
 39 44  1  0  0  0  0
 40 41  1  0  0  0  0
 40 42  1  0  0  0  0
 54 55  2  0  0  0  0
 54 56  1  0  0  0  0
 56 57  2  0  0  0  0
 56 62  1  0  0  0  0
 57 58  1  0  0  0  0
 57 65  1  0  0  0  0
 58 59  2  0  0  0  0
 58 64  1  0  0  0  0
 59 60  1  0  0  0  0
 59 61  1  0  0  0  0
 61 62  2  0  0  0  0
 61 63  1  0  0  0  0
M  CHG  1  28   1
M  END
>  <MODEL>
       1

$$$$
