output/tmp_first_model_20_0.pdb
 OpenBabel07242623363D

 66 71  0  0  1  0  0  0  0  0999 V2000
   -7.6640    3.0640  -22.4750 C   0  0  0  0  0  0  0  0  0  0  0  0
   -8.5440    2.5680  -23.5080 N   0  0  0  0  0  0  0  0  0  0  0  0
   -8.0090    1.9420  -24.5850 C   0  0  0  0  0  0  0  0  0  0  0  0
   -6.8120    1.9400  -24.8340 O   0  0  0  0  0  0  0  0  0  0  0  0
   -9.0430    1.1960  -25.4250 C   0  0  0  0  0  0  0  0  0  0  0  0
   -9.6800    0.1540  -24.6390 N   0  0  0  0  0  0  0  0  0  0  0  0
   -8.8140   -0.9380  -24.2390 C   0  0  0  0  0  0  0  0  0  0  0  0
   -9.2070   -1.5970  -22.8810 C   0  0  2  0  0  0  0  0  0  0  0  0
   -8.6720   -0.7170  -21.7190 C   0  0  0  0  0  0  0  0  0  0  0  0
   -9.2070    0.2760  -21.2570 O   0  0  0  0  0  0  0  0  0  0  0  0
   -7.4610   -1.2320  -21.3090 N   0  0  0  0  0  0  0  0  0  0  0  0
   -6.6950   -0.6810  -20.2470 C   0  0  0  0  0  0  0  0  0  0  0  0
   -7.0000   -0.9610  -18.9390 C   0  0  0  0  0  0  0  0  0  0  0  0
   -6.2660   -0.5420  -17.8790 N   0  0  0  0  0  0  0  0  0  0  0  0
   -5.1940    0.1700  -18.1160 C   0  0  0  0  0  0  0  0  0  0  0  0
   -4.7550    0.5320  -19.4220 C   0  0  0  0  0  0  0  0  0  0  0  0
   -3.5860    1.3090  -19.6490 C   0  0  0  0  0  0  0  0  0  0  0  0
   -3.2080    1.6350  -20.9220 C   0  0  0  0  0  0  0  0  0  0  0  0
   -3.9790    1.2110  -22.0270 C   0  0  0  0  0  0  0  0  0  0  0  0
   -5.1180    0.4670  -21.8330 C   0  0  0  0  0  0  0  0  0  0  0  0
   -5.5290    0.0980  -20.5250 C   0  0  0  0  0  0  0  0  0  0  0  0
   -5.7420    0.2010  -22.6820 H   0  0  0  0  0  0  0  0  0  0  0  0
   -3.6810    1.4820  -23.0350 H   0  0  0  0  0  0  0  0  0  0  0  0
   -2.3170    2.2340  -21.0940 H   0  0  0  0  0  0  0  0  0  0  0  0
   -3.0070    1.6420  -18.7920 H   0  0  0  0  0  0  0  0  0  0  0  0
   -4.6140    0.4990  -17.2520 H   0  0  0  0  0  0  0  0  0  0  0  0
   -7.8720   -1.5660  -18.7030 H   0  0  0  0  0  0  0  0  0  0  0  0
   -7.0730   -2.4560  -21.9910 C   0  0  0  0  0  0  0  0  0  0  0  0
   -8.3900   -2.8960  -22.6530 C   0  0  2  0  0  0  0  0  0  0  0  0
   -8.2380   -3.7990  -23.8860 C   0  0  0  0  0  0  0  0  0  0  0  0
   -7.7780   -5.1300  -23.5670 N   0  0  0  0  0  0  0  0  0  0  0  0
   -6.4840   -5.5350  -23.4680 C   0  0  0  0  0  0  0  0  0  0  0  0
   -5.4140   -4.9410  -24.1680 C   0  0  0  0  0  0  0  0  0  0  0  0
   -4.1810   -5.5480  -24.0280 C   0  0  0  0  0  0  0  0  0  0  0  0
   -3.9740   -6.6040  -23.2340 N   0  0  0  0  0  0  0  0  0  0  0  0
   -5.0480   -7.0670  -22.6130 C   0  0  0  0  0  0  0  0  0  0  0  0
   -6.2930   -6.6150  -22.6890 N   0  0  0  0  0  0  0  0  0  0  0  0
   -4.9000   -7.9390  -21.9750 H   0  0  0  0  0  0  0  0  0  0  0  0
   -3.3090   -5.1890  -24.5770 H   0  0  0  0  0  0  0  0  0  0  0  0
   -5.5490   -4.0800  -24.8140 H   0  0  0  0  0  0  0  0  0  0  0  0
   -8.3930   -5.6650  -22.9750 H   0  0  0  0  0  0  0  0  0  0  0  0
   -7.5540   -3.3450  -24.6090 H   0  0  0  0  0  0  0  0  0  0  0  0
   -9.2150   -3.8800  -24.3830 H   0  0  0  0  0  0  0  0  0  0  0  0
   -8.9290   -3.4680  -21.8940 H   0  0  0  0  0  0  0  0  0  0  0  0
   -6.2740   -2.2840  -22.7310 H   0  0  0  0  0  0  0  0  0  0  0  0
   -6.6890   -3.1850  -21.2690 H   0  0  0  0  0  0  0  0  0  0  0  0
  -10.7200   -1.7530  -22.7920 C   0  0  0  0  0  0  0  0  0  0  0  0
  -11.3380   -2.7120  -21.9680 C   0  0  0  0  0  0  0  0  0  0  0  0
  -12.7150   -2.7390  -21.8260 C   0  0  0  0  0  0  0  0  0  0  0  0
  -13.4530   -3.9240  -20.7810 Cl  0  0  0  0  0  0  0  0  0  0  0  0
  -13.5350   -1.8240  -22.4830 C   0  0  0  0  0  0  0  0  0  0  0  0
  -12.9400   -0.8640  -23.2760 C   0  0  0  0  0  0  0  0  0  0  0  0
  -11.5530   -0.8240  -23.4330 C   0  0  0  0  0  0  0  0  0  0  0  0
  -10.9830    0.2850  -24.2630 C   0  0  0  0  0  0  0  0  0  0  0  0
  -11.6570    1.2700  -24.5620 O   0  0  0  0  0  0  0  0  0  0  0  0
  -13.5370   -0.1060  -23.7750 H   0  0  0  0  0  0  0  0  0  0  0  0
  -14.6110   -1.8660  -22.3450 H   0  0  0  0  0  0  0  0  0  0  0  0
  -10.7670   -3.4370  -21.4000 H   0  0  0  0  0  0  0  0  0  0  0  0
   -7.8030   -0.5230  -24.1530 H   0  0  0  0  0  0  0  0  0  0  0  0
   -8.7920   -1.6800  -25.0470 H   0  0  0  0  0  0  0  0  0  0  0  0
   -9.8370    1.8660  -25.7520 H   0  0  0  0  0  0  0  0  0  0  0  0
   -8.5350    0.7890  -26.3000 H   0  0  0  0  0  0  0  0  0  0  0  0
   -9.4780    2.3090  -23.2290 H   0  0  0  0  0  0  0  0  0  0  0  0
   -7.0870    2.2530  -22.0040 H   0  0  0  0  0  0  0  0  0  0  0  0
   -8.2430    3.5940  -21.7180 H   0  0  0  0  0  0  0  0  0  0  0  0
   -6.9540    3.7730  -22.9050 H   0  0  0  0  0  0  0  0  0  0  0  0
  1  2  1  0  0  0  0
  1 64  1  0  0  0  0
  1 65  1  0  0  0  0
  1 66  1  0  0  0  0
  2  3  1  0  0  0  0
  2 63  1  0  0  0  0
  3  4  2  0  0  0  0
  3  5  1  0  0  0  0
  5  6  1  0  0  0  0
  5 61  1  0  0  0  0
  5 62  1  0  0  0  0
  6  7  1  0  0  0  0
  6 54  1  0  0  0  0
  7  8  1  0  0  0  0
  7 59  1  0  0  0  0
  7 60  1  0  0  0  0
  8  9  1  1  0  0  0
  8 29  1  0  0  0  0
  8 47  1  0  0  0  0
  9 10  2  0  0  0  0
  9 11  1  0  0  0  0
 11 12  1  0  0  0  0
 11 28  1  0  0  0  0
 12 13  2  0  0  0  0
 12 21  1  0  0  0  0
 13 14  1  0  0  0  0
 13 27  1  0  0  0  0
 14 15  2  0  0  0  0
 15 16  1  0  0  0  0
 15 26  1  0  0  0  0
 16 17  2  0  0  0  0
 16 21  1  0  0  0  0
 17 18  1  0  0  0  0
 17 25  1  0  0  0  0
 18 19  2  0  0  0  0
 18 24  1  0  0  0  0
 19 20  1  0  0  0  0
 19 23  1  0  0  0  0
 20 21  2  0  0  0  0
 20 22  1  0  0  0  0
 28 29  1  0  0  0  0
 28 45  1  0  0  0  0
 28 46  1  0  0  0  0
 29 30  1  0  0  0  0
 29 44  1  1  0  0  0
 30 31  1  0  0  0  0
 30 42  1  0  0  0  0
 30 43  1  0  0  0  0
 31 32  1  0  0  0  0
 31 41  1  0  0  0  0
 32 33  2  0  0  0  0
 32 37  1  0  0  0  0
 33 34  1  0  0  0  0
 33 40  1  0  0  0  0
 34 35  2  0  0  0  0
 34 39  1  0  0  0  0
 35 36  1  0  0  0  0
 36 37  2  0  0  0  0
 36 38  1  0  0  0  0
 47 48  2  0  0  0  0
 47 53  1  0  0  0  0
 48 49  1  0  0  0  0
 48 58  1  0  0  0  0
 49 50  1  0  0  0  0
 49 51  2  0  0  0  0
 51 52  1  0  0  0  0
 51 57  1  0  0  0  0
 52 53  2  0  0  0  0
 52 56  1  0  0  0  0
 53 54  1  0  0  0  0
 54 55  2  0  0  0  0
M  END
>  <MODEL>
       1

$$$$
