output/tmp_first_model_17_84.pdb
 OpenBabel07242622053D

 63 68  0  0  1  0  0  0  0  0999 V2000
   -8.3580   -4.1070  -23.4930 C   0  0  0  0  0  0  0  0  0  0  0  0
   -8.5900   -2.9430  -22.5220 C   0  0  1  0  0  0  0  0  0  0  0  0
   -7.4530   -2.7960  -21.4900 C   0  0  0  0  0  0  0  0  0  0  0  0
   -7.4200   -1.3770  -21.1900 N   0  0  0  0  0  0  0  0  0  0  0  0
   -6.6070   -0.8110  -20.1790 C   0  0  0  0  0  0  0  0  0  0  0  0
   -6.8940   -1.0570  -18.8620 C   0  0  0  0  0  0  0  0  0  0  0  0
   -6.1960   -0.5550  -17.8170 N   0  0  0  0  0  0  0  0  0  0  0  0
   -5.1680    0.2090  -18.0850 C   0  0  0  0  0  0  0  0  0  0  0  0
   -4.7360    0.5280  -19.4020 C   0  0  0  0  0  0  0  0  0  0  0  0
   -3.6040    1.3570  -19.6350 C   0  0  0  0  0  0  0  0  0  0  0  0
   -3.1970    1.6300  -20.9110 C   0  0  0  0  0  0  0  0  0  0  0  0
   -3.8950    1.0760  -22.0090 C   0  0  0  0  0  0  0  0  0  0  0  0
   -4.9860    0.2720  -21.8080 C   0  0  0  0  0  0  0  0  0  0  0  0
   -5.4600   -0.0060  -20.4920 C   0  0  0  0  0  0  0  0  0  0  0  0
   -5.5110   -0.1540  -22.6590 H   0  0  0  0  0  0  0  0  0  0  0  0
   -3.5520    1.2890  -23.0170 H   0  0  0  0  0  0  0  0  0  0  0  0
   -2.3310    2.2610  -21.0910 H   0  0  0  0  0  0  0  0  0  0  0  0
   -3.0750    1.7640  -18.7760 H   0  0  0  0  0  0  0  0  0  0  0  0
   -4.6220    0.6160  -17.2330 H   0  0  0  0  0  0  0  0  0  0  0  0
   -7.7460   -1.6840  -18.6010 H   0  0  0  0  0  0  0  0  0  0  0  0
   -8.1220   -0.5990  -22.0800 C   0  0  0  0  0  0  0  0  0  0  0  0
   -8.1970    0.6080  -22.0260 O   0  0  0  0  0  0  0  0  0  0  0  0
   -8.7550   -1.5220  -23.1520 C   0  0  1  0  0  0  0  0  0  0  0  0
   -7.9570   -1.3830  -24.4710 C   0  0  0  0  0  0  0  0  0  0  0  0
   -8.1690   -0.0790  -25.0580 N   0  0  0  0  0  0  0  0  0  0  0  0
   -7.0660    0.6260  -25.6630 C   0  0  0  0  0  0  0  0  0  0  0  0
   -6.5670    0.0260  -26.9850 C   0  0  0  0  0  0  0  0  0  0  0  0
   -5.6790   -0.8100  -26.9970 O   0  0  0  0  0  0  0  0  0  0  0  0
   -7.1460    0.4910  -28.1240 N   0  0  0  0  0  0  0  0  0  0  0  0
   -6.7770   -0.1210  -29.3950 C   0  0  0  0  0  0  0  0  0  0  0  0
   -7.5790    0.4050  -30.5560 C   0  0  0  0  0  0  0  0  0  0  0  0
   -7.3370    1.7460  -30.7750 F   0  0  0  0  0  0  0  0  0  0  0  0
   -8.9610   -0.0900  -30.8180 C   0  0  0  0  0  0  0  0  0  0  0  0
   -7.8200   -0.4350  -31.7640 C   0  0  0  0  0  0  0  0  0  0  0  0
   -7.8070    0.0720  -32.7250 H   0  0  0  0  0  0  0  0  0  0  0  0
   -7.4180   -1.4470  -31.7990 H   0  0  0  0  0  0  0  0  0  0  0  0
   -9.3760   -0.8550  -30.1630 H   0  0  0  0  0  0  0  0  0  0  0  0
   -9.6890    0.6370  -31.1680 H   0  0  0  0  0  0  0  0  0  0  0  0
   -6.9290   -1.2110  -29.3310 H   0  0  0  0  0  0  0  0  0  0  0  0
   -5.7040    0.0310  -29.5830 H   0  0  0  0  0  0  0  0  0  0  0  0
   -7.9010    1.1590  -28.0530 H   0  0  0  0  0  0  0  0  0  0  0  0
   -6.2200    0.6030  -24.9670 H   0  0  0  0  0  0  0  0  0  0  0  0
   -7.4020    1.6550  -25.7930 H   0  0  0  0  0  0  0  0  0  0  0  0
   -9.4310    0.3080  -25.3910 C   0  0  0  0  0  0  0  0  0  0  0  0
   -9.6230    1.0500  -26.3500 O   0  0  0  0  0  0  0  0  0  0  0  0
  -10.5100   -0.2200  -24.4920 C   0  0  0  0  0  0  0  0  0  0  0  0
  -11.8320    0.1800  -24.7020 C   0  0  0  0  0  0  0  0  0  0  0  0
  -12.8330   -0.2170  -23.8340 C   0  0  0  0  0  0  0  0  0  0  0  0
  -12.4890   -1.0090  -22.7460 C   0  0  0  0  0  0  0  0  0  0  0  0
  -13.4580   -1.4070  -21.9090 F   0  0  0  0  0  0  0  0  0  0  0  0
  -11.1940   -1.4110  -22.5060 C   0  0  0  0  0  0  0  0  0  0  0  0
  -10.1860   -1.0680  -23.4150 C   0  0  0  0  0  0  0  0  0  0  0  0
  -10.9980   -1.9770  -21.6000 H   0  0  0  0  0  0  0  0  0  0  0  0
  -13.8670    0.0760  -23.9600 H   0  0  0  0  0  0  0  0  0  0  0  0
  -12.0440    0.8100  -25.5600 H   0  0  0  0  0  0  0  0  0  0  0  0
   -8.3020   -2.1590  -25.1720 H   0  0  0  0  0  0  0  0  0  0  0  0
   -6.8820   -1.5140  -24.2940 H   0  0  0  0  0  0  0  0  0  0  0  0
   -6.4920   -3.1290  -21.9100 H   0  0  0  0  0  0  0  0  0  0  0  0
   -7.6330   -3.3730  -20.5780 H   0  0  0  0  0  0  0  0  0  0  0  0
   -9.5120   -3.1410  -21.9710 H   0  0  0  0  0  0  0  0  0  0  0  0
   -9.1510   -4.1800  -24.2460 H   0  0  0  0  0  0  0  0  0  0  0  0
   -7.4060   -3.9940  -24.0240 H   0  0  0  0  0  0  0  0  0  0  0  0
   -8.3220   -5.0600  -22.9550 H   0  0  0  0  0  0  0  0  0  0  0  0
  1  2  1  0  0  0  0
  1 61  1  0  0  0  0
  1 62  1  0  0  0  0
  1 63  1  0  0  0  0
  2  3  1  0  0  0  0
  2 23  1  0  0  0  0
  2 60  1  1  0  0  0
  3  4  1  0  0  0  0
  3 58  1  0  0  0  0
  3 59  1  0  0  0  0
  4  5  1  0  0  0  0
  4 21  1  0  0  0  0
  5  6  2  0  0  0  0
  5 14  1  0  0  0  0
  6  7  1  0  0  0  0
  6 20  1  0  0  0  0
  7  8  2  0  0  0  0
  8  9  1  0  0  0  0
  8 19  1  0  0  0  0
  9 10  2  0  0  0  0
  9 14  1  0  0  0  0
 10 11  1  0  0  0  0
 10 18  1  0  0  0  0
 11 12  2  0  0  0  0
 11 17  1  0  0  0  0
 12 13  1  0  0  0  0
 12 16  1  0  0  0  0
 13 14  2  0  0  0  0
 13 15  1  0  0  0  0
 21 22  2  0  0  0  0
 23 21  1  1  0  0  0
 23 24  1  0  0  0  0
 23 52  1  0  0  0  0
 24 25  1  0  0  0  0
 24 56  1  0  0  0  0
 24 57  1  0  0  0  0
 25 26  1  0  0  0  0
 25 44  1  0  0  0  0
 26 27  1  0  0  0  0
 26 42  1  0  0  0  0
 26 43  1  0  0  0  0
 27 28  2  0  0  0  0
 27 29  1  0  0  0  0
 29 30  1  0  0  0  0
 29 41  1  0  0  0  0
 30 31  1  0  0  0  0
 30 39  1  0  0  0  0
 30 40  1  0  0  0  0
 31 32  1  0  0  0  0
 31 33  1  0  0  0  0
 31 34  1  0  0  0  0
 33 34  1  0  0  0  0
 33 37  1  0  0  0  0
 33 38  1  0  0  0  0
 34 35  1  0  0  0  0
 34 36  1  0  0  0  0
 44 45  2  0  0  0  0
 44 46  1  0  0  0  0
 46 47  2  0  0  0  0
 46 52  1  0  0  0  0
 47 48  1  0  0  0  0
 47 55  1  0  0  0  0
 48 49  2  0  0  0  0
 48 54  1  0  0  0  0
 49 50  1  0  0  0  0
 49 51  1  0  0  0  0
 51 52  2  0  0  0  0
 51 53  1  0  0  0  0
M  END
>  <MODEL>
       1

$$$$
