output/tmp_first_model_16_16.pdb
 OpenBabel07242621343D

 61 66  0  0  1  0  0  0  0  0999 V2000
  -14.5040   -0.3210  -22.9030 C   0  0  0  0  0  0  0  0  0  0  0  0
  -13.6380   -1.3360  -22.3080 N   0  0  0  0  0  0  0  0  0  0  0  0
  -13.3500   -2.4820  -23.0040 C   0  0  0  0  0  0  0  0  0  0  0  0
  -13.6360   -2.5960  -24.1870 O   0  0  0  0  0  0  0  0  0  0  0  0
  -12.6430   -3.6190  -22.2320 C   0  0  0  0  0  0  0  0  0  0  0  0
  -11.2400   -3.8010  -22.6030 N   0  0  0  0  0  0  0  0  0  0  0  0
  -10.1530   -3.3370  -21.7320 C   0  0  0  0  0  0  0  0  0  0  0  0
   -8.8950   -2.8810  -22.5080 C   0  0  2  0  0  0  0  0  0  0  0  0
   -7.7640   -2.7380  -21.4770 C   0  0  0  0  0  0  0  0  0  0  0  0
   -7.1890   -3.6430  -20.9000 O   0  0  0  0  0  0  0  0  0  0  0  0
   -7.4610   -1.4050  -21.2940 N   0  0  0  0  0  0  0  0  0  0  0  0
   -6.5910   -1.0060  -20.2460 C   0  0  0  0  0  0  0  0  0  0  0  0
   -6.8310   -1.4060  -18.9540 C   0  0  0  0  0  0  0  0  0  0  0  0
   -6.0820   -1.0340  -17.8870 N   0  0  0  0  0  0  0  0  0  0  0  0
   -5.0570   -0.2460  -18.1010 C   0  0  0  0  0  0  0  0  0  0  0  0
   -4.6860    0.2330  -19.3870 C   0  0  0  0  0  0  0  0  0  0  0  0
   -3.5780    1.1030  -19.5660 C   0  0  0  0  0  0  0  0  0  0  0  0
   -3.2370    1.5330  -20.8180 C   0  0  0  0  0  0  0  0  0  0  0  0
   -3.9660    1.0910  -21.9440 C   0  0  0  0  0  0  0  0  0  0  0  0
   -5.0430    0.2500  -21.7980 C   0  0  0  0  0  0  0  0  0  0  0  0
   -5.4530   -0.1720  -20.5040 C   0  0  0  0  0  0  0  0  0  0  0  0
   -5.5810   -0.1060  -22.6710 H   0  0  0  0  0  0  0  0  0  0  0  0
   -3.6700    1.4260  -22.9330 H   0  0  0  0  0  0  0  0  0  0  0  0
   -2.4020    2.2130  -20.9570 H   0  0  0  0  0  0  0  0  0  0  0  0
   -3.0220    1.4210  -18.6890 H   0  0  0  0  0  0  0  0  0  0  0  0
   -4.4570    0.0410  -17.2360 H   0  0  0  0  0  0  0  0  0  0  0  0
   -7.6740   -2.0570  -18.7300 H   0  0  0  0  0  0  0  0  0  0  0  0
   -8.3950   -0.5200  -21.9770 C   0  0  0  0  0  0  0  0  0  0  0  0
   -8.9950   -1.4200  -23.0730 C   0  0  2  0  0  0  0  0  0  0  0  0
  -10.4090   -1.0090  -23.5100 C   0  0  0  0  0  0  0  0  0  0  0  0
  -10.4790    0.2890  -24.1550 N   0  0  0  0  0  0  0  0  0  0  0  0
  -10.7010    1.4130  -23.4950 N   0  0  0  0  0  0  0  0  0  0  0  0
  -10.7490    2.2870  -24.4880 C   0  0  0  0  0  0  0  0  0  0  0  0
  -10.5680    1.7110  -25.6960 N   0  0  0  0  0  0  0  0  0  0  0  0
  -10.3990    0.4390  -25.4590 N   0  0  0  0  0  0  0  0  0  0  0  0
  -10.9020    3.3450  -24.3390 H   0  0  0  0  0  0  0  0  0  0  0  0
  -11.0820   -0.9410  -22.6590 H   0  0  0  0  0  0  0  0  0  0  0  0
  -10.8030   -1.7370  -24.2200 H   0  0  0  0  0  0  0  0  0  0  0  0
   -8.3370   -1.3750  -23.9490 H   0  0  0  0  0  0  0  0  0  0  0  0
   -9.1650   -0.1530  -21.2800 H   0  0  0  0  0  0  0  0  0  0  0  0
   -7.8780    0.3490  -22.3910 H   0  0  0  0  0  0  0  0  0  0  0  0
   -8.5730   -3.9360  -23.5490 C   0  0  0  0  0  0  0  0  0  0  0  0
   -7.2600   -4.0960  -24.0170 C   0  0  0  0  0  0  0  0  0  0  0  0
   -6.9650   -5.0850  -24.9410 C   0  0  0  0  0  0  0  0  0  0  0  0
   -5.3360   -5.2650  -25.5310 Cl  0  0  0  0  0  0  0  0  0  0  0  0
   -7.9480   -5.9460  -25.4270 C   0  0  0  0  0  0  0  0  0  0  0  0
   -9.2500   -5.7590  -25.0040 C   0  0  0  0  0  0  0  0  0  0  0  0
   -9.5640   -4.7750  -24.0680 C   0  0  0  0  0  0  0  0  0  0  0  0
  -10.9940   -4.6410  -23.6630 C   0  0  0  0  0  0  0  0  0  0  0  0
  -11.8810   -5.2350  -24.2580 O   0  0  0  0  0  0  0  0  0  0  0  0
  -10.0580   -6.3820  -25.3740 H   0  0  0  0  0  0  0  0  0  0  0  0
   -7.6870   -6.7430  -26.1180 H   0  0  0  0  0  0  0  0  0  0  0  0
   -6.4520   -3.4790  -23.6380 H   0  0  0  0  0  0  0  0  0  0  0  0
  -10.5100   -2.4900  -21.1380 H   0  0  0  0  0  0  0  0  0  0  0  0
   -9.8270   -4.1300  -21.0440 H   0  0  0  0  0  0  0  0  0  0  0  0
  -13.1790   -4.5280  -22.5280 H   0  0  0  0  0  0  0  0  0  0  0  0
  -12.7240   -3.5120  -21.1440 H   0  0  0  0  0  0  0  0  0  0  0  0
  -13.5390   -1.3350  -21.3020 H   0  0  0  0  0  0  0  0  0  0  0  0
  -15.5640   -0.5710  -22.7700 H   0  0  0  0  0  0  0  0  0  0  0  0
  -14.2930    0.6510  -22.4490 H   0  0  0  0  0  0  0  0  0  0  0  0
  -14.2970   -0.2610  -23.9760 H   0  0  0  0  0  0  0  0  0  0  0  0
  1  2  1  0  0  0  0
  1 59  1  0  0  0  0
  1 60  1  0  0  0  0
  1 61  1  0  0  0  0
  2  3  1  0  0  0  0
  2 58  1  0  0  0  0
  3  4  2  0  0  0  0
  3  5  1  0  0  0  0
  5  6  1  0  0  0  0
  5 56  1  0  0  0  0
  5 57  1  0  0  0  0
  6  7  1  0  0  0  0
  6 49  1  0  0  0  0
  7  8  1  0  0  0  0
  7 54  1  0  0  0  0
  7 55  1  0  0  0  0
  8  9  1  1  0  0  0
  8 29  1  0  0  0  0
  8 42  1  0  0  0  0
  9 10  2  0  0  0  0
  9 11  1  0  0  0  0
 11 12  1  0  0  0  0
 11 28  1  0  0  0  0
 12 13  2  0  0  0  0
 12 21  1  0  0  0  0
 13 14  1  0  0  0  0
 13 27  1  0  0  0  0
 14 15  2  0  0  0  0
 15 16  1  0  0  0  0
 15 26  1  0  0  0  0
 16 17  2  0  0  0  0
 16 21  1  0  0  0  0
 17 18  1  0  0  0  0
 17 25  1  0  0  0  0
 18 19  2  0  0  0  0
 18 24  1  0  0  0  0
 19 20  1  0  0  0  0
 19 23  1  0  0  0  0
 20 21  2  0  0  0  0
 20 22  1  0  0  0  0
 28 29  1  0  0  0  0
 28 40  1  0  0  0  0
 28 41  1  0  0  0  0
 29 30  1  0  0  0  0
 29 39  1  6  0  0  0
 30 31  1  0  0  0  0
 30 37  1  0  0  0  0
 30 38  1  0  0  0  0
 31 32  1  0  0  0  0
 31 35  1  0  0  0  0
 32 33  2  0  0  0  0
 33 34  1  0  0  0  0
 33 36  1  0  0  0  0
 34 35  2  0  0  0  0
 42 43  2  0  0  0  0
 42 48  1  0  0  0  0
 43 44  1  0  0  0  0
 43 53  1  0  0  0  0
 44 45  1  0  0  0  0
 44 46  2  0  0  0  0
 46 47  1  0  0  0  0
 46 52  1  0  0  0  0
 47 48  2  0  0  0  0
 47 51  1  0  0  0  0
 48 49  1  0  0  0  0
 49 50  2  0  0  0  0
M  END
>  <MODEL>
       1

$$$$
