output/tmp_first_model_7_35.pdb
 OpenBabel07242616393D

 40 42  0  0  0  0  0  0  0  0999 V2000
   -9.3820   -1.7680  -22.3450 O   0  0  0  0  0  0  0  0  0  0  0  0
   -8.4420   -0.9950  -22.1750 C   0  0  0  0  0  0  0  0  0  0  0  0
   -7.0750   -1.5270  -21.7730 C   0  0  0  0  0  0  0  0  0  0  0  0
   -6.4350   -0.8260  -20.5800 C   0  0  0  0  0  0  0  0  0  0  0  0
   -6.9760   -0.9670  -19.3210 C   0  0  0  0  0  0  0  0  0  0  0  0
   -6.4430   -0.4700  -18.1760 N   0  0  0  0  0  0  0  0  0  0  0  0
   -5.3400    0.2260  -18.2800 C   0  0  0  0  0  0  0  0  0  0  0  0
   -4.6960    0.5110  -19.5120 C   0  0  0  0  0  0  0  0  0  0  0  0
   -3.5680    1.3630  -19.5840 C   0  0  0  0  0  0  0  0  0  0  0  0
   -3.0270    1.7040  -20.7920 C   0  0  0  0  0  0  0  0  0  0  0  0
   -3.5620    1.1640  -21.9790 C   0  0  0  0  0  0  0  0  0  0  0  0
   -4.6140    0.2780  -21.9280 C   0  0  0  0  0  0  0  0  0  0  0  0
   -5.2430   -0.0400  -20.6960 C   0  0  0  0  0  0  0  0  0  0  0  0
   -4.9810   -0.1610  -22.8530 H   0  0  0  0  0  0  0  0  0  0  0  0
   -3.1430    1.4490  -22.9390 H   0  0  0  0  0  0  0  0  0  0  0  0
   -2.1980    2.4020  -20.8490 H   0  0  0  0  0  0  0  0  0  0  0  0
   -3.1730    1.7630  -18.6570 H   0  0  0  0  0  0  0  0  0  0  0  0
   -4.9000    0.6160  -17.3610 H   0  0  0  0  0  0  0  0  0  0  0  0
   -7.8990   -1.5300  -19.1810 H   0  0  0  0  0  0  0  0  0  0  0  0
   -7.2760   -2.5730  -21.5240 H   0  0  0  0  0  0  0  0  0  0  0  0
   -6.3930   -1.5170  -22.6280 H   0  0  0  0  0  0  0  0  0  0  0  0
   -8.5140    0.3580  -22.2880 N   0  0  0  0  0  0  0  0  0  0  0  0
   -9.6790    1.0100  -21.6440 C   0  0  0  0  0  0  0  0  0  0  0  0
   -9.6670    1.1620  -21.8260 C   0  0  0  0  0  0  0  0  0  0  0  0
   -9.3570    2.8680  -23.5930 C   0  0  0  0  0  0  0  0  0  0  0  0
   -8.5580    5.2630  -22.6990 C   0  0  0  0  0  0  0  0  0  0  0  0
   -7.7810    5.7940  -23.6220 F   0  0  0  0  0  0  0  0  0  0  0  0
   -9.4300    6.1390  -22.2620 F   0  0  0  0  0  0  0  0  0  0  0  0
   -7.8470    4.7700  -21.7080 F   0  0  0  0  0  0  0  0  0  0  0  0
   -8.0900    2.4700  -23.6120 C   0  0  0  0  0  0  0  0  0  0  0  0
   -7.5390    1.1740  -23.0640 C   0  0  0  0  0  0  0  0  0  0  0  0
   -7.1260    0.5540  -23.8610 H   0  0  0  0  0  0  0  0  0  0  0  0
   -6.7110    1.4520  -22.4040 H   0  0  0  0  0  0  0  0  0  0  0  0
  -10.1580    2.1620  -23.4690 H   0  0  0  0  0  0  0  0  0  0  0  0
   -7.3140    3.1600  -23.9350 H   0  0  0  0  0  0  0  0  0  0  0  0
   -9.5730    3.9250  -23.6810 H   0  0  0  0  0  0  0  0  0  0  0  0
  -10.5800    1.9270  -21.5580 H   0  0  0  0  0  0  0  0  0  0  0  0
   -8.9270    2.0070  -21.3410 H   0  0  0  0  0  0  0  0  0  0  0  0
   -9.9010    0.1800  -20.3410 H   0  0  0  0  0  0  0  0  0  0  0  0
  -10.4510    0.6410  -22.6020 H   0  0  0  0  0  0  0  0  0  0  0  0
  1  2  2  0  0  0  0
  2  3  1  0  0  0  0
  2 22  1  0  0  0  0
  3  4  1  0  0  0  0
  3 20  1  0  0  0  0
  3 21  1  0  0  0  0
  4  5  2  0  0  0  0
  4 13  1  0  0  0  0
  5  6  1  0  0  0  0
  5 19  1  0  0  0  0
  6  7  2  0  0  0  0
  7  8  1  0  0  0  0
  7 18  1  0  0  0  0
  8  9  2  0  0  0  0
  8 13  1  0  0  0  0
  9 10  1  0  0  0  0
  9 17  1  0  0  0  0
 10 11  2  0  0  0  0
 10 16  1  0  0  0  0
 11 12  1  0  0  0  0
 11 15  1  0  0  0  0
 12 13  2  0  0  0  0
 12 14  1  0  0  0  0
 22 23  1  0  0  0  0
 22 31  1  0  0  0  0
 23 24  1  0  0  0  0
 23 39  1  0  0  0  0
 23 40  1  0  0  0  0
 24 25  1  0  0  0  0
 24 37  1  0  0  0  0
 24 38  1  0  0  0  0
 25 26  1  0  0  0  0
 25 30  1  0  0  0  0
 25 36  1  0  0  0  0
 26 27  1  0  0  0  0
 26 28  1  0  0  0  0
 26 29  1  0  0  0  0
 30 31  1  0  0  0  0
 30 34  1  0  0  0  0
 30 35  1  0  0  0  0
 31 32  1  0  0  0  0
 31 33  1  0  0  0  0
M  END
>  <MODEL>
       1

$$$$
