output/tmp_first_model_17_49.pdb
 OpenBabel07242622053D

 67 72  0  0  1  0  0  0  0  0999 V2000
   -7.4090    3.3650  -21.7640 C   0  0  0  0  0  0  0  0  0  0  0  0
   -8.2740    2.9060  -22.8380 N   0  0  0  0  0  0  0  0  0  0  0  0
   -7.6980    2.2250  -23.8560 C   0  0  0  0  0  0  0  0  0  0  0  0
   -6.4820    2.1380  -23.9790 O   0  0  0  0  0  0  0  0  0  0  0  0
   -8.6430    1.5960  -24.8850 C   0  0  0  0  0  0  0  0  0  0  0  0
   -9.3690    0.4390  -24.3980 N   0  0  0  0  0  0  0  0  0  0  0  0
   -8.6420   -0.8080  -24.2450 C   0  0  0  0  0  0  0  0  0  0  0  0
   -9.0260   -1.5270  -22.9330 C   0  0  2  0  0  0  0  0  0  0  0  0
   -8.4970   -0.7370  -21.7040 C   0  0  0  0  0  0  0  0  0  0  0  0
   -8.9520    0.2870  -21.2340 O   0  0  0  0  0  0  0  0  0  0  0  0
   -7.3890   -1.3900  -21.2100 N   0  0  0  0  0  0  0  0  0  0  0  0
   -6.5990   -0.8130  -20.1790 C   0  0  0  0  0  0  0  0  0  0  0  0
   -6.9080   -1.0430  -18.8620 C   0  0  0  0  0  0  0  0  0  0  0  0
   -6.2020   -0.5480  -17.8180 N   0  0  0  0  0  0  0  0  0  0  0  0
   -5.1660    0.2070  -18.0800 C   0  0  0  0  0  0  0  0  0  0  0  0
   -4.7300    0.5320  -19.3950 C   0  0  0  0  0  0  0  0  0  0  0  0
   -3.6050    1.3690  -19.6380 C   0  0  0  0  0  0  0  0  0  0  0  0
   -3.2250    1.6650  -20.9190 C   0  0  0  0  0  0  0  0  0  0  0  0
   -3.9480    1.1370  -22.0110 C   0  0  0  0  0  0  0  0  0  0  0  0
   -5.0370    0.3260  -21.8020 C   0  0  0  0  0  0  0  0  0  0  0  0
   -5.4640    0.0040  -20.4840 C   0  0  0  0  0  0  0  0  0  0  0  0
   -5.5950   -0.0620  -22.6490 H   0  0  0  0  0  0  0  0  0  0  0  0
   -3.6460    1.3750  -23.0250 H   0  0  0  0  0  0  0  0  0  0  0  0
   -2.3640    2.3020  -21.1020 H   0  0  0  0  0  0  0  0  0  0  0  0
   -3.0680    1.7720  -18.7840 H   0  0  0  0  0  0  0  0  0  0  0  0
   -4.6190    0.6100  -17.2280 H   0  0  0  0  0  0  0  0  0  0  0  0
   -7.7590   -1.6680  -18.6020 H   0  0  0  0  0  0  0  0  0  0  0  0
   -7.0390   -2.5990  -21.9290 C   0  0  0  0  0  0  0  0  0  0  0  0
   -8.2920   -2.8960  -22.7710 C   0  0  2  0  0  0  0  0  0  0  0  0
   -7.9610   -3.6800  -24.0580 C   0  0  0  0  0  0  0  0  0  0  0  0
   -7.4530   -5.0060  -23.7850 N   0  0  0  0  0  0  0  0  0  0  0  0
   -6.1220   -5.3100  -23.6650 C   0  0  0  0  0  0  0  0  0  0  0  0
   -5.0180   -4.5870  -24.0120 C   0  0  0  0  0  0  0  0  0  0  0  0
   -3.7940   -5.1890  -23.7910 N   0  0  0  0  0  0  0  0  0  0  0  0
   -3.9350   -6.3770  -23.2940 C   0  0  0  0  0  0  0  0  0  0  0  0
   -2.7940   -7.2980  -22.9860 C   0  0  0  0  0  0  0  0  0  0  0  0
   -3.0220   -7.9310  -22.1250 H   0  0  0  0  0  0  0  0  0  0  0  0
   -2.5860   -7.9500  -23.8440 H   0  0  0  0  0  0  0  0  0  0  0  0
   -1.8990   -6.7030  -22.7920 H   0  0  0  0  0  0  0  0  0  0  0  0
   -5.6020   -6.8630  -23.0350 S   0  0  0  0  0  0  0  0  0  0  0  0
   -5.0540   -3.6010  -24.4600 H   0  0  0  0  0  0  0  0  0  0  0  0
   -8.1100   -5.7170  -23.4990 H   0  0  0  0  0  0  0  0  0  0  0  0
   -8.8670   -3.7910  -24.6650 H   0  0  0  0  0  0  0  0  0  0  0  0
   -7.2170   -3.1290  -24.6520 H   0  0  0  0  0  0  0  0  0  0  0  0
   -8.9550   -3.5310  -22.1750 H   0  0  0  0  0  0  0  0  0  0  0  0
   -6.1550   -2.4490  -22.5700 H   0  0  0  0  0  0  0  0  0  0  0  0
   -6.7910   -3.4180  -21.2450 H   0  0  0  0  0  0  0  0  0  0  0  0
  -10.5380   -1.5840  -22.8740 C   0  0  0  0  0  0  0  0  0  0  0  0
  -11.1510   -2.4590  -21.9810 C   0  0  0  0  0  0  0  0  0  0  0  0
  -12.5210   -2.4760  -21.8330 C   0  0  0  0  0  0  0  0  0  0  0  0
  -13.1460   -3.4850  -20.5610 Cl  0  0  0  0  0  0  0  0  0  0  0  0
  -13.3470   -1.6550  -22.6050 C   0  0  0  0  0  0  0  0  0  0  0  0
  -12.7420   -0.7380  -23.4440 C   0  0  0  0  0  0  0  0  0  0  0  0
  -11.3520   -0.6670  -23.5480 C   0  0  0  0  0  0  0  0  0  0  0  0
  -10.7390    0.4740  -24.3020 C   0  0  0  0  0  0  0  0  0  0  0  0
  -11.4120    1.3850  -24.7560 O   0  0  0  0  0  0  0  0  0  0  0  0
  -13.3170   -0.0150  -24.0110 H   0  0  0  0  0  0  0  0  0  0  0  0
  -14.4280   -1.7080  -22.5270 H   0  0  0  0  0  0  0  0  0  0  0  0
  -10.5770   -3.1100  -21.3340 H   0  0  0  0  0  0  0  0  0  0  0  0
   -7.5760   -0.5610  -24.2290 H   0  0  0  0  0  0  0  0  0  0  0  0
   -8.8520   -1.4800  -25.0940 H   0  0  0  0  0  0  0  0  0  0  0  0
   -9.4070    2.3040  -25.2080 H   0  0  0  0  0  0  0  0  0  0  0  0
   -8.0060    1.3300  -25.7360 H   0  0  0  0  0  0  0  0  0  0  0  0
   -9.2720    2.8150  -22.6860 H   0  0  0  0  0  0  0  0  0  0  0  0
   -6.8020    2.5250  -21.3910 H   0  0  0  0  0  0  0  0  0  0  0  0
   -6.7280    4.1450  -22.1260 H   0  0  0  0  0  0  0  0  0  0  0  0
   -8.0210    3.7840  -20.9680 H   0  0  0  0  0  0  0  0  0  0  0  0
  1  2  1  0  0  0  0
  1 65  1  0  0  0  0
  1 66  1  0  0  0  0
  1 67  1  0  0  0  0
  2  3  1  0  0  0  0
  2 64  1  0  0  0  0
  3  4  2  0  0  0  0
  3  5  1  0  0  0  0
  5  6  1  0  0  0  0
  5 62  1  0  0  0  0
  5 63  1  0  0  0  0
  6  7  1  0  0  0  0
  6 55  1  0  0  0  0
  7  8  1  0  0  0  0
  7 60  1  0  0  0  0
  7 61  1  0  0  0  0
  8  9  1  1  0  0  0
  8 29  1  0  0  0  0
  8 48  1  0  0  0  0
  9 10  2  0  0  0  0
  9 11  1  0  0  0  0
 11 12  1  0  0  0  0
 11 28  1  0  0  0  0
 12 13  2  0  0  0  0
 12 21  1  0  0  0  0
 13 14  1  0  0  0  0
 13 27  1  0  0  0  0
 14 15  2  0  0  0  0
 15 16  1  0  0  0  0
 15 26  1  0  0  0  0
 16 17  2  0  0  0  0
 16 21  1  0  0  0  0
 17 18  1  0  0  0  0
 17 25  1  0  0  0  0
 18 19  2  0  0  0  0
 18 24  1  0  0  0  0
 19 20  1  0  0  0  0
 19 23  1  0  0  0  0
 20 21  2  0  0  0  0
 20 22  1  0  0  0  0
 28 29  1  0  0  0  0
 28 46  1  0  0  0  0
 28 47  1  0  0  0  0
 29 30  1  0  0  0  0
 29 45  1  1  0  0  0
 30 31  1  0  0  0  0
 30 43  1  0  0  0  0
 30 44  1  0  0  0  0
 31 32  1  0  0  0  0
 31 42  1  0  0  0  0
 32 33  2  0  0  0  0
 32 40  1  0  0  0  0
 33 34  1  0  0  0  0
 33 41  1  0  0  0  0
 34 35  2  0  0  0  0
 35 36  1  0  0  0  0
 35 40  1  0  0  0  0
 36 37  1  0  0  0  0
 36 38  1  0  0  0  0
 36 39  1  0  0  0  0
 48 49  2  0  0  0  0
 48 54  1  0  0  0  0
 49 50  1  0  0  0  0
 49 59  1  0  0  0  0
 50 51  1  0  0  0  0
 50 52  2  0  0  0  0
 52 53  1  0  0  0  0
 52 58  1  0  0  0  0
 53 54  2  0  0  0  0
 53 57  1  0  0  0  0
 54 55  1  0  0  0  0
 55 56  2  0  0  0  0
M  END
>  <MODEL>
       1

$$$$
