output/tmp_first_model_14_71.pdb
 OpenBabel07242620283D

 50 54  0  0  1  0  0  0  0  0999 V2000
  -10.4680   -1.1220  -23.3140 C   0  0  0  0  0  0  0  0  0  0  0  0
   -9.0250   -1.4520  -22.9660 C   0  0  1  0  0  0  0  0  0  0  0  0
   -8.4310   -0.4970  -21.9190 C   0  0  0  0  0  0  0  0  0  0  0  0
   -7.4300   -1.3080  -21.2510 N   0  0  0  0  0  0  0  0  0  0  0  0
   -6.5980   -0.8130  -20.2170 C   0  0  0  0  0  0  0  0  0  0  0  0
   -6.9120   -1.0400  -18.9010 C   0  0  0  0  0  0  0  0  0  0  0  0
   -6.2460   -0.4950  -17.8540 N   0  0  0  0  0  0  0  0  0  0  0  0
   -5.2110    0.2610  -18.1150 C   0  0  0  0  0  0  0  0  0  0  0  0
   -4.7540    0.5490  -19.4300 C   0  0  0  0  0  0  0  0  0  0  0  0
   -3.6120    1.3570  -19.6620 C   0  0  0  0  0  0  0  0  0  0  0  0
   -3.2060    1.6200  -20.9390 C   0  0  0  0  0  0  0  0  0  0  0  0
   -3.9120    1.0820  -22.0370 C   0  0  0  0  0  0  0  0  0  0  0  0
   -5.0160    0.2890  -21.8400 C   0  0  0  0  0  0  0  0  0  0  0  0
   -5.4670    0.0070  -20.5230 C   0  0  0  0  0  0  0  0  0  0  0  0
   -5.5420   -0.1380  -22.6880 H   0  0  0  0  0  0  0  0  0  0  0  0
   -3.5740    1.2960  -23.0460 H   0  0  0  0  0  0  0  0  0  0  0  0
   -2.3400    2.2490  -21.1190 H   0  0  0  0  0  0  0  0  0  0  0  0
   -3.0780    1.7620  -18.8070 H   0  0  0  0  0  0  0  0  0  0  0  0
   -4.6660    0.6750  -17.2660 H   0  0  0  0  0  0  0  0  0  0  0  0
   -7.7620   -1.6690  -18.6460 H   0  0  0  0  0  0  0  0  0  0  0  0
   -7.5510   -2.6590  -21.5060 C   0  0  0  0  0  0  0  0  0  0  0  0
   -6.7650   -3.5010  -21.1320 O   0  0  0  0  0  0  0  0  0  0  0  0
   -8.7950   -2.8860  -22.3720 C   0  0  1  0  0  0  0  0  0  0  0  0
   -9.9780   -3.3360  -21.4850 C   0  0  0  0  0  0  0  0  0  0  0  0
  -11.1270   -3.7260  -22.2990 N   0  0  0  0  0  0  0  0  0  0  0  0
  -12.4870   -3.5460  -21.8270 C   0  0  0  0  0  0  0  0  0  0  0  0
  -13.3460   -2.7160  -22.7050 C   0  0  0  0  0  0  0  0  0  0  0  0
  -14.1050   -2.0750  -23.2960 N   0  0  0  0  0  0  0  0  0  0  0  0
  -12.4980   -3.0730  -20.8440 H   0  0  0  0  0  0  0  0  0  0  0  0
  -12.9670   -4.5190  -21.7490 H   0  0  0  0  0  0  0  0  0  0  0  0
  -10.9820   -4.5390  -23.3990 C   0  0  0  0  0  0  0  0  0  0  0  0
  -11.9400   -5.0300  -23.9710 O   0  0  0  0  0  0  0  0  0  0  0  0
   -9.5820   -4.7670  -23.8630 C   0  0  0  0  0  0  0  0  0  0  0  0
   -9.3500   -5.7690  -24.8070 C   0  0  0  0  0  0  0  0  0  0  0  0
   -8.0910   -5.9430  -25.3530 C   0  0  0  0  0  0  0  0  0  0  0  0
   -7.0800   -5.0810  -24.9400 C   0  0  0  0  0  0  0  0  0  0  0  0
   -5.8570   -5.2110  -25.4810 F   0  0  0  0  0  0  0  0  0  0  0  0
   -7.2740   -4.1130  -23.9740 C   0  0  0  0  0  0  0  0  0  0  0  0
   -8.5430   -3.9500  -23.4120 C   0  0  0  0  0  0  0  0  0  0  0  0
   -6.4320   -3.5210  -23.6360 H   0  0  0  0  0  0  0  0  0  0  0  0
   -7.8760   -6.7200  -26.0820 H   0  0  0  0  0  0  0  0  0  0  0  0
  -10.1710   -6.4110  -25.1090 H   0  0  0  0  0  0  0  0  0  0  0  0
   -9.6720   -4.1790  -20.8510 H   0  0  0  0  0  0  0  0  0  0  0  0
  -10.2440   -2.4830  -20.8490 H   0  0  0  0  0  0  0  0  0  0  0  0
   -9.2000   -0.1580  -21.2020 H   0  0  0  0  0  0  0  0  0  0  0  0
   -7.9640    0.3810  -22.3830 H   0  0  0  0  0  0  0  0  0  0  0  0
   -8.4050   -1.4080  -23.8730 H   0  0  0  0  0  0  0  0  0  0  0  0
  -10.5530   -0.1450  -23.7960 H   0  0  0  0  0  0  0  0  0  0  0  0
  -11.0700   -1.1160  -22.3990 H   0  0  0  0  0  0  0  0  0  0  0  0
  -10.8780   -1.8920  -23.9720 H   0  0  0  0  0  0  0  0  0  0  0  0
  1  2  1  0  0  0  0
  1 48  1  0  0  0  0
  1 49  1  0  0  0  0
  1 50  1  0  0  0  0
  2  3  1  0  0  0  0
  2 23  1  0  0  0  0
  2 47  1  6  0  0  0
  3  4  1  0  0  0  0
  3 45  1  0  0  0  0
  3 46  1  0  0  0  0
  4  5  1  0  0  0  0
  4 21  1  0  0  0  0
  5  6  2  0  0  0  0
  5 14  1  0  0  0  0
  6  7  1  0  0  0  0
  6 20  1  0  0  0  0
  7  8  2  0  0  0  0
  8  9  1  0  0  0  0
  8 19  1  0  0  0  0
  9 10  2  0  0  0  0
  9 14  1  0  0  0  0
 10 11  1  0  0  0  0
 10 18  1  0  0  0  0
 11 12  2  0  0  0  0
 11 17  1  0  0  0  0
 12 13  1  0  0  0  0
 12 16  1  0  0  0  0
 13 14  2  0  0  0  0
 13 15  1  0  0  0  0
 21 22  2  0  0  0  0
 23 21  1  1  0  0  0
 23 24  1  0  0  0  0
 23 39  1  0  0  0  0
 24 25  1  0  0  0  0
 24 43  1  0  0  0  0
 24 44  1  0  0  0  0
 25 26  1  0  0  0  0
 25 31  1  0  0  0  0
 26 27  1  0  0  0  0
 26 29  1  0  0  0  0
 26 30  1  0  0  0  0
 27 28  3  0  0  0  0
 31 32  2  0  0  0  0
 31 33  1  0  0  0  0
 33 34  2  0  0  0  0
 33 39  1  0  0  0  0
 34 35  1  0  0  0  0
 34 42  1  0  0  0  0
 35 36  2  0  0  0  0
 35 41  1  0  0  0  0
 36 37  1  0  0  0  0
 36 38  1  0  0  0  0
 38 39  2  0  0  0  0
 38 40  1  0  0  0  0
M  END
>  <MODEL>
       1

$$$$
