output/tmp_first_model_20_35.pdb
 OpenBabel07242623363D

 40 42  0  0  0  0  0  0  0  0999 V2000
   -9.3530   -1.8570  -22.2780 O   0  0  0  0  0  0  0  0  0  0  0  0
   -8.4330   -1.0530  -22.1370 C   0  0  0  0  0  0  0  0  0  0  0  0
   -7.0410   -1.5470  -21.7810 C   0  0  0  0  0  0  0  0  0  0  0  0
   -6.3840   -0.8800  -20.5840 C   0  0  0  0  0  0  0  0  0  0  0  0
   -6.9230   -1.0500  -19.3300 C   0  0  0  0  0  0  0  0  0  0  0  0
   -6.4160   -0.5300  -18.1870 N   0  0  0  0  0  0  0  0  0  0  0  0
   -5.3340    0.1990  -18.2880 C   0  0  0  0  0  0  0  0  0  0  0  0
   -4.6690    0.4780  -19.5150 C   0  0  0  0  0  0  0  0  0  0  0  0
   -3.5410    1.3350  -19.5910 C   0  0  0  0  0  0  0  0  0  0  0  0
   -2.9890    1.6520  -20.8020 C   0  0  0  0  0  0  0  0  0  0  0  0
   -3.5190    1.1030  -21.9880 C   0  0  0  0  0  0  0  0  0  0  0  0
   -4.5830    0.2360  -21.9340 C   0  0  0  0  0  0  0  0  0  0  0  0
   -5.2020   -0.0860  -20.7000 C   0  0  0  0  0  0  0  0  0  0  0  0
   -4.9920   -0.1550  -22.8610 H   0  0  0  0  0  0  0  0  0  0  0  0
   -3.1000    1.3850  -22.9490 H   0  0  0  0  0  0  0  0  0  0  0  0
   -2.1540    2.3430  -20.8630 H   0  0  0  0  0  0  0  0  0  0  0  0
   -3.1480    1.7530  -18.6670 H   0  0  0  0  0  0  0  0  0  0  0  0
   -4.9360    0.6290  -17.3670 H   0  0  0  0  0  0  0  0  0  0  0  0
   -7.8250   -1.6490  -19.2070 H   0  0  0  0  0  0  0  0  0  0  0  0
   -7.1920   -2.6080  -21.5710 H   0  0  0  0  0  0  0  0  0  0  0  0
   -6.4030   -1.4770  -22.6640 H   0  0  0  0  0  0  0  0  0  0  0  0
   -8.5350    0.3030  -22.2420 N   0  0  0  0  0  0  0  0  0  0  0  0
   -9.7550    0.9450  -21.6850 C   0  0  0  0  0  0  0  0  0  0  0  0
   -9.7440    1.0850  -21.8690 C   0  0  0  0  0  0  0  0  0  0  0  0
   -9.4100    2.6930  -23.7390 C   0  0  0  0  0  0  0  0  0  0  0  0
   -9.1050    5.4320  -23.1670 C   0  0  0  0  0  0  0  0  0  0  0  0
   -8.3030    6.0270  -24.0260 F   0  0  0  0  0  0  0  0  0  0  0  0
  -10.2150    6.1180  -22.9890 F   0  0  0  0  0  0  0  0  0  0  0  0
   -8.4960    5.2150  -22.0190 F   0  0  0  0  0  0  0  0  0  0  0  0
   -8.1330    2.3440  -23.6780 C   0  0  0  0  0  0  0  0  0  0  0  0
   -7.5430    1.1500  -22.9830 C   0  0  0  0  0  0  0  0  0  0  0  0
   -7.0330    0.5200  -23.7110 H   0  0  0  0  0  0  0  0  0  0  0  0
   -6.8050    1.5150  -22.2530 H   0  0  0  0  0  0  0  0  0  0  0  0
  -10.1760    1.9600  -23.5990 H   0  0  0  0  0  0  0  0  0  0  0  0
   -7.3770    2.9930  -24.1050 H   0  0  0  0  0  0  0  0  0  0  0  0
   -9.6540    3.7370  -23.9260 H   0  0  0  0  0  0  0  0  0  0  0  0
  -10.6910    1.8350  -21.6720 H   0  0  0  0  0  0  0  0  0  0  0  0
   -9.0580    1.9890  -21.4120 H   0  0  0  0  0  0  0  0  0  0  0  0
   -9.9360    0.1890  -20.3360 H   0  0  0  0  0  0  0  0  0  0  0  0
  -10.4890    0.5020  -22.6430 H   0  0  0  0  0  0  0  0  0  0  0  0
  1  2  2  0  0  0  0
  2  3  1  0  0  0  0
  2 22  1  0  0  0  0
  3  4  1  0  0  0  0
  3 20  1  0  0  0  0
  3 21  1  0  0  0  0
  4  5  2  0  0  0  0
  4 13  1  0  0  0  0
  5  6  1  0  0  0  0
  5 19  1  0  0  0  0
  6  7  2  0  0  0  0
  7  8  1  0  0  0  0
  7 18  1  0  0  0  0
  8  9  2  0  0  0  0
  8 13  1  0  0  0  0
  9 10  1  0  0  0  0
  9 17  1  0  0  0  0
 10 11  2  0  0  0  0
 10 16  1  0  0  0  0
 11 12  1  0  0  0  0
 11 15  1  0  0  0  0
 12 13  2  0  0  0  0
 12 14  1  0  0  0  0
 22 23  1  0  0  0  0
 22 31  1  0  0  0  0
 23 24  1  0  0  0  0
 23 39  1  0  0  0  0
 23 40  1  0  0  0  0
 24 25  1  0  0  0  0
 24 37  1  0  0  0  0
 24 38  1  0  0  0  0
 25 26  1  0  0  0  0
 25 30  1  0  0  0  0
 25 36  1  0  0  0  0
 26 27  1  0  0  0  0
 26 28  1  0  0  0  0
 26 29  1  0  0  0  0
 30 31  1  0  0  0  0
 30 34  1  0  0  0  0
 30 35  1  0  0  0  0
 31 32  1  0  0  0  0
 31 33  1  0  0  0  0
M  END
>  <MODEL>
       1

$$$$
