output/tmp_first_model_7_78.pdb
 OpenBabel07242616393D

 56 60  0  0  1  0  0  0  0  0999 V2000
  -14.4820   -0.5290  -22.6530 C   0  0  0  0  0  0  0  0  0  0  0  0
  -13.5640   -1.4490  -22.0040 N   0  0  0  0  0  0  0  0  0  0  0  0
  -13.4570   -2.7200  -22.4910 C   0  0  0  0  0  0  0  0  0  0  0  0
  -14.0870   -3.0460  -23.4820 O   0  0  0  0  0  0  0  0  0  0  0  0
  -12.4980   -3.7060  -21.7970 C   0  0  0  0  0  0  0  0  0  0  0  0
  -11.1180   -3.6850  -22.3170 N   0  0  0  0  0  0  0  0  0  0  0  0
   -9.9990   -3.1500  -21.5400 C   0  0  0  0  0  0  0  0  0  0  0  0
   -8.7570   -2.7540  -22.3970 C   0  0  2  0  0  0  0  0  0  0  0  0
   -7.5860   -2.5970  -21.4150 C   0  0  0  0  0  0  0  0  0  0  0  0
   -6.9640   -3.4770  -20.8510 O   0  0  0  0  0  0  0  0  0  0  0  0
   -7.3490   -1.2560  -21.2280 N   0  0  0  0  0  0  0  0  0  0  0  0
   -6.5330   -0.8080  -20.1710 C   0  0  0  0  0  0  0  0  0  0  0  0
   -6.8260   -1.1120  -18.8690 C   0  0  0  0  0  0  0  0  0  0  0  0
   -6.1560   -0.5920  -17.8130 N   0  0  0  0  0  0  0  0  0  0  0  0
   -5.1530    0.2170  -18.0610 C   0  0  0  0  0  0  0  0  0  0  0  0
   -4.7040    0.5580  -19.3730 C   0  0  0  0  0  0  0  0  0  0  0  0
   -3.5840    1.3950  -19.6230 C   0  0  0  0  0  0  0  0  0  0  0  0
   -3.2080    1.6870  -20.9090 C   0  0  0  0  0  0  0  0  0  0  0  0
   -3.9200    1.1520  -22.0060 C   0  0  0  0  0  0  0  0  0  0  0  0
   -4.9940    0.3280  -21.7880 C   0  0  0  0  0  0  0  0  0  0  0  0
   -5.4170    0.0290  -20.4670 C   0  0  0  0  0  0  0  0  0  0  0  0
   -5.5330   -0.1170  -22.6170 H   0  0  0  0  0  0  0  0  0  0  0  0
   -3.6150    1.3930  -23.0220 H   0  0  0  0  0  0  0  0  0  0  0  0
   -2.3550    2.3340  -21.0950 H   0  0  0  0  0  0  0  0  0  0  0  0
   -3.0360    1.8000  -18.7780 H   0  0  0  0  0  0  0  0  0  0  0  0
   -4.6390    0.6350  -17.1970 H   0  0  0  0  0  0  0  0  0  0  0  0
   -7.6430   -1.7960  -18.6360 H   0  0  0  0  0  0  0  0  0  0  0  0
   -8.3330   -0.4020  -21.8690 C   0  0  0  0  0  0  0  0  0  0  0  0
   -8.8940   -1.3050  -22.9780 C   0  0  2  0  0  0  0  0  0  0  0  0
  -10.2930   -0.9070  -23.4370 C   0  0  0  0  0  0  0  0  0  0  0  0
  -10.2830    0.0770  -23.9150 H   0  0  0  0  0  0  0  0  0  0  0  0
  -10.6850   -1.6430  -24.1460 H   0  0  0  0  0  0  0  0  0  0  0  0
  -10.9940   -0.8560  -22.5960 H   0  0  0  0  0  0  0  0  0  0  0  0
   -8.1990   -1.2630  -23.8280 H   0  0  0  0  0  0  0  0  0  0  0  0
   -9.1110   -0.1040  -21.1440 H   0  0  0  0  0  0  0  0  0  0  0  0
   -7.8620    0.5110  -22.2460 H   0  0  0  0  0  0  0  0  0  0  0  0
   -8.4570   -3.8280  -23.4250 C   0  0  0  0  0  0  0  0  0  0  0  0
   -7.1740   -4.0000  -23.9830 C   0  0  0  0  0  0  0  0  0  0  0  0
   -6.9580   -4.9730  -24.9480 C   0  0  0  0  0  0  0  0  0  0  0  0
   -5.3840   -5.1720  -25.6660 Cl  0  0  0  0  0  0  0  0  0  0  0  0
   -7.9820   -5.8140  -25.3770 C   0  0  0  0  0  0  0  0  0  0  0  0
   -9.2320   -5.6570  -24.8140 C   0  0  0  0  0  0  0  0  0  0  0  0
   -9.4730   -4.6820  -23.8480 C   0  0  0  0  0  0  0  0  0  0  0  0
  -10.8570   -4.6110  -23.2900 C   0  0  0  0  0  0  0  0  0  0  0  0
  -11.7270   -5.3640  -23.6910 O   0  0  0  0  0  0  0  0  0  0  0  0
  -10.0630   -6.2920  -25.0950 H   0  0  0  0  0  0  0  0  0  0  0  0
   -7.7860   -6.5880  -26.1140 H   0  0  0  0  0  0  0  0  0  0  0  0
   -6.3260   -3.4110  -23.6490 H   0  0  0  0  0  0  0  0  0  0  0  0
   -9.6370   -3.8740  -20.8040 H   0  0  0  0  0  0  0  0  0  0  0  0
  -10.3600   -2.2790  -20.9830 H   0  0  0  0  0  0  0  0  0  0  0  0
  -12.4760   -3.6070  -20.7110 H   0  0  0  0  0  0  0  0  0  0  0  0
  -12.9130   -4.6790  -22.0620 H   0  0  0  0  0  0  0  0  0  0  0  0
  -13.3340   -1.2630  -21.0440 H   0  0  0  0  0  0  0  0  0  0  0  0
  -15.5130   -0.8950  -22.6310 H   0  0  0  0  0  0  0  0  0  0  0  0
  -14.4270    0.4270  -22.1390 H   0  0  0  0  0  0  0  0  0  0  0  0
  -14.1900   -0.3740  -23.6960 H   0  0  0  0  0  0  0  0  0  0  0  0
  1  2  1  0  0  0  0
  1 54  1  0  0  0  0
  1 55  1  0  0  0  0
  1 56  1  0  0  0  0
  2  3  1  0  0  0  0
  2 53  1  0  0  0  0
  3  4  2  0  0  0  0
  3  5  1  0  0  0  0
  5  6  1  0  0  0  0
  5 51  1  0  0  0  0
  5 52  1  0  0  0  0
  6  7  1  0  0  0  0
  6 44  1  0  0  0  0
  7  8  1  0  0  0  0
  7 49  1  0  0  0  0
  7 50  1  0  0  0  0
  8  9  1  1  0  0  0
  8 29  1  0  0  0  0
  8 37  1  0  0  0  0
  9 10  2  0  0  0  0
  9 11  1  0  0  0  0
 11 12  1  0  0  0  0
 11 28  1  0  0  0  0
 12 13  2  0  0  0  0
 12 21  1  0  0  0  0
 13 14  1  0  0  0  0
 13 27  1  0  0  0  0
 14 15  2  0  0  0  0
 15 16  1  0  0  0  0
 15 26  1  0  0  0  0
 16 17  2  0  0  0  0
 16 21  1  0  0  0  0
 17 18  1  0  0  0  0
 17 25  1  0  0  0  0
 18 19  2  0  0  0  0
 18 24  1  0  0  0  0
 19 20  1  0  0  0  0
 19 23  1  0  0  0  0
 20 21  2  0  0  0  0
 20 22  1  0  0  0  0
 28 29  1  0  0  0  0
 28 35  1  0  0  0  0
 28 36  1  0  0  0  0
 29 30  1  0  0  0  0
 29 34  1  6  0  0  0
 30 31  1  0  0  0  0
 30 32  1  0  0  0  0
 30 33  1  0  0  0  0
 37 38  2  0  0  0  0
 37 43  1  0  0  0  0
 38 39  1  0  0  0  0
 38 48  1  0  0  0  0
 39 40  1  0  0  0  0
 39 41  2  0  0  0  0
 41 42  1  0  0  0  0
 41 47  1  0  0  0  0
 42 43  2  0  0  0  0
 42 46  1  0  0  0  0
 43 44  1  0  0  0  0
 44 45  2  0  0  0  0
M  END
>  <MODEL>
       1

$$$$
