output/tmp_first_model_12_90.pdb
 OpenBabel07242619253D

 64 68  0  0  1  0  0  0  0  0999 V2000
   -7.2550   -4.5540  -27.8360 C   0  0  0  0  0  0  0  0  0  0  0  0
   -7.9260   -3.4650  -27.1410 N   0  0  0  0  0  0  0  0  0  0  0  0
   -9.1260   -3.7180  -26.5370 C   0  0  0  0  0  0  0  0  0  0  0  0
   -9.5670   -4.8520  -26.4550 O   0  0  0  0  0  0  0  0  0  0  0  0
   -9.8740   -2.5070  -25.9610 C   0  0  0  0  0  0  0  0  0  0  0  0
  -10.0000   -2.5340  -24.5050 N   0  0  0  0  0  0  0  0  0  0  0  0
   -9.2310   -1.5530  -23.7120 C   0  0  0  0  0  0  0  0  0  0  0  0
   -8.7760   -2.0650  -22.3130 C   0  0  2  0  0  0  0  0  0  0  0  0
   -8.1930   -0.9500  -21.4450 C   0  0  0  0  0  0  0  0  0  0  0  0
   -8.8270   -0.0400  -20.9470 O   0  0  0  0  0  0  0  0  0  0  0  0
   -6.8580   -1.1950  -21.2440 N   0  0  0  0  0  0  0  0  0  0  0  0
   -6.1880   -0.5910  -20.1480 C   0  0  0  0  0  0  0  0  0  0  0  0
   -6.5070   -0.9380  -18.8580 C   0  0  0  0  0  0  0  0  0  0  0  0
   -5.8510   -0.4820  -17.7620 N   0  0  0  0  0  0  0  0  0  0  0  0
   -4.8610    0.3570  -17.9560 C   0  0  0  0  0  0  0  0  0  0  0  0
   -4.4510    0.8240  -19.2380 C   0  0  0  0  0  0  0  0  0  0  0  0
   -3.3760    1.7350  -19.4020 C   0  0  0  0  0  0  0  0  0  0  0  0
   -3.0580    2.2080  -20.6460 C   0  0  0  0  0  0  0  0  0  0  0  0
   -3.7980    1.8020  -21.7790 C   0  0  0  0  0  0  0  0  0  0  0  0
   -4.8340    0.9090  -21.6480 C   0  0  0  0  0  0  0  0  0  0  0  0
   -5.1600    0.3750  -20.3740 C   0  0  0  0  0  0  0  0  0  0  0  0
   -5.4120    0.6000  -22.5140 H   0  0  0  0  0  0  0  0  0  0  0  0
   -3.5440    2.2000  -22.7570 H   0  0  0  0  0  0  0  0  0  0  0  0
   -2.2390    2.9110  -20.7710 H   0  0  0  0  0  0  0  0  0  0  0  0
   -2.8270    2.0480  -18.5190 H   0  0  0  0  0  0  0  0  0  0  0  0
   -4.3280    0.7140  -17.0740 H   0  0  0  0  0  0  0  0  0  0  0  0
   -7.3180   -1.6350  -18.6570 H   0  0  0  0  0  0  0  0  0  0  0  0
   -6.3740   -2.3430  -21.9950 C   0  0  0  0  0  0  0  0  0  0  0  0
   -7.6530   -3.1510  -22.3160 C   0  0  2  0  0  0  0  0  0  0  0  0
   -7.5800   -4.0040  -23.5900 C   0  0  0  0  0  0  0  0  0  0  0  0
   -6.4300   -5.3690  -23.5830 S   0  0  0  0  0  0  0  0  0  0  0  0
   -6.5470   -6.0140  -24.8800 O   0  0  0  0  0  0  0  0  0  0  0  0
   -5.1460   -4.9080  -23.0810 O   0  0  0  0  0  0  0  0  0  0  0  0
   -7.0170   -6.4260  -22.4600 N   0  0  0  0  0  0  0  0  0  0  0  0
   -8.2950   -7.0760  -22.7130 C   0  0  0  0  0  0  0  0  0  0  0  0
   -8.2210   -7.6380  -23.6460 H   0  0  0  0  0  0  0  0  0  0  0  0
   -9.1370   -6.3740  -22.7900 H   0  0  0  0  0  0  0  0  0  0  0  0
   -8.4950   -7.7700  -21.8940 H   0  0  0  0  0  0  0  0  0  0  0  0
   -6.8120   -6.1340  -21.5150 H   0  0  0  0  0  0  0  0  0  0  0  0
   -7.2770   -3.4140  -24.4580 H   0  0  0  0  0  0  0  0  0  0  0  0
   -8.5550   -4.4460  -23.8130 H   0  0  0  0  0  0  0  0  0  0  0  0
   -7.8750   -3.8210  -21.4710 H   0  0  0  0  0  0  0  0  0  0  0  0
   -5.8980   -2.0140  -22.9300 H   0  0  0  0  0  0  0  0  0  0  0  0
   -5.6390   -2.9110  -21.4220 H   0  0  0  0  0  0  0  0  0  0  0  0
  -10.0460   -2.4360  -21.5640 C   0  0  0  0  0  0  0  0  0  0  0  0
  -10.4440   -3.7090  -21.4880 C   0  0  0  0  0  0  0  0  0  0  0  0
  -13.2040   -3.7090  -20.8960 C   0  0  0  0  0  0  0  0  0  0  0  0
  -14.0240   -4.5680  -20.2890 F   0  0  0  0  0  0  0  0  0  0  0  0
  -13.1500   -3.5910  -20.9280 C   0  0  0  0  0  0  0  0  0  0  0  0
  -12.6660   -3.4920  -22.1800 C   0  0  0  0  0  0  0  0  0  0  0  0
  -11.1950   -3.2990  -22.5010 C   0  0  0  0  0  0  0  0  0  0  0  0
  -11.0570   -3.2570  -23.9700 C   0  0  0  0  0  0  0  0  0  0  0  0
  -11.8810   -3.8350  -24.6440 O   0  0  0  0  0  0  0  0  0  0  0  0
  -13.1950   -4.3650  -22.2440 H   0  0  0  0  0  0  0  0  0  0  0  0
  -12.9300   -2.9300  -19.9220 H   0  0  0  0  0  0  0  0  0  0  0  0
  -10.4670   -1.6110  -20.9640 H   0  0  0  0  0  0  0  0  0  0  0  0
   -9.8380   -0.6580  -23.5360 H   0  0  0  0  0  0  0  0  0  0  0  0
   -8.3540   -1.2610  -24.2970 H   0  0  0  0  0  0  0  0  0  0  0  0
  -10.8760   -2.5180  -26.4020 H   0  0  0  0  0  0  0  0  0  0  0  0
   -9.3780   -1.5760  -26.2570 H   0  0  0  0  0  0  0  0  0  0  0  0
   -7.6620   -2.5140  -27.3450 H   0  0  0  0  0  0  0  0  0  0  0  0
   -6.2170   -4.2830  -28.0290 H   0  0  0  0  0  0  0  0  0  0  0  0
   -7.7450   -4.8050  -28.7840 H   0  0  0  0  0  0  0  0  0  0  0  0
   -7.2860   -5.4280  -27.1840 H   0  0  0  0  0  0  0  0  0  0  0  0
  1  2  1  0  0  0  0
  1 62  1  0  0  0  0
  1 63  1  0  0  0  0
  1 64  1  0  0  0  0
  2  3  1  0  0  0  0
  2 61  1  0  0  0  0
  3  4  2  0  0  0  0
  3  5  1  0  0  0  0
  5  6  1  0  0  0  0
  5 59  1  0  0  0  0
  5 60  1  0  0  0  0
  6  7  1  0  0  0  0
  6 52  1  0  0  0  0
  7  8  1  0  0  0  0
  7 57  1  0  0  0  0
  7 58  1  0  0  0  0
  8  9  1  1  0  0  0
  8 29  1  0  0  0  0
  8 45  1  0  0  0  0
  9 10  2  0  0  0  0
  9 11  1  0  0  0  0
 11 12  1  0  0  0  0
 11 28  1  0  0  0  0
 12 13  2  0  0  0  0
 12 21  1  0  0  0  0
 13 14  1  0  0  0  0
 13 27  1  0  0  0  0
 14 15  2  0  0  0  0
 15 16  1  0  0  0  0
 15 26  1  0  0  0  0
 16 17  2  0  0  0  0
 16 21  1  0  0  0  0
 17 18  1  0  0  0  0
 17 25  1  0  0  0  0
 18 19  2  0  0  0  0
 18 24  1  0  0  0  0
 19 20  1  0  0  0  0
 19 23  1  0  0  0  0
 20 21  2  0  0  0  0
 20 22  1  0  0  0  0
 28 29  1  0  0  0  0
 28 43  1  0  0  0  0
 28 44  1  0  0  0  0
 29 30  1  0  0  0  0
 29 42  1  1  0  0  0
 30 31  1  0  0  0  0
 30 40  1  0  0  0  0
 30 41  1  0  0  0  0
 31 32  2  0  0  0  0
 31 33  2  0  0  0  0
 31 34  1  0  0  0  0
 34 35  1  0  0  0  0
 34 39  1  0  0  0  0
 35 36  1  0  0  0  0
 35 37  1  0  0  0  0
 35 38  1  0  0  0  0
 45 46  2  0  0  0  0
 45 51  1  0  0  0  0
 46 47  1  0  0  0  0
 46 56  1  0  0  0  0
 47 48  1  0  0  0  0
 47 49  2  0  0  0  0
 49 50  1  0  0  0  0
 49 55  1  0  0  0  0
 50 51  2  0  0  0  0
 50 54  1  0  0  0  0
 51 52  1  0  0  0  0
 52 53  2  0  0  0  0
M  END
>  <MODEL>
       1

$$$$
