output/tmp_first_model_9_23.pdb
 OpenBabel07242617433D

 68 73  0  0  1  0  0  0  0  0999 V2000
   -7.2500    3.4150  -21.9070 C   0  0  0  0  0  0  0  0  0  0  0  0
   -8.2050    2.9100  -22.8770 N   0  0  0  0  0  0  0  0  0  0  0  0
   -7.7460    2.2190  -23.9550 C   0  0  0  0  0  0  0  0  0  0  0  0
   -6.5550    2.0430  -24.1640 O   0  0  0  0  0  0  0  0  0  0  0  0
   -8.8260    1.6750  -24.9000 C   0  0  0  0  0  0  0  0  0  0  0  0
   -9.4970    0.5220  -24.3200 N   0  0  0  0  0  0  0  0  0  0  0  0
   -8.7210   -0.6950  -24.1420 C   0  0  0  0  0  0  0  0  0  0  0  0
   -9.1060   -1.4810  -22.8580 C   0  0  2  0  0  0  0  0  0  0  0  0
   -8.5900   -0.7010  -21.6190 C   0  0  0  0  0  0  0  0  0  0  0  0
   -9.0790    0.2960  -21.1280 O   0  0  0  0  0  0  0  0  0  0  0  0
   -7.4520   -1.3140  -21.1540 N   0  0  0  0  0  0  0  0  0  0  0  0
   -6.6480   -0.7490  -20.1420 C   0  0  0  0  0  0  0  0  0  0  0  0
   -6.9450   -1.0010  -18.8280 C   0  0  0  0  0  0  0  0  0  0  0  0
   -6.2150   -0.5390  -17.7900 N   0  0  0  0  0  0  0  0  0  0  0  0
   -5.1710    0.2040  -18.0640 C   0  0  0  0  0  0  0  0  0  0  0  0
   -4.7440    0.5300  -19.3840 C   0  0  0  0  0  0  0  0  0  0  0  0
   -3.6120    1.3520  -19.6330 C   0  0  0  0  0  0  0  0  0  0  0  0
   -3.2370    1.6500  -20.9160 C   0  0  0  0  0  0  0  0  0  0  0  0
   -3.9770    1.1430  -22.0090 C   0  0  0  0  0  0  0  0  0  0  0  0
   -5.0800    0.3510  -21.7930 C   0  0  0  0  0  0  0  0  0  0  0  0
   -5.4950    0.0290  -20.4690 C   0  0  0  0  0  0  0  0  0  0  0  0
   -5.6590   -0.0010  -22.6420 H   0  0  0  0  0  0  0  0  0  0  0  0
   -3.6930    1.3960  -23.0260 H   0  0  0  0  0  0  0  0  0  0  0  0
   -2.3820    2.2950  -21.1010 H   0  0  0  0  0  0  0  0  0  0  0  0
   -3.0800    1.7570  -18.7780 H   0  0  0  0  0  0  0  0  0  0  0  0
   -4.5990    0.5870  -17.2190 H   0  0  0  0  0  0  0  0  0  0  0  0
   -7.8120   -1.6110  -18.5800 H   0  0  0  0  0  0  0  0  0  0  0  0
   -7.0450   -2.4780  -21.8970 C   0  0  0  0  0  0  0  0  0  0  0  0
   -8.2910   -2.8200  -22.7260 C   0  0  2  0  0  0  0  0  0  0  0  0
   -7.8920   -3.5850  -23.9930 C   0  0  0  0  0  0  0  0  0  0  0  0
   -9.0610   -4.1810  -24.5920 N   0  0  0  0  0  0  0  0  0  0  0  0
   -9.0560   -4.7920  -25.8440 C   0  0  0  0  0  0  0  0  0  0  0  0
  -10.2780   -5.2690  -26.3420 C   0  0  0  0  0  0  0  0  0  0  0  0
  -10.3670   -5.7940  -27.6290 C   0  0  0  0  0  0  0  0  0  0  0  0
   -9.2260   -5.8840  -28.4240 C   0  0  0  0  0  0  0  0  0  0  0  0
   -8.0010   -5.4940  -27.8990 C   0  0  0  0  0  0  0  0  0  0  0  0
   -7.9020   -4.9560  -26.6180 C   0  0  0  0  0  0  0  0  0  0  0  0
   -6.9310   -4.6740  -26.2310 H   0  0  0  0  0  0  0  0  0  0  0  0
   -7.1080   -5.6100  -28.5000 H   0  0  0  0  0  0  0  0  0  0  0  0
   -9.3110   -6.2530  -29.4430 H   0  0  0  0  0  0  0  0  0  0  0  0
  -11.3380   -6.1270  -28.0040 H   0  0  0  0  0  0  0  0  0  0  0  0
  -11.1450   -5.2290  -25.6770 H   0  0  0  0  0  0  0  0  0  0  0  0
   -9.9220   -3.6870  -24.3960 H   0  0  0  0  0  0  0  0  0  0  0  0
   -7.1750   -4.3730  -23.7230 H   0  0  0  0  0  0  0  0  0  0  0  0
   -7.3350   -2.9100  -24.6690 H   0  0  0  0  0  0  0  0  0  0  0  0
   -8.9060   -3.4940  -22.1220 H   0  0  0  0  0  0  0  0  0  0  0  0
   -6.7590   -3.2930  -21.2190 H   0  0  0  0  0  0  0  0  0  0  0  0
   -6.1690   -2.2630  -22.5320 H   0  0  0  0  0  0  0  0  0  0  0  0
  -10.6300   -1.5790  -22.7850 C   0  0  0  0  0  0  0  0  0  0  0  0
  -11.2690   -2.5310  -21.9740 C   0  0  0  0  0  0  0  0  0  0  0  0
  -12.6490   -2.5170  -21.8290 C   0  0  0  0  0  0  0  0  0  0  0  0
  -13.4160   -3.6840  -20.7890 Cl  0  0  0  0  0  0  0  0  0  0  0  0
  -13.4440   -1.5700  -22.4730 C   0  0  0  0  0  0  0  0  0  0  0  0
  -12.8260   -0.6160  -23.2550 C   0  0  0  0  0  0  0  0  0  0  0  0
  -11.4380   -0.6040  -23.3980 C   0  0  0  0  0  0  0  0  0  0  0  0
  -10.8550    0.5380  -24.1780 C   0  0  0  0  0  0  0  0  0  0  0  0
  -11.5590    1.4360  -24.6270 O   0  0  0  0  0  0  0  0  0  0  0  0
  -13.3950    0.1560  -23.7620 H   0  0  0  0  0  0  0  0  0  0  0  0
  -14.5210   -1.5710  -22.3430 H   0  0  0  0  0  0  0  0  0  0  0  0
  -10.7070   -3.2690  -21.4130 H   0  0  0  0  0  0  0  0  0  0  0  0
   -7.6710   -0.3980  -24.0770 H   0  0  0  0  0  0  0  0  0  0  0  0
   -8.8470   -1.3320  -25.0280 H   0  0  0  0  0  0  0  0  0  0  0  0
   -8.3370    1.4220  -25.8490 H   0  0  0  0  0  0  0  0  0  0  0  0
   -9.6110    2.4120  -25.0980 H   0  0  0  0  0  0  0  0  0  0  0  0
   -9.1500    2.7390  -22.5580 H   0  0  0  0  0  0  0  0  0  0  0  0
   -6.6280    2.6080  -21.5000 H   0  0  0  0  0  0  0  0  0  0  0  0
   -7.7840    3.9110  -21.0940 H   0  0  0  0  0  0  0  0  0  0  0  0
   -6.5810    4.1360  -22.3840 H   0  0  0  0  0  0  0  0  0  0  0  0
  1  2  1  0  0  0  0
  1 66  1  0  0  0  0
  1 67  1  0  0  0  0
  1 68  1  0  0  0  0
  2  3  1  0  0  0  0
  2 65  1  0  0  0  0
  3  4  2  0  0  0  0
  3  5  1  0  0  0  0
  5  6  1  0  0  0  0
  5 63  1  0  0  0  0
  5 64  1  0  0  0  0
  6  7  1  0  0  0  0
  6 56  1  0  0  0  0
  7  8  1  0  0  0  0
  7 61  1  0  0  0  0
  7 62  1  0  0  0  0
  8  9  1  1  0  0  0
  8 29  1  0  0  0  0
  8 49  1  0  0  0  0
  9 10  2  0  0  0  0
  9 11  1  0  0  0  0
 11 12  1  0  0  0  0
 11 28  1  0  0  0  0
 12 13  2  0  0  0  0
 12 21  1  0  0  0  0
 13 14  1  0  0  0  0
 13 27  1  0  0  0  0
 14 15  2  0  0  0  0
 15 16  1  0  0  0  0
 15 26  1  0  0  0  0
 16 17  2  0  0  0  0
 16 21  1  0  0  0  0
 17 18  1  0  0  0  0
 17 25  1  0  0  0  0
 18 19  2  0  0  0  0
 18 24  1  0  0  0  0
 19 20  1  0  0  0  0
 19 23  1  0  0  0  0
 20 21  2  0  0  0  0
 20 22  1  0  0  0  0
 28 29  1  0  0  0  0
 28 47  1  0  0  0  0
 28 48  1  0  0  0  0
 29 30  1  0  0  0  0
 29 46  1  1  0  0  0
 30 31  1  0  0  0  0
 30 44  1  0  0  0  0
 30 45  1  0  0  0  0
 31 32  1  0  0  0  0
 31 43  1  0  0  0  0
 32 33  2  0  0  0  0
 32 37  1  0  0  0  0
 33 34  1  0  0  0  0
 33 42  1  0  0  0  0
 34 35  2  0  0  0  0
 34 41  1  0  0  0  0
 35 36  1  0  0  0  0
 35 40  1  0  0  0  0
 36 37  2  0  0  0  0
 36 39  1  0  0  0  0
 37 38  1  0  0  0  0
 49 50  2  0  0  0  0
 49 55  1  0  0  0  0
 50 51  1  0  0  0  0
 50 60  1  0  0  0  0
 51 52  1  0  0  0  0
 51 53  2  0  0  0  0
 53 54  1  0  0  0  0
 53 59  1  0  0  0  0
 54 55  2  0  0  0  0
 54 58  1  0  0  0  0
 55 56  1  0  0  0  0
 56 57  2  0  0  0  0
M  END
>  <MODEL>
       1

$$$$
