output/tmp_first_model_1_67.pdb
 OpenBabel07242613193D

 58 63  0  0  1  0  0  0  0  0999 V2000
   -6.2430   -8.8810  -22.5110 C   0  0  0  0  0  0  0  0  0  0  0  0
   -7.2670   -7.8360  -22.4270 C   0  0  0  0  0  0  0  0  0  0  0  0
   -7.6910   -6.6200  -21.9230 C   0  0  0  0  0  0  0  0  0  0  0  0
   -8.7040   -6.5560  -22.9110 C   0  0  0  0  0  0  0  0  0  0  0  0
   -9.6330   -5.6830  -23.6460 C   0  0  0  0  0  0  0  0  0  0  0  0
   -8.9760   -4.4590  -24.0820 N   0  0  0  0  0  0  0  0  0  0  0  0
   -7.9390   -3.9250  -23.2160 C   0  0  0  0  0  0  0  0  0  0  0  0
   -7.8930   -2.3820  -23.3170 C   0  0  2  0  0  0  0  0  0  0  0  0
   -6.7120   -1.8960  -22.4730 C   0  0  0  0  0  0  0  0  0  0  0  0
   -5.5700   -2.3130  -22.5380 O   0  0  0  0  0  0  0  0  0  0  0  0
   -7.1550   -0.9200  -21.6050 N   0  0  0  0  0  0  0  0  0  0  0  0
   -6.4310   -0.4950  -20.4600 C   0  0  0  0  0  0  0  0  0  0  0  0
   -6.9280   -0.7870  -19.2120 C   0  0  0  0  0  0  0  0  0  0  0  0
   -6.3480   -0.4250  -18.0430 N   0  0  0  0  0  0  0  0  0  0  0  0
   -5.2460    0.2830  -18.1150 C   0  0  0  0  0  0  0  0  0  0  0  0
   -4.6240    0.6590  -19.3410 C   0  0  0  0  0  0  0  0  0  0  0  0
   -3.4350    1.4320  -19.3610 C   0  0  0  0  0  0  0  0  0  0  0  0
   -2.8800    1.8210  -20.5480 C   0  0  0  0  0  0  0  0  0  0  0  0
   -3.4840    1.4490  -21.7690 C   0  0  0  0  0  0  0  0  0  0  0  0
   -4.6200    0.6840  -21.7810 C   0  0  0  0  0  0  0  0  0  0  0  0
   -5.2240    0.2700  -20.5600 C   0  0  0  0  0  0  0  0  0  0  0  0
   -5.0670    0.3810  -22.7250 H   0  0  0  0  0  0  0  0  0  0  0  0
   -3.0430    1.7710  -22.7050 H   0  0  0  0  0  0  0  0  0  0  0  0
   -1.9840    2.4310  -20.5630 H   0  0  0  0  0  0  0  0  0  0  0  0
   -2.9870    1.7110  -18.4130 H   0  0  0  0  0  0  0  0  0  0  0  0
   -4.7830    0.5960  -17.1780 H   0  0  0  0  0  0  0  0  0  0  0  0
   -7.8510   -1.3630  -19.1140 H   0  0  0  0  0  0  0  0  0  0  0  0
   -8.4950   -0.4580  -21.9180 C   0  0  0  0  0  0  0  0  0  0  0  0
   -9.1330   -1.6220  -22.6990 C   0  0  2  0  0  0  0  0  0  0  0  0
  -10.0780   -2.4680  -21.8390 C   0  0  0  0  0  0  0  0  0  0  0  0
  -10.7240   -3.0700  -22.4870 H   0  0  0  0  0  0  0  0  0  0  0  0
  -10.7160   -1.8190  -21.2310 H   0  0  0  0  0  0  0  0  0  0  0  0
   -9.5410   -3.1400  -21.1620 H   0  0  0  0  0  0  0  0  0  0  0  0
   -9.7350   -1.2160  -23.5210 H   0  0  0  0  0  0  0  0  0  0  0  0
   -9.0370   -0.2200  -20.9980 H   0  0  0  0  0  0  0  0  0  0  0  0
   -8.4610    0.4470  -22.5470 H   0  0  0  0  0  0  0  0  0  0  0  0
   -7.7240   -2.0230  -24.7870 C   0  0  0  0  0  0  0  0  0  0  0  0
   -7.0470   -0.8640  -25.1880 C   0  0  0  0  0  0  0  0  0  0  0  0
   -6.9600   -0.5550  -26.5320 C   0  0  0  0  0  0  0  0  0  0  0  0
   -6.2570    0.5220  -26.9230 F   0  0  0  0  0  0  0  0  0  0  0  0
   -7.5500   -1.3430  -27.5120 C   0  0  0  0  0  0  0  0  0  0  0  0
   -8.2570   -2.4600  -27.1100 C   0  0  0  0  0  0  0  0  0  0  0  0
   -8.3360   -2.8170  -25.7630 C   0  0  0  0  0  0  0  0  0  0  0  0
   -9.0730   -4.0740  -25.3940 C   0  0  0  0  0  0  0  0  0  0  0  0
   -9.7250   -4.7000  -26.2180 O   0  0  0  0  0  0  0  0  0  0  0  0
   -8.7450   -3.1080  -27.8290 H   0  0  0  0  0  0  0  0  0  0  0  0
   -7.4590   -1.0710  -28.5580 H   0  0  0  0  0  0  0  0  0  0  0  0
   -6.5740   -0.2020  -24.4690 H   0  0  0  0  0  0  0  0  0  0  0  0
   -8.1500   -4.2300  -22.1950 H   0  0  0  0  0  0  0  0  0  0  0  0
   -6.9520   -4.3470  -23.4620 H   0  0  0  0  0  0  0  0  0  0  0  0
  -10.4690   -5.4400  -22.9820 H   0  0  0  0  0  0  0  0  0  0  0  0
  -10.0060   -6.1950  -24.5360 H   0  0  0  0  0  0  0  0  0  0  0  0
   -8.7680   -8.5660  -24.1850 O   0  0  0  0  0  0  0  0  0  0  0  0
   -8.2760   -7.7740  -23.3910 N   0  0  0  0  0  0  0  0  0  0  0  0
   -7.4030   -5.9780  -21.1110 H   0  0  0  0  0  0  0  0  0  0  0  0
   -5.7360   -8.7600  -23.4690 H   0  0  0  0  0  0  0  0  0  0  0  0
   -5.5300   -8.7960  -21.6930 H   0  0  0  0  0  0  0  0  0  0  0  0
   -6.7320   -9.8570  -22.5200 H   0  0  0  0  0  0  0  0  0  0  0  0
  1  2  1  0  0  0  0
  1 56  1  0  0  0  0
  1 57  1  0  0  0  0
  1 58  1  0  0  0  0
  2  3  1  0  0  0  0
  2 54  2  0  0  0  0
  3  4  2  0  0  0  0
  3 55  1  0  0  0  0
  4  5  1  0  0  0  0
  4 53  1  0  0  0  0
  5  6  1  0  0  0  0
  5 51  1  0  0  0  0
  5 52  1  0  0  0  0
  6  7  1  0  0  0  0
  6 44  1  0  0  0  0
  7  8  1  0  0  0  0
  7 49  1  0  0  0  0
  7 50  1  0  0  0  0
  8  9  1  1  0  0  0
  8 29  1  0  0  0  0
  8 37  1  0  0  0  0
  9 10  2  0  0  0  0
  9 11  1  0  0  0  0
 11 12  1  0  0  0  0
 11 28  1  0  0  0  0
 12 13  2  0  0  0  0
 12 21  1  0  0  0  0
 13 14  1  0  0  0  0
 13 27  1  0  0  0  0
 14 15  2  0  0  0  0
 15 16  1  0  0  0  0
 15 26  1  0  0  0  0
 16 17  2  0  0  0  0
 16 21  1  0  0  0  0
 17 18  1  0  0  0  0
 17 25  1  0  0  0  0
 18 19  2  0  0  0  0
 18 24  1  0  0  0  0
 19 20  1  0  0  0  0
 19 23  1  0  0  0  0
 20 21  2  0  0  0  0
 20 22  1  0  0  0  0
 28 29  1  0  0  0  0
 28 35  1  0  0  0  0
 28 36  1  0  0  0  0
 29 30  1  0  0  0  0
 29 34  1  6  0  0  0
 30 31  1  0  0  0  0
 30 32  1  0  0  0  0
 30 33  1  0  0  0  0
 37 38  2  0  0  0  0
 37 43  1  0  0  0  0
 38 39  1  0  0  0  0
 38 48  1  0  0  0  0
 39 40  1  0  0  0  0
 39 41  2  0  0  0  0
 41 42  1  0  0  0  0
 41 47  1  0  0  0  0
 42 43  2  0  0  0  0
 42 46  1  0  0  0  0
 43 44  1  0  0  0  0
 44 45  2  0  0  0  0
 53 54  1  0  0  0  0
M  END
>  <MODEL>
       1

$$$$
