output/tmp_first_model_17_6.pdb
 OpenBabel07242622053D

 43 45  0  0  0  0  0  0  0  0999 V2000
  -14.3330   -1.2380  -24.9910 C   0  0  0  0  0  0  0  0  0  0  0  0
  -12.9130   -1.7650  -25.1880 C   0  0  0  0  0  0  0  0  0  0  0  0
  -11.9740   -1.5760  -23.9870 C   0  0  0  0  0  0  0  0  0  0  0  0
  -11.6390   -0.1090  -23.7360 C   0  0  0  0  0  0  0  0  0  0  0  0
  -10.6880    0.0220  -22.5580 C   0  0  0  0  0  0  0  0  0  0  0  0
   -9.4840   -0.8190  -22.6550 N   0  0  0  0  0  0  0  0  0  0  0  0
   -8.4680   -0.3970  -21.8060 C   0  0  0  0  0  0  0  0  0  0  0  0
   -8.4000    0.7660  -21.4510 O   0  0  0  0  0  0  0  0  0  0  0  0
   -7.4520   -1.4290  -21.2830 C   0  0  0  0  0  0  0  0  0  0  0  0
   -6.5870   -0.8460  -20.1970 C   0  0  0  0  0  0  0  0  0  0  0  0
   -6.8980   -1.0570  -18.8760 C   0  0  0  0  0  0  0  0  0  0  0  0
   -6.2160   -0.5500  -17.8160 N   0  0  0  0  0  0  0  0  0  0  0  0
   -5.1850    0.2070  -18.0780 C   0  0  0  0  0  0  0  0  0  0  0  0
   -4.7520    0.5300  -19.3910 C   0  0  0  0  0  0  0  0  0  0  0  0
   -3.6270    1.3580  -19.6260 C   0  0  0  0  0  0  0  0  0  0  0  0
   -3.2420    1.6600  -20.8990 C   0  0  0  0  0  0  0  0  0  0  0  0
   -3.9630    1.1420  -21.9980 C   0  0  0  0  0  0  0  0  0  0  0  0
   -5.0560    0.3350  -21.7990 C   0  0  0  0  0  0  0  0  0  0  0  0
   -5.4780    0.0010  -20.4860 C   0  0  0  0  0  0  0  0  0  0  0  0
   -5.6130   -0.0350  -22.6530 H   0  0  0  0  0  0  0  0  0  0  0  0
   -3.6410    1.3830  -23.0060 H   0  0  0  0  0  0  0  0  0  0  0  0
   -2.3780    2.2940  -21.0830 H   0  0  0  0  0  0  0  0  0  0  0  0
   -3.0850    1.7530  -18.7690 H   0  0  0  0  0  0  0  0  0  0  0  0
   -4.6280    0.6190  -17.2330 H   0  0  0  0  0  0  0  0  0  0  0  0
   -7.7490   -1.6810  -18.6120 H   0  0  0  0  0  0  0  0  0  0  0  0
   -8.0170   -2.2860  -20.8840 H   0  0  0  0  0  0  0  0  0  0  0  0
   -6.8470   -1.8020  -22.1210 H   0  0  0  0  0  0  0  0  0  0  0  0
   -9.7860   -2.2360  -22.8880 C   0  0  0  0  0  0  0  0  0  0  0  0
  -10.6590   -2.3570  -24.1350 C   0  0  0  0  0  0  0  0  0  0  0  0
  -10.8450   -3.4100  -24.3670 H   0  0  0  0  0  0  0  0  0  0  0  0
  -10.0880   -1.9740  -24.9880 H   0  0  0  0  0  0  0  0  0  0  0  0
  -10.3160   -2.6800  -22.0210 H   0  0  0  0  0  0  0  0  0  0  0  0
   -8.8650   -2.8160  -23.0190 H   0  0  0  0  0  0  0  0  0  0  0  0
  -11.2370   -0.2690  -21.6570 H   0  0  0  0  0  0  0  0  0  0  0  0
  -10.3690    1.0490  -22.4120 H   0  0  0  0  0  0  0  0  0  0  0  0
  -11.2270    0.3300  -24.6550 H   0  0  0  0  0  0  0  0  0  0  0  0
  -12.5510    0.4650  -23.5210 H   0  0  0  0  0  0  0  0  0  0  0  0
  -12.4810   -1.9410  -23.0750 H   0  0  0  0  0  0  0  0  0  0  0  0
  -12.9830   -2.8310  -25.4420 H   0  0  0  0  0  0  0  0  0  0  0  0
  -12.4770   -1.2720  -26.0670 H   0  0  0  0  0  0  0  0  0  0  0  0
  -14.8310   -1.7520  -24.1630 H   0  0  0  0  0  0  0  0  0  0  0  0
  -14.9290   -1.4070  -25.8940 H   0  0  0  0  0  0  0  0  0  0  0  0
  -14.3540   -0.1650  -24.7750 H   0  0  0  0  0  0  0  0  0  0  0  0
  1  2  1  0  0  0  0
  1 41  1  0  0  0  0
  1 42  1  0  0  0  0
  1 43  1  0  0  0  0
  2  3  1  0  0  0  0
  2 39  1  0  0  0  0
  2 40  1  0  0  0  0
  3  4  1  0  0  0  0
  3 29  1  0  0  0  0
  3 38  1  0  0  0  0
  4  5  1  0  0  0  0
  4 36  1  0  0  0  0
  4 37  1  0  0  0  0
  5  6  1  0  0  0  0
  5 34  1  0  0  0  0
  5 35  1  0  0  0  0
  6  7  1  0  0  0  0
  6 28  1  0  0  0  0
  7  8  2  0  0  0  0
  7  9  1  0  0  0  0
  9 10  1  0  0  0  0
  9 26  1  0  0  0  0
  9 27  1  0  0  0  0
 10 11  2  0  0  0  0
 10 19  1  0  0  0  0
 11 12  1  0  0  0  0
 11 25  1  0  0  0  0
 12 13  2  0  0  0  0
 13 14  1  0  0  0  0
 13 24  1  0  0  0  0
 14 15  2  0  0  0  0
 14 19  1  0  0  0  0
 15 16  1  0  0  0  0
 15 23  1  0  0  0  0
 16 17  2  0  0  0  0
 16 22  1  0  0  0  0
 17 18  1  0  0  0  0
 17 21  1  0  0  0  0
 18 19  2  0  0  0  0
 18 20  1  0  0  0  0
 28 29  1  0  0  0  0
 28 32  1  0  0  0  0
 28 33  1  0  0  0  0
 29 30  1  0  0  0  0
 29 31  1  0  0  0  0
M  END
>  <MODEL>
       1

$$$$
