output/tmp_first_model_15_23.pdb
 OpenBabel07242621043D

 68 73  0  0  1  0  0  0  0  0999 V2000
  -10.4550    1.5840  -27.0590 C   0  0  0  0  0  0  0  0  0  0  0  0
   -9.8950    0.3700  -26.4950 N   0  0  0  0  0  0  0  0  0  0  0  0
  -10.4200   -0.8310  -26.8680 C   0  0  0  0  0  0  0  0  0  0  0  0
  -11.2840   -0.8920  -27.7270 O   0  0  0  0  0  0  0  0  0  0  0  0
   -9.8340   -2.0880  -26.1910 C   0  0  0  0  0  0  0  0  0  0  0  0
  -10.0840   -2.2790  -24.7620 N   0  0  0  0  0  0  0  0  0  0  0  0
   -9.2590   -1.5380  -23.8030 C   0  0  0  0  0  0  0  0  0  0  0  0
   -8.9720   -2.2940  -22.4850 C   0  0  2  0  0  0  0  0  0  0  0  0
   -8.4310   -1.3030  -21.4590 C   0  0  0  0  0  0  0  0  0  0  0  0
   -9.0670   -0.4120  -20.9300 O   0  0  0  0  0  0  0  0  0  0  0  0
   -7.1160   -1.5890  -21.2030 N   0  0  0  0  0  0  0  0  0  0  0  0
   -6.4450   -0.9080  -20.1610 C   0  0  0  0  0  0  0  0  0  0  0  0
   -6.8500   -1.0590  -18.8590 C   0  0  0  0  0  0  0  0  0  0  0  0
   -6.2060   -0.5130  -17.7970 N   0  0  0  0  0  0  0  0  0  0  0  0
   -5.1560    0.2350  -18.0480 C   0  0  0  0  0  0  0  0  0  0  0  0
   -4.6730    0.5210  -19.3570 C   0  0  0  0  0  0  0  0  0  0  0  0
   -3.5620    1.3730  -19.5880 C   0  0  0  0  0  0  0  0  0  0  0  0
   -3.1810    1.6790  -20.8660 C   0  0  0  0  0  0  0  0  0  0  0  0
   -3.8880    1.1550  -21.9720 C   0  0  0  0  0  0  0  0  0  0  0  0
   -4.9550    0.3140  -21.7750 C   0  0  0  0  0  0  0  0  0  0  0  0
   -5.3510   -0.0410  -20.4580 C   0  0  0  0  0  0  0  0  0  0  0  0
   -5.5200   -0.0630  -22.6220 H   0  0  0  0  0  0  0  0  0  0  0  0
   -3.5950    1.4280  -22.9810 H   0  0  0  0  0  0  0  0  0  0  0  0
   -2.3400    2.3430  -21.0410 H   0  0  0  0  0  0  0  0  0  0  0  0
   -3.0480    1.7910  -18.7270 H   0  0  0  0  0  0  0  0  0  0  0  0
   -4.6370    0.6720  -17.1930 H   0  0  0  0  0  0  0  0  0  0  0  0
   -7.7290   -1.6540  -18.6190 H   0  0  0  0  0  0  0  0  0  0  0  0
   -6.5870   -2.6690  -22.0220 C   0  0  0  0  0  0  0  0  0  0  0  0
   -7.8500   -3.3780  -22.5450 C   0  0  2  0  0  0  0  0  0  0  0  0
   -7.6130   -4.0690  -23.8910 C   0  0  0  0  0  0  0  0  0  0  0  0
   -8.7250   -4.9280  -24.2240 N   0  0  0  0  0  0  0  0  0  0  0  0
   -8.8910   -5.4080  -25.5070 C   0  0  0  0  0  0  0  0  0  0  0  0
  -10.1250   -5.9590  -25.8880 C   0  0  0  0  0  0  0  0  0  0  0  0
  -10.3180   -6.4530  -27.1690 C   0  0  0  0  0  0  0  0  0  0  0  0
   -9.2970   -6.4070  -28.1120 C   0  0  0  0  0  0  0  0  0  0  0  0
   -8.0700   -5.8730  -27.7410 C   0  0  0  0  0  0  0  0  0  0  0  0
   -7.8550   -5.3850  -26.4580 C   0  0  0  0  0  0  0  0  0  0  0  0
   -6.8750   -4.9940  -26.1960 H   0  0  0  0  0  0  0  0  0  0  0  0
   -7.2570   -5.8330  -28.4630 H   0  0  0  0  0  0  0  0  0  0  0  0
   -9.4570   -6.7880  -29.1160 H   0  0  0  0  0  0  0  0  0  0  0  0
  -11.2820   -6.8810  -27.4320 H   0  0  0  0  0  0  0  0  0  0  0  0
  -10.9390   -6.0020  -25.1690 H   0  0  0  0  0  0  0  0  0  0  0  0
   -9.5830   -4.7930  -23.6780 H   0  0  0  0  0  0  0  0  0  0  0  0
   -6.6950   -4.6750  -23.8430 H   0  0  0  0  0  0  0  0  0  0  0  0
   -7.4400   -3.3080  -24.6710 H   0  0  0  0  0  0  0  0  0  0  0  0
   -8.1240   -4.1620  -21.8270 H   0  0  0  0  0  0  0  0  0  0  0  0
   -5.9440   -3.3270  -21.4260 H   0  0  0  0  0  0  0  0  0  0  0  0
   -5.9850   -2.2820  -22.8600 H   0  0  0  0  0  0  0  0  0  0  0  0
  -10.2750   -2.8400  -21.9170 C   0  0  0  0  0  0  0  0  0  0  0  0
  -10.6630   -4.0850  -22.3510 C   0  0  0  0  0  0  0  0  0  0  0  0
  -13.0950   -3.7610  -21.0600 C   0  0  0  0  0  0  0  0  0  0  0  0
  -13.8010   -4.6650  -23.3170 Cl  0  0  0  0  0  0  0  0  0  0  0  0
  -13.0320   -3.6050  -20.9070 C   0  0  0  0  0  0  0  0  0  0  0  0
  -12.9550   -3.2490  -22.4430 C   0  0  0  0  0  0  0  0  0  0  0  0
  -11.5120   -3.2150  -22.9880 C   0  0  0  0  0  0  0  0  0  0  0  0
  -11.3560   -2.6920  -24.3920 C   0  0  0  0  0  0  0  0  0  0  0  0
  -12.3120   -2.6050  -25.1400 O   0  0  0  0  0  0  0  0  0  0  0  0
  -13.5200   -2.3890  -22.8550 H   0  0  0  0  0  0  0  0  0  0  0  0
  -13.4630   -4.5090  -20.1410 H   0  0  0  0  0  0  0  0  0  0  0  0
  -10.6620   -2.4200  -20.9670 H   0  0  0  0  0  0  0  0  0  0  0  0
   -8.3110   -1.2710  -24.2790 H   0  0  0  0  0  0  0  0  0  0  0  0
   -9.7750   -0.6140  -23.5140 H   0  0  0  0  0  0  0  0  0  0  0  0
   -8.7450   -2.0810  -26.3310 H   0  0  0  0  0  0  0  0  0  0  0  0
  -10.2310   -2.9400  -26.7440 H   0  0  0  0  0  0  0  0  0  0  0  0
   -9.0670    0.4310  -25.9240 H   0  0  0  0  0  0  0  0  0  0  0  0
  -11.4450    1.7860  -26.6360 H   0  0  0  0  0  0  0  0  0  0  0  0
   -9.7960    2.4260  -26.8380 H   0  0  0  0  0  0  0  0  0  0  0  0
  -10.5670    1.4820  -28.1420 H   0  0  0  0  0  0  0  0  0  0  0  0
  1  2  1  0  0  0  0
  1 66  1  0  0  0  0
  1 67  1  0  0  0  0
  1 68  1  0  0  0  0
  2  3  1  0  0  0  0
  2 65  1  0  0  0  0
  3  4  2  0  0  0  0
  3  5  1  0  0  0  0
  5  6  1  0  0  0  0
  5 63  1  0  0  0  0
  5 64  1  0  0  0  0
  6  7  1  0  0  0  0
  6 56  1  0  0  0  0
  7  8  1  0  0  0  0
  7 61  1  0  0  0  0
  7 62  1  0  0  0  0
  8  9  1  1  0  0  0
  8 29  1  0  0  0  0
  8 49  1  0  0  0  0
  9 10  2  0  0  0  0
  9 11  1  0  0  0  0
 11 12  1  0  0  0  0
 11 28  1  0  0  0  0
 12 13  2  0  0  0  0
 12 21  1  0  0  0  0
 13 14  1  0  0  0  0
 13 27  1  0  0  0  0
 14 15  2  0  0  0  0
 15 16  1  0  0  0  0
 15 26  1  0  0  0  0
 16 17  2  0  0  0  0
 16 21  1  0  0  0  0
 17 18  1  0  0  0  0
 17 25  1  0  0  0  0
 18 19  2  0  0  0  0
 18 24  1  0  0  0  0
 19 20  1  0  0  0  0
 19 23  1  0  0  0  0
 20 21  2  0  0  0  0
 20 22  1  0  0  0  0
 28 29  1  0  0  0  0
 28 47  1  0  0  0  0
 28 48  1  0  0  0  0
 29 30  1  0  0  0  0
 29 46  1  1  0  0  0
 30 31  1  0  0  0  0
 30 44  1  0  0  0  0
 30 45  1  0  0  0  0
 31 32  1  0  0  0  0
 31 43  1  0  0  0  0
 32 33  2  0  0  0  0
 32 37  1  0  0  0  0
 33 34  1  0  0  0  0
 33 42  1  0  0  0  0
 34 35  2  0  0  0  0
 34 41  1  0  0  0  0
 35 36  1  0  0  0  0
 35 40  1  0  0  0  0
 36 37  2  0  0  0  0
 36 39  1  0  0  0  0
 37 38  1  0  0  0  0
 49 50  2  0  0  0  0
 49 55  1  0  0  0  0
 50 51  1  0  0  0  0
 50 60  1  0  0  0  0
 51 52  1  0  0  0  0
 51 53  2  0  0  0  0
 53 54  1  0  0  0  0
 53 59  1  0  0  0  0
 54 55  2  0  0  0  0
 54 58  1  0  0  0  0
 55 56  1  0  0  0  0
 56 57  2  0  0  0  0
M  END
>  <MODEL>
       1

$$$$
