output/tmp_first_model_8_52.pdb
 OpenBabel07242617113D

 57 60  0  0  0  0  0  0  0  0999 V2000
  -13.9300   -0.9480  -24.0610 C   0  0  0  0  0  0  0  0  0  0  0  0
  -12.9870   -2.0880  -23.6270 C   0  0  0  0  0  0  0  0  0  0  0  0
  -11.4910   -1.8270  -23.6010 C   0  0  0  0  0  0  0  0  0  0  0  0
  -10.8630   -1.6940  -22.5610 O   0  0  0  0  0  0  0  0  0  0  0  0
  -10.8950   -1.7600  -24.8360 N   0  0  0  0  0  0  0  0  0  0  0  0
   -9.4980   -1.6410  -24.9970 C   0  0  0  0  0  0  0  0  0  0  0  0
   -8.9700   -0.8770  -26.0370 C   0  0  0  0  0  0  0  0  0  0  0  0
   -7.5950   -0.6760  -26.0990 C   0  0  0  0  0  0  0  0  0  0  0  0
   -6.7390   -1.2600  -25.1680 C   0  0  0  0  0  0  0  0  0  0  0  0
   -7.2700   -2.0680  -24.1630 C   0  0  0  0  0  0  0  0  0  0  0  0
   -6.3970   -2.6890  -23.2130 N   0  0  0  0  0  0  0  0  0  0  0  0
   -5.4060   -3.6480  -23.7120 C   0  0  0  0  0  0  0  0  0  0  0  0
   -6.0490   -4.9700  -24.0810 C   0  0  0  0  0  0  0  0  0  0  0  0
   -6.6820   -5.1180  -25.3180 C   0  0  0  0  0  0  0  0  0  0  0  0
   -7.4410   -6.2490  -25.5970 C   0  0  0  0  0  0  0  0  0  0  0  0
   -7.5440   -7.2580  -24.6470 C   0  0  0  0  0  0  0  0  0  0  0  0
   -6.8240   -7.1680  -23.4590 C   0  0  0  0  0  0  0  0  0  0  0  0
   -6.0720   -6.0320  -23.1730 C   0  0  0  0  0  0  0  0  0  0  0  0
   -5.5110   -5.9680  -22.2390 H   0  0  0  0  0  0  0  0  0  0  0  0
   -6.8600   -7.9900  -22.7490 H   0  0  0  0  0  0  0  0  0  0  0  0
   -8.1670   -8.1300  -24.8430 H   0  0  0  0  0  0  0  0  0  0  0  0
   -7.9580   -6.3330  -26.5530 H   0  0  0  0  0  0  0  0  0  0  0  0
   -6.5860   -4.3420  -26.0790 H   0  0  0  0  0  0  0  0  0  0  0  0
   -4.6530   -3.7700  -22.9260 H   0  0  0  0  0  0  0  0  0  0  0  0
   -4.9190   -3.1950  -24.5820 H   0  0  0  0  0  0  0  0  0  0  0  0
   -6.6080   -2.6720  -21.8430 C   0  0  0  0  0  0  0  0  0  0  0  0
   -6.1310   -3.5280  -21.1220 O   0  0  0  0  0  0  0  0  0  0  0  0
   -7.3990   -1.4920  -21.2690 C   0  0  0  0  0  0  0  0  0  0  0  0
   -6.6090   -0.8300  -20.1740 C   0  0  0  0  0  0  0  0  0  0  0  0
   -6.9020   -1.0770  -18.8600 C   0  0  0  0  0  0  0  0  0  0  0  0
   -6.2180   -0.5750  -17.7990 N   0  0  0  0  0  0  0  0  0  0  0  0
   -5.1920    0.1970  -18.0630 C   0  0  0  0  0  0  0  0  0  0  0  0
   -4.7660    0.5360  -19.3770 C   0  0  0  0  0  0  0  0  0  0  0  0
   -3.6430    1.3690  -19.6020 C   0  0  0  0  0  0  0  0  0  0  0  0
   -3.2660    1.6960  -20.8740 C   0  0  0  0  0  0  0  0  0  0  0  0
   -3.9990    1.1970  -21.9730 C   0  0  0  0  0  0  0  0  0  0  0  0
   -5.0750    0.3650  -21.7840 C   0  0  0  0  0  0  0  0  0  0  0  0
   -5.4940    0.0130  -20.4710 C   0  0  0  0  0  0  0  0  0  0  0  0
   -5.5900   -0.0330  -22.6580 H   0  0  0  0  0  0  0  0  0  0  0  0
   -3.6930    1.4690  -22.9770 H   0  0  0  0  0  0  0  0  0  0  0  0
   -2.4040    2.3300  -21.0500 H   0  0  0  0  0  0  0  0  0  0  0  0
   -3.0980    1.7530  -18.7440 H   0  0  0  0  0  0  0  0  0  0  0  0
   -4.6400    0.6010  -17.2130 H   0  0  0  0  0  0  0  0  0  0  0  0
   -7.7470   -1.7160  -18.6020 H   0  0  0  0  0  0  0  0  0  0  0  0
   -7.6320   -0.7830  -22.0690 H   0  0  0  0  0  0  0  0  0  0  0  0
   -8.3580   -1.8770  -20.8870 H   0  0  0  0  0  0  0  0  0  0  0  0
   -8.6440   -2.2680  -24.0930 C   0  0  0  0  0  0  0  0  0  0  0  0
   -9.0590   -2.9080  -23.3270 H   0  0  0  0  0  0  0  0  0  0  0  0
   -5.6650   -1.0850  -25.2100 H   0  0  0  0  0  0  0  0  0  0  0  0
   -7.1810   -0.0460  -26.8810 H   0  0  0  0  0  0  0  0  0  0  0  0
   -9.6300   -0.4150  -26.7680 H   0  0  0  0  0  0  0  0  0  0  0  0
  -11.4570   -1.8320  -25.6710 H   0  0  0  0  0  0  0  0  0  0  0  0
  -13.2380   -2.3890  -22.6090 H   0  0  0  0  0  0  0  0  0  0  0  0
  -13.1440   -2.9560  -24.2790 H   0  0  0  0  0  0  0  0  0  0  0  0
  -14.9390   -1.3750  -24.1620 H   0  0  0  0  0  0  0  0  0  0  0  0
  -13.9570   -0.1540  -23.3020 H   0  0  0  0  0  0  0  0  0  0  0  0
  -13.6590   -0.4960  -25.0250 H   0  0  0  0  0  0  0  0  0  0  0  0
  1  2  1  0  0  0  0
  1 55  1  0  0  0  0
  1 56  1  0  0  0  0
  1 57  1  0  0  0  0
  2  3  1  0  0  0  0
  2 53  1  0  0  0  0
  2 54  1  0  0  0  0
  3  4  2  0  0  0  0
  3  5  1  0  0  0  0
  5  6  1  0  0  0  0
  5 52  1  0  0  0  0
  6  7  2  0  0  0  0
  6 47  1  0  0  0  0
  7  8  1  0  0  0  0
  7 51  1  0  0  0  0
  8  9  2  0  0  0  0
  8 50  1  0  0  0  0
  9 10  1  0  0  0  0
  9 49  1  0  0  0  0
 10 11  1  0  0  0  0
 10 47  2  0  0  0  0
 11 12  1  0  0  0  0
 11 26  1  0  0  0  0
 12 13  1  0  0  0  0
 12 24  1  0  0  0  0
 12 25  1  0  0  0  0
 13 14  2  0  0  0  0
 13 18  1  0  0  0  0
 14 15  1  0  0  0  0
 14 23  1  0  0  0  0
 15 16  2  0  0  0  0
 15 22  1  0  0  0  0
 16 17  1  0  0  0  0
 16 21  1  0  0  0  0
 17 18  2  0  0  0  0
 17 20  1  0  0  0  0
 18 19  1  0  0  0  0
 26 27  2  0  0  0  0
 26 28  1  0  0  0  0
 28 29  1  0  0  0  0
 28 45  1  0  0  0  0
 28 46  1  0  0  0  0
 29 30  2  0  0  0  0
 29 38  1  0  0  0  0
 30 31  1  0  0  0  0
 30 44  1  0  0  0  0
 31 32  2  0  0  0  0
 32 33  1  0  0  0  0
 32 43  1  0  0  0  0
 33 34  2  0  0  0  0
 33 38  1  0  0  0  0
 34 35  1  0  0  0  0
 34 42  1  0  0  0  0
 35 36  2  0  0  0  0
 35 41  1  0  0  0  0
 36 37  1  0  0  0  0
 36 40  1  0  0  0  0
 37 38  2  0  0  0  0
 37 39  1  0  0  0  0
 47 48  1  0  0  0  0
M  END
>  <MODEL>
       1

$$$$
