output/tmp_first_model_1_90.pdb
 OpenBabel07242613193D

 64 68  0  0  1  0  0  0  0  0999 V2000
   -5.6040    0.2390  -29.3900 C   0  0  0  0  0  0  0  0  0  0  0  0
   -5.5850    0.5380  -27.9760 N   0  0  0  0  0  0  0  0  0  0  0  0
   -4.9200   -0.2460  -27.0900 C   0  0  0  0  0  0  0  0  0  0  0  0
   -4.1920   -1.1680  -27.4160 O   0  0  0  0  0  0  0  0  0  0  0  0
   -5.1350    0.1210  -25.6060 C   0  0  0  0  0  0  0  0  0  0  0  0
   -6.3270   -0.4500  -24.9900 N   0  0  0  0  0  0  0  0  0  0  0  0
   -6.2350   -1.7350  -24.3000 C   0  0  0  0  0  0  0  0  0  0  0  0
   -7.3630   -1.9410  -23.2420 C   0  0  2  0  0  0  0  0  0  0  0  0
   -7.0770   -1.0710  -22.0110 C   0  0  0  0  0  0  0  0  0  0  0  0
   -7.4640    0.0580  -21.7970 O   0  0  0  0  0  0  0  0  0  0  0  0
   -6.2910   -1.8070  -21.1490 N   0  0  0  0  0  0  0  0  0  0  0  0
   -5.7770   -1.1600  -20.0050 C   0  0  0  0  0  0  0  0  0  0  0  0
   -6.2570   -1.4460  -18.7510 C   0  0  0  0  0  0  0  0  0  0  0  0
   -5.8770   -0.7990  -17.6220 N   0  0  0  0  0  0  0  0  0  0  0  0
   -4.9720    0.1440  -17.7380 C   0  0  0  0  0  0  0  0  0  0  0  0
   -4.3670    0.5150  -18.9710 C   0  0  0  0  0  0  0  0  0  0  0  0
   -3.3630    1.5160  -19.0390 C   0  0  0  0  0  0  0  0  0  0  0  0
   -2.8780    1.9340  -20.2470 C   0  0  0  0  0  0  0  0  0  0  0  0
   -3.3590    1.3500  -21.4410 C   0  0  0  0  0  0  0  0  0  0  0  0
   -4.2840    0.3410  -21.3960 C   0  0  0  0  0  0  0  0  0  0  0  0
   -4.8060   -0.1170  -20.1520 C   0  0  0  0  0  0  0  0  0  0  0  0
   -4.6360   -0.1100  -22.3180 H   0  0  0  0  0  0  0  0  0  0  0  0
   -3.0110    1.7090  -22.4050 H   0  0  0  0  0  0  0  0  0  0  0  0
   -2.1360    2.7240  -20.3040 H   0  0  0  0  0  0  0  0  0  0  0  0
   -3.0070    1.9590  -18.1140 H   0  0  0  0  0  0  0  0  0  0  0  0
   -4.6920    0.6820  -16.8300 H   0  0  0  0  0  0  0  0  0  0  0  0
   -7.0260   -2.2090  -18.6250 H   0  0  0  0  0  0  0  0  0  0  0  0
   -6.1320   -3.2000  -21.5650 C   0  0  0  0  0  0  0  0  0  0  0  0
   -7.2790   -3.3560  -22.5840 C   0  0  2  0  0  0  0  0  0  0  0  0
   -7.1620   -4.5110  -23.5800 C   0  0  0  0  0  0  0  0  0  0  0  0
   -7.3280   -6.1570  -22.8830 S   0  0  0  0  0  0  0  0  0  0  0  0
   -7.6140   -7.0660  -23.9820 O   0  0  0  0  0  0  0  0  0  0  0  0
   -8.2050   -6.1070  -21.7230 O   0  0  0  0  0  0  0  0  0  0  0  0
   -5.7590   -6.4540  -22.3250 N   0  0  0  0  0  0  0  0  0  0  0  0
   -5.6800   -7.5410  -21.3350 C   0  0  0  0  0  0  0  0  0  0  0  0
   -5.8360   -8.5330  -21.7770 H   0  0  0  0  0  0  0  0  0  0  0  0
   -4.6910   -7.5050  -20.8740 H   0  0  0  0  0  0  0  0  0  0  0  0
   -6.4340   -7.3580  -20.5700 H   0  0  0  0  0  0  0  0  0  0  0  0
   -5.1840   -6.6740  -23.1370 H   0  0  0  0  0  0  0  0  0  0  0  0
   -6.1940   -4.5140  -24.0930 H   0  0  0  0  0  0  0  0  0  0  0  0
   -7.9450   -4.4520  -24.3450 H   0  0  0  0  0  0  0  0  0  0  0  0
   -8.2000   -3.4980  -22.0120 H   0  0  0  0  0  0  0  0  0  0  0  0
   -6.1950   -3.8830  -20.7160 H   0  0  0  0  0  0  0  0  0  0  0  0
   -5.1670   -3.3640  -22.0650 H   0  0  0  0  0  0  0  0  0  0  0  0
   -8.6840   -1.5530  -23.8450 C   0  0  0  0  0  0  0  0  0  0  0  0
   -9.8990   -1.9170  -23.2580 C   0  0  0  0  0  0  0  0  0  0  0  0
  -11.0810   -1.5970  -23.9000 C   0  0  0  0  0  0  0  0  0  0  0  0
  -12.2320   -1.9820  -23.3270 F   0  0  0  0  0  0  0  0  0  0  0  0
  -11.1130   -0.9080  -25.1100 C   0  0  0  0  0  0  0  0  0  0  0  0
   -9.9210   -0.4260  -25.5980 C   0  0  0  0  0  0  0  0  0  0  0  0
   -8.7270   -0.6920  -24.9460 C   0  0  0  0  0  0  0  0  0  0  0  0
   -7.5200    0.0400  -25.4090 C   0  0  0  0  0  0  0  0  0  0  0  0
   -7.6020    1.0400  -26.1310 O   0  0  0  0  0  0  0  0  0  0  0  0
   -9.8800    0.1820  -26.4870 H   0  0  0  0  0  0  0  0  0  0  0  0
  -12.0360   -0.6860  -25.6270 H   0  0  0  0  0  0  0  0  0  0  0  0
   -9.9420   -2.3800  -22.2780 H   0  0  0  0  0  0  0  0  0  0  0  0
   -5.2650   -1.7900  -23.7920 H   0  0  0  0  0  0  0  0  0  0  0  0
   -6.2760   -2.5360  -25.0490 H   0  0  0  0  0  0  0  0  0  0  0  0
   -5.2170    1.2060  -25.4920 H   0  0  0  0  0  0  0  0  0  0  0  0
   -4.2640   -0.2580  -25.0740 H   0  0  0  0  0  0  0  0  0  0  0  0
   -6.3530    1.0790  -27.6000 H   0  0  0  0  0  0  0  0  0  0  0  0
   -4.5920    0.0710  -29.7680 H   0  0  0  0  0  0  0  0  0  0  0  0
   -6.1930   -0.6560  -29.6240 H   0  0  0  0  0  0  0  0  0  0  0  0
   -6.0400    1.1030  -29.8950 H   0  0  0  0  0  0  0  0  0  0  0  0
  1  2  1  0  0  0  0
  1 62  1  0  0  0  0
  1 63  1  0  0  0  0
  1 64  1  0  0  0  0
  2  3  1  0  0  0  0
  2 61  1  0  0  0  0
  3  4  2  0  0  0  0
  3  5  1  0  0  0  0
  5  6  1  0  0  0  0
  5 59  1  0  0  0  0
  5 60  1  0  0  0  0
  6  7  1  0  0  0  0
  6 52  1  0  0  0  0
  7  8  1  0  0  0  0
  7 57  1  0  0  0  0
  7 58  1  0  0  0  0
  8  9  1  1  0  0  0
  8 29  1  0  0  0  0
  8 45  1  0  0  0  0
  9 10  2  0  0  0  0
  9 11  1  0  0  0  0
 11 12  1  0  0  0  0
 11 28  1  0  0  0  0
 12 13  2  0  0  0  0
 12 21  1  0  0  0  0
 13 14  1  0  0  0  0
 13 27  1  0  0  0  0
 14 15  2  0  0  0  0
 15 16  1  0  0  0  0
 15 26  1  0  0  0  0
 16 17  2  0  0  0  0
 16 21  1  0  0  0  0
 17 18  1  0  0  0  0
 17 25  1  0  0  0  0
 18 19  2  0  0  0  0
 18 24  1  0  0  0  0
 19 20  1  0  0  0  0
 19 23  1  0  0  0  0
 20 21  2  0  0  0  0
 20 22  1  0  0  0  0
 28 29  1  0  0  0  0
 28 43  1  0  0  0  0
 28 44  1  0  0  0  0
 29 30  1  0  0  0  0
 29 42  1  1  0  0  0
 30 31  1  0  0  0  0
 30 40  1  0  0  0  0
 30 41  1  0  0  0  0
 31 32  2  0  0  0  0
 31 33  2  0  0  0  0
 31 34  1  0  0  0  0
 34 35  1  0  0  0  0
 34 39  1  0  0  0  0
 35 36  1  0  0  0  0
 35 37  1  0  0  0  0
 35 38  1  0  0  0  0
 45 46  2  0  0  0  0
 45 51  1  0  0  0  0
 46 47  1  0  0  0  0
 46 56  1  0  0  0  0
 47 48  1  0  0  0  0
 47 49  2  0  0  0  0
 49 50  1  0  0  0  0
 49 55  1  0  0  0  0
 50 51  2  0  0  0  0
 50 54  1  0  0  0  0
 51 52  1  0  0  0  0
 52 53  2  0  0  0  0
M  END
>  <MODEL>
       1

$$$$
