output/tmp_first_model_18_23.pdb
 OpenBabel07242622363D

 68 73  0  0  1  0  0  0  0  0999 V2000
  -10.4350    1.6510  -27.0580 C   0  0  0  0  0  0  0  0  0  0  0  0
   -9.7820    0.5180  -26.4360 N   0  0  0  0  0  0  0  0  0  0  0  0
  -10.1810   -0.7470  -26.7400 C   0  0  0  0  0  0  0  0  0  0  0  0
  -11.0860   -0.9610  -27.5290 O   0  0  0  0  0  0  0  0  0  0  0  0
   -9.3890   -1.8670  -26.0460 C   0  0  0  0  0  0  0  0  0  0  0  0
   -9.6870   -2.0110  -24.6250 N   0  0  0  0  0  0  0  0  0  0  0  0
   -8.8990   -1.2780  -23.6280 C   0  0  0  0  0  0  0  0  0  0  0  0
   -8.7530   -2.0210  -22.2590 C   0  0  2  0  0  0  0  0  0  0  0  0
   -8.1300   -1.0640  -21.2500 C   0  0  0  0  0  0  0  0  0  0  0  0
   -8.7040   -0.1420  -20.7070 O   0  0  0  0  0  0  0  0  0  0  0  0
   -6.8160   -1.4140  -21.0520 N   0  0  0  0  0  0  0  0  0  0  0  0
   -6.0740   -0.8240  -20.0010 C   0  0  0  0  0  0  0  0  0  0  0  0
   -6.4240   -1.0770  -18.7000 C   0  0  0  0  0  0  0  0  0  0  0  0
   -5.8100   -0.5330  -17.6230 N   0  0  0  0  0  0  0  0  0  0  0  0
   -4.8300    0.3090  -17.8530 C   0  0  0  0  0  0  0  0  0  0  0  0
   -4.3510    0.6430  -19.1530 C   0  0  0  0  0  0  0  0  0  0  0  0
   -3.2920    1.5660  -19.3540 C   0  0  0  0  0  0  0  0  0  0  0  0
   -2.8600    1.8580  -20.6180 C   0  0  0  0  0  0  0  0  0  0  0  0
   -3.4580    1.2400  -21.7370 C   0  0  0  0  0  0  0  0  0  0  0  0
   -4.4890    0.3480  -21.5690 C   0  0  0  0  0  0  0  0  0  0  0  0
   -4.9690    0.0390  -20.2700 C   0  0  0  0  0  0  0  0  0  0  0  0
   -4.9550   -0.1110  -22.4350 H   0  0  0  0  0  0  0  0  0  0  0  0
   -3.1070    1.4790  -22.7370 H   0  0  0  0  0  0  0  0  0  0  0  0
   -2.0570    2.5730  -20.7720 H   0  0  0  0  0  0  0  0  0  0  0  0
   -2.8500    2.0410  -18.4830 H   0  0  0  0  0  0  0  0  0  0  0  0
   -4.3600    0.7690  -16.9840 H   0  0  0  0  0  0  0  0  0  0  0  0
   -7.2460   -1.7560  -18.4830 H   0  0  0  0  0  0  0  0  0  0  0  0
   -6.4050   -2.5810  -21.8100 C   0  0  0  0  0  0  0  0  0  0  0  0
   -7.7270   -3.2080  -22.2860 C   0  0  2  0  0  0  0  0  0  0  0  0
   -7.4940   -3.9670  -23.5960 C   0  0  0  0  0  0  0  0  0  0  0  0
   -8.5770   -4.8490  -23.9470 N   0  0  0  0  0  0  0  0  0  0  0  0
   -8.7490   -5.3450  -25.2170 C   0  0  0  0  0  0  0  0  0  0  0  0
   -9.9630   -5.9640  -25.5680 C   0  0  0  0  0  0  0  0  0  0  0  0
  -10.1470   -6.4910  -26.8390 C   0  0  0  0  0  0  0  0  0  0  0  0
   -9.1490   -6.4110  -27.8050 C   0  0  0  0  0  0  0  0  0  0  0  0
   -7.9500   -5.7910  -27.4700 C   0  0  0  0  0  0  0  0  0  0  0  0
   -7.7450   -5.2640  -26.1990 C   0  0  0  0  0  0  0  0  0  0  0  0
   -6.7930   -4.7910  -25.9720 H   0  0  0  0  0  0  0  0  0  0  0  0
   -7.1570   -5.7110  -28.2100 H   0  0  0  0  0  0  0  0  0  0  0  0
   -9.3050   -6.8280  -28.7970 H   0  0  0  0  0  0  0  0  0  0  0  0
  -11.0930   -6.9710  -27.0820 H   0  0  0  0  0  0  0  0  0  0  0  0
  -10.7870   -5.9830  -24.8610 H   0  0  0  0  0  0  0  0  0  0  0  0
   -9.3590   -4.9490  -23.3240 H   0  0  0  0  0  0  0  0  0  0  0  0
   -6.5560   -4.5370  -23.5040 H   0  0  0  0  0  0  0  0  0  0  0  0
   -7.3300   -3.2500  -24.4110 H   0  0  0  0  0  0  0  0  0  0  0  0
   -8.0720   -3.9230  -21.5300 H   0  0  0  0  0  0  0  0  0  0  0  0
   -5.8190   -3.2640  -21.1840 H   0  0  0  0  0  0  0  0  0  0  0  0
   -5.7780   -2.2950  -22.6710 H   0  0  0  0  0  0  0  0  0  0  0  0
  -10.1310   -2.4000  -21.7220 C   0  0  0  0  0  0  0  0  0  0  0  0
  -10.6000   -3.6320  -22.0290 C   0  0  0  0  0  0  0  0  0  0  0  0
  -13.1290   -2.6660  -21.4790 C   0  0  0  0  0  0  0  0  0  0  0  0
  -14.3900   -4.7770  -21.3230 Cl  0  0  0  0  0  0  0  0  0  0  0  0
  -13.2750   -2.8870  -21.4700 C   0  0  0  0  0  0  0  0  0  0  0  0
  -12.7040   -2.5610  -22.7780 C   0  0  0  0  0  0  0  0  0  0  0  0
  -11.2410   -2.8790  -22.9420 C   0  0  0  0  0  0  0  0  0  0  0  0
  -10.8010   -2.7680  -24.3350 C   0  0  0  0  0  0  0  0  0  0  0  0
  -11.4030   -3.3560  -25.2180 O   0  0  0  0  0  0  0  0  0  0  0  0
  -13.1580   -1.9690  -23.5860 H   0  0  0  0  0  0  0  0  0  0  0  0
  -13.5030   -2.3910  -20.3440 H   0  0  0  0  0  0  0  0  0  0  0  0
  -10.6970   -1.8560  -20.9470 H   0  0  0  0  0  0  0  0  0  0  0  0
   -7.8950   -1.0960  -24.0300 H   0  0  0  0  0  0  0  0  0  0  0  0
   -9.3430   -0.2950  -23.4210 H   0  0  0  0  0  0  0  0  0  0  0  0
   -8.3140   -1.6840  -26.1630 H   0  0  0  0  0  0  0  0  0  0  0  0
   -9.6480   -2.8000  -26.5500 H   0  0  0  0  0  0  0  0  0  0  0  0
   -9.0670    0.6870  -25.7460 H   0  0  0  0  0  0  0  0  0  0  0  0
  -11.4480    1.7950  -26.6660 H   0  0  0  0  0  0  0  0  0  0  0  0
   -9.8480    2.5520  -26.8630 H   0  0  0  0  0  0  0  0  0  0  0  0
  -10.5060    1.4920  -28.1380 H   0  0  0  0  0  0  0  0  0  0  0  0
  1  2  1  0  0  0  0
  1 66  1  0  0  0  0
  1 67  1  0  0  0  0
  1 68  1  0  0  0  0
  2  3  1  0  0  0  0
  2 65  1  0  0  0  0
  3  4  2  0  0  0  0
  3  5  1  0  0  0  0
  5  6  1  0  0  0  0
  5 63  1  0  0  0  0
  5 64  1  0  0  0  0
  6  7  1  0  0  0  0
  6 56  1  0  0  0  0
  7  8  1  0  0  0  0
  7 61  1  0  0  0  0
  7 62  1  0  0  0  0
  8  9  1  1  0  0  0
  8 29  1  0  0  0  0
  8 49  1  0  0  0  0
  9 10  2  0  0  0  0
  9 11  1  0  0  0  0
 11 12  1  0  0  0  0
 11 28  1  0  0  0  0
 12 13  2  0  0  0  0
 12 21  1  0  0  0  0
 13 14  1  0  0  0  0
 13 27  1  0  0  0  0
 14 15  2  0  0  0  0
 15 16  1  0  0  0  0
 15 26  1  0  0  0  0
 16 17  2  0  0  0  0
 16 21  1  0  0  0  0
 17 18  1  0  0  0  0
 17 25  1  0  0  0  0
 18 19  2  0  0  0  0
 18 24  1  0  0  0  0
 19 20  1  0  0  0  0
 19 23  1  0  0  0  0
 20 21  2  0  0  0  0
 20 22  1  0  0  0  0
 28 29  1  0  0  0  0
 28 47  1  0  0  0  0
 28 48  1  0  0  0  0
 29 30  1  0  0  0  0
 29 46  1  1  0  0  0
 30 31  1  0  0  0  0
 30 44  1  0  0  0  0
 30 45  1  0  0  0  0
 31 32  1  0  0  0  0
 31 43  1  0  0  0  0
 32 33  2  0  0  0  0
 32 37  1  0  0  0  0
 33 34  1  0  0  0  0
 33 42  1  0  0  0  0
 34 35  2  0  0  0  0
 34 41  1  0  0  0  0
 35 36  1  0  0  0  0
 35 40  1  0  0  0  0
 36 37  2  0  0  0  0
 36 39  1  0  0  0  0
 37 38  1  0  0  0  0
 49 50  2  0  0  0  0
 49 55  1  0  0  0  0
 50 51  1  0  0  0  0
 50 60  1  0  0  0  0
 51 52  1  0  0  0  0
 51 53  2  0  0  0  0
 53 54  1  0  0  0  0
 53 59  1  0  0  0  0
 54 55  2  0  0  0  0
 54 58  1  0  0  0  0
 55 56  1  0  0  0  0
 56 57  2  0  0  0  0
M  END
>  <MODEL>
       1

$$$$
