output/tmp_first_model_4_64.pdb
 OpenBabel07242615033D

 55 60  0  0  1  0  0  0  0  0999 V2000
   -8.6140   -4.1910  -23.7610 C   0  0  0  0  0  0  0  0  0  0  0  0
   -8.6650   -3.2830  -22.5430 C   0  0  1  0  0  0  0  0  0  0  0  0
   -7.2810   -2.7580  -22.1560 C   0  0  0  0  0  0  0  0  0  0  0  0
   -7.6060   -1.6560  -21.2770 N   0  0  0  0  0  0  0  0  0  0  0  0
   -6.7160   -1.2400  -20.2490 C   0  0  0  0  0  0  0  0  0  0  0  0
   -6.8690   -1.6620  -18.9510 C   0  0  0  0  0  0  0  0  0  0  0  0
   -5.9440   -1.4840  -17.9720 N   0  0  0  0  0  0  0  0  0  0  0  0
   -4.8270   -0.8830  -18.2930 C   0  0  0  0  0  0  0  0  0  0  0  0
   -4.5270   -0.4010  -19.5960 C   0  0  0  0  0  0  0  0  0  0  0  0
   -3.2800    0.2050  -19.9060 C   0  0  0  0  0  0  0  0  0  0  0  0
   -3.0390    0.6720  -21.1700 C   0  0  0  0  0  0  0  0  0  0  0  0
   -4.0520    0.6110  -22.1550 C   0  0  0  0  0  0  0  0  0  0  0  0
   -5.2760    0.0590  -21.8600 C   0  0  0  0  0  0  0  0  0  0  0  0
   -5.5170   -0.5310  -20.5930 C   0  0  0  0  0  0  0  0  0  0  0  0
   -6.0920    0.0960  -22.5720 H   0  0  0  0  0  0  0  0  0  0  0  0
   -3.8670    1.0240  -23.1430 H   0  0  0  0  0  0  0  0  0  0  0  0
   -2.0840    1.1320  -21.4090 H   0  0  0  0  0  0  0  0  0  0  0  0
   -2.5510    0.3100  -19.1060 H   0  0  0  0  0  0  0  0  0  0  0  0
   -4.0880   -0.7550  -17.5010 H   0  0  0  0  0  0  0  0  0  0  0  0
   -7.7680   -2.2040  -18.6670 H   0  0  0  0  0  0  0  0  0  0  0  0
   -8.8780   -1.1490  -21.4750 C   0  0  0  0  0  0  0  0  0  0  0  0
   -9.3190   -0.1740  -20.9150 O   0  0  0  0  0  0  0  0  0  0  0  0
   -9.5780   -2.0230  -22.5730 C   0  0  1  0  0  0  0  0  0  0  0  0
   -9.4980   -1.2640  -23.9140 C   0  0  0  0  0  0  0  0  0  0  0  0
  -10.3550   -0.0930  -23.9080 N   0  0  0  0  0  0  0  0  0  0  0  0
   -9.9570    0.9650  -24.7990 C   0  0  0  0  0  0  0  0  0  0  0  0
   -9.9890    0.5040  -26.2270 C   0  0  0  0  0  0  0  0  0  0  0  0
  -10.9720   -0.3020  -26.7310 N   0  0  0  0  0  0  0  0  0  0  0  0
  -10.6250   -0.4210  -27.9960 C   0  0  0  0  0  0  0  0  0  0  0  0
   -9.4750    0.2390  -28.2210 N   0  0  0  0  0  0  0  0  0  0  0  0
   -9.0610    0.8550  -27.0890 N   0  0  0  0  0  0  0  0  0  0  0  0
   -8.9850    0.3810  -29.0860 H   0  0  0  0  0  0  0  0  0  0  0  0
  -11.1730   -0.9520  -28.7620 H   0  0  0  0  0  0  0  0  0  0  0  0
   -8.9380    1.2910  -24.5580 H   0  0  0  0  0  0  0  0  0  0  0  0
  -10.6550    1.7940  -24.6460 H   0  0  0  0  0  0  0  0  0  0  0  0
  -11.6610   -0.1460  -23.5100 C   0  0  0  0  0  0  0  0  0  0  0  0
  -12.4610    0.7490  -23.7570 O   0  0  0  0  0  0  0  0  0  0  0  0
  -12.0370   -1.3740  -22.7600 C   0  0  0  0  0  0  0  0  0  0  0  0
  -13.3930   -1.5790  -22.5050 C   0  0  0  0  0  0  0  0  0  0  0  0
  -13.8170   -2.6140  -21.7040 C   0  0  0  0  0  0  0  0  0  0  0  0
  -12.8340   -3.4300  -21.1580 C   0  0  0  0  0  0  0  0  0  0  0  0
  -13.1960   -4.3110  -20.2130 F   0  0  0  0  0  0  0  0  0  0  0  0
  -11.4960   -3.3250  -21.4990 C   0  0  0  0  0  0  0  0  0  0  0  0
  -11.0570   -2.2700  -22.2990 C   0  0  0  0  0  0  0  0  0  0  0  0
  -10.8030   -4.0380  -21.0690 H   0  0  0  0  0  0  0  0  0  0  0  0
  -14.8660   -2.7970  -21.4920 H   0  0  0  0  0  0  0  0  0  0  0  0
  -14.1020   -0.8710  -22.9190 H   0  0  0  0  0  0  0  0  0  0  0  0
   -9.7760   -1.9300  -24.7420 H   0  0  0  0  0  0  0  0  0  0  0  0
   -8.4770   -0.9260  -24.1070 H   0  0  0  0  0  0  0  0  0  0  0  0
   -6.6730   -3.5110  -21.6400 H   0  0  0  0  0  0  0  0  0  0  0  0
   -6.7140   -2.4270  -23.0410 H   0  0  0  0  0  0  0  0  0  0  0  0
   -8.9950   -3.8690  -21.6810 H   0  0  0  0  0  0  0  0  0  0  0  0
   -9.5740   -4.6790  -23.9430 H   0  0  0  0  0  0  0  0  0  0  0  0
   -8.3320   -3.6380  -24.6610 H   0  0  0  0  0  0  0  0  0  0  0  0
   -7.8560   -4.9680  -23.6080 H   0  0  0  0  0  0  0  0  0  0  0  0
  1  2  1  0  0  0  0
  1 53  1  0  0  0  0
  1 54  1  0  0  0  0
  1 55  1  0  0  0  0
  2  3  1  0  0  0  0
  2 23  1  0  0  0  0
  2 52  1  1  0  0  0
  3  4  1  0  0  0  0
  3 50  1  0  0  0  0
  3 51  1  0  0  0  0
  4  5  1  0  0  0  0
  4 21  1  0  0  0  0
  5  6  2  0  0  0  0
  5 14  1  0  0  0  0
  6  7  1  0  0  0  0
  6 20  1  0  0  0  0
  7  8  2  0  0  0  0
  8  9  1  0  0  0  0
  8 19  1  0  0  0  0
  9 10  2  0  0  0  0
  9 14  1  0  0  0  0
 10 11  1  0  0  0  0
 10 18  1  0  0  0  0
 11 12  2  0  0  0  0
 11 17  1  0  0  0  0
 12 13  1  0  0  0  0
 12 16  1  0  0  0  0
 13 14  2  0  0  0  0
 13 15  1  0  0  0  0
 21 22  2  0  0  0  0
 23 21  1  1  0  0  0
 23 24  1  0  0  0  0
 23 44  1  0  0  0  0
 24 25  1  0  0  0  0
 24 48  1  0  0  0  0
 24 49  1  0  0  0  0
 25 26  1  0  0  0  0
 25 36  1  0  0  0  0
 26 27  1  0  0  0  0
 26 34  1  0  0  0  0
 26 35  1  0  0  0  0
 27 28  1  0  0  0  0
 27 31  2  0  0  0  0
 28 29  2  0  0  0  0
 29 30  1  0  0  0  0
 29 33  1  0  0  0  0
 30 31  1  0  0  0  0
 30 32  1  0  0  0  0
 36 37  2  0  0  0  0
 36 38  1  0  0  0  0
 38 39  2  0  0  0  0
 38 44  1  0  0  0  0
 39 40  1  0  0  0  0
 39 47  1  0  0  0  0
 40 41  2  0  0  0  0
 40 46  1  0  0  0  0
 41 42  1  0  0  0  0
 41 43  1  0  0  0  0
 43 44  2  0  0  0  0
 43 45  1  0  0  0  0
M  END
>  <MODEL>
       1

$$$$
