output/tmp_first_model_4_10.pdb
 OpenBabel07242615033D

 57 62  0  0  1  0  0  0  0  0999 V2000
   -8.5290   -4.2290  -23.6990 C   0  0  0  0  0  0  0  0  0  0  0  0
   -8.5910   -3.3360  -22.4690 C   0  0  1  0  0  0  0  0  0  0  0  0
   -7.2180   -2.7750  -22.0800 C   0  0  0  0  0  0  0  0  0  0  0  0
   -7.5740   -1.6590  -21.2270 N   0  0  0  0  0  0  0  0  0  0  0  0
   -6.7020   -1.1900  -20.2090 C   0  0  0  0  0  0  0  0  0  0  0  0
   -6.8670   -1.5730  -18.9000 C   0  0  0  0  0  0  0  0  0  0  0  0
   -5.9590   -1.3410  -17.9190 N   0  0  0  0  0  0  0  0  0  0  0  0
   -4.8510   -0.7210  -18.2380 C   0  0  0  0  0  0  0  0  0  0  0  0
   -4.5500   -0.2670  -19.5510 C   0  0  0  0  0  0  0  0  0  0  0  0
   -3.3180    0.3650  -19.8580 C   0  0  0  0  0  0  0  0  0  0  0  0
   -3.0690    0.8080  -21.1290 C   0  0  0  0  0  0  0  0  0  0  0  0
   -4.0560    0.6760  -22.1320 C   0  0  0  0  0  0  0  0  0  0  0  0
   -5.2590    0.0780  -21.8450 C   0  0  0  0  0  0  0  0  0  0  0  0
   -5.5170   -0.4610  -20.5580 C   0  0  0  0  0  0  0  0  0  0  0  0
   -6.0520    0.0420  -22.5840 H   0  0  0  0  0  0  0  0  0  0  0  0
   -3.8670    1.0670  -23.1300 H   0  0  0  0  0  0  0  0  0  0  0  0
   -2.1300    1.3010  -21.3610 H   0  0  0  0  0  0  0  0  0  0  0  0
   -2.6080    0.5150  -19.0490 H   0  0  0  0  0  0  0  0  0  0  0  0
   -4.1220   -0.5560  -17.4460 H   0  0  0  0  0  0  0  0  0  0  0  0
   -7.7520   -2.1340  -18.6060 H   0  0  0  0  0  0  0  0  0  0  0  0
   -8.8620   -1.1970  -21.4270 C   0  0  0  0  0  0  0  0  0  0  0  0
   -9.3350   -0.2240  -20.8890 O   0  0  0  0  0  0  0  0  0  0  0  0
   -9.5350   -2.0940  -22.5140 C   0  0  1  0  0  0  0  0  0  0  0  0
   -9.4300   -1.3230  -23.8480 C   0  0  0  0  0  0  0  0  0  0  0  0
  -10.3620   -0.2070  -23.8830 N   0  0  0  0  0  0  0  0  0  0  0  0
   -9.9350    0.9380  -24.6750 C   0  0  0  0  0  0  0  0  0  0  0  0
   -9.9720    0.6130  -26.1390 C   0  0  0  0  0  0  0  0  0  0  0  0
   -9.0260    0.5940  -27.1010 C   0  0  0  0  0  0  0  0  0  0  0  0
   -9.5930    0.0090  -28.2140 N   0  3  0  0  0  0  0  0  0  0  0  0
  -10.8700   -0.2820  -27.9380 C   0  0  0  0  0  0  0  0  0  0  0  0
  -11.1300    0.0980  -26.6860 N   0  0  0  0  0  0  0  0  0  0  0  0
  -12.0140    0.1290  -26.1700 H   0  0  0  0  0  0  0  0  0  0  0  0
  -11.5730   -0.7630  -28.5970 H   0  0  0  0  0  0  0  0  0  0  0  0
   -9.1090   -0.1090  -29.0990 H   0  0  0  0  0  0  0  0  0  0  0  0
   -8.0060    0.9510  -27.1060 H   0  0  0  0  0  0  0  0  0  0  0  0
   -8.9250    1.2220  -24.3530 H   0  0  0  0  0  0  0  0  0  0  0  0
  -10.6060    1.7660  -24.4290 H   0  0  0  0  0  0  0  0  0  0  0  0
  -11.6950   -0.4200  -23.6900 C   0  0  0  0  0  0  0  0  0  0  0  0
  -12.5690    0.2630  -24.2300 O   0  0  0  0  0  0  0  0  0  0  0  0
  -12.0200   -1.5510  -22.7850 C   0  0  0  0  0  0  0  0  0  0  0  0
  -13.3650   -1.7670  -22.4790 C   0  0  0  0  0  0  0  0  0  0  0  0
  -13.7550   -2.7390  -21.5890 C   0  0  0  0  0  0  0  0  0  0  0  0
  -12.7530   -3.5290  -21.0490 C   0  0  0  0  0  0  0  0  0  0  0  0
  -13.0920   -4.3670  -20.0570 F   0  0  0  0  0  0  0  0  0  0  0  0
  -11.4310   -3.4370  -21.4530 C   0  0  0  0  0  0  0  0  0  0  0  0
  -11.0120   -2.3780  -22.2620 C   0  0  0  0  0  0  0  0  0  0  0  0
  -10.7140   -4.1370  -21.0390 H   0  0  0  0  0  0  0  0  0  0  0  0
  -14.7970   -2.8980  -21.3290 H   0  0  0  0  0  0  0  0  0  0  0  0
  -14.1050   -1.1310  -22.9370 H   0  0  0  0  0  0  0  0  0  0  0  0
   -9.6250   -2.0050  -24.6850 H   0  0  0  0  0  0  0  0  0  0  0  0
   -8.4230   -0.9160  -23.9800 H   0  0  0  0  0  0  0  0  0  0  0  0
   -6.5920   -3.5010  -21.5420 H   0  0  0  0  0  0  0  0  0  0  0  0
   -6.6530   -2.4470  -22.9690 H   0  0  0  0  0  0  0  0  0  0  0  0
   -8.9020   -3.9430  -21.6110 H   0  0  0  0  0  0  0  0  0  0  0  0
   -9.5050   -4.6770  -23.9080 H   0  0  0  0  0  0  0  0  0  0  0  0
   -8.2120   -3.6670  -24.5840 H   0  0  0  0  0  0  0  0  0  0  0  0
   -7.7970   -5.0330  -23.5530 H   0  0  0  0  0  0  0  0  0  0  0  0
  1  2  1  0  0  0  0
  1 55  1  0  0  0  0
  1 56  1  0  0  0  0
  1 57  1  0  0  0  0
  2  3  1  0  0  0  0
  2 23  1  0  0  0  0
  2 54  1  1  0  0  0
  3  4  1  0  0  0  0
  3 52  1  0  0  0  0
  3 53  1  0  0  0  0
  4  5  1  0  0  0  0
  4 21  1  0  0  0  0
  5  6  2  0  0  0  0
  5 14  1  0  0  0  0
  6  7  1  0  0  0  0
  6 20  1  0  0  0  0
  7  8  2  0  0  0  0
  8  9  1  0  0  0  0
  8 19  1  0  0  0  0
  9 10  2  0  0  0  0
  9 14  1  0  0  0  0
 10 11  1  0  0  0  0
 10 18  1  0  0  0  0
 11 12  2  0  0  0  0
 11 17  1  0  0  0  0
 12 13  1  0  0  0  0
 12 16  1  0  0  0  0
 13 14  2  0  0  0  0
 13 15  1  0  0  0  0
 21 22  2  0  0  0  0
 23 21  1  1  0  0  0
 23 24  1  0  0  0  0
 23 46  1  0  0  0  0
 24 25  1  0  0  0  0
 24 50  1  0  0  0  0
 24 51  1  0  0  0  0
 25 26  1  0  0  0  0
 25 38  1  0  0  0  0
 26 27  1  0  0  0  0
 26 36  1  0  0  0  0
 26 37  1  0  0  0  0
 27 28  2  0  0  0  0
 27 31  1  0  0  0  0
 28 29  1  0  0  0  0
 28 35  1  0  0  0  0
 29 30  2  0  0  0  0
 29 34  1  0  0  0  0
 30 31  1  0  0  0  0
 30 33  1  0  0  0  0
 31 32  1  0  0  0  0
 38 39  2  0  0  0  0
 38 40  1  0  0  0  0
 40 41  2  0  0  0  0
 40 46  1  0  0  0  0
 41 42  1  0  0  0  0
 41 49  1  0  0  0  0
 42 43  2  0  0  0  0
 42 48  1  0  0  0  0
 43 44  1  0  0  0  0
 43 45  1  0  0  0  0
 45 46  2  0  0  0  0
 45 47  1  0  0  0  0
M  CHG  1  29   1
M  END
>  <MODEL>
       1

$$$$
