output/tmp_first_model_3_84.pdb
 OpenBabel07242614263D

 63 68  0  0  1  0  0  0  0  0999 V2000
   -8.3350   -4.1880  -23.4480 C   0  0  0  0  0  0  0  0  0  0  0  0
   -8.5570   -2.9830  -22.5520 C   0  0  1  0  0  0  0  0  0  0  0  0
   -7.4040   -2.7770  -21.5650 C   0  0  0  0  0  0  0  0  0  0  0  0
   -7.4730   -1.3650  -21.2540 N   0  0  0  0  0  0  0  0  0  0  0  0
   -6.6910   -0.7730  -20.2290 C   0  0  0  0  0  0  0  0  0  0  0  0
   -7.0100   -1.0270  -18.9190 C   0  0  0  0  0  0  0  0  0  0  0  0
   -6.3440   -0.5340  -17.8470 N   0  0  0  0  0  0  0  0  0  0  0  0
   -5.2980    0.2210  -18.0880 C   0  0  0  0  0  0  0  0  0  0  0  0
   -4.8260    0.5320  -19.3950 C   0  0  0  0  0  0  0  0  0  0  0  0
   -3.6670    1.3300  -19.5920 C   0  0  0  0  0  0  0  0  0  0  0  0
   -3.2100    1.5900  -20.8540 C   0  0  0  0  0  0  0  0  0  0  0  0
   -3.8910    1.0670  -21.9760 C   0  0  0  0  0  0  0  0  0  0  0  0
   -5.0200    0.3030  -21.8120 C   0  0  0  0  0  0  0  0  0  0  0  0
   -5.5280    0.0210  -20.5120 C   0  0  0  0  0  0  0  0  0  0  0  0
   -5.5400   -0.0850  -22.6850 H   0  0  0  0  0  0  0  0  0  0  0  0
   -3.5200    1.2790  -22.9740 H   0  0  0  0  0  0  0  0  0  0  0  0
   -2.3250    2.2050  -21.0030 H   0  0  0  0  0  0  0  0  0  0  0  0
   -3.1630    1.7340  -18.7180 H   0  0  0  0  0  0  0  0  0  0  0  0
   -4.7590    0.6180  -17.2270 H   0  0  0  0  0  0  0  0  0  0  0  0
   -7.8690   -1.6590  -18.6940 H   0  0  0  0  0  0  0  0  0  0  0  0
   -8.2230   -0.6370  -22.1540 C   0  0  0  0  0  0  0  0  0  0  0  0
   -8.3740    0.5650  -22.0940 O   0  0  0  0  0  0  0  0  0  0  0  0
   -8.7680   -1.5920  -23.2440 C   0  0  1  0  0  0  0  0  0  0  0  0
   -7.9030   -1.3540  -24.5050 C   0  0  0  0  0  0  0  0  0  0  0  0
   -8.5160   -1.7820  -25.7590 N   0  0  0  0  0  0  0  0  0  0  0  0
   -7.6300   -2.1080  -26.8730 C   0  0  0  0  0  0  0  0  0  0  0  0
   -7.5330   -3.6140  -27.1170 C   0  0  0  0  0  0  0  0  0  0  0  0
   -6.5620   -4.2560  -26.7460 O   0  0  0  0  0  0  0  0  0  0  0  0
   -8.6090   -4.1570  -27.7570 N   0  0  0  0  0  0  0  0  0  0  0  0
   -8.8860   -5.5820  -27.7940 C   0  0  0  0  0  0  0  0  0  0  0  0
   -9.7680   -6.0110  -26.7090 C   0  0  0  0  0  0  0  0  0  0  0  0
   -9.2110   -5.9090  -25.4510 F   0  0  0  0  0  0  0  0  0  0  0  0
  -10.6940   -6.9920  -26.7040 C   0  0  0  0  0  0  0  0  0  0  0  0
  -10.8970   -6.9860  -26.9470 C   0  0  0  0  0  0  0  0  0  0  0  0
  -11.2820   -6.8340  -28.4640 H   0  0  0  0  0  0  0  0  0  0  0  0
  -10.5880   -8.2470  -26.9390 H   0  0  0  0  0  0  0  0  0  0  0  0
  -12.0420   -6.5090  -26.9160 H   0  0  0  0  0  0  0  0  0  0  0  0
  -10.8110   -7.2640  -25.5560 H   0  0  0  0  0  0  0  0  0  0  0  0
   -9.2820   -5.8180  -28.7900 H   0  0  0  0  0  0  0  0  0  0  0  0
   -7.9460   -6.1150  -27.6520 H   0  0  0  0  0  0  0  0  0  0  0  0
   -9.4050   -3.5430  -27.8860 H   0  0  0  0  0  0  0  0  0  0  0  0
   -8.0030   -1.6020  -27.7670 H   0  0  0  0  0  0  0  0  0  0  0  0
   -6.6320   -1.7280  -26.6380 H   0  0  0  0  0  0  0  0  0  0  0  0
   -9.8500   -1.6920  -26.0160 C   0  0  0  0  0  0  0  0  0  0  0  0
  -10.3170   -1.9370  -27.1330 O   0  0  0  0  0  0  0  0  0  0  0  0
  -10.7170   -1.3030  -24.8720 C   0  0  0  0  0  0  0  0  0  0  0  0
  -12.0560   -1.0130  -25.1310 C   0  0  0  0  0  0  0  0  0  0  0  0
  -12.9340   -0.7720  -24.0950 C   0  0  0  0  0  0  0  0  0  0  0  0
  -12.4450   -0.8460  -22.7970 C   0  0  0  0  0  0  0  0  0  0  0  0
  -13.3110   -0.6700  -21.7890 F   0  0  0  0  0  0  0  0  0  0  0  0
  -11.1180   -1.1020  -22.5140 C   0  0  0  0  0  0  0  0  0  0  0  0
  -10.2190   -1.3070  -23.5650 C   0  0  0  0  0  0  0  0  0  0  0  0
  -10.7870   -1.1370  -21.4820 H   0  0  0  0  0  0  0  0  0  0  0  0
  -13.9840   -0.5530  -24.2600 H   0  0  0  0  0  0  0  0  0  0  0  0
  -12.3910   -1.0140  -26.1630 H   0  0  0  0  0  0  0  0  0  0  0  0
   -7.6630   -0.2820  -24.5550 H   0  0  0  0  0  0  0  0  0  0  0  0
   -6.9570   -1.8990  -24.4000 H   0  0  0  0  0  0  0  0  0  0  0  0
   -6.4360   -3.0380  -22.0210 H   0  0  0  0  0  0  0  0  0  0  0  0
   -7.5140   -3.3830  -20.6580 H   0  0  0  0  0  0  0  0  0  0  0  0
   -9.4700   -3.1600  -21.9640 H   0  0  0  0  0  0  0  0  0  0  0  0
   -9.2170   -4.3920  -24.0540 H   0  0  0  0  0  0  0  0  0  0  0  0
   -8.1290   -5.0760  -22.8380 H   0  0  0  0  0  0  0  0  0  0  0  0
   -7.4830   -4.0580  -24.1250 H   0  0  0  0  0  0  0  0  0  0  0  0
  1  2  1  0  0  0  0
  1 61  1  0  0  0  0
  1 62  1  0  0  0  0
  1 63  1  0  0  0  0
  2  3  1  0  0  0  0
  2 23  1  0  0  0  0
  2 60  1  1  0  0  0
  3  4  1  0  0  0  0
  3 58  1  0  0  0  0
  3 59  1  0  0  0  0
  4  5  1  0  0  0  0
  4 21  1  0  0  0  0
  5  6  2  0  0  0  0
  5 14  1  0  0  0  0
  6  7  1  0  0  0  0
  6 20  1  0  0  0  0
  7  8  2  0  0  0  0
  8  9  1  0  0  0  0
  8 19  1  0  0  0  0
  9 10  2  0  0  0  0
  9 14  1  0  0  0  0
 10 11  1  0  0  0  0
 10 18  1  0  0  0  0
 11 12  2  0  0  0  0
 11 17  1  0  0  0  0
 12 13  1  0  0  0  0
 12 16  1  0  0  0  0
 13 14  2  0  0  0  0
 13 15  1  0  0  0  0
 21 22  2  0  0  0  0
 23 21  1  1  0  0  0
 23 24  1  0  0  0  0
 23 52  1  0  0  0  0
 24 25  1  0  0  0  0
 24 56  1  0  0  0  0
 24 57  1  0  0  0  0
 25 26  1  0  0  0  0
 25 44  1  0  0  0  0
 26 27  1  0  0  0  0
 26 42  1  0  0  0  0
 26 43  1  0  0  0  0
 27 28  2  0  0  0  0
 27 29  1  0  0  0  0
 29 30  1  0  0  0  0
 29 41  1  0  0  0  0
 30 31  1  0  0  0  0
 30 39  1  0  0  0  0
 30 40  1  0  0  0  0
 31 32  1  0  0  0  0
 31 33  1  0  0  0  0
 31 34  1  0  0  0  0
 33 34  1  0  0  0  0
 33 37  1  0  0  0  0
 33 38  1  0  0  0  0
 34 35  1  0  0  0  0
 34 36  1  0  0  0  0
 44 45  2  0  0  0  0
 44 46  1  0  0  0  0
 46 47  2  0  0  0  0
 46 52  1  0  0  0  0
 47 48  1  0  0  0  0
 47 55  1  0  0  0  0
 48 49  2  0  0  0  0
 48 54  1  0  0  0  0
 49 50  1  0  0  0  0
 49 51  1  0  0  0  0
 51 52  2  0  0  0  0
 51 53  1  0  0  0  0
M  END
>  <MODEL>
       1

$$$$
