output/tmp_first_model_11_49.pdb
 OpenBabel07242618513D

 67 72  0  0  1  0  0  0  0  0999 V2000
   -7.9180   -0.3980  -29.1860 C   0  0  0  0  0  0  0  0  0  0  0  0
   -8.1430   -1.3590  -28.1280 N   0  0  0  0  0  0  0  0  0  0  0  0
   -7.1990   -1.5670  -27.1830 C   0  0  0  0  0  0  0  0  0  0  0  0
   -6.1660   -0.9140  -27.1010 O   0  0  0  0  0  0  0  0  0  0  0  0
   -7.5160   -2.7070  -26.2120 C   0  0  0  0  0  0  0  0  0  0  0  0
   -8.5360   -2.3850  -25.2350 N   0  0  0  0  0  0  0  0  0  0  0  0
   -8.1710   -1.5650  -24.0980 C   0  0  0  0  0  0  0  0  0  0  0  0
   -8.9770   -1.9130  -22.8220 C   0  0  2  0  0  0  0  0  0  0  0  0
   -8.5950   -0.8080  -21.7930 C   0  0  0  0  0  0  0  0  0  0  0  0
   -9.0770    0.2920  -21.6400 O   0  0  0  0  0  0  0  0  0  0  0  0
   -7.5060   -1.2910  -21.0800 N   0  0  0  0  0  0  0  0  0  0  0  0
   -6.7810   -0.5790  -20.0850 C   0  0  0  0  0  0  0  0  0  0  0  0
   -7.1280   -0.7320  -18.7650 C   0  0  0  0  0  0  0  0  0  0  0  0
   -6.4190   -0.2560  -17.7100 N   0  0  0  0  0  0  0  0  0  0  0  0
   -5.3130    0.3950  -17.9840 C   0  0  0  0  0  0  0  0  0  0  0  0
   -4.8290    0.6360  -19.3010 C   0  0  0  0  0  0  0  0  0  0  0  0
   -3.6250    1.3500  -19.5320 C   0  0  0  0  0  0  0  0  0  0  0  0
   -3.1810    1.5670  -20.8060 C   0  0  0  0  0  0  0  0  0  0  0  0
   -3.9280    1.0980  -21.9060 C   0  0  0  0  0  0  0  0  0  0  0  0
   -5.1060    0.4190  -21.7100 C   0  0  0  0  0  0  0  0  0  0  0  0
   -5.5820    0.1520  -20.3970 C   0  0  0  0  0  0  0  0  0  0  0  0
   -5.6960    0.0930  -22.5610 H   0  0  0  0  0  0  0  0  0  0  0  0
   -3.5770    1.2930  -22.9130 H   0  0  0  0  0  0  0  0  0  0  0  0
   -2.2580    2.1120  -20.9780 H   0  0  0  0  0  0  0  0  0  0  0  0
   -3.0830    1.7340  -18.6730 H   0  0  0  0  0  0  0  0  0  0  0  0
   -4.7330    0.7680  -17.1390 H   0  0  0  0  0  0  0  0  0  0  0  0
   -8.0300   -1.2930  -18.5190 H   0  0  0  0  0  0  0  0  0  0  0  0
   -7.1930   -2.6760  -21.3780 C   0  0  0  0  0  0  0  0  0  0  0  0
   -8.4790   -3.1700  -22.0330 C   0  0  2  0  0  0  0  0  0  0  0  0
   -8.2730   -4.4840  -22.7780 C   0  0  0  0  0  0  0  0  0  0  0  0
   -9.4880   -5.0060  -23.3700 N   0  0  0  0  0  0  0  0  0  0  0  0
   -9.4950   -5.5680  -24.6170 C   0  0  0  0  0  0  0  0  0  0  0  0
   -8.4430   -6.0280  -25.3650 C   0  0  0  0  0  0  0  0  0  0  0  0
   -8.7290   -6.3940  -26.6570 N   0  0  0  0  0  0  0  0  0  0  0  0
   -9.9890   -6.2400  -26.9200 C   0  0  0  0  0  0  0  0  0  0  0  0
  -10.5660   -6.4240  -28.2850 C   0  0  0  0  0  0  0  0  0  0  0  0
   -9.9140   -7.0940  -28.8470 H   0  0  0  0  0  0  0  0  0  0  0  0
  -11.5750   -6.8360  -28.2530 H   0  0  0  0  0  0  0  0  0  0  0  0
  -10.5960   -5.4590  -28.8110 H   0  0  0  0  0  0  0  0  0  0  0  0
  -10.9700   -5.7420  -25.5490 S   0  0  0  0  0  0  0  0  0  0  0  0
   -7.4190   -6.1100  -25.0250 H   0  0  0  0  0  0  0  0  0  0  0  0
  -10.3810   -4.6930  -23.0140 H   0  0  0  0  0  0  0  0  0  0  0  0
   -7.5410   -4.3280  -23.5760 H   0  0  0  0  0  0  0  0  0  0  0  0
   -7.8460   -5.2150  -22.0820 H   0  0  0  0  0  0  0  0  0  0  0  0
   -9.2280   -3.3300  -21.2440 H   0  0  0  0  0  0  0  0  0  0  0  0
   -6.3560   -2.7620  -22.0930 H   0  0  0  0  0  0  0  0  0  0  0  0
   -6.9010   -3.2190  -20.4720 H   0  0  0  0  0  0  0  0  0  0  0  0
  -10.4370   -1.9950  -23.1970 C   0  0  0  0  0  0  0  0  0  0  0  0
  -11.4170   -1.8730  -22.2020 C   0  0  0  0  0  0  0  0  0  0  0  0
  -12.7540   -1.8790  -22.5590 C   0  0  0  0  0  0  0  0  0  0  0  0
  -13.9970   -1.7050  -21.3530 Cl  0  0  0  0  0  0  0  0  0  0  0  0
  -13.1510   -2.0690  -23.8820 C   0  0  0  0  0  0  0  0  0  0  0  0
  -12.1880   -2.2980  -24.8460 C   0  0  0  0  0  0  0  0  0  0  0  0
  -10.8380   -2.2470  -24.5220 C   0  0  0  0  0  0  0  0  0  0  0  0
   -9.8380   -2.5330  -25.5960 C   0  0  0  0  0  0  0  0  0  0  0  0
  -10.1530   -2.9200  -26.7270 O   0  0  0  0  0  0  0  0  0  0  0  0
  -12.4790   -2.5090  -25.8690 H   0  0  0  0  0  0  0  0  0  0  0  0
  -14.2030   -2.0450  -24.1380 H   0  0  0  0  0  0  0  0  0  0  0  0
  -11.1190   -1.7300  -21.1660 H   0  0  0  0  0  0  0  0  0  0  0  0
   -8.3380   -0.4990  -24.3160 H   0  0  0  0  0  0  0  0  0  0  0  0
   -7.1000   -1.6980  -23.9170 H   0  0  0  0  0  0  0  0  0  0  0  0
   -6.6010   -2.9590  -25.6770 H   0  0  0  0  0  0  0  0  0  0  0  0
   -7.8850   -3.5850  -26.7450 H   0  0  0  0  0  0  0  0  0  0  0  0
   -9.0040   -1.8900  -28.0800 H   0  0  0  0  0  0  0  0  0  0  0  0
   -7.8370    0.6230  -28.7960 H   0  0  0  0  0  0  0  0  0  0  0  0
   -8.7490   -0.4510  -29.8910 H   0  0  0  0  0  0  0  0  0  0  0  0
   -6.9910   -0.6310  -29.7210 H   0  0  0  0  0  0  0  0  0  0  0  0
  1  2  1  0  0  0  0
  1 65  1  0  0  0  0
  1 66  1  0  0  0  0
  1 67  1  0  0  0  0
  2  3  1  0  0  0  0
  2 64  1  0  0  0  0
  3  4  2  0  0  0  0
  3  5  1  0  0  0  0
  5  6  1  0  0  0  0
  5 62  1  0  0  0  0
  5 63  1  0  0  0  0
  6  7  1  0  0  0  0
  6 55  1  0  0  0  0
  7  8  1  0  0  0  0
  7 60  1  0  0  0  0
  7 61  1  0  0  0  0
  8  9  1  1  0  0  0
  8 29  1  0  0  0  0
  8 48  1  0  0  0  0
  9 10  2  0  0  0  0
  9 11  1  0  0  0  0
 11 12  1  0  0  0  0
 11 28  1  0  0  0  0
 12 13  2  0  0  0  0
 12 21  1  0  0  0  0
 13 14  1  0  0  0  0
 13 27  1  0  0  0  0
 14 15  2  0  0  0  0
 15 16  1  0  0  0  0
 15 26  1  0  0  0  0
 16 17  2  0  0  0  0
 16 21  1  0  0  0  0
 17 18  1  0  0  0  0
 17 25  1  0  0  0  0
 18 19  2  0  0  0  0
 18 24  1  0  0  0  0
 19 20  1  0  0  0  0
 19 23  1  0  0  0  0
 20 21  2  0  0  0  0
 20 22  1  0  0  0  0
 28 29  1  0  0  0  0
 28 46  1  0  0  0  0
 28 47  1  0  0  0  0
 29 30  1  0  0  0  0
 29 45  1  1  0  0  0
 30 31  1  0  0  0  0
 30 43  1  0  0  0  0
 30 44  1  0  0  0  0
 31 32  1  0  0  0  0
 31 42  1  0  0  0  0
 32 33  2  0  0  0  0
 32 40  1  0  0  0  0
 33 34  1  0  0  0  0
 33 41  1  0  0  0  0
 34 35  2  0  0  0  0
 35 36  1  0  0  0  0
 35 40  1  0  0  0  0
 36 37  1  0  0  0  0
 36 38  1  0  0  0  0
 36 39  1  0  0  0  0
 48 49  2  0  0  0  0
 48 54  1  0  0  0  0
 49 50  1  0  0  0  0
 49 59  1  0  0  0  0
 50 51  1  0  0  0  0
 50 52  2  0  0  0  0
 52 53  1  0  0  0  0
 52 58  1  0  0  0  0
 53 54  2  0  0  0  0
 53 57  1  0  0  0  0
 54 55  1  0  0  0  0
 55 56  2  0  0  0  0
M  END
>  <MODEL>
       1

$$$$
