output/tmp_first_model_14_48.pdb
 OpenBabel07242620283D

 46 48  0  0  0  0  0  0  0  0999 V2000
  -13.1350   -3.5920  -22.1130 C   0  0  0  0  0  0  0  0  0  0  0  0
  -13.1570   -2.9110  -23.4840 C   0  0  0  0  0  0  0  0  0  0  0  0
  -14.5140   -2.2400  -23.7620 C   0  0  0  0  0  0  0  0  0  0  0  0
  -15.3150   -2.9730  -23.9110 H   0  0  0  0  0  0  0  0  0  0  0  0
  -14.4610   -1.6040  -24.6570 H   0  0  0  0  0  0  0  0  0  0  0  0
  -14.8070   -1.5930  -22.9270 H   0  0  0  0  0  0  0  0  0  0  0  0
  -12.0250   -1.8870  -23.7670 C   0  0  0  0  0  0  0  0  0  0  0  0
  -11.9300   -0.7450  -22.7440 C   0  0  0  0  0  0  0  0  0  0  0  0
  -10.6160    0.0250  -22.8880 C   0  0  0  0  0  0  0  0  0  0  0  0
   -9.5240   -0.8680  -22.4930 N   0  0  0  0  0  0  0  0  0  0  0  0
   -8.5510   -0.4170  -21.6540 C   0  0  0  0  0  0  0  0  0  0  0  0
   -8.5330    0.7320  -21.2290 O   0  0  0  0  0  0  0  0  0  0  0  0
   -7.4570   -1.4260  -21.2630 C   0  0  0  0  0  0  0  0  0  0  0  0
   -6.5800   -0.8430  -20.2050 C   0  0  0  0  0  0  0  0  0  0  0  0
   -6.9420   -0.9900  -18.8920 C   0  0  0  0  0  0  0  0  0  0  0  0
   -6.2920   -0.4370  -17.8400 N   0  0  0  0  0  0  0  0  0  0  0  0
   -5.2340    0.2850  -18.1130 C   0  0  0  0  0  0  0  0  0  0  0  0
   -4.7550    0.5400  -19.4270 C   0  0  0  0  0  0  0  0  0  0  0  0
   -3.6180    1.3460  -19.6740 C   0  0  0  0  0  0  0  0  0  0  0  0
   -3.2260    1.6240  -20.9570 C   0  0  0  0  0  0  0  0  0  0  0  0
   -3.9640    1.1140  -22.0480 C   0  0  0  0  0  0  0  0  0  0  0  0
   -5.0630    0.3240  -21.8360 C   0  0  0  0  0  0  0  0  0  0  0  0
   -5.4730   -0.0040  -20.5150 C   0  0  0  0  0  0  0  0  0  0  0  0
   -5.6390   -0.0410  -22.6820 H   0  0  0  0  0  0  0  0  0  0  0  0
   -3.6570    1.3630  -23.0600 H   0  0  0  0  0  0  0  0  0  0  0  0
   -2.3580    2.2470  -21.1390 H   0  0  0  0  0  0  0  0  0  0  0  0
   -3.0810    1.7520  -18.8240 H   0  0  0  0  0  0  0  0  0  0  0  0
   -4.7100    0.7270  -17.2660 H   0  0  0  0  0  0  0  0  0  0  0  0
   -7.8270   -1.5760  -18.6410 H   0  0  0  0  0  0  0  0  0  0  0  0
   -6.8920   -1.7290  -22.1560 H   0  0  0  0  0  0  0  0  0  0  0  0
   -7.9350   -2.3350  -20.8690 H   0  0  0  0  0  0  0  0  0  0  0  0
   -9.7330   -2.2930  -22.7190 C   0  0  0  0  0  0  0  0  0  0  0  0
  -10.6110   -2.4690  -23.9490 C   0  0  0  0  0  0  0  0  0  0  0  0
  -10.6340   -3.5140  -24.2640 H   0  0  0  0  0  0  0  0  0  0  0  0
  -10.1270   -1.9240  -24.7650 H   0  0  0  0  0  0  0  0  0  0  0  0
   -8.7670   -2.7800  -22.8760 H   0  0  0  0  0  0  0  0  0  0  0  0
  -10.2090   -2.7700  -21.8460 H   0  0  0  0  0  0  0  0  0  0  0  0
  -10.4710    0.3600  -23.9260 H   0  0  0  0  0  0  0  0  0  0  0  0
  -10.5510    0.9130  -22.2530 H   0  0  0  0  0  0  0  0  0  0  0  0
  -12.8100   -0.1070  -22.8180 H   0  0  0  0  0  0  0  0  0  0  0  0
  -11.9200   -1.1550  -21.7340 H   0  0  0  0  0  0  0  0  0  0  0  0
  -12.2970   -1.4360  -24.7360 H   0  0  0  0  0  0  0  0  0  0  0  0
  -13.0090   -3.7200  -24.2140 H   0  0  0  0  0  0  0  0  0  0  0  0
  -13.9240   -4.3540  -22.0540 H   0  0  0  0  0  0  0  0  0  0  0  0
  -13.3210   -2.8830  -21.3010 H   0  0  0  0  0  0  0  0  0  0  0  0
  -12.1800   -4.0920  -21.9100 H   0  0  0  0  0  0  0  0  0  0  0  0
  1  2  1  0  0  0  0
  1 44  1  0  0  0  0
  1 45  1  0  0  0  0
  1 46  1  0  0  0  0
  2  3  1  0  0  0  0
  2  7  1  0  0  0  0
  2 43  1  0  0  0  0
  3  4  1  0  0  0  0
  3  5  1  0  0  0  0
  3  6  1  0  0  0  0
  7  8  1  0  0  0  0
  7 33  1  0  0  0  0
  7 42  1  0  0  0  0
  8  9  1  0  0  0  0
  8 40  1  0  0  0  0
  8 41  1  0  0  0  0
  9 10  1  0  0  0  0
  9 38  1  0  0  0  0
  9 39  1  0  0  0  0
 10 11  1  0  0  0  0
 10 32  1  0  0  0  0
 11 12  2  0  0  0  0
 11 13  1  0  0  0  0
 13 14  1  0  0  0  0
 13 30  1  0  0  0  0
 13 31  1  0  0  0  0
 14 15  2  0  0  0  0
 14 23  1  0  0  0  0
 15 16  1  0  0  0  0
 15 29  1  0  0  0  0
 16 17  2  0  0  0  0
 17 18  1  0  0  0  0
 17 28  1  0  0  0  0
 18 19  2  0  0  0  0
 18 23  1  0  0  0  0
 19 20  1  0  0  0  0
 19 27  1  0  0  0  0
 20 21  2  0  0  0  0
 20 26  1  0  0  0  0
 21 22  1  0  0  0  0
 21 25  1  0  0  0  0
 22 23  2  0  0  0  0
 22 24  1  0  0  0  0
 32 33  1  0  0  0  0
 32 36  1  0  0  0  0
 32 37  1  0  0  0  0
 33 34  1  0  0  0  0
 33 35  1  0  0  0  0
M  END
>  <MODEL>
       1

$$$$
