output/tmp_first_model_7_4.pdb
 OpenBabel07242616393D

 59 64  0  0  1  0  0  0  0  0999 V2000
   -7.8520   -3.6780  -23.9980 C   0  0  0  0  0  0  0  0  0  0  0  0
   -8.2220   -2.8650  -22.7620 C   0  0  1  0  0  0  0  0  0  0  0  0
   -7.0550   -2.7150  -21.7750 C   0  0  0  0  0  0  0  0  0  0  0  0
   -7.3260   -1.4490  -21.1320 N   0  0  0  0  0  0  0  0  0  0  0  0
   -6.5290   -0.8650  -20.1280 C   0  0  0  0  0  0  0  0  0  0  0  0
   -6.8560   -1.0640  -18.8150 C   0  0  0  0  0  0  0  0  0  0  0  0
   -6.1650   -0.5450  -17.7750 N   0  0  0  0  0  0  0  0  0  0  0  0
   -5.1320    0.2120  -18.0560 C   0  0  0  0  0  0  0  0  0  0  0  0
   -4.7050    0.5150  -19.3810 C   0  0  0  0  0  0  0  0  0  0  0  0
   -3.5890    1.3540  -19.6300 C   0  0  0  0  0  0  0  0  0  0  0  0
   -3.2100    1.6440  -20.9120 C   0  0  0  0  0  0  0  0  0  0  0  0
   -3.9340    1.1150  -22.0050 C   0  0  0  0  0  0  0  0  0  0  0  0
   -5.0170    0.2980  -21.7920 C   0  0  0  0  0  0  0  0  0  0  0  0
   -5.4270   -0.0250  -20.4620 C   0  0  0  0  0  0  0  0  0  0  0  0
   -5.5740   -0.0990  -22.6370 H   0  0  0  0  0  0  0  0  0  0  0  0
   -3.6320    1.3620  -23.0190 H   0  0  0  0  0  0  0  0  0  0  0  0
   -2.3560    2.2900  -21.0960 H   0  0  0  0  0  0  0  0  0  0  0  0
   -3.0590    1.7690  -18.7780 H   0  0  0  0  0  0  0  0  0  0  0  0
   -4.5800    0.6330  -17.2150 H   0  0  0  0  0  0  0  0  0  0  0  0
   -7.7300   -1.6640  -18.5680 H   0  0  0  0  0  0  0  0  0  0  0  0
   -8.2150   -0.6460  -21.7990 C   0  0  0  0  0  0  0  0  0  0  0  0
   -8.4790    0.4880  -21.4690 O   0  0  0  0  0  0  0  0  0  0  0  0
   -8.7680   -1.4300  -22.9990 C   0  0  1  0  0  0  0  0  0  0  0  0
   -8.2520   -0.7860  -24.3180 C   0  0  0  0  0  0  0  0  0  0  0  0
   -8.7280    0.5740  -24.4860 N   0  0  0  0  0  0  0  0  0  0  0  0
   -7.7820    1.6140  -24.8620 C   0  0  0  0  0  0  0  0  0  0  0  0
   -7.5980    1.8550  -26.3440 C   0  0  0  0  0  0  0  0  0  0  0  0
   -8.2730    2.7620  -27.0140 N   0  0  0  0  0  0  0  0  0  0  0  0
   -7.7780    2.7330  -28.2950 C   0  0  0  0  0  0  0  0  0  0  0  0
   -6.7860    1.8020  -28.3900 C   0  0  0  0  0  0  0  0  0  0  0  0
   -6.6620    1.2400  -27.1340 N   0  0  0  0  0  0  0  0  0  0  0  0
   -5.6810    0.2360  -26.7500 C   0  0  0  0  0  0  0  0  0  0  0  0
   -4.9300    0.1610  -27.5400 H   0  0  0  0  0  0  0  0  0  0  0  0
   -5.1650    0.5100  -25.8220 H   0  0  0  0  0  0  0  0  0  0  0  0
   -6.1450   -0.7490  -26.6240 H   0  0  0  0  0  0  0  0  0  0  0  0
   -6.1620    1.4980  -29.2190 H   0  0  0  0  0  0  0  0  0  0  0  0
   -8.1410    3.4080  -29.0640 H   0  0  0  0  0  0  0  0  0  0  0  0
   -6.8170    1.3860  -24.3820 H   0  0  0  0  0  0  0  0  0  0  0  0
   -8.1700    2.5450  -24.4360 H   0  0  0  0  0  0  0  0  0  0  0  0
   -9.9920    0.9470  -24.1080 C   0  0  0  0  0  0  0  0  0  0  0  0
  -10.4120    2.0850  -24.2760 O   0  0  0  0  0  0  0  0  0  0  0  0
  -10.8410   -0.1180  -23.4760 C   0  0  0  0  0  0  0  0  0  0  0  0
  -12.2200    0.0770  -23.3970 C   0  0  0  0  0  0  0  0  0  0  0  0
  -13.0470   -0.8920  -22.8640 C   0  0  0  0  0  0  0  0  0  0  0  0
  -12.4590   -2.0140  -22.2850 C   0  0  0  0  0  0  0  0  0  0  0  0
  -13.2490   -2.9240  -21.6850 F   0  0  0  0  0  0  0  0  0  0  0  0
  -11.0890   -2.1880  -22.2670 C   0  0  0  0  0  0  0  0  0  0  0  0
  -10.2710   -1.2860  -22.9620 C   0  0  0  0  0  0  0  0  0  0  0  0
  -10.6820   -2.9580  -21.6200 H   0  0  0  0  0  0  0  0  0  0  0  0
  -14.1250   -0.7770  -22.8590 H   0  0  0  0  0  0  0  0  0  0  0  0
  -12.6390    1.0000  -23.7730 H   0  0  0  0  0  0  0  0  0  0  0  0
   -8.5590   -1.4040  -25.1710 H   0  0  0  0  0  0  0  0  0  0  0  0
   -7.1600   -0.7460  -24.3150 H   0  0  0  0  0  0  0  0  0  0  0  0
   -7.0300   -3.5260  -21.0430 H   0  0  0  0  0  0  0  0  0  0  0  0
   -6.0880   -2.7100  -22.2970 H   0  0  0  0  0  0  0  0  0  0  0  0
   -9.0040   -3.4130  -22.2330 H   0  0  0  0  0  0  0  0  0  0  0  0
   -7.5580   -4.6910  -23.7010 H   0  0  0  0  0  0  0  0  0  0  0  0
   -8.6990   -3.7550  -24.6880 H   0  0  0  0  0  0  0  0  0  0  0  0
   -7.0100   -3.2230  -24.5360 H   0  0  0  0  0  0  0  0  0  0  0  0
  1  2  1  0  0  0  0
  1 57  1  0  0  0  0
  1 58  1  0  0  0  0
  1 59  1  0  0  0  0
  2  3  1  0  0  0  0
  2 23  1  0  0  0  0
  2 56  1  1  0  0  0
  3  4  1  0  0  0  0
  3 54  1  0  0  0  0
  3 55  1  0  0  0  0
  4  5  1  0  0  0  0
  4 21  1  0  0  0  0
  5  6  2  0  0  0  0
  5 14  1  0  0  0  0
  6  7  1  0  0  0  0
  6 20  1  0  0  0  0
  7  8  2  0  0  0  0
  8  9  1  0  0  0  0
  8 19  1  0  0  0  0
  9 10  2  0  0  0  0
  9 14  1  0  0  0  0
 10 11  1  0  0  0  0
 10 18  1  0  0  0  0
 11 12  2  0  0  0  0
 11 17  1  0  0  0  0
 12 13  1  0  0  0  0
 12 16  1  0  0  0  0
 13 14  2  0  0  0  0
 13 15  1  0  0  0  0
 21 22  2  0  0  0  0
 23 21  1  1  0  0  0
 23 24  1  0  0  0  0
 23 48  1  0  0  0  0
 24 25  1  0  0  0  0
 24 52  1  0  0  0  0
 24 53  1  0  0  0  0
 25 26  1  0  0  0  0
 25 40  1  0  0  0  0
 26 27  1  0  0  0  0
 26 38  1  0  0  0  0
 26 39  1  0  0  0  0
 27 28  2  0  0  0  0
 27 31  1  0  0  0  0
 28 29  1  0  0  0  0
 29 30  2  0  0  0  0
 29 37  1  0  0  0  0
 30 31  1  0  0  0  0
 30 36  1  0  0  0  0
 31 32  1  0  0  0  0
 32 33  1  0  0  0  0
 32 34  1  0  0  0  0
 32 35  1  0  0  0  0
 40 41  2  0  0  0  0
 40 42  1  0  0  0  0
 42 43  2  0  0  0  0
 42 48  1  0  0  0  0
 43 44  1  0  0  0  0
 43 51  1  0  0  0  0
 44 45  2  0  0  0  0
 44 50  1  0  0  0  0
 45 46  1  0  0  0  0
 45 47  1  0  0  0  0
 47 48  2  0  0  0  0
 47 49  1  0  0  0  0
M  END
>  <MODEL>
       1

$$$$
