output/tmp_first_model_12_45.pdb
 OpenBabel07242619253D

 66 71  0  0  1  0  0  0  0  0999 V2000
  -12.3710    2.9650  -20.7330 C   0  0  0  0  0  0  0  0  0  0  0  0
  -12.3930    2.1920  -21.9550 N   0  0  0  0  0  0  0  0  0  0  0  0
  -11.4570    2.3500  -22.9230 C   0  0  0  0  0  0  0  0  0  0  0  0
  -10.7090    3.3110  -23.0130 O   0  0  0  0  0  0  0  0  0  0  0  0
  -11.4200    1.2240  -23.9810 C   0  0  0  0  0  0  0  0  0  0  0  0
  -11.1310   -0.1020  -23.4490 N   0  0  0  0  0  0  0  0  0  0  0  0
   -9.9880   -0.8890  -23.8700 C   0  0  0  0  0  0  0  0  0  0  0  0
   -9.3710   -1.7260  -22.7240 C   0  0  2  0  0  0  0  0  0  0  0  0
   -8.8620   -0.8690  -21.5590 C   0  0  0  0  0  0  0  0  0  0  0  0
   -9.3640    0.1370  -21.0990 O   0  0  0  0  0  0  0  0  0  0  0  0
   -7.6860   -1.4340  -21.0970 N   0  0  0  0  0  0  0  0  0  0  0  0
   -6.8740   -0.7890  -20.1120 C   0  0  0  0  0  0  0  0  0  0  0  0
   -7.0970   -1.0070  -18.7750 C   0  0  0  0  0  0  0  0  0  0  0  0
   -6.2970   -0.5630  -17.7720 N   0  0  0  0  0  0  0  0  0  0  0  0
   -5.2550    0.1590  -18.0940 C   0  0  0  0  0  0  0  0  0  0  0  0
   -4.9430    0.5360  -19.4280 C   0  0  0  0  0  0  0  0  0  0  0  0
   -3.8460    1.3910  -19.7140 C   0  0  0  0  0  0  0  0  0  0  0  0
   -3.6100    1.8030  -20.9960 C   0  0  0  0  0  0  0  0  0  0  0  0
   -4.4620    1.3790  -22.0410 C   0  0  0  0  0  0  0  0  0  0  0  0
   -5.5190    0.5390  -21.7890 C   0  0  0  0  0  0  0  0  0  0  0  0
   -5.7820    0.0780  -20.4700 C   0  0  0  0  0  0  0  0  0  0  0  0
   -6.1830    0.2440  -22.5940 H   0  0  0  0  0  0  0  0  0  0  0  0
   -4.2780    1.7210  -23.0540 H   0  0  0  0  0  0  0  0  0  0  0  0
   -2.7790    2.4680  -21.2140 H   0  0  0  0  0  0  0  0  0  0  0  0
   -3.2250    1.7250  -18.8860 H   0  0  0  0  0  0  0  0  0  0  0  0
   -4.6050    0.4980  -17.2840 H   0  0  0  0  0  0  0  0  0  0  0  0
   -7.9510   -1.5740  -18.4280 H   0  0  0  0  0  0  0  0  0  0  0  0
   -7.1790   -2.5130  -21.9310 C   0  0  0  0  0  0  0  0  0  0  0  0
   -8.1180   -2.5600  -23.1540 C   0  0  2  0  0  0  0  0  0  0  0  0
   -7.3730   -2.1370  -24.4650 C   0  0  0  0  0  0  0  0  0  0  0  0
   -6.2750   -3.0900  -24.9040 C   0  0  0  0  0  0  0  0  0  0  0  0
   -4.9390   -2.6850  -24.9740 C   0  0  0  0  0  0  0  0  0  0  0  0
   -3.9400   -3.5600  -25.3990 C   0  0  0  0  0  0  0  0  0  0  0  0
   -4.2570   -4.8670  -25.7510 C   0  0  0  0  0  0  0  0  0  0  0  0
   -5.5830   -5.2850  -25.6970 C   0  0  0  0  0  0  0  0  0  0  0  0
   -6.5760   -4.4000  -25.2900 C   0  0  0  0  0  0  0  0  0  0  0  0
   -7.6110   -4.7290  -25.3010 H   0  0  0  0  0  0  0  0  0  0  0  0
   -5.8430   -6.3040  -25.9770 H   0  0  0  0  0  0  0  0  0  0  0  0
   -3.4810   -5.5530  -26.0810 H   0  0  0  0  0  0  0  0  0  0  0  0
   -2.9080   -3.2180  -25.4580 H   0  0  0  0  0  0  0  0  0  0  0  0
   -4.6660   -1.6660  -24.7020 H   0  0  0  0  0  0  0  0  0  0  0  0
   -6.9460   -1.1380  -24.3270 H   0  0  0  0  0  0  0  0  0  0  0  0
   -8.1220   -2.0670  -25.2640 H   0  0  0  0  0  0  0  0  0  0  0  0
   -8.4500   -3.5870  -23.3480 H   0  0  0  0  0  0  0  0  0  0  0  0
   -7.1580   -3.4630  -21.3810 H   0  0  0  0  0  0  0  0  0  0  0  0
   -6.1380   -2.3080  -22.2230 H   0  0  0  0  0  0  0  0  0  0  0  0
  -10.5470   -2.6740  -22.1260 C   0  0  0  0  0  0  0  0  0  0  0  0
  -10.8150   -4.0200  -21.5550 C   0  0  0  0  0  0  0  0  0  0  0  0
  -10.6390   -4.1500  -21.5530 C   0  0  0  0  0  0  0  0  0  0  0  0
  -12.7500   -4.1880  -23.5900 Cl  0  0  0  0  0  0  0  0  0  0  0  0
  -13.0320   -3.5950  -20.7460 C   0  0  0  0  0  0  0  0  0  0  0  0
  -13.0240   -2.8590  -21.7880 C   0  0  0  0  0  0  0  0  0  0  0  0
  -11.7910   -2.0440  -22.2220 C   0  0  0  0  0  0  0  0  0  0  0  0
  -12.1280   -0.7630  -22.8080 C   0  0  0  0  0  0  0  0  0  0  0  0
  -13.2770   -0.2980  -22.7480 O   0  0  0  0  0  0  0  0  0  0  0  0
  -13.8910   -2.4210  -22.2960 H   0  0  0  0  0  0  0  0  0  0  0  0
  -12.5850   -4.3320  -20.1040 H   0  0  0  0  0  0  0  0  0  0  0  0
   -9.5290   -3.8790  -21.2700 H   0  0  0  0  0  0  0  0  0  0  0  0
   -9.2460   -0.2090  -24.3050 H   0  0  0  0  0  0  0  0  0  0  0  0
  -10.3130   -1.6010  -24.6440 H   0  0  0  0  0  0  0  0  0  0  0  0
  -12.3900    1.1930  -24.4970 H   0  0  0  0  0  0  0  0  0  0  0  0
  -10.6390    1.5020  -24.6940 H   0  0  0  0  0  0  0  0  0  0  0  0
  -13.0260    1.4020  -22.0380 H   0  0  0  0  0  0  0  0  0  0  0  0
  -12.0680    3.9940  -20.9460 H   0  0  0  0  0  0  0  0  0  0  0  0
  -11.6710    2.5430  -19.9970 H   0  0  0  0  0  0  0  0  0  0  0  0
  -13.3760    2.9670  -20.3020 H   0  0  0  0  0  0  0  0  0  0  0  0
  1  2  1  0  0  0  0
  1 64  1  0  0  0  0
  1 65  1  0  0  0  0
  1 66  1  0  0  0  0
  2  3  1  0  0  0  0
  2 63  1  0  0  0  0
  3  4  2  0  0  0  0
  3  5  1  0  0  0  0
  5  6  1  0  0  0  0
  5 61  1  0  0  0  0
  5 62  1  0  0  0  0
  6  7  1  0  0  0  0
  6 54  1  0  0  0  0
  7  8  1  0  0  0  0
  7 59  1  0  0  0  0
  7 60  1  0  0  0  0
  8  9  1  1  0  0  0
  8 29  1  0  0  0  0
  8 47  1  0  0  0  0
  9 10  2  0  0  0  0
  9 11  1  0  0  0  0
 11 12  1  0  0  0  0
 11 28  1  0  0  0  0
 12 13  2  0  0  0  0
 12 21  1  0  0  0  0
 13 14  1  0  0  0  0
 13 27  1  0  0  0  0
 14 15  2  0  0  0  0
 15 16  1  0  0  0  0
 15 26  1  0  0  0  0
 16 17  2  0  0  0  0
 16 21  1  0  0  0  0
 17 18  1  0  0  0  0
 17 25  1  0  0  0  0
 18 19  2  0  0  0  0
 18 24  1  0  0  0  0
 19 20  1  0  0  0  0
 19 23  1  0  0  0  0
 20 21  2  0  0  0  0
 20 22  1  0  0  0  0
 28 29  1  0  0  0  0
 28 45  1  0  0  0  0
 28 46  1  0  0  0  0
 29 30  1  0  0  0  0
 29 44  1  6  0  0  0
 30 31  1  0  0  0  0
 30 42  1  0  0  0  0
 30 43  1  0  0  0  0
 31 32  2  0  0  0  0
 31 36  1  0  0  0  0
 32 33  1  0  0  0  0
 32 41  1  0  0  0  0
 33 34  2  0  0  0  0
 33 40  1  0  0  0  0
 34 35  1  0  0  0  0
 34 39  1  0  0  0  0
 35 36  2  0  0  0  0
 35 38  1  0  0  0  0
 36 37  1  0  0  0  0
 47 48  2  0  0  0  0
 47 53  1  0  0  0  0
 48 49  1  0  0  0  0
 48 58  1  0  0  0  0
 49 50  1  0  0  0  0
 49 51  2  0  0  0  0
 51 52  1  0  0  0  0
 51 57  1  0  0  0  0
 52 53  2  0  0  0  0
 52 56  1  0  0  0  0
 53 54  1  0  0  0  0
 54 55  2  0  0  0  0
M  END
>  <MODEL>
       1

$$$$
