output/tmp_first_model_15_78.pdb
 OpenBabel07242621043D

 56 60  0  0  1  0  0  0  0  0999 V2000
  -14.4610   -1.6600  -23.7320 C   0  0  0  0  0  0  0  0  0  0  0  0
  -13.7780   -2.8470  -23.2670 N   0  0  0  0  0  0  0  0  0  0  0  0
  -13.3350   -2.8460  -21.9880 C   0  0  0  0  0  0  0  0  0  0  0  0
  -13.6600   -1.9880  -21.1840 O   0  0  0  0  0  0  0  0  0  0  0  0
  -12.4170   -4.0170  -21.6630 C   0  0  0  0  0  0  0  0  0  0  0  0
  -11.1070   -3.9040  -22.2880 N   0  0  0  0  0  0  0  0  0  0  0  0
   -9.9850   -3.4090  -21.4970 C   0  0  0  0  0  0  0  0  0  0  0  0
   -8.7890   -2.9250  -22.3470 C   0  0  2  0  0  0  0  0  0  0  0  0
   -7.5670   -2.7060  -21.4410 C   0  0  0  0  0  0  0  0  0  0  0  0
   -6.8220   -3.5600  -21.0000 O   0  0  0  0  0  0  0  0  0  0  0  0
   -7.4030   -1.3540  -21.2330 N   0  0  0  0  0  0  0  0  0  0  0  0
   -6.5870   -0.8560  -20.1890 C   0  0  0  0  0  0  0  0  0  0  0  0
   -6.9030   -1.1020  -18.8770 C   0  0  0  0  0  0  0  0  0  0  0  0
   -6.2360   -0.5740  -17.8200 N   0  0  0  0  0  0  0  0  0  0  0  0
   -5.2120    0.2040  -18.0830 C   0  0  0  0  0  0  0  0  0  0  0  0
   -4.7620    0.5140  -19.3990 C   0  0  0  0  0  0  0  0  0  0  0  0
   -3.6350    1.3420  -19.6310 C   0  0  0  0  0  0  0  0  0  0  0  0
   -3.2260    1.6070  -20.9100 C   0  0  0  0  0  0  0  0  0  0  0  0
   -3.9240    1.0650  -22.0120 C   0  0  0  0  0  0  0  0  0  0  0  0
   -5.0210    0.2640  -21.8140 C   0  0  0  0  0  0  0  0  0  0  0  0
   -5.4670   -0.0250  -20.4950 C   0  0  0  0  0  0  0  0  0  0  0  0
   -5.5470   -0.1600  -22.6630 H   0  0  0  0  0  0  0  0  0  0  0  0
   -3.5900    1.2900  -23.0210 H   0  0  0  0  0  0  0  0  0  0  0  0
   -2.3670    2.2480  -21.0860 H   0  0  0  0  0  0  0  0  0  0  0  0
   -3.1180    1.7620  -18.7730 H   0  0  0  0  0  0  0  0  0  0  0  0
   -4.6730    0.6290  -17.2340 H   0  0  0  0  0  0  0  0  0  0  0  0
   -7.7460   -1.7440  -18.6300 H   0  0  0  0  0  0  0  0  0  0  0  0
   -8.3970   -0.5330  -21.9000 C   0  0  0  0  0  0  0  0  0  0  0  0
   -9.0150   -1.4880  -22.9310 C   0  0  2  0  0  0  0  0  0  0  0  0
  -10.4610   -1.1570  -23.2720 C   0  0  0  0  0  0  0  0  0  0  0  0
  -11.0770   -1.1360  -22.3650 H   0  0  0  0  0  0  0  0  0  0  0  0
  -10.5460   -0.1890  -23.7720 H   0  0  0  0  0  0  0  0  0  0  0  0
  -10.8710   -1.9270  -23.9320 H   0  0  0  0  0  0  0  0  0  0  0  0
   -8.4070   -1.4440  -23.8460 H   0  0  0  0  0  0  0  0  0  0  0  0
   -7.9330    0.3410  -22.3710 H   0  0  0  0  0  0  0  0  0  0  0  0
   -9.1510   -0.1650  -21.1860 H   0  0  0  0  0  0  0  0  0  0  0  0
   -8.5110   -3.9510  -23.4110 C   0  0  0  0  0  0  0  0  0  0  0  0
   -7.2300   -4.0860  -23.9490 C   0  0  0  0  0  0  0  0  0  0  0  0
   -6.9990   -5.0160  -24.9450 C   0  0  0  0  0  0  0  0  0  0  0  0
   -5.4170   -5.1270  -25.6460 Cl  0  0  0  0  0  0  0  0  0  0  0  0
   -8.0060   -5.8580  -25.4100 C   0  0  0  0  0  0  0  0  0  0  0  0
   -9.2820   -5.6860  -24.9090 C   0  0  0  0  0  0  0  0  0  0  0  0
   -9.5460   -4.7190  -23.9460 C   0  0  0  0  0  0  0  0  0  0  0  0
  -10.9480   -4.5240  -23.4870 C   0  0  0  0  0  0  0  0  0  0  0  0
  -11.9190   -4.8840  -24.1630 O   0  0  0  0  0  0  0  0  0  0  0  0
  -10.1080   -6.2900  -25.2610 H   0  0  0  0  0  0  0  0  0  0  0  0
   -7.7910   -6.6240  -26.1480 H   0  0  0  0  0  0  0  0  0  0  0  0
   -6.4090   -3.4810  -23.5820 H   0  0  0  0  0  0  0  0  0  0  0  0
   -9.6620   -4.2050  -20.8240 H   0  0  0  0  0  0  0  0  0  0  0  0
  -10.3260   -2.5560  -20.9040 H   0  0  0  0  0  0  0  0  0  0  0  0
  -12.8840   -4.9000  -22.0960 H   0  0  0  0  0  0  0  0  0  0  0  0
  -12.3350   -4.1380  -20.5830 H   0  0  0  0  0  0  0  0  0  0  0  0
  -13.3850   -3.5360  -23.9050 H   0  0  0  0  0  0  0  0  0  0  0  0
  -13.7970   -0.7840  -23.7010 H   0  0  0  0  0  0  0  0  0  0  0  0
  -14.8110   -1.8080  -24.7540 H   0  0  0  0  0  0  0  0  0  0  0  0
  -15.3160   -1.4540  -23.0820 H   0  0  0  0  0  0  0  0  0  0  0  0
  1  2  1  0  0  0  0
  1 54  1  0  0  0  0
  1 55  1  0  0  0  0
  1 56  1  0  0  0  0
  2  3  1  0  0  0  0
  2 53  1  0  0  0  0
  3  4  2  0  0  0  0
  3  5  1  0  0  0  0
  5  6  1  0  0  0  0
  5 51  1  0  0  0  0
  5 52  1  0  0  0  0
  6  7  1  0  0  0  0
  6 44  1  0  0  0  0
  7  8  1  0  0  0  0
  7 49  1  0  0  0  0
  7 50  1  0  0  0  0
  8  9  1  1  0  0  0
  8 29  1  0  0  0  0
  8 37  1  0  0  0  0
  9 10  2  0  0  0  0
  9 11  1  0  0  0  0
 11 12  1  0  0  0  0
 11 28  1  0  0  0  0
 12 13  2  0  0  0  0
 12 21  1  0  0  0  0
 13 14  1  0  0  0  0
 13 27  1  0  0  0  0
 14 15  2  0  0  0  0
 15 16  1  0  0  0  0
 15 26  1  0  0  0  0
 16 17  2  0  0  0  0
 16 21  1  0  0  0  0
 17 18  1  0  0  0  0
 17 25  1  0  0  0  0
 18 19  2  0  0  0  0
 18 24  1  0  0  0  0
 19 20  1  0  0  0  0
 19 23  1  0  0  0  0
 20 21  2  0  0  0  0
 20 22  1  0  0  0  0
 28 29  1  0  0  0  0
 28 35  1  0  0  0  0
 28 36  1  0  0  0  0
 29 30  1  0  0  0  0
 29 34  1  6  0  0  0
 30 31  1  0  0  0  0
 30 32  1  0  0  0  0
 30 33  1  0  0  0  0
 37 38  2  0  0  0  0
 37 43  1  0  0  0  0
 38 39  1  0  0  0  0
 38 48  1  0  0  0  0
 39 40  1  0  0  0  0
 39 41  2  0  0  0  0
 41 42  1  0  0  0  0
 41 47  1  0  0  0  0
 42 43  2  0  0  0  0
 42 46  1  0  0  0  0
 43 44  1  0  0  0  0
 44 45  2  0  0  0  0
M  END
>  <MODEL>
       1

$$$$
