output/tmp_first_model_18_29.pdb
 OpenBabel07242622363D

 55 60  0  0  1  0  0  0  0  0999 V2000
  -10.2650   -1.1150  -23.5820 C   0  0  0  0  0  0  0  0  0  0  0  0
   -8.8710   -1.3950  -23.0280 C   0  0  1  0  0  0  0  0  0  0  0  0
   -8.3960   -0.4470  -21.9160 C   0  0  0  0  0  0  0  0  0  0  0  0
   -7.3900   -1.2360  -21.2240 N   0  0  0  0  0  0  0  0  0  0  0  0
   -6.5930   -0.7610  -20.1620 C   0  0  0  0  0  0  0  0  0  0  0  0
   -6.8900   -1.0580  -18.8570 C   0  0  0  0  0  0  0  0  0  0  0  0
   -6.2170   -0.5500  -17.7940 N   0  0  0  0  0  0  0  0  0  0  0  0
   -5.2020    0.2450  -18.0430 C   0  0  0  0  0  0  0  0  0  0  0  0
   -4.7510    0.5790  -19.3560 C   0  0  0  0  0  0  0  0  0  0  0  0
   -3.6150    1.3980  -19.6010 C   0  0  0  0  0  0  0  0  0  0  0  0
   -3.2030    1.6410  -20.8850 C   0  0  0  0  0  0  0  0  0  0  0  0
   -3.8960    1.0870  -21.9860 C   0  0  0  0  0  0  0  0  0  0  0  0
   -5.0040    0.3050  -21.7730 C   0  0  0  0  0  0  0  0  0  0  0  0
   -5.4600    0.0510  -20.4540 C   0  0  0  0  0  0  0  0  0  0  0  0
   -5.5290   -0.1470  -22.6070 H   0  0  0  0  0  0  0  0  0  0  0  0
   -3.5520    1.2740  -23.0010 H   0  0  0  0  0  0  0  0  0  0  0  0
   -2.3320    2.2640  -21.0730 H   0  0  0  0  0  0  0  0  0  0  0  0
   -3.0830    1.8160  -18.7500 H   0  0  0  0  0  0  0  0  0  0  0  0
   -4.6710    0.6500  -17.1800 H   0  0  0  0  0  0  0  0  0  0  0  0
   -7.7120   -1.7320  -18.6260 H   0  0  0  0  0  0  0  0  0  0  0  0
   -7.4810   -2.5850  -21.4640 C   0  0  0  0  0  0  0  0  0  0  0  0
   -6.7250   -3.4090  -20.9890 O   0  0  0  0  0  0  0  0  0  0  0  0
   -8.6720   -2.8160  -22.3970 C   0  0  1  0  0  0  0  0  0  0  0  0
   -9.8730   -3.2320  -21.4950 C   0  0  0  0  0  0  0  0  0  0  0  0
  -11.0370   -3.7020  -22.2420 N   0  0  0  0  0  0  0  0  0  0  0  0
  -12.4120   -3.6600  -21.7040 C   0  0  0  0  0  0  0  0  0  0  0  0
  -13.2870   -2.5460  -22.2340 C   0  0  0  0  0  0  0  0  0  0  0  0
  -14.1130   -1.6080  -21.5820 C   0  0  0  0  0  0  0  0  0  0  0  0
  -14.8140   -0.9340  -22.4910 N   0  0  0  0  0  0  0  0  0  0  0  0
  -14.3800   -1.4380  -23.6270 N   0  0  0  0  0  0  0  0  0  0  0  0
  -13.4780   -2.3990  -23.5440 N   0  0  0  0  0  0  0  0  0  0  0  0
  -14.6980   -1.0830  -24.5180 H   0  0  0  0  0  0  0  0  0  0  0  0
  -14.2580   -1.4080  -20.5280 H   0  0  0  0  0  0  0  0  0  0  0  0
  -12.4300   -3.6480  -20.6110 H   0  0  0  0  0  0  0  0  0  0  0  0
  -12.8830   -4.5910  -22.0350 H   0  0  0  0  0  0  0  0  0  0  0  0
  -10.8450   -4.5420  -23.3040 C   0  0  0  0  0  0  0  0  0  0  0  0
  -11.7740   -5.1620  -23.7980 O   0  0  0  0  0  0  0  0  0  0  0  0
   -9.4630   -4.6900  -23.8470 C   0  0  0  0  0  0  0  0  0  0  0  0
   -9.2740   -5.6780  -24.8060 C   0  0  0  0  0  0  0  0  0  0  0  0
   -8.0370   -5.8810  -25.3740 C   0  0  0  0  0  0  0  0  0  0  0  0
   -6.9910   -5.0700  -24.9560 C   0  0  0  0  0  0  0  0  0  0  0  0
   -5.7950   -5.2490  -25.5370 F   0  0  0  0  0  0  0  0  0  0  0  0
   -7.1410   -4.0950  -23.9890 C   0  0  0  0  0  0  0  0  0  0  0  0
   -8.4040   -3.8950  -23.4140 C   0  0  0  0  0  0  0  0  0  0  0  0
   -6.2790   -3.5030  -23.7030 H   0  0  0  0  0  0  0  0  0  0  0  0
   -7.8790   -6.6350  -26.1340 H   0  0  0  0  0  0  0  0  0  0  0  0
  -10.1360   -6.2710  -25.0820 H   0  0  0  0  0  0  0  0  0  0  0  0
   -9.5190   -4.0240  -20.8290 H   0  0  0  0  0  0  0  0  0  0  0  0
  -10.1680   -2.3800  -20.8730 H   0  0  0  0  0  0  0  0  0  0  0  0
   -7.9670    0.4880  -22.2900 H   0  0  0  0  0  0  0  0  0  0  0  0
   -9.2080   -0.1870  -21.2230 H   0  0  0  0  0  0  0  0  0  0  0  0
   -8.1510   -1.3300  -23.8580 H   0  0  0  0  0  0  0  0  0  0  0  0
  -10.3440   -0.0930  -23.9670 H   0  0  0  0  0  0  0  0  0  0  0  0
  -10.4860   -1.8090  -24.3990 H   0  0  0  0  0  0  0  0  0  0  0  0
  -11.0400   -1.2660  -22.8240 H   0  0  0  0  0  0  0  0  0  0  0  0
  1  2  1  0  0  0  0
  1 53  1  0  0  0  0
  1 54  1  0  0  0  0
  1 55  1  0  0  0  0
  2  3  1  0  0  0  0
  2 23  1  0  0  0  0
  2 52  1  6  0  0  0
  3  4  1  0  0  0  0
  3 50  1  0  0  0  0
  3 51  1  0  0  0  0
  4  5  1  0  0  0  0
  4 21  1  0  0  0  0
  5  6  2  0  0  0  0
  5 14  1  0  0  0  0
  6  7  1  0  0  0  0
  6 20  1  0  0  0  0
  7  8  2  0  0  0  0
  8  9  1  0  0  0  0
  8 19  1  0  0  0  0
  9 10  2  0  0  0  0
  9 14  1  0  0  0  0
 10 11  1  0  0  0  0
 10 18  1  0  0  0  0
 11 12  2  0  0  0  0
 11 17  1  0  0  0  0
 12 13  1  0  0  0  0
 12 16  1  0  0  0  0
 13 14  2  0  0  0  0
 13 15  1  0  0  0  0
 21 22  2  0  0  0  0
 23 21  1  1  0  0  0
 23 24  1  0  0  0  0
 23 44  1  0  0  0  0
 24 25  1  0  0  0  0
 24 48  1  0  0  0  0
 24 49  1  0  0  0  0
 25 26  1  0  0  0  0
 25 36  1  0  0  0  0
 26 27  1  0  0  0  0
 26 34  1  0  0  0  0
 26 35  1  0  0  0  0
 27 28  1  0  0  0  0
 27 31  2  0  0  0  0
 28 29  2  0  0  0  0
 28 33  1  0  0  0  0
 29 30  1  0  0  0  0
 30 31  1  0  0  0  0
 30 32  1  0  0  0  0
 36 37  2  0  0  0  0
 36 38  1  0  0  0  0
 38 39  2  0  0  0  0
 38 44  1  0  0  0  0
 39 40  1  0  0  0  0
 39 47  1  0  0  0  0
 40 41  2  0  0  0  0
 40 46  1  0  0  0  0
 41 42  1  0  0  0  0
 41 43  1  0  0  0  0
 43 44  2  0  0  0  0
 43 45  1  0  0  0  0
M  END
>  <MODEL>
       1

$$$$
