output/tmp_first_model_19_10.pdb
 OpenBabel07242623063D

 57 62  0  0  1  0  0  0  0  0999 V2000
   -9.8120   -0.6220  -23.7160 C   0  0  0  0  0  0  0  0  0  0  0  0
   -8.5010   -0.9980  -23.0290 C   0  0  1  0  0  0  0  0  0  0  0  0
   -8.1640   -0.1000  -21.8320 C   0  0  0  0  0  0  0  0  0  0  0  0
   -7.1820   -0.8910  -21.0980 N   0  0  0  0  0  0  0  0  0  0  0  0
   -6.3420   -0.4240  -20.0600 C   0  0  0  0  0  0  0  0  0  0  0  0
   -6.6160   -0.7360  -18.7500 C   0  0  0  0  0  0  0  0  0  0  0  0
   -5.8950   -0.2980  -17.6880 N   0  0  0  0  0  0  0  0  0  0  0  0
   -4.8620    0.4660  -17.9430 C   0  0  0  0  0  0  0  0  0  0  0  0
   -4.4330    0.8150  -19.2510 C   0  0  0  0  0  0  0  0  0  0  0  0
   -3.2680    1.5990  -19.4420 C   0  0  0  0  0  0  0  0  0  0  0  0
   -2.8360    1.8930  -20.7050 C   0  0  0  0  0  0  0  0  0  0  0  0
   -3.5550    1.4210  -21.8280 C   0  0  0  0  0  0  0  0  0  0  0  0
   -4.7070    0.6860  -21.6620 C   0  0  0  0  0  0  0  0  0  0  0  0
   -5.1830    0.3650  -20.3590 C   0  0  0  0  0  0  0  0  0  0  0  0
   -5.2490    0.3360  -22.5340 H   0  0  0  0  0  0  0  0  0  0  0  0
   -3.1880    1.6410  -22.8290 H   0  0  0  0  0  0  0  0  0  0  0  0
   -1.9380    2.4870  -20.8530 H   0  0  0  0  0  0  0  0  0  0  0  0
   -2.7490    1.9620  -18.5570 H   0  0  0  0  0  0  0  0  0  0  0  0
   -4.2800    0.8300  -17.0960 H   0  0  0  0  0  0  0  0  0  0  0  0
   -7.4660   -1.3710  -18.5110 H   0  0  0  0  0  0  0  0  0  0  0  0
   -7.2520   -2.2350  -21.3960 C   0  0  0  0  0  0  0  0  0  0  0  0
   -6.5600   -3.1040  -20.9030 O   0  0  0  0  0  0  0  0  0  0  0  0
   -8.3670   -2.4370  -22.4200 C   0  0  1  0  0  0  0  0  0  0  0  0
   -9.6160   -2.8950  -21.6310 C   0  0  0  0  0  0  0  0  0  0  0  0
  -10.6940   -3.3190  -22.5080 N   0  0  0  0  0  0  0  0  0  0  0  0
  -12.0670   -3.3070  -21.9870 C   0  0  0  0  0  0  0  0  0  0  0  0
  -13.0350   -2.4430  -22.7380 C   0  0  0  0  0  0  0  0  0  0  0  0
  -13.5090   -1.1810  -22.5660 C   0  0  0  0  0  0  0  0  0  0  0  0
  -14.4120   -0.9390  -23.5840 N   0  3  0  0  0  0  0  0  0  0  0  0
  -14.4910   -2.0300  -24.3550 C   0  0  0  0  0  0  0  0  0  0  0  0
  -13.6700   -2.9590  -23.8470 N   0  0  0  0  0  0  0  0  0  0  0  0
  -13.5220   -3.9130  -24.1670 H   0  0  0  0  0  0  0  0  0  0  0  0
  -15.0740   -2.1330  -25.2560 H   0  0  0  0  0  0  0  0  0  0  0  0
  -14.9660   -0.0910  -23.6620 H   0  0  0  0  0  0  0  0  0  0  0  0
  -13.3280   -0.4280  -21.8060 H   0  0  0  0  0  0  0  0  0  0  0  0
  -12.4480   -4.3350  -22.0190 H   0  0  0  0  0  0  0  0  0  0  0  0
  -12.0350   -2.9730  -20.9510 H   0  0  0  0  0  0  0  0  0  0  0  0
  -10.4090   -4.1890  -23.5280 C   0  0  0  0  0  0  0  0  0  0  0  0
  -11.2390   -4.9310  -24.0120 O   0  0  0  0  0  0  0  0  0  0  0  0
   -9.0060   -4.2280  -24.0390 C   0  0  0  0  0  0  0  0  0  0  0  0
   -8.7170   -5.0680  -25.1170 C   0  0  0  0  0  0  0  0  0  0  0  0
   -7.4130   -5.2270  -25.5510 C   0  0  0  0  0  0  0  0  0  0  0  0
   -6.4090   -4.5370  -24.8750 C   0  0  0  0  0  0  0  0  0  0  0  0
   -5.1420   -4.6720  -25.3010 F   0  0  0  0  0  0  0  0  0  0  0  0
   -6.6660   -3.6840  -23.8190 C   0  0  0  0  0  0  0  0  0  0  0  0
   -7.9980   -3.4920  -23.4230 C   0  0  0  0  0  0  0  0  0  0  0  0
   -5.8370   -3.2210  -23.2890 H   0  0  0  0  0  0  0  0  0  0  0  0
   -7.1570   -5.8940  -26.3700 H   0  0  0  0  0  0  0  0  0  0  0  0
   -9.5400   -5.5650  -25.6200 H   0  0  0  0  0  0  0  0  0  0  0  0
   -9.3060   -3.7180  -20.9720 H   0  0  0  0  0  0  0  0  0  0  0  0
   -9.9860   -2.0690  -21.0130 H   0  0  0  0  0  0  0  0  0  0  0  0
   -7.7700    0.8760  -22.1330 H   0  0  0  0  0  0  0  0  0  0  0  0
   -9.0690    0.0640  -21.2260 H   0  0  0  0  0  0  0  0  0  0  0  0
   -7.6810   -0.9180  -23.7580 H   0  0  0  0  0  0  0  0  0  0  0  0
  -10.6590   -0.7510  -23.0320 H   0  0  0  0  0  0  0  0  0  0  0  0
   -9.9920   -1.2450  -24.6010 H   0  0  0  0  0  0  0  0  0  0  0  0
   -9.7830    0.4290  -24.0320 H   0  0  0  0  0  0  0  0  0  0  0  0
  1  2  1  0  0  0  0
  1 55  1  0  0  0  0
  1 56  1  0  0  0  0
  1 57  1  0  0  0  0
  2  3  1  0  0  0  0
  2 23  1  0  0  0  0
  2 54  1  6  0  0  0
  3  4  1  0  0  0  0
  3 52  1  0  0  0  0
  3 53  1  0  0  0  0
  4  5  1  0  0  0  0
  4 21  1  0  0  0  0
  5  6  2  0  0  0  0
  5 14  1  0  0  0  0
  6  7  1  0  0  0  0
  6 20  1  0  0  0  0
  7  8  2  0  0  0  0
  8  9  1  0  0  0  0
  8 19  1  0  0  0  0
  9 10  2  0  0  0  0
  9 14  1  0  0  0  0
 10 11  1  0  0  0  0
 10 18  1  0  0  0  0
 11 12  2  0  0  0  0
 11 17  1  0  0  0  0
 12 13  1  0  0  0  0
 12 16  1  0  0  0  0
 13 14  2  0  0  0  0
 13 15  1  0  0  0  0
 21 22  2  0  0  0  0
 23 21  1  1  0  0  0
 23 24  1  0  0  0  0
 23 46  1  0  0  0  0
 24 25  1  0  0  0  0
 24 50  1  0  0  0  0
 24 51  1  0  0  0  0
 25 26  1  0  0  0  0
 25 38  1  0  0  0  0
 26 27  1  0  0  0  0
 26 36  1  0  0  0  0
 26 37  1  0  0  0  0
 27 28  2  0  0  0  0
 27 31  1  0  0  0  0
 28 29  1  0  0  0  0
 28 35  1  0  0  0  0
 29 30  2  0  0  0  0
 29 34  1  0  0  0  0
 30 31  1  0  0  0  0
 30 33  1  0  0  0  0
 31 32  1  0  0  0  0
 38 39  2  0  0  0  0
 38 40  1  0  0  0  0
 40 41  2  0  0  0  0
 40 46  1  0  0  0  0
 41 42  1  0  0  0  0
 41 49  1  0  0  0  0
 42 43  2  0  0  0  0
 42 48  1  0  0  0  0
 43 44  1  0  0  0  0
 43 45  1  0  0  0  0
 45 46  2  0  0  0  0
 45 47  1  0  0  0  0
M  CHG  1  29   1
M  END
>  <MODEL>
       1

$$$$
