output/tmp_first_model_11_67.pdb
 OpenBabel07242618513D

 58 63  0  0  1  0  0  0  0  0999 V2000
   -9.3800    1.1330  -30.7340 C   0  0  0  0  0  0  0  0  0  0  0  0
   -8.9740    0.8940  -29.3070 C   0  0  0  0  0  0  0  0  0  0  0  0
   -9.3510    1.5980  -28.1180 C   0  0  0  0  0  0  0  0  0  0  0  0
   -8.7170    0.9240  -27.1230 C   0  0  0  0  0  0  0  0  0  0  0  0
   -8.6180    1.1240  -25.6350 C   0  0  0  0  0  0  0  0  0  0  0  0
   -9.3190    0.1410  -24.8280 N   0  0  0  0  0  0  0  0  0  0  0  0
   -8.6970   -1.1320  -24.5090 C   0  0  0  0  0  0  0  0  0  0  0  0
   -8.9100   -1.5500  -23.0300 C   0  0  2  0  0  0  0  0  0  0  0  0
   -8.1240   -0.6200  -22.0850 C   0  0  0  0  0  0  0  0  0  0  0  0
   -8.1190    0.5900  -22.1050 O   0  0  0  0  0  0  0  0  0  0  0  0
   -7.3710   -1.3870  -21.2210 N   0  0  0  0  0  0  0  0  0  0  0  0
   -6.5850   -0.8260  -20.1880 C   0  0  0  0  0  0  0  0  0  0  0  0
   -6.8880   -1.0760  -18.8720 C   0  0  0  0  0  0  0  0  0  0  0  0
   -6.2150   -0.5630  -17.8120 N   0  0  0  0  0  0  0  0  0  0  0  0
   -5.1850    0.2080  -18.0700 C   0  0  0  0  0  0  0  0  0  0  0  0
   -4.7320    0.5130  -19.3860 C   0  0  0  0  0  0  0  0  0  0  0  0
   -3.6010    1.3430  -19.6080 C   0  0  0  0  0  0  0  0  0  0  0  0
   -3.1750    1.6130  -20.8800 C   0  0  0  0  0  0  0  0  0  0  0  0
   -3.8530    1.0560  -21.9880 C   0  0  0  0  0  0  0  0  0  0  0  0
   -4.9480    0.2500  -21.7980 C   0  0  0  0  0  0  0  0  0  0  0  0
   -5.4340   -0.0240  -20.4870 C   0  0  0  0  0  0  0  0  0  0  0  0
   -5.4630   -0.1720  -22.6540 H   0  0  0  0  0  0  0  0  0  0  0  0
   -3.5120    1.2790  -22.9950 H   0  0  0  0  0  0  0  0  0  0  0  0
   -2.3200    2.2630  -21.0470 H   0  0  0  0  0  0  0  0  0  0  0  0
   -3.0970    1.7690  -18.7440 H   0  0  0  0  0  0  0  0  0  0  0  0
   -4.6410    0.6240  -17.2200 H   0  0  0  0  0  0  0  0  0  0  0  0
   -7.7460   -1.6970  -18.6180 H   0  0  0  0  0  0  0  0  0  0  0  0
   -7.6290   -2.8040  -21.3230 C   0  0  0  0  0  0  0  0  0  0  0  0
   -8.3410   -2.9680  -22.6850 C   0  0  2  0  0  0  0  0  0  0  0  0
   -7.4550   -3.6160  -23.7520 C   0  0  0  0  0  0  0  0  0  0  0  0
   -6.5610   -3.0270  -23.9710 H   0  0  0  0  0  0  0  0  0  0  0  0
   -7.1380   -4.6140  -23.4300 H   0  0  0  0  0  0  0  0  0  0  0  0
   -8.0110   -3.7490  -24.6850 H   0  0  0  0  0  0  0  0  0  0  0  0
   -9.1770   -3.6610  -22.5660 H   0  0  0  0  0  0  0  0  0  0  0  0
   -8.2600   -3.1510  -20.4930 H   0  0  0  0  0  0  0  0  0  0  0  0
   -6.6870   -3.3580  -21.2620 H   0  0  0  0  0  0  0  0  0  0  0  0
  -10.4080   -1.4510  -22.7690 C   0  0  0  0  0  0  0  0  0  0  0  0
  -11.0140   -2.2540  -21.7950 C   0  0  0  0  0  0  0  0  0  0  0  0
  -12.3910   -2.2630  -21.6930 C   0  0  0  0  0  0  0  0  0  0  0  0
  -12.9760   -3.0940  -20.8120 F   0  0  0  0  0  0  0  0  0  0  0  0
  -13.2080   -1.4670  -22.4810 C   0  0  0  0  0  0  0  0  0  0  0  0
  -12.6030   -0.6100  -23.3810 C   0  0  0  0  0  0  0  0  0  0  0  0
  -11.2140   -0.5780  -23.5100 C   0  0  0  0  0  0  0  0  0  0  0  0
  -10.6130    0.4020  -24.4710 C   0  0  0  0  0  0  0  0  0  0  0  0
  -11.2310    1.3690  -24.9010 O   0  0  0  0  0  0  0  0  0  0  0  0
  -13.1910    0.0660  -23.9910 H   0  0  0  0  0  0  0  0  0  0  0  0
  -14.2850   -1.5390  -22.3640 H   0  0  0  0  0  0  0  0  0  0  0  0
  -10.4390   -2.8800  -21.1220 H   0  0  0  0  0  0  0  0  0  0  0  0
   -9.1410   -1.9100  -25.1410 H   0  0  0  0  0  0  0  0  0  0  0  0
   -7.6350   -1.0630  -24.7510 H   0  0  0  0  0  0  0  0  0  0  0  0
   -7.5590    1.1240  -25.3420 H   0  0  0  0  0  0  0  0  0  0  0  0
   -9.0510    2.1000  -25.4100 H   0  0  0  0  0  0  0  0  0  0  0  0
   -8.0230   -0.0940  -27.6450 O   0  0  0  0  0  0  0  0  0  0  0  0
   -8.1820   -0.1090  -29.0170 N   0  0  0  0  0  0  0  0  0  0  0  0
  -10.0380    2.4220  -28.0080 H   0  0  0  0  0  0  0  0  0  0  0  0
  -10.4690    1.1790  -30.8510 H   0  0  0  0  0  0  0  0  0  0  0  0
   -8.9570    2.0730  -31.1040 H   0  0  0  0  0  0  0  0  0  0  0  0
   -9.0150    0.3230  -31.3710 H   0  0  0  0  0  0  0  0  0  0  0  0
  1  2  1  0  0  0  0
  1 56  1  0  0  0  0
  1 57  1  0  0  0  0
  1 58  1  0  0  0  0
  2  3  1  0  0  0  0
  2 54  2  0  0  0  0
  3  4  2  0  0  0  0
  3 55  1  0  0  0  0
  4  5  1  0  0  0  0
  4 53  1  0  0  0  0
  5  6  1  0  0  0  0
  5 51  1  0  0  0  0
  5 52  1  0  0  0  0
  6  7  1  0  0  0  0
  6 44  1  0  0  0  0
  7  8  1  0  0  0  0
  7 49  1  0  0  0  0
  7 50  1  0  0  0  0
  8  9  1  1  0  0  0
  8 29  1  0  0  0  0
  8 37  1  0  0  0  0
  9 10  2  0  0  0  0
  9 11  1  0  0  0  0
 11 12  1  0  0  0  0
 11 28  1  0  0  0  0
 12 13  2  0  0  0  0
 12 21  1  0  0  0  0
 13 14  1  0  0  0  0
 13 27  1  0  0  0  0
 14 15  2  0  0  0  0
 15 16  1  0  0  0  0
 15 26  1  0  0  0  0
 16 17  2  0  0  0  0
 16 21  1  0  0  0  0
 17 18  1  0  0  0  0
 17 25  1  0  0  0  0
 18 19  2  0  0  0  0
 18 24  1  0  0  0  0
 19 20  1  0  0  0  0
 19 23  1  0  0  0  0
 20 21  2  0  0  0  0
 20 22  1  0  0  0  0
 28 29  1  0  0  0  0
 28 35  1  0  0  0  0
 28 36  1  0  0  0  0
 29 30  1  0  0  0  0
 29 34  1  1  0  0  0
 30 31  1  0  0  0  0
 30 32  1  0  0  0  0
 30 33  1  0  0  0  0
 37 38  2  0  0  0  0
 37 43  1  0  0  0  0
 38 39  1  0  0  0  0
 38 48  1  0  0  0  0
 39 40  1  0  0  0  0
 39 41  2  0  0  0  0
 41 42  1  0  0  0  0
 41 47  1  0  0  0  0
 42 43  2  0  0  0  0
 42 46  1  0  0  0  0
 43 44  1  0  0  0  0
 44 45  2  0  0  0  0
 53 54  1  0  0  0  0
M  END
>  <MODEL>
       1

$$$$
