output/tmp_first_model_13_35.pdb
 OpenBabel07242619583D

 40 42  0  0  0  0  0  0  0  0999 V2000
   -9.1320   -1.9670  -22.6570 O   0  0  0  0  0  0  0  0  0  0  0  0
   -8.2290   -1.1760  -22.4140 C   0  0  0  0  0  0  0  0  0  0  0  0
   -6.8420   -1.6560  -21.9870 C   0  0  0  0  0  0  0  0  0  0  0  0
   -6.3140   -0.9060  -20.7770 C   0  0  0  0  0  0  0  0  0  0  0  0
   -6.9890   -0.9970  -19.5850 C   0  0  0  0  0  0  0  0  0  0  0  0
   -6.6180   -0.3990  -18.4280 N   0  0  0  0  0  0  0  0  0  0  0  0
   -5.5320    0.3350  -18.4460 C   0  0  0  0  0  0  0  0  0  0  0  0
   -4.7440    0.5580  -19.6090 C   0  0  0  0  0  0  0  0  0  0  0  0
   -3.6180    1.4280  -19.6140 C   0  0  0  0  0  0  0  0  0  0  0  0
   -2.9480    1.6900  -20.7790 C   0  0  0  0  0  0  0  0  0  0  0  0
   -3.3740    1.0940  -21.9840 C   0  0  0  0  0  0  0  0  0  0  0  0
   -4.4260    0.2070  -21.9920 C   0  0  0  0  0  0  0  0  0  0  0  0
   -5.1480   -0.0820  -20.8080 C   0  0  0  0  0  0  0  0  0  0  0  0
   -4.7270   -0.2390  -22.9380 H   0  0  0  0  0  0  0  0  0  0  0  0
   -2.8790    1.3400  -22.9200 H   0  0  0  0  0  0  0  0  0  0  0  0
   -2.1000    2.3680  -20.7910 H   0  0  0  0  0  0  0  0  0  0  0  0
   -3.3220    1.9100  -18.6850 H   0  0  0  0  0  0  0  0  0  0  0  0
   -5.2270    0.7970  -17.5070 H   0  0  0  0  0  0  0  0  0  0  0  0
   -7.8900   -1.6110  -19.5170 H   0  0  0  0  0  0  0  0  0  0  0  0
   -6.9500   -2.7200  -21.7460 H   0  0  0  0  0  0  0  0  0  0  0  0
   -6.1450   -1.6010  -22.8310 H   0  0  0  0  0  0  0  0  0  0  0  0
   -8.3260    0.1940  -22.4850 N   0  0  0  0  0  0  0  0  0  0  0  0
   -9.4830    0.8720  -21.8420 C   0  0  0  0  0  0  0  0  0  0  0  0
   -9.4650    1.0220  -22.0280 C   0  0  0  0  0  0  0  0  0  0  0  0
   -9.1610    2.7440  -23.8130 C   0  0  0  0  0  0  0  0  0  0  0  0
   -8.3790    5.4230  -23.3870 C   0  0  0  0  0  0  0  0  0  0  0  0
   -7.7970    6.1000  -24.3530 F   0  0  0  0  0  0  0  0  0  0  0  0
   -9.3530    6.1140  -22.8370 F   0  0  0  0  0  0  0  0  0  0  0  0
   -7.5020    5.0370  -22.4870 F   0  0  0  0  0  0  0  0  0  0  0  0
   -7.9180    2.2830  -23.8540 C   0  0  0  0  0  0  0  0  0  0  0  0
   -7.3740    1.0030  -23.2970 C   0  0  0  0  0  0  0  0  0  0  0  0
   -7.0100    0.3930  -24.1240 H   0  0  0  0  0  0  0  0  0  0  0  0
   -6.5200    1.2690  -22.6700 H   0  0  0  0  0  0  0  0  0  0  0  0
  -10.0070    2.1010  -23.6760 H   0  0  0  0  0  0  0  0  0  0  0  0
   -7.1400    2.9050  -24.2980 H   0  0  0  0  0  0  0  0  0  0  0  0
   -9.3080    3.8100  -23.9870 H   0  0  0  0  0  0  0  0  0  0  0  0
  -10.3460    1.8190  -21.7710 H   0  0  0  0  0  0  0  0  0  0  0  0
   -8.7140    1.8570  -21.5470 H   0  0  0  0  0  0  0  0  0  0  0  0
   -9.8130    0.0700  -20.5350 H   0  0  0  0  0  0  0  0  0  0  0  0
  -10.2680    0.5150  -22.7860 H   0  0  0  0  0  0  0  0  0  0  0  0
  1  2  2  0  0  0  0
  2  3  1  0  0  0  0
  2 22  1  0  0  0  0
  3  4  1  0  0  0  0
  3 20  1  0  0  0  0
  3 21  1  0  0  0  0
  4  5  2  0  0  0  0
  4 13  1  0  0  0  0
  5  6  1  0  0  0  0
  5 19  1  0  0  0  0
  6  7  2  0  0  0  0
  7  8  1  0  0  0  0
  7 18  1  0  0  0  0
  8  9  2  0  0  0  0
  8 13  1  0  0  0  0
  9 10  1  0  0  0  0
  9 17  1  0  0  0  0
 10 11  2  0  0  0  0
 10 16  1  0  0  0  0
 11 12  1  0  0  0  0
 11 15  1  0  0  0  0
 12 13  2  0  0  0  0
 12 14  1  0  0  0  0
 22 23  1  0  0  0  0
 22 31  1  0  0  0  0
 23 24  1  0  0  0  0
 23 39  1  0  0  0  0
 23 40  1  0  0  0  0
 24 25  1  0  0  0  0
 24 37  1  0  0  0  0
 24 38  1  0  0  0  0
 25 26  1  0  0  0  0
 25 30  1  0  0  0  0
 25 36  1  0  0  0  0
 26 27  1  0  0  0  0
 26 28  1  0  0  0  0
 26 29  1  0  0  0  0
 30 31  1  0  0  0  0
 30 34  1  0  0  0  0
 30 35  1  0  0  0  0
 31 32  1  0  0  0  0
 31 33  1  0  0  0  0
M  END
>  <MODEL>
       1

$$$$
