output/tmp_first_model_3_44.pdb
 OpenBabel07242614263D

 60 64  0  0  1  0  0  0  0  0999 V2000
  -14.5260   -1.9140  -24.3320 C   0  0  0  0  0  0  0  0  0  0  0  0
  -13.4500   -2.7430  -23.8160 N   0  0  0  0  0  0  0  0  0  0  0  0
  -12.9650   -2.4560  -22.5770 C   0  0  0  0  0  0  0  0  0  0  0  0
  -13.1620   -1.3750  -22.0400 O   0  0  0  0  0  0  0  0  0  0  0  0
  -12.1300   -3.5460  -21.9090 C   0  0  0  0  0  0  0  0  0  0  0  0
  -10.7450   -3.6050  -22.3620 N   0  0  0  0  0  0  0  0  0  0  0  0
   -9.6760   -3.1180  -21.4970 C   0  0  0  0  0  0  0  0  0  0  0  0
   -8.4330   -2.6810  -22.3210 C   0  0  2  0  0  0  0  0  0  0  0  0
   -7.3160   -2.4500  -21.3110 C   0  0  0  0  0  0  0  0  0  0  0  0
   -6.6330   -3.3020  -20.7750 O   0  0  0  0  0  0  0  0  0  0  0  0
   -7.2220   -1.0980  -21.0680 N   0  0  0  0  0  0  0  0  0  0  0  0
   -6.4080   -0.6090  -20.0200 C   0  0  0  0  0  0  0  0  0  0  0  0
   -6.6900   -0.9000  -18.7090 C   0  0  0  0  0  0  0  0  0  0  0  0
   -6.0230   -0.3590  -17.6560 N   0  0  0  0  0  0  0  0  0  0  0  0
   -5.0200    0.4470  -17.9180 C   0  0  0  0  0  0  0  0  0  0  0  0
   -4.5720    0.7590  -19.2340 C   0  0  0  0  0  0  0  0  0  0  0  0
   -3.4410    1.5770  -19.4820 C   0  0  0  0  0  0  0  0  0  0  0  0
   -3.0240    1.8130  -20.7620 C   0  0  0  0  0  0  0  0  0  0  0  0
   -3.7170    1.2460  -21.8530 C   0  0  0  0  0  0  0  0  0  0  0  0
   -4.8240    0.4650  -21.6430 C   0  0  0  0  0  0  0  0  0  0  0  0
   -5.2770    0.2090  -20.3240 C   0  0  0  0  0  0  0  0  0  0  0  0
   -5.3600    0.0210  -22.4750 H   0  0  0  0  0  0  0  0  0  0  0  0
   -3.3790    1.4340  -22.8650 H   0  0  0  0  0  0  0  0  0  0  0  0
   -2.1560    2.4370  -20.9510 H   0  0  0  0  0  0  0  0  0  0  0  0
   -2.9270    2.0160  -18.6340 H   0  0  0  0  0  0  0  0  0  0  0  0
   -4.4940    0.8840  -17.0670 H   0  0  0  0  0  0  0  0  0  0  0  0
   -7.4980   -1.5830  -18.4470 H   0  0  0  0  0  0  0  0  0  0  0  0
   -8.1780   -0.3030  -21.8340 C   0  0  0  0  0  0  0  0  0  0  0  0
   -8.6040   -1.2620  -22.9610 C   0  0  2  0  0  0  0  0  0  0  0  0
  -10.0080   -1.0340  -23.5060 C   0  0  0  0  0  0  0  0  0  0  0  0
  -10.1290    0.2020  -24.1650 O   0  0  0  0  0  0  0  0  0  0  0  0
  -11.4980    0.4410  -24.4060 C   0  0  0  0  0  0  0  0  0  0  0  0
  -12.0550    0.4270  -23.4590 H   0  0  0  0  0  0  0  0  0  0  0  0
  -11.9350   -0.3290  -25.0620 H   0  0  0  0  0  0  0  0  0  0  0  0
  -11.6010    1.4150  -24.8860 H   0  0  0  0  0  0  0  0  0  0  0  0
  -10.2480   -1.8500  -24.2050 H   0  0  0  0  0  0  0  0  0  0  0  0
  -10.7350   -1.0840  -22.6830 H   0  0  0  0  0  0  0  0  0  0  0  0
   -7.9010   -1.1690  -23.8030 H   0  0  0  0  0  0  0  0  0  0  0  0
   -9.0350    0.0010  -21.2130 H   0  0  0  0  0  0  0  0  0  0  0  0
   -7.7230    0.6090  -22.2210 H   0  0  0  0  0  0  0  0  0  0  0  0
   -8.0860   -3.7600  -23.3190 C   0  0  0  0  0  0  0  0  0  0  0  0
   -6.7950   -3.8670  -23.8580 C   0  0  0  0  0  0  0  0  0  0  0  0
   -6.5200   -4.8130  -24.8320 C   0  0  0  0  0  0  0  0  0  0  0  0
   -4.9270   -4.9060  -25.5430 Cl  0  0  0  0  0  0  0  0  0  0  0  0
   -7.4930   -5.7110  -25.2750 C   0  0  0  0  0  0  0  0  0  0  0  0
   -8.7580   -5.6270  -24.7300 C   0  0  0  0  0  0  0  0  0  0  0  0
   -9.0510   -4.6510  -23.7780 C   0  0  0  0  0  0  0  0  0  0  0  0
  -10.4450   -4.5720  -23.2830 C   0  0  0  0  0  0  0  0  0  0  0  0
  -11.2810   -5.3390  -23.7250 O   0  0  0  0  0  0  0  0  0  0  0  0
   -9.5550   -6.3060  -25.0150 H   0  0  0  0  0  0  0  0  0  0  0  0
   -7.2740   -6.4550  -26.0340 H   0  0  0  0  0  0  0  0  0  0  0  0
   -5.9860   -3.2390  -23.5080 H   0  0  0  0  0  0  0  0  0  0  0  0
   -9.3750   -3.8980  -20.7830 H   0  0  0  0  0  0  0  0  0  0  0  0
  -10.0480   -2.2640  -20.9190 H   0  0  0  0  0  0  0  0  0  0  0  0
  -12.6000   -4.5110  -22.1050 H   0  0  0  0  0  0  0  0  0  0  0  0
  -12.1710   -3.3360  -20.8430 H   0  0  0  0  0  0  0  0  0  0  0  0
  -13.3540   -3.6920  -24.1400 H   0  0  0  0  0  0  0  0  0  0  0  0
  -15.1650   -1.6180  -23.4940 H   0  0  0  0  0  0  0  0  0  0  0  0
  -15.0940   -2.4590  -25.0890 H   0  0  0  0  0  0  0  0  0  0  0  0
  -14.1340   -0.9960  -24.7780 H   0  0  0  0  0  0  0  0  0  0  0  0
  1  2  1  0  0  0  0
  1 58  1  0  0  0  0
  1 59  1  0  0  0  0
  1 60  1  0  0  0  0
  2  3  1  0  0  0  0
  2 57  1  0  0  0  0
  3  4  2  0  0  0  0
  3  5  1  0  0  0  0
  5  6  1  0  0  0  0
  5 55  1  0  0  0  0
  5 56  1  0  0  0  0
  6  7  1  0  0  0  0
  6 48  1  0  0  0  0
  7  8  1  0  0  0  0
  7 53  1  0  0  0  0
  7 54  1  0  0  0  0
  8  9  1  1  0  0  0
  8 29  1  0  0  0  0
  8 41  1  0  0  0  0
  9 10  2  0  0  0  0
  9 11  1  0  0  0  0
 11 12  1  0  0  0  0
 11 28  1  0  0  0  0
 12 13  2  0  0  0  0
 12 21  1  0  0  0  0
 13 14  1  0  0  0  0
 13 27  1  0  0  0  0
 14 15  2  0  0  0  0
 15 16  1  0  0  0  0
 15 26  1  0  0  0  0
 16 17  2  0  0  0  0
 16 21  1  0  0  0  0
 17 18  1  0  0  0  0
 17 25  1  0  0  0  0
 18 19  2  0  0  0  0
 18 24  1  0  0  0  0
 19 20  1  0  0  0  0
 19 23  1  0  0  0  0
 20 21  2  0  0  0  0
 20 22  1  0  0  0  0
 28 29  1  0  0  0  0
 28 39  1  0  0  0  0
 28 40  1  0  0  0  0
 29 30  1  0  0  0  0
 29 38  1  6  0  0  0
 30 31  1  0  0  0  0
 30 36  1  0  0  0  0
 30 37  1  0  0  0  0
 31 32  1  0  0  0  0
 32 33  1  0  0  0  0
 32 34  1  0  0  0  0
 32 35  1  0  0  0  0
 41 42  2  0  0  0  0
 41 47  1  0  0  0  0
 42 43  1  0  0  0  0
 42 52  1  0  0  0  0
 43 44  1  0  0  0  0
 43 45  2  0  0  0  0
 45 46  1  0  0  0  0
 45 51  1  0  0  0  0
 46 47  2  0  0  0  0
 46 50  1  0  0  0  0
 47 48  1  0  0  0  0
 48 49  2  0  0  0  0
M  END
>  <MODEL>
       1

$$$$
