output/tmp_first_model_20_68.pdb
 OpenBabel07242623363D

 65 70  0  0  1  0  0  0  0  0999 V2000
   -8.6430    0.6270  -21.3360 O   0  0  0  0  0  0  0  0  0  0  0  0
   -8.3180   -0.3610  -21.9660 C   0  0  0  0  0  0  0  0  0  0  0  0
   -7.4300   -1.4260  -21.2730 C   0  0  0  0  0  0  0  0  0  0  0  0
   -6.5780   -0.8290  -20.1760 C   0  0  0  0  0  0  0  0  0  0  0  0
   -6.8780   -1.0380  -18.8580 C   0  0  0  0  0  0  0  0  0  0  0  0
   -6.1890   -0.5330  -17.7990 N   0  0  0  0  0  0  0  0  0  0  0  0
   -5.1540    0.2200  -18.0660 C   0  0  0  0  0  0  0  0  0  0  0  0
   -4.7220    0.5360  -19.3820 C   0  0  0  0  0  0  0  0  0  0  0  0
   -3.5980    1.3680  -19.6250 C   0  0  0  0  0  0  0  0  0  0  0  0
   -3.2100    1.6600  -20.9020 C   0  0  0  0  0  0  0  0  0  0  0  0
   -3.9300    1.1270  -21.9950 C   0  0  0  0  0  0  0  0  0  0  0  0
   -5.0170    0.3170  -21.7880 C   0  0  0  0  0  0  0  0  0  0  0  0
   -5.4540   -0.0000  -20.4720 C   0  0  0  0  0  0  0  0  0  0  0  0
   -5.5570   -0.0850  -22.6430 H   0  0  0  0  0  0  0  0  0  0  0  0
   -3.6200    1.3700  -23.0070 H   0  0  0  0  0  0  0  0  0  0  0  0
   -2.3550    2.3060  -21.0900 H   0  0  0  0  0  0  0  0  0  0  0  0
   -3.0560    1.7750  -18.7740 H   0  0  0  0  0  0  0  0  0  0  0  0
   -4.5990    0.6260  -17.2160 H   0  0  0  0  0  0  0  0  0  0  0  0
   -7.7310   -1.6600  -18.5820 H   0  0  0  0  0  0  0  0  0  0  0  0
   -8.1050   -2.1730  -20.8360 H   0  0  0  0  0  0  0  0  0  0  0  0
   -6.8030   -1.9570  -21.9970 H   0  0  0  0  0  0  0  0  0  0  0  0
   -8.7020   -0.5790  -23.2920 N   0  0  0  0  0  0  0  0  0  0  0  0
   -9.0690   -1.9080  -23.7600 C   0  0  0  0  0  0  0  0  0  0  0  0
   -7.9230   -2.7590  -24.2660 C   0  0  0  0  0  0  0  0  0  0  0  0
   -6.7050   -2.2120  -24.6630 C   0  0  0  0  0  0  0  0  0  0  0  0
   -5.6760   -3.0260  -25.1190 C   0  0  0  0  0  0  0  0  0  0  0  0
   -5.8430   -4.4020  -25.1950 C   0  0  0  0  0  0  0  0  0  0  0  0
   -7.0620   -4.9410  -24.8030 C   0  0  0  0  0  0  0  0  0  0  0  0
   -7.2920   -6.6650  -24.8930 Cl  0  0  0  0  0  0  0  0  0  0  0  0
   -8.0990   -4.1400  -24.3420 C   0  0  0  0  0  0  0  0  0  0  0  0
   -9.0420   -4.5990  -24.0480 H   0  0  0  0  0  0  0  0  0  0  0  0
   -5.0460   -5.0440  -25.5530 H   0  0  0  0  0  0  0  0  0  0  0  0
   -4.7400   -2.5750  -25.4260 H   0  0  0  0  0  0  0  0  0  0  0  0
   -6.5420   -1.1400  -24.6040 H   0  0  0  0  0  0  0  0  0  0  0  0
   -9.8210   -1.8030  -24.5510 H   0  0  0  0  0  0  0  0  0  0  0  0
   -9.5780   -2.4380  -22.9450 H   0  0  0  0  0  0  0  0  0  0  0  0
   -8.9990    0.5850  -24.1450 C   0  0  2  0  0  0  0  0  0  0  0  0
   -9.0020    0.3590  -25.6870 C   0  0  0  0  0  0  0  0  0  0  0  0
   -8.8320    1.7850  -26.2800 C   0  0  0  0  0  0  0  0  0  0  0  0
   -8.7890    2.6520  -25.0280 C   0  0  2  0  0  0  0  0  0  0  0  0
   -8.0220    1.7750  -24.0440 C   0  0  0  0  0  0  0  0  0  0  0  0
   -7.9580    2.1960  -23.0390 H   0  0  0  0  0  0  0  0  0  0  0  0
   -7.0210    1.5270  -24.4110 H   0  0  0  0  0  0  0  0  0  0  0  0
  -10.1940    2.6670  -24.4430 N   0  3  2  0  0  0  0  0  0  0  0  0
  -10.3860    3.7670  -23.4550 C   0  0  0  0  0  0  0  0  0  0  0  0
  -11.8330    3.9000  -23.0370 C   0  0  0  0  0  0  0  0  0  0  0  0
  -12.1410    5.1160  -22.1530 C   0  0  0  0  0  0  0  0  0  0  0  0
  -12.9750    5.7120  -23.1590 O   0  0  0  0  0  0  0  0  0  0  0  0
  -12.7760    4.5900  -24.0310 C   0  0  0  0  0  0  0  0  0  0  0  0
  -13.7090    4.0580  -24.2500 H   0  0  0  0  0  0  0  0  0  0  0  0
  -12.2880    4.8790  -24.9690 H   0  0  0  0  0  0  0  0  0  0  0  0
  -12.6930    4.9210  -21.2280 H   0  0  0  0  0  0  0  0  0  0  0  0
  -11.2660    5.7390  -21.9240 H   0  0  0  0  0  0  0  0  0  0  0  0
  -12.1530    2.9170  -22.6940 H   0  0  0  0  0  0  0  0  0  0  0  0
  -10.0560    4.7180  -23.8870 H   0  0  0  0  0  0  0  0  0  0  0  0
   -9.7580    3.5850  -22.5700 H   0  0  0  0  0  0  0  0  0  0  0  0
  -10.3460    1.2660  -23.8300 C   0  0  0  0  0  0  0  0  0  0  0  0
  -10.4810    1.3650  -22.7560 H   0  0  0  0  0  0  0  0  0  0  0  0
  -11.2140    0.7730  -24.2710 H   0  0  0  0  0  0  0  0  0  0  0  0
  -10.8920    2.8120  -25.1930 H   0  0  0  0  0  0  0  0  0  0  0  0
   -8.4280    3.6710  -25.1670 H   0  0  0  0  0  0  0  0  0  0  0  0
   -7.8900    1.8850  -26.8280 H   0  0  0  0  0  0  0  0  0  0  0  0
   -9.6440    2.0830  -26.9540 H   0  0  0  0  0  0  0  0  0  0  0  0
   -8.1670   -0.2760  -25.9860 H   0  0  0  0  0  0  0  0  0  0  0  0
   -9.9200   -0.1110  -26.0460 H   0  0  0  0  0  0  0  0  0  0  0  0
  1  2  2  0  0  0  0
  2  3  1  0  0  0  0
  2 22  1  0  0  0  0
  3  4  1  0  0  0  0
  3 20  1  0  0  0  0
  3 21  1  0  0  0  0
  4  5  2  0  0  0  0
  4 13  1  0  0  0  0
  5  6  1  0  0  0  0
  5 19  1  0  0  0  0
  6  7  2  0  0  0  0
  7  8  1  0  0  0  0
  7 18  1  0  0  0  0
  8  9  2  0  0  0  0
  8 13  1  0  0  0  0
  9 10  1  0  0  0  0
  9 17  1  0  0  0  0
 10 11  2  0  0  0  0
 10 16  1  0  0  0  0
 11 12  1  0  0  0  0
 11 15  1  0  0  0  0
 12 13  2  0  0  0  0
 12 14  1  0  0  0  0
 22 23  1  0  0  0  0
 23 24  1  0  0  0  0
 23 35  1  0  0  0  0
 23 36  1  0  0  0  0
 24 25  2  0  0  0  0
 24 30  1  0  0  0  0
 25 26  1  0  0  0  0
 25 34  1  0  0  0  0
 26 27  2  0  0  0  0
 26 33  1  0  0  0  0
 27 28  1  0  0  0  0
 27 32  1  0  0  0  0
 28 29  1  0  0  0  0
 28 30  2  0  0  0  0
 30 31  1  0  0  0  0
 37 22  1  1  0  0  0
 37 38  1  0  0  0  0
 37 41  1  0  0  0  0
 37 57  1  0  0  0  0
 38 39  1  0  0  0  0
 38 64  1  0  0  0  0
 38 65  1  0  0  0  0
 39 40  1  0  0  0  0
 39 62  1  0  0  0  0
 39 63  1  0  0  0  0
 40 41  1  0  0  0  0
 40 44  1  0  0  0  0
 40 61  1  6  0  0  0
 41 42  1  0  0  0  0
 41 43  1  0  0  0  0
 44 45  1  0  0  0  0
 44 57  1  0  0  0  0
 44 60  1  6  0  0  0
 45 46  1  0  0  0  0
 45 55  1  0  0  0  0
 45 56  1  0  0  0  0
 46 47  1  0  0  0  0
 46 49  1  0  0  0  0
 46 54  1  0  0  0  0
 47 48  1  0  0  0  0
 47 52  1  0  0  0  0
 47 53  1  0  0  0  0
 48 49  1  0  0  0  0
 49 50  1  0  0  0  0
 49 51  1  0  0  0  0
 57 58  1  0  0  0  0
 57 59  1  0  0  0  0
M  CHG  1  44   1
M  END
>  <MODEL>
       1

$$$$
