output/tmp_first_model_2_29.pdb
 OpenBabel07242613513D

 55 60  0  0  1  0  0  0  0  0999 V2000
  -10.4390   -1.0790  -23.2890 C   0  0  0  0  0  0  0  0  0  0  0  0
   -8.9990   -1.4360  -22.9380 C   0  0  1  0  0  0  0  0  0  0  0  0
   -8.3670   -0.5030  -21.8930 C   0  0  0  0  0  0  0  0  0  0  0  0
   -7.3750   -1.3540  -21.2490 N   0  0  0  0  0  0  0  0  0  0  0  0
   -6.5740   -0.8710  -20.1900 C   0  0  0  0  0  0  0  0  0  0  0  0
   -6.8970   -1.1270  -18.8820 C   0  0  0  0  0  0  0  0  0  0  0  0
   -6.2450   -0.5860  -17.8220 N   0  0  0  0  0  0  0  0  0  0  0  0
   -5.2310    0.2060  -18.0780 C   0  0  0  0  0  0  0  0  0  0  0  0
   -4.7670    0.5160  -19.3890 C   0  0  0  0  0  0  0  0  0  0  0  0
   -3.6410    1.3450  -19.6230 C   0  0  0  0  0  0  0  0  0  0  0  0
   -3.2340    1.6090  -20.9020 C   0  0  0  0  0  0  0  0  0  0  0  0
   -3.9290    1.0620  -22.0060 C   0  0  0  0  0  0  0  0  0  0  0  0
   -5.0210    0.2560  -21.8060 C   0  0  0  0  0  0  0  0  0  0  0  0
   -5.4620   -0.0310  -20.4880 C   0  0  0  0  0  0  0  0  0  0  0  0
   -5.5500   -0.1810  -22.6480 H   0  0  0  0  0  0  0  0  0  0  0  0
   -3.5990    1.2860  -23.0170 H   0  0  0  0  0  0  0  0  0  0  0  0
   -2.3740    2.2480  -21.0820 H   0  0  0  0  0  0  0  0  0  0  0  0
   -3.1210    1.7660  -18.7660 H   0  0  0  0  0  0  0  0  0  0  0  0
   -4.7110    0.6400  -17.2230 H   0  0  0  0  0  0  0  0  0  0  0  0
   -7.7300   -1.7850  -18.6410 H   0  0  0  0  0  0  0  0  0  0  0  0
   -7.6340   -2.7010  -21.3930 C   0  0  0  0  0  0  0  0  0  0  0  0
   -6.9980   -3.5840  -20.8510 O   0  0  0  0  0  0  0  0  0  0  0  0
   -8.8220   -2.8800  -22.3420 C   0  0  1  0  0  0  0  0  0  0  0  0
  -10.0350   -3.3050  -21.4770 C   0  0  0  0  0  0  0  0  0  0  0  0
  -11.1550   -3.7960  -22.2560 N   0  0  0  0  0  0  0  0  0  0  0  0
  -12.5240   -3.7840  -21.7580 C   0  0  0  0  0  0  0  0  0  0  0  0
  -13.3820   -2.6940  -22.3250 C   0  0  0  0  0  0  0  0  0  0  0  0
  -14.0690   -2.6590  -23.5510 C   0  0  0  0  0  0  0  0  0  0  0  0
  -14.7750   -1.5370  -23.6230 N   0  0  0  0  0  0  0  0  0  0  0  0
  -14.4970   -0.9500  -22.4810 N   0  0  0  0  0  0  0  0  0  0  0  0
  -13.6740   -1.5820  -21.6630 N   0  0  0  0  0  0  0  0  0  0  0  0
  -14.9540   -0.0910  -22.2010 H   0  0  0  0  0  0  0  0  0  0  0  0
  -14.0820   -3.3990  -24.3360 H   0  0  0  0  0  0  0  0  0  0  0  0
  -12.5290   -3.7800  -20.6670 H   0  0  0  0  0  0  0  0  0  0  0  0
  -12.9700   -4.7110  -22.1160 H   0  0  0  0  0  0  0  0  0  0  0  0
  -10.9940   -4.4760  -23.4250 C   0  0  0  0  0  0  0  0  0  0  0  0
  -11.9760   -4.8500  -24.0530 O   0  0  0  0  0  0  0  0  0  0  0  0
   -9.5960   -4.7210  -23.8750 C   0  0  0  0  0  0  0  0  0  0  0  0
   -9.3620   -5.7030  -24.8370 C   0  0  0  0  0  0  0  0  0  0  0  0
   -8.0960   -5.8880  -25.3610 C   0  0  0  0  0  0  0  0  0  0  0  0
   -7.0750   -5.0470  -24.9280 C   0  0  0  0  0  0  0  0  0  0  0  0
   -5.8440   -5.2030  -25.4440 F   0  0  0  0  0  0  0  0  0  0  0  0
   -7.2740   -4.0940  -23.9470 C   0  0  0  0  0  0  0  0  0  0  0  0
   -8.5500   -3.9330  -23.3910 C   0  0  0  0  0  0  0  0  0  0  0  0
   -6.4290   -3.5220  -23.5810 H   0  0  0  0  0  0  0  0  0  0  0  0
   -7.8910   -6.6710  -26.0840 H   0  0  0  0  0  0  0  0  0  0  0  0
  -10.2000   -6.3210  -25.1480 H   0  0  0  0  0  0  0  0  0  0  0  0
  -10.3420   -2.4220  -20.9080 H   0  0  0  0  0  0  0  0  0  0  0  0
   -9.7160   -4.0760  -20.7740 H   0  0  0  0  0  0  0  0  0  0  0  0
   -9.1150   -0.1380  -21.1690 H   0  0  0  0  0  0  0  0  0  0  0  0
   -7.9040    0.3850  -22.3340 H   0  0  0  0  0  0  0  0  0  0  0  0
   -8.3810   -1.4010  -23.8480 H   0  0  0  0  0  0  0  0  0  0  0  0
  -10.5210   -0.1230  -23.8120 H   0  0  0  0  0  0  0  0  0  0  0  0
  -10.8770   -1.8610  -23.9190 H   0  0  0  0  0  0  0  0  0  0  0  0
  -11.0480   -1.0180  -22.3810 H   0  0  0  0  0  0  0  0  0  0  0  0
  1  2  1  0  0  0  0
  1 53  1  0  0  0  0
  1 54  1  0  0  0  0
  1 55  1  0  0  0  0
  2  3  1  0  0  0  0
  2 23  1  0  0  0  0
  2 52  1  6  0  0  0
  3  4  1  0  0  0  0
  3 50  1  0  0  0  0
  3 51  1  0  0  0  0
  4  5  1  0  0  0  0
  4 21  1  0  0  0  0
  5  6  2  0  0  0  0
  5 14  1  0  0  0  0
  6  7  1  0  0  0  0
  6 20  1  0  0  0  0
  7  8  2  0  0  0  0
  8  9  1  0  0  0  0
  8 19  1  0  0  0  0
  9 10  2  0  0  0  0
  9 14  1  0  0  0  0
 10 11  1  0  0  0  0
 10 18  1  0  0  0  0
 11 12  2  0  0  0  0
 11 17  1  0  0  0  0
 12 13  1  0  0  0  0
 12 16  1  0  0  0  0
 13 14  2  0  0  0  0
 13 15  1  0  0  0  0
 21 22  2  0  0  0  0
 23 21  1  1  0  0  0
 23 24  1  0  0  0  0
 23 44  1  0  0  0  0
 24 25  1  0  0  0  0
 24 48  1  0  0  0  0
 24 49  1  0  0  0  0
 25 26  1  0  0  0  0
 25 36  1  0  0  0  0
 26 27  1  0  0  0  0
 26 34  1  0  0  0  0
 26 35  1  0  0  0  0
 27 28  1  0  0  0  0
 27 31  2  0  0  0  0
 28 29  2  0  0  0  0
 28 33  1  0  0  0  0
 29 30  1  0  0  0  0
 30 31  1  0  0  0  0
 30 32  1  0  0  0  0
 36 37  2  0  0  0  0
 36 38  1  0  0  0  0
 38 39  2  0  0  0  0
 38 44  1  0  0  0  0
 39 40  1  0  0  0  0
 39 47  1  0  0  0  0
 40 41  2  0  0  0  0
 40 46  1  0  0  0  0
 41 42  1  0  0  0  0
 41 43  1  0  0  0  0
 43 44  2  0  0  0  0
 43 45  1  0  0  0  0
M  END
>  <MODEL>
       1

$$$$
