output/tmp_first_model_7_27.pdb
 OpenBabel07242616393D

 58 62  0  0  1  0  0  0  0  0999 V2000
   -8.4350    4.4680  -24.6460 C   0  0  0  0  0  0  0  0  0  0  0  0
   -8.2040    3.3380  -23.7210 N   0  3  0  0  0  0  0  0  0  0  0  0
   -7.2630    2.3190  -24.2640 C   0  0  0  0  0  0  0  0  0  0  0  0
   -7.9420    1.2790  -25.1710 C   0  0  0  0  0  0  0  0  0  0  0  0
   -8.7960    0.3410  -24.4450 N   0  0  0  0  0  0  0  0  0  0  0  0
   -8.3620   -1.0350  -24.2280 C   0  0  0  0  0  0  0  0  0  0  0  0
   -8.8120   -1.5670  -22.8370 C   0  0  2  0  0  0  0  0  0  0  0  0
   -8.1330   -0.7100  -21.7430 C   0  0  0  0  0  0  0  0  0  0  0  0
   -8.3060    0.4750  -21.5350 O   0  0  0  0  0  0  0  0  0  0  0  0
   -7.2490   -1.4920  -21.0390 N   0  0  0  0  0  0  0  0  0  0  0  0
   -6.4410   -0.9020  -20.0280 C   0  0  0  0  0  0  0  0  0  0  0  0
   -6.7270   -1.1050  -18.7010 C   0  0  0  0  0  0  0  0  0  0  0  0
   -6.0350   -0.5420  -17.6780 N   0  0  0  0  0  0  0  0  0  0  0  0
   -5.0370    0.2510  -17.9790 C   0  0  0  0  0  0  0  0  0  0  0  0
   -4.6260    0.5410  -19.3110 C   0  0  0  0  0  0  0  0  0  0  0  0
   -3.5380    1.4080  -19.5970 C   0  0  0  0  0  0  0  0  0  0  0  0
   -3.2080    1.7050  -20.8910 C   0  0  0  0  0  0  0  0  0  0  0  0
   -3.9390    1.1410  -21.9600 C   0  0  0  0  0  0  0  0  0  0  0  0
   -4.9760    0.2780  -21.7090 C   0  0  0  0  0  0  0  0  0  0  0  0
   -5.3540   -0.0390  -20.3730 C   0  0  0  0  0  0  0  0  0  0  0  0
   -5.5320   -0.1580  -22.5340 H   0  0  0  0  0  0  0  0  0  0  0  0
   -3.6850    1.4020  -22.9830 H   0  0  0  0  0  0  0  0  0  0  0  0
   -2.3910    2.3870  -21.1030 H   0  0  0  0  0  0  0  0  0  0  0  0
   -2.9970    1.8510  -18.7650 H   0  0  0  0  0  0  0  0  0  0  0  0
   -4.4940    0.7090  -17.1490 H   0  0  0  0  0  0  0  0  0  0  0  0
   -7.5680   -1.7330  -18.4090 H   0  0  0  0  0  0  0  0  0  0  0  0
   -7.0320   -2.8010  -21.6270 C   0  0  0  0  0  0  0  0  0  0  0  0
   -8.2670   -2.9950  -22.5400 C   0  0  2  0  0  0  0  0  0  0  0  0
   -8.0090   -3.8840  -23.7610 C   0  0  0  0  0  0  0  0  0  0  0  0
   -7.7380   -4.9020  -23.4660 H   0  0  0  0  0  0  0  0  0  0  0  0
   -7.1950   -3.5070  -24.3890 H   0  0  0  0  0  0  0  0  0  0  0  0
   -8.8980   -3.9660  -24.3950 H   0  0  0  0  0  0  0  0  0  0  0  0
   -9.0210   -3.4920  -21.9270 H   0  0  0  0  0  0  0  0  0  0  0  0
   -6.9810   -3.5620  -20.8420 H   0  0  0  0  0  0  0  0  0  0  0  0
   -6.0880   -2.8380  -22.1960 H   0  0  0  0  0  0  0  0  0  0  0  0
  -10.3260   -1.3780  -22.7460 C   0  0  0  0  0  0  0  0  0  0  0  0
  -11.1910   -2.2490  -22.0630 C   0  0  0  0  0  0  0  0  0  0  0  0
  -12.5240   -1.9040  -21.9400 C   0  0  0  0  0  0  0  0  0  0  0  0
  -13.3390   -2.7320  -21.2630 F   0  0  0  0  0  0  0  0  0  0  0  0
  -13.0590   -0.7170  -22.4270 C   0  0  0  0  0  0  0  0  0  0  0  0
  -12.2180    0.1240  -23.1220 C   0  0  0  0  0  0  0  0  0  0  0  0
  -10.8690   -0.1930  -23.2730 C   0  0  0  0  0  0  0  0  0  0  0  0
  -10.0050    0.7720  -24.0150 C   0  0  0  0  0  0  0  0  0  0  0  0
  -10.3860    1.9420  -24.2030 O   0  0  0  0  0  0  0  0  0  0  0  0
  -12.5960    1.0330  -23.5760 H   0  0  0  0  0  0  0  0  0  0  0  0
  -14.1050   -0.4760  -22.2680 H   0  0  0  0  0  0  0  0  0  0  0  0
  -10.8650   -3.1760  -21.6020 H   0  0  0  0  0  0  0  0  0  0  0  0
   -8.7760   -1.6880  -25.0090 H   0  0  0  0  0  0  0  0  0  0  0  0
   -7.2680   -1.0720  -24.3020 H   0  0  0  0  0  0  0  0  0  0  0  0
   -8.5540    1.7770  -25.9350 H   0  0  0  0  0  0  0  0  0  0  0  0
   -7.1800    0.6920  -25.6940 H   0  0  0  0  0  0  0  0  0  0  0  0
   -6.4800    2.8310  -24.8310 H   0  0  0  0  0  0  0  0  0  0  0  0
   -6.7870    1.8100  -23.4240 H   0  0  0  0  0  0  0  0  0  0  0  0
   -9.1250    2.8870  -23.5500 H   0  0  0  0  0  0  0  0  0  0  0  0
   -7.8500    3.6970  -22.8170 H   0  0  0  0  0  0  0  0  0  0  0  0
   -7.4870    4.9150  -24.9630 H   0  0  0  0  0  0  0  0  0  0  0  0
   -9.0390    5.2340  -24.1590 H   0  0  0  0  0  0  0  0  0  0  0  0
   -8.9750    4.1280  -25.5350 H   0  0  0  0  0  0  0  0  0  0  0  0
  1  2  1  0  0  0  0
  1 56  1  0  0  0  0
  1 57  1  0  0  0  0
  1 58  1  0  0  0  0
  2  3  1  0  0  0  0
  2 54  1  0  0  0  0
  2 55  1  0  0  0  0
  3  4  1  0  0  0  0
  3 52  1  0  0  0  0
  3 53  1  0  0  0  0
  4  5  1  0  0  0  0
  4 50  1  0  0  0  0
  4 51  1  0  0  0  0
  5  6  1  0  0  0  0
  5 43  1  0  0  0  0
  6  7  1  0  0  0  0
  6 48  1  0  0  0  0
  6 49  1  0  0  0  0
  7  8  1  1  0  0  0
  7 28  1  0  0  0  0
  7 36  1  0  0  0  0
  8  9  2  0  0  0  0
  8 10  1  0  0  0  0
 10 11  1  0  0  0  0
 10 27  1  0  0  0  0
 11 12  2  0  0  0  0
 11 20  1  0  0  0  0
 12 13  1  0  0  0  0
 12 26  1  0  0  0  0
 13 14  2  0  0  0  0
 14 15  1  0  0  0  0
 14 25  1  0  0  0  0
 15 16  2  0  0  0  0
 15 20  1  0  0  0  0
 16 17  1  0  0  0  0
 16 24  1  0  0  0  0
 17 18  2  0  0  0  0
 17 23  1  0  0  0  0
 18 19  1  0  0  0  0
 18 22  1  0  0  0  0
 19 20  2  0  0  0  0
 19 21  1  0  0  0  0
 27 28  1  0  0  0  0
 27 34  1  0  0  0  0
 27 35  1  0  0  0  0
 28 29  1  0  0  0  0
 28 33  1  1  0  0  0
 29 30  1  0  0  0  0
 29 31  1  0  0  0  0
 29 32  1  0  0  0  0
 36 37  2  0  0  0  0
 36 42  1  0  0  0  0
 37 38  1  0  0  0  0
 37 47  1  0  0  0  0
 38 39  1  0  0  0  0
 38 40  2  0  0  0  0
 40 41  1  0  0  0  0
 40 46  1  0  0  0  0
 41 42  2  0  0  0  0
 41 45  1  0  0  0  0
 42 43  1  0  0  0  0
 43 44  2  0  0  0  0
M  CHG  1   2   1
M  END
>  <MODEL>
       1

$$$$
