output/tmp_first_model_5_18.pdb
 OpenBabel07242615323D

 56 61  0  0  1  0  0  0  0  0999 V2000
  -10.2160   -2.9310  -22.0490 C   0  0  0  0  0  0  0  0  0  0  0  0
   -9.1660   -2.0030  -22.6730 C   0  0  1  0  0  0  0  0  0  0  0  0
   -8.6470   -0.9870  -21.6210 C   0  0  0  0  0  0  0  0  0  0  0  0
   -7.3940   -1.5590  -21.1870 N   0  0  0  0  0  0  0  0  0  0  0  0
   -6.5400   -1.0300  -20.1880 C   0  0  0  0  0  0  0  0  0  0  0  0
   -6.7990   -1.2480  -18.8610 C   0  0  0  0  0  0  0  0  0  0  0  0
   -5.9160   -0.9930  -17.8620 N   0  0  0  0  0  0  0  0  0  0  0  0
   -4.7600   -0.4680  -18.2070 C   0  0  0  0  0  0  0  0  0  0  0  0
   -4.4300   -0.0580  -19.5340 C   0  0  0  0  0  0  0  0  0  0  0  0
   -3.2750    0.7260  -19.8090 C   0  0  0  0  0  0  0  0  0  0  0  0
   -3.1780    1.4070  -20.9900 C   0  0  0  0  0  0  0  0  0  0  0  0
   -4.1210    1.1790  -22.0230 C   0  0  0  0  0  0  0  0  0  0  0  0
   -5.1730    0.3220  -21.8310 C   0  0  0  0  0  0  0  0  0  0  0  0
   -5.3760   -0.2820  -20.5540 C   0  0  0  0  0  0  0  0  0  0  0  0
   -5.8660    0.1070  -22.6440 H   0  0  0  0  0  0  0  0  0  0  0  0
   -3.9800    1.6590  -22.9850 H   0  0  0  0  0  0  0  0  0  0  0  0
   -2.3310    2.0570  -21.1750 H   0  0  0  0  0  0  0  0  0  0  0  0
   -2.5500    0.8740  -19.0130 H   0  0  0  0  0  0  0  0  0  0  0  0
   -4.0410   -0.2810  -17.4070 H   0  0  0  0  0  0  0  0  0  0  0  0
   -7.7570   -1.6770  -18.5630 H   0  0  0  0  0  0  0  0  0  0  0  0
   -6.9510   -2.5960  -21.9690 C   0  0  0  0  0  0  0  0  0  0  0  0
   -6.0170   -3.3140  -21.6880 O   0  0  0  0  0  0  0  0  0  0  0  0
   -7.8850   -2.7410  -23.1900 C   0  0  1  0  0  0  0  0  0  0  0  0
   -8.0690   -4.2560  -23.4540 C   0  0  0  0  0  0  0  0  0  0  0  0
   -6.8460   -4.8680  -23.9730 N   0  0  0  0  0  0  0  0  0  0  0  0
   -6.3600   -6.1430  -23.4540 C   0  0  0  0  0  0  0  0  0  0  0  0
   -5.1820   -6.0220  -22.5400 C   0  0  0  0  0  0  0  0  0  0  0  0
   -5.3260   -5.9890  -20.9880 C   0  0  0  0  0  0  0  0  0  0  0  0
   -5.3030   -6.2620  -21.1540 C   0  0  0  0  0  0  0  0  0  0  0  0
   -3.0080   -5.9920  -22.3840 N   0  0  0  0  0  0  0  0  0  0  0  0
   -3.9610   -5.9130  -23.2040 N   0  0  0  0  0  0  0  0  0  0  0  0
   -2.1310   -5.9000  -22.9260 H   0  0  0  0  0  0  0  0  0  0  0  0
   -4.9470   -5.0140  -20.4060 H   0  0  0  0  0  0  0  0  0  0  0  0
   -5.8870   -6.7850  -20.2440 H   0  0  0  0  0  0  0  0  0  0  0  0
   -7.1750   -6.6820  -22.9580 H   0  0  0  0  0  0  0  0  0  0  0  0
   -6.0010   -6.7160  -24.3140 H   0  0  0  0  0  0  0  0  0  0  0  0
   -6.2620   -4.3470  -25.1010 C   0  0  0  0  0  0  0  0  0  0  0  0
   -5.5290   -4.9950  -25.8370 O   0  0  0  0  0  0  0  0  0  0  0  0
   -6.5580   -2.9010  -25.3580 C   0  0  0  0  0  0  0  0  0  0  0  0
   -6.0570   -2.3620  -26.5430 C   0  0  0  0  0  0  0  0  0  0  0  0
   -6.2690   -1.0370  -26.8640 C   0  0  0  0  0  0  0  0  0  0  0  0
   -6.9820   -0.2630  -25.9600 C   0  0  0  0  0  0  0  0  0  0  0  0
   -7.1970    1.0310  -26.2590 F   0  0  0  0  0  0  0  0  0  0  0  0
   -7.4880   -0.7680  -24.7770 C   0  0  0  0  0  0  0  0  0  0  0  0
   -7.3020   -2.1220  -24.4600 C   0  0  0  0  0  0  0  0  0  0  0  0
   -8.0450   -0.0880  -24.1400 H   0  0  0  0  0  0  0  0  0  0  0  0
   -5.8920   -0.5940  -27.7790 H   0  0  0  0  0  0  0  0  0  0  0  0
   -5.5000   -3.0190  -27.2020 H   0  0  0  0  0  0  0  0  0  0  0  0
   -8.3260   -4.7450  -22.5140 H   0  0  0  0  0  0  0  0  0  0  0  0
   -8.8920   -4.4100  -24.1670 H   0  0  0  0  0  0  0  0  0  0  0  0
   -8.5050    0.0190  -22.0420 H   0  0  0  0  0  0  0  0  0  0  0  0
   -9.3300   -0.8850  -20.7760 H   0  0  0  0  0  0  0  0  0  0  0  0
   -9.6440   -1.4850  -23.5110 H   0  0  0  0  0  0  0  0  0  0  0  0
   -9.8180   -3.4810  -21.1880 H   0  0  0  0  0  0  0  0  0  0  0  0
  -10.5810   -3.6600  -22.7780 H   0  0  0  0  0  0  0  0  0  0  0  0
  -11.0780   -2.3510  -21.7020 H   0  0  0  0  0  0  0  0  0  0  0  0
  1  2  1  0  0  0  0
  1 54  1  0  0  0  0
  1 55  1  0  0  0  0
  1 56  1  0  0  0  0
  2  3  1  0  0  0  0
  2 23  1  0  0  0  0
  2 53  1  6  0  0  0
  3  4  1  0  0  0  0
  3 51  1  0  0  0  0
  3 52  1  0  0  0  0
  4  5  1  0  0  0  0
  4 21  1  0  0  0  0
  5  6  2  0  0  0  0
  5 14  1  0  0  0  0
  6  7  1  0  0  0  0
  6 20  1  0  0  0  0
  7  8  2  0  0  0  0
  8  9  1  0  0  0  0
  8 19  1  0  0  0  0
  9 10  2  0  0  0  0
  9 14  1  0  0  0  0
 10 11  1  0  0  0  0
 10 18  1  0  0  0  0
 11 12  2  0  0  0  0
 11 17  1  0  0  0  0
 12 13  1  0  0  0  0
 12 16  1  0  0  0  0
 13 14  2  0  0  0  0
 13 15  1  0  0  0  0
 21 22  2  0  0  0  0
 23 21  1  1  0  0  0
 23 24  1  0  0  0  0
 23 45  1  0  0  0  0
 24 25  1  0  0  0  0
 24 49  1  0  0  0  0
 24 50  1  0  0  0  0
 25 26  1  0  0  0  0
 25 37  1  0  0  0  0
 26 27  1  0  0  0  0
 26 35  1  0  0  0  0
 26 36  1  0  0  0  0
 27 28  1  0  0  0  0
 27 31  2  0  0  0  0
 28 29  2  0  0  0  0
 28 34  1  0  0  0  0
 29 30  1  0  0  0  0
 29 33  1  0  0  0  0
 30 31  1  0  0  0  0
 30 32  1  0  0  0  0
 37 38  2  0  0  0  0
 37 39  1  0  0  0  0
 39 40  2  0  0  0  0
 39 45  1  0  0  0  0
 40 41  1  0  0  0  0
 40 48  1  0  0  0  0
 41 42  2  0  0  0  0
 41 47  1  0  0  0  0
 42 43  1  0  0  0  0
 42 44  1  0  0  0  0
 44 45  2  0  0  0  0
 44 46  1  0  0  0  0
M  END
>  <MODEL>
       1

$$$$
