output/tmp_first_model_8_41.pdb
 OpenBabel07242617113D

 67 71  0  0  1  0  0  0  0  0999 V2000
   -7.3680    3.4110  -21.8020 C   0  0  0  0  0  0  0  0  0  0  0  0
   -8.3420    2.9440  -22.7780 N   0  0  0  0  0  0  0  0  0  0  0  0
   -7.8570    2.2260  -23.8350 C   0  0  0  0  0  0  0  0  0  0  0  0
   -6.6600    2.0260  -23.9970 O   0  0  0  0  0  0  0  0  0  0  0  0
   -8.8770    1.6570  -24.8170 C   0  0  0  0  0  0  0  0  0  0  0  0
   -9.5140    0.4870  -24.2520 N   0  0  0  0  0  0  0  0  0  0  0  0
   -8.7490   -0.7440  -24.1370 C   0  0  0  0  0  0  0  0  0  0  0  0
   -9.0980   -1.5150  -22.8420 C   0  0  2  0  0  0  0  0  0  0  0  0
   -8.5580   -0.7580  -21.6100 C   0  0  0  0  0  0  0  0  0  0  0  0
   -9.0260    0.2310  -21.0820 O   0  0  0  0  0  0  0  0  0  0  0  0
   -7.4100   -1.3900  -21.1920 N   0  0  0  0  0  0  0  0  0  0  0  0
   -6.6120   -0.8240  -20.1750 C   0  0  0  0  0  0  0  0  0  0  0  0
   -6.9310   -1.0560  -18.8630 C   0  0  0  0  0  0  0  0  0  0  0  0
   -6.2300   -0.5780  -17.8100 N   0  0  0  0  0  0  0  0  0  0  0  0
   -5.1940    0.1850  -18.0760 C   0  0  0  0  0  0  0  0  0  0  0  0
   -4.7670    0.5240  -19.3930 C   0  0  0  0  0  0  0  0  0  0  0  0
   -3.6470    1.3660  -19.6270 C   0  0  0  0  0  0  0  0  0  0  0  0
   -3.2820    1.6940  -20.9040 C   0  0  0  0  0  0  0  0  0  0  0  0
   -4.0200    1.2060  -22.0040 C   0  0  0  0  0  0  0  0  0  0  0  0
   -5.0960    0.3730  -21.8060 C   0  0  0  0  0  0  0  0  0  0  0  0
   -5.4950    0.0090  -20.4890 C   0  0  0  0  0  0  0  0  0  0  0  0
   -5.6530    0.0160  -22.6650 H   0  0  0  0  0  0  0  0  0  0  0  0
   -3.7270    1.4780  -23.0130 H   0  0  0  0  0  0  0  0  0  0  0  0
   -2.4180    2.3260  -21.0790 H   0  0  0  0  0  0  0  0  0  0  0  0
   -3.1030    1.7490  -18.7690 H   0  0  0  0  0  0  0  0  0  0  0  0
   -4.6310    0.5730  -17.2280 H   0  0  0  0  0  0  0  0  0  0  0  0
   -7.7980   -1.6680  -18.6310 H   0  0  0  0  0  0  0  0  0  0  0  0
   -7.0380   -2.5550  -21.9630 C   0  0  0  0  0  0  0  0  0  0  0  0
   -8.3200   -2.8610  -22.7570 C   0  0  2  0  0  0  0  0  0  0  0  0
   -8.0410   -3.5700  -24.0850 C   0  0  0  0  0  0  0  0  0  0  0  0
   -7.2430   -5.1380  -23.7690 S   0  0  0  0  0  0  0  0  0  0  0  0
   -8.1090   -5.9020  -22.8830 O   0  0  0  0  0  0  0  0  0  0  0  0
   -5.8640   -4.8880  -23.3530 O   0  0  0  0  0  0  0  0  0  0  0  0
   -7.2750   -5.9030  -25.2770 N   0  0  0  0  0  0  0  0  0  0  0  0
   -6.4780   -5.2940  -26.3410 C   0  0  0  0  0  0  0  0  0  0  0  0
   -5.4210   -5.1650  -26.0750 H   0  0  0  0  0  0  0  0  0  0  0  0
   -6.5410   -5.9580  -27.2070 H   0  0  0  0  0  0  0  0  0  0  0  0
   -6.9080   -4.3390  -26.6580 H   0  0  0  0  0  0  0  0  0  0  0  0
   -6.9680   -7.3290  -25.1200 C   0  0  0  0  0  0  0  0  0  0  0  0
   -5.9330   -7.4940  -24.7790 H   0  0  0  0  0  0  0  0  0  0  0  0
   -7.6670   -7.7660  -24.4010 H   0  0  0  0  0  0  0  0  0  0  0  0
   -7.1100   -7.8170  -26.0900 H   0  0  0  0  0  0  0  0  0  0  0  0
   -7.3720   -2.9820  -24.7180 H   0  0  0  0  0  0  0  0  0  0  0  0
   -8.9590   -3.7780  -24.6420 H   0  0  0  0  0  0  0  0  0  0  0  0
   -8.9160   -3.5560  -22.1650 H   0  0  0  0  0  0  0  0  0  0  0  0
   -6.1850   -2.3500  -22.6260 H   0  0  0  0  0  0  0  0  0  0  0  0
   -6.7560   -3.3820  -21.3080 H   0  0  0  0  0  0  0  0  0  0  0  0
  -10.6060   -1.6170  -22.7550 C   0  0  0  0  0  0  0  0  0  0  0  0
  -11.2080   -2.5730  -21.9360 C   0  0  0  0  0  0  0  0  0  0  0  0
  -12.5820   -2.5970  -21.8260 C   0  0  0  0  0  0  0  0  0  0  0  0
  -13.1430   -3.5100  -21.0210 F   0  0  0  0  0  0  0  0  0  0  0  0
  -13.4190   -1.7150  -22.4970 C   0  0  0  0  0  0  0  0  0  0  0  0
  -12.8230   -0.7450  -23.2710 C   0  0  0  0  0  0  0  0  0  0  0  0
  -11.4360   -0.6710  -23.3680 C   0  0  0  0  0  0  0  0  0  0  0  0
  -10.8680    0.5090  -24.0830 C   0  0  0  0  0  0  0  0  0  0  0  0
  -11.5630    1.4400  -24.4640 O   0  0  0  0  0  0  0  0  0  0  0  0
  -13.3970    0.0020  -23.8030 H   0  0  0  0  0  0  0  0  0  0  0  0
  -14.4950   -1.7800  -22.3820 H   0  0  0  0  0  0  0  0  0  0  0  0
  -10.6280   -3.2900  -21.3670 H   0  0  0  0  0  0  0  0  0  0  0  0
   -7.6820   -0.4960  -24.1540 H   0  0  0  0  0  0  0  0  0  0  0  0
   -8.9630   -1.3940  -24.9960 H   0  0  0  0  0  0  0  0  0  0  0  0
   -9.6790    2.3610  -25.0650 H   0  0  0  0  0  0  0  0  0  0  0  0
   -8.3410    1.3870  -25.7340 H   0  0  0  0  0  0  0  0  0  0  0  0
   -9.2850    2.7830  -22.4460 H   0  0  0  0  0  0  0  0  0  0  0  0
   -7.8960    3.8700  -20.9640 H   0  0  0  0  0  0  0  0  0  0  0  0
   -6.7200    4.1790  -22.2360 H   0  0  0  0  0  0  0  0  0  0  0  0
   -6.7500    2.5610  -21.4760 H   0  0  0  0  0  0  0  0  0  0  0  0
  1  2  1  0  0  0  0
  1 65  1  0  0  0  0
  1 66  1  0  0  0  0
  1 67  1  0  0  0  0
  2  3  1  0  0  0  0
  2 64  1  0  0  0  0
  3  4  2  0  0  0  0
  3  5  1  0  0  0  0
  5  6  1  0  0  0  0
  5 62  1  0  0  0  0
  5 63  1  0  0  0  0
  6  7  1  0  0  0  0
  6 55  1  0  0  0  0
  7  8  1  0  0  0  0
  7 60  1  0  0  0  0
  7 61  1  0  0  0  0
  8  9  1  1  0  0  0
  8 29  1  0  0  0  0
  8 48  1  0  0  0  0
  9 10  2  0  0  0  0
  9 11  1  0  0  0  0
 11 12  1  0  0  0  0
 11 28  1  0  0  0  0
 12 13  2  0  0  0  0
 12 21  1  0  0  0  0
 13 14  1  0  0  0  0
 13 27  1  0  0  0  0
 14 15  2  0  0  0  0
 15 16  1  0  0  0  0
 15 26  1  0  0  0  0
 16 17  2  0  0  0  0
 16 21  1  0  0  0  0
 17 18  1  0  0  0  0
 17 25  1  0  0  0  0
 18 19  2  0  0  0  0
 18 24  1  0  0  0  0
 19 20  1  0  0  0  0
 19 23  1  0  0  0  0
 20 21  2  0  0  0  0
 20 22  1  0  0  0  0
 28 29  1  0  0  0  0
 28 46  1  0  0  0  0
 28 47  1  0  0  0  0
 29 30  1  0  0  0  0
 29 45  1  1  0  0  0
 30 31  1  0  0  0  0
 30 43  1  0  0  0  0
 30 44  1  0  0  0  0
 31 32  2  0  0  0  0
 31 33  2  0  0  0  0
 31 34  1  0  0  0  0
 34 35  1  0  0  0  0
 34 39  1  0  0  0  0
 35 36  1  0  0  0  0
 35 37  1  0  0  0  0
 35 38  1  0  0  0  0
 39 40  1  0  0  0  0
 39 41  1  0  0  0  0
 39 42  1  0  0  0  0
 48 49  2  0  0  0  0
 48 54  1  0  0  0  0
 49 50  1  0  0  0  0
 49 59  1  0  0  0  0
 50 51  1  0  0  0  0
 50 52  2  0  0  0  0
 52 53  1  0  0  0  0
 52 58  1  0  0  0  0
 53 54  2  0  0  0  0
 53 57  1  0  0  0  0
 54 55  1  0  0  0  0
 55 56  2  0  0  0  0
M  END
>  <MODEL>
       1

$$$$
