output/tmp_first_model_14_84.pdb
 OpenBabel07242620283D

 63 68  0  0  1  0  0  0  0  0999 V2000
   -8.2870   -4.1370  -23.5050 C   0  0  0  0  0  0  0  0  0  0  0  0
   -8.4930   -2.9580  -22.5640 C   0  0  1  0  0  0  0  0  0  0  0  0
   -7.3070   -2.7130  -21.6230 C   0  0  0  0  0  0  0  0  0  0  0  0
   -7.4060   -1.3060  -21.3140 N   0  0  0  0  0  0  0  0  0  0  0  0
   -6.6350   -0.7110  -20.2840 C   0  0  0  0  0  0  0  0  0  0  0  0
   -6.9590   -0.9580  -18.9740 C   0  0  0  0  0  0  0  0  0  0  0  0
   -6.2940   -0.4550  -17.9080 N   0  0  0  0  0  0  0  0  0  0  0  0
   -5.2370    0.2810  -18.1460 C   0  0  0  0  0  0  0  0  0  0  0  0
   -4.7590    0.5790  -19.4530 C   0  0  0  0  0  0  0  0  0  0  0  0
   -3.5980    1.3710  -19.6550 C   0  0  0  0  0  0  0  0  0  0  0  0
   -3.1490    1.6300  -20.9200 C   0  0  0  0  0  0  0  0  0  0  0  0
   -3.8340    1.1040  -22.0380 C   0  0  0  0  0  0  0  0  0  0  0  0
   -4.9620    0.3410  -21.8680 C   0  0  0  0  0  0  0  0  0  0  0  0
   -5.4650    0.0680  -20.5650 C   0  0  0  0  0  0  0  0  0  0  0  0
   -5.4790   -0.0580  -22.7360 H   0  0  0  0  0  0  0  0  0  0  0  0
   -3.4680    1.3130  -23.0390 H   0  0  0  0  0  0  0  0  0  0  0  0
   -2.2680    2.2480  -21.0740 H   0  0  0  0  0  0  0  0  0  0  0  0
   -3.0860    1.7710  -18.7840 H   0  0  0  0  0  0  0  0  0  0  0  0
   -4.6940    0.6700  -17.2840 H   0  0  0  0  0  0  0  0  0  0  0  0
   -7.8170   -1.5900  -18.7420 H   0  0  0  0  0  0  0  0  0  0  0  0
   -8.2280   -0.5960  -22.1620 C   0  0  0  0  0  0  0  0  0  0  0  0
   -8.4270    0.5960  -22.0760 O   0  0  0  0  0  0  0  0  0  0  0  0
   -8.7770   -1.5660  -23.2310 C   0  0  1  0  0  0  0  0  0  0  0  0
   -7.9740   -1.2710  -24.5260 C   0  0  0  0  0  0  0  0  0  0  0  0
   -8.5780   -1.7860  -25.7510 N   0  0  0  0  0  0  0  0  0  0  0  0
   -7.7330   -2.1470  -26.8800 C   0  0  0  0  0  0  0  0  0  0  0  0
   -7.6680   -3.6710  -27.0580 C   0  0  0  0  0  0  0  0  0  0  0  0
   -6.8540   -4.3510  -26.4590 O   0  0  0  0  0  0  0  0  0  0  0  0
   -8.5890   -4.1710  -27.9240 N   0  0  0  0  0  0  0  0  0  0  0  0
   -8.6030   -5.5770  -28.3080 C   0  0  0  0  0  0  0  0  0  0  0  0
   -7.4870   -5.9600  -29.1760 C   0  0  0  0  0  0  0  0  0  0  0  0
   -6.3940   -5.1470  -29.2670 F   0  0  0  0  0  0  0  0  0  0  0  0
   -7.4920   -6.8760  -30.1550 C   0  0  0  0  0  0  0  0  0  0  0  0
   -7.6350   -7.0560  -30.1240 C   0  0  0  0  0  0  0  0  0  0  0  0
   -6.3700   -7.5530  -30.3240 H   0  0  0  0  0  0  0  0  0  0  0  0
   -8.5990   -8.1860  -29.3860 H   0  0  0  0  0  0  0  0  0  0  0  0
   -6.4090   -6.6600  -30.7540 H   0  0  0  0  0  0  0  0  0  0  0  0
   -8.1440   -6.8990  -31.2890 H   0  0  0  0  0  0  0  0  0  0  0  0
   -8.5940   -6.1960  -27.3910 H   0  0  0  0  0  0  0  0  0  0  0  0
   -9.6100   -5.7680  -28.7520 H   0  0  0  0  0  0  0  0  0  0  0  0
   -9.3740   -3.5860  -28.1780 H   0  0  0  0  0  0  0  0  0  0  0  0
   -8.1310   -1.6720  -27.7810 H   0  0  0  0  0  0  0  0  0  0  0  0
   -6.7230   -1.7780  -26.6960 H   0  0  0  0  0  0  0  0  0  0  0  0
   -9.9180   -1.8150  -25.9700 C   0  0  0  0  0  0  0  0  0  0  0  0
  -10.3920   -2.1040  -27.0710 O   0  0  0  0  0  0  0  0  0  0  0  0
  -10.7790   -1.5290  -24.7950 C   0  0  0  0  0  0  0  0  0  0  0  0
  -12.1490   -1.5050  -25.0250 C   0  0  0  0  0  0  0  0  0  0  0  0
  -13.0290   -1.2590  -23.9950 C   0  0  0  0  0  0  0  0  0  0  0  0
  -12.4990   -1.0870  -22.7230 C   0  0  0  0  0  0  0  0  0  0  0  0
  -13.3680   -0.8920  -21.7220 F   0  0  0  0  0  0  0  0  0  0  0  0
  -11.1420   -1.1420  -22.4570 C   0  0  0  0  0  0  0  0  0  0  0  0
  -10.2500   -1.3650  -23.5120 C   0  0  0  0  0  0  0  0  0  0  0  0
  -10.7800   -1.0340  -21.4420 H   0  0  0  0  0  0  0  0  0  0  0  0
  -14.1030   -1.2130  -24.1350 H   0  0  0  0  0  0  0  0  0  0  0  0
  -12.4760   -1.7060  -26.0360 H   0  0  0  0  0  0  0  0  0  0  0  0
   -6.9770   -1.7200  -24.4460 H   0  0  0  0  0  0  0  0  0  0  0  0
   -7.8580   -0.1800  -24.5880 H   0  0  0  0  0  0  0  0  0  0  0  0
   -6.3460   -2.9600  -22.1020 H   0  0  0  0  0  0  0  0  0  0  0  0
   -7.3620   -3.2890  -20.6990 H   0  0  0  0  0  0  0  0  0  0  0  0
   -9.3730   -3.1610  -21.9360 H   0  0  0  0  0  0  0  0  0  0  0  0
   -9.1270   -4.2390  -24.1970 H   0  0  0  0  0  0  0  0  0  0  0  0
   -7.3800   -4.0230  -24.1080 H   0  0  0  0  0  0  0  0  0  0  0  0
   -8.2000   -5.0720  -22.9400 H   0  0  0  0  0  0  0  0  0  0  0  0
  1  2  1  0  0  0  0
  1 61  1  0  0  0  0
  1 62  1  0  0  0  0
  1 63  1  0  0  0  0
  2  3  1  0  0  0  0
  2 23  1  0  0  0  0
  2 60  1  1  0  0  0
  3  4  1  0  0  0  0
  3 58  1  0  0  0  0
  3 59  1  0  0  0  0
  4  5  1  0  0  0  0
  4 21  1  0  0  0  0
  5  6  2  0  0  0  0
  5 14  1  0  0  0  0
  6  7  1  0  0  0  0
  6 20  1  0  0  0  0
  7  8  2  0  0  0  0
  8  9  1  0  0  0  0
  8 19  1  0  0  0  0
  9 10  2  0  0  0  0
  9 14  1  0  0  0  0
 10 11  1  0  0  0  0
 10 18  1  0  0  0  0
 11 12  2  0  0  0  0
 11 17  1  0  0  0  0
 12 13  1  0  0  0  0
 12 16  1  0  0  0  0
 13 14  2  0  0  0  0
 13 15  1  0  0  0  0
 21 22  2  0  0  0  0
 23 21  1  1  0  0  0
 23 24  1  0  0  0  0
 23 52  1  0  0  0  0
 24 25  1  0  0  0  0
 24 56  1  0  0  0  0
 24 57  1  0  0  0  0
 25 26  1  0  0  0  0
 25 44  1  0  0  0  0
 26 27  1  0  0  0  0
 26 42  1  0  0  0  0
 26 43  1  0  0  0  0
 27 28  2  0  0  0  0
 27 29  1  0  0  0  0
 29 30  1  0  0  0  0
 29 41  1  0  0  0  0
 30 31  1  0  0  0  0
 30 39  1  0  0  0  0
 30 40  1  0  0  0  0
 31 32  1  0  0  0  0
 31 33  1  0  0  0  0
 31 34  1  0  0  0  0
 33 34  1  0  0  0  0
 33 37  1  0  0  0  0
 33 38  1  0  0  0  0
 34 35  1  0  0  0  0
 34 36  1  0  0  0  0
 44 45  2  0  0  0  0
 44 46  1  0  0  0  0
 46 47  2  0  0  0  0
 46 52  1  0  0  0  0
 47 48  1  0  0  0  0
 47 55  1  0  0  0  0
 48 49  2  0  0  0  0
 48 54  1  0  0  0  0
 49 50  1  0  0  0  0
 49 51  1  0  0  0  0
 51 52  2  0  0  0  0
 51 53  1  0  0  0  0
M  END
>  <MODEL>
       1

$$$$
