output/tmp_first_model_17_11.pdb
 OpenBabel07242622053D

 48 52  0  0  0  0  0  0  0  0999 V2000
   -9.6080   -4.0210  -22.4780 C   0  0  0  0  0  0  0  0  0  0  0  0
   -8.9010   -2.7900  -22.1750 N   0  0  0  0  0  0  0  0  0  0  0  0
   -7.8730   -2.7150  -21.2740 C   0  0  0  0  0  0  0  0  0  0  0  0
   -7.3270   -3.6240  -20.6870 O   0  0  0  0  0  0  0  0  0  0  0  0
   -7.5010   -1.3600  -21.1890 N   0  0  0  0  0  0  0  0  0  0  0  0
   -6.6190   -0.8350  -20.1950 C   0  0  0  0  0  0  0  0  0  0  0  0
   -6.9050   -1.0720  -18.8740 C   0  0  0  0  0  0  0  0  0  0  0  0
   -6.2080   -0.5520  -17.8370 N   0  0  0  0  0  0  0  0  0  0  0  0
   -5.1780    0.2050  -18.1030 C   0  0  0  0  0  0  0  0  0  0  0  0
   -4.7400    0.5110  -19.4180 C   0  0  0  0  0  0  0  0  0  0  0  0
   -3.6130    1.3510  -19.6370 C   0  0  0  0  0  0  0  0  0  0  0  0
   -3.2050    1.6340  -20.9100 C   0  0  0  0  0  0  0  0  0  0  0  0
   -3.9040    1.0780  -22.0030 C   0  0  0  0  0  0  0  0  0  0  0  0
   -4.9920    0.2600  -21.8140 C   0  0  0  0  0  0  0  0  0  0  0  0
   -5.4630   -0.0330  -20.5050 C   0  0  0  0  0  0  0  0  0  0  0  0
   -5.5150   -0.1520  -22.6680 H   0  0  0  0  0  0  0  0  0  0  0  0
   -3.5650    1.2940  -23.0100 H   0  0  0  0  0  0  0  0  0  0  0  0
   -2.3400    2.2680  -21.0900 H   0  0  0  0  0  0  0  0  0  0  0  0
   -3.0900    1.7570  -18.7760 H   0  0  0  0  0  0  0  0  0  0  0  0
   -4.6350    0.6090  -17.2510 H   0  0  0  0  0  0  0  0  0  0  0  0
   -7.7500   -1.6940  -18.5920 H   0  0  0  0  0  0  0  0  0  0  0  0
   -8.2270   -0.5870  -22.0970 C   0  0  0  0  0  0  0  0  0  0  0  0
   -8.1070    0.6000  -22.2420 O   0  0  0  0  0  0  0  0  0  0  0  0
   -9.1700   -1.5280  -22.8230 C   0  0  0  0  0  0  0  0  0  0  0  0
   -9.1190   -1.4690  -24.3760 C   0  0  0  0  0  0  0  0  0  0  0  0
  -10.5100   -0.9690  -24.3840 N   0  0  0  0  0  0  0  0  0  0  0  0
  -10.8650    0.4450  -25.2010 S   0  0  0  0  0  0  0  0  0  0  0  0
  -12.2310    0.7690  -24.8460 O   0  0  0  0  0  0  0  0  0  0  0  0
  -10.4490    0.2390  -26.5710 O   0  0  0  0  0  0  0  0  0  0  0  0
   -9.8240    1.7440  -24.5530 C   0  0  0  0  0  0  0  0  0  0  0  0
  -10.2940    2.5470  -23.5200 C   0  0  0  0  0  0  0  0  0  0  0  0
   -9.5000    3.5970  -23.0780 C   0  0  0  0  0  0  0  0  0  0  0  0
   -8.2270    3.7980  -23.5960 C   0  0  0  0  0  0  0  0  0  0  0  0
   -7.7700    2.9910  -24.6320 C   0  0  0  0  0  0  0  0  0  0  0  0
   -8.5760    1.9740  -25.1310 C   0  0  0  0  0  0  0  0  0  0  0  0
   -8.2450    1.3590  -25.9630 H   0  0  0  0  0  0  0  0  0  0  0  0
   -6.7960    3.1750  -25.0720 H   0  0  0  0  0  0  0  0  0  0  0  0
   -7.6060    4.5900  -23.1870 H   0  0  0  0  0  0  0  0  0  0  0  0
   -9.8870    4.2990  -22.3510 H   0  0  0  0  0  0  0  0  0  0  0  0
  -11.2670    2.3520  -23.0750 H   0  0  0  0  0  0  0  0  0  0  0  0
  -10.6290   -1.0100  -22.9070 C   0  0  0  0  0  0  0  0  0  0  0  0
  -10.7920   -0.0350  -22.4300 H   0  0  0  0  0  0  0  0  0  0  0  0
  -11.3990   -1.7050  -22.5620 H   0  0  0  0  0  0  0  0  0  0  0  0
   -9.0320   -2.4370  -24.8770 H   0  0  0  0  0  0  0  0  0  0  0  0
   -8.3780   -0.7860  -24.8100 H   0  0  0  0  0  0  0  0  0  0  0  0
  -10.1330   -4.3940  -21.5900 H   0  0  0  0  0  0  0  0  0  0  0  0
  -10.3370   -3.8010  -23.2650 H   0  0  0  0  0  0  0  0  0  0  0  0
   -8.9080   -4.7900  -22.8300 H   0  0  0  0  0  0  0  0  0  0  0  0
  1  2  1  0  0  0  0
  1 46  1  0  0  0  0
  1 47  1  0  0  0  0
  1 48  1  0  0  0  0
  2  3  1  0  0  0  0
  2 24  1  0  0  0  0
  3  4  2  0  0  0  0
  3  5  1  0  0  0  0
  5  6  1  0  0  0  0
  5 22  1  0  0  0  0
  6  7  2  0  0  0  0
  6 15  1  0  0  0  0
  7  8  1  0  0  0  0
  7 21  1  0  0  0  0
  8  9  2  0  0  0  0
  9 10  1  0  0  0  0
  9 20  1  0  0  0  0
 10 11  2  0  0  0  0
 10 15  1  0  0  0  0
 11 12  1  0  0  0  0
 11 19  1  0  0  0  0
 12 13  2  0  0  0  0
 12 18  1  0  0  0  0
 13 14  1  0  0  0  0
 13 17  1  0  0  0  0
 14 15  2  0  0  0  0
 14 16  1  0  0  0  0
 22 23  2  0  0  0  0
 22 24  1  0  0  0  0
 24 25  1  0  0  0  0
 24 41  1  0  0  0  0
 25 26  1  0  0  0  0
 25 44  1  0  0  0  0
 25 45  1  0  0  0  0
 26 27  1  0  0  0  0
 26 41  1  0  0  0  0
 27 28  2  0  0  0  0
 27 29  2  0  0  0  0
 27 30  1  0  0  0  0
 30 31  2  0  0  0  0
 30 35  1  0  0  0  0
 31 32  1  0  0  0  0
 31 40  1  0  0  0  0
 32 33  2  0  0  0  0
 32 39  1  0  0  0  0
 33 34  1  0  0  0  0
 33 38  1  0  0  0  0
 34 35  2  0  0  0  0
 34 37  1  0  0  0  0
 35 36  1  0  0  0  0
 41 42  1  0  0  0  0
 41 43  1  0  0  0  0
M  END
>  <MODEL>
       1

$$$$
