output/tmp_first_model_12_65.pdb
 OpenBabel07242619253D

 55 60  0  0  1  0  0  0  0  0999 V2000
   -7.8790   -3.5910  -24.1070 C   0  0  0  0  0  0  0  0  0  0  0  0
   -8.2850   -2.8460  -22.8270 C   0  0  1  0  0  0  0  0  0  0  0  0
   -7.0790   -2.6100  -21.8900 C   0  0  0  0  0  0  0  0  0  0  0  0
   -7.4000   -1.3770  -21.1990 N   0  0  0  0  0  0  0  0  0  0  0  0
   -6.6070   -0.8000  -20.1690 C   0  0  0  0  0  0  0  0  0  0  0  0
   -6.9070   -1.0480  -18.8560 C   0  0  0  0  0  0  0  0  0  0  0  0
   -6.2010   -0.5580  -17.8060 N   0  0  0  0  0  0  0  0  0  0  0  0
   -5.1700    0.2060  -18.0710 C   0  0  0  0  0  0  0  0  0  0  0  0
   -4.7480    0.5570  -19.3850 C   0  0  0  0  0  0  0  0  0  0  0  0
   -3.6190    1.3900  -19.6230 C   0  0  0  0  0  0  0  0  0  0  0  0
   -3.2500    1.7120  -20.8970 C   0  0  0  0  0  0  0  0  0  0  0  0
   -4.0010    1.2300  -21.9890 C   0  0  0  0  0  0  0  0  0  0  0  0
   -5.0880    0.4040  -21.7850 C   0  0  0  0  0  0  0  0  0  0  0  0
   -5.4980    0.0540  -20.4730 C   0  0  0  0  0  0  0  0  0  0  0  0
   -5.6100   -0.0120  -22.6430 H   0  0  0  0  0  0  0  0  0  0  0  0
   -3.6840    1.4560  -23.0030 H   0  0  0  0  0  0  0  0  0  0  0  0
   -2.3630    2.3110  -21.0850 H   0  0  0  0  0  0  0  0  0  0  0  0
   -3.0650    1.7590  -18.7630 H   0  0  0  0  0  0  0  0  0  0  0  0
   -4.6210    0.6100  -17.2200 H   0  0  0  0  0  0  0  0  0  0  0  0
   -7.7600   -1.6720  -18.5990 H   0  0  0  0  0  0  0  0  0  0  0  0
   -8.4270   -0.6570  -21.7660 C   0  0  0  0  0  0  0  0  0  0  0  0
   -8.8140    0.4080  -21.3330 O   0  0  0  0  0  0  0  0  0  0  0  0
   -8.9680   -1.4440  -22.9960 C   0  0  1  0  0  0  0  0  0  0  0  0
   -8.5210   -0.7770  -24.3220 C   0  0  0  0  0  0  0  0  0  0  0  0
   -9.2070    0.4700  -24.5790 N   0  0  0  0  0  0  0  0  0  0  0  0
   -8.4420    1.6600  -24.9110 C   0  0  0  0  0  0  0  0  0  0  0  0
   -8.1430    2.5200  -23.7160 C   0  0  0  0  0  0  0  0  0  0  0  0
   -8.9570    3.3810  -23.0700 C   0  0  0  0  0  0  0  0  0  0  0  0
   -8.2660    3.9330  -22.0390 O   0  0  0  0  0  0  0  0  0  0  0  0
   -7.0620    3.3450  -22.0870 C   0  0  0  0  0  0  0  0  0  0  0  0
   -6.9120    2.5160  -23.0690 N   0  0  0  0  0  0  0  0  0  0  0  0
   -6.3890    3.5890  -21.2740 H   0  0  0  0  0  0  0  0  0  0  0  0
   -9.9890    3.6780  -23.1660 H   0  0  0  0  0  0  0  0  0  0  0  0
   -9.0420    2.2160  -25.6370 H   0  0  0  0  0  0  0  0  0  0  0  0
   -7.4990    1.3510  -25.3720 H   0  0  0  0  0  0  0  0  0  0  0  0
  -10.5650    0.5880  -24.4600 C   0  0  0  0  0  0  0  0  0  0  0  0
  -11.1800    1.5460  -24.9200 O   0  0  0  0  0  0  0  0  0  0  0  0
  -11.2380   -0.5020  -23.6830 C   0  0  0  0  0  0  0  0  0  0  0  0
  -12.6310   -0.4980  -23.6190 C   0  0  0  0  0  0  0  0  0  0  0  0
  -13.2950   -1.3880  -22.7970 C   0  0  0  0  0  0  0  0  0  0  0  0
  -12.5410   -2.2620  -22.0240 C   0  0  0  0  0  0  0  0  0  0  0  0
  -13.1720   -3.0890  -21.1750 F   0  0  0  0  0  0  0  0  0  0  0  0
  -11.1650   -2.2960  -22.0800 C   0  0  0  0  0  0  0  0  0  0  0  0
  -10.4880   -1.4430  -22.9590 C   0  0  0  0  0  0  0  0  0  0  0  0
  -10.6530   -2.9710  -21.4040 H   0  0  0  0  0  0  0  0  0  0  0  0
  -14.3750   -1.4300  -22.7350 H   0  0  0  0  0  0  0  0  0  0  0  0
  -13.1550    0.2320  -24.2280 H   0  0  0  0  0  0  0  0  0  0  0  0
   -8.7010   -1.4820  -25.1500 H   0  0  0  0  0  0  0  0  0  0  0  0
   -7.4510   -0.5510  -24.2500 H   0  0  0  0  0  0  0  0  0  0  0  0
   -6.1450   -2.5120  -22.4650 H   0  0  0  0  0  0  0  0  0  0  0  0
   -6.9360   -3.4250  -21.1710 H   0  0  0  0  0  0  0  0  0  0  0  0
   -9.0090   -3.4640  -22.2930 H   0  0  0  0  0  0  0  0  0  0  0  0
   -8.7250   -3.7370  -24.7890 H   0  0  0  0  0  0  0  0  0  0  0  0
   -7.1010   -3.0450  -24.6540 H   0  0  0  0  0  0  0  0  0  0  0  0
   -7.4720   -4.5800  -23.8690 H   0  0  0  0  0  0  0  0  0  0  0  0
  1  2  1  0  0  0  0
  1 53  1  0  0  0  0
  1 54  1  0  0  0  0
  1 55  1  0  0  0  0
  2  3  1  0  0  0  0
  2 23  1  0  0  0  0
  2 52  1  1  0  0  0
  3  4  1  0  0  0  0
  3 50  1  0  0  0  0
  3 51  1  0  0  0  0
  4  5  1  0  0  0  0
  4 21  1  0  0  0  0
  5  6  2  0  0  0  0
  5 14  1  0  0  0  0
  6  7  1  0  0  0  0
  6 20  1  0  0  0  0
  7  8  2  0  0  0  0
  8  9  1  0  0  0  0
  8 19  1  0  0  0  0
  9 10  2  0  0  0  0
  9 14  1  0  0  0  0
 10 11  1  0  0  0  0
 10 18  1  0  0  0  0
 11 12  2  0  0  0  0
 11 17  1  0  0  0  0
 12 13  1  0  0  0  0
 12 16  1  0  0  0  0
 13 14  2  0  0  0  0
 13 15  1  0  0  0  0
 21 22  2  0  0  0  0
 23 21  1  1  0  0  0
 23 24  1  0  0  0  0
 23 44  1  0  0  0  0
 24 25  1  0  0  0  0
 24 48  1  0  0  0  0
 24 49  1  0  0  0  0
 25 26  1  0  0  0  0
 25 36  1  0  0  0  0
 26 27  1  0  0  0  0
 26 34  1  0  0  0  0
 26 35  1  0  0  0  0
 27 28  2  0  0  0  0
 27 31  1  0  0  0  0
 28 29  1  0  0  0  0
 28 33  1  0  0  0  0
 29 30  1  0  0  0  0
 30 31  2  0  0  0  0
 30 32  1  0  0  0  0
 36 37  2  0  0  0  0
 36 38  1  0  0  0  0
 38 39  2  0  0  0  0
 38 44  1  0  0  0  0
 39 40  1  0  0  0  0
 39 47  1  0  0  0  0
 40 41  2  0  0  0  0
 40 46  1  0  0  0  0
 41 42  1  0  0  0  0
 41 43  1  0  0  0  0
 43 44  2  0  0  0  0
 43 45  1  0  0  0  0
M  END
>  <MODEL>
       1

$$$$
