output/tmp_first_model_13_16.pdb
 OpenBabel07242619583D

 61 66  0  0  1  0  0  0  0  0999 V2000
   -7.3860    3.3810  -21.7960 C   0  0  0  0  0  0  0  0  0  0  0  0
   -8.2190    2.9120  -22.8870 N   0  0  0  0  0  0  0  0  0  0  0  0
   -7.6480    2.2360  -23.9080 C   0  0  0  0  0  0  0  0  0  0  0  0
   -6.4350    2.1300  -24.0290 O   0  0  0  0  0  0  0  0  0  0  0  0
   -8.6060    1.6190  -24.9380 C   0  0  0  0  0  0  0  0  0  0  0  0
   -9.3410    0.4710  -24.4370 N   0  0  0  0  0  0  0  0  0  0  0  0
   -8.6310   -0.7860  -24.2610 C   0  0  0  0  0  0  0  0  0  0  0  0
   -9.0330   -1.4940  -22.9400 C   0  0  2  0  0  0  0  0  0  0  0  0
   -8.4830   -0.7050  -21.7240 C   0  0  0  0  0  0  0  0  0  0  0  0
   -8.9110    0.3390  -21.2700 O   0  0  0  0  0  0  0  0  0  0  0  0
   -7.4000   -1.3810  -21.2080 N   0  0  0  0  0  0  0  0  0  0  0  0
   -6.6020   -0.8100  -20.1780 C   0  0  0  0  0  0  0  0  0  0  0  0
   -6.9060   -1.0420  -18.8610 C   0  0  0  0  0  0  0  0  0  0  0  0
   -6.1990   -0.5470  -17.8170 N   0  0  0  0  0  0  0  0  0  0  0  0
   -5.1640    0.2100  -18.0800 C   0  0  0  0  0  0  0  0  0  0  0  0
   -4.7270    0.5320  -19.3960 C   0  0  0  0  0  0  0  0  0  0  0  0
   -3.6000    1.3660  -19.6410 C   0  0  0  0  0  0  0  0  0  0  0  0
   -3.2140    1.6540  -20.9220 C   0  0  0  0  0  0  0  0  0  0  0  0
   -3.9360    1.1230  -22.0130 C   0  0  0  0  0  0  0  0  0  0  0  0
   -5.0290    0.3170  -21.8020 C   0  0  0  0  0  0  0  0  0  0  0  0
   -5.4630    0.0040  -20.4850 C   0  0  0  0  0  0  0  0  0  0  0  0
   -5.5830   -0.0740  -22.6500 H   0  0  0  0  0  0  0  0  0  0  0  0
   -3.6460    1.3610  -23.0310 H   0  0  0  0  0  0  0  0  0  0  0  0
   -2.3620    2.3050  -21.1020 H   0  0  0  0  0  0  0  0  0  0  0  0
   -3.0690    1.7740  -18.7850 H   0  0  0  0  0  0  0  0  0  0  0  0
   -4.6170    0.6130  -17.2290 H   0  0  0  0  0  0  0  0  0  0  0  0
   -7.7580   -1.6660  -18.6010 H   0  0  0  0  0  0  0  0  0  0  0  0
   -7.0710   -2.6040  -21.9090 C   0  0  0  0  0  0  0  0  0  0  0  0
   -8.3140   -2.8710  -22.7770 C   0  0  2  0  0  0  0  0  0  0  0  0
   -7.9530   -3.6330  -24.0710 C   0  0  0  0  0  0  0  0  0  0  0  0
   -7.4240   -4.9610  -23.7780 N   0  0  0  0  0  0  0  0  0  0  0  0
   -6.1350   -5.2360  -23.6750 N   0  0  0  0  0  0  0  0  0  0  0  0
   -6.1680   -6.5200  -23.3520 C   0  0  0  0  0  0  0  0  0  0  0  0
   -7.4270   -6.9960  -23.2620 N   0  0  0  0  0  0  0  0  0  0  0  0
   -8.2080   -5.9900  -23.5380 N   0  0  0  0  0  0  0  0  0  0  0  0
   -5.2830   -7.1170  -23.1720 H   0  0  0  0  0  0  0  0  0  0  0  0
   -7.1690   -3.1190  -24.6360 H   0  0  0  0  0  0  0  0  0  0  0  0
   -8.8320   -3.7830  -24.7060 H   0  0  0  0  0  0  0  0  0  0  0  0
   -8.9880   -3.5230  -22.2180 H   0  0  0  0  0  0  0  0  0  0  0  0
   -6.1680   -2.4790  -22.5270 H   0  0  0  0  0  0  0  0  0  0  0  0
   -6.8730   -3.4210  -21.2060 H   0  0  0  0  0  0  0  0  0  0  0  0
  -10.5510   -1.5220  -22.8650 C   0  0  0  0  0  0  0  0  0  0  0  0
  -11.1940   -2.3830  -21.9670 C   0  0  0  0  0  0  0  0  0  0  0  0
  -12.5740   -2.3930  -21.8790 C   0  0  0  0  0  0  0  0  0  0  0  0
  -13.3570   -3.4770  -20.7670 Cl  0  0  0  0  0  0  0  0  0  0  0  0
  -13.3570   -1.5390  -22.6550 C   0  0  0  0  0  0  0  0  0  0  0  0
  -12.7290   -0.6340  -23.4870 C   0  0  0  0  0  0  0  0  0  0  0  0
  -11.3370   -0.5990  -23.5710 C   0  0  0  0  0  0  0  0  0  0  0  0
  -10.7080    0.5160  -24.3550 C   0  0  0  0  0  0  0  0  0  0  0  0
  -11.3780    1.4180  -24.8470 O   0  0  0  0  0  0  0  0  0  0  0  0
  -13.2900    0.0870  -24.0730 H   0  0  0  0  0  0  0  0  0  0  0  0
  -14.4370   -1.5730  -22.5730 H   0  0  0  0  0  0  0  0  0  0  0  0
  -10.6290   -3.0310  -21.3080 H   0  0  0  0  0  0  0  0  0  0  0  0
   -8.8340   -1.4610  -25.1090 H   0  0  0  0  0  0  0  0  0  0  0  0
   -7.5620   -0.5500  -24.2410 H   0  0  0  0  0  0  0  0  0  0  0  0
   -7.9740    1.3410  -25.7890 H   0  0  0  0  0  0  0  0  0  0  0  0
   -9.3680    2.3330  -25.2670 H   0  0  0  0  0  0  0  0  0  0  0  0
   -9.2180    2.8630  -22.7520 H   0  0  0  0  0  0  0  0  0  0  0  0
   -6.6870    4.1500  -22.1400 H   0  0  0  0  0  0  0  0  0  0  0  0
   -6.8060    2.5550  -21.3600 H   0  0  0  0  0  0  0  0  0  0  0  0
   -8.0500    3.8130  -21.0540 H   0  0  0  0  0  0  0  0  0  0  0  0
  1  2  1  0  0  0  0
  1 59  1  0  0  0  0
  1 60  1  0  0  0  0
  1 61  1  0  0  0  0
  2  3  1  0  0  0  0
  2 58  1  0  0  0  0
  3  4  2  0  0  0  0
  3  5  1  0  0  0  0
  5  6  1  0  0  0  0
  5 56  1  0  0  0  0
  5 57  1  0  0  0  0
  6  7  1  0  0  0  0
  6 49  1  0  0  0  0
  7  8  1  0  0  0  0
  7 54  1  0  0  0  0
  7 55  1  0  0  0  0
  8  9  1  1  0  0  0
  8 29  1  0  0  0  0
  8 42  1  0  0  0  0
  9 10  2  0  0  0  0
  9 11  1  0  0  0  0
 11 12  1  0  0  0  0
 11 28  1  0  0  0  0
 12 13  2  0  0  0  0
 12 21  1  0  0  0  0
 13 14  1  0  0  0  0
 13 27  1  0  0  0  0
 14 15  2  0  0  0  0
 15 16  1  0  0  0  0
 15 26  1  0  0  0  0
 16 17  2  0  0  0  0
 16 21  1  0  0  0  0
 17 18  1  0  0  0  0
 17 25  1  0  0  0  0
 18 19  2  0  0  0  0
 18 24  1  0  0  0  0
 19 20  1  0  0  0  0
 19 23  1  0  0  0  0
 20 21  2  0  0  0  0
 20 22  1  0  0  0  0
 28 29  1  0  0  0  0
 28 40  1  0  0  0  0
 28 41  1  0  0  0  0
 29 30  1  0  0  0  0
 29 39  1  1  0  0  0
 30 31  1  0  0  0  0
 30 37  1  0  0  0  0
 30 38  1  0  0  0  0
 31 32  1  0  0  0  0
 31 35  1  0  0  0  0
 32 33  2  0  0  0  0
 33 34  1  0  0  0  0
 33 36  1  0  0  0  0
 34 35  2  0  0  0  0
 42 43  2  0  0  0  0
 42 48  1  0  0  0  0
 43 44  1  0  0  0  0
 43 53  1  0  0  0  0
 44 45  1  0  0  0  0
 44 46  2  0  0  0  0
 46 47  1  0  0  0  0
 46 52  1  0  0  0  0
 47 48  2  0  0  0  0
 47 51  1  0  0  0  0
 48 49  1  0  0  0  0
 49 50  2  0  0  0  0
M  END
>  <MODEL>
       1

$$$$
