output/tmp_first_model_17_77.pdb
 OpenBabel07242622053D

 55 60  0  0  1  0  0  0  0  0999 V2000
  -10.3440   -1.0640  -23.3780 C   0  0  0  0  0  0  0  0  0  0  0  0
   -8.9120   -1.4410  -23.0140 C   0  0  1  0  0  0  0  0  0  0  0  0
   -8.3360   -0.5350  -21.9150 C   0  0  0  0  0  0  0  0  0  0  0  0
   -7.3500   -1.3850  -21.2730 N   0  0  0  0  0  0  0  0  0  0  0  0
   -6.5610   -0.8960  -20.2090 C   0  0  0  0  0  0  0  0  0  0  0  0
   -6.8830   -1.1620  -18.9040 C   0  0  0  0  0  0  0  0  0  0  0  0
   -6.2350   -0.6110  -17.8490 N   0  0  0  0  0  0  0  0  0  0  0  0
   -5.2320    0.1940  -18.0940 C   0  0  0  0  0  0  0  0  0  0  0  0
   -4.7740    0.5230  -19.4020 C   0  0  0  0  0  0  0  0  0  0  0  0
   -3.6590    1.3690  -19.6340 C   0  0  0  0  0  0  0  0  0  0  0  0
   -3.2670    1.6560  -20.9130 C   0  0  0  0  0  0  0  0  0  0  0  0
   -3.9640    1.1130  -22.0170 C   0  0  0  0  0  0  0  0  0  0  0  0
   -5.0370    0.2830  -21.8180 C   0  0  0  0  0  0  0  0  0  0  0  0
   -5.4650   -0.0280  -20.5010 C   0  0  0  0  0  0  0  0  0  0  0  0
   -5.5630   -0.1590  -22.6580 H   0  0  0  0  0  0  0  0  0  0  0  0
   -3.6380    1.3440  -23.0250 H   0  0  0  0  0  0  0  0  0  0  0  0
   -2.4070    2.2940  -21.0930 H   0  0  0  0  0  0  0  0  0  0  0  0
   -3.1270    1.7740  -18.7790 H   0  0  0  0  0  0  0  0  0  0  0  0
   -4.7210    0.6250  -17.2340 H   0  0  0  0  0  0  0  0  0  0  0  0
   -7.7080   -1.8300  -18.6620 H   0  0  0  0  0  0  0  0  0  0  0  0
   -7.5950   -2.7310  -21.4500 C   0  0  0  0  0  0  0  0  0  0  0  0
   -7.0140   -3.6210  -20.8570 O   0  0  0  0  0  0  0  0  0  0  0  0
   -8.7270   -2.9060  -22.4700 C   0  0  1  0  0  0  0  0  0  0  0  0
   -9.9630   -3.4010  -21.6760 C   0  0  0  0  0  0  0  0  0  0  0  0
  -11.0510   -3.8490  -22.5300 N   0  0  0  0  0  0  0  0  0  0  0  0
  -12.4410   -3.6460  -22.1460 C   0  0  0  0  0  0  0  0  0  0  0  0
  -13.1320   -2.5320  -22.8740 C   0  0  0  0  0  0  0  0  0  0  0  0
  -13.6910   -2.4980  -24.1060 C   0  0  0  0  0  0  0  0  0  0  0  0
  -14.4240   -1.3450  -24.2100 O   0  0  0  0  0  0  0  0  0  0  0  0
  -14.2470   -0.7370  -23.0240 C   0  0  0  0  0  0  0  0  0  0  0  0
  -13.4760   -1.3650  -22.2010 N   0  0  0  0  0  0  0  0  0  0  0  0
  -14.7360    0.2140  -22.8680 H   0  0  0  0  0  0  0  0  0  0  0  0
  -13.6660   -3.1320  -24.9780 H   0  0  0  0  0  0  0  0  0  0  0  0
  -12.5030   -3.3940  -21.0820 H   0  0  0  0  0  0  0  0  0  0  0  0
  -12.9840   -4.5750  -22.3640 H   0  0  0  0  0  0  0  0  0  0  0  0
  -10.8370   -4.5290  -23.6910 C   0  0  0  0  0  0  0  0  0  0  0  0
  -11.7610   -4.9220  -24.4000 O   0  0  0  0  0  0  0  0  0  0  0  0
   -9.4100   -4.7520  -24.0630 C   0  0  0  0  0  0  0  0  0  0  0  0
   -9.1250   -5.7520  -24.9940 C   0  0  0  0  0  0  0  0  0  0  0  0
   -7.8380   -5.9200  -25.4720 C   0  0  0  0  0  0  0  0  0  0  0  0
   -6.8530   -5.0560  -24.9990 C   0  0  0  0  0  0  0  0  0  0  0  0
   -5.6040   -5.1800  -25.4800 F   0  0  0  0  0  0  0  0  0  0  0  0
   -7.0950   -4.0990  -24.0280 C   0  0  0  0  0  0  0  0  0  0  0  0
   -8.3970   -3.9430  -23.5320 C   0  0  0  0  0  0  0  0  0  0  0  0
   -6.2640   -3.5240  -23.6310 H   0  0  0  0  0  0  0  0  0  0  0  0
   -7.5810   -6.6990  -26.1870 H   0  0  0  0  0  0  0  0  0  0  0  0
   -9.9320   -6.3970  -25.3340 H   0  0  0  0  0  0  0  0  0  0  0  0
  -10.3420   -2.5840  -21.0600 H   0  0  0  0  0  0  0  0  0  0  0  0
   -9.6370   -4.1900  -20.9910 H   0  0  0  0  0  0  0  0  0  0  0  0
   -9.1200   -0.2240  -21.2010 H   0  0  0  0  0  0  0  0  0  0  0  0
   -7.8770    0.3840  -22.2980 H   0  0  0  0  0  0  0  0  0  0  0  0
   -8.2640   -1.3670  -23.8980 H   0  0  0  0  0  0  0  0  0  0  0  0
  -10.4060   -0.1050  -23.9000 H   0  0  0  0  0  0  0  0  0  0  0  0
  -10.7960   -1.8310  -24.0130 H   0  0  0  0  0  0  0  0  0  0  0  0
  -10.9580   -0.9810  -22.4740 H   0  0  0  0  0  0  0  0  0  0  0  0
  1  2  1  0  0  0  0
  1 53  1  0  0  0  0
  1 54  1  0  0  0  0
  1 55  1  0  0  0  0
  2  3  1  0  0  0  0
  2 23  1  0  0  0  0
  2 52  1  6  0  0  0
  3  4  1  0  0  0  0
  3 50  1  0  0  0  0
  3 51  1  0  0  0  0
  4  5  1  0  0  0  0
  4 21  1  0  0  0  0
  5  6  2  0  0  0  0
  5 14  1  0  0  0  0
  6  7  1  0  0  0  0
  6 20  1  0  0  0  0
  7  8  2  0  0  0  0
  8  9  1  0  0  0  0
  8 19  1  0  0  0  0
  9 10  2  0  0  0  0
  9 14  1  0  0  0  0
 10 11  1  0  0  0  0
 10 18  1  0  0  0  0
 11 12  2  0  0  0  0
 11 17  1  0  0  0  0
 12 13  1  0  0  0  0
 12 16  1  0  0  0  0
 13 14  2  0  0  0  0
 13 15  1  0  0  0  0
 21 22  2  0  0  0  0
 23 21  1  1  0  0  0
 23 24  1  0  0  0  0
 23 44  1  0  0  0  0
 24 25  1  0  0  0  0
 24 48  1  0  0  0  0
 24 49  1  0  0  0  0
 25 26  1  0  0  0  0
 25 36  1  0  0  0  0
 26 27  1  0  0  0  0
 26 34  1  0  0  0  0
 26 35  1  0  0  0  0
 27 28  2  0  0  0  0
 27 31  1  0  0  0  0
 28 29  1  0  0  0  0
 28 33  1  0  0  0  0
 29 30  1  0  0  0  0
 30 31  2  0  0  0  0
 30 32  1  0  0  0  0
 36 37  2  0  0  0  0
 36 38  1  0  0  0  0
 38 39  2  0  0  0  0
 38 44  1  0  0  0  0
 39 40  1  0  0  0  0
 39 47  1  0  0  0  0
 40 41  2  0  0  0  0
 40 46  1  0  0  0  0
 41 42  1  0  0  0  0
 41 43  1  0  0  0  0
 43 44  2  0  0  0  0
 43 45  1  0  0  0  0
M  END
>  <MODEL>
       1

$$$$
