output/tmp_first_model_17_62.pdb
 OpenBabel07242622053D

 44 47  0  0  0  0  0  0  0  0999 V2000
   -5.5930   -3.0110  -21.6590 O   0  0  0  0  0  0  0  0  0  0  0  0
   -6.7930   -2.8130  -21.7640 C   0  0  0  0  0  0  0  0  0  0  0  0
   -7.4160   -1.4890  -21.2590 C   0  0  0  0  0  0  0  0  0  0  0  0
   -6.5820   -0.8300  -20.1830 C   0  0  0  0  0  0  0  0  0  0  0  0
   -6.8760   -1.0460  -18.8620 C   0  0  0  0  0  0  0  0  0  0  0  0
   -6.1870   -0.5400  -17.8080 N   0  0  0  0  0  0  0  0  0  0  0  0
   -5.1550    0.2190  -18.0700 C   0  0  0  0  0  0  0  0  0  0  0  0
   -4.7220    0.5310  -19.3870 C   0  0  0  0  0  0  0  0  0  0  0  0
   -3.5960    1.3610  -19.6220 C   0  0  0  0  0  0  0  0  0  0  0  0
   -3.2000    1.6420  -20.8970 C   0  0  0  0  0  0  0  0  0  0  0  0
   -3.9120    1.0970  -21.9940 C   0  0  0  0  0  0  0  0  0  0  0  0
   -5.0020    0.2860  -21.7880 C   0  0  0  0  0  0  0  0  0  0  0  0
   -5.4450   -0.0120  -20.4750 C   0  0  0  0  0  0  0  0  0  0  0  0
   -5.5220   -0.1480  -22.6360 H   0  0  0  0  0  0  0  0  0  0  0  0
   -3.5760    1.3140  -23.0010 H   0  0  0  0  0  0  0  0  0  0  0  0
   -2.3330    2.2680  -21.0830 H   0  0  0  0  0  0  0  0  0  0  0  0
   -3.0640    1.7670  -18.7640 H   0  0  0  0  0  0  0  0  0  0  0  0
   -4.6080    0.6250  -17.2190 H   0  0  0  0  0  0  0  0  0  0  0  0
   -7.7230   -1.6690  -18.5800 H   0  0  0  0  0  0  0  0  0  0  0  0
   -7.5610   -0.8060  -22.1080 H   0  0  0  0  0  0  0  0  0  0  0  0
   -8.4180   -1.6980  -20.8570 H   0  0  0  0  0  0  0  0  0  0  0  0
   -7.6280   -3.7580  -22.3130 N   0  0  0  0  0  0  0  0  0  0  0  0
   -8.9740   -3.5030  -22.8080 C   0  0  0  0  0  0  0  0  0  0  0  0
   -9.2470   -4.2850  -24.0960 C   0  0  0  0  0  0  0  0  0  0  0  0
   -8.9660   -5.7750  -23.9120 C   0  0  0  0  0  0  0  0  0  0  0  0
   -9.3370   -6.5820  -25.1550 C   0  0  0  0  0  0  0  0  0  0  0  0
   -8.6000   -6.3680  -26.4510 C   0  0  0  0  0  0  0  0  0  0  0  0
   -8.4980   -7.6930  -25.7320 C   0  0  0  0  0  0  0  0  0  0  0  0
   -9.0010   -8.5580  -26.1610 H   0  0  0  0  0  0  0  0  0  0  0  0
   -7.5640   -7.9560  -25.2370 H   0  0  0  0  0  0  0  0  0  0  0  0
   -9.1600   -6.2980  -27.3820 H   0  0  0  0  0  0  0  0  0  0  0  0
   -7.7380   -5.7020  -26.4160 H   0  0  0  0  0  0  0  0  0  0  0  0
  -10.4140   -6.7310  -25.2420 H   0  0  0  0  0  0  0  0  0  0  0  0
   -7.5430   -5.9870  -23.3980 C   0  0  0  0  0  0  0  0  0  0  0  0
   -7.2850   -5.1680  -22.1390 C   0  0  0  0  0  0  0  0  0  0  0  0
   -7.8710   -5.5920  -21.3030 H   0  0  0  0  0  0  0  0  0  0  0  0
   -6.2320   -5.2010  -21.8590 H   0  0  0  0  0  0  0  0  0  0  0  0
   -7.3810   -7.0480  -23.1680 H   0  0  0  0  0  0  0  0  0  0  0  0
   -6.8210   -5.7130  -24.1810 H   0  0  0  0  0  0  0  0  0  0  0  0
   -9.6540   -6.0560  -23.1280 H   0  0  0  0  0  0  0  0  0  0  0  0
  -10.3010   -4.1550  -24.3670 H   0  0  0  0  0  0  0  0  0  0  0  0
   -8.6360   -3.9030  -24.9250 H   0  0  0  0  0  0  0  0  0  0  0  0
   -9.7260   -3.7800  -22.0440 H   0  0  0  0  0  0  0  0  0  0  0  0
   -9.0760   -2.4340  -23.0070 H   0  0  0  0  0  0  0  0  0  0  0  0
  1  2  2  0  0  0  0
  2  3  1  0  0  0  0
  2 22  1  0  0  0  0
  3  4  1  0  0  0  0
  3 20  1  0  0  0  0
  3 21  1  0  0  0  0
  4  5  2  0  0  0  0
  4 13  1  0  0  0  0
  5  6  1  0  0  0  0
  5 19  1  0  0  0  0
  6  7  2  0  0  0  0
  7  8  1  0  0  0  0
  7 18  1  0  0  0  0
  8  9  2  0  0  0  0
  8 13  1  0  0  0  0
  9 10  1  0  0  0  0
  9 17  1  0  0  0  0
 10 11  2  0  0  0  0
 10 16  1  0  0  0  0
 11 12  1  0  0  0  0
 11 15  1  0  0  0  0
 12 13  2  0  0  0  0
 12 14  1  0  0  0  0
 22 23  1  0  0  0  0
 22 35  1  0  0  0  0
 23 24  1  0  0  0  0
 23 43  1  0  0  0  0
 23 44  1  0  0  0  0
 24 25  1  0  0  0  0
 24 41  1  0  0  0  0
 24 42  1  0  0  0  0
 25 26  1  0  0  0  0
 25 34  1  0  0  0  0
 25 40  1  0  0  0  0
 26 27  1  0  0  0  0
 26 28  1  0  0  0  0
 26 33  1  0  0  0  0
 27 28  1  0  0  0  0
 27 31  1  0  0  0  0
 27 32  1  0  0  0  0
 28 29  1  0  0  0  0
 28 30  1  0  0  0  0
 34 35  1  0  0  0  0
 34 38  1  0  0  0  0
 34 39  1  0  0  0  0
 35 36  1  0  0  0  0
 35 37  1  0  0  0  0
M  END
>  <MODEL>
       1

$$$$
