output/tmp_first_model_9_57.pdb
 OpenBabel07242617433D

 59 63  0  0  1  0  0  0  0  0999 V2000
  -14.4800   -1.2980  -23.4820 C   0  0  0  0  0  0  0  0  0  0  0  0
  -13.7870   -2.5160  -23.1070 N   0  0  0  0  0  0  0  0  0  0  0  0
  -13.4610   -2.6790  -21.7960 C   0  0  0  0  0  0  0  0  0  0  0  0
  -13.9030   -1.9760  -20.9010 O   0  0  0  0  0  0  0  0  0  0  0  0
  -12.5310   -3.8490  -21.5190 C   0  0  0  0  0  0  0  0  0  0  0  0
  -11.2050   -3.8240  -22.1360 N   0  0  0  0  0  0  0  0  0  0  0  0
  -10.0450   -3.3230  -21.4000 C   0  0  0  0  0  0  0  0  0  0  0  0
   -8.8290   -2.9620  -22.2910 C   0  0  2  0  0  0  0  0  0  0  0  0
   -7.5830   -2.7210  -21.4090 C   0  0  0  0  0  0  0  0  0  0  0  0
   -6.8200   -3.5660  -20.9850 O   0  0  0  0  0  0  0  0  0  0  0  0
   -7.4000   -1.3650  -21.2330 N   0  0  0  0  0  0  0  0  0  0  0  0
   -6.5900   -0.8410  -20.1900 C   0  0  0  0  0  0  0  0  0  0  0  0
   -6.8960   -1.0800  -18.8710 C   0  0  0  0  0  0  0  0  0  0  0  0
   -6.2110   -0.5600  -17.8220 N   0  0  0  0  0  0  0  0  0  0  0  0
   -5.1860    0.2130  -18.0850 C   0  0  0  0  0  0  0  0  0  0  0  0
   -4.7460    0.5230  -19.4040 C   0  0  0  0  0  0  0  0  0  0  0  0
   -3.6170    1.3500  -19.6370 C   0  0  0  0  0  0  0  0  0  0  0  0
   -3.2120    1.6220  -20.9160 C   0  0  0  0  0  0  0  0  0  0  0  0
   -3.9160    1.0820  -22.0150 C   0  0  0  0  0  0  0  0  0  0  0  0
   -5.0140    0.2800  -21.8140 C   0  0  0  0  0  0  0  0  0  0  0  0
   -5.4630   -0.0130  -20.4970 C   0  0  0  0  0  0  0  0  0  0  0  0
   -5.5410   -0.1400  -22.6660 H   0  0  0  0  0  0  0  0  0  0  0  0
   -3.5860    1.3000  -23.0270 H   0  0  0  0  0  0  0  0  0  0  0  0
   -2.3510    2.2600  -21.0960 H   0  0  0  0  0  0  0  0  0  0  0  0
   -3.0970    1.7650  -18.7790 H   0  0  0  0  0  0  0  0  0  0  0  0
   -4.6400    0.6340  -17.2390 H   0  0  0  0  0  0  0  0  0  0  0  0
   -7.7370   -1.7240  -18.6200 H   0  0  0  0  0  0  0  0  0  0  0  0
   -8.4030   -0.5750  -21.9210 C   0  0  0  0  0  0  0  0  0  0  0  0
   -9.0110   -1.5370  -22.9710 C   0  0  0  0  0  0  0  0  0  0  0  0
  -10.4670   -1.1570  -23.2510 C   0  0  0  0  0  0  0  0  0  0  0  0
  -11.0610   -1.1050  -22.3350 H   0  0  0  0  0  0  0  0  0  0  0  0
  -10.9320   -1.8870  -23.9190 H   0  0  0  0  0  0  0  0  0  0  0  0
  -10.5150   -0.1720  -23.7210 H   0  0  0  0  0  0  0  0  0  0  0  0
   -8.2340   -1.4610  -24.2900 C   0  0  0  0  0  0  0  0  0  0  0  0
   -8.6480   -2.1810  -25.0020 H   0  0  0  0  0  0  0  0  0  0  0  0
   -8.3210   -0.4640  -24.7280 H   0  0  0  0  0  0  0  0  0  0  0  0
   -7.1690   -1.6880  -24.1610 H   0  0  0  0  0  0  0  0  0  0  0  0
   -7.9600    0.3150  -22.3790 H   0  0  0  0  0  0  0  0  0  0  0  0
   -9.1690   -0.2230  -21.2150 H   0  0  0  0  0  0  0  0  0  0  0  0
   -8.5980   -4.1400  -23.2180 C   0  0  0  0  0  0  0  0  0  0  0  0
   -7.3160   -4.4670  -23.6780 C   0  0  0  0  0  0  0  0  0  0  0  0
   -7.1480   -5.4580  -24.6290 C   0  0  0  0  0  0  0  0  0  0  0  0
   -5.5460   -5.7890  -25.2370 Cl  0  0  0  0  0  0  0  0  0  0  0  0
   -8.2300   -6.1860  -25.1240 C   0  0  0  0  0  0  0  0  0  0  0  0
   -9.4980   -5.8930  -24.6510 C   0  0  0  0  0  0  0  0  0  0  0  0
   -9.6780   -4.8730  -23.7180 C   0  0  0  0  0  0  0  0  0  0  0  0
  -11.0670   -4.5730  -23.2700 C   0  0  0  0  0  0  0  0  0  0  0  0
  -12.0490   -4.9760  -23.8900 O   0  0  0  0  0  0  0  0  0  0  0  0
  -10.3760   -6.4370  -24.9950 H   0  0  0  0  0  0  0  0  0  0  0  0
   -8.0720   -6.9390  -25.8880 H   0  0  0  0  0  0  0  0  0  0  0  0
   -6.4520   -3.9350  -23.3030 H   0  0  0  0  0  0  0  0  0  0  0  0
  -10.3330   -2.4400  -20.8250 H   0  0  0  0  0  0  0  0  0  0  0  0
   -9.7120   -4.0830  -20.7010 H   0  0  0  0  0  0  0  0  0  0  0  0
  -12.4960   -3.9500  -20.4380 H   0  0  0  0  0  0  0  0  0  0  0  0
  -13.0350   -4.7100  -21.9570 H   0  0  0  0  0  0  0  0  0  0  0  0
  -13.6050   -3.2690  -23.7550 H   0  0  0  0  0  0  0  0  0  0  0  0
  -13.7940   -0.4410  -23.4530 H   0  0  0  0  0  0  0  0  0  0  0  0
  -14.8810   -1.3740  -24.4930 H   0  0  0  0  0  0  0  0  0  0  0  0
  -15.2970   -1.1110  -22.7790 H   0  0  0  0  0  0  0  0  0  0  0  0
  1  2  1  0  0  0  0
  1 57  1  0  0  0  0
  1 58  1  0  0  0  0
  1 59  1  0  0  0  0
  2  3  1  0  0  0  0
  2 56  1  0  0  0  0
  3  4  2  0  0  0  0
  3  5  1  0  0  0  0
  5  6  1  0  0  0  0
  5 54  1  0  0  0  0
  5 55  1  0  0  0  0
  6  7  1  0  0  0  0
  6 47  1  0  0  0  0
  7  8  1  0  0  0  0
  7 52  1  0  0  0  0
  7 53  1  0  0  0  0
  8  9  1  1  0  0  0
  8 29  1  0  0  0  0
  8 40  1  0  0  0  0
  9 10  2  0  0  0  0
  9 11  1  0  0  0  0
 11 12  1  0  0  0  0
 11 28  1  0  0  0  0
 12 13  2  0  0  0  0
 12 21  1  0  0  0  0
 13 14  1  0  0  0  0
 13 27  1  0  0  0  0
 14 15  2  0  0  0  0
 15 16  1  0  0  0  0
 15 26  1  0  0  0  0
 16 17  2  0  0  0  0
 16 21  1  0  0  0  0
 17 18  1  0  0  0  0
 17 25  1  0  0  0  0
 18 19  2  0  0  0  0
 18 24  1  0  0  0  0
 19 20  1  0  0  0  0
 19 23  1  0  0  0  0
 20 21  2  0  0  0  0
 20 22  1  0  0  0  0
 28 29  1  0  0  0  0
 28 38  1  0  0  0  0
 28 39  1  0  0  0  0
 29 30  1  0  0  0  0
 29 34  1  0  0  0  0
 30 31  1  0  0  0  0
 30 32  1  0  0  0  0
 30 33  1  0  0  0  0
 34 35  1  0  0  0  0
 34 36  1  0  0  0  0
 34 37  1  0  0  0  0
 40 41  2  0  0  0  0
 40 46  1  0  0  0  0
 41 42  1  0  0  0  0
 41 51  1  0  0  0  0
 42 43  1  0  0  0  0
 42 44  2  0  0  0  0
 44 45  1  0  0  0  0
 44 50  1  0  0  0  0
 45 46  2  0  0  0  0
 45 49  1  0  0  0  0
 46 47  1  0  0  0  0
 47 48  2  0  0  0  0
M  END
>  <MODEL>
       1

$$$$
