output/tmp_first_model_11_77.pdb
 OpenBabel07242618513D

 55 60  0  0  1  0  0  0  0  0999 V2000
   -7.6840   -3.6210  -23.6490 C   0  0  0  0  0  0  0  0  0  0  0  0
   -8.5040   -2.9160  -22.5650 C   0  0  1  0  0  0  0  0  0  0  0  0
   -7.6510   -2.7620  -21.2850 C   0  0  0  0  0  0  0  0  0  0  0  0
   -7.3830   -1.3460  -21.2050 N   0  0  0  0  0  0  0  0  0  0  0  0
   -6.5780   -0.8050  -20.1730 C   0  0  0  0  0  0  0  0  0  0  0  0
   -6.8800   -1.0570  -18.8580 C   0  0  0  0  0  0  0  0  0  0  0  0
   -6.2080   -0.5450  -17.8000 N   0  0  0  0  0  0  0  0  0  0  0  0
   -5.1800    0.2270  -18.0590 C   0  0  0  0  0  0  0  0  0  0  0  0
   -4.7230    0.5280  -19.3740 C   0  0  0  0  0  0  0  0  0  0  0  0
   -3.5910    1.3570  -19.6000 C   0  0  0  0  0  0  0  0  0  0  0  0
   -3.1490    1.5970  -20.8720 C   0  0  0  0  0  0  0  0  0  0  0  0
   -3.8080    1.0060  -21.9740 C   0  0  0  0  0  0  0  0  0  0  0  0
   -4.9110    0.2120  -21.7840 C   0  0  0  0  0  0  0  0  0  0  0  0
   -5.4180   -0.0210  -20.4750 C   0  0  0  0  0  0  0  0  0  0  0  0
   -5.4150   -0.2410  -22.6330 H   0  0  0  0  0  0  0  0  0  0  0  0
   -3.4440    1.2010  -22.9800 H   0  0  0  0  0  0  0  0  0  0  0  0
   -2.2930    2.2430  -21.0420 H   0  0  0  0  0  0  0  0  0  0  0  0
   -3.0970    1.8020  -18.7410 H   0  0  0  0  0  0  0  0  0  0  0  0
   -4.6430    0.6460  -17.2060 H   0  0  0  0  0  0  0  0  0  0  0  0
   -7.7330   -1.6870  -18.6070 H   0  0  0  0  0  0  0  0  0  0  0  0
   -8.2150   -0.5670  -21.9840 C   0  0  0  0  0  0  0  0  0  0  0  0
   -8.2620    0.6380  -21.9230 O   0  0  0  0  0  0  0  0  0  0  0  0
   -9.0180   -1.4910  -22.9580 C   0  0  1  0  0  0  0  0  0  0  0  0
   -8.6350   -1.0250  -24.4260 C   0  0  0  0  0  0  0  0  0  0  0  0
   -9.3430    0.1810  -24.8460 N   0  0  0  0  0  0  0  0  0  0  0  0
   -8.6060    1.1650  -25.6190 C   0  0  0  0  0  0  0  0  0  0  0  0
   -7.7720    2.0910  -24.7810 C   0  0  0  0  0  0  0  0  0  0  0  0
   -6.4540    2.0680  -24.4680 C   0  0  0  0  0  0  0  0  0  0  0  0
   -6.1850    3.1550  -23.6910 O   0  0  0  0  0  0  0  0  0  0  0  0
   -7.3670    3.7790  -23.5580 C   0  0  0  0  0  0  0  0  0  0  0  0
   -8.3410    3.2080  -24.1820 N   0  0  0  0  0  0  0  0  0  0  0  0
   -7.3770    4.6820  -22.9620 H   0  0  0  0  0  0  0  0  0  0  0  0
   -5.6190    1.4140  -24.6690 H   0  0  0  0  0  0  0  0  0  0  0  0
   -7.9790    0.6390  -26.3530 H   0  0  0  0  0  0  0  0  0  0  0  0
   -9.3510    1.7530  -26.1620 H   0  0  0  0  0  0  0  0  0  0  0  0
  -10.6810    0.4040  -24.5970 C   0  0  0  0  0  0  0  0  0  0  0  0
  -11.2940    1.3330  -25.1000 O   0  0  0  0  0  0  0  0  0  0  0  0
  -11.3070   -0.5570  -23.6430 C   0  0  0  0  0  0  0  0  0  0  0  0
  -12.6150   -0.7410  -23.4200 C   0  0  0  0  0  0  0  0  0  0  0  0
  -12.6000   -1.6710  -22.0620 C   0  0  0  0  0  0  0  0  0  0  0  0
  -12.5860   -1.6990  -22.0590 C   0  0  0  0  0  0  0  0  0  0  0  0
  -12.3810   -4.0200  -22.0440 F   0  0  0  0  0  0  0  0  0  0  0  0
  -11.2710   -2.2010  -21.8660 C   0  0  0  0  0  0  0  0  0  0  0  0
  -10.5120   -1.4480  -22.7990 C   0  0  0  0  0  0  0  0  0  0  0  0
  -11.8420   -3.1740  -21.7600 H   0  0  0  0  0  0  0  0  0  0  0  0
  -13.4600   -0.9840  -21.6580 H   0  0  0  0  0  0  0  0  0  0  0  0
  -13.4270   -0.0320  -23.3830 H   0  0  0  0  0  0  0  0  0  0  0  0
   -8.8280   -1.8240  -25.1550 H   0  0  0  0  0  0  0  0  0  0  0  0
   -7.5640   -0.8150  -24.4710 H   0  0  0  0  0  0  0  0  0  0  0  0
   -8.1650   -3.1200  -20.3850 H   0  0  0  0  0  0  0  0  0  0  0  0
   -6.7070   -3.3190  -21.3420 H   0  0  0  0  0  0  0  0  0  0  0  0
   -9.4110   -3.4820  -22.3190 H   0  0  0  0  0  0  0  0  0  0  0  0
   -7.3410   -4.6050  -23.3150 H   0  0  0  0  0  0  0  0  0  0  0  0
   -6.7910   -3.0280  -23.8920 H   0  0  0  0  0  0  0  0  0  0  0  0
   -8.2560   -3.7640  -24.5700 H   0  0  0  0  0  0  0  0  0  0  0  0
  1  2  1  0  0  0  0
  1 53  1  0  0  0  0
  1 54  1  0  0  0  0
  1 55  1  0  0  0  0
  2  3  1  0  0  0  0
  2 23  1  0  0  0  0
  2 52  1  1  0  0  0
  3  4  1  0  0  0  0
  3 50  1  0  0  0  0
  3 51  1  0  0  0  0
  4  5  1  0  0  0  0
  4 21  1  0  0  0  0
  5  6  2  0  0  0  0
  5 14  1  0  0  0  0
  6  7  1  0  0  0  0
  6 20  1  0  0  0  0
  7  8  2  0  0  0  0
  8  9  1  0  0  0  0
  8 19  1  0  0  0  0
  9 10  2  0  0  0  0
  9 14  1  0  0  0  0
 10 11  1  0  0  0  0
 10 18  1  0  0  0  0
 11 12  2  0  0  0  0
 11 17  1  0  0  0  0
 12 13  1  0  0  0  0
 12 16  1  0  0  0  0
 13 14  2  0  0  0  0
 13 15  1  0  0  0  0
 21 22  2  0  0  0  0
 23 21  1  1  0  0  0
 23 24  1  0  0  0  0
 23 44  1  0  0  0  0
 24 25  1  0  0  0  0
 24 48  1  0  0  0  0
 24 49  1  0  0  0  0
 25 26  1  0  0  0  0
 25 36  1  0  0  0  0
 26 27  1  0  0  0  0
 26 34  1  0  0  0  0
 26 35  1  0  0  0  0
 27 28  2  0  0  0  0
 27 31  1  0  0  0  0
 28 29  1  0  0  0  0
 28 33  1  0  0  0  0
 29 30  1  0  0  0  0
 30 31  2  0  0  0  0
 30 32  1  0  0  0  0
 36 37  2  0  0  0  0
 36 38  1  0  0  0  0
 38 39  2  0  0  0  0
 38 44  1  0  0  0  0
 39 40  1  0  0  0  0
 39 47  1  0  0  0  0
 40 41  2  0  0  0  0
 40 46  1  0  0  0  0
 41 42  1  0  0  0  0
 41 43  1  0  0  0  0
 43 44  2  0  0  0  0
 43 45  1  0  0  0  0
M  END
>  <MODEL>
       1

$$$$
