output/tmp_first_model_8_25.pdb
 OpenBabel07242617113D

 70 75  0  0  1  0  0  0  0  0999 V2000
   -8.0200   -6.5540  -24.4970 O   0  0  0  0  0  0  0  0  0  0  0  0
   -8.0630   -6.0220  -23.4050 C   0  0  0  0  0  0  0  0  0  0  0  0
   -9.2080   -5.1320  -22.9480 C   0  0  0  0  0  0  0  0  0  0  0  0
   -8.8270   -3.7020  -23.1090 N   0  3  1  0  0  0  0  0  0  0  0  0
   -8.4950   -3.4130  -24.5760 C   0  0  0  0  0  0  0  0  0  0  0  0
   -8.1530   -1.9630  -24.7780 C   0  0  0  0  0  0  0  0  0  0  0  0
   -7.3460   -1.5770  -25.8470 C   0  0  0  0  0  0  0  0  0  0  0  0
   -7.0160   -0.2420  -26.0500 C   0  0  0  0  0  0  0  0  0  0  0  0
   -7.5180    0.7230  -25.1790 C   0  0  0  0  0  0  0  0  0  0  0  0
   -7.1040    2.4040  -25.3890 Cl  0  0  0  0  0  0  0  0  0  0  0  0
   -8.3210    0.3580  -24.1110 C   0  0  0  0  0  0  0  0  0  0  0  0
   -8.6390   -0.9870  -23.9110 C   0  0  0  0  0  0  0  0  0  0  0  0
   -9.4380   -1.3070  -22.6780 C   0  0  2  0  0  0  0  0  0  0  0  0
   -8.6900   -0.8450  -21.4380 C   0  0  0  0  0  0  0  0  0  0  0  0
   -9.1490    0.0160  -20.7110 O   0  0  0  0  0  0  0  0  0  0  0  0
   -7.4580   -1.4330  -21.2130 N   0  0  0  0  0  0  0  0  0  0  0  0
   -6.6210   -0.8920  -20.2010 C   0  0  0  0  0  0  0  0  0  0  0  0
   -6.9300   -1.1210  -18.8860 C   0  0  0  0  0  0  0  0  0  0  0  0
   -6.2330   -0.6320  -17.8330 N   0  0  0  0  0  0  0  0  0  0  0  0
   -5.2070    0.1350  -18.1070 C   0  0  0  0  0  0  0  0  0  0  0  0
   -4.7760    0.4640  -19.4220 C   0  0  0  0  0  0  0  0  0  0  0  0
   -3.6780    1.3300  -19.6460 C   0  0  0  0  0  0  0  0  0  0  0  0
   -3.3280    1.6770  -20.9170 C   0  0  0  0  0  0  0  0  0  0  0  0
   -4.0690    1.1890  -22.0160 C   0  0  0  0  0  0  0  0  0  0  0  0
   -5.1240    0.3310  -21.8310 C   0  0  0  0  0  0  0  0  0  0  0  0
   -5.5010   -0.0560  -20.5170 C   0  0  0  0  0  0  0  0  0  0  0  0
   -5.6710   -0.0350  -22.6940 H   0  0  0  0  0  0  0  0  0  0  0  0
   -3.7840    1.4920  -23.0160 H   0  0  0  0  0  0  0  0  0  0  0  0
   -2.4910    2.3450  -21.0850 H   0  0  0  0  0  0  0  0  0  0  0  0
   -3.1530    1.7230  -18.7810 H   0  0  0  0  0  0  0  0  0  0  0  0
   -4.6610    0.5410  -17.2600 H   0  0  0  0  0  0  0  0  0  0  0  0
   -7.7990   -1.7250  -18.6420 H   0  0  0  0  0  0  0  0  0  0  0  0
   -7.0140   -1.8630  -22.0140 H   0  0  0  0  0  0  0  0  0  0  0  0
   -9.8980   -2.7580  -22.6220 C   0  0  0  0  0  0  0  0  0  0  0  0
  -10.7770   -2.8480  -23.2690 H   0  0  0  0  0  0  0  0  0  0  0  0
  -10.1890   -3.0230  -21.6030 H   0  0  0  0  0  0  0  0  0  0  0  0
  -10.3260   -0.6730  -22.6730 H   0  0  0  0  0  0  0  0  0  0  0  0
   -8.6900    1.1090  -23.4170 H   0  0  0  0  0  0  0  0  0  0  0  0
   -6.3890    0.0450  -26.8880 H   0  0  0  0  0  0  0  0  0  0  0  0
   -6.9580   -2.3360  -26.5260 H   0  0  0  0  0  0  0  0  0  0  0  0
   -7.6620   -4.0520  -24.8580 H   0  0  0  0  0  0  0  0  0  0  0  0
   -9.3640   -3.7110  -25.1750 H   0  0  0  0  0  0  0  0  0  0  0  0
   -7.9590   -3.5250  -22.5560 H   0  0  0  0  0  0  0  0  0  0  0  0
  -10.0930   -5.3470  -23.5520 H   0  0  0  0  0  0  0  0  0  0  0  0
   -9.4320   -5.3410  -21.8990 H   0  0  0  0  0  0  0  0  0  0  0  0
   -7.0540   -6.1140  -22.4860 N   0  0  0  0  0  0  0  0  0  0  0  0
   -5.8180   -6.7280  -22.7520 C   0  0  0  0  0  0  0  0  0  0  0  0
   -5.1140   -7.3260  -21.7060 C   0  0  0  0  0  0  0  0  0  0  0  0
   -3.8700   -7.8830  -21.9410 C   0  0  0  0  0  0  0  0  0  0  0  0
   -3.3160   -7.8520  -23.2170 C   0  0  0  0  0  0  0  0  0  0  0  0
   -2.0760   -8.4730  -23.4910 N   0  0  0  0  0  0  0  0  0  0  0  0
   -1.9280   -9.1180  -24.7900 C   0  0  0  0  0  0  0  0  0  0  0  0
   -0.7450  -10.0640  -24.7800 C   0  0  0  0  0  0  0  0  0  0  0  0
    0.3910   -9.4060  -24.2710 O   0  0  0  0  0  0  0  0  0  0  0  0
    0.2240   -9.0880  -22.9140 C   0  0  0  0  0  0  0  0  0  0  0  0
   -1.0210   -8.2640  -22.6340 C   0  0  0  0  0  0  0  0  0  0  0  0
   -1.0720   -7.5020  -21.6830 O   0  0  0  0  0  0  0  0  0  0  0  0
    1.0950   -8.5170  -22.5930 H   0  0  0  0  0  0  0  0  0  0  0  0
    0.1660   -9.9960  -22.2930 H   0  0  0  0  0  0  0  0  0  0  0  0
   -0.5200  -10.3680  -25.8060 H   0  0  0  0  0  0  0  0  0  0  0  0
   -0.9500  -10.9610  -24.1870 H   0  0  0  0  0  0  0  0  0  0  0  0
   -1.7750   -8.3710  -25.5810 H   0  0  0  0  0  0  0  0  0  0  0  0
   -2.8520   -9.6580  -25.0150 H   0  0  0  0  0  0  0  0  0  0  0  0
   -4.0340   -7.2690  -24.2550 C   0  0  0  0  0  0  0  0  0  0  0  0
   -5.2800   -6.7150  -24.0370 C   0  0  0  0  0  0  0  0  0  0  0  0
   -5.8320   -6.3040  -24.8710 H   0  0  0  0  0  0  0  0  0  0  0  0
   -3.6260   -7.2780  -25.2600 H   0  0  0  0  0  0  0  0  0  0  0  0
   -3.3400   -8.4030  -21.1490 H   0  0  0  0  0  0  0  0  0  0  0  0
   -5.5530   -7.3900  -20.7110 H   0  0  0  0  0  0  0  0  0  0  0  0
   -7.1970   -5.7690  -21.5500 H   0  0  0  0  0  0  0  0  0  0  0  0
  1  2  2  0  0  0  0
  2  3  1  0  0  0  0
  2 46  1  0  0  0  0
  3  4  1  0  0  0  0
  3 44  1  0  0  0  0
  3 45  1  0  0  0  0
  4  5  1  0  0  0  0
  4 34  1  0  0  0  0
  4 43  1  1  0  0  0
  5  6  1  0  0  0  0
  5 41  1  0  0  0  0
  5 42  1  0  0  0  0
  6  7  2  0  0  0  0
  6 12  1  0  0  0  0
  7  8  1  0  0  0  0
  7 40  1  0  0  0  0
  8  9  2  0  0  0  0
  8 39  1  0  0  0  0
  9 10  1  0  0  0  0
  9 11  1  0  0  0  0
 11 12  2  0  0  0  0
 11 38  1  0  0  0  0
 12 13  1  0  0  0  0
 13 14  1  0  0  0  0
 13 34  1  0  0  0  0
 13 37  1  6  0  0  0
 14 15  2  0  0  0  0
 14 16  1  0  0  0  0
 16 17  1  0  0  0  0
 16 33  1  0  0  0  0
 17 18  2  0  0  0  0
 17 26  1  0  0  0  0
 18 19  1  0  0  0  0
 18 32  1  0  0  0  0
 19 20  2  0  0  0  0
 20 21  1  0  0  0  0
 20 31  1  0  0  0  0
 21 22  2  0  0  0  0
 21 26  1  0  0  0  0
 22 23  1  0  0  0  0
 22 30  1  0  0  0  0
 23 24  2  0  0  0  0
 23 29  1  0  0  0  0
 24 25  1  0  0  0  0
 24 28  1  0  0  0  0
 25 26  2  0  0  0  0
 25 27  1  0  0  0  0
 34 35  1  0  0  0  0
 34 36  1  0  0  0  0
 46 47  1  0  0  0  0
 46 70  1  0  0  0  0
 47 48  2  0  0  0  0
 47 65  1  0  0  0  0
 48 49  1  0  0  0  0
 48 69  1  0  0  0  0
 49 50  2  0  0  0  0
 49 68  1  0  0  0  0
 50 51  1  0  0  0  0
 50 64  1  0  0  0  0
 51 52  1  0  0  0  0
 51 56  1  0  0  0  0
 52 53  1  0  0  0  0
 52 62  1  0  0  0  0
 52 63  1  0  0  0  0
 53 54  1  0  0  0  0
 53 60  1  0  0  0  0
 53 61  1  0  0  0  0
 54 55  1  0  0  0  0
 55 56  1  0  0  0  0
 55 58  1  0  0  0  0
 55 59  1  0  0  0  0
 56 57  2  0  0  0  0
 64 65  2  0  0  0  0
 64 67  1  0  0  0  0
 65 66  1  0  0  0  0
M  CHG  1   4   1
M  END
>  <MODEL>
       1

$$$$
