output/tmp_first_model_20_18.pdb
 OpenBabel07242623363D

 56 61  0  0  1  0  0  0  0  0999 V2000
  -10.4310   -0.9400  -23.4000 C   0  0  0  0  0  0  0  0  0  0  0  0
   -9.0140   -1.3300  -22.9890 C   0  0  1  0  0  0  0  0  0  0  0  0
   -8.4170   -0.4280  -21.8940 C   0  0  0  0  0  0  0  0  0  0  0  0
   -7.4240   -1.2820  -21.2630 N   0  0  0  0  0  0  0  0  0  0  0  0
   -6.5960   -0.8330  -20.2090 C   0  0  0  0  0  0  0  0  0  0  0  0
   -6.8950   -1.1160  -18.9010 C   0  0  0  0  0  0  0  0  0  0  0  0
   -6.2150   -0.6030  -17.8470 N   0  0  0  0  0  0  0  0  0  0  0  0
   -5.1950    0.1800  -18.0970 C   0  0  0  0  0  0  0  0  0  0  0  0
   -4.7450    0.5090  -19.4090 C   0  0  0  0  0  0  0  0  0  0  0  0
   -3.6140    1.3320  -19.6460 C   0  0  0  0  0  0  0  0  0  0  0  0
   -3.2170    1.6100  -20.9270 C   0  0  0  0  0  0  0  0  0  0  0  0
   -3.9290    1.0790  -22.0260 C   0  0  0  0  0  0  0  0  0  0  0  0
   -5.0270    0.2830  -21.8230 C   0  0  0  0  0  0  0  0  0  0  0  0
   -5.4650   -0.0120  -20.5050 C   0  0  0  0  0  0  0  0  0  0  0  0
   -5.5700   -0.1370  -22.6630 H   0  0  0  0  0  0  0  0  0  0  0  0
   -3.6060    1.3130  -23.0380 H   0  0  0  0  0  0  0  0  0  0  0  0
   -2.3540    2.2430  -21.1090 H   0  0  0  0  0  0  0  0  0  0  0  0
   -3.0720    1.7270  -18.7920 H   0  0  0  0  0  0  0  0  0  0  0  0
   -4.6650    0.5940  -17.2380 H   0  0  0  0  0  0  0  0  0  0  0  0
   -7.7280   -1.7720  -18.6550 H   0  0  0  0  0  0  0  0  0  0  0  0
   -7.6500   -2.6230  -21.4710 C   0  0  0  0  0  0  0  0  0  0  0  0
   -6.9670   -3.5100  -20.9990 O   0  0  0  0  0  0  0  0  0  0  0  0
   -8.8590   -2.7810  -22.4100 C   0  0  1  0  0  0  0  0  0  0  0  0
  -10.0780   -3.2080  -21.5540 C   0  0  0  0  0  0  0  0  0  0  0  0
  -11.2290   -3.6430  -22.3550 N   0  0  0  0  0  0  0  0  0  0  0  0
  -12.6040   -3.6030  -21.8240 C   0  0  0  0  0  0  0  0  0  0  0  0
  -13.5240   -2.5210  -22.3600 C   0  0  0  0  0  0  0  0  0  0  0  0
  -13.9470   -1.2770  -21.8240 C   0  0  0  0  0  0  0  0  0  0  0  0
  -14.8910   -0.8020  -22.7030 C   0  0  0  0  0  0  0  0  0  0  0  0
  -14.9770   -1.7290  -23.6850 N   0  0  0  0  0  0  0  0  0  0  0  0
  -14.1930   -2.7810  -23.4740 N   0  0  0  0  0  0  0  0  0  0  0  0
  -15.6890   -1.7990  -24.3980 H   0  0  0  0  0  0  0  0  0  0  0  0
  -15.5280    0.0710  -22.6820 H   0  0  0  0  0  0  0  0  0  0  0  0
  -13.6740   -0.8160  -20.8890 H   0  0  0  0  0  0  0  0  0  0  0  0
  -13.0680   -4.5300  -22.1690 H   0  0  0  0  0  0  0  0  0  0  0  0
  -12.5920   -3.6120  -20.7270 H   0  0  0  0  0  0  0  0  0  0  0  0
  -11.0430   -4.4650  -23.4430 C   0  0  0  0  0  0  0  0  0  0  0  0
  -11.9680   -5.0360  -24.0000 O   0  0  0  0  0  0  0  0  0  0  0  0
   -9.6450   -4.6430  -23.9310 C   0  0  0  0  0  0  0  0  0  0  0  0
   -9.4210   -5.6290  -24.8930 C   0  0  0  0  0  0  0  0  0  0  0  0
   -8.1510   -5.8690  -25.3770 C   0  0  0  0  0  0  0  0  0  0  0  0
   -7.1290   -5.0590  -24.8990 C   0  0  0  0  0  0  0  0  0  0  0  0
   -5.8930   -5.2650  -25.3750 F   0  0  0  0  0  0  0  0  0  0  0  0
   -7.3210   -4.0680  -23.9570 C   0  0  0  0  0  0  0  0  0  0  0  0
   -8.6040   -3.8510  -23.4460 C   0  0  0  0  0  0  0  0  0  0  0  0
   -6.4720   -3.4810  -23.6240 H   0  0  0  0  0  0  0  0  0  0  0  0
   -7.9470   -6.6390  -26.1160 H   0  0  0  0  0  0  0  0  0  0  0  0
  -10.2720   -6.2000  -25.2440 H   0  0  0  0  0  0  0  0  0  0  0  0
  -10.3780   -2.3600  -20.9310 H   0  0  0  0  0  0  0  0  0  0  0  0
   -9.7330   -4.0050  -20.8840 H   0  0  0  0  0  0  0  0  0  0  0  0
   -9.1820   -0.1180  -21.1630 H   0  0  0  0  0  0  0  0  0  0  0  0
   -7.9470    0.4780  -22.2880 H   0  0  0  0  0  0  0  0  0  0  0  0
   -8.3550   -1.2830  -23.8690 H   0  0  0  0  0  0  0  0  0  0  0  0
  -11.0940   -0.9300  -22.5290 H   0  0  0  0  0  0  0  0  0  0  0  0
  -10.4570    0.0560  -23.8510 H   0  0  0  0  0  0  0  0  0  0  0  0
  -10.8390   -1.6640  -24.1130 H   0  0  0  0  0  0  0  0  0  0  0  0
  1  2  1  0  0  0  0
  1 54  1  0  0  0  0
  1 55  1  0  0  0  0
  1 56  1  0  0  0  0
  2  3  1  0  0  0  0
  2 23  1  0  0  0  0
  2 53  1  6  0  0  0
  3  4  1  0  0  0  0
  3 51  1  0  0  0  0
  3 52  1  0  0  0  0
  4  5  1  0  0  0  0
  4 21  1  0  0  0  0
  5  6  2  0  0  0  0
  5 14  1  0  0  0  0
  6  7  1  0  0  0  0
  6 20  1  0  0  0  0
  7  8  2  0  0  0  0
  8  9  1  0  0  0  0
  8 19  1  0  0  0  0
  9 10  2  0  0  0  0
  9 14  1  0  0  0  0
 10 11  1  0  0  0  0
 10 18  1  0  0  0  0
 11 12  2  0  0  0  0
 11 17  1  0  0  0  0
 12 13  1  0  0  0  0
 12 16  1  0  0  0  0
 13 14  2  0  0  0  0
 13 15  1  0  0  0  0
 21 22  2  0  0  0  0
 23 21  1  1  0  0  0
 23 24  1  0  0  0  0
 23 45  1  0  0  0  0
 24 25  1  0  0  0  0
 24 49  1  0  0  0  0
 24 50  1  0  0  0  0
 25 26  1  0  0  0  0
 25 37  1  0  0  0  0
 26 27  1  0  0  0  0
 26 35  1  0  0  0  0
 26 36  1  0  0  0  0
 27 28  1  0  0  0  0
 27 31  2  0  0  0  0
 28 29  2  0  0  0  0
 28 34  1  0  0  0  0
 29 30  1  0  0  0  0
 29 33  1  0  0  0  0
 30 31  1  0  0  0  0
 30 32  1  0  0  0  0
 37 38  2  0  0  0  0
 37 39  1  0  0  0  0
 39 40  2  0  0  0  0
 39 45  1  0  0  0  0
 40 41  1  0  0  0  0
 40 48  1  0  0  0  0
 41 42  2  0  0  0  0
 41 47  1  0  0  0  0
 42 43  1  0  0  0  0
 42 44  1  0  0  0  0
 44 45  2  0  0  0  0
 44 46  1  0  0  0  0
M  END
>  <MODEL>
       1

$$$$
