output/tmp_first_model_8_74.pdb
 OpenBabel07242617113D

 43 47  0  0  1  0  0  0  0  0999 V2000
   -5.5760   -3.1080  -21.7320 O   0  0  0  0  0  0  0  0  0  0  0  0
   -6.6050   -2.4980  -21.9120 C   0  0  0  0  0  0  0  0  0  0  0  0
   -7.4690   -2.5870  -22.9690 N   0  0  0  0  0  0  0  0  0  0  0  0
   -8.6230   -1.7230  -22.8770 C   0  0  1  0  0  0  0  0  0  0  0  0
   -8.9270   -0.7770  -24.0700 C   0  0  0  0  0  0  0  0  0  0  0  0
  -10.2910   -1.4720  -24.2950 C   0  0  2  0  0  0  0  0  0  0  0  0
  -11.4980   -0.6010  -24.1920 C   0  0  0  0  0  0  0  0  0  0  0  0
  -11.5870    0.4090  -23.2320 C   0  0  0  0  0  0  0  0  0  0  0  0
  -12.7700    1.1070  -23.0480 C   0  0  0  0  0  0  0  0  0  0  0  0
  -13.9260    0.7340  -23.7290 C   0  0  0  0  0  0  0  0  0  0  0  0
  -13.8500   -0.2560  -24.7040 C   0  0  0  0  0  0  0  0  0  0  0  0
  -12.6200   -0.8400  -24.9790 C   0  0  0  0  0  0  0  0  0  0  0  0
  -12.4440   -1.7480  -26.4520 Cl  0  0  0  0  0  0  0  0  0  0  0  0
  -14.7090   -0.5770  -25.2730 H   0  0  0  0  0  0  0  0  0  0  0  0
  -14.8560    1.2500  -23.5080 H   0  0  0  0  0  0  0  0  0  0  0  0
  -12.7850    1.9330  -22.3440 H   0  0  0  0  0  0  0  0  0  0  0  0
  -10.7230    0.6520  -22.6090 H   0  0  0  0  0  0  0  0  0  0  0  0
  -10.0350   -2.3360  -23.0240 C   0  0  0  0  0  0  0  0  0  0  0  0
  -10.6740   -2.0540  -22.1820 H   0  0  0  0  0  0  0  0  0  0  0  0
  -10.0690   -3.4210  -23.1280 H   0  0  0  0  0  0  0  0  0  0  0  0
  -10.3150   -2.0670  -25.2070 H   0  0  0  0  0  0  0  0  0  0  0  0
   -9.0320    0.2600  -23.7520 H   0  0  0  0  0  0  0  0  0  0  0  0
   -8.2200   -0.8190  -24.8990 H   0  0  0  0  0  0  0  0  0  0  0  0
   -8.3750   -1.0320  -21.5490 C   0  0  0  0  0  0  0  0  0  0  0  0
   -9.0810   -0.2170  -21.0010 O   0  0  0  0  0  0  0  0  0  0  0  0
   -7.1590   -1.5180  -21.0610 N   0  0  0  0  0  0  0  0  0  0  0  0
   -6.4250   -0.8570  -20.0340 C   0  0  0  0  0  0  0  0  0  0  0  0
   -6.7810   -1.0270  -18.7250 C   0  0  0  0  0  0  0  0  0  0  0  0
   -6.1040   -0.4970  -17.6760 N   0  0  0  0  0  0  0  0  0  0  0  0
   -5.0670    0.2590  -17.9430 C   0  0  0  0  0  0  0  0  0  0  0  0
   -4.6360    0.5810  -19.2620 C   0  0  0  0  0  0  0  0  0  0  0  0
   -3.5370    1.4470  -19.5090 C   0  0  0  0  0  0  0  0  0  0  0  0
   -3.2100    1.7910  -20.7910 C   0  0  0  0  0  0  0  0  0  0  0  0
   -3.9690    1.3000  -21.8770 C   0  0  0  0  0  0  0  0  0  0  0  0
   -5.0200    0.4470  -21.6670 C   0  0  0  0  0  0  0  0  0  0  0  0
   -5.3570    0.0400  -20.3470 C   0  0  0  0  0  0  0  0  0  0  0  0
   -5.6090    0.0880  -22.5040 H   0  0  0  0  0  0  0  0  0  0  0  0
   -3.7080    1.5890  -22.8900 H   0  0  0  0  0  0  0  0  0  0  0  0
   -2.3760    2.4580  -20.9900 H   0  0  0  0  0  0  0  0  0  0  0  0
   -2.9830    1.8420  -18.6630 H   0  0  0  0  0  0  0  0  0  0  0  0
   -4.5210    0.6730  -17.0940 H   0  0  0  0  0  0  0  0  0  0  0  0
   -7.6560   -1.6220  -18.4830 H   0  0  0  0  0  0  0  0  0  0  0  0
   -7.3200   -3.2710  -23.6930 H   0  0  0  0  0  0  0  0  0  0  0  0
  1  2  2  0  0  0  0
  2  3  1  0  0  0  0
  2 26  1  0  0  0  0
  3  4  1  0  0  0  0
  3 43  1  0  0  0  0
  4  5  1  0  0  0  0
  4 18  1  0  0  0  0
  4 24  1  1  0  0  0
  5  6  1  0  0  0  0
  5 22  1  0  0  0  0
  5 23  1  0  0  0  0
  6  7  1  0  0  0  0
  6 18  1  0  0  0  0
  6 21  1  6  0  0  0
  7  8  2  0  0  0  0
  7 12  1  0  0  0  0
  8  9  1  0  0  0  0
  8 17  1  0  0  0  0
  9 10  2  0  0  0  0
  9 16  1  0  0  0  0
 10 11  1  0  0  0  0
 10 15  1  0  0  0  0
 11 12  2  0  0  0  0
 11 14  1  0  0  0  0
 12 13  1  0  0  0  0
 18 19  1  0  0  0  0
 18 20  1  0  0  0  0
 24 25  2  0  0  0  0
 24 26  1  0  0  0  0
 26 27  1  0  0  0  0
 27 28  2  0  0  0  0
 27 36  1  0  0  0  0
 28 29  1  0  0  0  0
 28 42  1  0  0  0  0
 29 30  2  0  0  0  0
 30 31  1  0  0  0  0
 30 41  1  0  0  0  0
 31 32  2  0  0  0  0
 31 36  1  0  0  0  0
 32 33  1  0  0  0  0
 32 40  1  0  0  0  0
 33 34  2  0  0  0  0
 33 39  1  0  0  0  0
 34 35  1  0  0  0  0
 34 38  1  0  0  0  0
 35 36  2  0  0  0  0
 35 37  1  0  0  0  0
M  END
>  <MODEL>
       1

$$$$
