output/tmp_first_model_20_59.pdb
 OpenBabel07242623363D

 60 65  0  0  1  0  0  0  0  0999 V2000
   -7.7840    3.2620  -22.4180 C   0  0  0  0  0  0  0  0  0  0  0  0
   -8.5990    2.7580  -23.5040 N   0  0  0  0  0  0  0  0  0  0  0  0
   -7.9610    2.0810  -24.4930 C   0  0  0  0  0  0  0  0  0  0  0  0
   -6.7430    2.0340  -24.5820 O   0  0  0  0  0  0  0  0  0  0  0  0
   -8.8920    1.3230  -25.4450 C   0  0  0  0  0  0  0  0  0  0  0  0
   -9.5580    0.2520  -24.7090 N   0  0  0  0  0  0  0  0  0  0  0  0
   -8.7150   -0.8560  -24.2980 C   0  0  0  0  0  0  0  0  0  0  0  0
   -9.1240   -1.5310  -22.9520 C   0  0  2  0  0  0  0  0  0  0  0  0
   -8.5660   -0.7140  -21.7590 C   0  0  0  0  0  0  0  0  0  0  0  0
   -9.0320    0.3250  -21.3320 O   0  0  0  0  0  0  0  0  0  0  0  0
   -7.4510   -1.3470  -21.2520 N   0  0  0  0  0  0  0  0  0  0  0  0
   -6.6520   -0.7820  -20.2160 C   0  0  0  0  0  0  0  0  0  0  0  0
   -6.9560   -1.0240  -18.9000 C   0  0  0  0  0  0  0  0  0  0  0  0
   -6.2410   -0.5540  -17.8450 N   0  0  0  0  0  0  0  0  0  0  0  0
   -5.1850    0.1760  -18.0970 C   0  0  0  0  0  0  0  0  0  0  0  0
   -4.7480    0.5070  -19.4120 C   0  0  0  0  0  0  0  0  0  0  0  0
   -3.5960    1.3060  -19.6450 C   0  0  0  0  0  0  0  0  0  0  0  0
   -3.2210    1.6220  -20.9230 C   0  0  0  0  0  0  0  0  0  0  0  0
   -3.9790    1.1670  -22.0250 C   0  0  0  0  0  0  0  0  0  0  0  0
   -5.1040    0.4040  -21.8240 C   0  0  0  0  0  0  0  0  0  0  0  0
   -5.5070    0.0320  -20.5100 C   0  0  0  0  0  0  0  0  0  0  0  0
   -5.7070    0.0970  -22.6740 H   0  0  0  0  0  0  0  0  0  0  0  0
   -3.6740    1.4280  -23.0360 H   0  0  0  0  0  0  0  0  0  0  0  0
   -2.3510    2.2450  -21.1020 H   0  0  0  0  0  0  0  0  0  0  0  0
   -3.0360    1.6760  -18.7890 H   0  0  0  0  0  0  0  0  0  0  0  0
   -4.6090    0.5500  -17.2460 H   0  0  0  0  0  0  0  0  0  0  0  0
   -7.8300   -1.6230  -18.6510 H   0  0  0  0  0  0  0  0  0  0  0  0
   -7.0970   -2.5630  -21.9540 C   0  0  0  0  0  0  0  0  0  0  0  0
   -8.3640   -2.8760  -22.7700 C   0  0  2  0  0  0  0  0  0  0  0  0
   -8.0630   -3.6800  -24.0450 C   0  0  0  0  0  0  0  0  0  0  0  0
   -7.4890   -5.0100  -23.7010 C   0  0  0  0  0  0  0  0  0  0  0  0
   -6.1860   -5.2580  -23.6670 N   0  0  0  0  0  0  0  0  0  0  0  0
   -6.0910   -6.5110  -23.2300 N   0  0  0  0  0  0  0  0  0  0  0  0
   -7.2900   -6.9900  -23.0200 N   0  5  0  0  0  0  0  0  0  0  0  0
   -8.1950   -6.0620  -23.3110 N   0  0  0  0  0  0  0  0  0  0  0  0
   -7.3290   -3.1660  -24.6690 H   0  0  0  0  0  0  0  0  0  0  0  0
   -8.9740   -3.8180  -24.6300 H   0  0  0  0  0  0  0  0  0  0  0  0
   -8.9900   -3.5160  -22.1470 H   0  0  0  0  0  0  0  0  0  0  0  0
   -6.8590   -3.3760  -21.2570 H   0  0  0  0  0  0  0  0  0  0  0  0
   -6.2180   -2.4130  -22.6030 H   0  0  0  0  0  0  0  0  0  0  0  0
  -10.6410   -1.6130  -22.8460 C   0  0  0  0  0  0  0  0  0  0  0  0
  -11.2680   -2.5150  -21.9710 C   0  0  0  0  0  0  0  0  0  0  0  0
  -12.6490   -2.5370  -21.8660 C   0  0  0  0  0  0  0  0  0  0  0  0
  -13.4020   -3.6770  -20.7890 Cl  0  0  0  0  0  0  0  0  0  0  0  0
  -13.4610   -1.6500  -22.5720 C   0  0  0  0  0  0  0  0  0  0  0  0
  -12.8480   -0.7160  -23.3810 C   0  0  0  0  0  0  0  0  0  0  0  0
  -11.4590   -0.6940  -23.5190 C   0  0  0  0  0  0  0  0  0  0  0  0
  -10.8650    0.4000  -24.3570 C   0  0  0  0  0  0  0  0  0  0  0  0
  -11.5120    1.3910  -24.6740 O   0  0  0  0  0  0  0  0  0  0  0  0
  -13.4320    0.0200  -23.9230 H   0  0  0  0  0  0  0  0  0  0  0  0
  -14.5420   -1.6840  -22.4610 H   0  0  0  0  0  0  0  0  0  0  0  0
  -10.6950   -3.1870  -21.3390 H   0  0  0  0  0  0  0  0  0  0  0  0
   -7.7000   -0.4620  -24.1910 H   0  0  0  0  0  0  0  0  0  0  0  0
   -8.6870   -1.5930  -25.1090 H   0  0  0  0  0  0  0  0  0  0  0  0
   -8.2760    0.9110  -26.2540 H   0  0  0  0  0  0  0  0  0  0  0  0
   -9.6830    1.9740  -25.8360 H   0  0  0  0  0  0  0  0  0  0  0  0
   -9.5560    2.5080  -23.2890 H   0  0  0  0  0  0  0  0  0  0  0  0
   -7.4130    2.4470  -21.7760 H   0  0  0  0  0  0  0  0  0  0  0  0
   -6.9030    3.7440  -22.8590 H   0  0  0  0  0  0  0  0  0  0  0  0
   -8.3750    3.9720  -21.8340 H   0  0  0  0  0  0  0  0  0  0  0  0
  1  2  1  0  0  0  0
  1 58  1  0  0  0  0
  1 59  1  0  0  0  0
  1 60  1  0  0  0  0
  2  3  1  0  0  0  0
  2 57  1  0  0  0  0
  3  4  2  0  0  0  0
  3  5  1  0  0  0  0
  5  6  1  0  0  0  0
  5 55  1  0  0  0  0
  5 56  1  0  0  0  0
  6  7  1  0  0  0  0
  6 48  1  0  0  0  0
  7  8  1  0  0  0  0
  7 53  1  0  0  0  0
  7 54  1  0  0  0  0
  8  9  1  1  0  0  0
  8 29  1  0  0  0  0
  8 41  1  0  0  0  0
  9 10  2  0  0  0  0
  9 11  1  0  0  0  0
 11 12  1  0  0  0  0
 11 28  1  0  0  0  0
 12 13  2  0  0  0  0
 12 21  1  0  0  0  0
 13 14  1  0  0  0  0
 13 27  1  0  0  0  0
 14 15  2  0  0  0  0
 15 16  1  0  0  0  0
 15 26  1  0  0  0  0
 16 17  2  0  0  0  0
 16 21  1  0  0  0  0
 17 18  1  0  0  0  0
 17 25  1  0  0  0  0
 18 19  2  0  0  0  0
 18 24  1  0  0  0  0
 19 20  1  0  0  0  0
 19 23  1  0  0  0  0
 20 21  2  0  0  0  0
 20 22  1  0  0  0  0
 28 29  1  0  0  0  0
 28 39  1  0  0  0  0
 28 40  1  0  0  0  0
 29 30  1  0  0  0  0
 29 38  1  1  0  0  0
 30 31  1  0  0  0  0
 30 36  1  0  0  0  0
 30 37  1  0  0  0  0
 31 32  1  0  0  0  0
 31 35  2  0  0  0  0
 32 33  2  0  0  0  0
 33 34  1  0  0  0  0
 34 35  1  0  0  0  0
 41 42  2  0  0  0  0
 41 47  1  0  0  0  0
 42 43  1  0  0  0  0
 42 52  1  0  0  0  0
 43 44  1  0  0  0  0
 43 45  2  0  0  0  0
 45 46  1  0  0  0  0
 45 51  1  0  0  0  0
 46 47  2  0  0  0  0
 46 50  1  0  0  0  0
 47 48  1  0  0  0  0
 48 49  2  0  0  0  0
M  CHG  1  34  -1
M  END
>  <MODEL>
       1

$$$$
