output/tmp_first_model_11_4.pdb
 OpenBabel07242618513D

 59 64  0  0  1  0  0  0  0  0999 V2000
  -10.1630   -2.9900  -22.0630 C   0  0  0  0  0  0  0  0  0  0  0  0
   -9.1180   -2.0320  -22.6530 C   0  0  1  0  0  0  0  0  0  0  0  0
   -8.6580   -1.0010  -21.6010 C   0  0  0  0  0  0  0  0  0  0  0  0
   -7.3580   -1.4760  -21.1900 N   0  0  0  0  0  0  0  0  0  0  0  0
   -6.5900   -0.8630  -20.1810 C   0  0  0  0  0  0  0  0  0  0  0  0
   -6.9460   -1.0420  -18.8710 C   0  0  0  0  0  0  0  0  0  0  0  0
   -6.2710   -0.5270  -17.8180 N   0  0  0  0  0  0  0  0  0  0  0  0
   -5.2160    0.2040  -18.0930 C   0  0  0  0  0  0  0  0  0  0  0  0
   -4.7590    0.4900  -19.4120 C   0  0  0  0  0  0  0  0  0  0  0  0
   -3.6330    1.3230  -19.6370 C   0  0  0  0  0  0  0  0  0  0  0  0
   -3.2480    1.6390  -20.9090 C   0  0  0  0  0  0  0  0  0  0  0  0
   -3.9650    1.1300  -22.0170 C   0  0  0  0  0  0  0  0  0  0  0  0
   -5.0460    0.3030  -21.8320 C   0  0  0  0  0  0  0  0  0  0  0  0
   -5.4660   -0.0430  -20.5090 C   0  0  0  0  0  0  0  0  0  0  0  0
   -5.5880   -0.0790  -22.6990 H   0  0  0  0  0  0  0  0  0  0  0  0
   -3.6570    1.4080  -23.0210 H   0  0  0  0  0  0  0  0  0  0  0  0
   -2.4000    2.2970  -21.0750 H   0  0  0  0  0  0  0  0  0  0  0  0
   -3.1100    1.7200  -18.7720 H   0  0  0  0  0  0  0  0  0  0  0  0
   -4.6660    0.6200  -17.2490 H   0  0  0  0  0  0  0  0  0  0  0  0
   -7.8150   -1.6560  -18.6350 H   0  0  0  0  0  0  0  0  0  0  0  0
   -6.8320   -2.4650  -21.9770 C   0  0  0  0  0  0  0  0  0  0  0  0
   -5.7950   -3.0510  -21.7360 O   0  0  0  0  0  0  0  0  0  0  0  0
   -7.7920   -2.6930  -23.1610 C   0  0  1  0  0  0  0  0  0  0  0  0
   -7.8910   -4.2040  -23.4020 C   0  0  0  0  0  0  0  0  0  0  0  0
   -6.6610   -4.7200  -23.9720 N   0  0  0  0  0  0  0  0  0  0  0  0
   -6.2320   -6.0260  -23.5230 C   0  0  0  0  0  0  0  0  0  0  0  0
   -7.2730   -7.0750  -23.7710 C   0  0  0  0  0  0  0  0  0  0  0  0
   -7.9170   -7.6990  -22.8200 N   0  0  0  0  0  0  0  0  0  0  0  0
   -8.9080   -8.4110  -23.4560 C   0  0  0  0  0  0  0  0  0  0  0  0
   -8.8430   -8.2000  -24.7980 C   0  0  0  0  0  0  0  0  0  0  0  0
   -7.7710   -7.3630  -25.0110 N   0  0  0  0  0  0  0  0  0  0  0  0
   -7.2110   -7.0730  -26.3220 C   0  0  0  0  0  0  0  0  0  0  0  0
   -7.5440   -7.8470  -27.0180 H   0  0  0  0  0  0  0  0  0  0  0  0
   -7.5240   -6.0970  -26.7100 H   0  0  0  0  0  0  0  0  0  0  0  0
   -6.1230   -7.1220  -26.2780 H   0  0  0  0  0  0  0  0  0  0  0  0
   -9.4050   -8.6110  -25.6210 H   0  0  0  0  0  0  0  0  0  0  0  0
   -9.5810   -9.0560  -22.9040 H   0  0  0  0  0  0  0  0  0  0  0  0
   -5.3090   -6.2580  -24.0540 H   0  0  0  0  0  0  0  0  0  0  0  0
   -6.0460   -5.9940  -22.4440 H   0  0  0  0  0  0  0  0  0  0  0  0
   -6.0880   -4.1630  -25.0750 C   0  0  0  0  0  0  0  0  0  0  0  0
   -5.2820   -4.7510  -25.7870 O   0  0  0  0  0  0  0  0  0  0  0  0
   -6.5140   -2.7650  -25.3680 C   0  0  0  0  0  0  0  0  0  0  0  0
   -6.0980   -2.2010  -26.5740 C   0  0  0  0  0  0  0  0  0  0  0  0
   -6.3770   -0.8830  -26.8700 C   0  0  0  0  0  0  0  0  0  0  0  0
   -7.0730   -0.1480  -25.9170 C   0  0  0  0  0  0  0  0  0  0  0  0
   -7.3370    1.1440  -26.1780 F   0  0  0  0  0  0  0  0  0  0  0  0
   -7.5160   -0.6880  -24.7230 C   0  0  0  0  0  0  0  0  0  0  0  0
   -7.2680   -2.0390  -24.4400 C   0  0  0  0  0  0  0  0  0  0  0  0
   -8.0740   -0.0420  -24.0520 H   0  0  0  0  0  0  0  0  0  0  0  0
   -6.0590   -0.4130  -27.7960 H   0  0  0  0  0  0  0  0  0  0  0  0
   -5.5560   -2.8350  -27.2660 H   0  0  0  0  0  0  0  0  0  0  0  0
   -8.7430   -4.4320  -24.0540 H   0  0  0  0  0  0  0  0  0  0  0  0
   -8.0470   -4.7080  -22.4510 H   0  0  0  0  0  0  0  0  0  0  0  0
   -9.3320   -0.9640  -20.7460 H   0  0  0  0  0  0  0  0  0  0  0  0
   -8.5960    0.0200  -22.0020 H   0  0  0  0  0  0  0  0  0  0  0  0
   -9.6050   -1.5270  -23.4940 H   0  0  0  0  0  0  0  0  0  0  0  0
   -9.7660   -3.5730  -21.2250 H   0  0  0  0  0  0  0  0  0  0  0  0
  -10.5320   -3.6880  -22.8210 H   0  0  0  0  0  0  0  0  0  0  0  0
  -11.0260   -2.4230  -21.6940 H   0  0  0  0  0  0  0  0  0  0  0  0
  1  2  1  0  0  0  0
  1 57  1  0  0  0  0
  1 58  1  0  0  0  0
  1 59  1  0  0  0  0
  2  3  1  0  0  0  0
  2 23  1  0  0  0  0
  2 56  1  6  0  0  0
  3  4  1  0  0  0  0
  3 54  1  0  0  0  0
  3 55  1  0  0  0  0
  4  5  1  0  0  0  0
  4 21  1  0  0  0  0
  5  6  2  0  0  0  0
  5 14  1  0  0  0  0
  6  7  1  0  0  0  0
  6 20  1  0  0  0  0
  7  8  2  0  0  0  0
  8  9  1  0  0  0  0
  8 19  1  0  0  0  0
  9 10  2  0  0  0  0
  9 14  1  0  0  0  0
 10 11  1  0  0  0  0
 10 18  1  0  0  0  0
 11 12  2  0  0  0  0
 11 17  1  0  0  0  0
 12 13  1  0  0  0  0
 12 16  1  0  0  0  0
 13 14  2  0  0  0  0
 13 15  1  0  0  0  0
 21 22  2  0  0  0  0
 23 21  1  1  0  0  0
 23 24  1  0  0  0  0
 23 48  1  0  0  0  0
 24 25  1  0  0  0  0
 24 52  1  0  0  0  0
 24 53  1  0  0  0  0
 25 26  1  0  0  0  0
 25 40  1  0  0  0  0
 26 27  1  0  0  0  0
 26 38  1  0  0  0  0
 26 39  1  0  0  0  0
 27 28  2  0  0  0  0
 27 31  1  0  0  0  0
 28 29  1  0  0  0  0
 29 30  2  0  0  0  0
 29 37  1  0  0  0  0
 30 31  1  0  0  0  0
 30 36  1  0  0  0  0
 31 32  1  0  0  0  0
 32 33  1  0  0  0  0
 32 34  1  0  0  0  0
 32 35  1  0  0  0  0
 40 41  2  0  0  0  0
 40 42  1  0  0  0  0
 42 43  2  0  0  0  0
 42 48  1  0  0  0  0
 43 44  1  0  0  0  0
 43 51  1  0  0  0  0
 44 45  2  0  0  0  0
 44 50  1  0  0  0  0
 45 46  1  0  0  0  0
 45 47  1  0  0  0  0
 47 48  2  0  0  0  0
 47 49  1  0  0  0  0
M  END
>  <MODEL>
       1

$$$$
