output/tmp_first_model_4_46.pdb
 OpenBabel07242615033D

 50 54  0  0  1  0  0  0  0  0999 V2000
  -10.1990   -2.9550  -22.0690 C   0  0  0  0  0  0  0  0  0  0  0  0
   -9.1490   -2.0000  -22.6530 C   0  0  1  0  0  0  0  0  0  0  0  0
   -8.6370   -1.0210  -21.5680 C   0  0  0  0  0  0  0  0  0  0  0  0
   -7.3280   -1.5140  -21.2280 N   0  0  0  0  0  0  0  0  0  0  0  0
   -6.4930   -1.0090  -20.2070 C   0  0  0  0  0  0  0  0  0  0  0  0
   -6.7390   -1.3140  -18.8930 C   0  0  0  0  0  0  0  0  0  0  0  0
   -5.8740   -1.0550  -17.8840 N   0  0  0  0  0  0  0  0  0  0  0  0
   -4.7560   -0.4390  -18.1880 C   0  0  0  0  0  0  0  0  0  0  0  0
   -4.4260    0.0120  -19.4980 C   0  0  0  0  0  0  0  0  0  0  0  0
   -3.2330    0.7370  -19.7580 C   0  0  0  0  0  0  0  0  0  0  0  0
   -2.9950    1.2590  -21.0000 C   0  0  0  0  0  0  0  0  0  0  0  0
   -3.9180    1.0340  -22.0500 C   0  0  0  0  0  0  0  0  0  0  0  0
   -5.0420    0.2700  -21.8460 C   0  0  0  0  0  0  0  0  0  0  0  0
   -5.3330   -0.2460  -20.5460 C   0  0  0  0  0  0  0  0  0  0  0  0
   -5.7070    0.0340  -22.6770 H   0  0  0  0  0  0  0  0  0  0  0  0
   -3.7230    1.4640  -23.0290 H   0  0  0  0  0  0  0  0  0  0  0  0
   -2.1060    1.8580  -21.1820 H   0  0  0  0  0  0  0  0  0  0  0  0
   -2.5600    0.9320  -18.9270 H   0  0  0  0  0  0  0  0  0  0  0  0
   -4.0500   -0.2660  -17.3730 H   0  0  0  0  0  0  0  0  0  0  0  0
   -7.6560   -1.8290  -18.6030 H   0  0  0  0  0  0  0  0  0  0  0  0
   -6.8460   -2.4910  -22.0600 C   0  0  0  0  0  0  0  0  0  0  0  0
   -5.7900   -3.0620  -21.8850 O   0  0  0  0  0  0  0  0  0  0  0  0
   -7.8620   -2.6960  -23.2060 C   0  0  1  0  0  0  0  0  0  0  0  0
   -8.0190   -4.2140  -23.4480 C   0  0  0  0  0  0  0  0  0  0  0  0
   -6.8060   -4.7560  -24.0240 N   0  0  0  0  0  0  0  0  0  0  0  0
   -6.2830   -6.0130  -23.5410 C   0  0  0  0  0  0  0  0  0  0  0  0
   -6.7020   -7.4560  -24.1070 C   0  0  0  0  0  0  0  0  0  0  0  0
   -6.6710   -7.3600  -24.1860 N   0  0  0  0  0  0  0  0  0  0  0  0
   -6.5500   -6.1440  -22.4950 H   0  0  0  0  0  0  0  0  0  0  0  0
   -5.2060   -5.9770  -23.6290 H   0  0  0  0  0  0  0  0  0  0  0  0
   -6.2310   -4.2030  -25.1430 C   0  0  0  0  0  0  0  0  0  0  0  0
   -5.4430   -4.8440  -25.8200 O   0  0  0  0  0  0  0  0  0  0  0  0
   -6.5960   -2.7770  -25.4160 C   0  0  0  0  0  0  0  0  0  0  0  0
   -6.1330   -2.1970  -26.5990 C   0  0  0  0  0  0  0  0  0  0  0  0
   -6.3740   -0.8650  -26.8730 C   0  0  0  0  0  0  0  0  0  0  0  0
   -7.0770   -0.1240  -25.9310 C   0  0  0  0  0  0  0  0  0  0  0  0
   -7.3040    1.1800  -26.1790 F   0  0  0  0  0  0  0  0  0  0  0  0
   -7.5440   -0.6760  -24.7510 C   0  0  0  0  0  0  0  0  0  0  0  0
   -7.3500   -2.0420  -24.4930 C   0  0  0  0  0  0  0  0  0  0  0  0
   -8.0670   -0.0200  -24.0620 H   0  0  0  0  0  0  0  0  0  0  0  0
   -6.0370   -0.3920  -27.7880 H   0  0  0  0  0  0  0  0  0  0  0  0
   -5.5680   -2.8170  -27.2860 H   0  0  0  0  0  0  0  0  0  0  0  0
   -8.8790   -4.4080  -24.1060 H   0  0  0  0  0  0  0  0  0  0  0  0
   -8.1880   -4.7160  -22.4920 H   0  0  0  0  0  0  0  0  0  0  0  0
   -9.2760   -1.0350  -20.6880 H   0  0  0  0  0  0  0  0  0  0  0  0
   -8.5910    0.0170  -21.9250 H   0  0  0  0  0  0  0  0  0  0  0  0
   -9.6400   -1.4490  -23.4640 H   0  0  0  0  0  0  0  0  0  0  0  0
  -10.5700   -3.6520  -22.8260 H   0  0  0  0  0  0  0  0  0  0  0  0
   -9.7890   -3.5400  -21.2390 H   0  0  0  0  0  0  0  0  0  0  0  0
  -11.0600   -2.3930  -21.6880 H   0  0  0  0  0  0  0  0  0  0  0  0
  1  2  1  0  0  0  0
  1 48  1  0  0  0  0
  1 49  1  0  0  0  0
  1 50  1  0  0  0  0
  2  3  1  0  0  0  0
  2 23  1  0  0  0  0
  2 47  1  6  0  0  0
  3  4  1  0  0  0  0
  3 45  1  0  0  0  0
  3 46  1  0  0  0  0
  4  5  1  0  0  0  0
  4 21  1  0  0  0  0
  5  6  2  0  0  0  0
  5 14  1  0  0  0  0
  6  7  1  0  0  0  0
  6 20  1  0  0  0  0
  7  8  2  0  0  0  0
  8  9  1  0  0  0  0
  8 19  1  0  0  0  0
  9 10  2  0  0  0  0
  9 14  1  0  0  0  0
 10 11  1  0  0  0  0
 10 18  1  0  0  0  0
 11 12  2  0  0  0  0
 11 17  1  0  0  0  0
 12 13  1  0  0  0  0
 12 16  1  0  0  0  0
 13 14  2  0  0  0  0
 13 15  1  0  0  0  0
 21 22  2  0  0  0  0
 23 21  1  1  0  0  0
 23 24  1  0  0  0  0
 23 39  1  0  0  0  0
 24 25  1  0  0  0  0
 24 43  1  0  0  0  0
 24 44  1  0  0  0  0
 25 26  1  0  0  0  0
 25 31  1  0  0  0  0
 26 27  1  0  0  0  0
 26 29  1  0  0  0  0
 26 30  1  0  0  0  0
 27 28  3  0  0  0  0
 31 32  2  0  0  0  0
 31 33  1  0  0  0  0
 33 34  2  0  0  0  0
 33 39  1  0  0  0  0
 34 35  1  0  0  0  0
 34 42  1  0  0  0  0
 35 36  2  0  0  0  0
 35 41  1  0  0  0  0
 36 37  1  0  0  0  0
 36 38  1  0  0  0  0
 38 39  2  0  0  0  0
 38 40  1  0  0  0  0
M  END
>  <MODEL>
       1

$$$$
