output/tmp_first_model_13_37.pdb
 OpenBabel07242619583D

 56 60  0  0  1  0  0  0  0  0999 V2000
  -14.4950   -1.5490  -23.7640 C   0  0  0  0  0  0  0  0  0  0  0  0
  -13.7380   -2.7010  -23.3180 N   0  0  0  0  0  0  0  0  0  0  0  0
  -13.3270   -2.7250  -22.0270 C   0  0  0  0  0  0  0  0  0  0  0  0
  -13.6430   -1.8670  -21.2170 O   0  0  0  0  0  0  0  0  0  0  0  0
  -12.4530   -3.9170  -21.6850 C   0  0  0  0  0  0  0  0  0  0  0  0
  -11.1210   -3.8670  -22.2590 N   0  0  0  0  0  0  0  0  0  0  0  0
  -10.0030   -3.3610  -21.4730 C   0  0  0  0  0  0  0  0  0  0  0  0
   -8.8020   -2.9120  -22.3450 C   0  0  2  0  0  0  0  0  0  0  0  0
   -7.5670   -2.6980  -21.4530 C   0  0  0  0  0  0  0  0  0  0  0  0
   -6.8240   -3.5570  -21.0240 O   0  0  0  0  0  0  0  0  0  0  0  0
   -7.4050   -1.3460  -21.2340 N   0  0  0  0  0  0  0  0  0  0  0  0
   -6.5820   -0.8510  -20.1950 C   0  0  0  0  0  0  0  0  0  0  0  0
   -6.8890   -1.0980  -18.8810 C   0  0  0  0  0  0  0  0  0  0  0  0
   -6.2140   -0.5660  -17.8330 N   0  0  0  0  0  0  0  0  0  0  0  0
   -5.1940    0.2100  -18.0960 C   0  0  0  0  0  0  0  0  0  0  0  0
   -4.7480    0.5190  -19.4130 C   0  0  0  0  0  0  0  0  0  0  0  0
   -3.6220    1.3440  -19.6480 C   0  0  0  0  0  0  0  0  0  0  0  0
   -3.2180    1.6110  -20.9260 C   0  0  0  0  0  0  0  0  0  0  0  0
   -3.9180    1.0640  -22.0240 C   0  0  0  0  0  0  0  0  0  0  0  0
   -5.0140    0.2620  -21.8240 C   0  0  0  0  0  0  0  0  0  0  0  0
   -5.4590   -0.0230  -20.5050 C   0  0  0  0  0  0  0  0  0  0  0  0
   -5.5350   -0.1690  -22.6730 H   0  0  0  0  0  0  0  0  0  0  0  0
   -3.5880    1.2830  -23.0350 H   0  0  0  0  0  0  0  0  0  0  0  0
   -2.3630    2.2560  -21.1040 H   0  0  0  0  0  0  0  0  0  0  0  0
   -3.1010    1.7570  -18.7900 H   0  0  0  0  0  0  0  0  0  0  0  0
   -4.6530    0.6340  -17.2480 H   0  0  0  0  0  0  0  0  0  0  0  0
   -7.7300   -1.7390  -18.6260 H   0  0  0  0  0  0  0  0  0  0  0  0
   -8.3930   -0.5210  -21.9050 C   0  0  0  0  0  0  0  0  0  0  0  0
   -9.0130   -1.4730  -22.9390 C   0  0  2  0  0  0  0  0  0  0  0  0
  -10.4570   -1.1260  -23.2770 C   0  0  0  0  0  0  0  0  0  0  0  0
  -10.8790   -1.8900  -23.9350 H   0  0  0  0  0  0  0  0  0  0  0  0
  -10.5370   -0.1540  -23.7720 H   0  0  0  0  0  0  0  0  0  0  0  0
  -11.0650   -1.1010  -22.3660 H   0  0  0  0  0  0  0  0  0  0  0  0
   -8.4030   -1.4360  -23.8540 H   0  0  0  0  0  0  0  0  0  0  0  0
   -9.1510   -0.1530  -21.1940 H   0  0  0  0  0  0  0  0  0  0  0  0
   -7.9240    0.3540  -22.3710 H   0  0  0  0  0  0  0  0  0  0  0  0
   -8.5360   -3.9670  -23.3890 C   0  0  0  0  0  0  0  0  0  0  0  0
   -7.2660   -4.1140  -23.9490 C   0  0  0  0  0  0  0  0  0  0  0  0
   -7.0370   -5.0510  -24.9390 C   0  0  0  0  0  0  0  0  0  0  0  0
   -8.0580   -5.8890  -25.3770 C   0  0  0  0  0  0  0  0  0  0  0  0
   -9.3190   -5.7530  -24.8320 C   0  0  0  0  0  0  0  0  0  0  0  0
   -9.5640   -4.7730  -23.8740 C   0  0  0  0  0  0  0  0  0  0  0  0
  -10.9630   -4.5580  -23.4180 C   0  0  0  0  0  0  0  0  0  0  0  0
  -11.9340   -4.9610  -24.0590 O   0  0  0  0  0  0  0  0  0  0  0  0
  -10.1350   -6.3950  -25.1350 H   0  0  0  0  0  0  0  0  0  0  0  0
   -7.8680   -6.6280  -26.1500 H   0  0  0  0  0  0  0  0  0  0  0  0
   -6.0600   -5.1070  -25.3970 H   0  0  0  0  0  0  0  0  0  0  0  0
   -6.4490   -3.4930  -23.5960 H   0  0  0  0  0  0  0  0  0  0  0  0
  -10.3440   -2.4940  -20.8970 H   0  0  0  0  0  0  0  0  0  0  0  0
   -9.6900   -4.1530  -20.7890 H   0  0  0  0  0  0  0  0  0  0  0  0
  -12.4290   -4.0720  -20.6110 H   0  0  0  0  0  0  0  0  0  0  0  0
  -12.9360   -4.7600  -22.1750 H   0  0  0  0  0  0  0  0  0  0  0  0
  -13.4980   -3.4660  -23.9350 H   0  0  0  0  0  0  0  0  0  0  0  0
  -13.8800   -0.6410  -23.7650 H   0  0  0  0  0  0  0  0  0  0  0  0
  -15.3450   -1.3730  -23.0990 H   0  0  0  0  0  0  0  0  0  0  0  0
  -14.8640   -1.7100  -24.7780 H   0  0  0  0  0  0  0  0  0  0  0  0
  1  2  1  0  0  0  0
  1 54  1  0  0  0  0
  1 55  1  0  0  0  0
  1 56  1  0  0  0  0
  2  3  1  0  0  0  0
  2 53  1  0  0  0  0
  3  4  2  0  0  0  0
  3  5  1  0  0  0  0
  5  6  1  0  0  0  0
  5 51  1  0  0  0  0
  5 52  1  0  0  0  0
  6  7  1  0  0  0  0
  6 43  1  0  0  0  0
  7  8  1  0  0  0  0
  7 49  1  0  0  0  0
  7 50  1  0  0  0  0
  8  9  1  1  0  0  0
  8 29  1  0  0  0  0
  8 37  1  0  0  0  0
  9 10  2  0  0  0  0
  9 11  1  0  0  0  0
 11 12  1  0  0  0  0
 11 28  1  0  0  0  0
 12 13  2  0  0  0  0
 12 21  1  0  0  0  0
 13 14  1  0  0  0  0
 13 27  1  0  0  0  0
 14 15  2  0  0  0  0
 15 16  1  0  0  0  0
 15 26  1  0  0  0  0
 16 17  2  0  0  0  0
 16 21  1  0  0  0  0
 17 18  1  0  0  0  0
 17 25  1  0  0  0  0
 18 19  2  0  0  0  0
 18 24  1  0  0  0  0
 19 20  1  0  0  0  0
 19 23  1  0  0  0  0
 20 21  2  0  0  0  0
 20 22  1  0  0  0  0
 28 29  1  0  0  0  0
 28 35  1  0  0  0  0
 28 36  1  0  0  0  0
 29 30  1  0  0  0  0
 29 34  1  6  0  0  0
 30 31  1  0  0  0  0
 30 32  1  0  0  0  0
 30 33  1  0  0  0  0
 37 38  2  0  0  0  0
 37 42  1  0  0  0  0
 38 39  1  0  0  0  0
 38 48  1  0  0  0  0
 39 40  2  0  0  0  0
 39 47  1  0  0  0  0
 40 41  1  0  0  0  0
 40 46  1  0  0  0  0
 41 42  2  0  0  0  0
 41 45  1  0  0  0  0
 42 43  1  0  0  0  0
 43 44  2  0  0  0  0
M  END
>  <MODEL>
       1

$$$$
