output/tmp_first_model_13_18.pdb
 OpenBabel07242619583D

 56 61  0  0  1  0  0  0  0  0999 V2000
  -10.4440   -1.1270  -23.2870 C   0  0  0  0  0  0  0  0  0  0  0  0
   -9.0000   -1.4680  -22.9480 C   0  0  1  0  0  0  0  0  0  0  0  0
   -8.3890   -0.5180  -21.9050 C   0  0  0  0  0  0  0  0  0  0  0  0
   -7.3910   -1.3450  -21.2450 N   0  0  0  0  0  0  0  0  0  0  0  0
   -6.5730   -0.8520  -20.1990 C   0  0  0  0  0  0  0  0  0  0  0  0
   -6.8810   -1.0980  -18.8870 C   0  0  0  0  0  0  0  0  0  0  0  0
   -6.2080   -0.5650  -17.8370 N   0  0  0  0  0  0  0  0  0  0  0  0
   -5.1920    0.2160  -18.0960 C   0  0  0  0  0  0  0  0  0  0  0  0
   -4.7450    0.5290  -19.4090 C   0  0  0  0  0  0  0  0  0  0  0  0
   -3.6170    1.3540  -19.6460 C   0  0  0  0  0  0  0  0  0  0  0  0
   -3.2140    1.6170  -20.9240 C   0  0  0  0  0  0  0  0  0  0  0  0
   -3.9170    1.0690  -22.0210 C   0  0  0  0  0  0  0  0  0  0  0  0
   -5.0110    0.2680  -21.8190 C   0  0  0  0  0  0  0  0  0  0  0  0
   -5.4560   -0.0150  -20.5030 C   0  0  0  0  0  0  0  0  0  0  0  0
   -5.5330   -0.1730  -22.6630 H   0  0  0  0  0  0  0  0  0  0  0  0
   -3.5850    1.2810  -23.0320 H   0  0  0  0  0  0  0  0  0  0  0  0
   -2.3580    2.2590  -21.1070 H   0  0  0  0  0  0  0  0  0  0  0  0
   -3.0880    1.7670  -18.7900 H   0  0  0  0  0  0  0  0  0  0  0  0
   -4.6550    0.6330  -17.2420 H   0  0  0  0  0  0  0  0  0  0  0  0
   -7.7230   -1.7380  -18.6320 H   0  0  0  0  0  0  0  0  0  0  0  0
   -7.5560   -2.6970  -21.4570 C   0  0  0  0  0  0  0  0  0  0  0  0
   -6.8270   -3.5610  -21.0130 O   0  0  0  0  0  0  0  0  0  0  0  0
   -8.7740   -2.9070  -22.3620 C   0  0  1  0  0  0  0  0  0  0  0  0
   -9.9630   -3.3680  -21.4850 C   0  0  0  0  0  0  0  0  0  0  0  0
  -11.0880   -3.8730  -22.2630 N   0  0  0  0  0  0  0  0  0  0  0  0
  -12.4520   -3.8370  -21.7400 C   0  0  0  0  0  0  0  0  0  0  0  0
  -13.2940   -2.7100  -22.2700 C   0  0  0  0  0  0  0  0  0  0  0  0
  -13.9340   -2.7250  -23.5330 C   0  0  0  0  0  0  0  0  0  0  0  0
  -14.6550   -1.5590  -23.5630 C   0  0  0  0  0  0  0  0  0  0  0  0
  -14.4060   -0.9250  -22.3960 N   0  0  0  0  0  0  0  0  0  0  0  0
  -13.5760   -1.6100  -21.5880 N   0  0  0  0  0  0  0  0  0  0  0  0
  -14.8570   -0.0910  -22.0510 H   0  0  0  0  0  0  0  0  0  0  0  0
  -15.3050   -1.1570  -24.3240 H   0  0  0  0  0  0  0  0  0  0  0  0
  -13.8470   -3.4980  -24.2880 H   0  0  0  0  0  0  0  0  0  0  0  0
  -12.9150   -4.7360  -22.1510 H   0  0  0  0  0  0  0  0  0  0  0  0
  -12.4560   -3.8980  -20.6460 H   0  0  0  0  0  0  0  0  0  0  0  0
  -10.9200   -4.5970  -23.4110 C   0  0  0  0  0  0  0  0  0  0  0  0
  -11.8660   -5.0640  -24.0380 O   0  0  0  0  0  0  0  0  0  0  0  0
   -9.5220   -4.7810  -23.8810 C   0  0  0  0  0  0  0  0  0  0  0  0
   -9.2750   -5.7560  -24.8460 C   0  0  0  0  0  0  0  0  0  0  0  0
   -8.0220   -5.9040  -25.4050 C   0  0  0  0  0  0  0  0  0  0  0  0
   -7.0260   -5.0440  -24.9600 C   0  0  0  0  0  0  0  0  0  0  0  0
   -5.8080   -5.1500  -25.5120 F   0  0  0  0  0  0  0  0  0  0  0  0
   -7.2290   -4.0960  -23.9760 C   0  0  0  0  0  0  0  0  0  0  0  0
   -8.4990   -3.9570  -23.4100 C   0  0  0  0  0  0  0  0  0  0  0  0
   -6.3890   -3.4990  -23.6400 H   0  0  0  0  0  0  0  0  0  0  0  0
   -7.8090   -6.6600  -26.1580 H   0  0  0  0  0  0  0  0  0  0  0  0
  -10.0910   -6.3950  -25.1590 H   0  0  0  0  0  0  0  0  0  0  0  0
   -9.6380   -4.1510  -20.7930 H   0  0  0  0  0  0  0  0  0  0  0  0
  -10.2960   -2.4910  -20.9220 H   0  0  0  0  0  0  0  0  0  0  0  0
   -9.1520   -0.1510  -21.1950 H   0  0  0  0  0  0  0  0  0  0  0  0
   -7.9260    0.3610  -22.3650 H   0  0  0  0  0  0  0  0  0  0  0  0
   -8.3890   -1.4320  -23.8600 H   0  0  0  0  0  0  0  0  0  0  0  0
  -10.8740   -1.9090  -23.9190 H   0  0  0  0  0  0  0  0  0  0  0  0
  -11.0430   -1.0820  -22.3720 H   0  0  0  0  0  0  0  0  0  0  0  0
  -10.5250   -0.1660  -23.8030 H   0  0  0  0  0  0  0  0  0  0  0  0
  1  2  1  0  0  0  0
  1 54  1  0  0  0  0
  1 55  1  0  0  0  0
  1 56  1  0  0  0  0
  2  3  1  0  0  0  0
  2 23  1  0  0  0  0
  2 53  1  6  0  0  0
  3  4  1  0  0  0  0
  3 51  1  0  0  0  0
  3 52  1  0  0  0  0
  4  5  1  0  0  0  0
  4 21  1  0  0  0  0
  5  6  2  0  0  0  0
  5 14  1  0  0  0  0
  6  7  1  0  0  0  0
  6 20  1  0  0  0  0
  7  8  2  0  0  0  0
  8  9  1  0  0  0  0
  8 19  1  0  0  0  0
  9 10  2  0  0  0  0
  9 14  1  0  0  0  0
 10 11  1  0  0  0  0
 10 18  1  0  0  0  0
 11 12  2  0  0  0  0
 11 17  1  0  0  0  0
 12 13  1  0  0  0  0
 12 16  1  0  0  0  0
 13 14  2  0  0  0  0
 13 15  1  0  0  0  0
 21 22  2  0  0  0  0
 23 21  1  1  0  0  0
 23 24  1  0  0  0  0
 23 45  1  0  0  0  0
 24 25  1  0  0  0  0
 24 49  1  0  0  0  0
 24 50  1  0  0  0  0
 25 26  1  0  0  0  0
 25 37  1  0  0  0  0
 26 27  1  0  0  0  0
 26 35  1  0  0  0  0
 26 36  1  0  0  0  0
 27 28  1  0  0  0  0
 27 31  2  0  0  0  0
 28 29  2  0  0  0  0
 28 34  1  0  0  0  0
 29 30  1  0  0  0  0
 29 33  1  0  0  0  0
 30 31  1  0  0  0  0
 30 32  1  0  0  0  0
 37 38  2  0  0  0  0
 37 39  1  0  0  0  0
 39 40  2  0  0  0  0
 39 45  1  0  0  0  0
 40 41  1  0  0  0  0
 40 48  1  0  0  0  0
 41 42  2  0  0  0  0
 41 47  1  0  0  0  0
 42 43  1  0  0  0  0
 42 44  1  0  0  0  0
 44 45  2  0  0  0  0
 44 46  1  0  0  0  0
M  END
>  <MODEL>
       1

$$$$
