output/tmp_first_model_5_9.pdb
 OpenBabel07242615323D

 41 43  0  0  1  0  0  0  0  0999 V2000
   -6.7130   -6.7070  -25.0980 C   0  0  0  0  0  0  0  0  0  0  0  0
   -6.1810   -5.7770  -24.0110 C   0  0  1  0  0  0  0  0  0  0  0  0
   -5.9840   -4.3630  -24.5250 C   0  0  0  0  0  0  0  0  0  0  0  0
   -5.4730   -3.3400  -23.8390 C   0  0  0  0  0  0  0  0  0  0  0  0
   -5.2130   -3.3310  -22.3490 C   0  0  0  0  0  0  0  0  0  0  0  0
   -6.3250   -3.8410  -21.5500 N   0  0  0  0  0  0  0  0  0  0  0  0
   -7.5260   -3.1500  -21.4560 C   0  0  0  0  0  0  0  0  0  0  0  0
   -8.5990   -3.7330  -21.4140 O   0  0  0  0  0  0  0  0  0  0  0  0
   -7.4730   -1.6190  -21.3650 C   0  0  0  0  0  0  0  0  0  0  0  0
   -6.5080   -1.1380  -20.3130 C   0  0  0  0  0  0  0  0  0  0  0  0
   -6.6520   -1.6140  -19.0350 C   0  0  0  0  0  0  0  0  0  0  0  0
   -5.7120   -1.5400  -18.0670 N   0  0  0  0  0  0  0  0  0  0  0  0
   -4.6060   -0.8990  -18.3850 C   0  0  0  0  0  0  0  0  0  0  0  0
   -4.3890   -0.2160  -19.6070 C   0  0  0  0  0  0  0  0  0  0  0  0
   -3.2520    0.6120  -19.8000 C   0  0  0  0  0  0  0  0  0  0  0  0
   -3.1550    1.4150  -20.9040 C   0  0  0  0  0  0  0  0  0  0  0  0
   -4.1420    1.3280  -21.9110 C   0  0  0  0  0  0  0  0  0  0  0  0
   -5.2430    0.5150  -21.7630 C   0  0  0  0  0  0  0  0  0  0  0  0
   -5.3990   -0.2850  -20.5980 C   0  0  0  0  0  0  0  0  0  0  0  0
   -5.9750    0.4690  -22.5620 H   0  0  0  0  0  0  0  0  0  0  0  0
   -4.0130    1.8920  -22.8270 H   0  0  0  0  0  0  0  0  0  0  0  0
   -2.2860    2.0480  -21.0550 H   0  0  0  0  0  0  0  0  0  0  0  0
   -2.5040    0.6410  -19.0130 H   0  0  0  0  0  0  0  0  0  0  0  0
   -3.8020   -0.8730  -17.6530 H   0  0  0  0  0  0  0  0  0  0  0  0
   -7.5790   -2.1300  -18.7640 H   0  0  0  0  0  0  0  0  0  0  0  0
   -8.4940   -1.3260  -21.1040 H   0  0  0  0  0  0  0  0  0  0  0  0
   -7.2500   -1.2030  -22.3530 H   0  0  0  0  0  0  0  0  0  0  0  0
   -6.4390   -5.2970  -21.5150 C   0  0  0  0  0  0  0  0  0  0  0  0
   -7.0740   -5.8970  -22.7640 C   0  0  0  0  0  0  0  0  0  0  0  0
   -8.0430   -5.4190  -22.9370 H   0  0  0  0  0  0  0  0  0  0  0  0
   -7.2720   -6.9620  -22.5720 H   0  0  0  0  0  0  0  0  0  0  0  0
   -7.0110   -5.5670  -20.6360 H   0  0  0  0  0  0  0  0  0  0  0  0
   -5.4340   -5.7200  -21.3750 H   0  0  0  0  0  0  0  0  0  0  0  0
   -4.3280   -3.9330  -22.1000 H   0  0  0  0  0  0  0  0  0  0  0  0
   -4.9670   -2.3210  -22.0270 H   0  0  0  0  0  0  0  0  0  0  0  0
   -5.2360   -2.4160  -24.3670 H   0  0  0  0  0  0  0  0  0  0  0  0
   -6.2550   -4.1830  -25.5690 H   0  0  0  0  0  0  0  0  0  0  0  0
   -5.1890   -6.1510  -23.7080 H   0  0  0  0  0  0  0  0  0  0  0  0
   -6.8800   -7.6990  -24.6760 H   0  0  0  0  0  0  0  0  0  0  0  0
   -7.6730   -6.3630  -25.5000 H   0  0  0  0  0  0  0  0  0  0  0  0
   -6.0060   -6.8070  -25.9280 H   0  0  0  0  0  0  0  0  0  0  0  0
  1  2  1  0  0  0  0
  1 39  1  0  0  0  0
  1 40  1  0  0  0  0
  1 41  1  0  0  0  0
  2  3  1  0  0  0  0
  2 29  1  0  0  0  0
  2 38  1  1  0  0  0
  3  4  2  0  0  0  0
  3 37  1  0  0  0  0
  4  5  1  0  0  0  0
  4 36  1  0  0  0  0
  5  6  1  0  0  0  0
  5 34  1  0  0  0  0
  5 35  1  0  0  0  0
  6  7  1  0  0  0  0
  6 28  1  0  0  0  0
  7  8  2  0  0  0  0
  7  9  1  0  0  0  0
  9 10  1  0  0  0  0
  9 26  1  0  0  0  0
  9 27  1  0  0  0  0
 10 11  2  0  0  0  0
 10 19  1  0  0  0  0
 11 12  1  0  0  0  0
 11 25  1  0  0  0  0
 12 13  2  0  0  0  0
 13 14  1  0  0  0  0
 13 24  1  0  0  0  0
 14 15  2  0  0  0  0
 14 19  1  0  0  0  0
 15 16  1  0  0  0  0
 15 23  1  0  0  0  0
 16 17  2  0  0  0  0
 16 22  1  0  0  0  0
 17 18  1  0  0  0  0
 17 21  1  0  0  0  0
 18 19  2  0  0  0  0
 18 20  1  0  0  0  0
 28 29  1  0  0  0  0
 28 32  1  0  0  0  0
 28 33  1  0  0  0  0
 29 30  1  0  0  0  0
 29 31  1  0  0  0  0
M  END
>  <MODEL>
       1

$$$$
