output/tmp_first_model_6_1.pdb
 OpenBabel07242616043D

 68 73  0  0  1  0  0  0  0  0999 V2000
   -7.2910    3.4960  -21.9940 C   0  0  0  0  0  0  0  0  0  0  0  0
   -8.2600    2.9190  -22.9050 N   0  0  0  0  0  0  0  0  0  0  0  0
   -7.8340    2.2500  -24.0060 C   0  0  0  0  0  0  0  0  0  0  0  0
   -6.6480    2.1130  -24.2740 O   0  0  0  0  0  0  0  0  0  0  0  0
   -8.9360    1.6880  -24.8970 C   0  0  0  0  0  0  0  0  0  0  0  0
   -9.5520    0.5160  -24.3040 N   0  0  0  0  0  0  0  0  0  0  0  0
   -8.7120   -0.6510  -24.0790 C   0  0  0  0  0  0  0  0  0  0  0  0
   -9.1060   -1.4290  -22.7960 C   0  0  2  0  0  0  0  0  0  0  0  0
   -8.6630   -0.6210  -21.5460 C   0  0  0  0  0  0  0  0  0  0  0  0
   -9.2180    0.3520  -21.0810 O   0  0  0  0  0  0  0  0  0  0  0  0
   -7.5110   -1.1850  -21.0500 N   0  0  0  0  0  0  0  0  0  0  0  0
   -6.7080   -0.6170  -20.0360 C   0  0  0  0  0  0  0  0  0  0  0  0
   -6.9410   -0.9410  -18.7270 C   0  0  0  0  0  0  0  0  0  0  0  0
   -6.1770   -0.5230  -17.6900 N   0  0  0  0  0  0  0  0  0  0  0  0
   -5.1420    0.2350  -17.9700 C   0  0  0  0  0  0  0  0  0  0  0  0
   -4.7640    0.6180  -19.2900 C   0  0  0  0  0  0  0  0  0  0  0  0
   -3.6270    1.4300  -19.5570 C   0  0  0  0  0  0  0  0  0  0  0  0
   -3.3020    1.7760  -20.8420 C   0  0  0  0  0  0  0  0  0  0  0  0
   -4.0970    1.3310  -21.9230 C   0  0  0  0  0  0  0  0  0  0  0  0
   -5.1960    0.5380  -21.6920 C   0  0  0  0  0  0  0  0  0  0  0  0
   -5.5640    0.1700  -20.3670 C   0  0  0  0  0  0  0  0  0  0  0  0
   -5.8100    0.2230  -22.5310 H   0  0  0  0  0  0  0  0  0  0  0  0
   -3.8560    1.6210  -22.9430 H   0  0  0  0  0  0  0  0  0  0  0  0
   -2.4370    2.4040  -21.0410 H   0  0  0  0  0  0  0  0  0  0  0  0
   -3.0280    1.7710  -18.7160 H   0  0  0  0  0  0  0  0  0  0  0  0
   -4.5370    0.5800  -17.1300 H   0  0  0  0  0  0  0  0  0  0  0  0
   -7.7870   -1.5800  -18.4830 H   0  0  0  0  0  0  0  0  0  0  0  0
   -7.0410   -2.3350  -21.7780 C   0  0  0  0  0  0  0  0  0  0  0  0
   -8.2570   -2.7360  -22.6220 C   0  0  2  0  0  0  0  0  0  0  0  0
   -7.8070   -3.4820  -23.8760 C   0  0  0  0  0  0  0  0  0  0  0  0
   -8.9320   -4.1190  -24.5180 N   0  0  0  0  0  0  0  0  0  0  0  0
   -8.7850   -4.6360  -25.8070 C   0  0  0  0  0  0  0  0  0  0  0  0
   -7.6360   -4.6540  -26.6440 C   0  0  0  0  0  0  0  0  0  0  0  0
   -7.8900   -5.2520  -27.8020 N   0  0  0  0  0  0  0  0  0  0  0  0
   -9.1650   -5.6310  -27.7260 N   0  0  0  0  0  0  0  0  0  0  0  0
   -9.8640   -6.0900  -28.8940 C   0  0  0  0  0  0  0  0  0  0  0  0
  -10.5820   -5.3250  -29.1930 H   0  0  0  0  0  0  0  0  0  0  0  0
  -10.3760   -7.0320  -28.6870 H   0  0  0  0  0  0  0  0  0  0  0  0
   -9.1410   -6.2230  -29.6950 H   0  0  0  0  0  0  0  0  0  0  0  0
   -9.7450   -5.2980  -26.5430 C   0  0  0  0  0  0  0  0  0  0  0  0
  -10.7680   -5.5770  -26.3150 H   0  0  0  0  0  0  0  0  0  0  0  0
   -6.6510   -4.2240  -26.4900 H   0  0  0  0  0  0  0  0  0  0  0  0
   -9.8270   -3.6810  -24.3330 H   0  0  0  0  0  0  0  0  0  0  0  0
   -7.2710   -2.7930  -24.5560 H   0  0  0  0  0  0  0  0  0  0  0  0
   -7.0640   -4.2380  -23.5920 H   0  0  0  0  0  0  0  0  0  0  0  0
   -8.8540   -3.4300  -22.0220 H   0  0  0  0  0  0  0  0  0  0  0  0
   -6.1610   -2.0920  -22.3970 H   0  0  0  0  0  0  0  0  0  0  0  0
   -6.7240   -3.1190  -21.0790 H   0  0  0  0  0  0  0  0  0  0  0  0
  -10.6230   -1.5860  -22.7770 C   0  0  0  0  0  0  0  0  0  0  0  0
  -11.2330   -2.4370  -21.8430 C   0  0  0  0  0  0  0  0  0  0  0  0
  -12.6100   -2.4110  -21.6750 C   0  0  0  0  0  0  0  0  0  0  0  0
  -13.3730   -3.2540  -20.3610 Cl  0  0  0  0  0  0  0  0  0  0  0  0
  -13.4420   -1.6360  -22.4820 C   0  0  0  0  0  0  0  0  0  0  0  0
  -12.8530   -0.7860  -23.3910 C   0  0  0  0  0  0  0  0  0  0  0  0
  -11.4630   -0.7230  -23.5020 C   0  0  0  0  0  0  0  0  0  0  0  0
  -10.9160    0.4360  -24.2730 C   0  0  0  0  0  0  0  0  0  0  0  0
  -11.6540    1.2770  -24.7710 O   0  0  0  0  0  0  0  0  0  0  0  0
  -13.4450   -0.1000  -23.9870 H   0  0  0  0  0  0  0  0  0  0  0  0
  -14.5210   -1.6930  -22.3600 H   0  0  0  0  0  0  0  0  0  0  0  0
  -10.6380   -3.1090  -21.2350 H   0  0  0  0  0  0  0  0  0  0  0  0
   -7.6830   -0.2910  -23.9920 H   0  0  0  0  0  0  0  0  0  0  0  0
   -8.7680   -1.3200  -24.9520 H   0  0  0  0  0  0  0  0  0  0  0  0
   -9.7350    2.4240  -25.0280 H   0  0  0  0  0  0  0  0  0  0  0  0
   -8.4910    1.4680  -25.8750 H   0  0  0  0  0  0  0  0  0  0  0  0
   -9.1930    2.7370  -22.5640 H   0  0  0  0  0  0  0  0  0  0  0  0
   -6.5740    4.0830  -22.5750 H   0  0  0  0  0  0  0  0  0  0  0  0
   -7.8050    4.1510  -21.2840 H   0  0  0  0  0  0  0  0  0  0  0  0
   -6.7440    2.7120  -21.4500 H   0  0  0  0  0  0  0  0  0  0  0  0
  1  2  1  0  0  0  0
  1 66  1  0  0  0  0
  1 67  1  0  0  0  0
  1 68  1  0  0  0  0
  2  3  1  0  0  0  0
  2 65  1  0  0  0  0
  3  4  2  0  0  0  0
  3  5  1  0  0  0  0
  5  6  1  0  0  0  0
  5 63  1  0  0  0  0
  5 64  1  0  0  0  0
  6  7  1  0  0  0  0
  6 56  1  0  0  0  0
  7  8  1  0  0  0  0
  7 61  1  0  0  0  0
  7 62  1  0  0  0  0
  8  9  1  1  0  0  0
  8 29  1  0  0  0  0
  8 49  1  0  0  0  0
  9 10  2  0  0  0  0
  9 11  1  0  0  0  0
 11 12  1  0  0  0  0
 11 28  1  0  0  0  0
 12 13  2  0  0  0  0
 12 21  1  0  0  0  0
 13 14  1  0  0  0  0
 13 27  1  0  0  0  0
 14 15  2  0  0  0  0
 15 16  1  0  0  0  0
 15 26  1  0  0  0  0
 16 17  2  0  0  0  0
 16 21  1  0  0  0  0
 17 18  1  0  0  0  0
 17 25  1  0  0  0  0
 18 19  2  0  0  0  0
 18 24  1  0  0  0  0
 19 20  1  0  0  0  0
 19 23  1  0  0  0  0
 20 21  2  0  0  0  0
 20 22  1  0  0  0  0
 28 29  1  0  0  0  0
 28 47  1  0  0  0  0
 28 48  1  0  0  0  0
 29 30  1  0  0  0  0
 29 46  1  1  0  0  0
 30 31  1  0  0  0  0
 30 44  1  0  0  0  0
 30 45  1  0  0  0  0
 31 32  1  0  0  0  0
 31 43  1  0  0  0  0
 32 33  1  0  0  0  0
 32 40  2  0  0  0  0
 33 34  2  0  0  0  0
 33 42  1  0  0  0  0
 34 35  1  0  0  0  0
 35 36  1  0  0  0  0
 35 40  1  0  0  0  0
 36 37  1  0  0  0  0
 36 38  1  0  0  0  0
 36 39  1  0  0  0  0
 40 41  1  0  0  0  0
 49 50  2  0  0  0  0
 49 55  1  0  0  0  0
 50 51  1  0  0  0  0
 50 60  1  0  0  0  0
 51 52  1  0  0  0  0
 51 53  2  0  0  0  0
 53 54  1  0  0  0  0
 53 59  1  0  0  0  0
 54 55  2  0  0  0  0
 54 58  1  0  0  0  0
 55 56  1  0  0  0  0
 56 57  2  0  0  0  0
M  END
>  <MODEL>
       1

$$$$
