output/tmp_first_model_15_16.pdb
 OpenBabel07242621043D

 61 66  0  0  1  0  0  0  0  0999 V2000
  -14.4000   -0.8280  -22.6770 C   0  0  0  0  0  0  0  0  0  0  0  0
  -13.5250   -1.8020  -22.0400 N   0  0  0  0  0  0  0  0  0  0  0  0
  -12.8680   -2.6930  -22.8370 C   0  0  0  0  0  0  0  0  0  0  0  0
  -12.8590   -2.5730  -24.0530 O   0  0  0  0  0  0  0  0  0  0  0  0
  -12.1480   -3.8590  -22.1510 C   0  0  0  0  0  0  0  0  0  0  0  0
  -10.7610   -4.0220  -22.5660 N   0  0  0  0  0  0  0  0  0  0  0  0
   -9.6610   -3.5790  -21.7260 C   0  0  0  0  0  0  0  0  0  0  0  0
   -8.4930   -2.9430  -22.5160 C   0  0  2  0  0  0  0  0  0  0  0  0
   -7.3880   -2.6810  -21.4890 C   0  0  0  0  0  0  0  0  0  0  0  0
   -6.6580   -3.4990  -20.9580 O   0  0  0  0  0  0  0  0  0  0  0  0
   -7.3430   -1.3320  -21.2270 N   0  0  0  0  0  0  0  0  0  0  0  0
   -6.5650   -0.8230  -20.1670 C   0  0  0  0  0  0  0  0  0  0  0  0
   -6.8870   -1.0980  -18.8640 C   0  0  0  0  0  0  0  0  0  0  0  0
   -6.2370   -0.5620  -17.8000 N   0  0  0  0  0  0  0  0  0  0  0  0
   -5.2230    0.2370  -18.0440 C   0  0  0  0  0  0  0  0  0  0  0  0
   -4.7620    0.5670  -19.3550 C   0  0  0  0  0  0  0  0  0  0  0  0
   -3.6310    1.3930  -19.5920 C   0  0  0  0  0  0  0  0  0  0  0  0
   -3.2150    1.6500  -20.8710 C   0  0  0  0  0  0  0  0  0  0  0  0
   -3.9080    1.1040  -21.9760 C   0  0  0  0  0  0  0  0  0  0  0  0
   -5.0080    0.3090  -21.7730 C   0  0  0  0  0  0  0  0  0  0  0  0
   -5.4550    0.0240  -20.4560 C   0  0  0  0  0  0  0  0  0  0  0  0
   -5.5380   -0.1270  -22.6130 H   0  0  0  0  0  0  0  0  0  0  0  0
   -3.5650    1.3090  -22.9870 H   0  0  0  0  0  0  0  0  0  0  0  0
   -2.3410    2.2720  -21.0490 H   0  0  0  0  0  0  0  0  0  0  0  0
   -3.1030    1.8030  -18.7350 H   0  0  0  0  0  0  0  0  0  0  0  0
   -4.7030    0.6600  -17.1830 H   0  0  0  0  0  0  0  0  0  0  0  0
   -7.7090   -1.7720  -18.6250 H   0  0  0  0  0  0  0  0  0  0  0  0
   -8.3420   -0.5510  -21.9230 C   0  0  0  0  0  0  0  0  0  0  0  0
   -8.7910   -1.5010  -23.0370 C   0  0  2  0  0  0  0  0  0  0  0  0
  -10.2330   -1.2360  -23.4460 C   0  0  0  0  0  0  0  0  0  0  0  0
  -10.3970    0.0310  -24.1140 N   0  0  0  0  0  0  0  0  0  0  0  0
  -10.0910    0.1980  -25.3850 N   0  0  0  0  0  0  0  0  0  0  0  0
  -10.3910    1.4760  -25.5530 C   0  0  0  0  0  0  0  0  0  0  0  0
  -10.8680    2.0520  -24.4310 N   0  0  0  0  0  0  0  0  0  0  0  0
  -10.8650    1.1090  -23.5240 N   0  0  0  0  0  0  0  0  0  0  0  0
  -10.2530    1.9910  -26.4910 H   0  0  0  0  0  0  0  0  0  0  0  0
  -10.5860   -1.9910  -24.1420 H   0  0  0  0  0  0  0  0  0  0  0  0
  -10.8890   -1.2140  -22.5790 H   0  0  0  0  0  0  0  0  0  0  0  0
   -8.1550   -1.3430  -23.9130 H   0  0  0  0  0  0  0  0  0  0  0  0
   -7.9280    0.3870  -22.3050 H   0  0  0  0  0  0  0  0  0  0  0  0
   -9.1730   -0.2800  -21.2540 H   0  0  0  0  0  0  0  0  0  0  0  0
   -8.0980   -3.9320  -23.5930 C   0  0  0  0  0  0  0  0  0  0  0  0
   -6.7780   -4.0190  -24.0550 C   0  0  0  0  0  0  0  0  0  0  0  0
   -6.4560   -4.9240  -25.0510 C   0  0  0  0  0  0  0  0  0  0  0  0
   -4.8180   -5.0250  -25.6220 Cl  0  0  0  0  0  0  0  0  0  0  0  0
   -7.4070   -5.7870  -25.5890 C   0  0  0  0  0  0  0  0  0  0  0  0
   -8.7160   -5.6800  -25.1570 C   0  0  0  0  0  0  0  0  0  0  0  0
   -9.0680   -4.7750  -24.1570 C   0  0  0  0  0  0  0  0  0  0  0  0
  -10.5080   -4.7230  -23.7210 C   0  0  0  0  0  0  0  0  0  0  0  0
  -11.3970   -5.2580  -24.3680 O   0  0  0  0  0  0  0  0  0  0  0  0
   -9.4940   -6.2990  -25.5890 H   0  0  0  0  0  0  0  0  0  0  0  0
   -7.1150   -6.5170  -26.3360 H   0  0  0  0  0  0  0  0  0  0  0  0
   -5.9950   -3.3980  -23.6330 H   0  0  0  0  0  0  0  0  0  0  0  0
   -9.2270   -4.4350  -21.2010 H   0  0  0  0  0  0  0  0  0  0  0  0
  -10.0230   -2.8640  -20.9820 H   0  0  0  0  0  0  0  0  0  0  0  0
  -12.2210   -3.7990  -21.0580 H   0  0  0  0  0  0  0  0  0  0  0  0
  -12.6870   -4.7460  -22.4920 H   0  0  0  0  0  0  0  0  0  0  0  0
  -13.4540   -1.8440  -21.0320 H   0  0  0  0  0  0  0  0  0  0  0  0
  -14.5640    0.0250  -22.0170 H   0  0  0  0  0  0  0  0  0  0  0  0
  -15.3700   -1.2640  -22.9460 H   0  0  0  0  0  0  0  0  0  0  0  0
  -13.9200   -0.5030  -23.6050 H   0  0  0  0  0  0  0  0  0  0  0  0
  1  2  1  0  0  0  0
  1 59  1  0  0  0  0
  1 60  1  0  0  0  0
  1 61  1  0  0  0  0
  2  3  1  0  0  0  0
  2 58  1  0  0  0  0
  3  4  2  0  0  0  0
  3  5  1  0  0  0  0
  5  6  1  0  0  0  0
  5 56  1  0  0  0  0
  5 57  1  0  0  0  0
  6  7  1  0  0  0  0
  6 49  1  0  0  0  0
  7  8  1  0  0  0  0
  7 54  1  0  0  0  0
  7 55  1  0  0  0  0
  8  9  1  1  0  0  0
  8 29  1  0  0  0  0
  8 42  1  0  0  0  0
  9 10  2  0  0  0  0
  9 11  1  0  0  0  0
 11 12  1  0  0  0  0
 11 28  1  0  0  0  0
 12 13  2  0  0  0  0
 12 21  1  0  0  0  0
 13 14  1  0  0  0  0
 13 27  1  0  0  0  0
 14 15  2  0  0  0  0
 15 16  1  0  0  0  0
 15 26  1  0  0  0  0
 16 17  2  0  0  0  0
 16 21  1  0  0  0  0
 17 18  1  0  0  0  0
 17 25  1  0  0  0  0
 18 19  2  0  0  0  0
 18 24  1  0  0  0  0
 19 20  1  0  0  0  0
 19 23  1  0  0  0  0
 20 21  2  0  0  0  0
 20 22  1  0  0  0  0
 28 29  1  0  0  0  0
 28 40  1  0  0  0  0
 28 41  1  0  0  0  0
 29 30  1  0  0  0  0
 29 39  1  6  0  0  0
 30 31  1  0  0  0  0
 30 37  1  0  0  0  0
 30 38  1  0  0  0  0
 31 32  1  0  0  0  0
 31 35  1  0  0  0  0
 32 33  2  0  0  0  0
 33 34  1  0  0  0  0
 33 36  1  0  0  0  0
 34 35  2  0  0  0  0
 42 43  2  0  0  0  0
 42 48  1  0  0  0  0
 43 44  1  0  0  0  0
 43 53  1  0  0  0  0
 44 45  1  0  0  0  0
 44 46  2  0  0  0  0
 46 47  1  0  0  0  0
 46 52  1  0  0  0  0
 47 48  2  0  0  0  0
 47 51  1  0  0  0  0
 48 49  1  0  0  0  0
 49 50  2  0  0  0  0
M  END
>  <MODEL>
       1

$$$$
