output/tmp_first_model_20_80.pdb
 OpenBabel07242623363D

 60 65  0  0  1  0  0  0  0  0999 V2000
   -8.7970   -7.9850  -25.9040 C   0  0  0  0  0  0  0  0  0  0  0  0
   -8.0810   -7.0110  -25.1120 N   0  0  0  0  0  0  0  0  0  0  0  0
   -7.3430   -7.2660  -24.0080 C   0  0  0  0  0  0  0  0  0  0  0  0
   -7.3590   -8.3220  -23.3940 O   0  0  0  0  0  0  0  0  0  0  0  0
   -6.5170   -6.0950  -23.5130 C   0  0  0  0  0  0  0  0  0  0  0  0
   -6.8800   -4.7940  -23.9670 N   0  0  0  0  0  0  0  0  0  0  0  0
   -8.0400   -4.1820  -23.3670 C   0  0  0  0  0  0  0  0  0  0  0  0
   -7.8470   -2.6720  -23.1680 C   0  0  2  0  0  0  0  0  0  0  0  0
   -6.8320   -2.4040  -22.0430 C   0  0  0  0  0  0  0  0  0  0  0  0
   -5.7360   -2.9110  -21.9040 O   0  0  0  0  0  0  0  0  0  0  0  0
   -7.3520   -1.4610  -21.1990 N   0  0  0  0  0  0  0  0  0  0  0  0
   -6.5700   -0.8560  -20.1880 C   0  0  0  0  0  0  0  0  0  0  0  0
   -6.9090   -1.0490  -18.8740 C   0  0  0  0  0  0  0  0  0  0  0  0
   -6.2210   -0.5370  -17.8260 N   0  0  0  0  0  0  0  0  0  0  0  0
   -5.1760    0.2030  -18.0960 C   0  0  0  0  0  0  0  0  0  0  0  0
   -4.7330    0.5080  -19.4140 C   0  0  0  0  0  0  0  0  0  0  0  0
   -3.6100    1.3450  -19.6430 C   0  0  0  0  0  0  0  0  0  0  0  0
   -3.2280    1.6600  -20.9160 C   0  0  0  0  0  0  0  0  0  0  0  0
   -3.9520    1.1510  -22.0210 C   0  0  0  0  0  0  0  0  0  0  0  0
   -5.0390    0.3350  -21.8320 C   0  0  0  0  0  0  0  0  0  0  0  0
   -5.4500   -0.0230  -20.5110 C   0  0  0  0  0  0  0  0  0  0  0  0
   -5.5970   -0.0280  -22.6980 H   0  0  0  0  0  0  0  0  0  0  0  0
   -3.6450    1.4220  -23.0280 H   0  0  0  0  0  0  0  0  0  0  0  0
   -2.3750    2.3100  -21.0930 H   0  0  0  0  0  0  0  0  0  0  0  0
   -3.0790    1.7390  -18.7810 H   0  0  0  0  0  0  0  0  0  0  0  0
   -4.6230    0.6130  -17.2500 H   0  0  0  0  0  0  0  0  0  0  0  0
   -7.7660   -1.6750  -18.6260 H   0  0  0  0  0  0  0  0  0  0  0  0
   -8.6690   -0.9960  -21.5600 C   0  0  0  0  0  0  0  0  0  0  0  0
   -9.1410   -1.9640  -22.6650 C   0  0  2  0  0  0  0  0  0  0  0  0
  -10.2540   -2.8790  -22.1250 C   0  0  0  0  0  0  0  0  0  0  0  0
  -11.0990   -2.2790  -21.7670 H   0  0  0  0  0  0  0  0  0  0  0  0
  -10.6460   -3.5480  -22.8970 H   0  0  0  0  0  0  0  0  0  0  0  0
   -9.9060   -3.4910  -21.2850 H   0  0  0  0  0  0  0  0  0  0  0  0
   -9.5820   -1.4160  -23.5020 H   0  0  0  0  0  0  0  0  0  0  0  0
   -9.3330   -1.0360  -20.7010 H   0  0  0  0  0  0  0  0  0  0  0  0
   -8.6370    0.0500  -21.8910 H   0  0  0  0  0  0  0  0  0  0  0  0
   -7.3110   -2.0810  -24.4660 C   0  0  0  0  0  0  0  0  0  0  0  0
   -7.4620   -0.7180  -24.7480 C   0  0  0  0  0  0  0  0  0  0  0  0
   -6.9280   -0.1870  -25.9110 C   0  0  0  0  0  0  0  0  0  0  0  0
   -7.1240    1.5170  -26.2350 Cl  0  0  0  0  0  0  0  0  0  0  0  0
   -6.2300   -0.9770  -26.8260 C   0  0  0  0  0  0  0  0  0  0  0  0
   -6.0500   -2.3150  -26.5380 C   0  0  0  0  0  0  0  0  0  0  0  0
   -6.5680   -2.8570  -25.3630 C   0  0  0  0  0  0  0  0  0  0  0  0
   -6.2570   -4.2800  -25.0760 C   0  0  0  0  0  0  0  0  0  0  0  0
   -5.4960   -4.9490  -25.7610 O   0  0  0  0  0  0  0  0  0  0  0  0
   -5.4910   -2.9730  -27.1990 H   0  0  0  0  0  0  0  0  0  0  0  0
   -5.8230   -0.5250  -27.7240 H   0  0  0  0  0  0  0  0  0  0  0  0
   -7.9940   -0.0570  -24.0680 H   0  0  0  0  0  0  0  0  0  0  0  0
   -8.2150   -4.6670  -22.4070 H   0  0  0  0  0  0  0  0  0  0  0  0
   -8.9220   -4.3300  -24.0040 H   0  0  0  0  0  0  0  0  0  0  0  0
   -6.1420   -6.2440  -22.0640 C   0  0  0  0  0  0  0  0  0  0  0  0
   -5.0890   -6.3410  -23.1180 C   0  0  0  0  0  0  0  0  0  0  0  0
   -4.6740   -7.3080  -23.3780 H   0  0  0  0  0  0  0  0  0  0  0  0
   -4.4030   -5.5050  -23.2290 H   0  0  0  0  0  0  0  0  0  0  0  0
   -6.1800   -5.3410  -21.4640 H   0  0  0  0  0  0  0  0  0  0  0  0
   -6.4810   -7.1760  -21.6260 H   0  0  0  0  0  0  0  0  0  0  0  0
   -7.9570   -6.1140  -25.5440 H   0  0  0  0  0  0  0  0  0  0  0  0
   -8.1260   -8.7240  -26.3380 H   0  0  0  0  0  0  0  0  0  0  0  0
   -9.5530   -8.5160  -25.3200 H   0  0  0  0  0  0  0  0  0  0  0  0
   -9.2820   -7.4540  -26.7250 H   0  0  0  0  0  0  0  0  0  0  0  0
  1  2  1  0  0  0  0
  1 58  1  0  0  0  0
  1 59  1  0  0  0  0
  1 60  1  0  0  0  0
  2  3  1  0  0  0  0
  2 57  1  0  0  0  0
  3  4  2  0  0  0  0
  3  5  1  0  0  0  0
  5  6  1  0  0  0  0
  5 51  1  0  0  0  0
  5 52  1  0  0  0  0
  6  7  1  0  0  0  0
  6 44  1  0  0  0  0
  7  8  1  0  0  0  0
  7 49  1  0  0  0  0
  7 50  1  0  0  0  0
  8  9  1  1  0  0  0
  8 29  1  0  0  0  0
  8 37  1  0  0  0  0
  9 10  2  0  0  0  0
  9 11  1  0  0  0  0
 11 12  1  0  0  0  0
 11 28  1  0  0  0  0
 12 13  2  0  0  0  0
 12 21  1  0  0  0  0
 13 14  1  0  0  0  0
 13 27  1  0  0  0  0
 14 15  2  0  0  0  0
 15 16  1  0  0  0  0
 15 26  1  0  0  0  0
 16 17  2  0  0  0  0
 16 21  1  0  0  0  0
 17 18  1  0  0  0  0
 17 25  1  0  0  0  0
 18 19  2  0  0  0  0
 18 24  1  0  0  0  0
 19 20  1  0  0  0  0
 19 23  1  0  0  0  0
 20 21  2  0  0  0  0
 20 22  1  0  0  0  0
 28 29  1  0  0  0  0
 28 35  1  0  0  0  0
 28 36  1  0  0  0  0
 29 30  1  0  0  0  0
 29 34  1  6  0  0  0
 30 31  1  0  0  0  0
 30 32  1  0  0  0  0
 30 33  1  0  0  0  0
 37 38  2  0  0  0  0
 37 43  1  0  0  0  0
 38 39  1  0  0  0  0
 38 48  1  0  0  0  0
 39 40  1  0  0  0  0
 39 41  2  0  0  0  0
 41 42  1  0  0  0  0
 41 47  1  0  0  0  0
 42 43  2  0  0  0  0
 42 46  1  0  0  0  0
 43 44  1  0  0  0  0
 44 45  2  0  0  0  0
 51 52  1  0  0  0  0
 51 55  1  0  0  0  0
 51 56  1  0  0  0  0
 52 53  1  0  0  0  0
 52 54  1  0  0  0  0
M  END
>  <MODEL>
       1

$$$$
