output/tmp_first_model_2_56.pdb
 OpenBabel07242613513D

 57 62  0  0  1  0  0  0  0  0999 V2000
  -10.3650   -0.8960  -23.3850 C   0  0  0  0  0  0  0  0  0  0  0  0
   -8.9680   -1.3340  -22.9680 C   0  0  1  0  0  0  0  0  0  0  0  0
   -8.3600   -0.4420  -21.8740 C   0  0  0  0  0  0  0  0  0  0  0  0
   -7.3900   -1.3180  -21.2380 N   0  0  0  0  0  0  0  0  0  0  0  0
   -6.5760   -0.8690  -20.1750 C   0  0  0  0  0  0  0  0  0  0  0  0
   -6.8910   -1.1480  -18.8710 C   0  0  0  0  0  0  0  0  0  0  0  0
   -6.2460   -0.6020  -17.8090 N   0  0  0  0  0  0  0  0  0  0  0  0
   -5.2420    0.2060  -18.0560 C   0  0  0  0  0  0  0  0  0  0  0  0
   -4.7740    0.5280  -19.3660 C   0  0  0  0  0  0  0  0  0  0  0  0
   -3.6510    1.3660  -19.6070 C   0  0  0  0  0  0  0  0  0  0  0  0
   -3.2420    1.6230  -20.8880 C   0  0  0  0  0  0  0  0  0  0  0  0
   -3.9300    1.0640  -21.9900 C   0  0  0  0  0  0  0  0  0  0  0  0
   -5.0170    0.2520  -21.7810 C   0  0  0  0  0  0  0  0  0  0  0  0
   -5.4630   -0.0270  -20.4640 C   0  0  0  0  0  0  0  0  0  0  0  0
   -5.5420   -0.2000  -22.6150 H   0  0  0  0  0  0  0  0  0  0  0  0
   -3.5980    1.2770  -23.0020 H   0  0  0  0  0  0  0  0  0  0  0  0
   -2.3800    2.2590  -21.0720 H   0  0  0  0  0  0  0  0  0  0  0  0
   -3.1230    1.7880  -18.7550 H   0  0  0  0  0  0  0  0  0  0  0  0
   -4.7390    0.6440  -17.1930 H   0  0  0  0  0  0  0  0  0  0  0  0
   -7.7110   -1.8260  -18.6380 H   0  0  0  0  0  0  0  0  0  0  0  0
   -7.6670   -2.6550  -21.4110 C   0  0  0  0  0  0  0  0  0  0  0  0
   -7.0770   -3.5550  -20.8510 O   0  0  0  0  0  0  0  0  0  0  0  0
   -8.8390   -2.7960  -22.3970 C   0  0  1  0  0  0  0  0  0  0  0  0
  -10.0690   -3.2120  -21.5440 C   0  0  0  0  0  0  0  0  0  0  0  0
  -11.1800   -3.7710  -22.3050 N   0  0  0  0  0  0  0  0  0  0  0  0
  -12.5630   -3.7890  -21.7920 C   0  0  0  0  0  0  0  0  0  0  0  0
  -13.4210   -2.8080  -22.5280 C   0  0  0  0  0  0  0  0  0  0  0  0
  -14.1250   -3.2630  -23.5740 N   0  0  0  0  0  0  0  0  0  0  0  0
  -14.6980   -2.3400  -24.3340 C   0  0  0  0  0  0  0  0  0  0  0  0
  -14.6000   -0.9890  -24.0320 C   0  0  0  0  0  0  0  0  0  0  0  0
  -14.0150   -0.6610  -22.8260 C   0  0  0  0  0  0  0  0  0  0  0  0
  -13.3910   -1.5620  -22.0710 N   0  0  0  0  0  0  0  0  0  0  0  0
  -14.0210    0.3630  -22.4570 H   0  0  0  0  0  0  0  0  0  0  0  0
  -14.9020   -0.1910  -24.6790 H   0  0  0  0  0  0  0  0  0  0  0  0
  -15.2290   -2.7080  -25.2070 H   0  0  0  0  0  0  0  0  0  0  0  0
  -12.9990   -4.7670  -21.9940 H   0  0  0  0  0  0  0  0  0  0  0  0
  -12.5640   -3.5560  -20.7260 H   0  0  0  0  0  0  0  0  0  0  0  0
  -10.9740   -4.5580  -23.3990 C   0  0  0  0  0  0  0  0  0  0  0  0
  -11.9190   -5.0980  -23.9510 O   0  0  0  0  0  0  0  0  0  0  0  0
   -9.5790   -4.6920  -23.9070 C   0  0  0  0  0  0  0  0  0  0  0  0
   -9.3330   -5.6870  -24.8540 C   0  0  0  0  0  0  0  0  0  0  0  0
   -8.0680   -5.8890  -25.3610 C   0  0  0  0  0  0  0  0  0  0  0  0
   -7.0550   -5.0600  -24.8970 C   0  0  0  0  0  0  0  0  0  0  0  0
   -5.8200   -5.2470  -25.3860 F   0  0  0  0  0  0  0  0  0  0  0  0
   -7.2650   -4.0720  -23.9530 C   0  0  0  0  0  0  0  0  0  0  0  0
   -8.5520   -3.8720  -23.4310 C   0  0  0  0  0  0  0  0  0  0  0  0
   -6.4090   -3.4940  -23.6200 H   0  0  0  0  0  0  0  0  0  0  0  0
   -7.8610   -6.6750  -26.0820 H   0  0  0  0  0  0  0  0  0  0  0  0
  -10.1710   -6.2930  -25.1830 H   0  0  0  0  0  0  0  0  0  0  0  0
   -9.7240   -3.9440  -20.8090 H   0  0  0  0  0  0  0  0  0  0  0  0
  -10.4140   -2.3290  -20.9930 H   0  0  0  0  0  0  0  0  0  0  0  0
   -7.8690    0.4550  -22.2630 H   0  0  0  0  0  0  0  0  0  0  0  0
   -9.1140   -0.1050  -21.1430 H   0  0  0  0  0  0  0  0  0  0  0  0
   -8.2950   -1.2990  -23.8350 H   0  0  0  0  0  0  0  0  0  0  0  0
  -10.3480    0.0740  -23.8920 H   0  0  0  0  0  0  0  0  0  0  0  0
  -11.0260   -0.7990  -22.5190 H   0  0  0  0  0  0  0  0  0  0  0  0
  -10.8120   -1.6320  -24.0580 H   0  0  0  0  0  0  0  0  0  0  0  0
  1  2  1  0  0  0  0
  1 55  1  0  0  0  0
  1 56  1  0  0  0  0
  1 57  1  0  0  0  0
  2  3  1  0  0  0  0
  2 23  1  0  0  0  0
  2 54  1  6  0  0  0
  3  4  1  0  0  0  0
  3 52  1  0  0  0  0
  3 53  1  0  0  0  0
  4  5  1  0  0  0  0
  4 21  1  0  0  0  0
  5  6  2  0  0  0  0
  5 14  1  0  0  0  0
  6  7  1  0  0  0  0
  6 20  1  0  0  0  0
  7  8  2  0  0  0  0
  8  9  1  0  0  0  0
  8 19  1  0  0  0  0
  9 10  2  0  0  0  0
  9 14  1  0  0  0  0
 10 11  1  0  0  0  0
 10 18  1  0  0  0  0
 11 12  2  0  0  0  0
 11 17  1  0  0  0  0
 12 13  1  0  0  0  0
 12 16  1  0  0  0  0
 13 14  2  0  0  0  0
 13 15  1  0  0  0  0
 21 22  2  0  0  0  0
 23 21  1  1  0  0  0
 23 24  1  0  0  0  0
 23 46  1  0  0  0  0
 24 25  1  0  0  0  0
 24 50  1  0  0  0  0
 24 51  1  0  0  0  0
 25 26  1  0  0  0  0
 25 38  1  0  0  0  0
 26 27  1  0  0  0  0
 26 36  1  0  0  0  0
 26 37  1  0  0  0  0
 27 28  2  0  0  0  0
 27 32  1  0  0  0  0
 28 29  1  0  0  0  0
 29 30  2  0  0  0  0
 29 35  1  0  0  0  0
 30 31  1  0  0  0  0
 30 34  1  0  0  0  0
 31 32  2  0  0  0  0
 31 33  1  0  0  0  0
 38 39  2  0  0  0  0
 38 40  1  0  0  0  0
 40 41  2  0  0  0  0
 40 46  1  0  0  0  0
 41 42  1  0  0  0  0
 41 49  1  0  0  0  0
 42 43  2  0  0  0  0
 42 48  1  0  0  0  0
 43 44  1  0  0  0  0
 43 45  1  0  0  0  0
 45 46  2  0  0  0  0
 45 47  1  0  0  0  0
M  END
>  <MODEL>
       1

$$$$
