output/tmp_first_model_5_20.pdb
 OpenBabel07242615323D

 66 71  0  0  1  0  0  0  0  0999 V2000
   -8.5770    4.4990  -23.2600 C   0  0  0  0  0  0  0  0  0  0  0  0
   -8.6030    3.4310  -24.2320 N   0  0  0  0  0  0  0  0  0  0  0  0
   -7.5690    2.5700  -24.3460 C   0  0  0  0  0  0  0  0  0  0  0  0
   -6.4920    2.7470  -23.7890 O   0  0  0  0  0  0  0  0  0  0  0  0
   -7.8480    1.3520  -25.2380 C   0  0  0  0  0  0  0  0  0  0  0  0
   -8.6930    0.3640  -24.5810 N   0  0  0  0  0  0  0  0  0  0  0  0
   -8.1100   -0.9150  -24.2000 C   0  0  0  0  0  0  0  0  0  0  0  0
   -8.8380   -1.5810  -22.9910 C   0  0  2  0  0  0  0  0  0  0  0  0
   -8.4450   -0.8650  -21.6610 C   0  0  0  0  0  0  0  0  0  0  0  0
   -8.9300    0.1340  -21.1840 O   0  0  0  0  0  0  0  0  0  0  0  0
   -7.4020   -1.5780  -21.1030 N   0  0  0  0  0  0  0  0  0  0  0  0
   -6.5140   -1.0810  -20.1110 C   0  0  0  0  0  0  0  0  0  0  0  0
   -6.6460   -1.4970  -18.8130 C   0  0  0  0  0  0  0  0  0  0  0  0
   -5.6650   -1.4140  -17.8810 N   0  0  0  0  0  0  0  0  0  0  0  0
   -4.5420   -0.8280  -18.2330 C   0  0  0  0  0  0  0  0  0  0  0  0
   -4.3470   -0.1830  -19.4860 C   0  0  0  0  0  0  0  0  0  0  0  0
   -3.2160    0.6430  -19.7390 C   0  0  0  0  0  0  0  0  0  0  0  0
   -3.1750    1.4130  -20.8680 C   0  0  0  0  0  0  0  0  0  0  0  0
   -4.1950    1.3200  -21.8430 C   0  0  0  0  0  0  0  0  0  0  0  0
   -5.2890    0.5220  -21.6190 C   0  0  0  0  0  0  0  0  0  0  0  0
   -5.3850   -0.2590  -20.4400 C   0  0  0  0  0  0  0  0  0  0  0  0
   -6.1140    0.5450  -22.3210 H   0  0  0  0  0  0  0  0  0  0  0  0
   -4.1340    1.8880  -22.7610 H   0  0  0  0  0  0  0  0  0  0  0  0
   -2.3340    2.0740  -21.0390 H   0  0  0  0  0  0  0  0  0  0  0  0
   -2.4720    0.7340  -18.9520 H   0  0  0  0  0  0  0  0  0  0  0  0
   -3.7350   -0.7970  -17.4990 H   0  0  0  0  0  0  0  0  0  0  0  0
   -7.5950   -1.9270  -18.4930 H   0  0  0  0  0  0  0  0  0  0  0  0
   -7.0000   -2.7250  -21.8970 C   0  0  0  0  0  0  0  0  0  0  0  0
   -8.2540   -3.0030  -22.7320 C   0  0  2  0  0  0  0  0  0  0  0  0
   -8.0360   -3.9170  -23.9550 C   0  0  0  0  0  0  0  0  0  0  0  0
   -7.6880   -5.3410  -23.5800 C   0  0  0  0  0  0  0  0  0  0  0  0
   -8.6510   -6.3530  -23.5410 C   0  0  0  0  0  0  0  0  0  0  0  0
   -8.3110   -7.6520  -23.1690 C   0  0  0  0  0  0  0  0  0  0  0  0
   -6.9920   -7.9710  -22.8570 C   0  0  0  0  0  0  0  0  0  0  0  0
   -6.0190   -6.9770  -22.9090 C   0  0  0  0  0  0  0  0  0  0  0  0
   -6.3700   -5.6750  -23.2500 C   0  0  0  0  0  0  0  0  0  0  0  0
   -5.6080   -4.8980  -23.2610 H   0  0  0  0  0  0  0  0  0  0  0  0
   -4.9810   -7.2140  -22.6860 H   0  0  0  0  0  0  0  0  0  0  0  0
   -6.7180   -8.9890  -22.5910 H   0  0  0  0  0  0  0  0  0  0  0  0
   -9.0840   -8.4170  -23.1300 H   0  0  0  0  0  0  0  0  0  0  0  0
   -9.6850   -6.1380  -23.8070 H   0  0  0  0  0  0  0  0  0  0  0  0
   -8.9500   -3.9000  -24.5620 H   0  0  0  0  0  0  0  0  0  0  0  0
   -7.2320   -3.5150  -24.5900 H   0  0  0  0  0  0  0  0  0  0  0  0
   -8.9570   -3.5210  -22.0710 H   0  0  0  0  0  0  0  0  0  0  0  0
   -6.7230   -3.5610  -21.2470 H   0  0  0  0  0  0  0  0  0  0  0  0
   -6.1220   -2.4770  -22.5220 H   0  0  0  0  0  0  0  0  0  0  0  0
  -10.3300   -1.5280  -23.2370 C   0  0  0  0  0  0  0  0  0  0  0  0
  -11.2090   -2.4540  -22.6570 C   0  0  0  0  0  0  0  0  0  0  0  0
  -12.5660   -2.3890  -22.9310 C   0  0  0  0  0  0  0  0  0  0  0  0
  -13.6190   -3.6210  -22.2870 Cl  0  0  0  0  0  0  0  0  0  0  0  0
  -13.1150   -1.3700  -23.7110 C   0  0  0  0  0  0  0  0  0  0  0  0
  -12.2620   -0.4120  -24.2160 C   0  0  0  0  0  0  0  0  0  0  0  0
  -10.8850   -0.5020  -24.0120 C   0  0  0  0  0  0  0  0  0  0  0  0
  -10.0360    0.5560  -24.6300 C   0  0  0  0  0  0  0  0  0  0  0  0
  -10.5380    1.5570  -25.1520 O   0  0  0  0  0  0  0  0  0  0  0  0
  -12.6280    0.4510  -24.7600 H   0  0  0  0  0  0  0  0  0  0  0  0
  -14.1870   -1.3320  -23.8940 H   0  0  0  0  0  0  0  0  0  0  0  0
  -10.8740   -3.2130  -21.9580 H   0  0  0  0  0  0  0  0  0  0  0  0
   -7.0590   -0.7410  -23.9500 H   0  0  0  0  0  0  0  0  0  0  0  0
   -8.1320   -1.5940  -25.0630 H   0  0  0  0  0  0  0  0  0  0  0  0
   -8.3580    1.6770  -26.1490 H   0  0  0  0  0  0  0  0  0  0  0  0
   -6.8980    0.8820  -25.5000 H   0  0  0  0  0  0  0  0  0  0  0  0
   -9.4740    3.1590  -24.6660 H   0  0  0  0  0  0  0  0  0  0  0  0
   -7.6180    5.0160  -23.3180 H   0  0  0  0  0  0  0  0  0  0  0  0
   -8.6930    4.1210  -22.2390 H   0  0  0  0  0  0  0  0  0  0  0  0
   -9.3890    5.1970  -23.4780 H   0  0  0  0  0  0  0  0  0  0  0  0
  1  2  1  0  0  0  0
  1 64  1  0  0  0  0
  1 65  1  0  0  0  0
  1 66  1  0  0  0  0
  2  3  1  0  0  0  0
  2 63  1  0  0  0  0
  3  4  2  0  0  0  0
  3  5  1  0  0  0  0
  5  6  1  0  0  0  0
  5 61  1  0  0  0  0
  5 62  1  0  0  0  0
  6  7  1  0  0  0  0
  6 54  1  0  0  0  0
  7  8  1  0  0  0  0
  7 59  1  0  0  0  0
  7 60  1  0  0  0  0
  8  9  1  1  0  0  0
  8 29  1  0  0  0  0
  8 47  1  0  0  0  0
  9 10  2  0  0  0  0
  9 11  1  0  0  0  0
 11 12  1  0  0  0  0
 11 28  1  0  0  0  0
 12 13  2  0  0  0  0
 12 21  1  0  0  0  0
 13 14  1  0  0  0  0
 13 27  1  0  0  0  0
 14 15  2  0  0  0  0
 15 16  1  0  0  0  0
 15 26  1  0  0  0  0
 16 17  2  0  0  0  0
 16 21  1  0  0  0  0
 17 18  1  0  0  0  0
 17 25  1  0  0  0  0
 18 19  2  0  0  0  0
 18 24  1  0  0  0  0
 19 20  1  0  0  0  0
 19 23  1  0  0  0  0
 20 21  2  0  0  0  0
 20 22  1  0  0  0  0
 28 29  1  0  0  0  0
 28 45  1  0  0  0  0
 28 46  1  0  0  0  0
 29 30  1  0  0  0  0
 29 44  1  1  0  0  0
 30 31  1  0  0  0  0
 30 42  1  0  0  0  0
 30 43  1  0  0  0  0
 31 32  2  0  0  0  0
 31 36  1  0  0  0  0
 32 33  1  0  0  0  0
 32 41  1  0  0  0  0
 33 34  2  0  0  0  0
 33 40  1  0  0  0  0
 34 35  1  0  0  0  0
 34 39  1  0  0  0  0
 35 36  2  0  0  0  0
 35 38  1  0  0  0  0
 36 37  1  0  0  0  0
 47 48  2  0  0  0  0
 47 53  1  0  0  0  0
 48 49  1  0  0  0  0
 48 58  1  0  0  0  0
 49 50  1  0  0  0  0
 49 51  2  0  0  0  0
 51 52  1  0  0  0  0
 51 57  1  0  0  0  0
 52 53  2  0  0  0  0
 52 56  1  0  0  0  0
 53 54  1  0  0  0  0
 54 55  2  0  0  0  0
M  END
>  <MODEL>
       1

$$$$
