output/tmp_first_model_14_23.pdb
 OpenBabel07242620283D

 68 73  0  0  1  0  0  0  0  0999 V2000
   -8.0230   -5.7030  -27.2780 C   0  0  0  0  0  0  0  0  0  0  0  0
   -8.2200   -4.2630  -27.3230 N   0  0  0  0  0  0  0  0  0  0  0  0
   -7.2540   -3.4150  -26.9240 C   0  0  0  0  0  0  0  0  0  0  0  0
   -6.1550   -3.7870  -26.5070 O   0  0  0  0  0  0  0  0  0  0  0  0
   -7.6170   -1.9290  -26.9150 C   0  0  0  0  0  0  0  0  0  0  0  0
   -8.4910   -1.6020  -25.7930 N   0  0  0  0  0  0  0  0  0  0  0  0
   -7.9190   -1.1970  -24.5140 C   0  0  0  0  0  0  0  0  0  0  0  0
   -8.7800   -1.5200  -23.2500 C   0  0  2  0  0  0  0  0  0  0  0  0
   -8.2780   -0.5780  -22.1440 C   0  0  0  0  0  0  0  0  0  0  0  0
   -8.5100    0.6070  -22.0260 O   0  0  0  0  0  0  0  0  0  0  0  0
   -7.4140   -1.2910  -21.3300 N   0  0  0  0  0  0  0  0  0  0  0  0
   -6.6410   -0.7010  -20.2960 C   0  0  0  0  0  0  0  0  0  0  0  0
   -6.9660   -0.9470  -18.9860 C   0  0  0  0  0  0  0  0  0  0  0  0
   -6.3000   -0.4490  -17.9170 N   0  0  0  0  0  0  0  0  0  0  0  0
   -5.2430    0.2860  -18.1590 C   0  0  0  0  0  0  0  0  0  0  0  0
   -4.7590    0.5860  -19.4620 C   0  0  0  0  0  0  0  0  0  0  0  0
   -3.5930    1.3720  -19.6610 C   0  0  0  0  0  0  0  0  0  0  0  0
   -3.1390    1.6290  -20.9240 C   0  0  0  0  0  0  0  0  0  0  0  0
   -3.8220    1.1020  -22.0430 C   0  0  0  0  0  0  0  0  0  0  0  0
   -4.9530    0.3420  -21.8750 C   0  0  0  0  0  0  0  0  0  0  0  0
   -5.4650    0.0740  -20.5760 C   0  0  0  0  0  0  0  0  0  0  0  0
   -5.4610   -0.0680  -22.7430 H   0  0  0  0  0  0  0  0  0  0  0  0
   -3.4500    1.3080  -23.0420 H   0  0  0  0  0  0  0  0  0  0  0  0
   -2.2590    2.2460  -21.0760 H   0  0  0  0  0  0  0  0  0  0  0  0
   -3.0820    1.7720  -18.7880 H   0  0  0  0  0  0  0  0  0  0  0  0
   -4.7070    0.6720  -17.2940 H   0  0  0  0  0  0  0  0  0  0  0  0
   -7.8290   -1.5720  -18.7610 H   0  0  0  0  0  0  0  0  0  0  0  0
   -7.3390   -2.7120  -21.6210 C   0  0  0  0  0  0  0  0  0  0  0  0
   -8.5110   -2.9120  -22.5830 C   0  0  2  0  0  0  0  0  0  0  0  0
   -8.4910   -4.1270  -23.5190 C   0  0  0  0  0  0  0  0  0  0  0  0
   -7.2190   -4.5740  -24.0220 N   0  0  0  0  0  0  0  0  0  0  0  0
   -6.4330   -5.5340  -23.4320 C   0  0  0  0  0  0  0  0  0  0  0  0
   -5.2790   -5.9800  -24.0960 C   0  0  0  0  0  0  0  0  0  0  0  0
   -4.4330   -6.8890  -23.4700 C   0  0  0  0  0  0  0  0  0  0  0  0
   -4.7270   -7.3810  -22.1990 C   0  0  0  0  0  0  0  0  0  0  0  0
   -5.8890   -6.9580  -21.5610 C   0  0  0  0  0  0  0  0  0  0  0  0
   -6.7420   -6.0540  -22.1750 C   0  0  0  0  0  0  0  0  0  0  0  0
   -7.6510   -5.7230  -21.6840 H   0  0  0  0  0  0  0  0  0  0  0  0
   -6.1450   -7.3330  -20.5730 H   0  0  0  0  0  0  0  0  0  0  0  0
   -4.0690   -8.1010  -21.7180 H   0  0  0  0  0  0  0  0  0  0  0  0
   -3.5250   -7.2150  -23.9760 H   0  0  0  0  0  0  0  0  0  0  0  0
   -5.0710   -5.6030  -25.0990 H   0  0  0  0  0  0  0  0  0  0  0  0
   -6.7390   -4.0340  -24.7240 H   0  0  0  0  0  0  0  0  0  0  0  0
   -8.9550   -4.9820  -23.0210 H   0  0  0  0  0  0  0  0  0  0  0  0
   -9.1440   -3.8980  -24.3720 H   0  0  0  0  0  0  0  0  0  0  0  0
   -9.3920   -3.0560  -21.9440 H   0  0  0  0  0  0  0  0  0  0  0  0
   -7.4600   -3.2840  -20.6960 H   0  0  0  0  0  0  0  0  0  0  0  0
   -6.3590   -2.9800  -22.0390 H   0  0  0  0  0  0  0  0  0  0  0  0
  -10.2560   -1.3740  -23.5610 C   0  0  0  0  0  0  0  0  0  0  0  0
  -11.2070   -1.3590  -22.5240 C   0  0  0  0  0  0  0  0  0  0  0  0
  -12.5640   -1.3800  -22.8290 C   0  0  0  0  0  0  0  0  0  0  0  0
  -13.7780   -1.4540  -21.5860 Cl  0  0  0  0  0  0  0  0  0  0  0  0
  -13.0160   -1.4560  -24.1400 C   0  0  0  0  0  0  0  0  0  0  0  0
  -12.0830   -1.5200  -25.1500 C   0  0  0  0  0  0  0  0  0  0  0  0
  -10.7220   -1.4930  -24.8660 C   0  0  0  0  0  0  0  0  0  0  0  0
   -9.8190   -1.7730  -26.0070 C   0  0  0  0  0  0  0  0  0  0  0  0
  -10.2520   -2.2090  -27.0780 O   0  0  0  0  0  0  0  0  0  0  0  0
  -12.3690   -1.6590  -26.1790 H   0  0  0  0  0  0  0  0  0  0  0  0
  -14.0780   -1.5150  -24.3560 H   0  0  0  0  0  0  0  0  0  0  0  0
  -10.8880   -1.3850  -21.4900 H   0  0  0  0  0  0  0  0  0  0  0  0
   -6.9380   -1.6840  -24.4290 H   0  0  0  0  0  0  0  0  0  0  0  0
   -7.7660   -0.1110  -24.5230 H   0  0  0  0  0  0  0  0  0  0  0  0
   -8.1620   -1.6860  -27.8260 H   0  0  0  0  0  0  0  0  0  0  0  0
   -6.6970   -1.3440  -26.8770 H   0  0  0  0  0  0  0  0  0  0  0  0
   -9.1310   -3.8730  -27.5360 H   0  0  0  0  0  0  0  0  0  0  0  0
   -7.5140   -5.9830  -26.3460 H   0  0  0  0  0  0  0  0  0  0  0  0
   -8.9970   -6.1980  -27.3070 H   0  0  0  0  0  0  0  0  0  0  0  0
   -7.4270   -6.0510  -28.1300 H   0  0  0  0  0  0  0  0  0  0  0  0
  1  2  1  0  0  0  0
  1 66  1  0  0  0  0
  1 67  1  0  0  0  0
  1 68  1  0  0  0  0
  2  3  1  0  0  0  0
  2 65  1  0  0  0  0
  3  4  2  0  0  0  0
  3  5  1  0  0  0  0
  5  6  1  0  0  0  0
  5 63  1  0  0  0  0
  5 64  1  0  0  0  0
  6  7  1  0  0  0  0
  6 56  1  0  0  0  0
  7  8  1  0  0  0  0
  7 61  1  0  0  0  0
  7 62  1  0  0  0  0
  8  9  1  1  0  0  0
  8 29  1  0  0  0  0
  8 49  1  0  0  0  0
  9 10  2  0  0  0  0
  9 11  1  0  0  0  0
 11 12  1  0  0  0  0
 11 28  1  0  0  0  0
 12 13  2  0  0  0  0
 12 21  1  0  0  0  0
 13 14  1  0  0  0  0
 13 27  1  0  0  0  0
 14 15  2  0  0  0  0
 15 16  1  0  0  0  0
 15 26  1  0  0  0  0
 16 17  2  0  0  0  0
 16 21  1  0  0  0  0
 17 18  1  0  0  0  0
 17 25  1  0  0  0  0
 18 19  2  0  0  0  0
 18 24  1  0  0  0  0
 19 20  1  0  0  0  0
 19 23  1  0  0  0  0
 20 21  2  0  0  0  0
 20 22  1  0  0  0  0
 28 29  1  0  0  0  0
 28 47  1  0  0  0  0
 28 48  1  0  0  0  0
 29 30  1  0  0  0  0
 29 46  1  1  0  0  0
 30 31  1  0  0  0  0
 30 44  1  0  0  0  0
 30 45  1  0  0  0  0
 31 32  1  0  0  0  0
 31 43  1  0  0  0  0
 32 33  2  0  0  0  0
 32 37  1  0  0  0  0
 33 34  1  0  0  0  0
 33 42  1  0  0  0  0
 34 35  2  0  0  0  0
 34 41  1  0  0  0  0
 35 36  1  0  0  0  0
 35 40  1  0  0  0  0
 36 37  2  0  0  0  0
 36 39  1  0  0  0  0
 37 38  1  0  0  0  0
 49 50  2  0  0  0  0
 49 55  1  0  0  0  0
 50 51  1  0  0  0  0
 50 60  1  0  0  0  0
 51 52  1  0  0  0  0
 51 53  2  0  0  0  0
 53 54  1  0  0  0  0
 53 59  1  0  0  0  0
 54 55  2  0  0  0  0
 54 58  1  0  0  0  0
 55 56  1  0  0  0  0
 56 57  2  0  0  0  0
M  END
>  <MODEL>
       1

$$$$
