output/tmp_first_model_20_91.pdb
 OpenBabel07242623363D

 66 71  0  0  1  0  0  0  0  0999 V2000
   -7.7530    3.0330  -22.2560 C   0  0  0  0  0  0  0  0  0  0  0  0
   -8.7830    2.5690  -23.1490 N   0  0  0  0  0  0  0  0  0  0  0  0
   -8.4020    1.8990  -24.2600 C   0  0  0  0  0  0  0  0  0  0  0  0
   -7.2300    1.7610  -24.5800 O   0  0  0  0  0  0  0  0  0  0  0  0
   -9.5410    1.2530  -25.0400 C   0  0  0  0  0  0  0  0  0  0  0  0
  -10.0690    0.1100  -24.3190 N   0  0  0  0  0  0  0  0  0  0  0  0
   -9.1590   -1.0020  -24.1130 C   0  0  0  0  0  0  0  0  0  0  0  0
   -9.3750   -1.7400  -22.7570 C   0  0  2  0  0  0  0  0  0  0  0  0
   -8.8000   -0.8390  -21.6250 C   0  0  0  0  0  0  0  0  0  0  0  0
   -9.3420    0.1400  -21.1430 O   0  0  0  0  0  0  0  0  0  0  0  0
   -7.5480   -1.3010  -21.2850 N   0  0  0  0  0  0  0  0  0  0  0  0
   -6.7490   -0.7440  -20.2510 C   0  0  0  0  0  0  0  0  0  0  0  0
   -7.0320   -1.0270  -18.9390 C   0  0  0  0  0  0  0  0  0  0  0  0
   -6.2900   -0.5980  -17.8890 N   0  0  0  0  0  0  0  0  0  0  0  0
   -5.2290    0.1250  -18.1440 C   0  0  0  0  0  0  0  0  0  0  0  0
   -4.8040    0.4800  -19.4560 C   0  0  0  0  0  0  0  0  0  0  0  0
   -3.6470    1.2740  -19.6860 C   0  0  0  0  0  0  0  0  0  0  0  0
   -3.2740    1.6030  -20.9620 C   0  0  0  0  0  0  0  0  0  0  0  0
   -4.0400    1.1610  -22.0630 C   0  0  0  0  0  0  0  0  0  0  0  0
   -5.1680    0.3960  -21.8630 C   0  0  0  0  0  0  0  0  0  0  0  0
   -5.5800    0.0290  -20.5520 C   0  0  0  0  0  0  0  0  0  0  0  0
   -5.7860    0.1310  -22.7160 H   0  0  0  0  0  0  0  0  0  0  0  0
   -3.7540    1.4420  -23.0720 H   0  0  0  0  0  0  0  0  0  0  0  0
   -2.4000    2.2240  -21.1380 H   0  0  0  0  0  0  0  0  0  0  0  0
   -3.0770    1.6270  -18.8300 H   0  0  0  0  0  0  0  0  0  0  0  0
   -4.6460    0.4740  -17.2900 H   0  0  0  0  0  0  0  0  0  0  0  0
   -7.8930   -1.6460  -18.6950 H   0  0  0  0  0  0  0  0  0  0  0  0
   -7.1250   -2.4630  -22.0410 C   0  0  0  0  0  0  0  0  0  0  0  0
   -8.4420   -2.9880  -22.6370 C   0  0  2  0  0  0  0  0  0  0  0  0
   -8.2010   -3.7800  -23.9170 C   0  0  0  0  0  0  0  0  0  0  0  0
   -9.4510   -4.2800  -24.4290 N   0  0  0  0  0  0  0  0  0  0  0  0
   -9.5670   -4.9270  -25.6250 C   0  0  0  0  0  0  0  0  0  0  0  0
   -8.4280   -5.1810  -26.4250 C   0  0  0  0  0  0  0  0  0  0  0  0
   -8.5030   -5.8010  -27.5890 N   0  0  0  0  0  0  0  0  0  0  0  0
   -9.7220   -6.1980  -27.9730 C   0  0  0  0  0  0  0  0  0  0  0  0
  -10.8360   -5.9580  -27.1840 C   0  0  0  0  0  0  0  0  0  0  0  0
  -10.7810   -5.3160  -26.0140 N   0  0  0  0  0  0  0  0  0  0  0  0
  -11.8170   -6.2950  -27.5040 H   0  0  0  0  0  0  0  0  0  0  0  0
   -9.7980   -6.7150  -28.9260 H   0  0  0  0  0  0  0  0  0  0  0  0
   -7.4450   -4.8560  -26.0900 H   0  0  0  0  0  0  0  0  0  0  0  0
  -10.3220   -3.9830  -24.0090 H   0  0  0  0  0  0  0  0  0  0  0  0
   -7.5190   -4.6210  -23.7360 H   0  0  0  0  0  0  0  0  0  0  0  0
   -7.6900   -3.1360  -24.6550 H   0  0  0  0  0  0  0  0  0  0  0  0
   -8.8900   -3.6620  -21.8980 H   0  0  0  0  0  0  0  0  0  0  0  0
   -6.3930   -2.1950  -22.8220 H   0  0  0  0  0  0  0  0  0  0  0  0
   -6.6350   -3.1870  -21.3810 H   0  0  0  0  0  0  0  0  0  0  0  0
  -10.8720   -1.9670  -22.5610 C   0  0  0  0  0  0  0  0  0  0  0  0
  -11.4110   -3.0480  -21.8430 C   0  0  0  0  0  0  0  0  0  0  0  0
  -12.7620   -3.0620  -21.5110 C   0  0  0  0  0  0  0  0  0  0  0  0
  -13.4360   -4.3110  -20.5060 Cl  0  0  0  0  0  0  0  0  0  0  0  0
  -13.6410   -2.0700  -21.9380 C   0  0  0  0  0  0  0  0  0  0  0  0
  -13.1300   -1.0210  -22.6660 C   0  0  0  0  0  0  0  0  0  0  0  0
  -11.7740   -0.9750  -22.9870 C   0  0  0  0  0  0  0  0  0  0  0  0
  -11.3310    0.1890  -23.8120 C   0  0  0  0  0  0  0  0  0  0  0  0
  -12.0630    1.1510  -24.0100 O   0  0  0  0  0  0  0  0  0  0  0  0
  -13.7680   -0.2060  -22.9900 H   0  0  0  0  0  0  0  0  0  0  0  0
  -14.7000   -2.1490  -21.7050 H   0  0  0  0  0  0  0  0  0  0  0  0
  -10.7970   -3.8860  -21.5320 H   0  0  0  0  0  0  0  0  0  0  0  0
   -8.1590   -0.5630  -24.1160 H   0  0  0  0  0  0  0  0  0  0  0  0
   -9.2180   -1.6900  -24.9680 H   0  0  0  0  0  0  0  0  0  0  0  0
  -10.3750    1.9440  -25.1460 H   0  0  0  0  0  0  0  0  0  0  0  0
   -9.1530    0.9670  -26.0220 H   0  0  0  0  0  0  0  0  0  0  0  0
   -9.6900    2.3670  -22.7650 H   0  0  0  0  0  0  0  0  0  0  0  0
   -8.1790    3.4770  -21.3590 H   0  0  0  0  0  0  0  0  0  0  0  0
   -7.1140    2.1990  -21.9500 H   0  0  0  0  0  0  0  0  0  0  0  0
   -7.1250    3.7730  -22.7620 H   0  0  0  0  0  0  0  0  0  0  0  0
  1  2  1  0  0  0  0
  1 64  1  0  0  0  0
  1 65  1  0  0  0  0
  1 66  1  0  0  0  0
  2  3  1  0  0  0  0
  2 63  1  0  0  0  0
  3  4  2  0  0  0  0
  3  5  1  0  0  0  0
  5  6  1  0  0  0  0
  5 61  1  0  0  0  0
  5 62  1  0  0  0  0
  6  7  1  0  0  0  0
  6 54  1  0  0  0  0
  7  8  1  0  0  0  0
  7 59  1  0  0  0  0
  7 60  1  0  0  0  0
  8  9  1  1  0  0  0
  8 29  1  0  0  0  0
  8 47  1  0  0  0  0
  9 10  2  0  0  0  0
  9 11  1  0  0  0  0
 11 12  1  0  0  0  0
 11 28  1  0  0  0  0
 12 13  2  0  0  0  0
 12 21  1  0  0  0  0
 13 14  1  0  0  0  0
 13 27  1  0  0  0  0
 14 15  2  0  0  0  0
 15 16  1  0  0  0  0
 15 26  1  0  0  0  0
 16 17  2  0  0  0  0
 16 21  1  0  0  0  0
 17 18  1  0  0  0  0
 17 25  1  0  0  0  0
 18 19  2  0  0  0  0
 18 24  1  0  0  0  0
 19 20  1  0  0  0  0
 19 23  1  0  0  0  0
 20 21  2  0  0  0  0
 20 22  1  0  0  0  0
 28 29  1  0  0  0  0
 28 45  1  0  0  0  0
 28 46  1  0  0  0  0
 29 30  1  0  0  0  0
 29 44  1  1  0  0  0
 30 31  1  0  0  0  0
 30 42  1  0  0  0  0
 30 43  1  0  0  0  0
 31 32  1  0  0  0  0
 31 41  1  0  0  0  0
 32 33  2  0  0  0  0
 32 37  1  0  0  0  0
 33 34  1  0  0  0  0
 33 40  1  0  0  0  0
 34 35  2  0  0  0  0
 35 36  1  0  0  0  0
 35 39  1  0  0  0  0
 36 37  2  0  0  0  0
 36 38  1  0  0  0  0
 47 48  2  0  0  0  0
 47 53  1  0  0  0  0
 48 49  1  0  0  0  0
 48 58  1  0  0  0  0
 49 50  1  0  0  0  0
 49 51  2  0  0  0  0
 51 52  1  0  0  0  0
 51 57  1  0  0  0  0
 52 53  2  0  0  0  0
 52 56  1  0  0  0  0
 53 54  1  0  0  0  0
 54 55  2  0  0  0  0
M  END
>  <MODEL>
       1

$$$$
