output/tmp_first_model_12_35.pdb
 OpenBabel07242619253D

 40 42  0  0  0  0  0  0  0  0999 V2000
   -9.0320   -1.8180  -22.6930 O   0  0  0  0  0  0  0  0  0  0  0  0
   -8.1970   -0.9560  -22.4300 C   0  0  0  0  0  0  0  0  0  0  0  0
   -6.7670   -1.2960  -22.0460 C   0  0  0  0  0  0  0  0  0  0  0  0
   -6.3300   -0.6330  -20.7460 C   0  0  0  0  0  0  0  0  0  0  0  0
   -6.9470   -0.9780  -19.5650 C   0  0  0  0  0  0  0  0  0  0  0  0
   -6.6030   -0.5140  -18.3350 N   0  0  0  0  0  0  0  0  0  0  0  0
   -5.5930    0.3200  -18.2710 C   0  0  0  0  0  0  0  0  0  0  0  0
   -4.8600    0.7720  -19.4040 C   0  0  0  0  0  0  0  0  0  0  0  0
   -3.7450    1.6450  -19.2810 C   0  0  0  0  0  0  0  0  0  0  0  0
   -3.1060    2.1240  -20.3920 C   0  0  0  0  0  0  0  0  0  0  0  0
   -3.5480    1.7430  -21.6770 C   0  0  0  0  0  0  0  0  0  0  0  0
   -4.6060    0.8750  -21.8140 C   0  0  0  0  0  0  0  0  0  0  0  0
   -5.2690    0.3260  -20.6840 C   0  0  0  0  0  0  0  0  0  0  0  0
   -4.8860    0.5630  -22.8170 H   0  0  0  0  0  0  0  0  0  0  0  0
   -3.0440    2.1330  -22.5580 H   0  0  0  0  0  0  0  0  0  0  0  0
   -2.2640    2.8040  -20.2960 H   0  0  0  0  0  0  0  0  0  0  0  0
   -3.4040    1.9200  -18.2840 H   0  0  0  0  0  0  0  0  0  0  0  0
   -5.3110    0.6920  -17.2840 H   0  0  0  0  0  0  0  0  0  0  0  0
   -7.7680   -1.6960  -19.5690 H   0  0  0  0  0  0  0  0  0  0  0  0
   -6.7560   -2.3840  -21.9600 H   0  0  0  0  0  0  0  0  0  0  0  0
   -6.0920   -1.0480  -22.8710 H   0  0  0  0  0  0  0  0  0  0  0  0
   -8.4270    0.3840  -22.4150 N   0  0  0  0  0  0  0  0  0  0  0  0
   -7.5180    1.3320  -23.1170 C   0  0  0  0  0  0  0  0  0  0  0  0
   -8.1620    2.5420  -23.7100 C   0  0  0  0  0  0  0  0  0  0  0  0
   -9.4440    2.8860  -23.6730 C   0  0  0  0  0  0  0  0  0  0  0  0
   -8.6310    5.5230  -23.0480 C   0  0  0  0  0  0  0  0  0  0  0  0
   -8.1660    5.2980  -21.8340 F   0  0  0  0  0  0  0  0  0  0  0  0
   -9.5800    6.4370  -23.0230 F   0  0  0  0  0  0  0  0  0  0  0  0
   -7.6570    5.8790  -23.8640 F   0  0  0  0  0  0  0  0  0  0  0  0
   -9.6880    1.0340  -22.0020 C   0  0  0  0  0  0  0  0  0  0  0  0
   -9.7000    0.8700  -21.8330 C   0  0  0  0  0  0  0  0  0  0  0  0
  -10.3600    0.4960  -22.8680 H   0  0  0  0  0  0  0  0  0  0  0  0
  -10.0040   -0.1040  -20.6380 H   0  0  0  0  0  0  0  0  0  0  0  0
  -10.6840    1.6970  -21.7570 H   0  0  0  0  0  0  0  0  0  0  0  0
   -9.0720    1.9090  -21.3990 H   0  0  0  0  0  0  0  0  0  0  0  0
   -9.6800    3.9380  -23.7970 H   0  0  0  0  0  0  0  0  0  0  0  0
   -7.4230    3.2150  -24.1370 H   0  0  0  0  0  0  0  0  0  0  0  0
  -10.2250    2.1650  -23.5540 H   0  0  0  0  0  0  0  0  0  0  0  0
   -6.9940    0.7890  -23.9040 H   0  0  0  0  0  0  0  0  0  0  0  0
   -6.7730    1.6810  -22.3940 H   0  0  0  0  0  0  0  0  0  0  0  0
  1  2  2  0  0  0  0
  2  3  1  0  0  0  0
  2 22  1  0  0  0  0
  3  4  1  0  0  0  0
  3 20  1  0  0  0  0
  3 21  1  0  0  0  0
  4  5  2  0  0  0  0
  4 13  1  0  0  0  0
  5  6  1  0  0  0  0
  5 19  1  0  0  0  0
  6  7  2  0  0  0  0
  7  8  1  0  0  0  0
  7 18  1  0  0  0  0
  8  9  2  0  0  0  0
  8 13  1  0  0  0  0
  9 10  1  0  0  0  0
  9 17  1  0  0  0  0
 10 11  2  0  0  0  0
 10 16  1  0  0  0  0
 11 12  1  0  0  0  0
 11 15  1  0  0  0  0
 12 13  2  0  0  0  0
 12 14  1  0  0  0  0
 22 23  1  0  0  0  0
 22 31  1  0  0  0  0
 23 24  1  0  0  0  0
 23 39  1  0  0  0  0
 23 40  1  0  0  0  0
 24 25  1  0  0  0  0
 24 37  1  0  0  0  0
 24 38  1  0  0  0  0
 25 26  1  0  0  0  0
 25 30  1  0  0  0  0
 25 36  1  0  0  0  0
 26 27  1  0  0  0  0
 26 28  1  0  0  0  0
 26 29  1  0  0  0  0
 30 31  1  0  0  0  0
 30 34  1  0  0  0  0
 30 35  1  0  0  0  0
 31 32  1  0  0  0  0
 31 33  1  0  0  0  0
M  END
>  <MODEL>
       1

$$$$
