output/tmp_first_model_5_35.pdb
 OpenBabel07242615323D

 40 42  0  0  0  0  0  0  0  0999 V2000
   -8.8010    0.3520  -20.9050 O   0  0  0  0  0  0  0  0  0  0  0  0
   -8.1720   -0.4030  -21.6190 C   0  0  0  0  0  0  0  0  0  0  0  0
   -7.4660   -1.6170  -21.0250 C   0  0  0  0  0  0  0  0  0  0  0  0
   -6.4420   -1.2100  -19.9990 C   0  0  0  0  0  0  0  0  0  0  0  0
   -6.5470   -1.5980  -18.6890 C   0  0  0  0  0  0  0  0  0  0  0  0
   -5.5720   -1.4450  -17.7560 N   0  0  0  0  0  0  0  0  0  0  0  0
   -4.4910   -0.8020  -18.1240 C   0  0  0  0  0  0  0  0  0  0  0  0
   -4.3130   -0.2110  -19.4050 C   0  0  0  0  0  0  0  0  0  0  0  0
   -3.2310    0.6620  -19.6990 C   0  0  0  0  0  0  0  0  0  0  0  0
   -3.2170    1.3800  -20.8630 C   0  0  0  0  0  0  0  0  0  0  0  0
   -4.1930    1.1420  -21.8550 C   0  0  0  0  0  0  0  0  0  0  0  0
   -5.2090    0.2490  -21.6140 C   0  0  0  0  0  0  0  0  0  0  0  0
   -5.3260   -0.4060  -20.3620 C   0  0  0  0  0  0  0  0  0  0  0  0
   -5.9140    0.0250  -22.3930 H   0  0  0  0  0  0  0  0  0  0  0  0
   -4.1240    1.6410  -22.8180 H   0  0  0  0  0  0  0  0  0  0  0  0
   -2.4250    2.0960  -21.0660 H   0  0  0  0  0  0  0  0  0  0  0  0
   -2.4940    0.8410  -18.9210 H   0  0  0  0  0  0  0  0  0  0  0  0
   -3.6880   -0.7040  -17.3910 H   0  0  0  0  0  0  0  0  0  0  0  0
   -7.4510   -2.1050  -18.3540 H   0  0  0  0  0  0  0  0  0  0  0  0
   -6.9770   -2.2050  -21.8030 H   0  0  0  0  0  0  0  0  0  0  0  0
   -8.2360   -2.2370  -20.5570 H   0  0  0  0  0  0  0  0  0  0  0  0
   -8.0500   -0.1850  -22.9800 N   0  0  0  0  0  0  0  0  0  0  0  0
   -7.5770   -1.1860  -23.9290 C   0  0  0  0  0  0  0  0  0  0  0  0
   -8.2910   -1.0460  -25.2640 C   0  0  0  0  0  0  0  0  0  0  0  0
   -8.2120    0.3900  -25.7880 C   0  0  0  0  0  0  0  0  0  0  0  0
   -9.1610    0.4970  -26.9610 C   0  0  0  0  0  0  0  0  0  0  0  0
   -9.1350    1.6900  -27.5820 F   0  0  0  0  0  0  0  0  0  0  0  0
  -10.4150    0.3120  -26.4950 F   0  0  0  0  0  0  0  0  0  0  0  0
   -8.9590   -0.4530  -27.8930 F   0  0  0  0  0  0  0  0  0  0  0  0
   -8.6130    1.4330  -24.7380 C   0  0  0  0  0  0  0  0  0  0  0  0
   -7.9280    1.2110  -23.4010 C   0  0  0  0  0  0  0  0  0  0  0  0
   -6.8700    1.5160  -23.4720 H   0  0  0  0  0  0  0  0  0  0  0  0
   -8.4020    1.8180  -22.6250 H   0  0  0  0  0  0  0  0  0  0  0  0
   -8.3780    2.4380  -25.1100 H   0  0  0  0  0  0  0  0  0  0  0  0
   -9.6930    1.3880  -24.5920 H   0  0  0  0  0  0  0  0  0  0  0  0
   -7.1930    0.5880  -26.1380 H   0  0  0  0  0  0  0  0  0  0  0  0
   -9.3370   -1.3460  -25.1570 H   0  0  0  0  0  0  0  0  0  0  0  0
   -7.8300   -1.7280  -25.9900 H   0  0  0  0  0  0  0  0  0  0  0  0
   -6.4910   -1.0940  -24.0990 H   0  0  0  0  0  0  0  0  0  0  0  0
   -7.7770   -2.1860  -23.5390 H   0  0  0  0  0  0  0  0  0  0  0  0
  1  2  2  0  0  0  0
  2  3  1  0  0  0  0
  2 22  1  0  0  0  0
  3  4  1  0  0  0  0
  3 20  1  0  0  0  0
  3 21  1  0  0  0  0
  4  5  2  0  0  0  0
  4 13  1  0  0  0  0
  5  6  1  0  0  0  0
  5 19  1  0  0  0  0
  6  7  2  0  0  0  0
  7  8  1  0  0  0  0
  7 18  1  0  0  0  0
  8  9  2  0  0  0  0
  8 13  1  0  0  0  0
  9 10  1  0  0  0  0
  9 17  1  0  0  0  0
 10 11  2  0  0  0  0
 10 16  1  0  0  0  0
 11 12  1  0  0  0  0
 11 15  1  0  0  0  0
 12 13  2  0  0  0  0
 12 14  1  0  0  0  0
 22 23  1  0  0  0  0
 22 31  1  0  0  0  0
 23 24  1  0  0  0  0
 23 39  1  0  0  0  0
 23 40  1  0  0  0  0
 24 25  1  0  0  0  0
 24 37  1  0  0  0  0
 24 38  1  0  0  0  0
 25 26  1  0  0  0  0
 25 30  1  0  0  0  0
 25 36  1  0  0  0  0
 26 27  1  0  0  0  0
 26 28  1  0  0  0  0
 26 29  1  0  0  0  0
 30 31  1  0  0  0  0
 30 34  1  0  0  0  0
 30 35  1  0  0  0  0
 31 32  1  0  0  0  0
 31 33  1  0  0  0  0
M  END
>  <MODEL>
       1

$$$$
