output/tmp_first_model_13_58.pdb
 OpenBabel07242619583D

 42 45  0  0  1  0  0  0  0  0999 V2000
  -12.0200   -4.1680  -22.9370 C   0  0  0  0  0  0  0  0  0  0  0  0
  -10.5930   -4.4400  -22.9130 N   0  0  0  0  0  0  0  0  0  0  0  0
   -9.7410   -3.9730  -21.8410 C   0  0  0  0  0  0  0  0  0  0  0  0
   -8.6040   -3.1080  -22.4240 C   0  0  1  0  0  0  0  0  0  0  0  0
   -7.5940   -2.6500  -21.3740 C   0  0  0  0  0  0  0  0  0  0  0  0
   -6.9000   -3.4250  -20.7500 O   0  0  0  0  0  0  0  0  0  0  0  0
   -7.4600   -1.2830  -21.2180 N   0  0  0  0  0  0  0  0  0  0  0  0
   -6.6200   -0.7680  -20.2020 C   0  0  0  0  0  0  0  0  0  0  0  0
   -6.9090   -1.0380  -18.8890 C   0  0  0  0  0  0  0  0  0  0  0  0
   -6.2120   -0.5430  -17.8400 N   0  0  0  0  0  0  0  0  0  0  0  0
   -5.1780    0.2180  -18.0970 C   0  0  0  0  0  0  0  0  0  0  0  0
   -4.7490    0.5540  -19.4130 C   0  0  0  0  0  0  0  0  0  0  0  0
   -3.6050    1.3560  -19.6450 C   0  0  0  0  0  0  0  0  0  0  0  0
   -3.1910    1.6220  -20.9230 C   0  0  0  0  0  0  0  0  0  0  0  0
   -3.8970    1.0800  -22.0210 C   0  0  0  0  0  0  0  0  0  0  0  0
   -5.0100    0.3050  -21.8240 C   0  0  0  0  0  0  0  0  0  0  0  0
   -5.4790    0.0400  -20.5090 C   0  0  0  0  0  0  0  0  0  0  0  0
   -5.5210   -0.1290  -22.6810 H   0  0  0  0  0  0  0  0  0  0  0  0
   -3.5570    1.2920  -23.0310 H   0  0  0  0  0  0  0  0  0  0  0  0
   -2.3320    2.2610  -21.0990 H   0  0  0  0  0  0  0  0  0  0  0  0
   -3.0730    1.7550  -18.7880 H   0  0  0  0  0  0  0  0  0  0  0  0
   -4.6180    0.6060  -17.2440 H   0  0  0  0  0  0  0  0  0  0  0  0
   -7.7490   -1.6900  -18.6530 H   0  0  0  0  0  0  0  0  0  0  0  0
   -7.7750   -0.6470  -21.9380 H   0  0  0  0  0  0  0  0  0  0  0  0
   -7.8940   -3.9300  -23.4760 C   0  0  0  0  0  0  0  0  0  0  0  0
   -6.5480   -3.7190  -23.7520 C   0  0  0  0  0  0  0  0  0  0  0  0
   -5.9300   -4.4470  -24.7490 C   0  0  0  0  0  0  0  0  0  0  0  0
   -4.2610   -4.1300  -25.1020 Cl  0  0  0  0  0  0  0  0  0  0  0  0
   -6.6120   -5.4210  -25.4750 C   0  0  0  0  0  0  0  0  0  0  0  0
   -7.9460   -5.6480  -25.1810 C   0  0  0  0  0  0  0  0  0  0  0  0
   -8.5850   -4.9100  -24.1860 C   0  0  0  0  0  0  0  0  0  0  0  0
  -10.0500   -5.1320  -23.9620 C   0  0  0  0  0  0  0  0  0  0  0  0
  -10.7060   -5.8590  -24.6930 O   0  0  0  0  0  0  0  0  0  0  0  0
   -8.5260   -6.3960  -25.7120 H   0  0  0  0  0  0  0  0  0  0  0  0
   -6.1060   -5.9810  -26.2530 H   0  0  0  0  0  0  0  0  0  0  0  0
   -5.9850   -2.9900  -23.1800 H   0  0  0  0  0  0  0  0  0  0  0  0
   -9.0570   -2.2100  -22.8700 H   0  0  0  0  0  0  0  0  0  0  0  0
  -10.3490   -3.3920  -21.1510 H   0  0  0  0  0  0  0  0  0  0  0  0
   -9.3340   -4.8300  -21.2850 H   0  0  0  0  0  0  0  0  0  0  0  0
  -12.3790   -3.9670  -21.9190 H   0  0  0  0  0  0  0  0  0  0  0  0
  -12.2310   -3.3090  -23.5880 H   0  0  0  0  0  0  0  0  0  0  0  0
  -12.5120   -5.0480  -23.3480 H   0  0  0  0  0  0  0  0  0  0  0  0
  1  2  1  0  0  0  0
  1 40  1  0  0  0  0
  1 41  1  0  0  0  0
  1 42  1  0  0  0  0
  2  3  1  0  0  0  0
  2 32  1  0  0  0  0
  3  4  1  0  0  0  0
  3 38  1  0  0  0  0
  3 39  1  0  0  0  0
  4  5  1  0  0  0  0
  4 25  1  0  0  0  0
  4 37  1  6  0  0  0
  5  6  2  0  0  0  0
  5  7  1  0  0  0  0
  7  8  1  0  0  0  0
  7 24  1  0  0  0  0
  8  9  2  0  0  0  0
  8 17  1  0  0  0  0
  9 10  1  0  0  0  0
  9 23  1  0  0  0  0
 10 11  2  0  0  0  0
 11 12  1  0  0  0  0
 11 22  1  0  0  0  0
 12 13  2  0  0  0  0
 12 17  1  0  0  0  0
 13 14  1  0  0  0  0
 13 21  1  0  0  0  0
 14 15  2  0  0  0  0
 14 20  1  0  0  0  0
 15 16  1  0  0  0  0
 15 19  1  0  0  0  0
 16 17  2  0  0  0  0
 16 18  1  0  0  0  0
 25 26  2  0  0  0  0
 25 31  1  0  0  0  0
 26 27  1  0  0  0  0
 26 36  1  0  0  0  0
 27 28  1  0  0  0  0
 27 29  2  0  0  0  0
 29 30  1  0  0  0  0
 29 35  1  0  0  0  0
 30 31  2  0  0  0  0
 30 34  1  0  0  0  0
 31 32  1  0  0  0  0
 32 33  2  0  0  0  0
M  END
>  <MODEL>
       1

$$$$
