output/tmp_first_model_16_5.pdb
 OpenBabel07242621343D

 58 61  0  0  1  0  0  0  0  0999 V2000
   -8.4890   -3.7130  -21.7860 C   0  0  0  0  0  0  0  0  0  0  0  0
   -8.1740   -3.8510  -22.0300 C   0  0  0  0  0  0  0  0  0  0  0  0
   -6.9210   -3.0200  -21.6200 C   0  0  0  0  0  0  0  0  0  0  0  0
   -7.0340   -1.5490  -21.3300 N   0  0  0  0  0  0  0  0  0  0  0  0
   -8.1850   -0.7390  -21.5130 C   0  0  0  0  0  0  0  0  0  0  0  0
   -8.6240   -0.0740  -20.5920 O   0  0  0  0  0  0  0  0  0  0  0  0
   -8.7590   -0.5980  -22.9010 C   0  0  2  0  0  0  0  0  0  0  0  0
   -8.8000    0.8700  -23.3720 C   0  0  0  0  0  0  0  0  0  0  0  0
   -9.1230    0.8730  -24.7860 N   0  0  0  0  0  0  0  0  0  0  0  0
   -8.1600    1.4440  -25.7210 C   0  0  0  0  0  0  0  0  0  0  0  0
   -6.9450    0.5120  -25.8030 C   0  0  0  0  0  0  0  0  0  0  0  0
   -6.0400    0.5620  -24.9780 O   0  0  0  0  0  0  0  0  0  0  0  0
   -6.9860   -0.4220  -26.7890 N   0  0  0  0  0  0  0  0  0  0  0  0
   -6.0120   -1.4960  -26.8400 C   0  0  0  0  0  0  0  0  0  0  0  0
   -6.4330   -2.4450  -26.4820 H   0  0  0  0  0  0  0  0  0  0  0  0
   -5.6250   -1.6310  -27.8560 H   0  0  0  0  0  0  0  0  0  0  0  0
   -5.1940   -1.2050  -26.1800 H   0  0  0  0  0  0  0  0  0  0  0  0
   -7.8270   -0.4980  -27.3470 H   0  0  0  0  0  0  0  0  0  0  0  0
   -8.6570    1.5450  -26.6870 H   0  0  0  0  0  0  0  0  0  0  0  0
   -7.8360    2.4250  -25.3640 H   0  0  0  0  0  0  0  0  0  0  0  0
  -10.0250   -0.0130  -25.3180 C   0  0  0  0  0  0  0  0  0  0  0  0
  -10.2620   -0.0260  -26.5180 O   0  0  0  0  0  0  0  0  0  0  0  0
  -10.6880   -0.9590  -24.3630 C   0  0  0  0  0  0  0  0  0  0  0  0
  -11.8750   -1.5820  -24.7330 C   0  0  0  0  0  0  0  0  0  0  0  0
  -12.5670   -2.3520  -23.8100 C   0  0  0  0  0  0  0  0  0  0  0  0
  -12.0740   -2.4230  -22.5040 C   0  0  0  0  0  0  0  0  0  0  0  0
  -12.9390   -3.3680  -21.3210 Cl  0  0  0  0  0  0  0  0  0  0  0  0
  -10.9240   -1.7460  -22.1170 C   0  0  0  0  0  0  0  0  0  0  0  0
  -10.1330   -1.1660  -23.1010 C   0  0  0  0  0  0  0  0  0  0  0  0
  -10.6830   -1.6080  -21.0630 H   0  0  0  0  0  0  0  0  0  0  0  0
  -13.4750   -2.8790  -24.0820 H   0  0  0  0  0  0  0  0  0  0  0  0
  -12.2400   -1.4620  -25.7480 H   0  0  0  0  0  0  0  0  0  0  0  0
   -7.8220    1.3450  -23.2540 H   0  0  0  0  0  0  0  0  0  0  0  0
   -9.5350    1.4310  -22.7790 H   0  0  0  0  0  0  0  0  0  0  0  0
   -8.0700   -1.1000  -23.5790 H   0  0  0  0  0  0  0  0  0  0  0  0
   -6.2280   -1.1210  -20.2440 C   0  0  0  0  0  0  0  0  0  0  0  0
   -6.5210   -1.5600  -18.9780 C   0  0  0  0  0  0  0  0  0  0  0  0
   -5.8380   -1.2000  -17.8680 N   0  0  0  0  0  0  0  0  0  0  0  0
   -4.8350   -0.3680  -18.0160 C   0  0  0  0  0  0  0  0  0  0  0  0
   -4.4270    0.1680  -19.2700 C   0  0  0  0  0  0  0  0  0  0  0  0
   -3.3420    1.0810  -19.3560 C   0  0  0  0  0  0  0  0  0  0  0  0
   -2.9860    1.6090  -20.5660 C   0  0  0  0  0  0  0  0  0  0  0  0
   -3.7010    1.2570  -21.7330 C   0  0  0  0  0  0  0  0  0  0  0  0
   -4.7580    0.3760  -21.6780 C   0  0  0  0  0  0  0  0  0  0  0  0
   -5.1440   -0.2000  -20.4300 C   0  0  0  0  0  0  0  0  0  0  0  0
   -5.2990    0.1460  -22.5930 H   0  0  0  0  0  0  0  0  0  0  0  0
   -3.4120    1.6910  -22.6870 H   0  0  0  0  0  0  0  0  0  0  0  0
   -2.1550    2.3050  -20.6380 H   0  0  0  0  0  0  0  0  0  0  0  0
   -2.8290    1.3610  -18.4410 H   0  0  0  0  0  0  0  0  0  0  0  0
   -4.2910   -0.0740  -17.1180 H   0  0  0  0  0  0  0  0  0  0  0  0
   -7.3640   -2.2250  -18.7990 H   0  0  0  0  0  0  0  0  0  0  0  0
   -6.6650   -3.5380  -20.7300 H   0  0  0  0  0  0  0  0  0  0  0  0
   -6.1810   -3.1580  -22.3820 H   0  0  0  0  0  0  0  0  0  0  0  0
   -8.5150   -3.5410  -23.5090 C   0  0  0  0  0  0  0  0  0  0  0  0
   -9.4080   -4.0580  -24.1520 O   0  0  0  0  0  0  0  0  0  0  0  0
   -7.5340   -2.9100  -23.8700 O   0  5  0  0  0  0  0  0  0  0  0  0
   -9.6370   -3.9810  -21.6820 H   0  0  0  0  0  0  0  0  0  0  0  0
   -9.0140   -2.9480  -21.2160 H   0  0  0  0  0  0  0  0  0  0  0  0
  1  2  2  0  0  0  0
  1 57  1  0  0  0  0
  1 58  1  0  0  0  0
  2  3  1  0  0  0  0
  2 54  1  0  0  0  0
  3  4  1  0  0  0  0
  3 52  1  0  0  0  0
  3 53  1  0  0  0  0
  4  5  1  0  0  0  0
  4 36  1  0  0  0  0
  5  6  2  0  0  0  0
  5  7  1  0  0  0  0
  7  8  1  0  0  0  0
  7 29  1  0  0  0  0
  7 35  1  6  0  0  0
  8  9  1  0  0  0  0
  8 33  1  0  0  0  0
  8 34  1  0  0  0  0
  9 10  1  0  0  0  0
  9 21  1  0  0  0  0
 10 11  1  0  0  0  0
 10 19  1  0  0  0  0
 10 20  1  0  0  0  0
 11 12  2  0  0  0  0
 11 13  1  0  0  0  0
 13 14  1  0  0  0  0
 13 18  1  0  0  0  0
 14 15  1  0  0  0  0
 14 16  1  0  0  0  0
 14 17  1  0  0  0  0
 21 22  2  0  0  0  0
 21 23  1  0  0  0  0
 23 24  2  0  0  0  0
 23 29  1  0  0  0  0
 24 25  1  0  0  0  0
 24 32  1  0  0  0  0
 25 26  2  0  0  0  0
 25 31  1  0  0  0  0
 26 27  1  0  0  0  0
 26 28  1  0  0  0  0
 28 29  2  0  0  0  0
 28 30  1  0  0  0  0
 36 37  2  0  0  0  0
 36 45  1  0  0  0  0
 37 38  1  0  0  0  0
 37 51  1  0  0  0  0
 38 39  2  0  0  0  0
 39 40  1  0  0  0  0
 39 50  1  0  0  0  0
 40 41  2  0  0  0  0
 40 45  1  0  0  0  0
 41 42  1  0  0  0  0
 41 49  1  0  0  0  0
 42 43  2  0  0  0  0
 42 48  1  0  0  0  0
 43 44  1  0  0  0  0
 43 47  1  0  0  0  0
 44 45  2  0  0  0  0
 44 46  1  0  0  0  0
 54 55  2  0  0  0  0
 54 56  1  0  0  0  0
M  CHG  1  56  -1
M  END
>  <MODEL>
       1

$$$$
