output/tmp_first_model_5_80.pdb
 OpenBabel07242615323D

 60 65  0  0  1  0  0  0  0  0999 V2000
   -2.5730   -6.6180  -22.9110 C   0  0  0  0  0  0  0  0  0  0  0  0
   -3.8670   -6.0870  -22.4780 N   0  0  0  0  0  0  0  0  0  0  0  0
   -4.9050   -6.9500  -22.3360 C   0  0  0  0  0  0  0  0  0  0  0  0
   -4.8140   -8.1380  -22.4670 O   0  0  0  0  0  0  0  0  0  0  0  0
   -6.8330   -6.2160  -21.4660 C   0  0  0  0  0  0  0  0  0  0  0  0
   -7.4140   -5.3980  -22.6900 N   0  0  0  0  0  0  0  0  0  0  0  0
   -8.4200   -4.3490  -22.4560 C   0  0  0  0  0  0  0  0  0  0  0  0
   -8.0080   -2.9710  -23.0300 C   0  0  2  0  0  0  0  0  0  0  0  0
   -6.8090   -2.4560  -22.2160 C   0  0  0  0  0  0  0  0  0  0  0  0
   -5.6440   -2.7710  -22.3580 O   0  0  0  0  0  0  0  0  0  0  0  0
   -7.2790   -1.5700  -21.2650 N   0  0  0  0  0  0  0  0  0  0  0  0
   -6.4320   -1.1620  -20.2190 C   0  0  0  0  0  0  0  0  0  0  0  0
   -6.6210   -1.5970  -18.9320 C   0  0  0  0  0  0  0  0  0  0  0  0
   -5.7370   -1.3840  -17.9250 N   0  0  0  0  0  0  0  0  0  0  0  0
   -4.6380   -0.7200  -18.2180 C   0  0  0  0  0  0  0  0  0  0  0  0
   -4.3700   -0.1520  -19.4970 C   0  0  0  0  0  0  0  0  0  0  0  0
   -3.2280    0.6610  -19.7400 C   0  0  0  0  0  0  0  0  0  0  0  0
   -3.1620    1.4320  -20.8700 C   0  0  0  0  0  0  0  0  0  0  0  0
   -4.1600    1.3350  -21.8690 C   0  0  0  0  0  0  0  0  0  0  0  0
   -5.2130    0.4690  -21.7090 C   0  0  0  0  0  0  0  0  0  0  0  0
   -5.3370   -0.2960  -20.5110 C   0  0  0  0  0  0  0  0  0  0  0  0
   -5.9740    0.3730  -22.4800 H   0  0  0  0  0  0  0  0  0  0  0  0
   -4.0850    1.9440  -22.7670 H   0  0  0  0  0  0  0  0  0  0  0  0
   -2.3180    2.0960  -21.0270 H   0  0  0  0  0  0  0  0  0  0  0  0
   -2.4700    0.7350  -18.9650 H   0  0  0  0  0  0  0  0  0  0  0  0
   -3.9070   -0.5750  -17.4200 H   0  0  0  0  0  0  0  0  0  0  0  0
   -7.5130   -2.1640  -18.6580 H   0  0  0  0  0  0  0  0  0  0  0  0
   -8.7250   -1.4360  -21.2710 C   0  0  0  0  0  0  0  0  0  0  0  0
   -9.0810   -1.8840  -22.7010 C   0  0  2  0  0  0  0  0  0  0  0  0
  -10.5450   -2.2850  -22.8420 C   0  0  0  0  0  0  0  0  0  0  0  0
  -10.8180   -3.0480  -22.1040 H   0  0  0  0  0  0  0  0  0  0  0  0
  -11.2060   -1.4280  -22.6750 H   0  0  0  0  0  0  0  0  0  0  0  0
  -10.7690   -2.6890  -23.8340 H   0  0  0  0  0  0  0  0  0  0  0  0
   -8.8800   -1.0190  -23.3440 H   0  0  0  0  0  0  0  0  0  0  0  0
   -9.0190   -0.4020  -21.0640 H   0  0  0  0  0  0  0  0  0  0  0  0
   -9.2140   -2.0750  -20.5170 H   0  0  0  0  0  0  0  0  0  0  0  0
   -7.6170   -3.1880  -24.4770 C   0  0  0  0  0  0  0  0  0  0  0  0
   -7.6050   -2.1230  -25.3870 C   0  0  0  0  0  0  0  0  0  0  0  0
   -7.1260   -2.3160  -26.6710 C   0  0  0  0  0  0  0  0  0  0  0  0
   -7.0620   -0.9700  -27.7750 Cl  0  0  0  0  0  0  0  0  0  0  0  0
   -6.6730   -3.5630  -27.0970 C   0  0  0  0  0  0  0  0  0  0  0  0
   -6.6820   -4.6180  -26.2090 C   0  0  0  0  0  0  0  0  0  0  0  0
   -7.1290   -4.4400  -24.8960 C   0  0  0  0  0  0  0  0  0  0  0  0
   -6.9810   -5.6000  -23.9550 C   0  0  0  0  0  0  0  0  0  0  0  0
   -6.4870   -6.6590  -24.3340 O   0  0  0  0  0  0  0  0  0  0  0  0
   -6.3290   -5.6010  -26.5050 H   0  0  0  0  0  0  0  0  0  0  0  0
   -6.2970   -3.6900  -28.1060 H   0  0  0  0  0  0  0  0  0  0  0  0
   -7.9440   -1.1320  -25.1030 H   0  0  0  0  0  0  0  0  0  0  0  0
   -9.3820   -4.6420  -22.9080 H   0  0  0  0  0  0  0  0  0  0  0  0
   -8.5500   -4.2920  -21.3740 H   0  0  0  0  0  0  0  0  0  0  0  0
   -6.5580   -5.9500  -21.6250 C   0  0  0  0  0  0  0  0  0  0  0  0
   -5.9380   -5.2300  -20.5300 C   0  0  0  0  0  0  0  0  0  0  0  0
   -5.4840   -5.8960  -19.8300 H   0  0  0  0  0  0  0  0  0  0  0  0
   -6.6240   -4.4900  -20.1900 H   0  0  0  0  0  0  0  0  0  0  0  0
   -7.7660   -6.4010  -20.9070 H   0  0  0  0  0  0  0  0  0  0  0  0
   -7.1700   -7.3060  -21.6890 H   0  0  0  0  0  0  0  0  0  0  0  0
   -3.9950   -5.0820  -22.5580 H   0  0  0  0  0  0  0  0  0  0  0  0
   -2.2730   -7.4220  -22.2410 H   0  0  0  0  0  0  0  0  0  0  0  0
   -2.6220   -7.0420  -23.9180 H   0  0  0  0  0  0  0  0  0  0  0  0
   -1.8240   -5.8300  -22.8720 H   0  0  0  0  0  0  0  0  0  0  0  0
  1  2  1  0  0  0  0
  1 58  1  0  0  0  0
  1 59  1  0  0  0  0
  1 60  1  0  0  0  0
  2  3  1  0  0  0  0
  2 57  1  0  0  0  0
  3  4  2  0  0  0  0
  3  5  1  0  0  0  0
  5  6  1  0  0  0  0
  5 51  1  0  0  0  0
  5 52  1  0  0  0  0
  6  7  1  0  0  0  0
  6 44  1  0  0  0  0
  7  8  1  0  0  0  0
  7 49  1  0  0  0  0
  7 50  1  0  0  0  0
  8  9  1  1  0  0  0
  8 29  1  0  0  0  0
  8 37  1  0  0  0  0
  9 10  2  0  0  0  0
  9 11  1  0  0  0  0
 11 12  1  0  0  0  0
 11 28  1  0  0  0  0
 12 13  2  0  0  0  0
 12 21  1  0  0  0  0
 13 14  1  0  0  0  0
 13 27  1  0  0  0  0
 14 15  2  0  0  0  0
 15 16  1  0  0  0  0
 15 26  1  0  0  0  0
 16 17  2  0  0  0  0
 16 21  1  0  0  0  0
 17 18  1  0  0  0  0
 17 25  1  0  0  0  0
 18 19  2  0  0  0  0
 18 24  1  0  0  0  0
 19 20  1  0  0  0  0
 19 23  1  0  0  0  0
 20 21  2  0  0  0  0
 20 22  1  0  0  0  0
 28 29  1  0  0  0  0
 28 35  1  0  0  0  0
 28 36  1  0  0  0  0
 29 30  1  0  0  0  0
 29 34  1  6  0  0  0
 30 31  1  0  0  0  0
 30 32  1  0  0  0  0
 30 33  1  0  0  0  0
 37 38  2  0  0  0  0
 37 43  1  0  0  0  0
 38 39  1  0  0  0  0
 38 48  1  0  0  0  0
 39 40  1  0  0  0  0
 39 41  2  0  0  0  0
 41 42  1  0  0  0  0
 41 47  1  0  0  0  0
 42 43  2  0  0  0  0
 42 46  1  0  0  0  0
 43 44  1  0  0  0  0
 44 45  2  0  0  0  0
 51 52  1  0  0  0  0
 51 55  1  0  0  0  0
 51 56  1  0  0  0  0
 52 53  1  0  0  0  0
 52 54  1  0  0  0  0
M  END
>  <MODEL>
       1

$$$$
