output/tmp_first_model_1_96.pdb
 OpenBabel07242613193D

 66 70  0  0  1  0  0  0  0  0999 V2000
   -8.3750   -5.6880  -27.9450 C   0  0  0  0  0  0  0  0  0  0  0  0
   -8.6420   -4.2790  -27.7440 N   0  0  0  0  0  0  0  0  0  0  0  0
   -7.7760   -3.5240  -27.0090 C   0  0  0  0  0  0  0  0  0  0  0  0
   -6.6930   -3.9390  -26.6200 O   0  0  0  0  0  0  0  0  0  0  0  0
   -8.2300   -2.0880  -26.7160 C   0  0  0  0  0  0  0  0  0  0  0  0
   -8.7540   -1.9340  -25.3580 N   0  0  0  0  0  0  0  0  0  0  0  0
   -7.9280   -1.3490  -24.3050 C   0  0  0  0  0  0  0  0  0  0  0  0
   -8.4950   -1.7640  -22.9070 C   0  0  2  0  0  0  0  0  0  0  0  0
   -7.9180   -0.8360  -21.8180 C   0  0  0  0  0  0  0  0  0  0  0  0
   -8.1750    0.3300  -21.6200 O   0  0  0  0  0  0  0  0  0  0  0  0
   -7.0030   -1.5490  -21.0730 N   0  0  0  0  0  0  0  0  0  0  0  0
   -6.2670   -0.9210  -20.0360 C   0  0  0  0  0  0  0  0  0  0  0  0
   -6.6000   -1.1570  -18.7270 C   0  0  0  0  0  0  0  0  0  0  0  0
   -5.9950   -0.5740  -17.6620 N   0  0  0  0  0  0  0  0  0  0  0  0
   -5.0230    0.2720  -17.9100 C   0  0  0  0  0  0  0  0  0  0  0  0
   -4.5480    0.5730  -19.2190 C   0  0  0  0  0  0  0  0  0  0  0  0
   -3.4650    1.4680  -19.4340 C   0  0  0  0  0  0  0  0  0  0  0  0
   -3.0210    1.7240  -20.7020 C   0  0  0  0  0  0  0  0  0  0  0  0
   -3.6270    1.0940  -21.8120 C   0  0  0  0  0  0  0  0  0  0  0  0
   -4.6750    0.2260  -21.6300 C   0  0  0  0  0  0  0  0  0  0  0  0
   -5.1730   -0.0460  -20.3240 C   0  0  0  0  0  0  0  0  0  0  0  0
   -5.1290   -0.2600  -22.4880 H   0  0  0  0  0  0  0  0  0  0  0  0
   -3.2640    1.3030  -22.8150 H   0  0  0  0  0  0  0  0  0  0  0  0
   -2.2020    2.4190  -20.8670 H   0  0  0  0  0  0  0  0  0  0  0  0
   -3.0090    1.9380  -18.5670 H   0  0  0  0  0  0  0  0  0  0  0  0
   -4.5510    0.7620  -17.0570 H   0  0  0  0  0  0  0  0  0  0  0  0
   -7.4100   -1.8470  -18.4900 H   0  0  0  0  0  0  0  0  0  0  0  0
   -6.7150   -2.8690  -21.5830 C   0  0  0  0  0  0  0  0  0  0  0  0
   -7.9530   -3.1740  -22.4420 C   0  0  2  0  0  0  0  0  0  0  0  0
   -7.7090   -4.2370  -23.5030 C   0  0  0  0  0  0  0  0  0  0  0  0
   -7.6610   -5.4760  -22.8340 O   0  0  0  0  0  0  0  0  0  0  0  0
   -7.5020   -6.5880  -23.6940 C   0  0  0  0  0  0  0  0  0  0  0  0
   -6.8360   -7.6540  -22.8370 C   0  0  0  0  0  0  0  0  0  0  0  0
   -5.9680   -7.2250  -22.3310 H   0  0  0  0  0  0  0  0  0  0  0  0
   -6.4950   -8.5050  -23.4240 H   0  0  0  0  0  0  0  0  0  0  0  0
   -7.5370   -8.0060  -22.0740 H   0  0  0  0  0  0  0  0  0  0  0  0
   -8.8430   -7.0450  -24.2750 C   0  0  0  0  0  0  0  0  0  0  0  0
   -8.6910   -7.8080  -25.0480 H   0  0  0  0  0  0  0  0  0  0  0  0
   -9.3940   -6.2090  -24.7230 H   0  0  0  0  0  0  0  0  0  0  0  0
   -9.4720   -7.4760  -23.4900 H   0  0  0  0  0  0  0  0  0  0  0  0
   -6.8340   -6.3030  -24.5270 H   0  0  0  0  0  0  0  0  0  0  0  0
   -8.5230   -4.2300  -24.2350 H   0  0  0  0  0  0  0  0  0  0  0  0
   -6.7740   -4.0540  -24.0580 H   0  0  0  0  0  0  0  0  0  0  0  0
   -8.6880   -3.6120  -21.7640 H   0  0  0  0  0  0  0  0  0  0  0  0
   -5.7870   -2.8790  -22.1780 H   0  0  0  0  0  0  0  0  0  0  0  0
   -6.5820   -3.5790  -20.7620 H   0  0  0  0  0  0  0  0  0  0  0  0
   -9.9930   -1.7290  -22.8540 C   0  0  0  0  0  0  0  0  0  0  0  0
  -10.6800   -2.2520  -21.8010 C   0  0  0  0  0  0  0  0  0  0  0  0
  -12.1250   -2.4810  -21.9380 C   0  0  0  0  0  0  0  0  0  0  0  0
  -13.0560   -3.2010  -20.6580 Cl  0  0  0  0  0  0  0  0  0  0  0  0
  -12.6550   -2.0560  -23.0740 C   0  0  0  0  0  0  0  0  0  0  0  0
  -11.4730   -1.2250  -24.1060 C   0  0  0  0  0  0  0  0  0  0  0  0
  -11.4760   -1.0100  -24.1430 C   0  0  0  0  0  0  0  0  0  0  0  0
  -10.1370   -2.2960  -25.1600 C   0  0  0  0  0  0  0  0  0  0  0  0
  -10.5000   -3.3260  -25.7070 O   0  0  0  0  0  0  0  0  0  0  0  0
  -11.7580   -0.6990  -25.2490 H   0  0  0  0  0  0  0  0  0  0  0  0
  -13.7100   -2.2160  -23.3740 H   0  0  0  0  0  0  0  0  0  0  0  0
  -10.1870   -2.4830  -20.8540 H   0  0  0  0  0  0  0  0  0  0  0  0
   -6.8850   -1.7060  -24.4230 H   0  0  0  0  0  0  0  0  0  0  0  0
   -7.8800   -0.2500  -24.3700 H   0  0  0  0  0  0  0  0  0  0  0  0
   -8.9860   -1.7720  -27.4480 H   0  0  0  0  0  0  0  0  0  0  0  0
   -7.3520   -1.4390  -26.8390 H   0  0  0  0  0  0  0  0  0  0  0  0
   -9.6160   -4.0170  -27.7160 H   0  0  0  0  0  0  0  0  0  0  0  0
   -8.5310   -6.2800  -27.0300 H   0  0  0  0  0  0  0  0  0  0  0  0
   -9.0340   -6.0710  -28.7310 H   0  0  0  0  0  0  0  0  0  0  0  0
   -7.3350   -5.8190  -28.2530 H   0  0  0  0  0  0  0  0  0  0  0  0
  1  2  1  0  0  0  0
  1 64  1  0  0  0  0
  1 65  1  0  0  0  0
  1 66  1  0  0  0  0
  2  3  1  0  0  0  0
  2 63  1  0  0  0  0
  3  4  2  0  0  0  0
  3  5  1  0  0  0  0
  5  6  1  0  0  0  0
  5 61  1  0  0  0  0
  5 62  1  0  0  0  0
  6  7  1  0  0  0  0
  6 54  1  0  0  0  0
  7  8  1  0  0  0  0
  7 59  1  0  0  0  0
  7 60  1  0  0  0  0
  8  9  1  1  0  0  0
  8 29  1  0  0  0  0
  8 47  1  0  0  0  0
  9 10  2  0  0  0  0
  9 11  1  0  0  0  0
 11 12  1  0  0  0  0
 11 28  1  0  0  0  0
 12 13  2  0  0  0  0
 12 21  1  0  0  0  0
 13 14  1  0  0  0  0
 13 27  1  0  0  0  0
 14 15  2  0  0  0  0
 15 16  1  0  0  0  0
 15 26  1  0  0  0  0
 16 17  2  0  0  0  0
 16 21  1  0  0  0  0
 17 18  1  0  0  0  0
 17 25  1  0  0  0  0
 18 19  2  0  0  0  0
 18 24  1  0  0  0  0
 19 20  1  0  0  0  0
 19 23  1  0  0  0  0
 20 21  2  0  0  0  0
 20 22  1  0  0  0  0
 28 29  1  0  0  0  0
 28 45  1  0  0  0  0
 28 46  1  0  0  0  0
 29 30  1  0  0  0  0
 29 44  1  1  0  0  0
 30 31  1  0  0  0  0
 30 42  1  0  0  0  0
 30 43  1  0  0  0  0
 31 32  1  0  0  0  0
 32 33  1  0  0  0  0
 32 37  1  0  0  0  0
 32 41  1  0  0  0  0
 33 34  1  0  0  0  0
 33 35  1  0  0  0  0
 33 36  1  0  0  0  0
 37 38  1  0  0  0  0
 37 39  1  0  0  0  0
 37 40  1  0  0  0  0
 47 48  2  0  0  0  0
 47 53  1  0  0  0  0
 48 49  1  0  0  0  0
 48 58  1  0  0  0  0
 49 50  1  0  0  0  0
 49 51  2  0  0  0  0
 51 52  1  0  0  0  0
 51 57  1  0  0  0  0
 52 53  2  0  0  0  0
 52 56  1  0  0  0  0
 53 54  1  0  0  0  0
 54 55  2  0  0  0  0
M  END
>  <MODEL>
       1

$$$$
