output/tmp_first_model_7_63.pdb
 OpenBabel07242616393D

 57 61  0  0  1  0  0  0  0  0999 V2000
  -14.7410   -0.6830  -22.1880 C   0  0  0  0  0  0  0  0  0  0  0  0
  -13.8580   -1.7130  -21.6770 N   0  0  0  0  0  0  0  0  0  0  0  0
  -13.2560   -2.5950  -22.5340 C   0  0  0  0  0  0  0  0  0  0  0  0
  -13.4710   -2.5900  -23.7300 O   0  0  0  0  0  0  0  0  0  0  0  0
  -12.4210   -3.6810  -21.8420 C   0  0  0  0  0  0  0  0  0  0  0  0
  -11.0430   -3.7570  -22.3020 N   0  0  0  0  0  0  0  0  0  0  0  0
   -9.9460   -3.1780  -21.5380 C   0  0  0  0  0  0  0  0  0  0  0  0
   -8.7330   -2.7420  -22.4060 C   0  0  2  0  0  0  0  0  0  0  0  0
   -7.5680   -2.5630  -21.4190 C   0  0  0  0  0  0  0  0  0  0  0  0
   -6.9560   -3.4410  -20.8450 O   0  0  0  0  0  0  0  0  0  0  0  0
   -7.3460   -1.2190  -21.2280 N   0  0  0  0  0  0  0  0  0  0  0  0
   -6.5310   -0.7690  -20.1700 C   0  0  0  0  0  0  0  0  0  0  0  0
   -6.8170   -1.0900  -18.8700 C   0  0  0  0  0  0  0  0  0  0  0  0
   -6.1420   -0.5790  -17.8120 N   0  0  0  0  0  0  0  0  0  0  0  0
   -5.1400    0.2300  -18.0570 C   0  0  0  0  0  0  0  0  0  0  0  0
   -4.6950    0.5790  -19.3660 C   0  0  0  0  0  0  0  0  0  0  0  0
   -3.5690    1.4090  -19.6120 C   0  0  0  0  0  0  0  0  0  0  0  0
   -3.1910    1.7030  -20.8940 C   0  0  0  0  0  0  0  0  0  0  0  0
   -3.9050    1.1780  -21.9940 C   0  0  0  0  0  0  0  0  0  0  0  0
   -4.9890    0.3640  -21.7840 C   0  0  0  0  0  0  0  0  0  0  0  0
   -5.4130    0.0640  -20.4630 C   0  0  0  0  0  0  0  0  0  0  0  0
   -5.5260   -0.0740  -22.6180 H   0  0  0  0  0  0  0  0  0  0  0  0
   -3.5980    1.4200  -23.0070 H   0  0  0  0  0  0  0  0  0  0  0  0
   -2.3370    2.3490  -21.0790 H   0  0  0  0  0  0  0  0  0  0  0  0
   -3.0210    1.8110  -18.7660 H   0  0  0  0  0  0  0  0  0  0  0  0
   -4.6210    0.6390  -17.1900 H   0  0  0  0  0  0  0  0  0  0  0  0
   -7.6310   -1.7760  -18.6390 H   0  0  0  0  0  0  0  0  0  0  0  0
   -8.3450   -0.3780  -21.8720 C   0  0  0  0  0  0  0  0  0  0  0  0
   -8.8650   -1.2920  -22.9910 C   0  0  2  0  0  0  0  0  0  0  0  0
  -10.2280   -0.8910  -23.5460 C   0  0  0  0  0  0  0  0  0  0  0  0
  -11.2110   -0.7510  -22.5340 O   0  0  0  0  0  0  0  0  0  0  0  0
  -11.3590    0.1810  -22.3540 H   0  0  0  0  0  0  0  0  0  0  0  0
  -10.5790   -1.6720  -24.2280 H   0  0  0  0  0  0  0  0  0  0  0  0
  -10.1230    0.0470  -24.1050 H   0  0  0  0  0  0  0  0  0  0  0  0
   -8.1540   -1.2390  -23.8300 H   0  0  0  0  0  0  0  0  0  0  0  0
   -7.8890    0.5450  -22.2440 H   0  0  0  0  0  0  0  0  0  0  0  0
   -9.1410   -0.1030  -21.1570 H   0  0  0  0  0  0  0  0  0  0  0  0
   -8.4210   -3.8110  -23.4380 C   0  0  0  0  0  0  0  0  0  0  0  0
   -7.1340   -3.9580  -23.9910 C   0  0  0  0  0  0  0  0  0  0  0  0
   -6.8960   -4.9230  -24.9600 C   0  0  0  0  0  0  0  0  0  0  0  0
   -5.3090   -5.1010  -25.6590 Cl  0  0  0  0  0  0  0  0  0  0  0  0
   -7.9030   -5.7790  -25.4080 C   0  0  0  0  0  0  0  0  0  0  0  0
   -9.1620   -5.6460  -24.8590 C   0  0  0  0  0  0  0  0  0  0  0  0
   -9.4150   -4.6850  -23.8780 C   0  0  0  0  0  0  0  0  0  0  0  0
  -10.7930   -4.6480  -23.3070 C   0  0  0  0  0  0  0  0  0  0  0  0
  -11.6530   -5.3990  -23.7190 O   0  0  0  0  0  0  0  0  0  0  0  0
   -9.9890   -6.2800  -25.1680 H   0  0  0  0  0  0  0  0  0  0  0  0
   -7.6900   -6.5370  -26.1580 H   0  0  0  0  0  0  0  0  0  0  0  0
   -6.2980   -3.3560  -23.6470 H   0  0  0  0  0  0  0  0  0  0  0  0
   -9.5360   -3.8990  -20.8240 H   0  0  0  0  0  0  0  0  0  0  0  0
  -10.3320   -2.3040  -21.0140 H   0  0  0  0  0  0  0  0  0  0  0  0
  -12.9010   -4.6360  -22.1020 H   0  0  0  0  0  0  0  0  0  0  0  0
  -12.4780   -3.5590  -20.7570 H   0  0  0  0  0  0  0  0  0  0  0  0
  -13.3550   -1.5120  -20.8300 H   0  0  0  0  0  0  0  0  0  0  0  0
  -15.4470   -0.4030  -21.4050 H   0  0  0  0  0  0  0  0  0  0  0  0
  -14.2090    0.2080  -22.5440 H   0  0  0  0  0  0  0  0  0  0  0  0
  -15.3060   -1.1040  -23.0180 H   0  0  0  0  0  0  0  0  0  0  0  0
  1  2  1  0  0  0  0
  1 55  1  0  0  0  0
  1 56  1  0  0  0  0
  1 57  1  0  0  0  0
  2  3  1  0  0  0  0
  2 54  1  0  0  0  0
  3  4  2  0  0  0  0
  3  5  1  0  0  0  0
  5  6  1  0  0  0  0
  5 52  1  0  0  0  0
  5 53  1  0  0  0  0
  6  7  1  0  0  0  0
  6 45  1  0  0  0  0
  7  8  1  0  0  0  0
  7 50  1  0  0  0  0
  7 51  1  0  0  0  0
  8  9  1  1  0  0  0
  8 29  1  0  0  0  0
  8 38  1  0  0  0  0
  9 10  2  0  0  0  0
  9 11  1  0  0  0  0
 11 12  1  0  0  0  0
 11 28  1  0  0  0  0
 12 13  2  0  0  0  0
 12 21  1  0  0  0  0
 13 14  1  0  0  0  0
 13 27  1  0  0  0  0
 14 15  2  0  0  0  0
 15 16  1  0  0  0  0
 15 26  1  0  0  0  0
 16 17  2  0  0  0  0
 16 21  1  0  0  0  0
 17 18  1  0  0  0  0
 17 25  1  0  0  0  0
 18 19  2  0  0  0  0
 18 24  1  0  0  0  0
 19 20  1  0  0  0  0
 19 23  1  0  0  0  0
 20 21  2  0  0  0  0
 20 22  1  0  0  0  0
 28 29  1  0  0  0  0
 28 36  1  0  0  0  0
 28 37  1  0  0  0  0
 29 30  1  0  0  0  0
 29 35  1  6  0  0  0
 30 31  1  0  0  0  0
 30 33  1  0  0  0  0
 30 34  1  0  0  0  0
 31 32  1  0  0  0  0
 38 39  2  0  0  0  0
 38 44  1  0  0  0  0
 39 40  1  0  0  0  0
 39 49  1  0  0  0  0
 40 41  1  0  0  0  0
 40 42  2  0  0  0  0
 42 43  1  0  0  0  0
 42 48  1  0  0  0  0
 43 44  2  0  0  0  0
 43 47  1  0  0  0  0
 44 45  1  0  0  0  0
 45 46  2  0  0  0  0
M  END
>  <MODEL>
       1

$$$$
