output/tmp_first_model_7_5.pdb
 OpenBabel07242616393D

 58 61  0  0  1  0  0  0  0  0999 V2000
   -5.2060   -3.1710  -22.4030 C   0  0  0  0  0  0  0  0  0  0  0  0
   -6.5270   -3.2930  -22.3250 C   0  0  0  0  0  0  0  0  0  0  0  0
   -7.4920   -2.8110  -21.2840 C   0  0  0  0  0  0  0  0  0  0  0  0
   -7.4580   -1.3600  -21.1540 N   0  0  0  0  0  0  0  0  0  0  0  0
   -8.2390   -0.4680  -21.8820 C   0  0  0  0  0  0  0  0  0  0  0  0
   -8.3220    0.6930  -21.5230 O   0  0  0  0  0  0  0  0  0  0  0  0
   -8.9790   -0.9680  -23.1430 C   0  0  2  0  0  0  0  0  0  0  0  0
   -8.5100   -0.1450  -24.3680 C   0  0  0  0  0  0  0  0  0  0  0  0
   -9.0140    1.2250  -24.3500 N   0  0  0  0  0  0  0  0  0  0  0  0
   -8.1790    2.2970  -24.8610 C   0  0  0  0  0  0  0  0  0  0  0  0
   -7.1450    2.7410  -23.8210 C   0  0  0  0  0  0  0  0  0  0  0  0
   -5.9630    2.4580  -23.9350 O   0  0  0  0  0  0  0  0  0  0  0  0
   -7.6240    3.4680  -22.7770 N   0  0  0  0  0  0  0  0  0  0  0  0
   -6.7190    3.7850  -21.6870 C   0  0  0  0  0  0  0  0  0  0  0  0
   -7.2800    4.3120  -20.9120 H   0  0  0  0  0  0  0  0  0  0  0  0
   -5.9150    4.4360  -22.0400 H   0  0  0  0  0  0  0  0  0  0  0  0
   -6.2580    2.8710  -21.2800 H   0  0  0  0  0  0  0  0  0  0  0  0
   -8.6120    3.4230  -22.5690 H   0  0  0  0  0  0  0  0  0  0  0  0
   -8.8440    3.1250  -25.1240 H   0  0  0  0  0  0  0  0  0  0  0  0
   -7.6480    1.9680  -25.7590 H   0  0  0  0  0  0  0  0  0  0  0  0
  -10.2550    1.5560  -23.8880 C   0  0  0  0  0  0  0  0  0  0  0  0
  -10.7000    2.6960  -23.9650 O   0  0  0  0  0  0  0  0  0  0  0  0
  -11.0610    0.4470  -23.2920 C   0  0  0  0  0  0  0  0  0  0  0  0
  -12.4180    0.6720  -23.0670 C   0  0  0  0  0  0  0  0  0  0  0  0
  -13.2060   -0.3170  -22.5140 C   0  0  0  0  0  0  0  0  0  0  0  0
  -12.6180   -1.5350  -22.1650 C   0  0  0  0  0  0  0  0  0  0  0  0
  -13.6060   -2.7760  -21.4370 Cl  0  0  0  0  0  0  0  0  0  0  0  0
  -11.2650   -1.7640  -22.3770 C   0  0  0  0  0  0  0  0  0  0  0  0
  -10.4730   -0.7710  -22.9600 C   0  0  0  0  0  0  0  0  0  0  0  0
  -10.8430   -2.7260  -22.0950 H   0  0  0  0  0  0  0  0  0  0  0  0
  -14.2660   -0.1540  -22.3480 H   0  0  0  0  0  0  0  0  0  0  0  0
  -12.8340    1.6370  -23.3390 H   0  0  0  0  0  0  0  0  0  0  0  0
   -7.4150   -0.0950  -24.3790 H   0  0  0  0  0  0  0  0  0  0  0  0
   -8.8480   -0.6540  -25.2810 H   0  0  0  0  0  0  0  0  0  0  0  0
   -8.7680   -2.0310  -23.3440 H   0  0  0  0  0  0  0  0  0  0  0  0
   -6.6250   -0.8090  -20.1500 C   0  0  0  0  0  0  0  0  0  0  0  0
   -6.9290   -1.0420  -18.8310 C   0  0  0  0  0  0  0  0  0  0  0  0
   -6.2300   -0.5420  -17.7920 N   0  0  0  0  0  0  0  0  0  0  0  0
   -5.1890    0.2050  -18.0750 C   0  0  0  0  0  0  0  0  0  0  0  0
   -4.7570    0.5120  -19.3940 C   0  0  0  0  0  0  0  0  0  0  0  0
   -3.6210    1.3240  -19.6450 C   0  0  0  0  0  0  0  0  0  0  0  0
   -3.2340    1.6140  -20.9250 C   0  0  0  0  0  0  0  0  0  0  0  0
   -3.9640    1.1010  -22.0190 C   0  0  0  0  0  0  0  0  0  0  0  0
   -5.0490    0.2820  -21.8040 C   0  0  0  0  0  0  0  0  0  0  0  0
   -5.4930   -0.0080  -20.4820 C   0  0  0  0  0  0  0  0  0  0  0  0
   -5.5800   -0.1460  -22.6520 H   0  0  0  0  0  0  0  0  0  0  0  0
   -3.6870    1.3800  -23.0300 H   0  0  0  0  0  0  0  0  0  0  0  0
   -2.3720    2.2540  -21.1020 H   0  0  0  0  0  0  0  0  0  0  0  0
   -3.0830    1.7210  -18.7910 H   0  0  0  0  0  0  0  0  0  0  0  0
   -4.6280    0.6090  -17.2340 H   0  0  0  0  0  0  0  0  0  0  0  0
   -7.8020   -1.6480  -18.5870 H   0  0  0  0  0  0  0  0  0  0  0  0
   -8.4720   -3.1440  -21.6290 H   0  0  0  0  0  0  0  0  0  0  0  0
   -7.2530   -3.2380  -20.3040 H   0  0  0  0  0  0  0  0  0  0  0  0
   -7.2520   -3.8880  -23.5060 C   0  0  0  0  0  0  0  0  0  0  0  0
   -8.4920   -3.8690  -23.4440 O   0  0  0  0  0  0  0  0  0  0  0  0
   -6.5280   -4.3050  -24.4360 O   0  5  0  0  0  0  0  0  0  0  0  0
   -4.7240   -3.6410  -23.2530 H   0  0  0  0  0  0  0  0  0  0  0  0
   -4.6260   -2.5880  -21.6850 H   0  0  0  0  0  0  0  0  0  0  0  0
  1  2  2  0  0  0  0
  1 57  1  0  0  0  0
  1 58  1  0  0  0  0
  2  3  1  0  0  0  0
  2 54  1  0  0  0  0
  3  4  1  0  0  0  0
  3 52  1  0  0  0  0
  3 53  1  0  0  0  0
  4  5  1  0  0  0  0
  4 36  1  0  0  0  0
  5  6  2  0  0  0  0
  5  7  1  0  0  0  0
  7  8  1  0  0  0  0
  7 29  1  0  0  0  0
  7 35  1  6  0  0  0
  8  9  1  0  0  0  0
  8 33  1  0  0  0  0
  8 34  1  0  0  0  0
  9 10  1  0  0  0  0
  9 21  1  0  0  0  0
 10 11  1  0  0  0  0
 10 19  1  0  0  0  0
 10 20  1  0  0  0  0
 11 12  2  0  0  0  0
 11 13  1  0  0  0  0
 13 14  1  0  0  0  0
 13 18  1  0  0  0  0
 14 15  1  0  0  0  0
 14 16  1  0  0  0  0
 14 17  1  0  0  0  0
 21 22  2  0  0  0  0
 21 23  1  0  0  0  0
 23 24  2  0  0  0  0
 23 29  1  0  0  0  0
 24 25  1  0  0  0  0
 24 32  1  0  0  0  0
 25 26  2  0  0  0  0
 25 31  1  0  0  0  0
 26 27  1  0  0  0  0
 26 28  1  0  0  0  0
 28 29  2  0  0  0  0
 28 30  1  0  0  0  0
 36 37  2  0  0  0  0
 36 45  1  0  0  0  0
 37 38  1  0  0  0  0
 37 51  1  0  0  0  0
 38 39  2  0  0  0  0
 39 40  1  0  0  0  0
 39 50  1  0  0  0  0
 40 41  2  0  0  0  0
 40 45  1  0  0  0  0
 41 42  1  0  0  0  0
 41 49  1  0  0  0  0
 42 43  2  0  0  0  0
 42 48  1  0  0  0  0
 43 44  1  0  0  0  0
 43 47  1  0  0  0  0
 44 45  2  0  0  0  0
 44 46  1  0  0  0  0
 54 55  2  0  0  0  0
 54 56  1  0  0  0  0
M  CHG  1  56  -1
M  END
>  <MODEL>
       1

$$$$
