output/tmp_first_model_1_13.pdb
 OpenBabel07242613193D

 69 74  0  0  1  0  0  0  0  0999 V2000
   -7.0450    3.1640  -22.0730 C   0  0  0  0  0  0  0  0  0  0  0  0
   -7.6050    2.5810  -23.2750 N   0  0  0  0  0  0  0  0  0  0  0  0
   -6.7810    1.8830  -24.0930 C   0  0  0  0  0  0  0  0  0  0  0  0
   -5.5650    1.9490  -24.0220 O   0  0  0  0  0  0  0  0  0  0  0  0
   -7.4810    0.9890  -25.1220 C   0  0  0  0  0  0  0  0  0  0  0  0
   -8.2050   -0.0800  -24.4510 N   0  0  0  0  0  0  0  0  0  0  0  0
   -7.5300   -1.3070  -24.0710 C   0  0  0  0  0  0  0  0  0  0  0  0
   -8.0850   -1.9710  -22.7550 C   0  0  2  0  0  0  0  0  0  0  0  0
   -7.6650   -1.1450  -21.5320 C   0  0  0  0  0  0  0  0  0  0  0  0
   -8.1810   -0.1290  -21.1120 O   0  0  0  0  0  0  0  0  0  0  0  0
   -6.5670   -1.7510  -20.9680 N   0  0  0  0  0  0  0  0  0  0  0  0
   -5.8950   -1.0640  -19.9370 C   0  0  0  0  0  0  0  0  0  0  0  0
   -6.2310   -1.3240  -18.6370 C   0  0  0  0  0  0  0  0  0  0  0  0
   -5.6960   -0.6920  -17.5680 N   0  0  0  0  0  0  0  0  0  0  0  0
   -4.8080    0.2430  -17.8150 C   0  0  0  0  0  0  0  0  0  0  0  0
   -4.3750    0.6150  -19.1200 C   0  0  0  0  0  0  0  0  0  0  0  0
   -3.3750    1.6010  -19.3340 C   0  0  0  0  0  0  0  0  0  0  0  0
   -2.9870    1.9380  -20.6020 C   0  0  0  0  0  0  0  0  0  0  0  0
   -3.5980    1.3260  -21.7210 C   0  0  0  0  0  0  0  0  0  0  0  0
   -4.5700    0.3710  -21.5420 C   0  0  0  0  0  0  0  0  0  0  0  0
   -4.9550   -0.0360  -20.2320 C   0  0  0  0  0  0  0  0  0  0  0  0
   -5.0600   -0.0650  -22.4080 H   0  0  0  0  0  0  0  0  0  0  0  0
   -3.3180    1.6220  -22.7280 H   0  0  0  0  0  0  0  0  0  0  0  0
   -2.2110    2.6840  -20.7600 H   0  0  0  0  0  0  0  0  0  0  0  0
   -2.9380    2.0820  -18.4630 H   0  0  0  0  0  0  0  0  0  0  0  0
   -4.3910    0.7710  -16.9570 H   0  0  0  0  0  0  0  0  0  0  0  0
   -6.9870   -2.0790  -18.4350 H   0  0  0  0  0  0  0  0  0  0  0  0
   -6.0830   -2.8980  -21.7180 C   0  0  0  0  0  0  0  0  0  0  0  0
   -7.3360   -3.3140  -22.5020 C   0  0  2  0  0  0  0  0  0  0  0  0
   -7.0240   -4.0640  -23.7920 C   0  0  0  0  0  0  0  0  0  0  0  0
   -6.5350   -5.4130  -23.6390 N   0  0  0  0  0  0  0  0  0  0  0  0
   -6.3600   -6.1350  -24.7930 C   0  0  0  0  0  0  0  0  0  0  0  0
   -5.9560   -7.4790  -24.7410 C   0  0  0  0  0  0  0  0  0  0  0  0
   -5.7940   -8.1020  -25.9540 C   0  0  0  0  0  0  0  0  0  0  0  0
   -6.0040   -7.5090  -27.1370 N   0  0  0  0  0  0  0  0  0  0  0  0
   -6.4040   -6.2420  -27.0760 C   0  0  0  0  0  0  0  0  0  0  0  0
   -6.7120   -5.5710  -28.3880 C   0  0  0  0  0  0  0  0  0  0  0  0
   -6.8880   -6.3290  -29.1550 H   0  0  0  0  0  0  0  0  0  0  0  0
   -5.8730   -4.9480  -28.7150 H   0  0  0  0  0  0  0  0  0  0  0  0
   -7.5930   -4.9310  -28.2960 H   0  0  0  0  0  0  0  0  0  0  0  0
   -6.5540   -5.5110  -25.9590 N   0  0  0  0  0  0  0  0  0  0  0  0
   -5.4920   -9.1430  -25.9940 H   0  0  0  0  0  0  0  0  0  0  0  0
   -5.7710   -7.9800  -23.7940 H   0  0  0  0  0  0  0  0  0  0  0  0
   -6.8160   -5.9400  -22.8250 H   0  0  0  0  0  0  0  0  0  0  0  0
   -6.2350   -3.5290  -24.3330 H   0  0  0  0  0  0  0  0  0  0  0  0
   -7.9050   -4.0720  -24.4500 H   0  0  0  0  0  0  0  0  0  0  0  0
   -7.9520   -3.9330  -21.8380 H   0  0  0  0  0  0  0  0  0  0  0  0
   -5.2700   -2.6110  -22.4070 H   0  0  0  0  0  0  0  0  0  0  0  0
   -5.7130   -3.6920  -21.0650 H   0  0  0  0  0  0  0  0  0  0  0  0
   -9.5960   -2.0150  -22.8320 C   0  0  0  0  0  0  0  0  0  0  0  0
  -10.4180   -2.7660  -21.9760 C   0  0  0  0  0  0  0  0  0  0  0  0
  -11.7990   -2.6900  -22.1290 C   0  0  0  0  0  0  0  0  0  0  0  0
  -12.8920   -3.3380  -20.9400 Cl  0  0  0  0  0  0  0  0  0  0  0  0
  -12.3800   -1.9830  -23.1760 C   0  0  0  0  0  0  0  0  0  0  0  0
  -11.5720   -1.1910  -23.9680 C   0  0  0  0  0  0  0  0  0  0  0  0
  -10.2230   -1.1000  -23.6820 C   0  0  0  0  0  0  0  0  0  0  0  0
   -9.5010    0.1260  -24.1300 C   0  0  0  0  0  0  0  0  0  0  0  0
  -10.0190    1.2430  -24.1740 O   0  0  0  0  0  0  0  0  0  0  0  0
  -11.9800   -0.5040  -24.7050 H   0  0  0  0  0  0  0  0  0  0  0  0
  -13.4640   -1.9470  -23.2560 H   0  0  0  0  0  0  0  0  0  0  0  0
  -10.0140   -3.3280  -21.1420 H   0  0  0  0  0  0  0  0  0  0  0  0
   -7.6380   -2.0260  -24.8890 H   0  0  0  0  0  0  0  0  0  0  0  0
   -6.4660   -1.0750  -23.9540 H   0  0  0  0  0  0  0  0  0  0  0  0
   -8.2080    1.5680  -25.7060 H   0  0  0  0  0  0  0  0  0  0  0  0
   -6.7210    0.5860  -25.8020 H   0  0  0  0  0  0  0  0  0  0  0  0
   -8.6050    2.4550  -23.3770 H   0  0  0  0  0  0  0  0  0  0  0  0
   -6.1930    3.7890  -22.3500 H   0  0  0  0  0  0  0  0  0  0  0  0
   -7.7970    3.7780  -21.5730 H   0  0  0  0  0  0  0  0  0  0  0  0
   -6.6870    2.3770  -21.3910 H   0  0  0  0  0  0  0  0  0  0  0  0
  1  2  1  0  0  0  0
  1 67  1  0  0  0  0
  1 68  1  0  0  0  0
  1 69  1  0  0  0  0
  2  3  1  0  0  0  0
  2 66  1  0  0  0  0
  3  4  2  0  0  0  0
  3  5  1  0  0  0  0
  5  6  1  0  0  0  0
  5 64  1  0  0  0  0
  5 65  1  0  0  0  0
  6  7  1  0  0  0  0
  6 57  1  0  0  0  0
  7  8  1  0  0  0  0
  7 62  1  0  0  0  0
  7 63  1  0  0  0  0
  8  9  1  1  0  0  0
  8 29  1  0  0  0  0
  8 50  1  0  0  0  0
  9 10  2  0  0  0  0
  9 11  1  0  0  0  0
 11 12  1  0  0  0  0
 11 28  1  0  0  0  0
 12 13  2  0  0  0  0
 12 21  1  0  0  0  0
 13 14  1  0  0  0  0
 13 27  1  0  0  0  0
 14 15  2  0  0  0  0
 15 16  1  0  0  0  0
 15 26  1  0  0  0  0
 16 17  2  0  0  0  0
 16 21  1  0  0  0  0
 17 18  1  0  0  0  0
 17 25  1  0  0  0  0
 18 19  2  0  0  0  0
 18 24  1  0  0  0  0
 19 20  1  0  0  0  0
 19 23  1  0  0  0  0
 20 21  2  0  0  0  0
 20 22  1  0  0  0  0
 28 29  1  0  0  0  0
 28 48  1  0  0  0  0
 28 49  1  0  0  0  0
 29 30  1  0  0  0  0
 29 47  1  1  0  0  0
 30 31  1  0  0  0  0
 30 45  1  0  0  0  0
 30 46  1  0  0  0  0
 31 32  1  0  0  0  0
 31 44  1  0  0  0  0
 32 33  2  0  0  0  0
 32 41  1  0  0  0  0
 33 34  1  0  0  0  0
 33 43  1  0  0  0  0
 34 35  2  0  0  0  0
 34 42  1  0  0  0  0
 35 36  1  0  0  0  0
 36 37  1  0  0  0  0
 36 41  2  0  0  0  0
 37 38  1  0  0  0  0
 37 39  1  0  0  0  0
 37 40  1  0  0  0  0
 50 51  2  0  0  0  0
 50 56  1  0  0  0  0
 51 52  1  0  0  0  0
 51 61  1  0  0  0  0
 52 53  1  0  0  0  0
 52 54  2  0  0  0  0
 54 55  1  0  0  0  0
 54 60  1  0  0  0  0
 55 56  2  0  0  0  0
 55 59  1  0  0  0  0
 56 57  1  0  0  0  0
 57 58  2  0  0  0  0
M  END
>  <MODEL>
       1

$$$$
