output/tmp_first_model_12_77.pdb
 OpenBabel07242619253D

 55 60  0  0  1  0  0  0  0  0999 V2000
   -8.2230   -4.0470  -23.7100 C   0  0  0  0  0  0  0  0  0  0  0  0
   -8.4790   -3.1790  -22.4790 C   0  0  1  0  0  0  0  0  0  0  0  0
   -7.1760   -2.4790  -22.0370 C   0  0  0  0  0  0  0  0  0  0  0  0
   -7.6480   -1.3520  -21.2590 N   0  0  0  0  0  0  0  0  0  0  0  0
   -6.9120   -0.7470  -20.2130 C   0  0  0  0  0  0  0  0  0  0  0  0
   -7.1870   -1.0650  -18.9080 C   0  0  0  0  0  0  0  0  0  0  0  0
   -6.4350   -0.6690  -17.8530 N   0  0  0  0  0  0  0  0  0  0  0  0
   -5.3890    0.0810  -18.0940 C   0  0  0  0  0  0  0  0  0  0  0  0
   -5.0170    0.5250  -19.3940 C   0  0  0  0  0  0  0  0  0  0  0  0
   -3.8870    1.3560  -19.6090 C   0  0  0  0  0  0  0  0  0  0  0  0
   -3.6050    1.8230  -20.8620 C   0  0  0  0  0  0  0  0  0  0  0  0
   -4.4380    1.4930  -21.9530 C   0  0  0  0  0  0  0  0  0  0  0  0
   -5.5220    0.6670  -21.7740 C   0  0  0  0  0  0  0  0  0  0  0  0
   -5.8220    0.1390  -20.4900 C   0  0  0  0  0  0  0  0  0  0  0  0
   -6.1610    0.4160  -22.6150 H   0  0  0  0  0  0  0  0  0  0  0  0
   -4.2110    1.8880  -22.9390 H   0  0  0  0  0  0  0  0  0  0  0  0
   -2.7460    2.4700  -21.0240 H   0  0  0  0  0  0  0  0  0  0  0  0
   -3.2650    1.6200  -18.7560 H   0  0  0  0  0  0  0  0  0  0  0  0
   -4.7860    0.3830  -17.2370 H   0  0  0  0  0  0  0  0  0  0  0  0
   -8.0410   -1.6960  -18.6760 H   0  0  0  0  0  0  0  0  0  0  0  0
   -8.9730   -1.0520  -21.4820 C   0  0  0  0  0  0  0  0  0  0  0  0
   -9.5650   -0.1390  -20.9530 O   0  0  0  0  0  0  0  0  0  0  0  0
   -9.5110   -2.0130  -22.5840 C   0  0  1  0  0  0  0  0  0  0  0  0
   -9.3820   -1.2420  -23.9180 C   0  0  0  0  0  0  0  0  0  0  0  0
  -10.2720   -0.0920  -23.9310 N   0  0  0  0  0  0  0  0  0  0  0  0
   -9.8270    1.1770  -24.4780 C   0  0  0  0  0  0  0  0  0  0  0  0
   -9.7870    1.2020  -25.9780 C   0  0  0  0  0  0  0  0  0  0  0  0
   -9.1530    0.3720  -26.8350 C   0  0  0  0  0  0  0  0  0  0  0  0
   -9.4610    0.7630  -28.1080 O   0  0  0  0  0  0  0  0  0  0  0  0
  -10.2840    1.8130  -27.9420 C   0  0  0  0  0  0  0  0  0  0  0  0
  -10.5150    2.1320  -26.7150 N   0  0  0  0  0  0  0  0  0  0  0  0
  -10.6490    2.2900  -28.8440 H   0  0  0  0  0  0  0  0  0  0  0  0
   -8.4650   -0.4580  -26.7420 H   0  0  0  0  0  0  0  0  0  0  0  0
  -10.5240    1.9600  -24.1670 H   0  0  0  0  0  0  0  0  0  0  0  0
   -8.8540    1.4120  -24.0230 H   0  0  0  0  0  0  0  0  0  0  0  0
  -11.6120   -0.2630  -23.7230 C   0  0  0  0  0  0  0  0  0  0  0  0
  -12.4520    0.4920  -24.1950 O   0  0  0  0  0  0  0  0  0  0  0  0
  -11.9580   -1.3790  -22.7910 C   0  0  0  0  0  0  0  0  0  0  0  0
  -13.2560   -1.3710  -22.2760 C   0  0  0  0  0  0  0  0  0  0  0  0
  -13.6410   -2.3250  -21.3560 C   0  0  0  0  0  0  0  0  0  0  0  0
  -12.7310   -3.3330  -21.0620 C   0  0  0  0  0  0  0  0  0  0  0  0
  -13.1080   -4.2480  -20.1530 F   0  0  0  0  0  0  0  0  0  0  0  0
  -11.4400   -3.3710  -21.5670 C   0  0  0  0  0  0  0  0  0  0  0  0
  -10.9920   -2.3200  -22.3790 C   0  0  0  0  0  0  0  0  0  0  0  0
  -10.7880   -4.1720  -21.2280 H   0  0  0  0  0  0  0  0  0  0  0  0
  -14.5980   -2.2970  -20.8420 H   0  0  0  0  0  0  0  0  0  0  0  0
  -13.9300   -0.5810  -22.5930 H   0  0  0  0  0  0  0  0  0  0  0  0
   -9.6060   -1.9320  -24.7410 H   0  0  0  0  0  0  0  0  0  0  0  0
   -8.3590   -0.8820  -24.0520 H   0  0  0  0  0  0  0  0  0  0  0  0
   -6.5200   -3.1120  -21.4320 H   0  0  0  0  0  0  0  0  0  0  0  0
   -6.5960   -2.1500  -22.9180 H   0  0  0  0  0  0  0  0  0  0  0  0
   -8.7850   -3.8280  -21.6490 H   0  0  0  0  0  0  0  0  0  0  0  0
   -9.1140   -4.5770  -24.0550 H   0  0  0  0  0  0  0  0  0  0  0  0
   -7.8480   -3.4420  -24.5440 H   0  0  0  0  0  0  0  0  0  0  0  0
   -7.4530   -4.7980  -23.4900 H   0  0  0  0  0  0  0  0  0  0  0  0
  1  2  1  0  0  0  0
  1 53  1  0  0  0  0
  1 54  1  0  0  0  0
  1 55  1  0  0  0  0
  2  3  1  0  0  0  0
  2 23  1  0  0  0  0
  2 52  1  1  0  0  0
  3  4  1  0  0  0  0
  3 50  1  0  0  0  0
  3 51  1  0  0  0  0
  4  5  1  0  0  0  0
  4 21  1  0  0  0  0
  5  6  2  0  0  0  0
  5 14  1  0  0  0  0
  6  7  1  0  0  0  0
  6 20  1  0  0  0  0
  7  8  2  0  0  0  0
  8  9  1  0  0  0  0
  8 19  1  0  0  0  0
  9 10  2  0  0  0  0
  9 14  1  0  0  0  0
 10 11  1  0  0  0  0
 10 18  1  0  0  0  0
 11 12  2  0  0  0  0
 11 17  1  0  0  0  0
 12 13  1  0  0  0  0
 12 16  1  0  0  0  0
 13 14  2  0  0  0  0
 13 15  1  0  0  0  0
 21 22  2  0  0  0  0
 23 21  1  1  0  0  0
 23 24  1  0  0  0  0
 23 44  1  0  0  0  0
 24 25  1  0  0  0  0
 24 48  1  0  0  0  0
 24 49  1  0  0  0  0
 25 26  1  0  0  0  0
 25 36  1  0  0  0  0
 26 27  1  0  0  0  0
 26 34  1  0  0  0  0
 26 35  1  0  0  0  0
 27 28  2  0  0  0  0
 27 31  1  0  0  0  0
 28 29  1  0  0  0  0
 28 33  1  0  0  0  0
 29 30  1  0  0  0  0
 30 31  2  0  0  0  0
 30 32  1  0  0  0  0
 36 37  2  0  0  0  0
 36 38  1  0  0  0  0
 38 39  2  0  0  0  0
 38 44  1  0  0  0  0
 39 40  1  0  0  0  0
 39 47  1  0  0  0  0
 40 41  2  0  0  0  0
 40 46  1  0  0  0  0
 41 42  1  0  0  0  0
 41 43  1  0  0  0  0
 43 44  2  0  0  0  0
 43 45  1  0  0  0  0
M  END
>  <MODEL>
       1

$$$$
