output/tmp_first_model_15_1.pdb
 OpenBabel07242621043D

 68 73  0  0  1  0  0  0  0  0999 V2000
   -7.3020    3.4700  -21.9860 C   0  0  0  0  0  0  0  0  0  0  0  0
   -8.2970    2.9240  -22.8920 N   0  0  0  0  0  0  0  0  0  0  0  0
   -7.8890    2.2250  -23.9850 C   0  0  0  0  0  0  0  0  0  0  0  0
   -6.7120    2.0670  -24.2680 O   0  0  0  0  0  0  0  0  0  0  0  0
   -9.0100    1.6460  -24.8550 C   0  0  0  0  0  0  0  0  0  0  0  0
   -9.6130    0.4760  -24.2370 N   0  0  0  0  0  0  0  0  0  0  0  0
   -8.7740   -0.6960  -24.0590 C   0  0  0  0  0  0  0  0  0  0  0  0
   -9.1120   -1.4840  -22.7590 C   0  0  2  0  0  0  0  0  0  0  0  0
   -8.6160   -0.6720  -21.5400 C   0  0  0  0  0  0  0  0  0  0  0  0
   -9.1260    0.3220  -21.0670 O   0  0  0  0  0  0  0  0  0  0  0  0
   -7.4490   -1.2440  -21.0860 N   0  0  0  0  0  0  0  0  0  0  0  0
   -6.6550   -0.6790  -20.0690 C   0  0  0  0  0  0  0  0  0  0  0  0
   -6.9380   -0.9500  -18.7580 C   0  0  0  0  0  0  0  0  0  0  0  0
   -6.2000   -0.4970  -17.7170 N   0  0  0  0  0  0  0  0  0  0  0  0
   -5.1530    0.2440  -17.9990 C   0  0  0  0  0  0  0  0  0  0  0  0
   -4.7380    0.5810  -19.3220 C   0  0  0  0  0  0  0  0  0  0  0  0
   -3.5970    1.3850  -19.5900 C   0  0  0  0  0  0  0  0  0  0  0  0
   -3.2340    1.6750  -20.8780 C   0  0  0  0  0  0  0  0  0  0  0  0
   -3.9930    1.1830  -21.9650 C   0  0  0  0  0  0  0  0  0  0  0  0
   -5.1080    0.4150  -21.7330 C   0  0  0  0  0  0  0  0  0  0  0  0
   -5.5050    0.0960  -20.4030 C   0  0  0  0  0  0  0  0  0  0  0  0
   -5.7010    0.0670  -22.5740 H   0  0  0  0  0  0  0  0  0  0  0  0
   -3.7080    1.4210  -22.9860 H   0  0  0  0  0  0  0  0  0  0  0  0
   -2.3690    2.3010  -21.0760 H   0  0  0  0  0  0  0  0  0  0  0  0
   -3.0380    1.7790  -18.7460 H   0  0  0  0  0  0  0  0  0  0  0  0
   -4.5670    0.6160  -17.1580 H   0  0  0  0  0  0  0  0  0  0  0  0
   -7.7970   -1.5730  -18.5120 H   0  0  0  0  0  0  0  0  0  0  0  0
   -6.9980   -2.3860  -21.8390 C   0  0  0  0  0  0  0  0  0  0  0  0
   -8.2510   -2.7820  -22.6200 C   0  0  2  0  0  0  0  0  0  0  0  0
   -7.8980   -3.5040  -23.9030 C   0  0  0  0  0  0  0  0  0  0  0  0
   -9.0980   -4.0300  -24.5000 N   0  0  0  0  0  0  0  0  0  0  0  0
   -8.9680   -4.5280  -25.7910 C   0  0  0  0  0  0  0  0  0  0  0  0
   -7.7760   -4.8030  -26.5110 C   0  0  0  0  0  0  0  0  0  0  0  0
   -8.0410   -5.3180  -27.7050 N   0  0  0  0  0  0  0  0  0  0  0  0
   -9.3680   -5.3730  -27.7610 N   0  0  0  0  0  0  0  0  0  0  0  0
  -10.0400   -5.9030  -28.9110 C   0  0  0  0  0  0  0  0  0  0  0  0
  -10.8140   -5.1850  -29.1920 H   0  0  0  0  0  0  0  0  0  0  0  0
  -10.5030   -6.8740  -28.6940 H   0  0  0  0  0  0  0  0  0  0  0  0
   -9.2940   -6.0120  -29.6980 H   0  0  0  0  0  0  0  0  0  0  0  0
   -9.9830   -4.9210  -26.6400 C   0  0  0  0  0  0  0  0  0  0  0  0
  -11.0700   -4.9240  -26.5680 H   0  0  0  0  0  0  0  0  0  0  0  0
   -6.7430   -4.6530  -26.2150 H   0  0  0  0  0  0  0  0  0  0  0  0
   -9.9140   -3.4400  -24.3780 H   0  0  0  0  0  0  0  0  0  0  0  0
   -7.3600   -2.8200  -24.5900 H   0  0  0  0  0  0  0  0  0  0  0  0
   -7.2180   -4.3400  -23.6990 H   0  0  0  0  0  0  0  0  0  0  0  0
   -8.8210   -3.4760  -21.9950 H   0  0  0  0  0  0  0  0  0  0  0  0
   -6.1480   -2.1390  -22.4990 H   0  0  0  0  0  0  0  0  0  0  0  0
   -6.6530   -3.1750  -21.1610 H   0  0  0  0  0  0  0  0  0  0  0  0
  -10.6200   -1.6780  -22.6960 C   0  0  0  0  0  0  0  0  0  0  0  0
  -11.1990   -2.6850  -21.9090 C   0  0  0  0  0  0  0  0  0  0  0  0
  -12.5750   -2.7750  -21.7890 C   0  0  0  0  0  0  0  0  0  0  0  0
  -13.2680   -4.0120  -20.7840 Cl  0  0  0  0  0  0  0  0  0  0  0  0
  -13.4310   -1.8850  -22.4330 C   0  0  0  0  0  0  0  0  0  0  0  0
  -12.8710   -0.8820  -23.1950 C   0  0  0  0  0  0  0  0  0  0  0  0
  -11.4870   -0.7650  -23.3200 C   0  0  0  0  0  0  0  0  0  0  0  0
  -10.9720    0.4150  -24.0920 C   0  0  0  0  0  0  0  0  0  0  0  0
  -11.7220    1.2770  -24.5340 O   0  0  0  0  0  0  0  0  0  0  0  0
  -13.4860   -0.1490  -23.7030 H   0  0  0  0  0  0  0  0  0  0  0  0
  -14.5060   -1.9750  -22.3170 H   0  0  0  0  0  0  0  0  0  0  0  0
  -10.5970   -3.3980  -21.3570 H   0  0  0  0  0  0  0  0  0  0  0  0
   -7.7410   -0.3420  -24.0130 H   0  0  0  0  0  0  0  0  0  0  0  0
   -8.8700   -1.3450  -24.9410 H   0  0  0  0  0  0  0  0  0  0  0  0
   -9.8200    2.3660  -25.0040 H   0  0  0  0  0  0  0  0  0  0  0  0
   -8.5600    1.4060  -25.8280 H   0  0  0  0  0  0  0  0  0  0  0  0
   -9.2390    2.8030  -22.5490 H   0  0  0  0  0  0  0  0  0  0  0  0
   -6.5610    4.0120  -22.5780 H   0  0  0  0  0  0  0  0  0  0  0  0
   -7.7930    4.1660  -21.3000 H   0  0  0  0  0  0  0  0  0  0  0  0
   -6.7800    2.6830  -21.4200 H   0  0  0  0  0  0  0  0  0  0  0  0
  1  2  1  0  0  0  0
  1 66  1  0  0  0  0
  1 67  1  0  0  0  0
  1 68  1  0  0  0  0
  2  3  1  0  0  0  0
  2 65  1  0  0  0  0
  3  4  2  0  0  0  0
  3  5  1  0  0  0  0
  5  6  1  0  0  0  0
  5 63  1  0  0  0  0
  5 64  1  0  0  0  0
  6  7  1  0  0  0  0
  6 56  1  0  0  0  0
  7  8  1  0  0  0  0
  7 61  1  0  0  0  0
  7 62  1  0  0  0  0
  8  9  1  1  0  0  0
  8 29  1  0  0  0  0
  8 49  1  0  0  0  0
  9 10  2  0  0  0  0
  9 11  1  0  0  0  0
 11 12  1  0  0  0  0
 11 28  1  0  0  0  0
 12 13  2  0  0  0  0
 12 21  1  0  0  0  0
 13 14  1  0  0  0  0
 13 27  1  0  0  0  0
 14 15  2  0  0  0  0
 15 16  1  0  0  0  0
 15 26  1  0  0  0  0
 16 17  2  0  0  0  0
 16 21  1  0  0  0  0
 17 18  1  0  0  0  0
 17 25  1  0  0  0  0
 18 19  2  0  0  0  0
 18 24  1  0  0  0  0
 19 20  1  0  0  0  0
 19 23  1  0  0  0  0
 20 21  2  0  0  0  0
 20 22  1  0  0  0  0
 28 29  1  0  0  0  0
 28 47  1  0  0  0  0
 28 48  1  0  0  0  0
 29 30  1  0  0  0  0
 29 46  1  1  0  0  0
 30 31  1  0  0  0  0
 30 44  1  0  0  0  0
 30 45  1  0  0  0  0
 31 32  1  0  0  0  0
 31 43  1  0  0  0  0
 32 33  1  0  0  0  0
 32 40  2  0  0  0  0
 33 34  2  0  0  0  0
 33 42  1  0  0  0  0
 34 35  1  0  0  0  0
 35 36  1  0  0  0  0
 35 40  1  0  0  0  0
 36 37  1  0  0  0  0
 36 38  1  0  0  0  0
 36 39  1  0  0  0  0
 40 41  1  0  0  0  0
 49 50  2  0  0  0  0
 49 55  1  0  0  0  0
 50 51  1  0  0  0  0
 50 60  1  0  0  0  0
 51 52  1  0  0  0  0
 51 53  2  0  0  0  0
 53 54  1  0  0  0  0
 53 59  1  0  0  0  0
 54 55  2  0  0  0  0
 54 58  1  0  0  0  0
 55 56  1  0  0  0  0
 56 57  2  0  0  0  0
M  END
>  <MODEL>
       1

$$$$
