output/tmp_first_model_3_14.pdb
 OpenBabel07242614263D

 73 78  0  0  1  0  0  0  0  0999 V2000
   -6.7850   -2.9010  -24.1240 C   0  0  0  0  0  0  0  0  0  0  0  0
   -7.8720   -2.7510  -23.0470 C   0  0  1  0  0  0  0  0  0  0  0  0
   -7.2210   -2.6730  -21.6360 C   0  0  0  0  0  0  0  0  0  0  0  0
   -7.5060   -1.3290  -21.1650 N   0  0  0  0  0  0  0  0  0  0  0  0
   -6.6890   -0.7520  -20.1430 C   0  0  0  0  0  0  0  0  0  0  0  0
   -6.9770   -1.0130  -18.8270 C   0  0  0  0  0  0  0  0  0  0  0  0
   -6.2720   -0.5370  -17.7730 N   0  0  0  0  0  0  0  0  0  0  0  0
   -5.2050    0.1810  -18.0380 C   0  0  0  0  0  0  0  0  0  0  0  0
   -4.7410    0.4610  -19.3500 C   0  0  0  0  0  0  0  0  0  0  0  0
   -3.5380    1.1830  -19.5730 C   0  0  0  0  0  0  0  0  0  0  0  0
   -3.1050    1.4390  -20.8480 C   0  0  0  0  0  0  0  0  0  0  0  0
   -3.8650    0.9930  -21.9500 C   0  0  0  0  0  0  0  0  0  0  0  0
   -5.0230    0.2790  -21.7590 C   0  0  0  0  0  0  0  0  0  0  0  0
   -5.5010   -0.0070  -20.4470 C   0  0  0  0  0  0  0  0  0  0  0  0
   -5.6020   -0.0520  -22.6150 H   0  0  0  0  0  0  0  0  0  0  0  0
   -3.5350    1.2410  -22.9560 H   0  0  0  0  0  0  0  0  0  0  0  0
   -2.2220    2.0470  -21.0130 H   0  0  0  0  0  0  0  0  0  0  0  0
   -2.9820    1.5380  -18.7110 H   0  0  0  0  0  0  0  0  0  0  0  0
   -4.6400    0.5670  -17.1910 H   0  0  0  0  0  0  0  0  0  0  0  0
   -7.8410   -1.6280  -18.5840 H   0  0  0  0  0  0  0  0  0  0  0  0
   -8.1830   -0.5720  -22.0880 C   0  0  0  0  0  0  0  0  0  0  0  0
   -8.2280    0.6440  -22.0770 O   0  0  0  0  0  0  0  0  0  0  0  0
   -8.7710   -1.4620  -23.1980 C   0  0  1  0  0  0  0  0  0  0  0  0
   -8.6170   -0.7410  -24.5810 C   0  0  0  0  0  0  0  0  0  0  0  0
   -9.6550    0.2430  -24.8600 N   0  0  0  0  0  0  0  0  0  0  0  0
   -9.3910    1.5440  -25.4580 C   0  0  0  0  0  0  0  0  0  0  0  0
   -9.4100    2.6740  -24.4170 C   0  0  0  0  0  0  0  0  0  0  0  0
   -8.0970    2.7620  -23.7110 N   0  3  0  0  0  0  0  0  0  0  0  0
   -8.1110    3.5070  -22.4190 C   0  0  0  0  0  0  0  0  0  0  0  0
   -6.7160    3.5790  -21.7960 C   0  0  0  0  0  0  0  0  0  0  0  0
   -5.7260    4.0810  -22.7600 N   0  0  0  0  0  0  0  0  0  0  0  0
   -4.3720    4.8590  -22.1930 S   0  0  0  0  0  0  0  0  0  0  0  0
   -3.4430    4.9370  -23.3080 O   0  0  0  0  0  0  0  0  0  0  0  0
   -3.9920    4.2360  -20.9410 O   0  0  0  0  0  0  0  0  0  0  0  0
   -4.8830    6.5360  -21.8260 C   0  0  0  0  0  0  0  0  0  0  0  0
   -4.0680    6.9980  -21.2600 H   0  0  0  0  0  0  0  0  0  0  0  0
   -5.7960    6.5510  -21.2230 H   0  0  0  0  0  0  0  0  0  0  0  0
   -5.0290    7.0780  -22.7640 H   0  0  0  0  0  0  0  0  0  0  0  0
   -6.2780    4.4650  -24.0570 C   0  0  0  0  0  0  0  0  0  0  0  0
   -7.0290    3.2720  -24.6420 C   0  0  0  0  0  0  0  0  0  0  0  0
   -6.3440    2.4490  -24.8830 H   0  0  0  0  0  0  0  0  0  0  0  0
   -7.5210    3.5860  -25.5650 H   0  0  0  0  0  0  0  0  0  0  0  0
   -6.9660    5.3220  -23.9510 H   0  0  0  0  0  0  0  0  0  0  0  0
   -5.4580    4.7400  -24.7220 H   0  0  0  0  0  0  0  0  0  0  0  0
   -6.7470    4.2320  -20.9190 H   0  0  0  0  0  0  0  0  0  0  0  0
   -6.3830    2.5860  -21.4610 H   0  0  0  0  0  0  0  0  0  0  0  0
   -8.5290    4.5080  -22.5680 H   0  0  0  0  0  0  0  0  0  0  0  0
   -8.7860    2.9810  -21.7520 H   0  0  0  0  0  0  0  0  0  0  0  0
   -7.8970    1.7950  -23.4190 H   0  0  0  0  0  0  0  0  0  0  0  0
  -10.2090    2.4960  -23.6860 H   0  0  0  0  0  0  0  0  0  0  0  0
   -9.6210    3.6350  -24.9010 H   0  0  0  0  0  0  0  0  0  0  0  0
  -10.1920    1.7040  -26.1830 H   0  0  0  0  0  0  0  0  0  0  0  0
   -8.4320    1.5060  -25.9890 H   0  0  0  0  0  0  0  0  0  0  0  0
  -10.9700   -0.0800  -24.7180 C   0  0  0  0  0  0  0  0  0  0  0  0
  -11.8730    0.5650  -25.2390 O   0  0  0  0  0  0  0  0  0  0  0  0
  -11.2330   -1.2610  -23.8550 C   0  0  0  0  0  0  0  0  0  0  0  0
  -12.4990   -1.8280  -23.9420 C   0  0  0  0  0  0  0  0  0  0  0  0
  -12.8940   -2.7590  -23.0180 C   0  0  0  0  0  0  0  0  0  0  0  0
  -12.0370   -3.0600  -21.9640 C   0  0  0  0  0  0  0  0  0  0  0  0
  -12.7300   -3.9920  -20.6660 Cl  0  0  0  0  0  0  0  0  0  0  0  0
  -10.7140   -2.6340  -21.9630 C   0  0  0  0  0  0  0  0  0  0  0  0
  -10.2600   -1.7720  -22.9820 C   0  0  0  0  0  0  0  0  0  0  0  0
  -10.0480   -3.0170  -21.1940 H   0  0  0  0  0  0  0  0  0  0  0  0
  -13.8640   -3.2350  -23.0800 H   0  0  0  0  0  0  0  0  0  0  0  0
  -13.1670   -1.5260  -24.7430 H   0  0  0  0  0  0  0  0  0  0  0  0
   -8.6330   -1.4910  -25.3830 H   0  0  0  0  0  0  0  0  0  0  0  0
   -7.6560   -0.2260  -24.6220 H   0  0  0  0  0  0  0  0  0  0  0  0
   -6.1290   -2.8080  -21.6790 H   0  0  0  0  0  0  0  0  0  0  0  0
   -7.6050   -3.4260  -20.9360 H   0  0  0  0  0  0  0  0  0  0  0  0
   -8.5130   -3.6400  -23.1090 H   0  0  0  0  0  0  0  0  0  0  0  0
   -7.2170   -3.0180  -25.1200 H   0  0  0  0  0  0  0  0  0  0  0  0
   -6.1760   -3.7920  -23.9370 H   0  0  0  0  0  0  0  0  0  0  0  0
   -6.1060   -2.0390  -24.1510 H   0  0  0  0  0  0  0  0  0  0  0  0
  1  2  1  0  0  0  0
  1 71  1  0  0  0  0
  1 72  1  0  0  0  0
  1 73  1  0  0  0  0
  2  3  1  0  0  0  0
  2 23  1  0  0  0  0
  2 70  1  6  0  0  0
  3  4  1  0  0  0  0
  3 68  1  0  0  0  0
  3 69  1  0  0  0  0
  4  5  1  0  0  0  0
  4 21  1  0  0  0  0
  5  6  2  0  0  0  0
  5 14  1  0  0  0  0
  6  7  1  0  0  0  0
  6 20  1  0  0  0  0
  7  8  2  0  0  0  0
  8  9  1  0  0  0  0
  8 19  1  0  0  0  0
  9 10  2  0  0  0  0
  9 14  1  0  0  0  0
 10 11  1  0  0  0  0
 10 18  1  0  0  0  0
 11 12  2  0  0  0  0
 11 17  1  0  0  0  0
 12 13  1  0  0  0  0
 12 16  1  0  0  0  0
 13 14  2  0  0  0  0
 13 15  1  0  0  0  0
 21 22  2  0  0  0  0
 23 21  1  1  0  0  0
 23 24  1  0  0  0  0
 23 62  1  0  0  0  0
 24 25  1  0  0  0  0
 24 66  1  0  0  0  0
 24 67  1  0  0  0  0
 25 26  1  0  0  0  0
 25 54  1  0  0  0  0
 26 27  1  0  0  0  0
 26 52  1  0  0  0  0
 26 53  1  0  0  0  0
 27 28  1  0  0  0  0
 27 50  1  0  0  0  0
 27 51  1  0  0  0  0
 28 29  1  0  0  0  0
 28 40  1  0  0  0  0
 28 49  1  0  0  0  0
 29 30  1  0  0  0  0
 29 47  1  0  0  0  0
 29 48  1  0  0  0  0
 30 31  1  0  0  0  0
 30 45  1  0  0  0  0
 30 46  1  0  0  0  0
 31 32  1  0  0  0  0
 31 39  1  0  0  0  0
 32 33  2  0  0  0  0
 32 34  2  0  0  0  0
 32 35  1  0  0  0  0
 35 36  1  0  0  0  0
 35 37  1  0  0  0  0
 35 38  1  0  0  0  0
 39 40  1  0  0  0  0
 39 43  1  0  0  0  0
 39 44  1  0  0  0  0
 40 41  1  0  0  0  0
 40 42  1  0  0  0  0
 54 55  2  0  0  0  0
 54 56  1  0  0  0  0
 56 57  2  0  0  0  0
 56 62  1  0  0  0  0
 57 58  1  0  0  0  0
 57 65  1  0  0  0  0
 58 59  2  0  0  0  0
 58 64  1  0  0  0  0
 59 60  1  0  0  0  0
 59 61  1  0  0  0  0
 61 62  2  0  0  0  0
 61 63  1  0  0  0  0
M  CHG  1  28   1
M  END
>  <MODEL>
       1

$$$$
