output/tmp_first_model_15_25.pdb
 OpenBabel07242621043D

 70 75  0  0  1  0  0  0  0  0999 V2000
   -8.0890   -6.9290  -23.9770 O   0  0  0  0  0  0  0  0  0  0  0  0
   -7.9870   -6.2300  -22.9870 C   0  0  0  0  0  0  0  0  0  0  0  0
   -9.0560   -5.2260  -22.5720 C   0  0  0  0  0  0  0  0  0  0  0  0
   -8.6950   -3.8260  -22.9050 N   0  3  1  0  0  0  0  0  0  0  0  0
   -8.3930   -3.6780  -24.3950 C   0  0  0  0  0  0  0  0  0  0  0  0
   -8.0950   -2.2410  -24.7320 C   0  0  0  0  0  0  0  0  0  0  0  0
   -7.3150   -1.9210  -25.8430 C   0  0  0  0  0  0  0  0  0  0  0  0
   -7.0360   -0.6000  -26.1690 C   0  0  0  0  0  0  0  0  0  0  0  0
   -7.5520    0.4180  -25.3710 C   0  0  0  0  0  0  0  0  0  0  0  0
   -7.2080    2.0820  -25.7490 Cl  0  0  0  0  0  0  0  0  0  0  0  0
   -8.3260    0.1220  -24.2620 C   0  0  0  0  0  0  0  0  0  0  0  0
   -8.6090   -1.2090  -23.9520 C   0  0  0  0  0  0  0  0  0  0  0  0
   -9.4050   -1.4490  -22.7020 C   0  0  2  0  0  0  0  0  0  0  0  0
   -8.6620   -0.9110  -21.4870 C   0  0  0  0  0  0  0  0  0  0  0  0
   -9.1550   -0.0680  -20.7640 O   0  0  0  0  0  0  0  0  0  0  0  0
   -7.4200   -1.4600  -21.2350 N   0  0  0  0  0  0  0  0  0  0  0  0
   -6.6100   -0.8990  -20.2120 C   0  0  0  0  0  0  0  0  0  0  0  0
   -6.9420   -1.1060  -18.8980 C   0  0  0  0  0  0  0  0  0  0  0  0
   -6.2580   -0.6040  -17.8420 N   0  0  0  0  0  0  0  0  0  0  0  0
   -5.2210    0.1540  -18.1080 C   0  0  0  0  0  0  0  0  0  0  0  0
   -4.7670    0.4580  -19.4210 C   0  0  0  0  0  0  0  0  0  0  0  0
   -3.6550    1.3110  -19.6380 C   0  0  0  0  0  0  0  0  0  0  0  0
   -3.2670    1.6230  -20.9120 C   0  0  0  0  0  0  0  0  0  0  0  0
   -3.9780    1.1030  -22.0200 C   0  0  0  0  0  0  0  0  0  0  0  0
   -5.0580    0.2740  -21.8330 C   0  0  0  0  0  0  0  0  0  0  0  0
   -5.4750   -0.0790  -20.5200 C   0  0  0  0  0  0  0  0  0  0  0  0
   -5.6110   -0.0930  -22.6950 H   0  0  0  0  0  0  0  0  0  0  0  0
   -3.6720    1.3780  -23.0260 H   0  0  0  0  0  0  0  0  0  0  0  0
   -2.4240    2.2880  -21.0810 H   0  0  0  0  0  0  0  0  0  0  0  0
   -3.1470    1.7280  -18.7700 H   0  0  0  0  0  0  0  0  0  0  0  0
   -4.6810    0.5740  -17.2600 H   0  0  0  0  0  0  0  0  0  0  0  0
   -7.8110   -1.7090  -18.6550 H   0  0  0  0  0  0  0  0  0  0  0  0
   -6.9590   -1.9140  -22.0080 H   0  0  0  0  0  0  0  0  0  0  0  0
   -9.8240   -2.8990  -22.5190 C   0  0  0  0  0  0  0  0  0  0  0  0
  -10.1140   -3.0980  -21.4830 H   0  0  0  0  0  0  0  0  0  0  0  0
  -10.6770   -3.1230  -23.1740 H   0  0  0  0  0  0  0  0  0  0  0  0
  -10.3140   -0.8510  -22.7260 H   0  0  0  0  0  0  0  0  0  0  0  0
   -8.7200    0.9190  -23.6360 H   0  0  0  0  0  0  0  0  0  0  0  0
   -6.4230   -0.3640  -27.0330 H   0  0  0  0  0  0  0  0  0  0  0  0
   -6.9250   -2.7230  -26.4660 H   0  0  0  0  0  0  0  0  0  0  0  0
   -9.2660   -4.0510  -24.9460 H   0  0  0  0  0  0  0  0  0  0  0  0
   -7.5500   -4.3250  -24.6370 H   0  0  0  0  0  0  0  0  0  0  0  0
   -7.8370   -3.5930  -22.3610 H   0  0  0  0  0  0  0  0  0  0  0  0
   -9.9820   -5.4970  -23.0860 H   0  0  0  0  0  0  0  0  0  0  0  0
   -9.2230   -5.2800  -21.4900 H   0  0  0  0  0  0  0  0  0  0  0  0
   -6.9040   -6.2470  -22.1520 N   0  0  0  0  0  0  0  0  0  0  0  0
   -5.7210   -6.9530  -22.4370 C   0  0  0  0  0  0  0  0  0  0  0  0
   -4.9560   -7.4400  -21.3820 C   0  0  0  0  0  0  0  0  0  0  0  0
   -3.7490   -8.0470  -21.6690 C   0  0  0  0  0  0  0  0  0  0  0  0
   -3.2760   -8.1570  -22.9720 C   0  0  0  0  0  0  0  0  0  0  0  0
   -2.0460   -8.8100  -23.2160 N   0  0  0  0  0  0  0  0  0  0  0  0
   -1.0350   -8.7900  -22.1640 C   0  0  0  0  0  0  0  0  0  0  0  0
    0.3010   -9.1740  -22.7650 C   0  0  0  0  0  0  0  0  0  0  0  0
    0.1990  -10.4740  -23.3110 O   0  0  0  0  0  0  0  0  0  0  0  0
   -0.6760  -10.5010  -24.4100 C   0  0  0  0  0  0  0  0  0  0  0  0
   -1.9710   -9.7160  -24.2490 C   0  0  0  0  0  0  0  0  0  0  0  0
   -2.8770   -9.9220  -25.0350 O   0  0  0  0  0  0  0  0  0  0  0  0
   -0.9930  -11.5340  -24.5720 H   0  0  0  0  0  0  0  0  0  0  0  0
   -0.1990  -10.1430  -25.3390 H   0  0  0  0  0  0  0  0  0  0  0  0
    1.0760   -9.2050  -21.9970 H   0  0  0  0  0  0  0  0  0  0  0  0
    0.5870   -8.4390  -23.5330 H   0  0  0  0  0  0  0  0  0  0  0  0
   -1.0020   -7.7940  -21.7180 H   0  0  0  0  0  0  0  0  0  0  0  0
   -1.2790   -9.4970  -21.3610 H   0  0  0  0  0  0  0  0  0  0  0  0
   -4.0560   -7.6830  -24.0210 C   0  0  0  0  0  0  0  0  0  0  0  0
   -5.2810   -7.1060  -23.7540 C   0  0  0  0  0  0  0  0  0  0  0  0
   -5.9130   -6.8010  -24.5790 H   0  0  0  0  0  0  0  0  0  0  0  0
   -3.7160   -7.7670  -25.0460 H   0  0  0  0  0  0  0  0  0  0  0  0
   -3.1900   -8.5290  -20.8700 H   0  0  0  0  0  0  0  0  0  0  0  0
   -5.2890   -7.3480  -20.3490 H   0  0  0  0  0  0  0  0  0  0  0  0
   -6.9440   -5.7360  -21.2810 H   0  0  0  0  0  0  0  0  0  0  0  0
  1  2  2  0  0  0  0
  2  3  1  0  0  0  0
  2 46  1  0  0  0  0
  3  4  1  0  0  0  0
  3 44  1  0  0  0  0
  3 45  1  0  0  0  0
  4  5  1  0  0  0  0
  4 34  1  0  0  0  0
  4 43  1  1  0  0  0
  5  6  1  0  0  0  0
  5 41  1  0  0  0  0
  5 42  1  0  0  0  0
  6  7  2  0  0  0  0
  6 12  1  0  0  0  0
  7  8  1  0  0  0  0
  7 40  1  0  0  0  0
  8  9  2  0  0  0  0
  8 39  1  0  0  0  0
  9 10  1  0  0  0  0
  9 11  1  0  0  0  0
 11 12  2  0  0  0  0
 11 38  1  0  0  0  0
 12 13  1  0  0  0  0
 13 14  1  0  0  0  0
 13 34  1  0  0  0  0
 13 37  1  6  0  0  0
 14 15  2  0  0  0  0
 14 16  1  0  0  0  0
 16 17  1  0  0  0  0
 16 33  1  0  0  0  0
 17 18  2  0  0  0  0
 17 26  1  0  0  0  0
 18 19  1  0  0  0  0
 18 32  1  0  0  0  0
 19 20  2  0  0  0  0
 20 21  1  0  0  0  0
 20 31  1  0  0  0  0
 21 22  2  0  0  0  0
 21 26  1  0  0  0  0
 22 23  1  0  0  0  0
 22 30  1  0  0  0  0
 23 24  2  0  0  0  0
 23 29  1  0  0  0  0
 24 25  1  0  0  0  0
 24 28  1  0  0  0  0
 25 26  2  0  0  0  0
 25 27  1  0  0  0  0
 34 35  1  0  0  0  0
 34 36  1  0  0  0  0
 46 47  1  0  0  0  0
 46 70  1  0  0  0  0
 47 48  2  0  0  0  0
 47 65  1  0  0  0  0
 48 49  1  0  0  0  0
 48 69  1  0  0  0  0
 49 50  2  0  0  0  0
 49 68  1  0  0  0  0
 50 51  1  0  0  0  0
 50 64  1  0  0  0  0
 51 52  1  0  0  0  0
 51 56  1  0  0  0  0
 52 53  1  0  0  0  0
 52 62  1  0  0  0  0
 52 63  1  0  0  0  0
 53 54  1  0  0  0  0
 53 60  1  0  0  0  0
 53 61  1  0  0  0  0
 54 55  1  0  0  0  0
 55 56  1  0  0  0  0
 55 58  1  0  0  0  0
 55 59  1  0  0  0  0
 56 57  2  0  0  0  0
 64 65  2  0  0  0  0
 64 67  1  0  0  0  0
 65 66  1  0  0  0  0
M  CHG  1   4   1
M  END
>  <MODEL>
       1

$$$$
