output/tmp_first_model_1_56.pdb
 OpenBabel07242613193D

 57 62  0  0  1  0  0  0  0  0999 V2000
   -6.4940   -3.8900  -23.8570 C   0  0  0  0  0  0  0  0  0  0  0  0
   -6.8670   -3.1320  -22.5940 C   0  0  1  0  0  0  0  0  0  0  0  0
   -5.6680   -2.7110  -21.7450 C   0  0  0  0  0  0  0  0  0  0  0  0
   -6.2930   -1.7500  -20.8550 N   0  0  0  0  0  0  0  0  0  0  0  0
   -5.6230   -1.0790  -19.8150 C   0  0  0  0  0  0  0  0  0  0  0  0
   -5.9060   -1.4030  -18.5180 C   0  0  0  0  0  0  0  0  0  0  0  0
   -5.4340   -0.7220  -17.4520 N   0  0  0  0  0  0  0  0  0  0  0  0
   -4.6420    0.2950  -17.7040 C   0  0  0  0  0  0  0  0  0  0  0  0
   -4.2010    0.6720  -19.0070 C   0  0  0  0  0  0  0  0  0  0  0  0
   -3.2510    1.7040  -19.2260 C   0  0  0  0  0  0  0  0  0  0  0  0
   -2.8350    2.0210  -20.4890 C   0  0  0  0  0  0  0  0  0  0  0  0
   -3.3660    1.3380  -21.6040 C   0  0  0  0  0  0  0  0  0  0  0  0
   -4.2950    0.3450  -21.4240 C   0  0  0  0  0  0  0  0  0  0  0  0
   -4.7200   -0.0240  -20.1160 C   0  0  0  0  0  0  0  0  0  0  0  0
   -4.6950   -0.1430  -22.3040 H   0  0  0  0  0  0  0  0  0  0  0  0
   -3.0500    1.5990  -22.6100 H   0  0  0  0  0  0  0  0  0  0  0  0
   -2.0980    2.8010  -20.6460 H   0  0  0  0  0  0  0  0  0  0  0  0
   -2.8480    2.2040  -18.3540 H   0  0  0  0  0  0  0  0  0  0  0  0
   -4.3020    0.8700  -16.8450 H   0  0  0  0  0  0  0  0  0  0  0  0
   -6.5680   -2.2420  -18.3170 H   0  0  0  0  0  0  0  0  0  0  0  0
   -7.3850   -1.1140  -21.4220 C   0  0  0  0  0  0  0  0  0  0  0  0
   -7.9420   -0.1540  -20.9390 O   0  0  0  0  0  0  0  0  0  0  0  0
   -7.6870   -1.8100  -22.7640 C   0  0  1  0  0  0  0  0  0  0  0  0
   -7.1230   -0.9340  -23.9250 C   0  0  0  0  0  0  0  0  0  0  0  0
   -8.0050    0.1330  -24.3720 N   0  0  0  0  0  0  0  0  0  0  0  0
   -7.4010    1.3330  -24.9550 C   0  0  0  0  0  0  0  0  0  0  0  0
   -7.2260    2.4920  -23.9900 C   0  0  0  0  0  0  0  0  0  0  0  0
   -6.6770    2.1990  -22.8030 N   0  0  0  0  0  0  0  0  0  0  0  0
   -6.4960    3.2350  -21.9780 C   0  0  0  0  0  0  0  0  0  0  0  0
   -6.8740    4.5290  -22.3020 C   0  0  0  0  0  0  0  0  0  0  0  0
   -7.4430    4.7180  -23.5540 C   0  0  0  0  0  0  0  0  0  0  0  0
   -7.5850    3.7070  -24.4130 N   0  0  0  0  0  0  0  0  0  0  0  0
   -7.8070    5.6960  -23.8760 H   0  0  0  0  0  0  0  0  0  0  0  0
   -6.7580    5.3580  -21.6110 H   0  0  0  0  0  0  0  0  0  0  0  0
   -6.0000    3.0120  -21.0320 H   0  0  0  0  0  0  0  0  0  0  0  0
   -7.9870    1.6800  -25.8120 H   0  0  0  0  0  0  0  0  0  0  0  0
   -6.4120    1.0460  -25.3380 H   0  0  0  0  0  0  0  0  0  0  0  0
   -9.3560    0.1400  -24.1820 C   0  0  0  0  0  0  0  0  0  0  0  0
  -10.0180    1.1490  -24.3560 O   0  0  0  0  0  0  0  0  0  0  0  0
   -9.9440   -1.1480  -23.7120 C   0  0  0  0  0  0  0  0  0  0  0  0
  -11.2950   -1.3970  -23.9180 C   0  0  0  0  0  0  0  0  0  0  0  0
  -11.9200   -2.4320  -23.2510 C   0  0  0  0  0  0  0  0  0  0  0  0
  -11.1850   -3.1090  -22.2830 C   0  0  0  0  0  0  0  0  0  0  0  0
  -11.8400   -3.9080  -21.4360 F   0  0  0  0  0  0  0  0  0  0  0  0
   -9.8340   -2.9250  -22.1110 C   0  0  0  0  0  0  0  0  0  0  0  0
   -9.1710   -2.0000  -22.9210 C   0  0  0  0  0  0  0  0  0  0  0  0
   -9.3130   -3.4690  -21.3330 H   0  0  0  0  0  0  0  0  0  0  0  0
  -12.9690   -2.6580  -23.3870 H   0  0  0  0  0  0  0  0  0  0  0  0
  -11.8420   -0.7070  -24.5500 H   0  0  0  0  0  0  0  0  0  0  0  0
   -6.8760   -1.5840  -24.7710 H   0  0  0  0  0  0  0  0  0  0  0  0
   -6.2140   -0.4130  -23.6000 H   0  0  0  0  0  0  0  0  0  0  0  0
   -5.2240   -3.5370  -21.1830 H   0  0  0  0  0  0  0  0  0  0  0  0
   -4.8780   -2.2640  -22.3740 H   0  0  0  0  0  0  0  0  0  0  0  0
   -7.4590   -3.7900  -21.9510 H   0  0  0  0  0  0  0  0  0  0  0  0
   -5.7250   -3.3520  -24.4220 H   0  0  0  0  0  0  0  0  0  0  0  0
   -7.3620   -4.0280  -24.5080 H   0  0  0  0  0  0  0  0  0  0  0  0
   -6.0890   -4.8780  -23.6140 H   0  0  0  0  0  0  0  0  0  0  0  0
  1  2  1  0  0  0  0
  1 55  1  0  0  0  0
  1 56  1  0  0  0  0
  1 57  1  0  0  0  0
  2  3  1  0  0  0  0
  2 23  1  0  0  0  0
  2 54  1  1  0  0  0
  3  4  1  0  0  0  0
  3 52  1  0  0  0  0
  3 53  1  0  0  0  0
  4  5  1  0  0  0  0
  4 21  1  0  0  0  0
  5  6  2  0  0  0  0
  5 14  1  0  0  0  0
  6  7  1  0  0  0  0
  6 20  1  0  0  0  0
  7  8  2  0  0  0  0
  8  9  1  0  0  0  0
  8 19  1  0  0  0  0
  9 10  2  0  0  0  0
  9 14  1  0  0  0  0
 10 11  1  0  0  0  0
 10 18  1  0  0  0  0
 11 12  2  0  0  0  0
 11 17  1  0  0  0  0
 12 13  1  0  0  0  0
 12 16  1  0  0  0  0
 13 14  2  0  0  0  0
 13 15  1  0  0  0  0
 21 22  2  0  0  0  0
 23 21  1  1  0  0  0
 23 24  1  0  0  0  0
 23 46  1  0  0  0  0
 24 25  1  0  0  0  0
 24 50  1  0  0  0  0
 24 51  1  0  0  0  0
 25 26  1  0  0  0  0
 25 38  1  0  0  0  0
 26 27  1  0  0  0  0
 26 36  1  0  0  0  0
 26 37  1  0  0  0  0
 27 28  2  0  0  0  0
 27 32  1  0  0  0  0
 28 29  1  0  0  0  0
 29 30  2  0  0  0  0
 29 35  1  0  0  0  0
 30 31  1  0  0  0  0
 30 34  1  0  0  0  0
 31 32  2  0  0  0  0
 31 33  1  0  0  0  0
 38 39  2  0  0  0  0
 38 40  1  0  0  0  0
 40 41  2  0  0  0  0
 40 46  1  0  0  0  0
 41 42  1  0  0  0  0
 41 49  1  0  0  0  0
 42 43  2  0  0  0  0
 42 48  1  0  0  0  0
 43 44  1  0  0  0  0
 43 45  1  0  0  0  0
 45 46  2  0  0  0  0
 45 47  1  0  0  0  0
M  END
>  <MODEL>
       1

$$$$
