output/tmp_first_model_1_43.pdb
 OpenBabel07242613193D

 67 72  0  0  1  0  0  0  0  0999 V2000
   -8.2790    0.5280  -29.6420 C   0  0  0  0  0  0  0  0  0  0  0  0
   -8.2840   -0.5130  -28.6320 N   0  0  0  0  0  0  0  0  0  0  0  0
   -7.4280   -0.4380  -27.5690 C   0  0  0  0  0  0  0  0  0  0  0  0
   -6.6600    0.4920  -27.4140 O   0  0  0  0  0  0  0  0  0  0  0  0
   -7.4310   -1.6750  -26.6390 C   0  0  0  0  0  0  0  0  0  0  0  0
   -8.0620   -1.5070  -25.3230 N   0  0  0  0  0  0  0  0  0  0  0  0
   -7.3380   -1.3910  -24.0520 C   0  0  0  0  0  0  0  0  0  0  0  0
   -8.0600   -2.0050  -22.7890 C   0  0  2  0  0  0  0  0  0  0  0  0
   -7.6060   -1.1700  -21.5930 C   0  0  0  0  0  0  0  0  0  0  0  0
   -8.0100   -0.0760  -21.2490 O   0  0  0  0  0  0  0  0  0  0  0  0
   -6.5780   -1.8450  -20.9680 N   0  0  0  0  0  0  0  0  0  0  0  0
   -5.9140   -1.1410  -19.9430 C   0  0  0  0  0  0  0  0  0  0  0  0
   -6.3580   -1.2680  -18.6540 C   0  0  0  0  0  0  0  0  0  0  0  0
   -5.8670   -0.5660  -17.6050 N   0  0  0  0  0  0  0  0  0  0  0  0
   -4.9290    0.3160  -17.8620 C   0  0  0  0  0  0  0  0  0  0  0  0
   -4.3990    0.5600  -19.1630 C   0  0  0  0  0  0  0  0  0  0  0  0
   -3.3870    1.5260  -19.3890 C   0  0  0  0  0  0  0  0  0  0  0  0
   -2.9530    1.8010  -20.6560 C   0  0  0  0  0  0  0  0  0  0  0  0
   -3.5080    1.1150  -21.7590 C   0  0  0  0  0  0  0  0  0  0  0  0
   -4.4670    0.1530  -21.5720 C   0  0  0  0  0  0  0  0  0  0  0  0
   -4.9270   -0.1600  -20.2580 C   0  0  0  0  0  0  0  0  0  0  0  0
   -4.8830   -0.3660  -22.4350 H   0  0  0  0  0  0  0  0  0  0  0  0
   -3.1770    1.3570  -22.7630 H   0  0  0  0  0  0  0  0  0  0  0  0
   -2.1920    2.5570  -20.8250 H   0  0  0  0  0  0  0  0  0  0  0  0
   -2.9790    2.0450  -18.5270 H   0  0  0  0  0  0  0  0  0  0  0  0
   -4.5440    0.9090  -17.0270 H   0  0  0  0  0  0  0  0  0  0  0  0
   -7.1730   -1.9550  -18.4260 H   0  0  0  0  0  0  0  0  0  0  0  0
   -6.2110   -3.0920  -21.6350 C   0  0  0  0  0  0  0  0  0  0  0  0
   -7.5370   -3.4070  -22.3430 C   0  0  2  0  0  0  0  0  0  0  0  0
   -7.6250   -4.4750  -23.4370 C   0  0  0  0  0  0  0  0  0  0  0  0
   -6.4530   -4.5750  -24.2710 N   0  0  0  0  0  0  0  0  0  0  0  0
   -5.3330   -5.2520  -23.8850 C   0  0  0  0  0  0  0  0  0  0  0  0
   -5.3790   -6.4750  -22.6310 S   0  0  0  0  0  0  0  0  0  0  0  0
   -3.6530   -6.6200  -22.8060 C   0  0  0  0  0  0  0  0  0  0  0  0
   -3.1070   -5.8520  -23.6880 N   0  0  0  0  0  0  0  0  0  0  0  0
   -4.0510   -5.0750  -24.3280 C   0  0  0  0  0  0  0  0  0  0  0  0
   -3.6580   -4.0960  -25.3930 C   0  0  0  0  0  0  0  0  0  0  0  0
   -3.9330   -3.0730  -25.1030 H   0  0  0  0  0  0  0  0  0  0  0  0
   -4.1640   -4.3120  -26.3440 H   0  0  0  0  0  0  0  0  0  0  0  0
   -2.5780   -4.1310  -25.5590 H   0  0  0  0  0  0  0  0  0  0  0  0
   -3.1100   -7.3200  -22.1830 H   0  0  0  0  0  0  0  0  0  0  0  0
   -6.4410   -4.0420  -25.1300 H   0  0  0  0  0  0  0  0  0  0  0  0
   -8.4800   -4.2300  -24.0780 H   0  0  0  0  0  0  0  0  0  0  0  0
   -7.8180   -5.4570  -22.9910 H   0  0  0  0  0  0  0  0  0  0  0  0
   -8.2280   -3.7240  -21.5520 H   0  0  0  0  0  0  0  0  0  0  0  0
   -5.8840   -3.8500  -20.9230 H   0  0  0  0  0  0  0  0  0  0  0  0
   -5.3970   -2.9470  -22.3610 H   0  0  0  0  0  0  0  0  0  0  0  0
   -9.5540   -1.9970  -22.9230 C   0  0  0  0  0  0  0  0  0  0  0  0
  -10.3730   -2.4270  -21.8600 C   0  0  0  0  0  0  0  0  0  0  0  0
  -11.7500   -2.4310  -22.0080 C   0  0  0  0  0  0  0  0  0  0  0  0
  -12.8540   -3.1330  -20.8540 Cl  0  0  0  0  0  0  0  0  0  0  0  0
  -12.3440   -1.9430  -23.1620 C   0  0  0  0  0  0  0  0  0  0  0  0
  -11.5300   -1.4810  -24.1840 C   0  0  0  0  0  0  0  0  0  0  0  0
  -10.1600   -1.5830  -24.1010 C   0  0  0  0  0  0  0  0  0  0  0  0
   -9.4070   -1.3110  -25.3610 C   0  0  0  0  0  0  0  0  0  0  0  0
   -9.9810   -0.9990  -26.4020 O   0  0  0  0  0  0  0  0  0  0  0  0
  -11.8660   -1.0670  -25.1280 H   0  0  0  0  0  0  0  0  0  0  0  0
  -13.4270   -1.9030  -23.1880 H   0  0  0  0  0  0  0  0  0  0  0  0
   -9.9230   -2.7700  -20.9390 H   0  0  0  0  0  0  0  0  0  0  0  0
   -6.3580   -1.8700  -24.1570 H   0  0  0  0  0  0  0  0  0  0  0  0
   -7.1700   -0.3260  -23.8320 H   0  0  0  0  0  0  0  0  0  0  0  0
   -7.9430   -2.4800  -27.1790 H   0  0  0  0  0  0  0  0  0  0  0  0
   -6.3880   -1.9620  -26.4960 H   0  0  0  0  0  0  0  0  0  0  0  0
   -9.1130   -1.0810  -28.5360 H   0  0  0  0  0  0  0  0  0  0  0  0
   -8.9670    0.2520  -30.4480 H   0  0  0  0  0  0  0  0  0  0  0  0
   -7.2720    0.6310  -30.0580 H   0  0  0  0  0  0  0  0  0  0  0  0
   -8.5680    1.5050  -29.2360 H   0  0  0  0  0  0  0  0  0  0  0  0
  1  2  1  0  0  0  0
  1 65  1  0  0  0  0
  1 66  1  0  0  0  0
  1 67  1  0  0  0  0
  2  3  1  0  0  0  0
  2 64  1  0  0  0  0
  3  4  2  0  0  0  0
  3  5  1  0  0  0  0
  5  6  1  0  0  0  0
  5 62  1  0  0  0  0
  5 63  1  0  0  0  0
  6  7  1  0  0  0  0
  6 55  1  0  0  0  0
  7  8  1  0  0  0  0
  7 60  1  0  0  0  0
  7 61  1  0  0  0  0
  8  9  1  1  0  0  0
  8 29  1  0  0  0  0
  8 48  1  0  0  0  0
  9 10  2  0  0  0  0
  9 11  1  0  0  0  0
 11 12  1  0  0  0  0
 11 28  1  0  0  0  0
 12 13  2  0  0  0  0
 12 21  1  0  0  0  0
 13 14  1  0  0  0  0
 13 27  1  0  0  0  0
 14 15  2  0  0  0  0
 15 16  1  0  0  0  0
 15 26  1  0  0  0  0
 16 17  2  0  0  0  0
 16 21  1  0  0  0  0
 17 18  1  0  0  0  0
 17 25  1  0  0  0  0
 18 19  2  0  0  0  0
 18 24  1  0  0  0  0
 19 20  1  0  0  0  0
 19 23  1  0  0  0  0
 20 21  2  0  0  0  0
 20 22  1  0  0  0  0
 28 29  1  0  0  0  0
 28 46  1  0  0  0  0
 28 47  1  0  0  0  0
 29 30  1  0  0  0  0
 29 45  1  1  0  0  0
 30 31  1  0  0  0  0
 30 43  1  0  0  0  0
 30 44  1  0  0  0  0
 31 32  1  0  0  0  0
 31 42  1  0  0  0  0
 32 33  1  0  0  0  0
 32 36  2  0  0  0  0
 33 34  1  0  0  0  0
 34 35  2  0  0  0  0
 34 41  1  0  0  0  0
 35 36  1  0  0  0  0
 36 37  1  0  0  0  0
 37 38  1  0  0  0  0
 37 39  1  0  0  0  0
 37 40  1  0  0  0  0
 48 49  2  0  0  0  0
 48 54  1  0  0  0  0
 49 50  1  0  0  0  0
 49 59  1  0  0  0  0
 50 51  1  0  0  0  0
 50 52  2  0  0  0  0
 52 53  1  0  0  0  0
 52 58  1  0  0  0  0
 53 54  2  0  0  0  0
 53 57  1  0  0  0  0
 54 55  1  0  0  0  0
 55 56  2  0  0  0  0
M  END
>  <MODEL>
       1

$$$$
