output/tmp_first_model_5_28.pdb
 OpenBabel07242615323D

 64 68  0  0  1  0  0  0  0  0999 V2000
  -14.7420   -1.7200  -23.2950 C   0  0  0  0  0  0  0  0  0  0  0  0
  -13.5530   -2.4880  -22.9740 N   0  0  0  0  0  0  0  0  0  0  0  0
  -13.2710   -2.8470  -21.6890 C   0  0  0  0  0  0  0  0  0  0  0  0
  -13.7760   -2.3370  -20.7000 O   0  0  0  0  0  0  0  0  0  0  0  0
  -12.3040   -4.0140  -21.6250 C   0  0  0  0  0  0  0  0  0  0  0  0
  -11.0650   -3.8320  -22.3580 N   0  0  0  0  0  0  0  0  0  0  0  0
   -9.9140   -3.3640  -21.6060 C   0  0  0  0  0  0  0  0  0  0  0  0
   -8.7200   -2.9210  -22.4800 C   0  0  2  0  0  0  0  0  0  0  0  0
   -7.5270   -2.7940  -21.5310 C   0  0  0  0  0  0  0  0  0  0  0  0
   -6.8340   -3.6930  -21.0880 O   0  0  0  0  0  0  0  0  0  0  0  0
   -7.3700   -1.4600  -21.2040 N   0  0  0  0  0  0  0  0  0  0  0  0
   -6.4210   -1.1170  -20.2200 C   0  0  0  0  0  0  0  0  0  0  0  0
   -6.4790   -1.7240  -18.9890 C   0  0  0  0  0  0  0  0  0  0  0  0
   -5.5560   -1.5620  -18.0120 N   0  0  0  0  0  0  0  0  0  0  0  0
   -4.5150   -0.8100  -18.2880 C   0  0  0  0  0  0  0  0  0  0  0  0
   -4.3310   -0.1260  -19.5220 C   0  0  0  0  0  0  0  0  0  0  0  0
   -3.2170    0.7260  -19.7530 C   0  0  0  0  0  0  0  0  0  0  0  0
   -3.1560    1.4980  -20.8810 C   0  0  0  0  0  0  0  0  0  0  0  0
   -4.1470    1.3780  -21.8830 C   0  0  0  0  0  0  0  0  0  0  0  0
   -5.1940    0.5080  -21.7200 C   0  0  0  0  0  0  0  0  0  0  0  0
   -5.3320   -0.2380  -20.5150 C   0  0  0  0  0  0  0  0  0  0  0  0
   -5.9310    0.4100  -22.5110 H   0  0  0  0  0  0  0  0  0  0  0  0
   -4.0660    1.9590  -22.7970 H   0  0  0  0  0  0  0  0  0  0  0  0
   -2.3330    2.1880  -21.0260 H   0  0  0  0  0  0  0  0  0  0  0  0
   -2.4820    0.8450  -18.9650 H   0  0  0  0  0  0  0  0  0  0  0  0
   -3.7620   -0.7090  -17.5060 H   0  0  0  0  0  0  0  0  0  0  0  0
   -7.3130   -2.3850  -18.7500 H   0  0  0  0  0  0  0  0  0  0  0  0
   -8.3840   -0.6060  -21.8160 C   0  0  0  0  0  0  0  0  0  0  0  0
   -8.8340   -1.4610  -23.0090 C   0  0  2  0  0  0  0  0  0  0  0  0
  -10.1890   -1.0980  -23.5960 C   0  0  0  0  0  0  0  0  0  0  0  0
  -10.0940    0.4630  -24.4660 S   0  0  0  0  0  0  0  0  0  0  0  0
   -9.2430    0.2710  -25.6310 O   0  0  0  0  0  0  0  0  0  0  0  0
   -9.8510    1.5330  -23.5120 O   0  0  0  0  0  0  0  0  0  0  0  0
  -11.6220    0.6370  -25.0250 N   0  0  0  0  0  0  0  0  0  0  0  0
  -12.7020    1.0090  -24.1330 C   0  0  0  0  0  0  0  0  0  0  0  0
  -12.4990    1.9980  -23.7160 H   0  0  0  0  0  0  0  0  0  0  0  0
  -12.8150    0.2860  -23.3160 H   0  0  0  0  0  0  0  0  0  0  0  0
  -13.6360    1.0410  -24.7020 H   0  0  0  0  0  0  0  0  0  0  0  0
  -11.8100    0.0370  -25.8160 H   0  0  0  0  0  0  0  0  0  0  0  0
  -10.4960   -1.8480  -24.3350 H   0  0  0  0  0  0  0  0  0  0  0  0
  -10.9640   -1.0310  -22.8250 H   0  0  0  0  0  0  0  0  0  0  0  0
   -8.0880   -1.3700  -23.8110 H   0  0  0  0  0  0  0  0  0  0  0  0
   -9.2240   -0.4250  -21.1280 H   0  0  0  0  0  0  0  0  0  0  0  0
   -7.9920    0.3620  -22.1210 H   0  0  0  0  0  0  0  0  0  0  0  0
   -8.4960   -3.9300  -23.5710 C   0  0  0  0  0  0  0  0  0  0  0  0
   -7.2190   -4.1440  -24.1050 C   0  0  0  0  0  0  0  0  0  0  0  0
   -7.0330   -5.1440  -25.0460 C   0  0  0  0  0  0  0  0  0  0  0  0
   -5.4180   -5.5140  -25.5870 Cl  0  0  0  0  0  0  0  0  0  0  0  0
   -8.1000   -5.9000  -25.5350 C   0  0  0  0  0  0  0  0  0  0  0  0
   -9.3720   -5.6410  -25.0540 C   0  0  0  0  0  0  0  0  0  0  0  0
   -9.5690   -4.6730  -24.0740 C   0  0  0  0  0  0  0  0  0  0  0  0
  -10.9530   -4.4700  -23.5620 C   0  0  0  0  0  0  0  0  0  0  0  0
  -11.9500   -4.8280  -24.1880 O   0  0  0  0  0  0  0  0  0  0  0  0
  -10.2360   -6.1970  -25.4060 H   0  0  0  0  0  0  0  0  0  0  0  0
   -7.9160   -6.6830  -26.2650 H   0  0  0  0  0  0  0  0  0  0  0  0
   -6.3760   -3.5510  -23.7590 H   0  0  0  0  0  0  0  0  0  0  0  0
  -10.2220   -2.5180  -20.9810 H   0  0  0  0  0  0  0  0  0  0  0  0
   -9.5470   -4.1570  -20.9490 H   0  0  0  0  0  0  0  0  0  0  0  0
  -12.8300   -4.8330  -22.1180 H   0  0  0  0  0  0  0  0  0  0  0  0
  -12.1340   -4.2670  -20.5800 H   0  0  0  0  0  0  0  0  0  0  0  0
  -13.2250   -3.1370  -23.6840 H   0  0  0  0  0  0  0  0  0  0  0  0
  -14.4790   -0.7940  -23.8150 H   0  0  0  0  0  0  0  0  0  0  0  0
  -15.2610   -1.4560  -22.3730 H   0  0  0  0  0  0  0  0  0  0  0  0
  -15.4020   -2.3030  -23.9460 H   0  0  0  0  0  0  0  0  0  0  0  0
  1  2  1  0  0  0  0
  1 62  1  0  0  0  0
  1 63  1  0  0  0  0
  1 64  1  0  0  0  0
  2  3  1  0  0  0  0
  2 61  1  0  0  0  0
  3  4  2  0  0  0  0
  3  5  1  0  0  0  0
  5  6  1  0  0  0  0
  5 59  1  0  0  0  0
  5 60  1  0  0  0  0
  6  7  1  0  0  0  0
  6 52  1  0  0  0  0
  7  8  1  0  0  0  0
  7 57  1  0  0  0  0
  7 58  1  0  0  0  0
  8  9  1  1  0  0  0
  8 29  1  0  0  0  0
  8 45  1  0  0  0  0
  9 10  2  0  0  0  0
  9 11  1  0  0  0  0
 11 12  1  0  0  0  0
 11 28  1  0  0  0  0
 12 13  2  0  0  0  0
 12 21  1  0  0  0  0
 13 14  1  0  0  0  0
 13 27  1  0  0  0  0
 14 15  2  0  0  0  0
 15 16  1  0  0  0  0
 15 26  1  0  0  0  0
 16 17  2  0  0  0  0
 16 21  1  0  0  0  0
 17 18  1  0  0  0  0
 17 25  1  0  0  0  0
 18 19  2  0  0  0  0
 18 24  1  0  0  0  0
 19 20  1  0  0  0  0
 19 23  1  0  0  0  0
 20 21  2  0  0  0  0
 20 22  1  0  0  0  0
 28 29  1  0  0  0  0
 28 43  1  0  0  0  0
 28 44  1  0  0  0  0
 29 30  1  0  0  0  0
 29 42  1  6  0  0  0
 30 31  1  0  0  0  0
 30 40  1  0  0  0  0
 30 41  1  0  0  0  0
 31 32  2  0  0  0  0
 31 33  2  0  0  0  0
 31 34  1  0  0  0  0
 34 35  1  0  0  0  0
 34 39  1  0  0  0  0
 35 36  1  0  0  0  0
 35 37  1  0  0  0  0
 35 38  1  0  0  0  0
 45 46  2  0  0  0  0
 45 51  1  0  0  0  0
 46 47  1  0  0  0  0
 46 56  1  0  0  0  0
 47 48  1  0  0  0  0
 47 49  2  0  0  0  0
 49 50  1  0  0  0  0
 49 55  1  0  0  0  0
 50 51  2  0  0  0  0
 50 54  1  0  0  0  0
 51 52  1  0  0  0  0
 52 53  2  0  0  0  0
M  END
>  <MODEL>
       1

$$$$
