output/tmp_first_model_17_51.pdb
 OpenBabel07242622053D

 50 52  0  0  0  0  0  0  0  0999 V2000
  -11.5720   -0.2550  -25.0410 C   0  0  0  0  0  0  0  0  0  0  0  0
  -10.7860   -0.0070  -23.9980 C   0  0  0  0  0  0  0  0  0  0  0  0
  -10.6940   -0.9420  -22.8050 C   0  0  0  0  0  0  0  0  0  0  0  0
   -9.3390   -1.4350  -22.5630 N   0  0  0  0  0  0  0  0  0  0  0  0
   -8.6490   -0.8450  -21.5190 C   0  0  0  0  0  0  0  0  0  0  0  0
   -9.1550    0.0270  -20.8150 O   0  0  0  0  0  0  0  0  0  0  0  0
   -7.3950   -1.3260  -21.2670 N   0  0  0  0  0  0  0  0  0  0  0  0
   -6.6140   -0.8030  -20.2080 C   0  0  0  0  0  0  0  0  0  0  0  0
   -6.9360   -1.0480  -18.8940 C   0  0  0  0  0  0  0  0  0  0  0  0
   -6.2320   -0.5690  -17.8440 N   0  0  0  0  0  0  0  0  0  0  0  0
   -5.1980    0.1930  -18.1000 C   0  0  0  0  0  0  0  0  0  0  0  0
   -4.7560    0.5260  -19.4130 C   0  0  0  0  0  0  0  0  0  0  0  0
   -3.6390    1.3680  -19.6500 C   0  0  0  0  0  0  0  0  0  0  0  0
   -3.2620    1.6730  -20.9300 C   0  0  0  0  0  0  0  0  0  0  0  0
   -3.9770    1.1570  -22.0330 C   0  0  0  0  0  0  0  0  0  0  0  0
   -5.0680    0.3440  -21.8300 C   0  0  0  0  0  0  0  0  0  0  0  0
   -5.4770    0.0030  -20.5100 C   0  0  0  0  0  0  0  0  0  0  0  0
   -5.6260   -0.0350  -22.6830 H   0  0  0  0  0  0  0  0  0  0  0  0
   -3.6580    1.4030  -23.0430 H   0  0  0  0  0  0  0  0  0  0  0  0
   -2.4010    2.3110  -21.1090 H   0  0  0  0  0  0  0  0  0  0  0  0
   -3.1010    1.7600  -18.7920 H   0  0  0  0  0  0  0  0  0  0  0  0
   -4.6420    0.5910  -17.2500 H   0  0  0  0  0  0  0  0  0  0  0  0
   -7.7980   -1.6690  -18.6580 H   0  0  0  0  0  0  0  0  0  0  0  0
   -6.9760   -1.9490  -21.9400 H   0  0  0  0  0  0  0  0  0  0  0  0
   -8.7420   -2.2130  -23.6080 C   0  0  0  0  0  0  0  0  0  0  0  0
   -9.1760   -3.5150  -23.8600 C   0  0  0  0  0  0  0  0  0  0  0  0
   -8.5800   -4.2480  -24.8810 C   0  0  0  0  0  0  0  0  0  0  0  0
   -7.5880   -3.6920  -25.6800 C   0  0  0  0  0  0  0  0  0  0  0  0
   -7.2020   -2.3820  -25.4440 C   0  0  0  0  0  0  0  0  0  0  0  0
   -5.9700   -1.6620  -26.4360 Cl  0  0  0  0  0  0  0  0  0  0  0  0
   -7.7700   -1.6330  -24.4230 C   0  0  0  0  0  0  0  0  0  0  0  0
   -7.4860   -0.5930  -24.2750 H   0  0  0  0  0  0  0  0  0  0  0  0
   -7.1160   -4.2640  -26.4710 H   0  0  0  0  0  0  0  0  0  0  0  0
   -8.9050   -5.2670  -25.0630 H   0  0  0  0  0  0  0  0  0  0  0  0
   -9.9780   -3.9470  -23.2610 H   0  0  0  0  0  0  0  0  0  0  0  0
  -11.3440   -1.8020  -22.9910 H   0  0  0  0  0  0  0  0  0  0  0  0
  -11.0220   -0.4560  -21.8830 H   0  0  0  0  0  0  0  0  0  0  0  0
   -9.8530    1.1650  -24.1240 C   0  0  0  0  0  0  0  0  0  0  0  0
   -9.4870    1.5640  -25.2270 O   0  0  0  0  0  0  0  0  0  0  0  0
   -9.4030    1.7630  -22.9940 N   0  0  0  0  0  0  0  0  0  0  0  0
   -8.1650    2.5150  -23.1190 C   0  0  0  0  0  0  0  0  0  0  0  0
   -7.5310    2.7770  -21.7680 C   0  0  0  0  0  0  0  0  0  0  0  0
   -7.5520    1.8610  -21.1690 H   0  0  0  0  0  0  0  0  0  0  0  0
   -6.4900    3.0890  -21.8670 H   0  0  0  0  0  0  0  0  0  0  0  0
   -8.0450    3.5530  -21.2030 H   0  0  0  0  0  0  0  0  0  0  0  0
   -7.4520    1.9290  -23.7100 H   0  0  0  0  0  0  0  0  0  0  0  0
   -8.3710    3.4220  -23.6950 H   0  0  0  0  0  0  0  0  0  0  0  0
   -9.5940    1.3650  -22.0830 H   0  0  0  0  0  0  0  0  0  0  0  0
  -11.5750    0.4000  -25.9080 H   0  0  0  0  0  0  0  0  0  0  0  0
  -12.2410   -1.1110  -25.0410 H   0  0  0  0  0  0  0  0  0  0  0  0
  1  2  2  0  0  0  0
  1 49  1  0  0  0  0
  1 50  1  0  0  0  0
  2  3  1  0  0  0  0
  2 38  1  0  0  0  0
  3  4  1  0  0  0  0
  3 36  1  0  0  0  0
  3 37  1  0  0  0  0
  4  5  1  0  0  0  0
  4 25  1  0  0  0  0
  5  6  2  0  0  0  0
  5  7  1  0  0  0  0
  7  8  1  0  0  0  0
  7 24  1  0  0  0  0
  8  9  2  0  0  0  0
  8 17  1  0  0  0  0
  9 10  1  0  0  0  0
  9 23  1  0  0  0  0
 10 11  2  0  0  0  0
 11 12  1  0  0  0  0
 11 22  1  0  0  0  0
 12 13  2  0  0  0  0
 12 17  1  0  0  0  0
 13 14  1  0  0  0  0
 13 21  1  0  0  0  0
 14 15  2  0  0  0  0
 14 20  1  0  0  0  0
 15 16  1  0  0  0  0
 15 19  1  0  0  0  0
 16 17  2  0  0  0  0
 16 18  1  0  0  0  0
 25 26  2  0  0  0  0
 25 31  1  0  0  0  0
 26 27  1  0  0  0  0
 26 35  1  0  0  0  0
 27 28  2  0  0  0  0
 27 34  1  0  0  0  0
 28 29  1  0  0  0  0
 28 33  1  0  0  0  0
 29 30  1  0  0  0  0
 29 31  2  0  0  0  0
 31 32  1  0  0  0  0
 38 39  2  0  0  0  0
 38 40  1  0  0  0  0
 40 41  1  0  0  0  0
 40 48  1  0  0  0  0
 41 42  1  0  0  0  0
 41 46  1  0  0  0  0
 41 47  1  0  0  0  0
 42 43  1  0  0  0  0
 42 44  1  0  0  0  0
 42 45  1  0  0  0  0
M  END
>  <MODEL>
       1

$$$$
