output/tmp_first_model_13_77.pdb
 OpenBabel07242619583D

 55 60  0  0  1  0  0  0  0  0999 V2000
  -10.4280   -1.0760  -23.3620 C   0  0  0  0  0  0  0  0  0  0  0  0
   -8.9840   -1.4130  -22.9970 C   0  0  1  0  0  0  0  0  0  0  0  0
   -8.4020   -0.4910  -21.9090 C   0  0  0  0  0  0  0  0  0  0  0  0
   -7.3990   -1.3220  -21.2710 N   0  0  0  0  0  0  0  0  0  0  0  0
   -6.5830   -0.8450  -20.2150 C   0  0  0  0  0  0  0  0  0  0  0  0
   -6.8870   -1.1160  -18.9050 C   0  0  0  0  0  0  0  0  0  0  0  0
   -6.2150   -0.5870  -17.8520 N   0  0  0  0  0  0  0  0  0  0  0  0
   -5.2060    0.2080  -18.1040 C   0  0  0  0  0  0  0  0  0  0  0  0
   -4.7540    0.5330  -19.4160 C   0  0  0  0  0  0  0  0  0  0  0  0
   -3.6270    1.3640  -19.6510 C   0  0  0  0  0  0  0  0  0  0  0  0
   -3.2230    1.6260  -20.9320 C   0  0  0  0  0  0  0  0  0  0  0  0
   -3.9160    1.0710  -22.0320 C   0  0  0  0  0  0  0  0  0  0  0  0
   -5.0100    0.2650  -21.8300 C   0  0  0  0  0  0  0  0  0  0  0  0
   -5.4570   -0.0120  -20.5110 C   0  0  0  0  0  0  0  0  0  0  0  0
   -5.5360   -0.1810  -22.6700 H   0  0  0  0  0  0  0  0  0  0  0  0
   -3.5810    1.2760  -23.0450 H   0  0  0  0  0  0  0  0  0  0  0  0
   -2.3600    2.2600  -21.1130 H   0  0  0  0  0  0  0  0  0  0  0  0
   -3.0990    1.7740  -18.7950 H   0  0  0  0  0  0  0  0  0  0  0  0
   -4.6810    0.6340  -17.2480 H   0  0  0  0  0  0  0  0  0  0  0  0
   -7.7150   -1.7780  -18.6560 H   0  0  0  0  0  0  0  0  0  0  0  0
   -7.5700   -2.6700  -21.5050 C   0  0  0  0  0  0  0  0  0  0  0  0
   -6.8530   -3.5320  -21.0410 O   0  0  0  0  0  0  0  0  0  0  0  0
   -8.7580   -2.8700  -22.4530 C   0  0  1  0  0  0  0  0  0  0  0  0
   -9.9660   -3.3340  -21.5990 C   0  0  0  0  0  0  0  0  0  0  0  0
  -11.0840   -3.8170  -22.3980 N   0  0  0  0  0  0  0  0  0  0  0  0
  -12.4590   -3.7920  -21.9050 C   0  0  0  0  0  0  0  0  0  0  0  0
  -13.3120   -2.6830  -22.4340 C   0  0  0  0  0  0  0  0  0  0  0  0
  -13.9580   -2.6340  -23.6250 C   0  0  0  0  0  0  0  0  0  0  0  0
  -14.6960   -1.4860  -23.6610 O   0  0  0  0  0  0  0  0  0  0  0  0
  -14.4340   -0.8850  -22.4840 C   0  0  0  0  0  0  0  0  0  0  0  0
  -13.6160   -1.5290  -21.7190 N   0  0  0  0  0  0  0  0  0  0  0  0
  -14.9330    0.0560  -22.2800 H   0  0  0  0  0  0  0  0  0  0  0  0
  -14.0310   -3.2820  -24.4870 H   0  0  0  0  0  0  0  0  0  0  0  0
  -12.4750   -3.7780  -20.8130 H   0  0  0  0  0  0  0  0  0  0  0  0
  -12.9170   -4.7160  -22.2640 H   0  0  0  0  0  0  0  0  0  0  0  0
  -10.8940   -4.5430  -23.5410 C   0  0  0  0  0  0  0  0  0  0  0  0
  -11.8400   -5.0330  -24.1540 O   0  0  0  0  0  0  0  0  0  0  0  0
   -9.4880   -4.7180  -23.9970 C   0  0  0  0  0  0  0  0  0  0  0  0
   -9.2400   -5.7190  -24.9330 C   0  0  0  0  0  0  0  0  0  0  0  0
   -7.9690   -5.9130  -25.4400 C   0  0  0  0  0  0  0  0  0  0  0  0
   -6.9540   -5.0630  -25.0080 C   0  0  0  0  0  0  0  0  0  0  0  0
   -5.7140   -5.2190  -25.5080 F   0  0  0  0  0  0  0  0  0  0  0  0
   -7.1640   -4.0880  -24.0490 C   0  0  0  0  0  0  0  0  0  0  0  0
   -8.4520   -3.9110  -23.5130 C   0  0  0  0  0  0  0  0  0  0  0  0
   -6.3090   -3.5190  -23.6930 H   0  0  0  0  0  0  0  0  0  0  0  0
   -7.7480   -6.7020  -26.1500 H   0  0  0  0  0  0  0  0  0  0  0  0
  -10.0660   -6.3500  -25.2480 H   0  0  0  0  0  0  0  0  0  0  0  0
  -10.2770   -2.4900  -20.9760 H   0  0  0  0  0  0  0  0  0  0  0  0
   -9.6360   -4.1100  -20.9090 H   0  0  0  0  0  0  0  0  0  0  0  0
   -9.1780   -0.1780  -21.1900 H   0  0  0  0  0  0  0  0  0  0  0  0
   -7.9600    0.4290  -22.3100 H   0  0  0  0  0  0  0  0  0  0  0  0
   -8.3550   -1.3200  -23.8930 H   0  0  0  0  0  0  0  0  0  0  0  0
  -10.5190   -0.1090  -23.8620 H   0  0  0  0  0  0  0  0  0  0  0  0
  -10.8460   -1.8430  -24.0210 H   0  0  0  0  0  0  0  0  0  0  0  0
  -11.0650   -1.0310  -22.4730 H   0  0  0  0  0  0  0  0  0  0  0  0
  1  2  1  0  0  0  0
  1 53  1  0  0  0  0
  1 54  1  0  0  0  0
  1 55  1  0  0  0  0
  2  3  1  0  0  0  0
  2 23  1  0  0  0  0
  2 52  1  6  0  0  0
  3  4  1  0  0  0  0
  3 50  1  0  0  0  0
  3 51  1  0  0  0  0
  4  5  1  0  0  0  0
  4 21  1  0  0  0  0
  5  6  2  0  0  0  0
  5 14  1  0  0  0  0
  6  7  1  0  0  0  0
  6 20  1  0  0  0  0
  7  8  2  0  0  0  0
  8  9  1  0  0  0  0
  8 19  1  0  0  0  0
  9 10  2  0  0  0  0
  9 14  1  0  0  0  0
 10 11  1  0  0  0  0
 10 18  1  0  0  0  0
 11 12  2  0  0  0  0
 11 17  1  0  0  0  0
 12 13  1  0  0  0  0
 12 16  1  0  0  0  0
 13 14  2  0  0  0  0
 13 15  1  0  0  0  0
 21 22  2  0  0  0  0
 23 21  1  1  0  0  0
 23 24  1  0  0  0  0
 23 44  1  0  0  0  0
 24 25  1  0  0  0  0
 24 48  1  0  0  0  0
 24 49  1  0  0  0  0
 25 26  1  0  0  0  0
 25 36  1  0  0  0  0
 26 27  1  0  0  0  0
 26 34  1  0  0  0  0
 26 35  1  0  0  0  0
 27 28  2  0  0  0  0
 27 31  1  0  0  0  0
 28 29  1  0  0  0  0
 28 33  1  0  0  0  0
 29 30  1  0  0  0  0
 30 31  2  0  0  0  0
 30 32  1  0  0  0  0
 36 37  2  0  0  0  0
 36 38  1  0  0  0  0
 38 39  2  0  0  0  0
 38 44  1  0  0  0  0
 39 40  1  0  0  0  0
 39 47  1  0  0  0  0
 40 41  2  0  0  0  0
 40 46  1  0  0  0  0
 41 42  1  0  0  0  0
 41 43  1  0  0  0  0
 43 44  2  0  0  0  0
 43 45  1  0  0  0  0
M  END
>  <MODEL>
       1

$$$$
