output/tmp_first_model_7_17.pdb
 OpenBabel07242616393D

 38 41  0  0  1  0  0  0  0  0999 V2000
  -10.8160   -4.6670  -22.9190 C   0  0  0  0  0  0  0  0  0  0  0  0
  -10.5610   -3.4180  -23.7460 C   0  0  2  0  0  0  0  0  0  0  0  0
   -9.4010   -3.6350  -24.7230 C   0  0  0  0  0  0  0  0  0  0  0  0
   -8.0630   -3.7840  -23.9720 C   0  0  0  0  0  0  0  0  0  0  0  0
   -7.9550   -2.8090  -22.8830 C   0  0  0  0  0  0  0  0  0  0  0  0
   -6.8120   -2.4340  -22.0980 C   0  0  0  0  0  0  0  0  0  0  0  0
   -5.6570   -2.8040  -22.1530 O   0  5  0  0  0  0  0  0  0  0  0  0
   -7.3130   -1.4470  -21.1990 N   0  0  0  0  0  0  0  0  0  0  0  0
   -6.5680   -0.8310  -20.1690 C   0  0  0  0  0  0  0  0  0  0  0  0
   -6.8940   -1.0480  -18.8520 C   0  0  0  0  0  0  0  0  0  0  0  0
   -6.1930   -0.5460  -17.8060 N   0  0  0  0  0  0  0  0  0  0  0  0
   -5.1620    0.2090  -18.0830 C   0  0  0  0  0  0  0  0  0  0  0  0
   -4.7250    0.5250  -19.4010 C   0  0  0  0  0  0  0  0  0  0  0  0
   -3.5990    1.3550  -19.6330 C   0  0  0  0  0  0  0  0  0  0  0  0
   -3.2190    1.6680  -20.9080 C   0  0  0  0  0  0  0  0  0  0  0  0
   -3.9560    1.1690  -22.0080 C   0  0  0  0  0  0  0  0  0  0  0  0
   -5.0490    0.3680  -21.8110 C   0  0  0  0  0  0  0  0  0  0  0  0
   -5.4530    0.0080  -20.4920 C   0  0  0  0  0  0  0  0  0  0  0  0
   -5.6160   -0.0000  -22.6630 H   0  0  0  0  0  0  0  0  0  0  0  0
   -3.6540    1.4330  -23.0180 H   0  0  0  0  0  0  0  0  0  0  0  0
   -2.3640    2.3140  -21.0810 H   0  0  0  0  0  0  0  0  0  0  0  0
   -3.0720    1.7500  -18.7690 H   0  0  0  0  0  0  0  0  0  0  0  0
   -4.6090    0.6140  -17.2370 H   0  0  0  0  0  0  0  0  0  0  0  0
   -7.7500   -1.6740  -18.6000 H   0  0  0  0  0  0  0  0  0  0  0  0
   -8.6530   -1.1600  -21.4680 C   0  0  0  0  0  0  0  0  0  0  0  0
   -9.3350   -0.2750  -20.9980 O   0  0  0  0  0  0  0  0  0  0  0  0
   -9.0090   -2.0890  -22.4250 N   0  0  0  0  0  0  0  0  0  0  0  0
  -10.3600   -2.1490  -22.9390 C   0  0  0  0  0  0  0  0  0  0  0  0
  -10.5250   -1.2710  -23.5750 H   0  0  0  0  0  0  0  0  0  0  0  0
  -11.0480   -2.1070  -22.0900 H   0  0  0  0  0  0  0  0  0  0  0  0
   -7.2100   -3.6740  -24.6520 H   0  0  0  0  0  0  0  0  0  0  0  0
   -7.9480   -4.7920  -23.5500 H   0  0  0  0  0  0  0  0  0  0  0  0
   -9.5870   -4.5310  -25.3270 H   0  0  0  0  0  0  0  0  0  0  0  0
   -9.3410   -2.7890  -25.4160 H   0  0  0  0  0  0  0  0  0  0  0  0
  -11.4860   -3.2060  -24.2760 H   0  0  0  0  0  0  0  0  0  0  0  0
  -10.8760   -5.5100  -23.6130 H   0  0  0  0  0  0  0  0  0  0  0  0
  -10.0270   -4.8850  -22.1950 H   0  0  0  0  0  0  0  0  0  0  0  0
  -11.7580   -4.5920  -22.3700 H   0  0  0  0  0  0  0  0  0  0  0  0
  1  2  1  0  0  0  0
  1 36  1  0  0  0  0
  1 37  1  0  0  0  0
  1 38  1  0  0  0  0
  2  3  1  0  0  0  0
  2 28  1  0  0  0  0
  2 35  1  6  0  0  0
  3  4  1  0  0  0  0
  3 33  1  0  0  0  0
  3 34  1  0  0  0  0
  4  5  1  0  0  0  0
  4 31  1  0  0  0  0
  4 32  1  0  0  0  0
  5  6  2  0  0  0  0
  5 27  1  0  0  0  0
  6  7  1  0  0  0  0
  6  8  1  0  0  0  0
  8  9  1  0  0  0  0
  8 25  1  0  0  0  0
  9 10  2  0  0  0  0
  9 18  1  0  0  0  0
 10 11  1  0  0  0  0
 10 24  1  0  0  0  0
 11 12  2  0  0  0  0
 12 13  1  0  0  0  0
 12 23  1  0  0  0  0
 13 14  2  0  0  0  0
 13 18  1  0  0  0  0
 14 15  1  0  0  0  0
 14 22  1  0  0  0  0
 15 16  2  0  0  0  0
 15 21  1  0  0  0  0
 16 17  1  0  0  0  0
 16 20  1  0  0  0  0
 17 18  2  0  0  0  0
 17 19  1  0  0  0  0
 25 26  2  0  0  0  0
 25 27  1  0  0  0  0
 27 28  1  0  0  0  0
 28 29  1  0  0  0  0
 28 30  1  0  0  0  0
M  CHG  1   7  -1
M  END
>  <MODEL>
       1

$$$$
