output/tmp_first_model_5_3.pdb
 OpenBabel07242615323D

 66 70  0  0  1  0  0  0  0  0999 V2000
   -7.3760    3.5660  -22.7050 C   0  0  0  0  0  0  0  0  0  0  0  0
   -8.3240    2.9850  -23.6420 N   0  0  0  0  0  0  0  0  0  0  0  0
   -7.8860    2.0570  -24.5320 C   0  0  0  0  0  0  0  0  0  0  0  0
   -6.6980    1.8000  -24.6720 O   0  0  0  0  0  0  0  0  0  0  0  0
   -8.9710    1.3530  -25.3460 C   0  0  0  0  0  0  0  0  0  0  0  0
   -9.5310    0.2120  -24.6080 N   0  0  0  0  0  0  0  0  0  0  0  0
   -8.7470   -1.0190  -24.4380 C   0  0  0  0  0  0  0  0  0  0  0  0
   -8.9650   -1.7020  -23.0090 C   0  0  2  0  0  0  0  0  0  0  0  0
   -8.2480   -0.7500  -21.9870 C   0  0  0  0  0  0  0  0  0  0  0  0
   -8.3720    0.4560  -21.9040 O   0  0  0  0  0  0  0  0  0  0  0  0
   -7.3570   -1.4790  -21.2480 N   0  0  0  0  0  0  0  0  0  0  0  0
   -6.5200   -0.9380  -20.2350 C   0  0  0  0  0  0  0  0  0  0  0  0
   -6.8220   -1.1330  -18.9120 C   0  0  0  0  0  0  0  0  0  0  0  0
   -6.0360   -0.7400  -17.8740 N   0  0  0  0  0  0  0  0  0  0  0  0
   -4.8850   -0.1850  -18.1830 C   0  0  0  0  0  0  0  0  0  0  0  0
   -4.4390    0.0570  -19.5180 C   0  0  0  0  0  0  0  0  0  0  0  0
   -3.2920    0.8520  -19.7850 C   0  0  0  0  0  0  0  0  0  0  0  0
   -3.1360    1.4650  -20.9970 C   0  0  0  0  0  0  0  0  0  0  0  0
   -4.0020    1.1460  -22.0760 C   0  0  0  0  0  0  0  0  0  0  0  0
   -5.0340    0.2630  -21.8830 C   0  0  0  0  0  0  0  0  0  0  0  0
   -5.3270   -0.2380  -20.5750 C   0  0  0  0  0  0  0  0  0  0  0  0
   -5.6570   -0.0470  -22.7290 H   0  0  0  0  0  0  0  0  0  0  0  0
   -3.8200    1.5600  -23.0690 H   0  0  0  0  0  0  0  0  0  0  0  0
   -2.3190    2.1650  -21.1640 H   0  0  0  0  0  0  0  0  0  0  0  0
   -2.6590    1.1270  -18.9490 H   0  0  0  0  0  0  0  0  0  0  0  0
   -4.3010    0.2190  -17.3560 H   0  0  0  0  0  0  0  0  0  0  0  0
   -7.7640   -1.6100  -18.6290 H   0  0  0  0  0  0  0  0  0  0  0  0
   -7.3580   -2.8960  -21.5100 C   0  0  0  0  0  0  0  0  0  0  0  0
   -8.1710   -3.0300  -22.8110 C   0  0  2  0  0  0  0  0  0  0  0  0
   -7.2180   -3.4000  -23.9550 C   0  0  0  0  0  0  0  0  0  0  0  0
   -6.1610   -2.4670  -24.0590 O   0  0  0  0  0  0  0  0  0  0  0  0
   -5.2710   -2.7060  -25.1420 C   0  0  0  0  0  0  0  0  0  0  0  0
   -5.5850   -1.8030  -26.3290 C   0  0  0  0  0  0  0  0  0  0  0  0
   -6.5700   -2.0120  -26.7560 H   0  0  0  0  0  0  0  0  0  0  0  0
   -5.5600   -0.7550  -26.0070 H   0  0  0  0  0  0  0  0  0  0  0  0
   -4.8320   -1.9390  -27.1140 H   0  0  0  0  0  0  0  0  0  0  0  0
   -3.9220   -2.3580  -24.5920 C   0  0  0  0  0  0  0  0  0  0  0  0
   -3.1410   -2.4530  -25.3570 H   0  0  0  0  0  0  0  0  0  0  0  0
   -3.6520   -2.9620  -23.7220 H   0  0  0  0  0  0  0  0  0  0  0  0
   -4.0150   -1.3130  -24.2660 H   0  0  0  0  0  0  0  0  0  0  0  0
   -5.3080   -3.7650  -25.4340 H   0  0  0  0  0  0  0  0  0  0  0  0
   -6.7790   -4.3950  -23.7780 H   0  0  0  0  0  0  0  0  0  0  0  0
   -7.7560   -3.4510  -24.9110 H   0  0  0  0  0  0  0  0  0  0  0  0
   -8.8940   -3.8450  -22.7450 H   0  0  0  0  0  0  0  0  0  0  0  0
   -7.8270   -3.4120  -20.6750 H   0  0  0  0  0  0  0  0  0  0  0  0
   -6.3220   -3.2520  -21.5780 H   0  0  0  0  0  0  0  0  0  0  0  0
  -10.4260   -1.8760  -22.7780 C   0  0  0  0  0  0  0  0  0  0  0  0
  -11.1130   -3.0600  -22.3110 C   0  0  0  0  0  0  0  0  0  0  0  0
  -12.5310   -2.5110  -22.1390 C   0  0  0  0  0  0  0  0  0  0  0  0
  -12.7090   -4.0930  -20.3950 Cl  0  0  0  0  0  0  0  0  0  0  0  0
  -12.5340   -2.5080  -22.1420 C   0  0  0  0  0  0  0  0  0  0  0  0
  -12.5110   -1.1800  -23.0110 C   0  0  0  0  0  0  0  0  0  0  0  0
  -11.2830   -0.8270  -23.1840 C   0  0  0  0  0  0  0  0  0  0  0  0
  -10.8220    0.3070  -24.1280 C   0  0  0  0  0  0  0  0  0  0  0  0
  -11.5530    1.2150  -24.4780 O   0  0  0  0  0  0  0  0  0  0  0  0
  -13.4660   -1.1200  -23.4960 H   0  0  0  0  0  0  0  0  0  0  0  0
  -13.6940   -2.4640  -22.4010 H   0  0  0  0  0  0  0  0  0  0  0  0
  -11.1110   -3.0720  -21.3330 H   0  0  0  0  0  0  0  0  0  0  0  0
   -8.9980   -1.7170  -25.2590 H   0  0  0  0  0  0  0  0  0  0  0  0
   -7.7030   -0.7540  -24.5830 H   0  0  0  0  0  0  0  0  0  0  0  0
   -9.7940    2.0310  -25.5730 H   0  0  0  0  0  0  0  0  0  0  0  0
   -8.5150    1.0520  -26.3040 H   0  0  0  0  0  0  0  0  0  0  0  0
   -9.2960    2.9750  -23.3750 H   0  0  0  0  0  0  0  0  0  0  0  0
   -6.6590    4.1900  -23.2470 H   0  0  0  0  0  0  0  0  0  0  0  0
   -6.8160    2.7850  -22.1690 H   0  0  0  0  0  0  0  0  0  0  0  0
   -7.9080    4.1970  -21.9840 H   0  0  0  0  0  0  0  0  0  0  0  0
  1  2  1  0  0  0  0
  1 64  1  0  0  0  0
  1 65  1  0  0  0  0
  1 66  1  0  0  0  0
  2  3  1  0  0  0  0
  2 63  1  0  0  0  0
  3  4  2  0  0  0  0
  3  5  1  0  0  0  0
  5  6  1  0  0  0  0
  5 61  1  0  0  0  0
  5 62  1  0  0  0  0
  6  7  1  0  0  0  0
  6 54  1  0  0  0  0
  7  8  1  0  0  0  0
  7 59  1  0  0  0  0
  7 60  1  0  0  0  0
  8  9  1  1  0  0  0
  8 29  1  0  0  0  0
  8 47  1  0  0  0  0
  9 10  2  0  0  0  0
  9 11  1  0  0  0  0
 11 12  1  0  0  0  0
 11 28  1  0  0  0  0
 12 13  2  0  0  0  0
 12 21  1  0  0  0  0
 13 14  1  0  0  0  0
 13 27  1  0  0  0  0
 14 15  2  0  0  0  0
 15 16  1  0  0  0  0
 15 26  1  0  0  0  0
 16 17  2  0  0  0  0
 16 21  1  0  0  0  0
 17 18  1  0  0  0  0
 17 25  1  0  0  0  0
 18 19  2  0  0  0  0
 18 24  1  0  0  0  0
 19 20  1  0  0  0  0
 19 23  1  0  0  0  0
 20 21  2  0  0  0  0
 20 22  1  0  0  0  0
 28 29  1  0  0  0  0
 28 45  1  0  0  0  0
 28 46  1  0  0  0  0
 29 30  1  0  0  0  0
 29 44  1  1  0  0  0
 30 31  1  0  0  0  0
 30 42  1  0  0  0  0
 30 43  1  0  0  0  0
 31 32  1  0  0  0  0
 32 33  1  0  0  0  0
 32 37  1  0  0  0  0
 32 41  1  0  0  0  0
 33 34  1  0  0  0  0
 33 35  1  0  0  0  0
 33 36  1  0  0  0  0
 37 38  1  0  0  0  0
 37 39  1  0  0  0  0
 37 40  1  0  0  0  0
 47 48  2  0  0  0  0
 47 53  1  0  0  0  0
 48 49  1  0  0  0  0
 48 58  1  0  0  0  0
 49 50  1  0  0  0  0
 49 51  2  0  0  0  0
 51 52  1  0  0  0  0
 51 57  1  0  0  0  0
 52 53  2  0  0  0  0
 52 56  1  0  0  0  0
 53 54  1  0  0  0  0
 54 55  2  0  0  0  0
M  END
>  <MODEL>
       1

$$$$
