output/tmp_first_model_18_79.pdb
 OpenBabel07242622363D

 45 49  0  0  0  0  0  0  0  0999 V2000
   -9.6460   -0.9260  -24.0660 C   0  0  0  0  0  0  0  0  0  0  0  0
   -8.6590   -1.3720  -23.1010 N   0  0  0  0  0  0  0  0  0  0  0  0
   -8.4060   -0.7090  -21.9230 C   0  0  0  0  0  0  0  0  0  0  0  0
   -8.9450    0.2850  -21.4990 O   0  0  0  0  0  0  0  0  0  0  0  0
   -7.3640   -1.4050  -21.2770 N   0  0  0  0  0  0  0  0  0  0  0  0
   -6.5870   -0.8310  -20.2140 C   0  0  0  0  0  0  0  0  0  0  0  0
   -6.9050   -1.0600  -18.9010 C   0  0  0  0  0  0  0  0  0  0  0  0
   -6.2140   -0.5550  -17.8420 N   0  0  0  0  0  0  0  0  0  0  0  0
   -5.1790    0.2070  -18.0900 C   0  0  0  0  0  0  0  0  0  0  0  0
   -4.7290    0.5300  -19.4000 C   0  0  0  0  0  0  0  0  0  0  0  0
   -3.6000    1.3610  -19.6320 C   0  0  0  0  0  0  0  0  0  0  0  0
   -3.2070    1.6500  -20.9090 C   0  0  0  0  0  0  0  0  0  0  0  0
   -3.9250    1.1230  -22.0060 C   0  0  0  0  0  0  0  0  0  0  0  0
   -5.0170    0.3230  -21.8050 C   0  0  0  0  0  0  0  0  0  0  0  0
   -5.4500   -0.0010  -20.4940 C   0  0  0  0  0  0  0  0  0  0  0  0
   -5.5680   -0.0720  -22.6520 H   0  0  0  0  0  0  0  0  0  0  0  0
   -3.6160    1.3530  -23.0190 H   0  0  0  0  0  0  0  0  0  0  0  0
   -2.3500    2.2900  -21.0940 H   0  0  0  0  0  0  0  0  0  0  0  0
   -3.0690    1.7660  -18.7750 H   0  0  0  0  0  0  0  0  0  0  0  0
   -4.6330    0.6100  -17.2340 H   0  0  0  0  0  0  0  0  0  0  0  0
   -7.7550   -1.6840  -18.6360 H   0  0  0  0  0  0  0  0  0  0  0  0
   -6.9240   -2.4780  -22.0550 C   0  0  0  0  0  0  0  0  0  0  0  0
   -6.0240   -3.2270  -21.7700 O   0  0  0  0  0  0  0  0  0  0  0  0
   -7.7740   -2.4850  -23.3220 C   0  0  0  0  0  0  0  0  0  0  0  0
   -6.9670   -2.5530  -24.6450 C   0  0  0  0  0  0  0  0  0  0  0  0
   -7.5610   -3.8980  -24.9580 N   0  0  0  0  0  0  0  0  0  0  0  0
   -8.3900   -3.9610  -26.4320 S   0  0  0  0  0  0  0  0  0  0  0  0
   -9.4480   -2.9600  -26.3830 O   0  0  0  0  0  0  0  0  0  0  0  0
   -7.3880   -3.9270  -27.4810 O   0  0  0  0  0  0  0  0  0  0  0  0
   -9.2200   -5.5310  -26.5000 C   0  0  0  0  0  0  0  0  0  0  0  0
  -10.3450   -5.6200  -27.5080 C   0  0  0  0  0  0  0  0  0  0  0  0
  -10.6550   -5.5940  -26.0420 C   0  0  0  0  0  0  0  0  0  0  0  0
  -11.0760   -4.6790  -25.6270 H   0  0  0  0  0  0  0  0  0  0  0  0
  -10.9870   -6.5160  -25.5720 H   0  0  0  0  0  0  0  0  0  0  0  0
  -10.5600   -4.7330  -28.1010 H   0  0  0  0  0  0  0  0  0  0  0  0
  -10.4600   -6.5570  -28.0500 H   0  0  0  0  0  0  0  0  0  0  0  0
   -8.5540   -6.3760  -26.3540 H   0  0  0  0  0  0  0  0  0  0  0  0
   -8.3850   -3.8520  -23.7240 C   0  0  0  0  0  0  0  0  0  0  0  0
   -9.4680   -3.8530  -23.8900 H   0  0  0  0  0  0  0  0  0  0  0  0
   -8.1080   -4.6630  -23.0510 H   0  0  0  0  0  0  0  0  0  0  0  0
   -5.8890   -2.6320  -24.4980 H   0  0  0  0  0  0  0  0  0  0  0  0
   -7.1890   -1.7650  -25.3740 H   0  0  0  0  0  0  0  0  0  0  0  0
  -10.1830   -0.0920  -23.6130 H   0  0  0  0  0  0  0  0  0  0  0  0
   -9.1710   -0.5910  -24.9960 H   0  0  0  0  0  0  0  0  0  0  0  0
  -10.3420   -1.7370  -24.3130 H   0  0  0  0  0  0  0  0  0  0  0  0
  1  2  1  0  0  0  0
  1 43  1  0  0  0  0
  1 44  1  0  0  0  0
  1 45  1  0  0  0  0
  2  3  1  0  0  0  0
  2 24  1  0  0  0  0
  3  4  2  0  0  0  0
  3  5  1  0  0  0  0
  5  6  1  0  0  0  0
  5 22  1  0  0  0  0
  6  7  2  0  0  0  0
  6 15  1  0  0  0  0
  7  8  1  0  0  0  0
  7 21  1  0  0  0  0
  8  9  2  0  0  0  0
  9 10  1  0  0  0  0
  9 20  1  0  0  0  0
 10 11  2  0  0  0  0
 10 15  1  0  0  0  0
 11 12  1  0  0  0  0
 11 19  1  0  0  0  0
 12 13  2  0  0  0  0
 12 18  1  0  0  0  0
 13 14  1  0  0  0  0
 13 17  1  0  0  0  0
 14 15  2  0  0  0  0
 14 16  1  0  0  0  0
 22 23  2  0  0  0  0
 22 24  1  0  0  0  0
 24 25  1  0  0  0  0
 24 38  1  0  0  0  0
 25 26  1  0  0  0  0
 25 41  1  0  0  0  0
 25 42  1  0  0  0  0
 26 27  1  0  0  0  0
 26 38  1  0  0  0  0
 27 28  2  0  0  0  0
 27 29  2  0  0  0  0
 27 30  1  0  0  0  0
 30 31  1  0  0  0  0
 30 32  1  0  0  0  0
 30 37  1  0  0  0  0
 31 32  1  0  0  0  0
 31 35  1  0  0  0  0
 31 36  1  0  0  0  0
 32 33  1  0  0  0  0
 32 34  1  0  0  0  0
 38 39  1  0  0  0  0
 38 40  1  0  0  0  0
M  END
>  <MODEL>
       1

$$$$
