output/tmp_first_model_3_78.pdb
 OpenBabel07242614263D

 56 60  0  0  1  0  0  0  0  0999 V2000
  -14.4630   -0.5040  -22.8220 C   0  0  0  0  0  0  0  0  0  0  0  0
  -13.8450   -1.7240  -22.3260 N   0  0  0  0  0  0  0  0  0  0  0  0
  -12.8390   -2.3070  -23.0440 C   0  0  0  0  0  0  0  0  0  0  0  0
  -12.4830   -1.8630  -24.1220 O   0  0  0  0  0  0  0  0  0  0  0  0
  -12.1420   -3.5130  -22.4020 C   0  0  0  0  0  0  0  0  0  0  0  0
  -10.7330   -3.6130  -22.7700 N   0  0  0  0  0  0  0  0  0  0  0  0
   -9.7710   -3.1070  -21.7930 C   0  0  0  0  0  0  0  0  0  0  0  0
   -8.4320   -2.6660  -22.4260 C   0  0  2  0  0  0  0  0  0  0  0  0
   -7.4200   -2.5430  -21.2670 C   0  0  0  0  0  0  0  0  0  0  0  0
   -6.9050   -3.4610  -20.6590 O   0  0  0  0  0  0  0  0  0  0  0  0
   -7.1660   -1.2080  -21.0350 N   0  0  0  0  0  0  0  0  0  0  0  0
   -6.3430   -0.7350  -19.9830 C   0  0  0  0  0  0  0  0  0  0  0  0
   -6.6350   -0.9820  -18.6620 C   0  0  0  0  0  0  0  0  0  0  0  0
   -5.9950   -0.3940  -17.6150 N   0  0  0  0  0  0  0  0  0  0  0  0
   -5.0130    0.4330  -17.8900 C   0  0  0  0  0  0  0  0  0  0  0  0
   -4.5550    0.7120  -19.2070 C   0  0  0  0  0  0  0  0  0  0  0  0
   -3.4550    1.5760  -19.4450 C   0  0  0  0  0  0  0  0  0  0  0  0
   -3.0340    1.8320  -20.7200 C   0  0  0  0  0  0  0  0  0  0  0  0
   -3.7020    1.2390  -21.8140 C   0  0  0  0  0  0  0  0  0  0  0  0
   -4.7770    0.4070  -21.6060 C   0  0  0  0  0  0  0  0  0  0  0  0
   -5.2330    0.1200  -20.2920 C   0  0  0  0  0  0  0  0  0  0  0  0
   -5.2980   -0.0310  -22.4490 H   0  0  0  0  0  0  0  0  0  0  0  0
   -3.3730    1.4560  -22.8250 H   0  0  0  0  0  0  0  0  0  0  0  0
   -2.1850    2.4880  -20.8980 H   0  0  0  0  0  0  0  0  0  0  0  0
   -2.9750    2.0350  -18.5860 H   0  0  0  0  0  0  0  0  0  0  0  0
   -4.5160    0.9310  -17.0550 H   0  0  0  0  0  0  0  0  0  0  0  0
   -7.4350   -1.6670  -18.3910 H   0  0  0  0  0  0  0  0  0  0  0  0
   -8.0460   -0.3390  -21.7990 C   0  0  0  0  0  0  0  0  0  0  0  0
   -8.4330   -1.2050  -23.0020 C   0  0  2  0  0  0  0  0  0  0  0  0
   -9.6870   -0.7170  -23.7140 C   0  0  0  0  0  0  0  0  0  0  0  0
   -9.5160    0.2560  -24.1890 H   0  0  0  0  0  0  0  0  0  0  0  0
  -10.0060   -1.4190  -24.4850 H   0  0  0  0  0  0  0  0  0  0  0  0
  -10.5320   -0.5980  -23.0300 H   0  0  0  0  0  0  0  0  0  0  0  0
   -7.6040   -1.1900  -23.7250 H   0  0  0  0  0  0  0  0  0  0  0  0
   -8.9370   -0.0600  -21.2090 H   0  0  0  0  0  0  0  0  0  0  0  0
   -7.5330    0.5830  -22.0760 H   0  0  0  0  0  0  0  0  0  0  0  0
   -7.9780   -3.7030  -23.4330 C   0  0  0  0  0  0  0  0  0  0  0  0
   -6.6400   -3.7350  -23.8580 C   0  0  0  0  0  0  0  0  0  0  0  0
   -6.2180   -4.6670  -24.7910 C   0  0  0  0  0  0  0  0  0  0  0  0
   -4.5650   -4.6630  -25.3440 Cl  0  0  0  0  0  0  0  0  0  0  0  0
   -7.0990   -5.6160  -25.3080 C   0  0  0  0  0  0  0  0  0  0  0  0
   -8.4170   -5.5900  -24.8950 C   0  0  0  0  0  0  0  0  0  0  0  0
   -8.8610   -4.6310  -23.9790 C   0  0  0  0  0  0  0  0  0  0  0  0
  -10.3120   -4.6290  -23.6100 C   0  0  0  0  0  0  0  0  0  0  0  0
  -11.0430   -5.4920  -24.0610 O   0  0  0  0  0  0  0  0  0  0  0  0
   -9.1370   -6.3110  -25.2730 H   0  0  0  0  0  0  0  0  0  0  0  0
   -6.7550   -6.3540  -26.0270 H   0  0  0  0  0  0  0  0  0  0  0  0
   -5.9080   -3.0490  -23.4500 H   0  0  0  0  0  0  0  0  0  0  0  0
   -9.5670   -3.8970  -21.0560 H   0  0  0  0  0  0  0  0  0  0  0  0
  -10.2050   -2.2600  -21.2530 H   0  0  0  0  0  0  0  0  0  0  0  0
  -12.2280   -3.4250  -21.3130 H   0  0  0  0  0  0  0  0  0  0  0  0
  -12.6490   -4.4340  -22.7040 H   0  0  0  0  0  0  0  0  0  0  0  0
  -14.2800   -2.2620  -21.5890 H   0  0  0  0  0  0  0  0  0  0  0  0
  -15.5480   -0.5250  -22.6770 H   0  0  0  0  0  0  0  0  0  0  0  0
  -14.0420    0.3850  -22.3360 H   0  0  0  0  0  0  0  0  0  0  0  0
  -14.2280   -0.4400  -23.8870 H   0  0  0  0  0  0  0  0  0  0  0  0
  1  2  1  0  0  0  0
  1 54  1  0  0  0  0
  1 55  1  0  0  0  0
  1 56  1  0  0  0  0
  2  3  1  0  0  0  0
  2 53  1  0  0  0  0
  3  4  2  0  0  0  0
  3  5  1  0  0  0  0
  5  6  1  0  0  0  0
  5 51  1  0  0  0  0
  5 52  1  0  0  0  0
  6  7  1  0  0  0  0
  6 44  1  0  0  0  0
  7  8  1  0  0  0  0
  7 49  1  0  0  0  0
  7 50  1  0  0  0  0
  8  9  1  1  0  0  0
  8 29  1  0  0  0  0
  8 37  1  0  0  0  0
  9 10  2  0  0  0  0
  9 11  1  0  0  0  0
 11 12  1  0  0  0  0
 11 28  1  0  0  0  0
 12 13  2  0  0  0  0
 12 21  1  0  0  0  0
 13 14  1  0  0  0  0
 13 27  1  0  0  0  0
 14 15  2  0  0  0  0
 15 16  1  0  0  0  0
 15 26  1  0  0  0  0
 16 17  2  0  0  0  0
 16 21  1  0  0  0  0
 17 18  1  0  0  0  0
 17 25  1  0  0  0  0
 18 19  2  0  0  0  0
 18 24  1  0  0  0  0
 19 20  1  0  0  0  0
 19 23  1  0  0  0  0
 20 21  2  0  0  0  0
 20 22  1  0  0  0  0
 28 29  1  0  0  0  0
 28 35  1  0  0  0  0
 28 36  1  0  0  0  0
 29 30  1  0  0  0  0
 29 34  1  6  0  0  0
 30 31  1  0  0  0  0
 30 32  1  0  0  0  0
 30 33  1  0  0  0  0
 37 38  2  0  0  0  0
 37 43  1  0  0  0  0
 38 39  1  0  0  0  0
 38 48  1  0  0  0  0
 39 40  1  0  0  0  0
 39 41  2  0  0  0  0
 41 42  1  0  0  0  0
 41 47  1  0  0  0  0
 42 43  2  0  0  0  0
 42 46  1  0  0  0  0
 43 44  1  0  0  0  0
 44 45  2  0  0  0  0
M  END
>  <MODEL>
       1

$$$$
