output/tmp_first_model_2_41.pdb
 OpenBabel07242613513D

 67 71  0  0  1  0  0  0  0  0999 V2000
   -7.5900    3.0280  -22.0020 C   0  0  0  0  0  0  0  0  0  0  0  0
   -8.7380    2.5080  -22.7330 N   0  0  0  0  0  0  0  0  0  0  0  0
   -8.4970    1.7100  -23.8120 C   0  0  0  0  0  0  0  0  0  0  0  0
   -7.3560    1.4300  -24.1580 O   0  0  0  0  0  0  0  0  0  0  0  0
   -9.7020    1.1350  -24.5740 C   0  0  0  0  0  0  0  0  0  0  0  0
  -10.1460   -0.0970  -23.9530 N   0  0  0  0  0  0  0  0  0  0  0  0
   -9.2420   -1.2400  -23.9160 C   0  0  0  0  0  0  0  0  0  0  0  0
   -9.3030   -1.9680  -22.5430 C   0  0  2  0  0  0  0  0  0  0  0  0
   -8.7130   -1.0200  -21.4610 C   0  0  0  0  0  0  0  0  0  0  0  0
   -9.2450   -0.0410  -20.9700 O   0  0  0  0  0  0  0  0  0  0  0  0
   -7.4240   -1.4270  -21.1770 N   0  0  0  0  0  0  0  0  0  0  0  0
   -6.6470   -0.8210  -20.1570 C   0  0  0  0  0  0  0  0  0  0  0  0
   -6.9550   -1.0420  -18.8350 C   0  0  0  0  0  0  0  0  0  0  0  0
   -6.2470   -0.5460  -17.7910 N   0  0  0  0  0  0  0  0  0  0  0  0
   -5.2030    0.1970  -18.0710 C   0  0  0  0  0  0  0  0  0  0  0  0
   -4.7680    0.5030  -19.3910 C   0  0  0  0  0  0  0  0  0  0  0  0
   -3.6470    1.3390  -19.6340 C   0  0  0  0  0  0  0  0  0  0  0  0
   -3.2700    1.6390  -20.9150 C   0  0  0  0  0  0  0  0  0  0  0  0
   -4.0050    1.1330  -22.0100 C   0  0  0  0  0  0  0  0  0  0  0  0
   -5.1080    0.3350  -21.8020 C   0  0  0  0  0  0  0  0  0  0  0  0
   -5.5090   -0.0150  -20.4800 C   0  0  0  0  0  0  0  0  0  0  0  0
   -5.7080    0.0220  -22.6530 H   0  0  0  0  0  0  0  0  0  0  0  0
   -3.7080    1.3880  -23.0250 H   0  0  0  0  0  0  0  0  0  0  0  0
   -2.4140    2.2850  -21.0980 H   0  0  0  0  0  0  0  0  0  0  0  0
   -3.1140    1.7440  -18.7790 H   0  0  0  0  0  0  0  0  0  0  0  0
   -4.6400    0.6030  -17.2300 H   0  0  0  0  0  0  0  0  0  0  0  0
   -7.8130   -1.6600  -18.5800 H   0  0  0  0  0  0  0  0  0  0  0  0
   -6.9780   -2.5590  -21.9640 C   0  0  0  0  0  0  0  0  0  0  0  0
   -8.3040   -3.1630  -22.4590 C   0  0  2  0  0  0  0  0  0  0  0  0
   -8.1750   -3.9590  -23.7520 C   0  0  0  0  0  0  0  0  0  0  0  0
   -7.0750   -5.3600  -23.5880 S   0  0  0  0  0  0  0  0  0  0  0  0
   -5.7040   -4.8640  -23.6180 O   0  0  0  0  0  0  0  0  0  0  0  0
   -7.5430   -6.1820  -22.4820 O   0  0  0  0  0  0  0  0  0  0  0  0
   -7.3340   -6.1960  -24.9980 N   0  0  0  0  0  0  0  0  0  0  0  0
   -8.6000   -6.8930  -25.1630 C   0  0  0  0  0  0  0  0  0  0  0  0
   -9.4390   -6.2400  -25.4380 H   0  0  0  0  0  0  0  0  0  0  0  0
   -8.4860   -7.6350  -25.9560 H   0  0  0  0  0  0  0  0  0  0  0  0
   -8.8500   -7.4200  -24.2440 H   0  0  0  0  0  0  0  0  0  0  0  0
   -6.7250   -5.6540  -26.2000 C   0  0  0  0  0  0  0  0  0  0  0  0
   -7.2850   -4.8180  -26.6390 H   0  0  0  0  0  0  0  0  0  0  0  0
   -6.6590   -6.4510  -26.9430 H   0  0  0  0  0  0  0  0  0  0  0  0
   -5.7150   -5.3210  -25.9610 H   0  0  0  0  0  0  0  0  0  0  0  0
   -9.1610   -4.3280  -24.0520 H   0  0  0  0  0  0  0  0  0  0  0  0
   -7.7580   -3.3340  -24.5490 H   0  0  0  0  0  0  0  0  0  0  0  0
   -8.6390   -3.8320  -21.6600 H   0  0  0  0  0  0  0  0  0  0  0  0
   -6.3370   -2.2370  -22.7980 H   0  0  0  0  0  0  0  0  0  0  0  0
   -6.3930   -3.2650  -21.3680 H   0  0  0  0  0  0  0  0  0  0  0  0
  -10.7750   -2.2900  -22.2990 C   0  0  0  0  0  0  0  0  0  0  0  0
  -11.2120   -3.4110  -21.5800 C   0  0  0  0  0  0  0  0  0  0  0  0
  -12.5370   -3.4840  -21.1870 C   0  0  0  0  0  0  0  0  0  0  0  0
  -12.9070   -4.3630  -20.2440 F   0  0  0  0  0  0  0  0  0  0  0  0
  -13.5150   -2.6050  -21.6240 C   0  0  0  0  0  0  0  0  0  0  0  0
  -13.1170   -1.5660  -22.4300 C   0  0  0  0  0  0  0  0  0  0  0  0
  -11.7660   -1.3850  -22.7220 C   0  0  0  0  0  0  0  0  0  0  0  0
  -11.4270   -0.1600  -23.4950 C   0  0  0  0  0  0  0  0  0  0  0  0
  -12.2570    0.7190  -23.7060 O   0  0  0  0  0  0  0  0  0  0  0  0
  -13.8330   -0.8570  -22.8320 H   0  0  0  0  0  0  0  0  0  0  0  0
  -14.5370   -2.7310  -21.2860 H   0  0  0  0  0  0  0  0  0  0  0  0
  -10.5360   -4.1720  -21.2080 H   0  0  0  0  0  0  0  0  0  0  0  0
   -9.5020   -1.9430  -24.7210 H   0  0  0  0  0  0  0  0  0  0  0  0
   -8.2360   -0.8550  -24.1030 H   0  0  0  0  0  0  0  0  0  0  0  0
   -9.4190    0.9580  -25.6240 H   0  0  0  0  0  0  0  0  0  0  0  0
  -10.5600    1.8110  -24.5700 H   0  0  0  0  0  0  0  0  0  0  0  0
   -9.6020    2.3690  -22.2250 H   0  0  0  0  0  0  0  0  0  0  0  0
   -7.9050    3.7640  -21.2660 H   0  0  0  0  0  0  0  0  0  0  0  0
   -7.0360    2.2290  -21.4970 H   0  0  0  0  0  0  0  0  0  0  0  0
   -6.9140    3.5280  -22.6960 H   0  0  0  0  0  0  0  0  0  0  0  0
  1  2  1  0  0  0  0
  1 65  1  0  0  0  0
  1 66  1  0  0  0  0
  1 67  1  0  0  0  0
  2  3  1  0  0  0  0
  2 64  1  0  0  0  0
  3  4  2  0  0  0  0
  3  5  1  0  0  0  0
  5  6  1  0  0  0  0
  5 62  1  0  0  0  0
  5 63  1  0  0  0  0
  6  7  1  0  0  0  0
  6 55  1  0  0  0  0
  7  8  1  0  0  0  0
  7 60  1  0  0  0  0
  7 61  1  0  0  0  0
  8  9  1  1  0  0  0
  8 29  1  0  0  0  0
  8 48  1  0  0  0  0
  9 10  2  0  0  0  0
  9 11  1  0  0  0  0
 11 12  1  0  0  0  0
 11 28  1  0  0  0  0
 12 13  2  0  0  0  0
 12 21  1  0  0  0  0
 13 14  1  0  0  0  0
 13 27  1  0  0  0  0
 14 15  2  0  0  0  0
 15 16  1  0  0  0  0
 15 26  1  0  0  0  0
 16 17  2  0  0  0  0
 16 21  1  0  0  0  0
 17 18  1  0  0  0  0
 17 25  1  0  0  0  0
 18 19  2  0  0  0  0
 18 24  1  0  0  0  0
 19 20  1  0  0  0  0
 19 23  1  0  0  0  0
 20 21  2  0  0  0  0
 20 22  1  0  0  0  0
 28 29  1  0  0  0  0
 28 46  1  0  0  0  0
 28 47  1  0  0  0  0
 29 30  1  0  0  0  0
 29 45  1  1  0  0  0
 30 31  1  0  0  0  0
 30 43  1  0  0  0  0
 30 44  1  0  0  0  0
 31 32  2  0  0  0  0
 31 33  2  0  0  0  0
 31 34  1  0  0  0  0
 34 35  1  0  0  0  0
 34 39  1  0  0  0  0
 35 36  1  0  0  0  0
 35 37  1  0  0  0  0
 35 38  1  0  0  0  0
 39 40  1  0  0  0  0
 39 41  1  0  0  0  0
 39 42  1  0  0  0  0
 48 49  2  0  0  0  0
 48 54  1  0  0  0  0
 49 50  1  0  0  0  0
 49 59  1  0  0  0  0
 50 51  1  0  0  0  0
 50 52  2  0  0  0  0
 52 53  1  0  0  0  0
 52 58  1  0  0  0  0
 53 54  2  0  0  0  0
 53 57  1  0  0  0  0
 54 55  1  0  0  0  0
 55 56  2  0  0  0  0
M  END
>  <MODEL>
       1

$$$$
