output/tmp_first_model_4_12.pdb
 OpenBabel07242615033D

 76 82  0  0  1  0  0  0  0  0999 V2000
  -10.3920   -1.7720  -27.0860 O   0  0  0  0  0  0  0  0  0  0  0  0
   -9.9270   -1.6590  -25.9550 C   0  0  0  0  0  0  0  0  0  0  0  0
  -10.7610   -1.1730  -24.8240 C   0  0  0  0  0  0  0  0  0  0  0  0
  -12.0760   -0.8260  -25.1120 C   0  0  0  0  0  0  0  0  0  0  0  0
  -12.9820   -0.6390  -24.0920 C   0  0  0  0  0  0  0  0  0  0  0  0
  -12.5300   -0.7550  -22.7740 C   0  0  0  0  0  0  0  0  0  0  0  0
  -13.7480   -0.7480  -21.5350 Cl  0  0  0  0  0  0  0  0  0  0  0  0
  -11.1780   -0.9020  -22.4820 C   0  0  0  0  0  0  0  0  0  0  0  0
  -10.2700   -1.1720  -23.5130 C   0  0  0  0  0  0  0  0  0  0  0  0
   -8.8360   -1.5230  -23.1630 C   0  0  1  0  0  0  0  0  0  0  0  0
   -7.9860   -1.4390  -24.4640 C   0  0  0  0  0  0  0  0  0  0  0  0
   -8.6480   -2.0130  -25.6300 N   0  0  0  0  0  0  0  0  0  0  0  0
   -7.8870   -2.7440  -26.6360 C   0  0  0  0  0  0  0  0  0  0  0  0
   -7.5840   -1.9420  -27.9020 C   0  0  0  0  0  0  0  0  0  0  0  0
   -6.7650   -0.7120  -27.5980 N   0  3  0  0  0  0  0  0  0  0  0  0
   -5.6290   -0.5040  -28.5690 C   0  0  0  0  0  0  0  0  0  0  0  0
   -6.1370    0.0320  -29.9010 C   0  0  0  0  0  0  0  0  0  0  0  0
   -6.8170    1.2620  -29.7320 O   0  0  0  0  0  0  0  0  0  0  0  0
   -7.9510    1.1070  -28.9030 C   0  0  0  0  0  0  0  0  0  0  0  0
   -7.5790    0.5770  -27.5240 C   0  0  0  0  0  0  0  0  0  0  0  0
   -6.9690    1.3190  -27.0030 H   0  0  0  0  0  0  0  0  0  0  0  0
   -8.4800    0.3860  -26.9370 H   0  0  0  0  0  0  0  0  0  0  0  0
   -8.6890    0.4420  -29.3800 H   0  0  0  0  0  0  0  0  0  0  0  0
   -8.4060    2.0960  -28.8010 H   0  0  0  0  0  0  0  0  0  0  0  0
   -6.8040   -0.7100  -30.3700 H   0  0  0  0  0  0  0  0  0  0  0  0
   -5.3020    0.2210  -30.5800 H   0  0  0  0  0  0  0  0  0  0  0  0
   -4.9390    0.2150  -28.1250 H   0  0  0  0  0  0  0  0  0  0  0  0
   -5.1040   -1.4540  -28.7090 H   0  0  0  0  0  0  0  0  0  0  0  0
   -6.3520   -0.8590  -26.6620 H   0  0  0  0  0  0  0  0  0  0  0  0
   -8.5180   -1.6460  -28.3750 H   0  0  0  0  0  0  0  0  0  0  0  0
   -7.0220   -2.5680  -28.5980 H   0  0  0  0  0  0  0  0  0  0  0  0
   -8.4480   -3.6410  -26.9150 H   0  0  0  0  0  0  0  0  0  0  0  0
   -6.9460   -3.0560  -26.1720 H   0  0  0  0  0  0  0  0  0  0  0  0
   -7.7630   -0.3730  -24.6380 H   0  0  0  0  0  0  0  0  0  0  0  0
   -7.0310   -1.9560  -24.3290 H   0  0  0  0  0  0  0  0  0  0  0  0
   -8.1960   -0.5860  -22.0990 C   0  0  0  0  0  0  0  0  0  0  0  0
   -8.3880    0.5990  -21.9320 O   0  0  0  0  0  0  0  0  0  0  0  0
   -7.3160   -1.3500  -21.3430 N   0  0  0  0  0  0  0  0  0  0  0  0
   -6.4480   -0.8940  -20.3200 C   0  0  0  0  0  0  0  0  0  0  0  0
   -6.6520   -1.3240  -19.0290 C   0  0  0  0  0  0  0  0  0  0  0  0
   -5.7990   -1.1190  -18.0000 N   0  0  0  0  0  0  0  0  0  0  0  0
   -4.6860   -0.4790  -18.2560 C   0  0  0  0  0  0  0  0  0  0  0  0
   -4.3370    0.0120  -19.5440 C   0  0  0  0  0  0  0  0  0  0  0  0
   -3.1040    0.6770  -19.7740 C   0  0  0  0  0  0  0  0  0  0  0  0
   -2.7790    1.1250  -21.0230 C   0  0  0  0  0  0  0  0  0  0  0  0
   -3.6880    0.9640  -22.0920 C   0  0  0  0  0  0  0  0  0  0  0  0
   -4.9010    0.3510  -21.8880 C   0  0  0  0  0  0  0  0  0  0  0  0
   -5.2480   -0.1680  -20.6110 C   0  0  0  0  0  0  0  0  0  0  0  0
   -5.6150    0.2720  -22.7010 H   0  0  0  0  0  0  0  0  0  0  0  0
   -3.4290    1.3320  -23.0790 H   0  0  0  0  0  0  0  0  0  0  0  0
   -1.8300    1.6230  -21.2000 H   0  0  0  0  0  0  0  0  0  0  0  0
   -2.4500    0.8450  -18.9240 H   0  0  0  0  0  0  0  0  0  0  0  0
   -3.9910   -0.3260  -17.4290 H   0  0  0  0  0  0  0  0  0  0  0  0
   -7.5600   -1.8740  -18.7840 H   0  0  0  0  0  0  0  0  0  0  0  0
   -7.3140   -2.7470  -21.7260 C   0  0  0  0  0  0  0  0  0  0  0  0
   -8.6850   -2.8700  -22.3710 C   0  0  2  0  0  0  0  0  0  0  0  0
   -8.8910   -4.1900  -23.0950 C   0  0  0  0  0  0  0  0  0  0  0  0
  -10.1320   -4.2440  -23.8160 N   0  0  0  0  0  0  0  0  0  0  0  0
  -11.3700   -4.5250  -23.1900 C   0  0  0  0  0  0  0  0  0  0  0  0
  -11.5040   -3.9680  -21.8440 N   0  0  0  0  0  0  0  0  0  0  0  0
  -12.7140   -3.8090  -21.4220 C   0  0  0  0  0  0  0  0  0  0  0  0
  -14.1490   -4.3810  -22.3200 C   0  0  0  0  0  0  0  0  0  0  0  0
  -14.2180   -4.2070  -22.1070 C   0  0  0  0  0  0  0  0  0  0  0  0
  -12.3190   -5.0990  -23.7740 N   0  0  0  0  0  0  0  0  0  0  0  0
  -14.4910   -3.6230  -23.1680 H   0  0  0  0  0  0  0  0  0  0  0  0
  -14.5070   -5.3600  -21.7430 H   0  0  0  0  0  0  0  0  0  0  0  0
  -12.7450   -3.3130  -20.4310 H   0  0  0  0  0  0  0  0  0  0  0  0
  -10.0700   -4.6560  -24.7380 H   0  0  0  0  0  0  0  0  0  0  0  0
   -8.8200   -5.0140  -22.3690 H   0  0  0  0  0  0  0  0  0  0  0  0
   -8.0890   -4.3300  -23.8290 H   0  0  0  0  0  0  0  0  0  0  0  0
   -9.4260   -2.8000  -21.5710 H   0  0  0  0  0  0  0  0  0  0  0  0
   -6.5050   -2.9700  -22.4460 H   0  0  0  0  0  0  0  0  0  0  0  0
   -7.1630   -3.3850  -20.8530 H   0  0  0  0  0  0  0  0  0  0  0  0
  -10.7800   -0.8120  -21.4740 H   0  0  0  0  0  0  0  0  0  0  0  0
  -14.0280   -0.4240  -24.3030 H   0  0  0  0  0  0  0  0  0  0  0  0
  -12.3760   -0.7630  -26.1510 H   0  0  0  0  0  0  0  0  0  0  0  0
  1  2  2  0  0  0  0
  2  3  1  0  0  0  0
  2 12  1  0  0  0  0
  3  4  2  0  0  0  0
  3  9  1  0  0  0  0
  4  5  1  0  0  0  0
  4 76  1  0  0  0  0
  5  6  2  0  0  0  0
  5 75  1  0  0  0  0
  6  7  1  0  0  0  0
  6  8  1  0  0  0  0
  8  9  2  0  0  0  0
  8 74  1  0  0  0  0
 10  9  1  6  0  0  0
 10 11  1  0  0  0  0
 10 36  1  0  0  0  0
 10 56  1  0  0  0  0
 11 12  1  0  0  0  0
 11 34  1  0  0  0  0
 11 35  1  0  0  0  0
 12 13  1  0  0  0  0
 13 14  1  0  0  0  0
 13 32  1  0  0  0  0
 13 33  1  0  0  0  0
 14 15  1  0  0  0  0
 14 30  1  0  0  0  0
 14 31  1  0  0  0  0
 15 16  1  0  0  0  0
 15 20  1  0  0  0  0
 15 29  1  0  0  0  0
 16 17  1  0  0  0  0
 16 27  1  0  0  0  0
 16 28  1  0  0  0  0
 17 18  1  0  0  0  0
 17 25  1  0  0  0  0
 17 26  1  0  0  0  0
 18 19  1  0  0  0  0
 19 20  1  0  0  0  0
 19 23  1  0  0  0  0
 19 24  1  0  0  0  0
 20 21  1  0  0  0  0
 20 22  1  0  0  0  0
 36 37  2  0  0  0  0
 36 38  1  0  0  0  0
 38 39  1  0  0  0  0
 38 55  1  0  0  0  0
 39 40  2  0  0  0  0
 39 48  1  0  0  0  0
 40 41  1  0  0  0  0
 40 54  1  0  0  0  0
 41 42  2  0  0  0  0
 42 43  1  0  0  0  0
 42 53  1  0  0  0  0
 43 44  2  0  0  0  0
 43 48  1  0  0  0  0
 44 45  1  0  0  0  0
 44 52  1  0  0  0  0
 45 46  2  0  0  0  0
 45 51  1  0  0  0  0
 46 47  1  0  0  0  0
 46 50  1  0  0  0  0
 47 48  2  0  0  0  0
 47 49  1  0  0  0  0
 55 56  1  0  0  0  0
 55 72  1  0  0  0  0
 55 73  1  0  0  0  0
 56 57  1  0  0  0  0
 56 71  1  1  0  0  0
 57 58  1  0  0  0  0
 57 69  1  0  0  0  0
 57 70  1  0  0  0  0
 58 59  1  0  0  0  0
 58 68  1  0  0  0  0
 59 60  2  0  0  0  0
 59 64  1  0  0  0  0
 60 61  1  0  0  0  0
 61 62  2  0  0  0  0
 61 67  1  0  0  0  0
 62 63  1  0  0  0  0
 62 66  1  0  0  0  0
 63 64  2  0  0  0  0
 63 65  1  0  0  0  0
M  CHG  1  15   1
M  END
>  <MODEL>
       1

$$$$
