output/tmp_first_model_15_35.pdb
 OpenBabel07242621043D

 40 42  0  0  0  0  0  0  0  0999 V2000
   -5.5910   -3.0520  -21.6170 O   0  0  0  0  0  0  0  0  0  0  0  0
   -6.7820   -2.8260  -21.7560 C   0  0  0  0  0  0  0  0  0  0  0  0
   -7.4070   -1.5030  -21.2660 C   0  0  0  0  0  0  0  0  0  0  0  0
   -6.5820   -0.8390  -20.1880 C   0  0  0  0  0  0  0  0  0  0  0  0
   -6.8830   -1.0510  -18.8670 C   0  0  0  0  0  0  0  0  0  0  0  0
   -6.2000   -0.5450  -17.8060 N   0  0  0  0  0  0  0  0  0  0  0  0
   -5.1660    0.2140  -18.0730 C   0  0  0  0  0  0  0  0  0  0  0  0
   -4.7270    0.5210  -19.3870 C   0  0  0  0  0  0  0  0  0  0  0  0
   -3.6010    1.3490  -19.6200 C   0  0  0  0  0  0  0  0  0  0  0  0
   -3.1940    1.6250  -20.8990 C   0  0  0  0  0  0  0  0  0  0  0  0
   -3.9030    1.0810  -21.9940 C   0  0  0  0  0  0  0  0  0  0  0  0
   -4.9960    0.2740  -21.7910 C   0  0  0  0  0  0  0  0  0  0  0  0
   -5.4470   -0.0230  -20.4780 C   0  0  0  0  0  0  0  0  0  0  0  0
   -5.5250   -0.1550  -22.6350 H   0  0  0  0  0  0  0  0  0  0  0  0
   -3.5810    1.3110  -23.0060 H   0  0  0  0  0  0  0  0  0  0  0  0
   -2.3370    2.2690  -21.0730 H   0  0  0  0  0  0  0  0  0  0  0  0
   -3.0890    1.7660  -18.7570 H   0  0  0  0  0  0  0  0  0  0  0  0
   -4.6230    0.6240  -17.2180 H   0  0  0  0  0  0  0  0  0  0  0  0
   -7.7320   -1.6710  -18.5830 H   0  0  0  0  0  0  0  0  0  0  0  0
   -8.4090   -1.7200  -20.8710 H   0  0  0  0  0  0  0  0  0  0  0  0
   -7.5560   -0.8280  -22.1220 H   0  0  0  0  0  0  0  0  0  0  0  0
   -7.6180   -3.7580  -22.3250 N   0  0  0  0  0  0  0  0  0  0  0  0
   -7.2270   -5.1550  -22.2010 C   0  0  0  0  0  0  0  0  0  0  0  0
   -7.4470   -5.9490  -23.4860 C   0  0  0  0  0  0  0  0  0  0  0  0
   -8.8910   -5.7390  -23.9260 C   0  0  0  0  0  0  0  0  0  0  0  0
   -9.2540   -6.5770  -25.1350 C   0  0  0  0  0  0  0  0  0  0  0  0
  -10.5320   -6.4070  -25.5240 F   0  0  0  0  0  0  0  0  0  0  0  0
   -8.4850   -6.2800  -26.2020 F   0  0  0  0  0  0  0  0  0  0  0  0
   -9.0870   -7.8880  -24.8730 F   0  0  0  0  0  0  0  0  0  0  0  0
   -9.2300   -4.2660  -24.1110 C   0  0  0  0  0  0  0  0  0  0  0  0
   -8.9620   -3.4970  -22.8100 C   0  0  0  0  0  0  0  0  0  0  0  0
   -9.0580   -2.4190  -22.9750 H   0  0  0  0  0  0  0  0  0  0  0  0
   -9.7120   -3.7920  -22.0500 H   0  0  0  0  0  0  0  0  0  0  0  0
   -8.6510   -3.8510  -24.9460 H   0  0  0  0  0  0  0  0  0  0  0  0
  -10.2940   -4.1740  -24.3480 H   0  0  0  0  0  0  0  0  0  0  0  0
   -9.4780   -6.1030  -23.0900 H   0  0  0  0  0  0  0  0  0  0  0  0
   -6.7320   -5.6830  -24.2740 H   0  0  0  0  0  0  0  0  0  0  0  0
   -7.3260   -7.0090  -23.2370 H   0  0  0  0  0  0  0  0  0  0  0  0
   -7.8300   -5.6380  -21.4110 H   0  0  0  0  0  0  0  0  0  0  0  0
   -6.1840   -5.1300  -21.8810 H   0  0  0  0  0  0  0  0  0  0  0  0
  1  2  2  0  0  0  0
  2  3  1  0  0  0  0
  2 22  1  0  0  0  0
  3  4  1  0  0  0  0
  3 20  1  0  0  0  0
  3 21  1  0  0  0  0
  4  5  2  0  0  0  0
  4 13  1  0  0  0  0
  5  6  1  0  0  0  0
  5 19  1  0  0  0  0
  6  7  2  0  0  0  0
  7  8  1  0  0  0  0
  7 18  1  0  0  0  0
  8  9  2  0  0  0  0
  8 13  1  0  0  0  0
  9 10  1  0  0  0  0
  9 17  1  0  0  0  0
 10 11  2  0  0  0  0
 10 16  1  0  0  0  0
 11 12  1  0  0  0  0
 11 15  1  0  0  0  0
 12 13  2  0  0  0  0
 12 14  1  0  0  0  0
 22 23  1  0  0  0  0
 22 31  1  0  0  0  0
 23 24  1  0  0  0  0
 23 39  1  0  0  0  0
 23 40  1  0  0  0  0
 24 25  1  0  0  0  0
 24 37  1  0  0  0  0
 24 38  1  0  0  0  0
 25 26  1  0  0  0  0
 25 30  1  0  0  0  0
 25 36  1  0  0  0  0
 26 27  1  0  0  0  0
 26 28  1  0  0  0  0
 26 29  1  0  0  0  0
 30 31  1  0  0  0  0
 30 34  1  0  0  0  0
 30 35  1  0  0  0  0
 31 32  1  0  0  0  0
 31 33  1  0  0  0  0
M  END
>  <MODEL>
       1

$$$$
