output/tmp_first_model_7_45.pdb
 OpenBabel07242616393D

 66 71  0  0  1  0  0  0  0  0999 V2000
   -7.2580    2.9440  -22.5770 C   0  0  0  0  0  0  0  0  0  0  0  0
   -8.3200    2.2460  -23.2750 N   0  0  0  0  0  0  0  0  0  0  0  0
   -8.0880    1.6300  -24.4610 C   0  0  0  0  0  0  0  0  0  0  0  0
   -6.9970    1.6370  -25.0100 O   0  0  0  0  0  0  0  0  0  0  0  0
   -9.2980    0.9120  -25.0750 C   0  0  0  0  0  0  0  0  0  0  0  0
   -9.8990   -0.0270  -24.1540 N   0  0  0  0  0  0  0  0  0  0  0  0
   -9.2660   -1.3220  -24.0540 C   0  0  0  0  0  0  0  0  0  0  0  0
   -9.4090   -1.9000  -22.6340 C   0  0  2  0  0  0  0  0  0  0  0  0
   -8.8220   -0.9400  -21.5650 C   0  0  0  0  0  0  0  0  0  0  0  0
   -9.3690    0.0210  -21.0600 O   0  0  0  0  0  0  0  0  0  0  0  0
   -7.5500   -1.3630  -21.2670 N   0  0  0  0  0  0  0  0  0  0  0  0
   -6.7760   -0.7860  -20.2360 C   0  0  0  0  0  0  0  0  0  0  0  0
   -7.1240   -0.9690  -18.9200 C   0  0  0  0  0  0  0  0  0  0  0  0
   -6.3700   -0.5450  -17.8800 N   0  0  0  0  0  0  0  0  0  0  0  0
   -5.2670    0.1080  -18.1520 C   0  0  0  0  0  0  0  0  0  0  0  0
   -4.8160    0.4030  -19.4700 C   0  0  0  0  0  0  0  0  0  0  0  0
   -3.6560    1.1830  -19.7200 C   0  0  0  0  0  0  0  0  0  0  0  0
   -3.2870    1.4950  -21.0000 C   0  0  0  0  0  0  0  0  0  0  0  0
   -4.0450    1.0220  -22.0940 C   0  0  0  0  0  0  0  0  0  0  0  0
   -5.1620    0.2450  -21.8770 C   0  0  0  0  0  0  0  0  0  0  0  0
   -5.5850   -0.0670  -20.5570 C   0  0  0  0  0  0  0  0  0  0  0  0
   -5.7680   -0.0700  -22.7230 H   0  0  0  0  0  0  0  0  0  0  0  0
   -3.7660    1.2960  -23.1080 H   0  0  0  0  0  0  0  0  0  0  0  0
   -2.4240    2.1290  -21.1820 H   0  0  0  0  0  0  0  0  0  0  0  0
   -3.0950    1.5550  -18.8680 H   0  0  0  0  0  0  0  0  0  0  0  0
   -4.6680    0.4510  -17.3080 H   0  0  0  0  0  0  0  0  0  0  0  0
   -8.0430   -1.4950  -18.6650 H   0  0  0  0  0  0  0  0  0  0  0  0
   -7.1490   -2.5700  -21.9570 C   0  0  0  0  0  0  0  0  0  0  0  0
   -8.4970   -3.1450  -22.4280 C   0  0  2  0  0  0  0  0  0  0  0  0
   -8.3590   -4.2250  -23.5310 C   0  0  0  0  0  0  0  0  0  0  0  0
   -7.3000   -4.0310  -24.6070 C   0  0  0  0  0  0  0  0  0  0  0  0
   -5.9720   -4.4110  -24.3710 C   0  0  0  0  0  0  0  0  0  0  0  0
   -4.9740   -4.2070  -25.3210 C   0  0  0  0  0  0  0  0  0  0  0  0
   -5.2810   -3.6200  -26.5440 C   0  0  0  0  0  0  0  0  0  0  0  0
   -6.6010   -3.2740  -26.8140 C   0  0  0  0  0  0  0  0  0  0  0  0
   -7.5970   -3.4990  -25.8660 C   0  0  0  0  0  0  0  0  0  0  0  0
   -8.6250   -3.2410  -26.1140 H   0  0  0  0  0  0  0  0  0  0  0  0
   -6.8660   -2.8290  -27.7680 H   0  0  0  0  0  0  0  0  0  0  0  0
   -4.5020   -3.4390  -27.2800 H   0  0  0  0  0  0  0  0  0  0  0  0
   -3.9510   -4.5060  -25.1050 H   0  0  0  0  0  0  0  0  0  0  0  0
   -5.7110   -4.8580  -23.4120 H   0  0  0  0  0  0  0  0  0  0  0  0
   -8.1160   -5.1650  -23.0180 H   0  0  0  0  0  0  0  0  0  0  0  0
   -9.3440   -4.3740  -23.9880 H   0  0  0  0  0  0  0  0  0  0  0  0
   -8.9280   -3.6340  -21.5490 H   0  0  0  0  0  0  0  0  0  0  0  0
   -6.6150   -3.2390  -21.2730 H   0  0  0  0  0  0  0  0  0  0  0  0
   -6.4730   -2.3370  -22.7940 H   0  0  0  0  0  0  0  0  0  0  0  0
  -10.9020   -2.0100  -22.4010 C   0  0  0  0  0  0  0  0  0  0  0  0
  -11.5180   -3.0450  -21.6980 C   0  0  0  0  0  0  0  0  0  0  0  0
  -12.8710   -2.9690  -21.4140 C   0  0  0  0  0  0  0  0  0  0  0  0
  -13.6500   -4.2040  -20.4790 Cl  0  0  0  0  0  0  0  0  0  0  0  0
  -13.6580   -1.9100  -21.8540 C   0  0  0  0  0  0  0  0  0  0  0  0
  -13.0550   -0.8780  -22.5420 C   0  0  0  0  0  0  0  0  0  0  0  0
  -11.6920   -0.9230  -22.8060 C   0  0  0  0  0  0  0  0  0  0  0  0
  -11.0680    0.2480  -23.5030 C   0  0  0  0  0  0  0  0  0  0  0  0
  -11.5710    1.3670  -23.4800 O   0  0  0  0  0  0  0  0  0  0  0  0
  -13.6070   -0.0040  -22.8640 H   0  0  0  0  0  0  0  0  0  0  0  0
  -14.7180   -1.8960  -21.6370 H   0  0  0  0  0  0  0  0  0  0  0  0
  -10.9490   -3.8940  -21.3430 H   0  0  0  0  0  0  0  0  0  0  0  0
   -9.7500   -2.0270  -24.7440 H   0  0  0  0  0  0  0  0  0  0  0  0
   -8.2160   -1.2160  -24.3440 H   0  0  0  0  0  0  0  0  0  0  0  0
  -10.0650    1.6270  -25.3800 H   0  0  0  0  0  0  0  0  0  0  0  0
   -8.9270    0.3900  -25.9650 H   0  0  0  0  0  0  0  0  0  0  0  0
   -9.1550    2.0270  -22.7560 H   0  0  0  0  0  0  0  0  0  0  0  0
   -7.6510    3.8300  -22.0730 H   0  0  0  0  0  0  0  0  0  0  0  0
   -6.7660    2.2870  -21.8470 H   0  0  0  0  0  0  0  0  0  0  0  0
   -6.5210    3.2610  -23.3160 H   0  0  0  0  0  0  0  0  0  0  0  0
  1  2  1  0  0  0  0
  1 64  1  0  0  0  0
  1 65  1  0  0  0  0
  1 66  1  0  0  0  0
  2  3  1  0  0  0  0
  2 63  1  0  0  0  0
  3  4  2  0  0  0  0
  3  5  1  0  0  0  0
  5  6  1  0  0  0  0
  5 61  1  0  0  0  0
  5 62  1  0  0  0  0
  6  7  1  0  0  0  0
  6 54  1  0  0  0  0
  7  8  1  0  0  0  0
  7 59  1  0  0  0  0
  7 60  1  0  0  0  0
  8  9  1  1  0  0  0
  8 29  1  0  0  0  0
  8 47  1  0  0  0  0
  9 10  2  0  0  0  0
  9 11  1  0  0  0  0
 11 12  1  0  0  0  0
 11 28  1  0  0  0  0
 12 13  2  0  0  0  0
 12 21  1  0  0  0  0
 13 14  1  0  0  0  0
 13 27  1  0  0  0  0
 14 15  2  0  0  0  0
 15 16  1  0  0  0  0
 15 26  1  0  0  0  0
 16 17  2  0  0  0  0
 16 21  1  0  0  0  0
 17 18  1  0  0  0  0
 17 25  1  0  0  0  0
 18 19  2  0  0  0  0
 18 24  1  0  0  0  0
 19 20  1  0  0  0  0
 19 23  1  0  0  0  0
 20 21  2  0  0  0  0
 20 22  1  0  0  0  0
 28 29  1  0  0  0  0
 28 45  1  0  0  0  0
 28 46  1  0  0  0  0
 29 30  1  0  0  0  0
 29 44  1  1  0  0  0
 30 31  1  0  0  0  0
 30 42  1  0  0  0  0
 30 43  1  0  0  0  0
 31 32  2  0  0  0  0
 31 36  1  0  0  0  0
 32 33  1  0  0  0  0
 32 41  1  0  0  0  0
 33 34  2  0  0  0  0
 33 40  1  0  0  0  0
 34 35  1  0  0  0  0
 34 39  1  0  0  0  0
 35 36  2  0  0  0  0
 35 38  1  0  0  0  0
 36 37  1  0  0  0  0
 47 48  2  0  0  0  0
 47 53  1  0  0  0  0
 48 49  1  0  0  0  0
 48 58  1  0  0  0  0
 49 50  1  0  0  0  0
 49 51  2  0  0  0  0
 51 52  1  0  0  0  0
 51 57  1  0  0  0  0
 52 53  2  0  0  0  0
 52 56  1  0  0  0  0
 53 54  1  0  0  0  0
 54 55  2  0  0  0  0
M  END
>  <MODEL>
       1

$$$$
