output/tmp_first_model_16_32.pdb
 OpenBabel07242621343D

 57 62  0  0  1  0  0  0  0  0999 V2000
  -10.0620   -0.8350  -23.7000 C   0  0  0  0  0  0  0  0  0  0  0  0
   -8.7620   -1.3490  -23.1050 C   0  0  1  0  0  0  0  0  0  0  0  0
   -8.2110   -0.4810  -21.9720 C   0  0  0  0  0  0  0  0  0  0  0  0
   -7.2630   -1.3760  -21.3130 N   0  0  0  0  0  0  0  0  0  0  0  0
   -6.4220   -0.9930  -20.2400 C   0  0  0  0  0  0  0  0  0  0  0  0
   -6.6630   -1.4400  -18.9630 C   0  0  0  0  0  0  0  0  0  0  0  0
   -5.9440   -1.0770  -17.8740 N   0  0  0  0  0  0  0  0  0  0  0  0
   -4.9470   -0.2460  -18.0550 C   0  0  0  0  0  0  0  0  0  0  0  0
   -4.5700    0.2740  -19.3230 C   0  0  0  0  0  0  0  0  0  0  0  0
   -3.4780    1.1710  -19.4600 C   0  0  0  0  0  0  0  0  0  0  0  0
   -3.1190    1.6330  -20.6960 C   0  0  0  0  0  0  0  0  0  0  0  0
   -3.8430    1.2340  -21.8430 C   0  0  0  0  0  0  0  0  0  0  0  0
   -4.9170    0.3830  -21.7310 C   0  0  0  0  0  0  0  0  0  0  0  0
   -5.3160   -0.1090  -20.4600 C   0  0  0  0  0  0  0  0  0  0  0  0
   -5.4710    0.0790  -22.6120 H   0  0  0  0  0  0  0  0  0  0  0  0
   -3.5450    1.6030  -22.8200 H   0  0  0  0  0  0  0  0  0  0  0  0
   -2.2770    2.3100  -20.8080 H   0  0  0  0  0  0  0  0  0  0  0  0
   -2.9490    1.4820  -18.5610 H   0  0  0  0  0  0  0  0  0  0  0  0
   -4.3820    0.0570  -17.1730 H   0  0  0  0  0  0  0  0  0  0  0  0
   -7.4900   -2.1190  -18.7690 H   0  0  0  0  0  0  0  0  0  0  0  0
   -7.6000   -2.7060  -21.5150 C   0  0  0  0  0  0  0  0  0  0  0  0
   -7.0320   -3.6420  -20.9940 O   0  0  0  0  0  0  0  0  0  0  0  0
   -8.7920   -2.7850  -22.4920 C   0  0  1  0  0  0  0  0  0  0  0  0
  -10.0590   -3.0740  -21.6530 C   0  0  0  0  0  0  0  0  0  0  0  0
  -11.2020   -3.5390  -22.4220 N   0  0  0  0  0  0  0  0  0  0  0  0
  -12.5370   -3.3800  -21.8330 C   0  0  0  0  0  0  0  0  0  0  0  0
  -13.4360   -2.5790  -22.7070 C   0  0  0  0  0  0  0  0  0  0  0  0
  -14.1890   -3.1680  -23.6150 N   0  0  0  0  0  0  0  0  0  0  0  0
  -13.5060   -1.2310  -22.7940 N   0  0  0  0  0  0  0  0  0  0  0  0
  -14.2830   -0.9750  -23.8200 N   0  0  0  0  0  0  0  0  0  0  0  0
  -14.6550   -2.1420  -24.2980 N   0  0  0  0  0  0  0  0  0  0  0  0
  -15.2250   -2.4160  -25.6050 C   0  0  0  0  0  0  0  0  0  0  0  0
  -16.1750   -2.9340  -25.4640 H   0  0  0  0  0  0  0  0  0  0  0  0
  -15.3470   -1.4800  -26.1390 H   0  0  0  0  0  0  0  0  0  0  0  0
  -14.5150   -3.0610  -26.1290 H   0  0  0  0  0  0  0  0  0  0  0  0
  -12.4470   -2.9090  -20.8530 H   0  0  0  0  0  0  0  0  0  0  0  0
  -13.0130   -4.3550  -21.7420 H   0  0  0  0  0  0  0  0  0  0  0  0
  -11.0550   -4.4660  -23.4200 C   0  0  0  0  0  0  0  0  0  0  0  0
  -11.9940   -5.1240  -23.8490 O   0  0  0  0  0  0  0  0  0  0  0  0
   -9.6800   -4.6270  -23.9780 C   0  0  0  0  0  0  0  0  0  0  0  0
   -9.5050   -5.5820  -24.9780 C   0  0  0  0  0  0  0  0  0  0  0  0
   -8.2620   -5.7910  -25.5430 C   0  0  0  0  0  0  0  0  0  0  0  0
   -7.1930   -5.0470  -25.0600 C   0  0  0  0  0  0  0  0  0  0  0  0
   -5.9700   -5.2710  -25.5660 F   0  0  0  0  0  0  0  0  0  0  0  0
   -7.3340   -4.1040  -24.0640 C   0  0  0  0  0  0  0  0  0  0  0  0
   -8.6020   -3.8680  -23.5210 C   0  0  0  0  0  0  0  0  0  0  0  0
   -6.4570   -3.5940  -23.6820 H   0  0  0  0  0  0  0  0  0  0  0  0
   -8.0990   -6.5230  -26.3250 H   0  0  0  0  0  0  0  0  0  0  0  0
  -10.3700   -6.1700  -25.2670 H   0  0  0  0  0  0  0  0  0  0  0  0
  -10.3820   -2.1550  -21.1550 H   0  0  0  0  0  0  0  0  0  0  0  0
   -9.8030   -3.8070  -20.8810 H   0  0  0  0  0  0  0  0  0  0  0  0
   -9.0210   -0.1940  -21.2820 H   0  0  0  0  0  0  0  0  0  0  0  0
   -7.7440    0.4400  -22.3290 H   0  0  0  0  0  0  0  0  0  0  0  0
   -8.0020   -1.3990  -23.8960 H   0  0  0  0  0  0  0  0  0  0  0  0
  -10.8440   -0.7560  -22.9380 H   0  0  0  0  0  0  0  0  0  0  0  0
   -9.9190    0.1560  -24.1450 H   0  0  0  0  0  0  0  0  0  0  0  0
  -10.4310   -1.5110  -24.4770 H   0  0  0  0  0  0  0  0  0  0  0  0
  1  2  1  0  0  0  0
  1 55  1  0  0  0  0
  1 56  1  0  0  0  0
  1 57  1  0  0  0  0
  2  3  1  0  0  0  0
  2 23  1  0  0  0  0
  2 54  1  6  0  0  0
  3  4  1  0  0  0  0
  3 52  1  0  0  0  0
  3 53  1  0  0  0  0
  4  5  1  0  0  0  0
  4 21  1  0  0  0  0
  5  6  2  0  0  0  0
  5 14  1  0  0  0  0
  6  7  1  0  0  0  0
  6 20  1  0  0  0  0
  7  8  2  0  0  0  0
  8  9  1  0  0  0  0
  8 19  1  0  0  0  0
  9 10  2  0  0  0  0
  9 14  1  0  0  0  0
 10 11  1  0  0  0  0
 10 18  1  0  0  0  0
 11 12  2  0  0  0  0
 11 17  1  0  0  0  0
 12 13  1  0  0  0  0
 12 16  1  0  0  0  0
 13 14  2  0  0  0  0
 13 15  1  0  0  0  0
 21 22  2  0  0  0  0
 23 21  1  1  0  0  0
 23 24  1  0  0  0  0
 23 46  1  0  0  0  0
 24 25  1  0  0  0  0
 24 50  1  0  0  0  0
 24 51  1  0  0  0  0
 25 26  1  0  0  0  0
 25 38  1  0  0  0  0
 26 27  1  0  0  0  0
 26 36  1  0  0  0  0
 26 37  1  0  0  0  0
 27 28  2  0  0  0  0
 27 31  1  0  0  0  0
 28 29  1  0  0  0  0
 29 30  2  0  0  0  0
 30 31  1  0  0  0  0
 31 32  1  0  0  0  0
 32 33  1  0  0  0  0
 32 34  1  0  0  0  0
 32 35  1  0  0  0  0
 38 39  2  0  0  0  0
 38 40  1  0  0  0  0
 40 41  2  0  0  0  0
 40 46  1  0  0  0  0
 41 42  1  0  0  0  0
 41 49  1  0  0  0  0
 42 43  2  0  0  0  0
 42 48  1  0  0  0  0
 43 44  1  0  0  0  0
 43 45  1  0  0  0  0
 45 46  2  0  0  0  0
 45 47  1  0  0  0  0
M  END
>  <MODEL>
       1

$$$$
