output/tmp_first_model_1_87.pdb
 OpenBabel07242613193D

 59 64  0  0  1  0  0  0  0  0999 V2000
  -10.1210   -2.6970  -22.2340 C   0  0  0  0  0  0  0  0  0  0  0  0
   -8.9420   -1.8760  -22.7790 C   0  0  1  0  0  0  0  0  0  0  0  0
   -8.5170   -0.8180  -21.7370 C   0  0  0  0  0  0  0  0  0  0  0  0
   -7.3630   -1.4200  -21.1030 N   0  0  0  0  0  0  0  0  0  0  0  0
   -6.6200   -0.7760  -20.0820 C   0  0  0  0  0  0  0  0  0  0  0  0
   -6.9870   -0.9260  -18.7710 C   0  0  0  0  0  0  0  0  0  0  0  0
   -6.2990   -0.4090  -17.7250 N   0  0  0  0  0  0  0  0  0  0  0  0
   -5.2330    0.3060  -17.9970 C   0  0  0  0  0  0  0  0  0  0  0  0
   -4.7620    0.5630  -19.3160 C   0  0  0  0  0  0  0  0  0  0  0  0
   -3.6090    1.3550  -19.5610 C   0  0  0  0  0  0  0  0  0  0  0  0
   -3.1830    1.5820  -20.8410 C   0  0  0  0  0  0  0  0  0  0  0  0
   -3.8960    1.0410  -21.9380 C   0  0  0  0  0  0  0  0  0  0  0  0
   -5.0200    0.2830  -21.7310 C   0  0  0  0  0  0  0  0  0  0  0  0
   -5.4710    0.0120  -20.4030 C   0  0  0  0  0  0  0  0  0  0  0  0
   -5.5660   -0.1210  -22.5830 H   0  0  0  0  0  0  0  0  0  0  0  0
   -3.5440    1.2300  -22.9490 H   0  0  0  0  0  0  0  0  0  0  0  0
   -2.3010    2.1880  -21.0290 H   0  0  0  0  0  0  0  0  0  0  0  0
   -3.0880    1.7830  -18.7080 H   0  0  0  0  0  0  0  0  0  0  0  0
   -4.6790    0.7180  -17.1520 H   0  0  0  0  0  0  0  0  0  0  0  0
   -7.8650   -1.5200  -18.5200 H   0  0  0  0  0  0  0  0  0  0  0  0
   -6.7390   -2.3550  -21.8900 C   0  0  0  0  0  0  0  0  0  0  0  0
   -5.6770   -2.8750  -21.6030 O   0  0  0  0  0  0  0  0  0  0  0  0
   -7.6170   -2.6490  -23.1200 C   0  0  1  0  0  0  0  0  0  0  0  0
   -7.7920   -4.1870  -23.2090 C   0  0  0  0  0  0  0  0  0  0  0  0
   -6.6070   -4.9160  -23.6830 N   0  0  0  0  0  0  0  0  0  0  0  0
   -5.7670   -5.6130  -22.7650 C   0  0  0  0  0  0  0  0  0  0  0  0
   -7.2840   -7.3250  -23.1110 C   0  0  0  0  0  0  0  0  0  0  0  0
   -7.4660   -7.5210  -22.9770 C   0  0  0  0  0  0  0  0  0  0  0  0
   -9.5750   -8.7090  -23.3770 C   0  0  0  0  0  0  0  0  0  0  0  0
   -9.0480   -8.2780  -24.4560 N   0  0  0  0  0  0  0  0  0  0  0  0
   -7.8850   -7.7090  -24.3470 N   0  0  0  0  0  0  0  0  0  0  0  0
   -7.2330   -7.0550  -25.4660 C   0  0  0  0  0  0  0  0  0  0  0  0
   -7.7450   -6.1190  -25.7540 H   0  0  0  0  0  0  0  0  0  0  0  0
   -6.2150   -6.8070  -25.1700 H   0  0  0  0  0  0  0  0  0  0  0  0
   -7.2360   -7.7220  -26.3350 H   0  0  0  0  0  0  0  0  0  0  0  0
  -10.6080   -9.1010  -23.4120 H   0  0  0  0  0  0  0  0  0  0  0  0
   -6.9200   -6.7700  -22.2010 H   0  0  0  0  0  0  0  0  0  0  0  0
   -5.3340   -5.0210  -21.9500 H   0  0  0  0  0  0  0  0  0  0  0  0
   -5.1240   -6.2960  -23.3040 H   0  0  0  0  0  0  0  0  0  0  0  0
   -5.9110   -4.3970  -24.7650 C   0  0  0  0  0  0  0  0  0  0  0  0
   -5.0450   -5.0450  -25.3400 O   0  0  0  0  0  0  0  0  0  0  0  0
   -6.2250   -3.0110  -25.2240 C   0  0  0  0  0  0  0  0  0  0  0  0
   -5.6730   -2.5970  -26.4390 C   0  0  0  0  0  0  0  0  0  0  0  0
   -5.8100   -1.2930  -26.8650 C   0  0  0  0  0  0  0  0  0  0  0  0
   -6.4940   -0.4170  -26.0310 C   0  0  0  0  0  0  0  0  0  0  0  0
   -6.6160    0.8650  -26.4190 F   0  0  0  0  0  0  0  0  0  0  0  0
   -7.0620   -0.8070  -24.8290 C   0  0  0  0  0  0  0  0  0  0  0  0
   -6.9730   -2.1460  -24.4180 C   0  0  0  0  0  0  0  0  0  0  0  0
   -7.5640   -0.0490  -24.2330 H   0  0  0  0  0  0  0  0  0  0  0  0
   -5.3730   -0.9330  -27.7910 H   0  0  0  0  0  0  0  0  0  0  0  0
   -5.1150   -3.3180  -27.0260 H   0  0  0  0  0  0  0  0  0  0  0  0
   -8.6170   -4.3980  -23.8970 H   0  0  0  0  0  0  0  0  0  0  0  0
   -8.0650   -4.5480  -22.2160 H   0  0  0  0  0  0  0  0  0  0  0  0
   -8.2600    0.1410  -22.2110 H   0  0  0  0  0  0  0  0  0  0  0  0
   -9.2910   -0.6140  -20.9930 H   0  0  0  0  0  0  0  0  0  0  0  0
   -9.3040   -1.3910  -23.6910 H   0  0  0  0  0  0  0  0  0  0  0  0
  -10.4700   -3.4440  -22.9520 H   0  0  0  0  0  0  0  0  0  0  0  0
  -10.9660   -2.0280  -22.0300 H   0  0  0  0  0  0  0  0  0  0  0  0
   -9.8770   -3.2090  -21.2970 H   0  0  0  0  0  0  0  0  0  0  0  0
  1  2  1  0  0  0  0
  1 57  1  0  0  0  0
  1 58  1  0  0  0  0
  1 59  1  0  0  0  0
  2  3  1  0  0  0  0
  2 23  1  0  0  0  0
  2 56  1  6  0  0  0
  3  4  1  0  0  0  0
  3 54  1  0  0  0  0
  3 55  1  0  0  0  0
  4  5  1  0  0  0  0
  4 21  1  0  0  0  0
  5  6  2  0  0  0  0
  5 14  1  0  0  0  0
  6  7  1  0  0  0  0
  6 20  1  0  0  0  0
  7  8  2  0  0  0  0
  8  9  1  0  0  0  0
  8 19  1  0  0  0  0
  9 10  2  0  0  0  0
  9 14  1  0  0  0  0
 10 11  1  0  0  0  0
 10 18  1  0  0  0  0
 11 12  2  0  0  0  0
 11 17  1  0  0  0  0
 12 13  1  0  0  0  0
 12 16  1  0  0  0  0
 13 14  2  0  0  0  0
 13 15  1  0  0  0  0
 21 22  2  0  0  0  0
 23 21  1  1  0  0  0
 23 24  1  0  0  0  0
 23 48  1  0  0  0  0
 24 25  1  0  0  0  0
 24 52  1  0  0  0  0
 24 53  1  0  0  0  0
 25 26  1  0  0  0  0
 25 40  1  0  0  0  0
 26 27  1  0  0  0  0
 26 38  1  0  0  0  0
 26 39  1  0  0  0  0
 27 28  2  0  0  0  0
 27 31  1  0  0  0  0
 28 29  1  0  0  0  0
 28 37  1  0  0  0  0
 29 30  2  0  0  0  0
 29 36  1  0  0  0  0
 30 31  1  0  0  0  0
 31 32  1  0  0  0  0
 32 33  1  0  0  0  0
 32 34  1  0  0  0  0
 32 35  1  0  0  0  0
 40 41  2  0  0  0  0
 40 42  1  0  0  0  0
 42 43  2  0  0  0  0
 42 48  1  0  0  0  0
 43 44  1  0  0  0  0
 43 51  1  0  0  0  0
 44 45  2  0  0  0  0
 44 50  1  0  0  0  0
 45 46  1  0  0  0  0
 45 47  1  0  0  0  0
 47 48  2  0  0  0  0
 47 49  1  0  0  0  0
M  END
>  <MODEL>
       1

$$$$
