output/tmp_first_model_17_25.pdb
 OpenBabel07242622053D

 70 75  0  0  1  0  0  0  0  0999 V2000
   -8.0900   -6.9650  -24.0070 O   0  0  0  0  0  0  0  0  0  0  0  0
   -8.0190   -6.2580  -23.0200 C   0  0  0  0  0  0  0  0  0  0  0  0
   -9.1280   -5.2960  -22.5980 C   0  0  0  0  0  0  0  0  0  0  0  0
   -8.7540   -3.8820  -22.8810 N   0  3  1  0  0  0  0  0  0  0  0  0
   -8.4240   -3.7160  -24.3670 C   0  0  0  0  0  0  0  0  0  0  0  0
   -8.1230   -2.2820  -24.7010 C   0  0  0  0  0  0  0  0  0  0  0  0
   -7.3380   -1.9680  -25.8100 C   0  0  0  0  0  0  0  0  0  0  0  0
   -7.0590   -0.6490  -26.1410 C   0  0  0  0  0  0  0  0  0  0  0  0
   -7.5800    0.3700  -25.3510 C   0  0  0  0  0  0  0  0  0  0  0  0
   -7.2410    2.0310  -25.7380 Cl  0  0  0  0  0  0  0  0  0  0  0  0
   -8.3540    0.0790  -24.2410 C   0  0  0  0  0  0  0  0  0  0  0  0
   -8.6380   -1.2490  -23.9240 C   0  0  0  0  0  0  0  0  0  0  0  0
   -9.4280   -1.4800  -22.6650 C   0  0  2  0  0  0  0  0  0  0  0  0
   -8.6810   -0.9100  -21.4660 C   0  0  0  0  0  0  0  0  0  0  0  0
   -9.1590   -0.0390  -20.7650 O   0  0  0  0  0  0  0  0  0  0  0  0
   -7.4380   -1.4520  -21.2210 N   0  0  0  0  0  0  0  0  0  0  0  0
   -6.6110   -0.8930  -20.2120 C   0  0  0  0  0  0  0  0  0  0  0  0
   -6.9310   -1.1020  -18.8970 C   0  0  0  0  0  0  0  0  0  0  0  0
   -6.2350   -0.6000  -17.8490 N   0  0  0  0  0  0  0  0  0  0  0  0
   -5.2010    0.1540  -18.1190 C   0  0  0  0  0  0  0  0  0  0  0  0
   -4.7590    0.4630  -19.4330 C   0  0  0  0  0  0  0  0  0  0  0  0
   -3.6490    1.3170  -19.6530 C   0  0  0  0  0  0  0  0  0  0  0  0
   -3.2760    1.6410  -20.9270 C   0  0  0  0  0  0  0  0  0  0  0  0
   -3.9970    1.1260  -22.0310 C   0  0  0  0  0  0  0  0  0  0  0  0
   -5.0720    0.2910  -21.8430 C   0  0  0  0  0  0  0  0  0  0  0  0
   -5.4780   -0.0700  -20.5290 C   0  0  0  0  0  0  0  0  0  0  0  0
   -5.6260   -0.0770  -22.7030 H   0  0  0  0  0  0  0  0  0  0  0  0
   -3.6900    1.4020  -23.0360 H   0  0  0  0  0  0  0  0  0  0  0  0
   -2.4290    2.2980  -21.1000 H   0  0  0  0  0  0  0  0  0  0  0  0
   -3.1280    1.7180  -18.7870 H   0  0  0  0  0  0  0  0  0  0  0  0
   -4.6560    0.5660  -17.2720 H   0  0  0  0  0  0  0  0  0  0  0  0
   -7.8000   -1.7030  -18.6440 H   0  0  0  0  0  0  0  0  0  0  0  0
   -7.0010   -1.9500  -21.9810 H   0  0  0  0  0  0  0  0  0  0  0  0
   -9.8580   -2.9330  -22.4770 C   0  0  0  0  0  0  0  0  0  0  0  0
  -10.1430   -3.1290  -21.4380 H   0  0  0  0  0  0  0  0  0  0  0  0
  -10.7220   -3.1350  -23.1250 H   0  0  0  0  0  0  0  0  0  0  0  0
  -10.3340   -0.8780  -22.6940 H   0  0  0  0  0  0  0  0  0  0  0  0
   -8.7460    0.8760  -23.6150 H   0  0  0  0  0  0  0  0  0  0  0  0
   -6.4460   -0.4190  -27.0070 H   0  0  0  0  0  0  0  0  0  0  0  0
   -6.9460   -2.7770  -26.4220 H   0  0  0  0  0  0  0  0  0  0  0  0
   -9.2840   -4.0890  -24.9360 H   0  0  0  0  0  0  0  0  0  0  0  0
   -7.5740   -4.3560  -24.6000 H   0  0  0  0  0  0  0  0  0  0  0  0
   -7.9050   -3.6570  -22.3200 H   0  0  0  0  0  0  0  0  0  0  0  0
  -10.0300   -5.5630  -23.1570 H   0  0  0  0  0  0  0  0  0  0  0  0
   -9.3350   -5.4120  -21.5270 H   0  0  0  0  0  0  0  0  0  0  0  0
   -6.9240   -6.2270  -22.1980 N   0  0  0  0  0  0  0  0  0  0  0  0
   -5.7340   -6.9310  -22.4630 C   0  0  0  0  0  0  0  0  0  0  0  0
   -4.9750   -7.4160  -21.4010 C   0  0  0  0  0  0  0  0  0  0  0  0
   -3.7660   -8.0290  -21.6780 C   0  0  0  0  0  0  0  0  0  0  0  0
   -3.2840   -8.1440  -22.9760 C   0  0  0  0  0  0  0  0  0  0  0  0
   -2.0510   -8.7960  -23.2110 N   0  0  0  0  0  0  0  0  0  0  0  0
   -1.0440   -8.7790  -22.1550 C   0  0  0  0  0  0  0  0  0  0  0  0
    0.2960   -9.1580  -22.7480 C   0  0  0  0  0  0  0  0  0  0  0  0
    0.1920  -10.4550  -23.2960 O   0  0  0  0  0  0  0  0  0  0  0  0
   -0.6780  -10.4880  -24.3970 C   0  0  0  0  0  0  0  0  0  0  0  0
   -1.9740   -9.7060  -24.2410 C   0  0  0  0  0  0  0  0  0  0  0  0
   -2.8860   -9.9230  -25.0230 O   0  0  0  0  0  0  0  0  0  0  0  0
   -0.9910  -11.5230  -24.5490 H   0  0  0  0  0  0  0  0  0  0  0  0
   -0.1900  -10.1380  -25.3220 H   0  0  0  0  0  0  0  0  0  0  0  0
    1.0720   -9.1890  -21.9780 H   0  0  0  0  0  0  0  0  0  0  0  0
    0.5860   -8.4260  -23.5160 H   0  0  0  0  0  0  0  0  0  0  0  0
   -1.0120   -7.7900  -21.6950 H   0  0  0  0  0  0  0  0  0  0  0  0
   -1.2840   -9.4920  -21.3570 H   0  0  0  0  0  0  0  0  0  0  0  0
   -4.0610   -7.6780  -24.0310 C   0  0  0  0  0  0  0  0  0  0  0  0
   -5.2820   -7.0890  -23.7730 C   0  0  0  0  0  0  0  0  0  0  0  0
   -5.9080   -6.7900  -24.6050 H   0  0  0  0  0  0  0  0  0  0  0  0
   -3.7220   -7.7760  -25.0530 H   0  0  0  0  0  0  0  0  0  0  0  0
   -3.2140   -8.5130  -20.8740 H   0  0  0  0  0  0  0  0  0  0  0  0
   -5.3110   -7.3200  -20.3690 H   0  0  0  0  0  0  0  0  0  0  0  0
   -6.9940   -5.7540  -21.3100 H   0  0  0  0  0  0  0  0  0  0  0  0
  1  2  2  0  0  0  0
  2  3  1  0  0  0  0
  2 46  1  0  0  0  0
  3  4  1  0  0  0  0
  3 44  1  0  0  0  0
  3 45  1  0  0  0  0
  4  5  1  0  0  0  0
  4 34  1  0  0  0  0
  4 43  1  1  0  0  0
  5  6  1  0  0  0  0
  5 41  1  0  0  0  0
  5 42  1  0  0  0  0
  6  7  2  0  0  0  0
  6 12  1  0  0  0  0
  7  8  1  0  0  0  0
  7 40  1  0  0  0  0
  8  9  2  0  0  0  0
  8 39  1  0  0  0  0
  9 10  1  0  0  0  0
  9 11  1  0  0  0  0
 11 12  2  0  0  0  0
 11 38  1  0  0  0  0
 12 13  1  0  0  0  0
 13 14  1  0  0  0  0
 13 34  1  0  0  0  0
 13 37  1  6  0  0  0
 14 15  2  0  0  0  0
 14 16  1  0  0  0  0
 16 17  1  0  0  0  0
 16 33  1  0  0  0  0
 17 18  2  0  0  0  0
 17 26  1  0  0  0  0
 18 19  1  0  0  0  0
 18 32  1  0  0  0  0
 19 20  2  0  0  0  0
 20 21  1  0  0  0  0
 20 31  1  0  0  0  0
 21 22  2  0  0  0  0
 21 26  1  0  0  0  0
 22 23  1  0  0  0  0
 22 30  1  0  0  0  0
 23 24  2  0  0  0  0
 23 29  1  0  0  0  0
 24 25  1  0  0  0  0
 24 28  1  0  0  0  0
 25 26  2  0  0  0  0
 25 27  1  0  0  0  0
 34 35  1  0  0  0  0
 34 36  1  0  0  0  0
 46 47  1  0  0  0  0
 46 70  1  0  0  0  0
 47 48  2  0  0  0  0
 47 65  1  0  0  0  0
 48 49  1  0  0  0  0
 48 69  1  0  0  0  0
 49 50  2  0  0  0  0
 49 68  1  0  0  0  0
 50 51  1  0  0  0  0
 50 64  1  0  0  0  0
 51 52  1  0  0  0  0
 51 56  1  0  0  0  0
 52 53  1  0  0  0  0
 52 62  1  0  0  0  0
 52 63  1  0  0  0  0
 53 54  1  0  0  0  0
 53 60  1  0  0  0  0
 53 61  1  0  0  0  0
 54 55  1  0  0  0  0
 55 56  1  0  0  0  0
 55 58  1  0  0  0  0
 55 59  1  0  0  0  0
 56 57  2  0  0  0  0
 64 65  2  0  0  0  0
 64 67  1  0  0  0  0
 65 66  1  0  0  0  0
M  CHG  1   4   1
M  END
>  <MODEL>
       1

$$$$
