output/tmp_first_model_16_71.pdb
 OpenBabel07242621343D

 50 54  0  0  1  0  0  0  0  0999 V2000
  -10.3860   -0.9240  -23.4600 C   0  0  0  0  0  0  0  0  0  0  0  0
   -8.9890   -1.3780  -23.0380 C   0  0  1  0  0  0  0  0  0  0  0  0
   -8.3770   -0.4950  -21.9340 C   0  0  0  0  0  0  0  0  0  0  0  0
   -7.4190   -1.3840  -21.2900 N   0  0  0  0  0  0  0  0  0  0  0  0
   -6.5700   -0.9740  -20.2320 C   0  0  0  0  0  0  0  0  0  0  0  0
   -6.8410   -1.3310  -18.9340 C   0  0  0  0  0  0  0  0  0  0  0  0
   -6.1100   -0.9300  -17.8650 N   0  0  0  0  0  0  0  0  0  0  0  0
   -5.0740   -0.1550  -18.0900 C   0  0  0  0  0  0  0  0  0  0  0  0
   -4.6770    0.2900  -19.3850 C   0  0  0  0  0  0  0  0  0  0  0  0
   -3.5740    1.1640  -19.5820 C   0  0  0  0  0  0  0  0  0  0  0  0
   -3.2240    1.5640  -20.8440 C   0  0  0  0  0  0  0  0  0  0  0  0
   -3.9410    1.0920  -21.9640 C   0  0  0  0  0  0  0  0  0  0  0  0
   -5.0170    0.2520  -21.7970 C   0  0  0  0  0  0  0  0  0  0  0  0
   -5.4320   -0.1430  -20.4960 C   0  0  0  0  0  0  0  0  0  0  0  0
   -5.5520   -0.1240  -22.6590 H   0  0  0  0  0  0  0  0  0  0  0  0
   -3.6370    1.4000  -22.9610 H   0  0  0  0  0  0  0  0  0  0  0  0
   -2.3880    2.2420  -20.9960 H   0  0  0  0  0  0  0  0  0  0  0  0
   -3.0250    1.5130  -18.7120 H   0  0  0  0  0  0  0  0  0  0  0  0
   -4.4860    0.1450  -17.2240 H   0  0  0  0  0  0  0  0  0  0  0  0
   -7.6880   -1.9800  -18.7150 H   0  0  0  0  0  0  0  0  0  0  0  0
   -7.7280   -2.7170  -21.4720 C   0  0  0  0  0  0  0  0  0  0  0  0
   -7.1520   -3.6260  -20.9090 O   0  0  0  0  0  0  0  0  0  0  0  0
   -8.8910   -2.8400  -22.4740 C   0  0  1  0  0  0  0  0  0  0  0  0
  -10.1430   -3.2580  -21.6640 C   0  0  0  0  0  0  0  0  0  0  0  0
  -11.2580   -3.6920  -22.5010 N   0  0  0  0  0  0  0  0  0  0  0  0
  -12.6290   -3.4840  -22.0700 C   0  0  0  0  0  0  0  0  0  0  0  0
  -13.3070   -2.3820  -22.7830 C   0  0  0  0  0  0  0  0  0  0  0  0
  -13.8140   -1.5160  -23.3640 N   0  0  0  0  0  0  0  0  0  0  0  0
  -12.6410   -3.2720  -21.0020 H   0  0  0  0  0  0  0  0  0  0  0  0
  -13.2060   -4.3930  -22.2520 H   0  0  0  0  0  0  0  0  0  0  0  0
  -11.0690   -4.5530  -23.5540 C   0  0  0  0  0  0  0  0  0  0  0  0
  -11.9990   -5.1180  -24.1040 O   0  0  0  0  0  0  0  0  0  0  0  0
   -9.6440   -4.7300  -23.9820 C   0  0  0  0  0  0  0  0  0  0  0  0
   -9.3750   -5.7550  -24.8870 C   0  0  0  0  0  0  0  0  0  0  0  0
   -8.0940   -5.9760  -25.3670 C   0  0  0  0  0  0  0  0  0  0  0  0
   -7.0810   -5.1360  -24.9150 C   0  0  0  0  0  0  0  0  0  0  0  0
   -5.8360   -5.3140  -25.3920 F   0  0  0  0  0  0  0  0  0  0  0  0
   -7.3080   -4.1240  -23.9990 C   0  0  0  0  0  0  0  0  0  0  0  0
   -8.6090   -3.9130  -23.5080 C   0  0  0  0  0  0  0  0  0  0  0  0
   -6.4630   -3.5410  -23.6400 H   0  0  0  0  0  0  0  0  0  0  0  0
   -7.8570   -6.7890  -26.0500 H   0  0  0  0  0  0  0  0  0  0  0  0
  -10.2070   -6.3740  -25.2040 H   0  0  0  0  0  0  0  0  0  0  0  0
   -9.8360   -4.0580  -20.9810 H   0  0  0  0  0  0  0  0  0  0  0  0
  -10.4710   -2.4120  -21.0520 H   0  0  0  0  0  0  0  0  0  0  0  0
   -9.1390   -0.1560  -21.2100 H   0  0  0  0  0  0  0  0  0  0  0  0
   -7.8740    0.3940  -22.3310 H   0  0  0  0  0  0  0  0  0  0  0  0
   -8.3130   -1.3470  -23.9050 H   0  0  0  0  0  0  0  0  0  0  0  0
  -10.3580    0.0730  -23.9110 H   0  0  0  0  0  0  0  0  0  0  0  0
  -11.0670   -0.8710  -22.6010 H   0  0  0  0  0  0  0  0  0  0  0  0
  -10.8210   -1.6240  -24.1800 H   0  0  0  0  0  0  0  0  0  0  0  0
  1  2  1  0  0  0  0
  1 48  1  0  0  0  0
  1 49  1  0  0  0  0
  1 50  1  0  0  0  0
  2  3  1  0  0  0  0
  2 23  1  0  0  0  0
  2 47  1  6  0  0  0
  3  4  1  0  0  0  0
  3 45  1  0  0  0  0
  3 46  1  0  0  0  0
  4  5  1  0  0  0  0
  4 21  1  0  0  0  0
  5  6  2  0  0  0  0
  5 14  1  0  0  0  0
  6  7  1  0  0  0  0
  6 20  1  0  0  0  0
  7  8  2  0  0  0  0
  8  9  1  0  0  0  0
  8 19  1  0  0  0  0
  9 10  2  0  0  0  0
  9 14  1  0  0  0  0
 10 11  1  0  0  0  0
 10 18  1  0  0  0  0
 11 12  2  0  0  0  0
 11 17  1  0  0  0  0
 12 13  1  0  0  0  0
 12 16  1  0  0  0  0
 13 14  2  0  0  0  0
 13 15  1  0  0  0  0
 21 22  2  0  0  0  0
 23 21  1  1  0  0  0
 23 24  1  0  0  0  0
 23 39  1  0  0  0  0
 24 25  1  0  0  0  0
 24 43  1  0  0  0  0
 24 44  1  0  0  0  0
 25 26  1  0  0  0  0
 25 31  1  0  0  0  0
 26 27  1  0  0  0  0
 26 29  1  0  0  0  0
 26 30  1  0  0  0  0
 27 28  3  0  0  0  0
 31 32  2  0  0  0  0
 31 33  1  0  0  0  0
 33 34  2  0  0  0  0
 33 39  1  0  0  0  0
 34 35  1  0  0  0  0
 34 42  1  0  0  0  0
 35 36  2  0  0  0  0
 35 41  1  0  0  0  0
 36 37  1  0  0  0  0
 36 38  1  0  0  0  0
 38 39  2  0  0  0  0
 38 40  1  0  0  0  0
M  END
>  <MODEL>
       1

$$$$
