output/tmp_first_model_2_78.pdb
 OpenBabel07242613513D

 56 60  0  0  1  0  0  0  0  0999 V2000
  -14.4820   -1.6000  -23.7480 C   0  0  0  0  0  0  0  0  0  0  0  0
  -13.7650   -2.7550  -23.2590 N   0  0  0  0  0  0  0  0  0  0  0  0
  -13.3590   -2.7600  -21.9690 C   0  0  0  0  0  0  0  0  0  0  0  0
  -13.7090   -1.9270  -21.1530 O   0  0  0  0  0  0  0  0  0  0  0  0
  -12.4570   -3.9350  -21.6320 C   0  0  0  0  0  0  0  0  0  0  0  0
  -11.1390   -3.8460  -22.2390 N   0  0  0  0  0  0  0  0  0  0  0  0
  -10.0120   -3.3700  -21.4530 C   0  0  0  0  0  0  0  0  0  0  0  0
   -8.8100   -2.9230  -22.3100 C   0  0  2  0  0  0  0  0  0  0  0  0
   -7.6150   -2.7290  -21.3660 C   0  0  0  0  0  0  0  0  0  0  0  0
   -6.9780   -3.5990  -20.8080 O   0  0  0  0  0  0  0  0  0  0  0  0
   -7.3700   -1.3770  -21.2350 N   0  0  0  0  0  0  0  0  0  0  0  0
   -6.5710   -0.8750  -20.1830 C   0  0  0  0  0  0  0  0  0  0  0  0
   -6.8970   -1.1110  -18.8710 C   0  0  0  0  0  0  0  0  0  0  0  0
   -6.2370   -0.5690  -17.8160 N   0  0  0  0  0  0  0  0  0  0  0  0
   -5.2130    0.2060  -18.0820 C   0  0  0  0  0  0  0  0  0  0  0  0
   -4.7570    0.5080  -19.3970 C   0  0  0  0  0  0  0  0  0  0  0  0
   -3.6330    1.3390  -19.6310 C   0  0  0  0  0  0  0  0  0  0  0  0
   -3.2270    1.6050  -20.9110 C   0  0  0  0  0  0  0  0  0  0  0  0
   -3.9250    1.0610  -22.0110 C   0  0  0  0  0  0  0  0  0  0  0  0
   -5.0190    0.2550  -21.8120 C   0  0  0  0  0  0  0  0  0  0  0  0
   -5.4570   -0.0380  -20.4920 C   0  0  0  0  0  0  0  0  0  0  0  0
   -5.5490   -0.1690  -22.6590 H   0  0  0  0  0  0  0  0  0  0  0  0
   -3.5970    1.2910  -23.0210 H   0  0  0  0  0  0  0  0  0  0  0  0
   -2.3690    2.2470  -21.0870 H   0  0  0  0  0  0  0  0  0  0  0  0
   -3.1180    1.7590  -18.7730 H   0  0  0  0  0  0  0  0  0  0  0  0
   -4.6800    0.6390  -17.2350 H   0  0  0  0  0  0  0  0  0  0  0  0
   -7.7380   -1.7550  -18.6200 H   0  0  0  0  0  0  0  0  0  0  0  0
   -8.3660   -0.5450  -21.8960 C   0  0  0  0  0  0  0  0  0  0  0  0
   -9.0000   -1.4930  -22.9240 C   0  0  2  0  0  0  0  0  0  0  0  0
  -10.4440   -1.1470  -23.2700 C   0  0  0  0  0  0  0  0  0  0  0  0
  -11.0580   -1.1220  -22.3630 H   0  0  0  0  0  0  0  0  0  0  0  0
  -10.5240   -0.1790  -23.7710 H   0  0  0  0  0  0  0  0  0  0  0  0
  -10.8590   -1.9170  -23.9270 H   0  0  0  0  0  0  0  0  0  0  0  0
   -8.3910   -1.4680  -23.8410 H   0  0  0  0  0  0  0  0  0  0  0  0
   -7.8960    0.3280  -22.3610 H   0  0  0  0  0  0  0  0  0  0  0  0
   -9.1150   -0.1800  -21.1750 H   0  0  0  0  0  0  0  0  0  0  0  0
   -8.5470   -3.9600  -23.3680 C   0  0  0  0  0  0  0  0  0  0  0  0
   -7.2690   -4.0870  -23.9140 C   0  0  0  0  0  0  0  0  0  0  0  0
   -7.0420   -5.0170  -24.9090 C   0  0  0  0  0  0  0  0  0  0  0  0
   -5.4660   -5.1110  -25.6290 Cl  0  0  0  0  0  0  0  0  0  0  0  0
   -8.0520   -5.8640  -25.3620 C   0  0  0  0  0  0  0  0  0  0  0  0
   -9.3230   -5.7150  -24.8370 C   0  0  0  0  0  0  0  0  0  0  0  0
   -9.5900   -4.7290  -23.8890 C   0  0  0  0  0  0  0  0  0  0  0  0
  -10.9880   -4.4960  -23.4200 C   0  0  0  0  0  0  0  0  0  0  0  0
  -11.9800   -4.8270  -24.0700 O   0  0  0  0  0  0  0  0  0  0  0  0
  -10.1290   -6.3670  -25.1520 H   0  0  0  0  0  0  0  0  0  0  0  0
   -7.8350   -6.6160  -26.1150 H   0  0  0  0  0  0  0  0  0  0  0  0
   -6.4540   -3.4710  -23.5480 H   0  0  0  0  0  0  0  0  0  0  0  0
   -9.6960   -4.1750  -20.7890 H   0  0  0  0  0  0  0  0  0  0  0  0
  -10.3350   -2.5020  -20.8690 H   0  0  0  0  0  0  0  0  0  0  0  0
  -12.9480   -4.7850  -22.1030 H   0  0  0  0  0  0  0  0  0  0  0  0
  -12.4010   -4.0780  -20.5550 H   0  0  0  0  0  0  0  0  0  0  0  0
  -13.4120   -3.4810  -23.8830 H   0  0  0  0  0  0  0  0  0  0  0  0
  -13.8460   -0.7040  -23.7410 H   0  0  0  0  0  0  0  0  0  0  0  0
  -14.8250   -1.7850  -24.7660 H   0  0  0  0  0  0  0  0  0  0  0  0
  -15.3410   -1.4070  -23.1000 H   0  0  0  0  0  0  0  0  0  0  0  0
  1  2  1  0  0  0  0
  1 54  1  0  0  0  0
  1 55  1  0  0  0  0
  1 56  1  0  0  0  0
  2  3  1  0  0  0  0
  2 53  1  0  0  0  0
  3  4  2  0  0  0  0
  3  5  1  0  0  0  0
  5  6  1  0  0  0  0
  5 51  1  0  0  0  0
  5 52  1  0  0  0  0
  6  7  1  0  0  0  0
  6 44  1  0  0  0  0
  7  8  1  0  0  0  0
  7 49  1  0  0  0  0
  7 50  1  0  0  0  0
  8  9  1  1  0  0  0
  8 29  1  0  0  0  0
  8 37  1  0  0  0  0
  9 10  2  0  0  0  0
  9 11  1  0  0  0  0
 11 12  1  0  0  0  0
 11 28  1  0  0  0  0
 12 13  2  0  0  0  0
 12 21  1  0  0  0  0
 13 14  1  0  0  0  0
 13 27  1  0  0  0  0
 14 15  2  0  0  0  0
 15 16  1  0  0  0  0
 15 26  1  0  0  0  0
 16 17  2  0  0  0  0
 16 21  1  0  0  0  0
 17 18  1  0  0  0  0
 17 25  1  0  0  0  0
 18 19  2  0  0  0  0
 18 24  1  0  0  0  0
 19 20  1  0  0  0  0
 19 23  1  0  0  0  0
 20 21  2  0  0  0  0
 20 22  1  0  0  0  0
 28 29  1  0  0  0  0
 28 35  1  0  0  0  0
 28 36  1  0  0  0  0
 29 30  1  0  0  0  0
 29 34  1  6  0  0  0
 30 31  1  0  0  0  0
 30 32  1  0  0  0  0
 30 33  1  0  0  0  0
 37 38  2  0  0  0  0
 37 43  1  0  0  0  0
 38 39  1  0  0  0  0
 38 48  1  0  0  0  0
 39 40  1  0  0  0  0
 39 41  2  0  0  0  0
 41 42  1  0  0  0  0
 41 47  1  0  0  0  0
 42 43  2  0  0  0  0
 42 46  1  0  0  0  0
 43 44  1  0  0  0  0
 44 45  2  0  0  0  0
M  END
>  <MODEL>
       1

$$$$
