output/tmp_first_model_1_84.pdb
 OpenBabel07242613193D

 63 68  0  0  1  0  0  0  0  0999 V2000
   -7.2370   -4.7340  -23.2320 C   0  0  0  0  0  0  0  0  0  0  0  0
   -7.3720   -3.5020  -22.3410 C   0  0  1  0  0  0  0  0  0  0  0  0
   -6.2650   -3.2650  -21.2900 C   0  0  0  0  0  0  0  0  0  0  0  0
   -6.4690   -1.8560  -20.9640 N   0  0  0  0  0  0  0  0  0  0  0  0
   -5.9370   -1.1260  -19.8830 C   0  0  0  0  0  0  0  0  0  0  0  0
   -6.3660   -1.3450  -18.5990 C   0  0  0  0  0  0  0  0  0  0  0  0
   -5.9250   -0.6530  -17.5190 N   0  0  0  0  0  0  0  0  0  0  0  0
   -5.0100    0.2680  -17.7150 C   0  0  0  0  0  0  0  0  0  0  0  0
   -4.4490    0.5650  -18.9910 C   0  0  0  0  0  0  0  0  0  0  0  0
   -3.4050    1.5160  -19.1500 C   0  0  0  0  0  0  0  0  0  0  0  0
   -2.9490    1.8420  -20.3980 C   0  0  0  0  0  0  0  0  0  0  0  0
   -3.5310    1.2470  -21.5410 C   0  0  0  0  0  0  0  0  0  0  0  0
   -4.5100    0.2970  -21.4150 C   0  0  0  0  0  0  0  0  0  0  0  0
   -4.9710   -0.0960  -20.1230 C   0  0  0  0  0  0  0  0  0  0  0  0
   -4.9540   -0.1420  -22.3060 H   0  0  0  0  0  0  0  0  0  0  0  0
   -3.1990    1.5520  -22.5300 H   0  0  0  0  0  0  0  0  0  0  0  0
   -2.1530    2.5720  -20.5220 H   0  0  0  0  0  0  0  0  0  0  0  0
   -2.9890    1.9760  -18.2580 H   0  0  0  0  0  0  0  0  0  0  0  0
   -4.6690    0.8330  -16.8450 H   0  0  0  0  0  0  0  0  0  0  0  0
   -7.1360   -2.0940  -18.4090 H   0  0  0  0  0  0  0  0  0  0  0  0
   -7.2300   -1.1900  -21.9010 C   0  0  0  0  0  0  0  0  0  0  0  0
   -7.6730   -0.0730  -21.7590 O   0  0  0  0  0  0  0  0  0  0  0  0
   -7.4270   -2.1410  -23.0980 C   0  0  1  0  0  0  0  0  0  0  0  0
   -6.2520   -2.0010  -24.1170 C   0  0  0  0  0  0  0  0  0  0  0  0
   -6.3130   -0.7310  -24.8450 N   0  0  0  0  0  0  0  0  0  0  0  0
   -5.0770   -0.1180  -25.3340 C   0  0  0  0  0  0  0  0  0  0  0  0
   -4.5230   -0.6710  -26.6600 C   0  0  0  0  0  0  0  0  0  0  0  0
   -3.3720   -1.0520  -26.7370 O   0  0  0  0  0  0  0  0  0  0  0  0
   -5.3970   -0.6900  -27.7130 N   0  0  0  0  0  0  0  0  0  0  0  0
   -5.2190   -1.7620  -28.6730 C   0  0  0  0  0  0  0  0  0  0  0  0
   -5.7950   -3.0240  -28.0840 C   0  0  0  0  0  0  0  0  0  0  0  0
   -5.0560   -3.3910  -26.9710 F   0  0  0  0  0  0  0  0  0  0  0  0
   -6.4600   -4.1700  -28.7490 C   0  0  0  0  0  0  0  0  0  0  0  0
   -7.2730   -3.1660  -27.9400 C   0  0  0  0  0  0  0  0  0  0  0  0
   -7.8910   -2.4840  -28.5240 H   0  0  0  0  0  0  0  0  0  0  0  0
   -7.6540   -3.4340  -26.9550 H   0  0  0  0  0  0  0  0  0  0  0  0
   -6.5630   -4.1830  -29.8300 H   0  0  0  0  0  0  0  0  0  0  0  0
   -6.2840   -5.1420  -28.2920 H   0  0  0  0  0  0  0  0  0  0  0  0
   -5.6990   -1.4840  -29.6140 H   0  0  0  0  0  0  0  0  0  0  0  0
   -4.1420   -1.8640  -28.8100 H   0  0  0  0  0  0  0  0  0  0  0  0
   -6.3310   -0.3230  -27.5520 H   0  0  0  0  0  0  0  0  0  0  0  0
   -5.2860    0.9500  -25.4560 H   0  0  0  0  0  0  0  0  0  0  0  0
   -4.2680   -0.2560  -24.6080 H   0  0  0  0  0  0  0  0  0  0  0  0
   -7.4870   -0.3230  -25.4040 C   0  0  0  0  0  0  0  0  0  0  0  0
   -7.5140    0.4940  -26.3320 O   0  0  0  0  0  0  0  0  0  0  0  0
   -8.7460   -0.8940  -24.8410 C   0  0  0  0  0  0  0  0  0  0  0  0
   -9.9490   -0.4550  -25.3820 C   0  0  0  0  0  0  0  0  0  0  0  0
  -11.1540   -0.8810  -24.8770 C   0  0  0  0  0  0  0  0  0  0  0  0
  -11.1290   -1.7660  -23.8050 C   0  0  0  0  0  0  0  0  0  0  0  0
  -12.2910   -2.1770  -23.2730 F   0  0  0  0  0  0  0  0  0  0  0  0
   -9.9540   -2.2200  -23.2420 C   0  0  0  0  0  0  0  0  0  0  0  0
   -8.7280   -1.8010  -23.7730 C   0  0  0  0  0  0  0  0  0  0  0  0
  -10.0260   -2.8520  -22.3650 H   0  0  0  0  0  0  0  0  0  0  0  0
  -12.0780   -0.4750  -25.2650 H   0  0  0  0  0  0  0  0  0  0  0  0
   -9.9010    0.2510  -26.1980 H   0  0  0  0  0  0  0  0  0  0  0  0
   -6.2860   -2.8340  -24.8380 H   0  0  0  0  0  0  0  0  0  0  0  0
   -5.2950   -2.0510  -23.5840 H   0  0  0  0  0  0  0  0  0  0  0  0
   -5.2690   -3.4450  -21.7260 H   0  0  0  0  0  0  0  0  0  0  0  0
   -6.3460   -3.8710  -20.3840 H   0  0  0  0  0  0  0  0  0  0  0  0
   -8.3050   -3.5740  -21.7660 H   0  0  0  0  0  0  0  0  0  0  0  0
   -8.0560   -4.7530  -23.9630 H   0  0  0  0  0  0  0  0  0  0  0  0
   -7.2610   -5.6720  -22.6670 H   0  0  0  0  0  0  0  0  0  0  0  0
   -6.3010   -4.7170  -23.8020 H   0  0  0  0  0  0  0  0  0  0  0  0
  1  2  1  0  0  0  0
  1 61  1  0  0  0  0
  1 62  1  0  0  0  0
  1 63  1  0  0  0  0
  2  3  1  0  0  0  0
  2 23  1  0  0  0  0
  2 60  1  1  0  0  0
  3  4  1  0  0  0  0
  3 58  1  0  0  0  0
  3 59  1  0  0  0  0
  4  5  1  0  0  0  0
  4 21  1  0  0  0  0
  5  6  2  0  0  0  0
  5 14  1  0  0  0  0
  6  7  1  0  0  0  0
  6 20  1  0  0  0  0
  7  8  2  0  0  0  0
  8  9  1  0  0  0  0
  8 19  1  0  0  0  0
  9 10  2  0  0  0  0
  9 14  1  0  0  0  0
 10 11  1  0  0  0  0
 10 18  1  0  0  0  0
 11 12  2  0  0  0  0
 11 17  1  0  0  0  0
 12 13  1  0  0  0  0
 12 16  1  0  0  0  0
 13 14  2  0  0  0  0
 13 15  1  0  0  0  0
 21 22  2  0  0  0  0
 23 21  1  1  0  0  0
 23 24  1  0  0  0  0
 23 52  1  0  0  0  0
 24 25  1  0  0  0  0
 24 56  1  0  0  0  0
 24 57  1  0  0  0  0
 25 26  1  0  0  0  0
 25 44  1  0  0  0  0
 26 27  1  0  0  0  0
 26 42  1  0  0  0  0
 26 43  1  0  0  0  0
 27 28  2  0  0  0  0
 27 29  1  0  0  0  0
 29 30  1  0  0  0  0
 29 41  1  0  0  0  0
 30 31  1  0  0  0  0
 30 39  1  0  0  0  0
 30 40  1  0  0  0  0
 31 32  1  0  0  0  0
 31 33  1  0  0  0  0
 31 34  1  0  0  0  0
 33 34  1  0  0  0  0
 33 37  1  0  0  0  0
 33 38  1  0  0  0  0
 34 35  1  0  0  0  0
 34 36  1  0  0  0  0
 44 45  2  0  0  0  0
 44 46  1  0  0  0  0
 46 47  2  0  0  0  0
 46 52  1  0  0  0  0
 47 48  1  0  0  0  0
 47 55  1  0  0  0  0
 48 49  2  0  0  0  0
 48 54  1  0  0  0  0
 49 50  1  0  0  0  0
 49 51  1  0  0  0  0
 51 52  2  0  0  0  0
 51 53  1  0  0  0  0
M  END
>  <MODEL>
       1

$$$$
