output/tmp_first_model_4_68.pdb
 OpenBabel07242615033D

 65 70  0  0  1  0  0  0  0  0999 V2000
   -9.0690    0.1880  -20.8160 O   0  0  0  0  0  0  0  0  0  0  0  0
   -8.2800   -0.1600  -21.6700 C   0  0  0  0  0  0  0  0  0  0  0  0
   -7.4560   -1.4200  -21.4000 C   0  0  0  0  0  0  0  0  0  0  0  0
   -6.4490   -1.1170  -20.3170 C   0  0  0  0  0  0  0  0  0  0  0  0
   -6.6490   -1.5130  -19.0210 C   0  0  0  0  0  0  0  0  0  0  0  0
   -5.7540   -1.3570  -18.0140 N   0  0  0  0  0  0  0  0  0  0  0  0
   -4.6450   -0.7220  -18.2960 C   0  0  0  0  0  0  0  0  0  0  0  0
   -4.3470   -0.1730  -19.5760 C   0  0  0  0  0  0  0  0  0  0  0  0
   -3.1620    0.5600  -19.8160 C   0  0  0  0  0  0  0  0  0  0  0  0
   -2.9060    1.1010  -21.0440 C   0  0  0  0  0  0  0  0  0  0  0  0
   -3.8460    0.9530  -22.0830 C   0  0  0  0  0  0  0  0  0  0  0  0
   -4.9890    0.2170  -21.8860 C   0  0  0  0  0  0  0  0  0  0  0  0
   -5.2800   -0.3580  -20.6190 C   0  0  0  0  0  0  0  0  0  0  0  0
   -5.6910    0.1170  -22.7050 H   0  0  0  0  0  0  0  0  0  0  0  0
   -3.6670    1.4280  -23.0420 H   0  0  0  0  0  0  0  0  0  0  0  0
   -1.9830    1.6410  -21.2260 H   0  0  0  0  0  0  0  0  0  0  0  0
   -2.4680    0.6970  -18.9940 H   0  0  0  0  0  0  0  0  0  0  0  0
   -3.9120   -0.6250  -17.4970 H   0  0  0  0  0  0  0  0  0  0  0  0
   -7.5830   -1.9950  -18.7270 H   0  0  0  0  0  0  0  0  0  0  0  0
   -6.9590   -1.8020  -22.2940 H   0  0  0  0  0  0  0  0  0  0  0  0
   -8.1570   -2.1830  -21.0400 H   0  0  0  0  0  0  0  0  0  0  0  0
   -8.0730    0.5650  -22.8470 N   0  0  0  0  0  0  0  0  0  0  0  0
   -8.0180   -0.0810  -24.1590 C   0  0  0  0  0  0  0  0  0  0  0  0
   -9.3870   -0.3010  -24.7790 C   0  0  0  0  0  0  0  0  0  0  0  0
   -9.6970    0.1500  -26.0590 C   0  0  0  0  0  0  0  0  0  0  0  0
  -10.9870    0.0130  -26.5680 C   0  0  0  0  0  0  0  0  0  0  0  0
  -11.9750   -0.6240  -25.8220 C   0  0  0  0  0  0  0  0  0  0  0  0
  -11.6490   -1.1030  -24.5600 C   0  0  0  0  0  0  0  0  0  0  0  0
  -12.8620   -1.8900  -23.5880 Cl  0  0  0  0  0  0  0  0  0  0  0  0
  -10.3760   -0.9430  -24.0320 C   0  0  0  0  0  0  0  0  0  0  0  0
  -10.1790   -1.2800  -23.0190 H   0  0  0  0  0  0  0  0  0  0  0  0
  -12.9870   -0.7530  -26.1920 H   0  0  0  0  0  0  0  0  0  0  0  0
  -11.2080    0.4270  -27.5480 H   0  0  0  0  0  0  0  0  0  0  0  0
   -8.9320    0.6190  -26.6780 H   0  0  0  0  0  0  0  0  0  0  0  0
   -7.3920    0.5210  -24.8250 H   0  0  0  0  0  0  0  0  0  0  0  0
   -7.5130   -1.0440  -24.0470 H   0  0  0  0  0  0  0  0  0  0  0  0
   -8.4200    1.9900  -22.8010 C   0  0  2  0  0  0  0  0  0  0  0  0
   -9.9230    2.3430  -22.7640 C   0  0  0  0  0  0  0  0  0  0  0  0
   -9.9300    3.8610  -23.0970 C   0  0  0  0  0  0  0  0  0  0  0  0
   -8.4460    4.1880  -23.2850 C   0  0  2  0  0  0  0  0  0  0  0  0
   -7.9250    2.8990  -23.9330 C   0  0  0  0  0  0  0  0  0  0  0  0
   -8.4550    2.6870  -24.8650 H   0  0  0  0  0  0  0  0  0  0  0  0
   -6.8380    2.8690  -24.0800 H   0  0  0  0  0  0  0  0  0  0  0  0
   -7.8180    4.1640  -21.8780 N   0  3  2  0  0  0  0  0  0  0  0  0
   -6.4960    4.8830  -21.7460 C   0  0  0  0  0  0  0  0  0  0  0  0
   -5.8600    4.9220  -20.3600 C   0  0  0  0  0  0  0  0  0  0  0  0
   -4.3900    5.3770  -20.2630 C   0  0  0  0  0  0  0  0  0  0  0  0
   -4.6970    6.3460  -19.2430 O   0  0  0  0  0  0  0  0  0  0  0  0
   -6.1050    6.0780  -19.3700 C   0  0  0  0  0  0  0  0  0  0  0  0
   -6.6470    6.9450  -19.7740 H   0  0  0  0  0  0  0  0  0  0  0  0
   -6.5510    5.7870  -18.4120 H   0  0  0  0  0  0  0  0  0  0  0  0
   -3.6940    4.6070  -19.9060 H   0  0  0  0  0  0  0  0  0  0  0  0
   -3.9670    5.8520  -21.1640 H   0  0  0  0  0  0  0  0  0  0  0  0
   -5.9710    3.9410  -19.8990 H   0  0  0  0  0  0  0  0  0  0  0  0
   -5.7740    4.3900  -22.4110 H   0  0  0  0  0  0  0  0  0  0  0  0
   -6.6150    5.9030  -22.1240 H   0  0  0  0  0  0  0  0  0  0  0  0
   -7.7780    2.6670  -21.5910 C   0  0  0  0  0  0  0  0  0  0  0  0
   -6.7380    2.3680  -21.4490 H   0  0  0  0  0  0  0  0  0  0  0  0
   -8.3560    2.4490  -20.6940 H   0  0  0  0  0  0  0  0  0  0  0  0
   -8.4940    4.5850  -21.2120 H   0  0  0  0  0  0  0  0  0  0  0  0
   -8.2270    5.1340  -23.7770 H   0  0  0  0  0  0  0  0  0  0  0  0
  -10.4850    4.0480  -24.0200 H   0  0  0  0  0  0  0  0  0  0  0  0
  -10.3770    4.4870  -22.3170 H   0  0  0  0  0  0  0  0  0  0  0  0
  -10.4390    1.7720  -23.5370 H   0  0  0  0  0  0  0  0  0  0  0  0
  -10.3600    2.0870  -21.7960 H   0  0  0  0  0  0  0  0  0  0  0  0
  1  2  2  0  0  0  0
  2  3  1  0  0  0  0
  2 22  1  0  0  0  0
  3  4  1  0  0  0  0
  3 20  1  0  0  0  0
  3 21  1  0  0  0  0
  4  5  2  0  0  0  0
  4 13  1  0  0  0  0
  5  6  1  0  0  0  0
  5 19  1  0  0  0  0
  6  7  2  0  0  0  0
  7  8  1  0  0  0  0
  7 18  1  0  0  0  0
  8  9  2  0  0  0  0
  8 13  1  0  0  0  0
  9 10  1  0  0  0  0
  9 17  1  0  0  0  0
 10 11  2  0  0  0  0
 10 16  1  0  0  0  0
 11 12  1  0  0  0  0
 11 15  1  0  0  0  0
 12 13  2  0  0  0  0
 12 14  1  0  0  0  0
 22 23  1  0  0  0  0
 23 24  1  0  0  0  0
 23 35  1  0  0  0  0
 23 36  1  0  0  0  0
 24 25  2  0  0  0  0
 24 30  1  0  0  0  0
 25 26  1  0  0  0  0
 25 34  1  0  0  0  0
 26 27  2  0  0  0  0
 26 33  1  0  0  0  0
 27 28  1  0  0  0  0
 27 32  1  0  0  0  0
 28 29  1  0  0  0  0
 28 30  2  0  0  0  0
 30 31  1  0  0  0  0
 37 22  1  6  0  0  0
 37 38  1  0  0  0  0
 37 41  1  0  0  0  0
 37 57  1  0  0  0  0
 38 39  1  0  0  0  0
 38 64  1  0  0  0  0
 38 65  1  0  0  0  0
 39 40  1  0  0  0  0
 39 62  1  0  0  0  0
 39 63  1  0  0  0  0
 40 41  1  0  0  0  0
 40 44  1  0  0  0  0
 40 61  1  6  0  0  0
 41 42  1  0  0  0  0
 41 43  1  0  0  0  0
 44 45  1  0  0  0  0
 44 57  1  0  0  0  0
 44 60  1  1  0  0  0
 45 46  1  0  0  0  0
 45 55  1  0  0  0  0
 45 56  1  0  0  0  0
 46 47  1  0  0  0  0
 46 49  1  0  0  0  0
 46 54  1  0  0  0  0
 47 48  1  0  0  0  0
 47 52  1  0  0  0  0
 47 53  1  0  0  0  0
 48 49  1  0  0  0  0
 49 50  1  0  0  0  0
 49 51  1  0  0  0  0
 57 58  1  0  0  0  0
 57 59  1  0  0  0  0
M  CHG  1  44   1
M  END
>  <MODEL>
       1

$$$$
