output/tmp_first_model_5_30.pdb
 OpenBabel07242615323D

 58 63  0  0  1  0  0  0  0  0999 V2000
   -8.3240   -4.3290  -23.8950 C   0  0  0  0  0  0  0  0  0  0  0  0
   -8.4200   -3.4080  -22.6910 C   0  0  1  0  0  0  0  0  0  0  0  0
   -7.0820   -2.7890  -22.2910 C   0  0  0  0  0  0  0  0  0  0  0  0
   -7.5050   -1.7790  -21.3530 N   0  0  0  0  0  0  0  0  0  0  0  0
   -6.6710   -1.3370  -20.2960 C   0  0  0  0  0  0  0  0  0  0  0  0
   -6.8500   -1.7690  -19.0040 C   0  0  0  0  0  0  0  0  0  0  0  0
   -5.9380   -1.5840  -18.0150 N   0  0  0  0  0  0  0  0  0  0  0  0
   -4.8400   -0.9260  -18.3090 C   0  0  0  0  0  0  0  0  0  0  0  0
   -4.5930   -0.3130  -19.5690 C   0  0  0  0  0  0  0  0  0  0  0  0
   -3.4800    0.5360  -19.8160 C   0  0  0  0  0  0  0  0  0  0  0  0
   -3.4270    1.2880  -20.9570 C   0  0  0  0  0  0  0  0  0  0  0  0
   -4.3820    1.1000  -21.9850 C   0  0  0  0  0  0  0  0  0  0  0  0
   -5.4150    0.2180  -21.8080 C   0  0  0  0  0  0  0  0  0  0  0  0
   -5.5660   -0.4800  -20.5800 C   0  0  0  0  0  0  0  0  0  0  0  0
   -6.1600    0.0930  -22.5910 H   0  0  0  0  0  0  0  0  0  0  0  0
   -4.2710    1.6500  -22.9160 H   0  0  0  0  0  0  0  0  0  0  0  0
   -2.6340    2.0190  -21.0790 H   0  0  0  0  0  0  0  0  0  0  0  0
   -2.7430    0.6580  -19.0270 H   0  0  0  0  0  0  0  0  0  0  0  0
   -4.0910   -0.8130  -17.5240 H   0  0  0  0  0  0  0  0  0  0  0  0
   -7.7380   -2.3280  -18.7170 H   0  0  0  0  0  0  0  0  0  0  0  0
   -8.8050   -1.3540  -21.5440 C   0  0  0  0  0  0  0  0  0  0  0  0
   -9.3100   -0.4500  -20.9200 O   0  0  0  0  0  0  0  0  0  0  0  0
   -9.4210   -2.2020  -22.7140 C   0  0  1  0  0  0  0  0  0  0  0  0
   -9.3540   -1.3820  -24.0310 C   0  0  0  0  0  0  0  0  0  0  0  0
  -10.4350   -0.4060  -24.1350 N   0  0  0  0  0  0  0  0  0  0  0  0
  -10.2070    0.9000  -24.7370 C   0  0  0  0  0  0  0  0  0  0  0  0
   -9.0500    1.6110  -24.0860 C   0  0  0  0  0  0  0  0  0  0  0  0
   -7.9390    1.9680  -24.7940 C   0  0  0  0  0  0  0  0  0  0  0  0
   -6.7690    2.4840  -24.1130 C   0  0  0  0  0  0  0  0  0  0  0  0
   -5.6720    2.7090  -24.5940 O   0  0  0  0  0  0  0  0  0  0  0  0
   -7.0230    2.7120  -22.7510 N   0  0  0  0  0  0  0  0  0  0  0  0
   -8.1800    2.3460  -22.1340 C   0  0  0  0  0  0  0  0  0  0  0  0
   -9.1990    1.8260  -22.7440 N   0  0  0  0  0  0  0  0  0  0  0  0
   -8.2180    2.5050  -21.0650 H   0  0  0  0  0  0  0  0  0  0  0  0
   -6.2450    3.0350  -22.1880 H   0  0  0  0  0  0  0  0  0  0  0  0
   -7.8850    1.8050  -25.8590 H   0  0  0  0  0  0  0  0  0  0  0  0
  -11.1250    1.4670  -24.5680 H   0  0  0  0  0  0  0  0  0  0  0  0
  -10.0630    0.8290  -25.8230 H   0  0  0  0  0  0  0  0  0  0  0  0
  -11.7330   -0.8210  -24.0350 C   0  0  0  0  0  0  0  0  0  0  0  0
  -12.6670   -0.2450  -24.5710 O   0  0  0  0  0  0  0  0  0  0  0  0
  -11.9420   -1.9950  -23.1540 C   0  0  0  0  0  0  0  0  0  0  0  0
  -13.2630   -2.3930  -22.9390 C   0  0  0  0  0  0  0  0  0  0  0  0
  -13.5640   -3.2810  -21.9340 C   0  0  0  0  0  0  0  0  0  0  0  0
  -12.5090   -3.7640  -21.1750 C   0  0  0  0  0  0  0  0  0  0  0  0
  -12.8050   -4.4440  -20.0560 F   0  0  0  0  0  0  0  0  0  0  0  0
  -11.1850   -3.5260  -21.4920 C   0  0  0  0  0  0  0  0  0  0  0  0
  -10.8690   -2.5940  -22.4800 C   0  0  0  0  0  0  0  0  0  0  0  0
  -10.4160   -4.0240  -20.9110 H   0  0  0  0  0  0  0  0  0  0  0  0
  -14.5780   -3.5840  -21.6980 H   0  0  0  0  0  0  0  0  0  0  0  0
  -14.0520   -1.9360  -23.5290 H   0  0  0  0  0  0  0  0  0  0  0  0
   -9.4070   -2.0790  -24.8790 H   0  0  0  0  0  0  0  0  0  0  0  0
   -8.4090   -0.8390  -24.0810 H   0  0  0  0  0  0  0  0  0  0  0  0
   -6.3910   -3.4900  -21.8110 H   0  0  0  0  0  0  0  0  0  0  0  0
   -6.5620   -2.3560  -23.1620 H   0  0  0  0  0  0  0  0  0  0  0  0
   -8.7150   -4.0090  -21.8260 H   0  0  0  0  0  0  0  0  0  0  0  0
   -9.2870   -4.7970  -24.1210 H   0  0  0  0  0  0  0  0  0  0  0  0
   -7.9790   -3.7870  -24.7830 H   0  0  0  0  0  0  0  0  0  0  0  0
   -7.6000   -5.1310  -23.6980 H   0  0  0  0  0  0  0  0  0  0  0  0
  1  2  1  0  0  0  0
  1 56  1  0  0  0  0
  1 57  1  0  0  0  0
  1 58  1  0  0  0  0
  2  3  1  0  0  0  0
  2 23  1  0  0  0  0
  2 55  1  1  0  0  0
  3  4  1  0  0  0  0
  3 53  1  0  0  0  0
  3 54  1  0  0  0  0
  4  5  1  0  0  0  0
  4 21  1  0  0  0  0
  5  6  2  0  0  0  0
  5 14  1  0  0  0  0
  6  7  1  0  0  0  0
  6 20  1  0  0  0  0
  7  8  2  0  0  0  0
  8  9  1  0  0  0  0
  8 19  1  0  0  0  0
  9 10  2  0  0  0  0
  9 14  1  0  0  0  0
 10 11  1  0  0  0  0
 10 18  1  0  0  0  0
 11 12  2  0  0  0  0
 11 17  1  0  0  0  0
 12 13  1  0  0  0  0
 12 16  1  0  0  0  0
 13 14  2  0  0  0  0
 13 15  1  0  0  0  0
 21 22  2  0  0  0  0
 23 21  1  1  0  0  0
 23 24  1  0  0  0  0
 23 47  1  0  0  0  0
 24 25  1  0  0  0  0
 24 51  1  0  0  0  0
 24 52  1  0  0  0  0
 25 26  1  0  0  0  0
 25 39  1  0  0  0  0
 26 27  1  0  0  0  0
 26 37  1  0  0  0  0
 26 38  1  0  0  0  0
 27 28  2  0  0  0  0
 27 33  1  0  0  0  0
 28 29  1  0  0  0  0
 28 36  1  0  0  0  0
 29 30  2  0  0  0  0
 29 31  1  0  0  0  0
 31 32  1  0  0  0  0
 31 35  1  0  0  0  0
 32 33  2  0  0  0  0
 32 34  1  0  0  0  0
 39 40  2  0  0  0  0
 39 41  1  0  0  0  0
 41 42  2  0  0  0  0
 41 47  1  0  0  0  0
 42 43  1  0  0  0  0
 42 50  1  0  0  0  0
 43 44  2  0  0  0  0
 43 49  1  0  0  0  0
 44 45  1  0  0  0  0
 44 46  1  0  0  0  0
 46 47  2  0  0  0  0
 46 48  1  0  0  0  0
M  END
>  <MODEL>
       1

$$$$
