output/tmp_first_model_11_57.pdb
 OpenBabel07242618513D

 59 63  0  0  1  0  0  0  0  0999 V2000
  -14.5310   -1.2690  -23.6690 C   0  0  0  0  0  0  0  0  0  0  0  0
  -13.7690   -2.4350  -23.2770 N   0  0  0  0  0  0  0  0  0  0  0  0
  -13.4360   -2.5850  -21.9700 C   0  0  0  0  0  0  0  0  0  0  0  0
  -13.8450   -1.8240  -21.1060 O   0  0  0  0  0  0  0  0  0  0  0  0
  -12.5720   -3.7970  -21.6300 C   0  0  0  0  0  0  0  0  0  0  0  0
  -11.2240   -3.7800  -22.1860 N   0  0  0  0  0  0  0  0  0  0  0  0
  -10.0870   -3.3010  -21.3990 C   0  0  0  0  0  0  0  0  0  0  0  0
   -8.8480   -2.9520  -22.2740 C   0  0  2  0  0  0  0  0  0  0  0  0
   -7.6670   -2.7280  -21.3180 C   0  0  0  0  0  0  0  0  0  0  0  0
   -7.0840   -3.5790  -20.6710 O   0  0  0  0  0  0  0  0  0  0  0  0
   -7.3700   -1.3820  -21.2560 N   0  0  0  0  0  0  0  0  0  0  0  0
   -6.5820   -0.8650  -20.1980 C   0  0  0  0  0  0  0  0  0  0  0  0
   -6.9030   -1.1100  -18.8860 C   0  0  0  0  0  0  0  0  0  0  0  0
   -6.2460   -0.5750  -17.8260 N   0  0  0  0  0  0  0  0  0  0  0  0
   -5.2220    0.2000  -18.0890 C   0  0  0  0  0  0  0  0  0  0  0  0
   -4.7590    0.5040  -19.4010 C   0  0  0  0  0  0  0  0  0  0  0  0
   -3.6310    1.3300  -19.6340 C   0  0  0  0  0  0  0  0  0  0  0  0
   -3.2260    1.6000  -20.9110 C   0  0  0  0  0  0  0  0  0  0  0  0
   -3.9250    1.0650  -22.0170 C   0  0  0  0  0  0  0  0  0  0  0  0
   -5.0210    0.2630  -21.8170 C   0  0  0  0  0  0  0  0  0  0  0  0
   -5.4630   -0.0320  -20.5010 C   0  0  0  0  0  0  0  0  0  0  0  0
   -5.5570   -0.1500  -22.6660 H   0  0  0  0  0  0  0  0  0  0  0  0
   -3.5960    1.2990  -23.0240 H   0  0  0  0  0  0  0  0  0  0  0  0
   -2.3690    2.2440  -21.0840 H   0  0  0  0  0  0  0  0  0  0  0  0
   -3.1170    1.7510  -18.7740 H   0  0  0  0  0  0  0  0  0  0  0  0
   -4.6920    0.6300  -17.2390 H   0  0  0  0  0  0  0  0  0  0  0  0
   -7.7370   -1.7650  -18.6450 H   0  0  0  0  0  0  0  0  0  0  0  0
   -8.3820   -0.5690  -21.9180 C   0  0  0  0  0  0  0  0  0  0  0  0
   -9.0000   -1.5210  -22.9730 C   0  0  0  0  0  0  0  0  0  0  0  0
  -10.4500   -1.1180  -23.2610 C   0  0  0  0  0  0  0  0  0  0  0  0
  -11.0560   -1.0950  -22.3510 H   0  0  0  0  0  0  0  0  0  0  0  0
  -10.8990   -1.8320  -23.9560 H   0  0  0  0  0  0  0  0  0  0  0  0
  -10.4810   -0.1230  -23.7130 H   0  0  0  0  0  0  0  0  0  0  0  0
   -8.2230   -1.4560  -24.2990 C   0  0  0  0  0  0  0  0  0  0  0  0
   -8.6420   -2.1840  -25.0020 H   0  0  0  0  0  0  0  0  0  0  0  0
   -8.3220   -0.4560  -24.7360 H   0  0  0  0  0  0  0  0  0  0  0  0
   -7.1580   -1.6880  -24.1720 H   0  0  0  0  0  0  0  0  0  0  0  0
   -7.9370    0.3300  -22.3600 H   0  0  0  0  0  0  0  0  0  0  0  0
   -9.1450   -0.2400  -21.1900 H   0  0  0  0  0  0  0  0  0  0  0  0
   -8.5960   -4.1250  -23.2010 C   0  0  0  0  0  0  0  0  0  0  0  0
   -7.3090   -4.4790  -23.6370 C   0  0  0  0  0  0  0  0  0  0  0  0
   -7.1530   -5.4700  -24.5940 C   0  0  0  0  0  0  0  0  0  0  0  0
   -5.5650   -5.8120  -25.2220 Cl  0  0  0  0  0  0  0  0  0  0  0  0
   -8.2430   -6.1770  -25.1020 C   0  0  0  0  0  0  0  0  0  0  0  0
   -9.5050   -5.8520  -24.6460 C   0  0  0  0  0  0  0  0  0  0  0  0
   -9.6840   -4.8210  -23.7310 C   0  0  0  0  0  0  0  0  0  0  0  0
  -11.0740   -4.4570  -23.3580 C   0  0  0  0  0  0  0  0  0  0  0  0
  -12.0410   -4.7540  -24.0590 O   0  0  0  0  0  0  0  0  0  0  0  0
  -10.3820   -6.3930  -24.9830 H   0  0  0  0  0  0  0  0  0  0  0  0
   -8.0980   -6.9520  -25.8490 H   0  0  0  0  0  0  0  0  0  0  0  0
   -6.4310   -3.9760  -23.2390 H   0  0  0  0  0  0  0  0  0  0  0  0
  -10.3760   -2.3860  -20.8690 H   0  0  0  0  0  0  0  0  0  0  0  0
   -9.7930   -4.0580  -20.6550 H   0  0  0  0  0  0  0  0  0  0  0  0
  -12.5590   -3.9350  -20.5420 H   0  0  0  0  0  0  0  0  0  0  0  0
  -13.0900   -4.6410  -22.1010 H   0  0  0  0  0  0  0  0  0  0  0  0
  -13.5300   -3.1680  -23.9270 H   0  0  0  0  0  0  0  0  0  0  0  0
  -13.9040   -0.3710  -23.6760 H   0  0  0  0  0  0  0  0  0  0  0  0
  -14.9610   -1.4260  -24.6570 H   0  0  0  0  0  0  0  0  0  0  0  0
  -15.3190   -1.1000  -22.9350 H   0  0  0  0  0  0  0  0  0  0  0  0
  1  2  1  0  0  0  0
  1 57  1  0  0  0  0
  1 58  1  0  0  0  0
  1 59  1  0  0  0  0
  2  3  1  0  0  0  0
  2 56  1  0  0  0  0
  3  4  2  0  0  0  0
  3  5  1  0  0  0  0
  5  6  1  0  0  0  0
  5 54  1  0  0  0  0
  5 55  1  0  0  0  0
  6  7  1  0  0  0  0
  6 47  1  0  0  0  0
  7  8  1  0  0  0  0
  7 52  1  0  0  0  0
  7 53  1  0  0  0  0
  8  9  1  1  0  0  0
  8 29  1  0  0  0  0
  8 40  1  0  0  0  0
  9 10  2  0  0  0  0
  9 11  1  0  0  0  0
 11 12  1  0  0  0  0
 11 28  1  0  0  0  0
 12 13  2  0  0  0  0
 12 21  1  0  0  0  0
 13 14  1  0  0  0  0
 13 27  1  0  0  0  0
 14 15  2  0  0  0  0
 15 16  1  0  0  0  0
 15 26  1  0  0  0  0
 16 17  2  0  0  0  0
 16 21  1  0  0  0  0
 17 18  1  0  0  0  0
 17 25  1  0  0  0  0
 18 19  2  0  0  0  0
 18 24  1  0  0  0  0
 19 20  1  0  0  0  0
 19 23  1  0  0  0  0
 20 21  2  0  0  0  0
 20 22  1  0  0  0  0
 28 29  1  0  0  0  0
 28 38  1  0  0  0  0
 28 39  1  0  0  0  0
 29 30  1  0  0  0  0
 29 34  1  0  0  0  0
 30 31  1  0  0  0  0
 30 32  1  0  0  0  0
 30 33  1  0  0  0  0
 34 35  1  0  0  0  0
 34 36  1  0  0  0  0
 34 37  1  0  0  0  0
 40 41  2  0  0  0  0
 40 46  1  0  0  0  0
 41 42  1  0  0  0  0
 41 51  1  0  0  0  0
 42 43  1  0  0  0  0
 42 44  2  0  0  0  0
 44 45  1  0  0  0  0
 44 50  1  0  0  0  0
 45 46  2  0  0  0  0
 45 49  1  0  0  0  0
 46 47  1  0  0  0  0
 47 48  2  0  0  0  0
M  END
>  <MODEL>
       1

$$$$
