output/tmp_first_model_17_68.pdb
 OpenBabel07242622053D

 65 70  0  0  1  0  0  0  0  0999 V2000
   -8.7900    0.5750  -21.0780 O   0  0  0  0  0  0  0  0  0  0  0  0
   -8.5020   -0.4020  -21.7470 C   0  0  0  0  0  0  0  0  0  0  0  0
   -7.4670   -1.4190  -21.2470 C   0  0  0  0  0  0  0  0  0  0  0  0
   -6.5860   -0.8360  -20.1760 C   0  0  0  0  0  0  0  0  0  0  0  0
   -6.8830   -1.0460  -18.8540 C   0  0  0  0  0  0  0  0  0  0  0  0
   -6.1930   -0.5390  -17.8010 N   0  0  0  0  0  0  0  0  0  0  0  0
   -5.1610    0.2170  -18.0730 C   0  0  0  0  0  0  0  0  0  0  0  0
   -4.7320    0.5290  -19.3910 C   0  0  0  0  0  0  0  0  0  0  0  0
   -3.6040    1.3550  -19.6210 C   0  0  0  0  0  0  0  0  0  0  0  0
   -3.2080    1.6400  -20.8980 C   0  0  0  0  0  0  0  0  0  0  0  0
   -3.9310    1.1150  -21.9940 C   0  0  0  0  0  0  0  0  0  0  0  0
   -5.0420    0.3310  -21.7990 C   0  0  0  0  0  0  0  0  0  0  0  0
   -5.4660    0.0010  -20.4810 C   0  0  0  0  0  0  0  0  0  0  0  0
   -5.6070   -0.0280  -22.6570 H   0  0  0  0  0  0  0  0  0  0  0  0
   -3.5830    1.3290  -23.0020 H   0  0  0  0  0  0  0  0  0  0  0  0
   -2.3350    2.2620  -21.0750 H   0  0  0  0  0  0  0  0  0  0  0  0
   -3.0700    1.7500  -18.7600 H   0  0  0  0  0  0  0  0  0  0  0  0
   -4.6060    0.6250  -17.2270 H   0  0  0  0  0  0  0  0  0  0  0  0
   -7.7320   -1.6700  -18.5770 H   0  0  0  0  0  0  0  0  0  0  0  0
   -6.8800   -1.7640  -22.1060 H   0  0  0  0  0  0  0  0  0  0  0  0
   -7.9970   -2.2970  -20.8540 H   0  0  0  0  0  0  0  0  0  0  0  0
   -9.0430   -0.5760  -23.0180 N   0  0  0  0  0  0  0  0  0  0  0  0
   -9.2720    0.6830  -23.7310 C   0  0  0  0  0  0  0  0  0  0  0  0
   -7.9560    1.3390  -24.1360 C   0  0  0  0  0  0  0  0  0  0  0  0
   -7.4520    2.4390  -23.4380 C   0  0  0  0  0  0  0  0  0  0  0  0
   -6.2370    3.0120  -23.8030 C   0  0  0  0  0  0  0  0  0  0  0  0
   -5.4940    2.4760  -24.8510 C   0  0  0  0  0  0  0  0  0  0  0  0
   -5.9860    1.3610  -25.5190 C   0  0  0  0  0  0  0  0  0  0  0  0
   -5.0390    0.6540  -26.8010 Cl  0  0  0  0  0  0  0  0  0  0  0  0
   -7.2030    0.7900  -25.1770 C   0  0  0  0  0  0  0  0  0  0  0  0
   -7.5400   -0.0800  -25.7350 H   0  0  0  0  0  0  0  0  0  0  0  0
   -4.5330    2.8900  -25.1440 H   0  0  0  0  0  0  0  0  0  0  0  0
   -5.8580    3.8790  -23.2630 H   0  0  0  0  0  0  0  0  0  0  0  0
   -8.0110    2.8480  -22.5970 H   0  0  0  0  0  0  0  0  0  0  0  0
   -9.8810    0.4670  -24.6120 H   0  0  0  0  0  0  0  0  0  0  0  0
   -9.8250    1.3490  -23.0610 H   0  0  0  0  0  0  0  0  0  0  0  0
   -9.5470   -1.8530  -23.5130 C   0  0  2  0  0  0  0  0  0  0  0  0
   -8.4710   -2.8860  -23.9290 C   0  0  0  0  0  0  0  0  0  0  0  0
   -9.2260   -3.8680  -24.8600 C   0  0  0  0  0  0  0  0  0  0  0  0
  -10.6520   -3.3550  -24.7720 C   0  0  2  0  0  0  0  0  0  0  0  0
  -10.4360   -1.8390  -24.7770 C   0  0  0  0  0  0  0  0  0  0  0  0
   -9.9010   -1.4930  -25.6680 H   0  0  0  0  0  0  0  0  0  0  0  0
  -11.3450   -1.2380  -24.6430 H   0  0  0  0  0  0  0  0  0  0  0  0
  -11.1760   -3.6220  -23.3680 N   0  3  2  0  0  0  0  0  0  0  0  0
  -12.6770   -3.7550  -23.2820 C   0  0  0  0  0  0  0  0  0  0  0  0
  -13.4620   -2.6640  -24.0200 C   0  0  0  0  0  0  0  0  0  0  0  0
  -14.9900   -2.8490  -24.0950 C   0  0  0  0  0  0  0  0  0  0  0  0
  -15.2190   -1.7870  -23.1600 O   0  0  0  0  0  0  0  0  0  0  0  0
  -13.8380   -1.4460  -23.1600 C   0  0  0  0  0  0  0  0  0  0  0  0
  -13.4380   -1.4350  -22.1420 H   0  0  0  0  0  0  0  0  0  0  0  0
  -13.6700   -0.4660  -23.6190 H   0  0  0  0  0  0  0  0  0  0  0  0
  -15.4500   -2.6220  -25.0640 H   0  0  0  0  0  0  0  0  0  0  0  0
  -15.4020   -3.8030  -23.7420 H   0  0  0  0  0  0  0  0  0  0  0  0
  -13.0040   -2.4580  -24.9890 H   0  0  0  0  0  0  0  0  0  0  0  0
  -12.9740   -3.7740  -22.2210 H   0  0  0  0  0  0  0  0  0  0  0  0
  -12.9370   -4.7320  -23.7090 H   0  0  0  0  0  0  0  0  0  0  0  0
  -10.5170   -2.5470  -22.5290 C   0  0  0  0  0  0  0  0  0  0  0  0
  -10.0060   -3.0010  -21.6790 H   0  0  0  0  0  0  0  0  0  0  0  0
  -11.2740   -1.8550  -22.1520 H   0  0  0  0  0  0  0  0  0  0  0  0
  -10.8140   -4.5370  -23.0520 H   0  0  0  0  0  0  0  0  0  0  0  0
  -11.3450   -3.8340  -25.4570 H   0  0  0  0  0  0  0  0  0  0  0  0
   -8.8720   -3.7860  -25.8930 H   0  0  0  0  0  0  0  0  0  0  0  0
   -9.1730   -4.9170  -24.5500 H   0  0  0  0  0  0  0  0  0  0  0  0
   -7.6680   -2.3610  -24.4590 H   0  0  0  0  0  0  0  0  0  0  0  0
   -8.0350   -3.3970  -23.0680 H   0  0  0  0  0  0  0  0  0  0  0  0
  1  2  2  0  0  0  0
  2  3  1  0  0  0  0
  2 22  1  0  0  0  0
  3  4  1  0  0  0  0
  3 20  1  0  0  0  0
  3 21  1  0  0  0  0
  4  5  2  0  0  0  0
  4 13  1  0  0  0  0
  5  6  1  0  0  0  0
  5 19  1  0  0  0  0
  6  7  2  0  0  0  0
  7  8  1  0  0  0  0
  7 18  1  0  0  0  0
  8  9  2  0  0  0  0
  8 13  1  0  0  0  0
  9 10  1  0  0  0  0
  9 17  1  0  0  0  0
 10 11  2  0  0  0  0
 10 16  1  0  0  0  0
 11 12  1  0  0  0  0
 11 15  1  0  0  0  0
 12 13  2  0  0  0  0
 12 14  1  0  0  0  0
 22 23  1  0  0  0  0
 23 24  1  0  0  0  0
 23 35  1  0  0  0  0
 23 36  1  0  0  0  0
 24 25  2  0  0  0  0
 24 30  1  0  0  0  0
 25 26  1  0  0  0  0
 25 34  1  0  0  0  0
 26 27  2  0  0  0  0
 26 33  1  0  0  0  0
 27 28  1  0  0  0  0
 27 32  1  0  0  0  0
 28 29  1  0  0  0  0
 28 30  2  0  0  0  0
 30 31  1  0  0  0  0
 37 22  1  1  0  0  0
 37 38  1  0  0  0  0
 37 41  1  0  0  0  0
 37 57  1  0  0  0  0
 38 39  1  0  0  0  0
 38 64  1  0  0  0  0
 38 65  1  0  0  0  0
 39 40  1  0  0  0  0
 39 62  1  0  0  0  0
 39 63  1  0  0  0  0
 40 41  1  0  0  0  0
 40 44  1  0  0  0  0
 40 61  1  6  0  0  0
 41 42  1  0  0  0  0
 41 43  1  0  0  0  0
 44 45  1  0  0  0  0
 44 57  1  0  0  0  0
 44 60  1  1  0  0  0
 45 46  1  0  0  0  0
 45 55  1  0  0  0  0
 45 56  1  0  0  0  0
 46 47  1  0  0  0  0
 46 49  1  0  0  0  0
 46 54  1  0  0  0  0
 47 48  1  0  0  0  0
 47 52  1  0  0  0  0
 47 53  1  0  0  0  0
 48 49  1  0  0  0  0
 49 50  1  0  0  0  0
 49 51  1  0  0  0  0
 57 58  1  0  0  0  0
 57 59  1  0  0  0  0
M  CHG  1  44   1
M  END
>  <MODEL>
       1

$$$$
