output/tmp_first_model_1_93.pdb
 OpenBabel07242613193D

 62 67  0  0  1  0  0  0  0  0999 V2000
   -8.1860   -6.7850  -26.7190 C   0  0  0  0  0  0  0  0  0  0  0  0
   -7.1020   -7.3010  -25.7840 C   0  0  0  0  0  0  0  0  0  0  0  0
   -7.6160   -7.4720  -24.4320 N   0  0  0  0  0  0  0  0  0  0  0  0
   -8.6630   -8.2880  -24.2710 N   0  0  0  0  0  0  0  0  0  0  0  0
   -8.8480   -8.3530  -22.9660 C   0  0  0  0  0  0  0  0  0  0  0  0
   -7.8950   -7.5920  -22.2560 C   0  0  0  0  0  0  0  0  0  0  0  0
   -7.1290   -7.0110  -23.2510 C   0  0  0  0  0  0  0  0  0  0  0  0
   -6.1480   -5.8860  -23.2890 C   0  0  0  0  0  0  0  0  0  0  0  0
   -6.7310   -4.7310  -23.9760 N   0  0  0  0  0  0  0  0  0  0  0  0
   -7.9530   -4.1750  -23.4110 C   0  0  0  0  0  0  0  0  0  0  0  0
   -7.8180   -2.6620  -23.1740 C   0  0  2  0  0  0  0  0  0  0  0  0
   -6.8370   -2.4320  -22.0070 C   0  0  0  0  0  0  0  0  0  0  0  0
   -5.7810   -2.9860  -21.7890 O   0  0  0  0  0  0  0  0  0  0  0  0
   -7.3610   -1.4540  -21.2050 N   0  0  0  0  0  0  0  0  0  0  0  0
   -6.5830   -0.8580  -20.1930 C   0  0  0  0  0  0  0  0  0  0  0  0
   -6.9280   -1.0610  -18.8840 C   0  0  0  0  0  0  0  0  0  0  0  0
   -6.2470   -0.5600  -17.8300 N   0  0  0  0  0  0  0  0  0  0  0  0
   -5.2060    0.1930  -18.0970 C   0  0  0  0  0  0  0  0  0  0  0  0
   -4.7560    0.5000  -19.4130 C   0  0  0  0  0  0  0  0  0  0  0  0
   -3.6310    1.3350  -19.6320 C   0  0  0  0  0  0  0  0  0  0  0  0
   -3.2370    1.6460  -20.9020 C   0  0  0  0  0  0  0  0  0  0  0  0
   -3.9470    1.1320  -22.0140 C   0  0  0  0  0  0  0  0  0  0  0  0
   -5.0370    0.3140  -21.8350 C   0  0  0  0  0  0  0  0  0  0  0  0
   -5.4610   -0.0320  -20.5140 C   0  0  0  0  0  0  0  0  0  0  0  0
   -5.5750   -0.0710  -22.7040 H   0  0  0  0  0  0  0  0  0  0  0  0
   -3.6250    1.3950  -23.0170 H   0  0  0  0  0  0  0  0  0  0  0  0
   -2.3840    2.2990  -21.0690 H   0  0  0  0  0  0  0  0  0  0  0  0
   -3.1150    1.7360  -18.7630 H   0  0  0  0  0  0  0  0  0  0  0  0
   -4.6570    0.5990  -17.2480 H   0  0  0  0  0  0  0  0  0  0  0  0
   -7.7910   -1.6840  -18.6470 H   0  0  0  0  0  0  0  0  0  0  0  0
   -8.6660   -0.9790  -21.5960 C   0  0  0  0  0  0  0  0  0  0  0  0
   -9.1320   -1.9910  -22.6600 C   0  0  2  0  0  0  0  0  0  0  0  0
  -10.1840   -2.9450  -22.0740 C   0  0  0  0  0  0  0  0  0  0  0  0
   -9.7950   -3.5250  -21.2300 H   0  0  0  0  0  0  0  0  0  0  0  0
  -10.5460   -3.6500  -22.8270 H   0  0  0  0  0  0  0  0  0  0  0  0
  -11.0520   -2.3800  -21.7140 H   0  0  0  0  0  0  0  0  0  0  0  0
   -9.6200   -1.4720  -23.4910 H   0  0  0  0  0  0  0  0  0  0  0  0
   -8.6180    0.0510  -21.9750 H   0  0  0  0  0  0  0  0  0  0  0  0
   -9.3360   -0.9630  -20.7380 H   0  0  0  0  0  0  0  0  0  0  0  0
   -7.2930   -2.0180  -24.4580 C   0  0  0  0  0  0  0  0  0  0  0  0
   -7.5290   -0.6680  -24.7580 C   0  0  0  0  0  0  0  0  0  0  0  0
   -7.0530   -0.1350  -25.9430 C   0  0  0  0  0  0  0  0  0  0  0  0
   -7.3050    1.1580  -26.2200 F   0  0  0  0  0  0  0  0  0  0  0  0
   -6.3360   -0.8890  -26.8630 C   0  0  0  0  0  0  0  0  0  0  0  0
   -6.0770   -2.2100  -26.5620 C   0  0  0  0  0  0  0  0  0  0  0  0
   -6.5260   -2.7640  -25.3640 C   0  0  0  0  0  0  0  0  0  0  0  0
   -6.1140   -4.1700  -25.0550 C   0  0  0  0  0  0  0  0  0  0  0  0
   -5.2610   -4.7490  -25.7200 O   0  0  0  0  0  0  0  0  0  0  0  0
   -5.5140   -2.8410  -27.2420 H   0  0  0  0  0  0  0  0  0  0  0  0
   -5.9910   -0.4280  -27.7800 H   0  0  0  0  0  0  0  0  0  0  0  0
   -8.0980   -0.0140  -24.1060 H   0  0  0  0  0  0  0  0  0  0  0  0
   -8.7990   -4.3660  -24.0880 H   0  0  0  0  0  0  0  0  0  0  0  0
   -8.1420   -4.6730  -22.4590 H   0  0  0  0  0  0  0  0  0  0  0  0
   -5.2520   -6.1700  -23.8520 H   0  0  0  0  0  0  0  0  0  0  0  0
   -5.8670   -5.6030  -22.2640 H   0  0  0  0  0  0  0  0  0  0  0  0
   -7.8520   -7.4070  -21.1870 H   0  0  0  0  0  0  0  0  0  0  0  0
   -9.7000   -8.9120  -22.6060 H   0  0  0  0  0  0  0  0  0  0  0  0
   -6.2450   -6.6270  -25.7660 H   0  0  0  0  0  0  0  0  0  0  0  0
   -6.7270   -8.2740  -26.1150 H   0  0  0  0  0  0  0  0  0  0  0  0
   -7.8080   -6.7660  -27.7420 H   0  0  0  0  0  0  0  0  0  0  0  0
   -9.0610   -7.4380  -26.6920 H   0  0  0  0  0  0  0  0  0  0  0  0
   -8.5240   -5.7750  -26.4670 H   0  0  0  0  0  0  0  0  0  0  0  0
  1  2  1  0  0  0  0
  1 60  1  0  0  0  0
  1 61  1  0  0  0  0
  1 62  1  0  0  0  0
  2  3  1  0  0  0  0
  2 58  1  0  0  0  0
  2 59  1  0  0  0  0
  3  4  1  0  0  0  0
  3  7  1  0  0  0  0
  4  5  2  0  0  0  0
  5  6  1  0  0  0  0
  5 57  1  0  0  0  0
  6  7  2  0  0  0  0
  6 56  1  0  0  0  0
  7  8  1  0  0  0  0
  8  9  1  0  0  0  0
  8 54  1  0  0  0  0
  8 55  1  0  0  0  0
  9 10  1  0  0  0  0
  9 47  1  0  0  0  0
 10 11  1  0  0  0  0
 10 52  1  0  0  0  0
 10 53  1  0  0  0  0
 11 12  1  1  0  0  0
 11 32  1  0  0  0  0
 11 40  1  0  0  0  0
 12 13  2  0  0  0  0
 12 14  1  0  0  0  0
 14 15  1  0  0  0  0
 14 31  1  0  0  0  0
 15 16  2  0  0  0  0
 15 24  1  0  0  0  0
 16 17  1  0  0  0  0
 16 30  1  0  0  0  0
 17 18  2  0  0  0  0
 18 19  1  0  0  0  0
 18 29  1  0  0  0  0
 19 20  2  0  0  0  0
 19 24  1  0  0  0  0
 20 21  1  0  0  0  0
 20 28  1  0  0  0  0
 21 22  2  0  0  0  0
 21 27  1  0  0  0  0
 22 23  1  0  0  0  0
 22 26  1  0  0  0  0
 23 24  2  0  0  0  0
 23 25  1  0  0  0  0
 31 32  1  0  0  0  0
 31 38  1  0  0  0  0
 31 39  1  0  0  0  0
 32 33  1  0  0  0  0
 32 37  1  6  0  0  0
 33 34  1  0  0  0  0
 33 35  1  0  0  0  0
 33 36  1  0  0  0  0
 40 41  2  0  0  0  0
 40 46  1  0  0  0  0
 41 42  1  0  0  0  0
 41 51  1  0  0  0  0
 42 43  1  0  0  0  0
 42 44  2  0  0  0  0
 44 45  1  0  0  0  0
 44 50  1  0  0  0  0
 45 46  2  0  0  0  0
 45 49  1  0  0  0  0
 46 47  1  0  0  0  0
 47 48  2  0  0  0  0
M  END
>  <MODEL>
       1

$$$$
