output/tmp_first_model_13_11.pdb
 OpenBabel07242619583D

 48 52  0  0  0  0  0  0  0  0999 V2000
  -10.1090   -0.8770  -23.6410 C   0  0  0  0  0  0  0  0  0  0  0  0
   -9.1120   -1.3720  -22.7030 N   0  0  0  0  0  0  0  0  0  0  0  0
   -8.3070   -0.5190  -22.0030 C   0  0  0  0  0  0  0  0  0  0  0  0
   -8.3210    0.6930  -22.0210 O   0  0  0  0  0  0  0  0  0  0  0  0
   -7.4420   -1.3130  -21.2390 N   0  0  0  0  0  0  0  0  0  0  0  0
   -6.6160   -0.7970  -20.2120 C   0  0  0  0  0  0  0  0  0  0  0  0
   -6.9320   -1.0480  -18.9020 C   0  0  0  0  0  0  0  0  0  0  0  0
   -6.2390   -0.5490  -17.8540 N   0  0  0  0  0  0  0  0  0  0  0  0
   -5.2070    0.2100  -18.1190 C   0  0  0  0  0  0  0  0  0  0  0  0
   -4.7710    0.5380  -19.4330 C   0  0  0  0  0  0  0  0  0  0  0  0
   -3.6330    1.3540  -19.6530 C   0  0  0  0  0  0  0  0  0  0  0  0
   -3.2100    1.6110  -20.9270 C   0  0  0  0  0  0  0  0  0  0  0  0
   -3.9040    1.0640  -22.0320 C   0  0  0  0  0  0  0  0  0  0  0  0
   -5.0180    0.2830  -21.8470 C   0  0  0  0  0  0  0  0  0  0  0  0
   -5.4840    0.0100  -20.5290 C   0  0  0  0  0  0  0  0  0  0  0  0
   -5.5490   -0.1300  -22.7030 H   0  0  0  0  0  0  0  0  0  0  0  0
   -3.5470    1.2540  -23.0400 H   0  0  0  0  0  0  0  0  0  0  0  0
   -2.3290    2.2250  -21.0980 H   0  0  0  0  0  0  0  0  0  0  0  0
   -3.1100    1.7450  -18.7840 H   0  0  0  0  0  0  0  0  0  0  0  0
   -4.6480    0.6030  -17.2710 H   0  0  0  0  0  0  0  0  0  0  0  0
   -7.7860   -1.6760  -18.6580 H   0  0  0  0  0  0  0  0  0  0  0  0
   -7.6610   -2.6630  -21.4500 C   0  0  0  0  0  0  0  0  0  0  0  0
   -6.9570   -3.5640  -21.0520 O   0  0  0  0  0  0  0  0  0  0  0  0
   -8.8780   -2.7510  -22.3460 C   0  0  0  0  0  0  0  0  0  0  0  0
   -8.7370   -3.8130  -23.4460 C   0  0  0  0  0  0  0  0  0  0  0  0
  -10.0030   -4.4530  -23.0060 N   0  0  0  0  0  0  0  0  0  0  0  0
  -11.2880   -4.4260  -24.0990 S   0  0  0  0  0  0  0  0  0  0  0  0
  -12.5200   -4.7320  -23.3970 O   0  0  0  0  0  0  0  0  0  0  0  0
  -11.2210   -3.2170  -24.9090 O   0  0  0  0  0  0  0  0  0  0  0  0
  -10.8110   -5.7730  -25.1480 C   0  0  0  0  0  0  0  0  0  0  0  0
  -11.4410   -5.8080  -26.3830 C   0  0  0  0  0  0  0  0  0  0  0  0
  -11.0220   -6.7150  -27.3490 C   0  0  0  0  0  0  0  0  0  0  0  0
   -9.9800   -7.5910  -27.0450 C   0  0  0  0  0  0  0  0  0  0  0  0
   -9.4000   -7.6010  -25.7810 C   0  0  0  0  0  0  0  0  0  0  0  0
   -9.8230   -6.6960  -24.8160 C   0  0  0  0  0  0  0  0  0  0  0  0
   -9.3930   -6.6920  -23.8190 H   0  0  0  0  0  0  0  0  0  0  0  0
   -8.5940   -8.2990  -25.5650 H   0  0  0  0  0  0  0  0  0  0  0  0
   -9.5920   -8.2810  -27.7870 H   0  0  0  0  0  0  0  0  0  0  0  0
  -11.4680   -6.7070  -28.3430 H   0  0  0  0  0  0  0  0  0  0  0  0
  -12.2330   -5.0950  -26.5650 H   0  0  0  0  0  0  0  0  0  0  0  0
  -10.0950   -3.5530  -21.8250 C   0  0  0  0  0  0  0  0  0  0  0  0
   -9.8890   -4.1020  -20.9080 H   0  0  0  0  0  0  0  0  0  0  0  0
  -11.0230   -2.9840  -21.7360 H   0  0  0  0  0  0  0  0  0  0  0  0
   -8.6890   -3.4520  -24.4750 H   0  0  0  0  0  0  0  0  0  0  0  0
   -7.8960   -4.4720  -23.2160 H   0  0  0  0  0  0  0  0  0  0  0  0
  -11.1310   -1.0340  -23.2810 H   0  0  0  0  0  0  0  0  0  0  0  0
  -10.0190   -1.3680  -24.6100 H   0  0  0  0  0  0  0  0  0  0  0  0
   -9.9490    0.1950  -23.7510 H   0  0  0  0  0  0  0  0  0  0  0  0
  1  2  1  0  0  0  0
  1 46  1  0  0  0  0
  1 47  1  0  0  0  0
  1 48  1  0  0  0  0
  2  3  1  0  0  0  0
  2 24  1  0  0  0  0
  3  4  2  0  0  0  0
  3  5  1  0  0  0  0
  5  6  1  0  0  0  0
  5 22  1  0  0  0  0
  6  7  2  0  0  0  0
  6 15  1  0  0  0  0
  7  8  1  0  0  0  0
  7 21  1  0  0  0  0
  8  9  2  0  0  0  0
  9 10  1  0  0  0  0
  9 20  1  0  0  0  0
 10 11  2  0  0  0  0
 10 15  1  0  0  0  0
 11 12  1  0  0  0  0
 11 19  1  0  0  0  0
 12 13  2  0  0  0  0
 12 18  1  0  0  0  0
 13 14  1  0  0  0  0
 13 17  1  0  0  0  0
 14 15  2  0  0  0  0
 14 16  1  0  0  0  0
 22 23  2  0  0  0  0
 22 24  1  0  0  0  0
 24 25  1  0  0  0  0
 24 41  1  0  0  0  0
 25 26  1  0  0  0  0
 25 44  1  0  0  0  0
 25 45  1  0  0  0  0
 26 27  1  0  0  0  0
 26 41  1  0  0  0  0
 27 28  2  0  0  0  0
 27 29  2  0  0  0  0
 27 30  1  0  0  0  0
 30 31  2  0  0  0  0
 30 35  1  0  0  0  0
 31 32  1  0  0  0  0
 31 40  1  0  0  0  0
 32 33  2  0  0  0  0
 32 39  1  0  0  0  0
 33 34  1  0  0  0  0
 33 38  1  0  0  0  0
 34 35  2  0  0  0  0
 34 37  1  0  0  0  0
 35 36  1  0  0  0  0
 41 42  1  0  0  0  0
 41 43  1  0  0  0  0
M  END
>  <MODEL>
       1

$$$$
