output/tmp_first_model_17_53.pdb
 OpenBabel07242622053D

 59 63  0  0  1  0  0  0  0  0999 V2000
   -7.6470    3.4620  -21.8890 C   0  0  0  0  0  0  0  0  0  0  0  0
   -7.4870    3.6640  -22.0570 C   0  0  0  0  0  0  0  0  0  0  0  0
   -8.2320    3.0430  -23.1590 N   0  0  0  0  0  0  0  0  0  0  0  0
   -7.5610    2.3240  -24.0210 C   0  0  0  0  0  0  0  0  0  0  0  0
   -6.3340    2.2150  -24.0460 O   0  0  0  0  0  0  0  0  0  0  0  0
   -8.4490    1.6530  -25.0700 C   0  0  0  0  0  0  0  0  0  0  0  0
   -9.1990    0.5350  -24.5180 N   0  0  0  0  0  0  0  0  0  0  0  0
   -8.5030   -0.7200  -24.3070 C   0  0  0  0  0  0  0  0  0  0  0  0
   -8.9340   -1.4390  -22.9980 C   0  0  2  0  0  0  0  0  0  0  0  0
   -8.4240   -0.6680  -21.7670 C   0  0  0  0  0  0  0  0  0  0  0  0
   -8.8570    0.3910  -21.3530 O   0  0  0  0  0  0  0  0  0  0  0  0
   -7.3970   -1.3640  -21.1900 N   0  0  0  0  0  0  0  0  0  0  0  0
   -6.6160   -0.7790  -20.1590 C   0  0  0  0  0  0  0  0  0  0  0  0
   -6.9270   -1.0180  -18.8470 C   0  0  0  0  0  0  0  0  0  0  0  0
   -6.2160   -0.5340  -17.8000 N   0  0  0  0  0  0  0  0  0  0  0  0
   -5.1730    0.2130  -18.0600 C   0  0  0  0  0  0  0  0  0  0  0  0
   -4.7460    0.5520  -19.3760 C   0  0  0  0  0  0  0  0  0  0  0  0
   -3.6130    1.3740  -19.6200 C   0  0  0  0  0  0  0  0  0  0  0  0
   -3.2390    1.6790  -20.8990 C   0  0  0  0  0  0  0  0  0  0  0  0
   -3.9890    1.1910  -21.9950 C   0  0  0  0  0  0  0  0  0  0  0  0
   -5.0970    0.4070  -21.7850 C   0  0  0  0  0  0  0  0  0  0  0  0
   -5.4980    0.0550  -20.4660 C   0  0  0  0  0  0  0  0  0  0  0  0
   -5.6850    0.0690  -22.6320 H   0  0  0  0  0  0  0  0  0  0  0  0
   -3.6960    1.4460  -23.0080 H   0  0  0  0  0  0  0  0  0  0  0  0
   -2.3620    2.2920  -21.0850 H   0  0  0  0  0  0  0  0  0  0  0  0
   -3.0580    1.7540  -18.7660 H   0  0  0  0  0  0  0  0  0  0  0  0
   -4.6050    0.5930  -17.2100 H   0  0  0  0  0  0  0  0  0  0  0  0
   -7.7900   -1.6310  -18.5970 H   0  0  0  0  0  0  0  0  0  0  0  0
   -7.0290   -2.5690  -21.9080 C   0  0  0  0  0  0  0  0  0  0  0  0
   -8.2370   -2.8220  -22.8320 C   0  0  2  0  0  0  0  0  0  0  0  0
   -7.8770   -3.5560  -24.1230 C   0  0  0  0  0  0  0  0  0  0  0  0
   -7.1200   -3.0060  -24.6920 H   0  0  0  0  0  0  0  0  0  0  0  0
   -7.4760   -4.5530  -23.9160 H   0  0  0  0  0  0  0  0  0  0  0  0
   -8.7560   -3.6790  -24.7660 H   0  0  0  0  0  0  0  0  0  0  0  0
   -8.9320   -3.4540  -22.2770 H   0  0  0  0  0  0  0  0  0  0  0  0
   -6.8630   -3.3950  -21.2100 H   0  0  0  0  0  0  0  0  0  0  0  0
   -6.1000   -2.4310  -22.4800 H   0  0  0  0  0  0  0  0  0  0  0  0
  -10.4450   -1.4520  -22.9260 C   0  0  0  0  0  0  0  0  0  0  0  0
  -11.0960   -2.3070  -22.0360 C   0  0  0  0  0  0  0  0  0  0  0  0
  -12.4690   -2.2550  -21.9000 C   0  0  0  0  0  0  0  0  0  0  0  0
  -13.1780   -3.1700  -20.6000 Cl  0  0  0  0  0  0  0  0  0  0  0  0
  -13.2430   -1.3830  -22.6670 C   0  0  0  0  0  0  0  0  0  0  0  0
  -12.5950   -0.4730  -23.4820 C   0  0  0  0  0  0  0  0  0  0  0  0
  -11.2020   -0.4610  -23.5620 C   0  0  0  0  0  0  0  0  0  0  0  0
  -10.5160    0.7080  -24.2070 C   0  0  0  0  0  0  0  0  0  0  0  0
  -11.0780    1.7840  -24.3900 O   0  0  0  0  0  0  0  0  0  0  0  0
  -13.1500    0.2720  -24.0430 H   0  0  0  0  0  0  0  0  0  0  0  0
  -14.3230   -1.3890  -22.5720 H   0  0  0  0  0  0  0  0  0  0  0  0
  -10.5480   -2.9770  -21.3840 H   0  0  0  0  0  0  0  0  0  0  0  0
   -7.4310   -0.5000  -24.2670 H   0  0  0  0  0  0  0  0  0  0  0  0
   -8.6940   -1.3700  -25.1680 H   0  0  0  0  0  0  0  0  0  0  0  0
   -9.1780    2.3700  -25.4530 H   0  0  0  0  0  0  0  0  0  0  0  0
   -7.8270    1.3180  -25.8990 H   0  0  0  0  0  0  0  0  0  0  0  0
   -9.2400    2.9180  -23.1670 H   0  0  0  0  0  0  0  0  0  0  0  0
   -6.6320    4.7920  -22.6780 H   0  0  0  0  0  0  0  0  0  0  0  0
   -8.4160    4.3900  -21.7420 H   0  0  0  0  0  0  0  0  0  0  0  0
   -8.3380    2.5070  -20.9130 H   0  0  0  0  0  0  0  0  0  0  0  0
   -7.0430    4.0110  -20.9170 H   0  0  0  0  0  0  0  0  0  0  0  0
   -6.6270    2.8140  -21.9620 H   0  0  0  0  0  0  0  0  0  0  0  0
  1  2  1  0  0  0  0
  1 57  1  0  0  0  0
  1 58  1  0  0  0  0
  1 59  1  0  0  0  0
  2  3  1  0  0  0  0
  2 55  1  0  0  0  0
  2 56  1  0  0  0  0
  3  4  1  0  0  0  0
  3 54  1  0  0  0  0
  4  5  2  0  0  0  0
  4  6  1  0  0  0  0
  6  7  1  0  0  0  0
  6 52  1  0  0  0  0
  6 53  1  0  0  0  0
  7  8  1  0  0  0  0
  7 45  1  0  0  0  0
  8  9  1  0  0  0  0
  8 50  1  0  0  0  0
  8 51  1  0  0  0  0
  9 10  1  1  0  0  0
  9 30  1  0  0  0  0
  9 38  1  0  0  0  0
 10 11  2  0  0  0  0
 10 12  1  0  0  0  0
 12 13  1  0  0  0  0
 12 29  1  0  0  0  0
 13 14  2  0  0  0  0
 13 22  1  0  0  0  0
 14 15  1  0  0  0  0
 14 28  1  0  0  0  0
 15 16  2  0  0  0  0
 16 17  1  0  0  0  0
 16 27  1  0  0  0  0
 17 18  2  0  0  0  0
 17 22  1  0  0  0  0
 18 19  1  0  0  0  0
 18 26  1  0  0  0  0
 19 20  2  0  0  0  0
 19 25  1  0  0  0  0
 20 21  1  0  0  0  0
 20 24  1  0  0  0  0
 21 22  2  0  0  0  0
 21 23  1  0  0  0  0
 29 30  1  0  0  0  0
 29 36  1  0  0  0  0
 29 37  1  0  0  0  0
 30 31  1  0  0  0  0
 30 35  1  1  0  0  0
 31 32  1  0  0  0  0
 31 33  1  0  0  0  0
 31 34  1  0  0  0  0
 38 39  2  0  0  0  0
 38 44  1  0  0  0  0
 39 40  1  0  0  0  0
 39 49  1  0  0  0  0
 40 41  1  0  0  0  0
 40 42  2  0  0  0  0
 42 43  1  0  0  0  0
 42 48  1  0  0  0  0
 43 44  2  0  0  0  0
 43 47  1  0  0  0  0
 44 45  1  0  0  0  0
 45 46  2  0  0  0  0
M  END
>  <MODEL>
       1

$$$$
