output/tmp_first_model_1_95.pdb
 OpenBabel07242613193D

 66 71  0  0  1  0  0  0  0  0999 V2000
   -5.6160   -0.1190  -29.4290 C   0  0  0  0  0  0  0  0  0  0  0  0
   -5.6250    0.1140  -28.0030 N   0  0  0  0  0  0  0  0  0  0  0  0
   -5.0590   -0.7810  -27.1510 C   0  0  0  0  0  0  0  0  0  0  0  0
   -4.4510   -1.7690  -27.5150 O   0  0  0  0  0  0  0  0  0  0  0  0
   -5.2060   -0.3870  -25.6720 C   0  0  0  0  0  0  0  0  0  0  0  0
   -6.4450   -0.8580  -25.0700 N   0  0  0  0  0  0  0  0  0  0  0  0
   -6.4150   -2.0650  -24.2640 C   0  0  0  0  0  0  0  0  0  0  0  0
   -7.5000   -2.0770  -23.1410 C   0  0  2  0  0  0  0  0  0  0  0  0
   -7.1170   -1.0850  -22.0160 C   0  0  0  0  0  0  0  0  0  0  0  0
   -7.4290    0.0800  -21.9240 O   0  0  0  0  0  0  0  0  0  0  0  0
   -6.3470   -1.7760  -21.0970 N   0  0  0  0  0  0  0  0  0  0  0  0
   -5.7920   -1.0900  -19.9900 C   0  0  0  0  0  0  0  0  0  0  0  0
   -6.2400   -1.3720  -18.7220 C   0  0  0  0  0  0  0  0  0  0  0  0
   -5.8320   -0.7370  -17.5960 N   0  0  0  0  0  0  0  0  0  0  0  0
   -4.9410    0.2160  -17.7320 C   0  0  0  0  0  0  0  0  0  0  0  0
   -4.3620    0.5880  -18.9780 C   0  0  0  0  0  0  0  0  0  0  0  0
   -3.3790    1.6130  -19.0430 C   0  0  0  0  0  0  0  0  0  0  0  0
   -2.8090    1.9530  -20.2400 C   0  0  0  0  0  0  0  0  0  0  0  0
   -3.2040    1.2860  -21.4230 C   0  0  0  0  0  0  0  0  0  0  0  0
   -4.1590    0.2970  -21.3850 C   0  0  0  0  0  0  0  0  0  0  0  0
   -4.7820   -0.0770  -20.1530 C   0  0  0  0  0  0  0  0  0  0  0  0
   -4.4590   -0.1910  -22.3090 H   0  0  0  0  0  0  0  0  0  0  0  0
   -2.7520    1.5640  -22.3720 H   0  0  0  0  0  0  0  0  0  0  0  0
   -2.0580    2.7400  -20.2860 H   0  0  0  0  0  0  0  0  0  0  0  0
   -3.0940    2.1090  -18.1170 H   0  0  0  0  0  0  0  0  0  0  0  0
   -4.6220    0.7440  -16.8300 H   0  0  0  0  0  0  0  0  0  0  0  0
   -7.0010   -2.1390  -18.5730 H   0  0  0  0  0  0  0  0  0  0  0  0
   -6.3070   -3.2190  -21.3620 C   0  0  0  0  0  0  0  0  0  0  0  0
   -7.4990   -3.3870  -22.3110 C   0  0  2  0  0  0  0  0  0  0  0  0
   -7.6770   -4.7060  -23.0770 C   0  0  0  0  0  0  0  0  0  0  0  0
   -6.5290   -5.2130  -23.7990 N   0  0  0  0  0  0  0  0  0  0  0  0
   -5.5090   -5.9420  -23.2810 C   0  0  0  0  0  0  0  0  0  0  0  0
   -5.5400   -6.4380  -21.9650 C   0  0  0  0  0  0  0  0  0  0  0  0
   -4.4810   -7.2380  -21.5990 C   0  0  0  0  0  0  0  0  0  0  0  0
   -3.4070   -7.4480  -22.3740 N   0  0  0  0  0  0  0  0  0  0  0  0
   -3.4630   -6.8830  -23.5740 C   0  0  0  0  0  0  0  0  0  0  0  0
   -4.4590   -6.1650  -24.0880 N   0  0  0  0  0  0  0  0  0  0  0  0
   -2.5980   -7.0360  -24.2220 H   0  0  0  0  0  0  0  0  0  0  0  0
   -4.4600   -7.7180  -20.6160 H   0  0  0  0  0  0  0  0  0  0  0  0
   -6.3480   -6.1890  -21.2820 H   0  0  0  0  0  0  0  0  0  0  0  0
   -6.4950   -5.1190  -24.8030 H   0  0  0  0  0  0  0  0  0  0  0  0
   -8.4830   -4.5510  -23.8060 H   0  0  0  0  0  0  0  0  0  0  0  0
   -8.0400   -5.4790  -22.3890 H   0  0  0  0  0  0  0  0  0  0  0  0
   -8.3850   -3.2890  -21.6760 H   0  0  0  0  0  0  0  0  0  0  0  0
   -6.4100   -3.8010  -20.4400 H   0  0  0  0  0  0  0  0  0  0  0  0
   -5.3580   -3.4840  -21.8460 H   0  0  0  0  0  0  0  0  0  0  0  0
   -8.8310   -1.7020  -23.7450 C   0  0  0  0  0  0  0  0  0  0  0  0
  -10.0590   -2.0690  -23.1730 C   0  0  0  0  0  0  0  0  0  0  0  0
  -11.2500   -1.6270  -23.7240 C   0  0  0  0  0  0  0  0  0  0  0  0
  -12.7270   -2.1300  -22.9440 Cl  0  0  0  0  0  0  0  0  0  0  0  0
  -11.2710   -0.7950  -24.8470 C   0  0  0  0  0  0  0  0  0  0  0  0
  -10.0650   -0.4260  -25.4030 C   0  0  0  0  0  0  0  0  0  0  0  0
   -8.8610   -0.8420  -24.8460 C   0  0  0  0  0  0  0  0  0  0  0  0
   -7.6090   -0.2600  -25.4180 C   0  0  0  0  0  0  0  0  0  0  0  0
   -7.6470    0.7120  -26.1780 O   0  0  0  0  0  0  0  0  0  0  0  0
  -10.0030    0.2230  -26.2650 H   0  0  0  0  0  0  0  0  0  0  0  0
  -12.1900   -0.3830  -25.2460 H   0  0  0  0  0  0  0  0  0  0  0  0
  -10.1360   -2.6830  -22.2820 H   0  0  0  0  0  0  0  0  0  0  0  0
   -5.4200   -2.1120  -23.8160 H   0  0  0  0  0  0  0  0  0  0  0  0
   -6.5530   -2.9440  -24.9010 H   0  0  0  0  0  0  0  0  0  0  0  0
   -4.3560   -0.8070  -25.1220 H   0  0  0  0  0  0  0  0  0  0  0  0
   -5.1840    0.7030  -25.5860 H   0  0  0  0  0  0  0  0  0  0  0  0
   -6.3340    0.7180  -27.6070 H   0  0  0  0  0  0  0  0  0  0  0  0
   -4.5990   -0.3590  -29.7530 H   0  0  0  0  0  0  0  0  0  0  0  0
   -5.9610    0.7910  -29.9350 H   0  0  0  0  0  0  0  0  0  0  0  0
   -6.2640   -0.9570  -29.7150 H   0  0  0  0  0  0  0  0  0  0  0  0
  1  2  1  0  0  0  0
  1 64  1  0  0  0  0
  1 65  1  0  0  0  0
  1 66  1  0  0  0  0
  2  3  1  0  0  0  0
  2 63  1  0  0  0  0
  3  4  2  0  0  0  0
  3  5  1  0  0  0  0
  5  6  1  0  0  0  0
  5 61  1  0  0  0  0
  5 62  1  0  0  0  0
  6  7  1  0  0  0  0
  6 54  1  0  0  0  0
  7  8  1  0  0  0  0
  7 59  1  0  0  0  0
  7 60  1  0  0  0  0
  8  9  1  1  0  0  0
  8 29  1  0  0  0  0
  8 47  1  0  0  0  0
  9 10  2  0  0  0  0
  9 11  1  0  0  0  0
 11 12  1  0  0  0  0
 11 28  1  0  0  0  0
 12 13  2  0  0  0  0
 12 21  1  0  0  0  0
 13 14  1  0  0  0  0
 13 27  1  0  0  0  0
 14 15  2  0  0  0  0
 15 16  1  0  0  0  0
 15 26  1  0  0  0  0
 16 17  2  0  0  0  0
 16 21  1  0  0  0  0
 17 18  1  0  0  0  0
 17 25  1  0  0  0  0
 18 19  2  0  0  0  0
 18 24  1  0  0  0  0
 19 20  1  0  0  0  0
 19 23  1  0  0  0  0
 20 21  2  0  0  0  0
 20 22  1  0  0  0  0
 28 29  1  0  0  0  0
 28 45  1  0  0  0  0
 28 46  1  0  0  0  0
 29 30  1  0  0  0  0
 29 44  1  1  0  0  0
 30 31  1  0  0  0  0
 30 42  1  0  0  0  0
 30 43  1  0  0  0  0
 31 32  1  0  0  0  0
 31 41  1  0  0  0  0
 32 33  2  0  0  0  0
 32 37  1  0  0  0  0
 33 34  1  0  0  0  0
 33 40  1  0  0  0  0
 34 35  2  0  0  0  0
 34 39  1  0  0  0  0
 35 36  1  0  0  0  0
 36 37  2  0  0  0  0
 36 38  1  0  0  0  0
 47 48  2  0  0  0  0
 47 53  1  0  0  0  0
 48 49  1  0  0  0  0
 48 58  1  0  0  0  0
 49 50  1  0  0  0  0
 49 51  2  0  0  0  0
 51 52  1  0  0  0  0
 51 57  1  0  0  0  0
 52 53  2  0  0  0  0
 52 56  1  0  0  0  0
 53 54  1  0  0  0  0
 54 55  2  0  0  0  0
M  END
>  <MODEL>
       1

$$$$
