output/tmp_first_model_18_26.pdb
 OpenBabel07242622363D

 55 60  0  0  1  0  0  0  0  0999 V2000
  -10.2200   -1.0550  -23.6380 C   0  0  0  0  0  0  0  0  0  0  0  0
   -8.8530   -1.3640  -23.0330 C   0  0  1  0  0  0  0  0  0  0  0  0
   -8.3910   -0.4220  -21.9060 C   0  0  0  0  0  0  0  0  0  0  0  0
   -7.3870   -1.2190  -21.2180 N   0  0  0  0  0  0  0  0  0  0  0  0
   -6.5840   -0.7450  -20.1560 C   0  0  0  0  0  0  0  0  0  0  0  0
   -6.8810   -1.0470  -18.8520 C   0  0  0  0  0  0  0  0  0  0  0  0
   -6.2110   -0.5360  -17.7880 N   0  0  0  0  0  0  0  0  0  0  0  0
   -5.1980    0.2640  -18.0290 C   0  0  0  0  0  0  0  0  0  0  0  0
   -4.7440    0.6000  -19.3400 C   0  0  0  0  0  0  0  0  0  0  0  0
   -3.6070    1.4150  -19.5860 C   0  0  0  0  0  0  0  0  0  0  0  0
   -3.1900    1.6550  -20.8680 C   0  0  0  0  0  0  0  0  0  0  0  0
   -3.8820    1.0990  -21.9670 C   0  0  0  0  0  0  0  0  0  0  0  0
   -4.9920    0.3230  -21.7590 C   0  0  0  0  0  0  0  0  0  0  0  0
   -5.4490    0.0690  -20.4400 C   0  0  0  0  0  0  0  0  0  0  0  0
   -5.5160   -0.1300  -22.5940 H   0  0  0  0  0  0  0  0  0  0  0  0
   -3.5370    1.2810  -22.9800 H   0  0  0  0  0  0  0  0  0  0  0  0
   -2.3200    2.2770  -21.0570 H   0  0  0  0  0  0  0  0  0  0  0  0
   -3.0770    1.8420  -18.7410 H   0  0  0  0  0  0  0  0  0  0  0  0
   -4.6660    0.6650  -17.1630 H   0  0  0  0  0  0  0  0  0  0  0  0
   -7.7040   -1.7210  -18.6190 H   0  0  0  0  0  0  0  0  0  0  0  0
   -7.4920   -2.5670  -21.4740 C   0  0  0  0  0  0  0  0  0  0  0  0
   -6.7580   -3.4090  -20.9970 O   0  0  0  0  0  0  0  0  0  0  0  0
   -8.6830   -2.7930  -22.4130 C   0  0  1  0  0  0  0  0  0  0  0  0
   -9.8930   -3.2120  -21.5180 C   0  0  0  0  0  0  0  0  0  0  0  0
  -11.0420   -3.6850  -22.2730 N   0  0  0  0  0  0  0  0  0  0  0  0
  -12.4000   -3.6340  -21.7240 C   0  0  0  0  0  0  0  0  0  0  0  0
  -13.2740   -2.5270  -22.2490 C   0  0  0  0  0  0  0  0  0  0  0  0
  -14.1220   -1.6380  -21.5680 C   0  0  0  0  0  0  0  0  0  0  0  0
  -14.7940   -0.9080  -22.4530 N   0  0  0  0  0  0  0  0  0  0  0  0
  -14.3740   -1.3850  -23.6080 N   0  0  0  0  0  0  0  0  0  0  0  0
  -13.4570   -2.3370  -23.5520 N   0  0  0  0  0  0  0  0  0  0  0  0
  -14.6350   -0.9700  -24.4910 H   0  0  0  0  0  0  0  0  0  0  0  0
  -14.2440   -1.4720  -20.5060 H   0  0  0  0  0  0  0  0  0  0  0  0
  -12.4000   -3.5910  -20.6350 H   0  0  0  0  0  0  0  0  0  0  0  0
  -12.8780   -4.5690  -22.0200 H   0  0  0  0  0  0  0  0  0  0  0  0
  -10.8420   -4.5310  -23.3240 C   0  0  0  0  0  0  0  0  0  0  0  0
  -11.7480   -5.1730  -23.8190 O   0  0  0  0  0  0  0  0  0  0  0  0
   -9.4600   -4.6740  -23.8620 C   0  0  0  0  0  0  0  0  0  0  0  0
   -9.2780   -5.6610  -24.8270 C   0  0  0  0  0  0  0  0  0  0  0  0
   -8.0400   -5.8750  -25.3910 C   0  0  0  0  0  0  0  0  0  0  0  0
   -6.9910   -5.0650  -24.9700 C   0  0  0  0  0  0  0  0  0  0  0  0
   -5.7820   -5.2810  -25.5140 F   0  0  0  0  0  0  0  0  0  0  0  0
   -7.1420   -4.0790  -24.0100 C   0  0  0  0  0  0  0  0  0  0  0  0
   -8.4070   -3.8730  -23.4330 C   0  0  0  0  0  0  0  0  0  0  0  0
   -6.2690   -3.5090  -23.7110 H   0  0  0  0  0  0  0  0  0  0  0  0
   -7.8770   -6.6480  -26.1340 H   0  0  0  0  0  0  0  0  0  0  0  0
  -10.1490   -6.2430  -25.1040 H   0  0  0  0  0  0  0  0  0  0  0  0
   -9.5360   -3.9910  -20.8320 H   0  0  0  0  0  0  0  0  0  0  0  0
  -10.2290   -2.3540  -20.9340 H   0  0  0  0  0  0  0  0  0  0  0  0
   -7.9620    0.5160  -22.2770 H   0  0  0  0  0  0  0  0  0  0  0  0
   -9.2150   -0.1750  -21.2200 H   0  0  0  0  0  0  0  0  0  0  0  0
   -8.1110   -1.2990  -23.8430 H   0  0  0  0  0  0  0  0  0  0  0  0
  -10.2470   -0.0420  -24.0490 H   0  0  0  0  0  0  0  0  0  0  0  0
  -10.4300   -1.7440  -24.4630 H   0  0  0  0  0  0  0  0  0  0  0  0
  -11.0340   -1.1550  -22.9120 H   0  0  0  0  0  0  0  0  0  0  0  0
  1  2  1  0  0  0  0
  1 53  1  0  0  0  0
  1 54  1  0  0  0  0
  1 55  1  0  0  0  0
  2  3  1  0  0  0  0
  2 23  1  0  0  0  0
  2 52  1  6  0  0  0
  3  4  1  0  0  0  0
  3 50  1  0  0  0  0
  3 51  1  0  0  0  0
  4  5  1  0  0  0  0
  4 21  1  0  0  0  0
  5  6  2  0  0  0  0
  5 14  1  0  0  0  0
  6  7  1  0  0  0  0
  6 20  1  0  0  0  0
  7  8  2  0  0  0  0
  8  9  1  0  0  0  0
  8 19  1  0  0  0  0
  9 10  2  0  0  0  0
  9 14  1  0  0  0  0
 10 11  1  0  0  0  0
 10 18  1  0  0  0  0
 11 12  2  0  0  0  0
 11 17  1  0  0  0  0
 12 13  1  0  0  0  0
 12 16  1  0  0  0  0
 13 14  2  0  0  0  0
 13 15  1  0  0  0  0
 21 22  2  0  0  0  0
 23 21  1  1  0  0  0
 23 24  1  0  0  0  0
 23 44  1  0  0  0  0
 24 25  1  0  0  0  0
 24 48  1  0  0  0  0
 24 49  1  0  0  0  0
 25 26  1  0  0  0  0
 25 36  1  0  0  0  0
 26 27  1  0  0  0  0
 26 34  1  0  0  0  0
 26 35  1  0  0  0  0
 27 28  1  0  0  0  0
 27 31  2  0  0  0  0
 28 29  2  0  0  0  0
 28 33  1  0  0  0  0
 29 30  1  0  0  0  0
 30 31  1  0  0  0  0
 30 32  1  0  0  0  0
 36 37  2  0  0  0  0
 36 38  1  0  0  0  0
 38 39  2  0  0  0  0
 38 44  1  0  0  0  0
 39 40  1  0  0  0  0
 39 47  1  0  0  0  0
 40 41  2  0  0  0  0
 40 46  1  0  0  0  0
 41 42  1  0  0  0  0
 41 43  1  0  0  0  0
 43 44  2  0  0  0  0
 43 45  1  0  0  0  0
M  END
>  <MODEL>
       1

$$$$
