output/tmp_first_model_2_12.pdb
 OpenBabel07242613513D

 76 82  0  0  1  0  0  0  0  0999 V2000
  -13.4230   -0.2540  -23.3750 O   0  0  0  0  0  0  0  0  0  0  0  0
  -12.3440   -0.8200  -23.2310 C   0  0  0  0  0  0  0  0  0  0  0  0
  -12.1800   -2.0340  -22.4460 C   0  0  0  0  0  0  0  0  0  0  0  0
  -13.2850   -2.5920  -21.7690 C   0  0  0  0  0  0  0  0  0  0  0  0
  -12.9350   -3.9940  -20.7330 C   0  0  0  0  0  0  0  0  0  0  0  0
  -12.8740   -3.9380  -21.0800 C   0  0  0  0  0  0  0  0  0  0  0  0
  -12.8530   -5.3740  -18.9620 Cl  0  0  0  0  0  0  0  0  0  0  0  0
  -10.9510   -3.7470  -21.4200 C   0  0  0  0  0  0  0  0  0  0  0  0
  -10.8670   -2.6560  -22.1890 C   0  0  0  0  0  0  0  0  0  0  0  0
   -9.5720   -1.9260  -22.6710 C   0  0  1  0  0  0  0  0  0  0  0  0
   -9.9750   -1.0820  -23.9170 C   0  0  0  0  0  0  0  0  0  0  0  0
  -11.1860   -0.3060  -23.7440 N   0  0  0  0  0  0  0  0  0  0  0  0
  -11.2270    1.0880  -24.1300 C   0  0  0  0  0  0  0  0  0  0  0  0
  -11.3200    2.0060  -22.9040 C   0  0  0  0  0  0  0  0  0  0  0  0
  -12.1050    3.2170  -23.2250 N   0  3  0  0  0  0  0  0  0  0  0  0
  -12.5590    3.9640  -22.0100 C   0  0  0  0  0  0  0  0  0  0  0  0
  -13.3730    5.1740  -22.4470 C   0  0  0  0  0  0  0  0  0  0  0  0
  -12.6220    6.0450  -23.2750 O   0  0  0  0  0  0  0  0  0  0  0  0
  -12.1830    5.3780  -24.4450 C   0  0  0  0  0  0  0  0  0  0  0  0
  -11.3360    4.1580  -24.1160 C   0  0  0  0  0  0  0  0  0  0  0  0
  -10.4340    4.4660  -23.5760 H   0  0  0  0  0  0  0  0  0  0  0  0
  -11.0340    3.6250  -25.0190 H   0  0  0  0  0  0  0  0  0  0  0  0
  -13.0510    5.0600  -25.0490 H   0  0  0  0  0  0  0  0  0  0  0  0
  -11.6040    6.1010  -25.0240 H   0  0  0  0  0  0  0  0  0  0  0  0
  -14.2640    4.8100  -22.9880 H   0  0  0  0  0  0  0  0  0  0  0  0
  -13.7030    5.7580  -21.5830 H   0  0  0  0  0  0  0  0  0  0  0  0
  -13.1530    3.2960  -21.3770 H   0  0  0  0  0  0  0  0  0  0  0  0
  -11.6740    4.2780  -21.4480 H   0  0  0  0  0  0  0  0  0  0  0  0
  -12.9690    2.8900  -23.7090 H   0  0  0  0  0  0  0  0  0  0  0  0
  -11.8110    1.5010  -22.0700 H   0  0  0  0  0  0  0  0  0  0  0  0
  -10.3200    2.2990  -22.5580 H   0  0  0  0  0  0  0  0  0  0  0  0
  -12.1040    1.2430  -24.7670 H   0  0  0  0  0  0  0  0  0  0  0  0
  -10.3350    1.3120  -24.7280 H   0  0  0  0  0  0  0  0  0  0  0  0
  -10.0970   -1.7640  -24.7680 H   0  0  0  0  0  0  0  0  0  0  0  0
   -9.1750   -0.3730  -24.1390 H   0  0  0  0  0  0  0  0  0  0  0  0
   -9.0240   -0.9560  -21.5800 C   0  0  0  0  0  0  0  0  0  0  0  0
   -9.6470   -0.0500  -21.0660 O   0  0  0  0  0  0  0  0  0  0  0  0
   -7.7090   -1.2700  -21.3140 N   0  0  0  0  0  0  0  0  0  0  0  0
   -6.9650   -0.6940  -20.2470 C   0  0  0  0  0  0  0  0  0  0  0  0
   -7.3280   -0.9070  -18.9390 C   0  0  0  0  0  0  0  0  0  0  0  0
   -6.6040   -0.4970  -17.8660 N   0  0  0  0  0  0  0  0  0  0  0  0
   -5.4930    0.1630  -18.0940 C   0  0  0  0  0  0  0  0  0  0  0  0
   -5.0030    0.4660  -19.3950 C   0  0  0  0  0  0  0  0  0  0  0  0
   -3.8090    1.2090  -19.5890 C   0  0  0  0  0  0  0  0  0  0  0  0
   -3.3570    1.4750  -20.8530 C   0  0  0  0  0  0  0  0  0  0  0  0
   -4.0730    1.0020  -21.9740 C   0  0  0  0  0  0  0  0  0  0  0  0
   -5.2350    0.2860  -21.8120 C   0  0  0  0  0  0  0  0  0  0  0  0
   -5.7420    0.0100  -20.5130 C   0  0  0  0  0  0  0  0  0  0  0  0
   -5.7830   -0.0650  -22.6810 H   0  0  0  0  0  0  0  0  0  0  0  0
   -3.7050    1.2200  -22.9720 H   0  0  0  0  0  0  0  0  0  0  0  0
   -2.4480    2.0550  -21.0020 H   0  0  0  0  0  0  0  0  0  0  0  0
   -3.2750    1.5730  -18.7150 H   0  0  0  0  0  0  0  0  0  0  0  0
   -4.9120    0.4880  -17.2280 H   0  0  0  0  0  0  0  0  0  0  0  0
   -8.2410   -1.4480  -18.6960 H   0  0  0  0  0  0  0  0  0  0  0  0
   -7.3480   -2.5800  -21.8150 C   0  0  0  0  0  0  0  0  0  0  0  0
   -8.3350   -2.8460  -22.9600 C   0  0  2  0  0  0  0  0  0  0  0  0
   -7.6610   -2.6370  -24.3420 C   0  0  0  0  0  0  0  0  0  0  0  0
   -6.5520   -3.5550  -24.5460 N   0  0  0  0  0  0  0  0  0  0  0  0
   -6.7520   -4.8090  -25.0530 C   0  0  0  0  0  0  0  0  0  0  0  0
   -5.6410   -5.4470  -25.4710 N   0  0  0  0  0  0  0  0  0  0  0  0
   -5.8250   -6.6760  -25.9310 C   0  0  0  0  0  0  0  0  0  0  0  0
   -7.0730   -7.2930  -25.9900 C   0  0  0  0  0  0  0  0  0  0  0  0
   -8.1420   -6.5330  -25.5430 C   0  0  0  0  0  0  0  0  0  0  0  0
   -8.0020   -5.2940  -25.0710 N   0  0  0  0  0  0  0  0  0  0  0  0
   -9.1610   -6.9230  -25.5660 H   0  0  0  0  0  0  0  0  0  0  0  0
   -7.2000   -8.2940  -26.3810 H   0  0  0  0  0  0  0  0  0  0  0  0
   -4.9270   -7.1930  -26.2760 H   0  0  0  0  0  0  0  0  0  0  0  0
   -5.6640   -3.1680  -24.8270 H   0  0  0  0  0  0  0  0  0  0  0  0
   -8.4020   -2.8130  -25.1260 H   0  0  0  0  0  0  0  0  0  0  0  0
   -7.2810   -1.6130  -24.4390 H   0  0  0  0  0  0  0  0  0  0  0  0
   -8.6180   -3.9010  -22.9750 H   0  0  0  0  0  0  0  0  0  0  0  0
   -6.3060   -2.5820  -22.1450 H   0  0  0  0  0  0  0  0  0  0  0  0
   -7.4530   -3.3410  -21.0270 H   0  0  0  0  0  0  0  0  0  0  0  0
  -10.1650   -4.3860  -21.0520 H   0  0  0  0  0  0  0  0  0  0  0  0
  -12.9390   -3.3590  -19.8670 H   0  0  0  0  0  0  0  0  0  0  0  0
  -14.2360   -2.6410  -22.2660 H   0  0  0  0  0  0  0  0  0  0  0  0
  1  2  2  0  0  0  0
  2  3  1  0  0  0  0
  2 12  1  0  0  0  0
  3  4  2  0  0  0  0
  3  9  1  0  0  0  0
  4  5  1  0  0  0  0
  4 76  1  0  0  0  0
  5  6  2  0  0  0  0
  5 75  1  0  0  0  0
  6  7  1  0  0  0  0
  6  8  1  0  0  0  0
  8  9  2  0  0  0  0
  8 74  1  0  0  0  0
 10  9  1  1  0  0  0
 10 11  1  0  0  0  0
 10 36  1  0  0  0  0
 10 56  1  0  0  0  0
 11 12  1  0  0  0  0
 11 34  1  0  0  0  0
 11 35  1  0  0  0  0
 12 13  1  0  0  0  0
 13 14  1  0  0  0  0
 13 32  1  0  0  0  0
 13 33  1  0  0  0  0
 14 15  1  0  0  0  0
 14 30  1  0  0  0  0
 14 31  1  0  0  0  0
 15 16  1  0  0  0  0
 15 20  1  0  0  0  0
 15 29  1  0  0  0  0
 16 17  1  0  0  0  0
 16 27  1  0  0  0  0
 16 28  1  0  0  0  0
 17 18  1  0  0  0  0
 17 25  1  0  0  0  0
 17 26  1  0  0  0  0
 18 19  1  0  0  0  0
 19 20  1  0  0  0  0
 19 23  1  0  0  0  0
 19 24  1  0  0  0  0
 20 21  1  0  0  0  0
 20 22  1  0  0  0  0
 36 37  2  0  0  0  0
 36 38  1  0  0  0  0
 38 39  1  0  0  0  0
 38 55  1  0  0  0  0
 39 40  2  0  0  0  0
 39 48  1  0  0  0  0
 40 41  1  0  0  0  0
 40 54  1  0  0  0  0
 41 42  2  0  0  0  0
 42 43  1  0  0  0  0
 42 53  1  0  0  0  0
 43 44  2  0  0  0  0
 43 48  1  0  0  0  0
 44 45  1  0  0  0  0
 44 52  1  0  0  0  0
 45 46  2  0  0  0  0
 45 51  1  0  0  0  0
 46 47  1  0  0  0  0
 46 50  1  0  0  0  0
 47 48  2  0  0  0  0
 47 49  1  0  0  0  0
 55 56  1  0  0  0  0
 55 72  1  0  0  0  0
 55 73  1  0  0  0  0
 56 57  1  0  0  0  0
 56 71  1  1  0  0  0
 57 58  1  0  0  0  0
 57 69  1  0  0  0  0
 57 70  1  0  0  0  0
 58 59  1  0  0  0  0
 58 68  1  0  0  0  0
 59 60  2  0  0  0  0
 59 64  1  0  0  0  0
 60 61  1  0  0  0  0
 61 62  2  0  0  0  0
 61 67  1  0  0  0  0
 62 63  1  0  0  0  0
 62 66  1  0  0  0  0
 63 64  2  0  0  0  0
 63 65  1  0  0  0  0
M  CHG  1  15   1
M  END
>  <MODEL>
       1

$$$$
