output/tmp_first_model_1_30.pdb
 OpenBabel07242613193D

 58 63  0  0  1  0  0  0  0  0999 V2000
   -7.0450   -4.7670  -23.1990 C   0  0  0  0  0  0  0  0  0  0  0  0
   -7.3140   -3.5200  -22.3570 C   0  0  1  0  0  0  0  0  0  0  0  0
   -6.2470   -3.2380  -21.2710 C   0  0  0  0  0  0  0  0  0  0  0  0
   -6.4180   -1.8180  -21.0150 N   0  0  0  0  0  0  0  0  0  0  0  0
   -5.8870   -1.0950  -19.9260 C   0  0  0  0  0  0  0  0  0  0  0  0
   -6.3290   -1.3510  -18.6510 C   0  0  0  0  0  0  0  0  0  0  0  0
   -5.9080   -0.6840  -17.5500 N   0  0  0  0  0  0  0  0  0  0  0  0
   -4.9930    0.2420  -17.7180 C   0  0  0  0  0  0  0  0  0  0  0  0
   -4.4150    0.5710  -18.9780 C   0  0  0  0  0  0  0  0  0  0  0  0
   -3.3760    1.5280  -19.0980 C   0  0  0  0  0  0  0  0  0  0  0  0
   -2.9100    1.9000  -20.3260 C   0  0  0  0  0  0  0  0  0  0  0  0
   -3.4600    1.3230  -21.4930 C   0  0  0  0  0  0  0  0  0  0  0  0
   -4.4210    0.3510  -21.4050 C   0  0  0  0  0  0  0  0  0  0  0  0
   -4.9130   -0.0650  -20.1330 C   0  0  0  0  0  0  0  0  0  0  0  0
   -4.8380   -0.0750  -22.3130 H   0  0  0  0  0  0  0  0  0  0  0  0
   -3.1160    1.6550  -22.4660 H   0  0  0  0  0  0  0  0  0  0  0  0
   -2.1280    2.6470  -20.4130 H   0  0  0  0  0  0  0  0  0  0  0  0
   -2.9690    1.9550  -18.1880 H   0  0  0  0  0  0  0  0  0  0  0  0
   -4.6700    0.7920  -16.8350 H   0  0  0  0  0  0  0  0  0  0  0  0
   -7.0910   -2.1160  -18.4840 H   0  0  0  0  0  0  0  0  0  0  0  0
   -7.1310   -1.1720  -21.9970 C   0  0  0  0  0  0  0  0  0  0  0  0
   -7.4700   -0.0120  -21.9390 O   0  0  0  0  0  0  0  0  0  0  0  0
   -7.3920   -2.1790  -23.1450 C   0  0  1  0  0  0  0  0  0  0  0  0
   -6.2260   -2.0990  -24.1770 C   0  0  0  0  0  0  0  0  0  0  0  0
   -6.2640   -0.8890  -24.9860 N   0  0  0  0  0  0  0  0  0  0  0  0
   -5.0180   -0.4270  -25.5970 C   0  0  0  0  0  0  0  0  0  0  0  0
   -4.8450   -0.8050  -27.0530 C   0  0  0  0  0  0  0  0  0  0  0  0
   -5.1140    0.0870  -28.0350 C   0  0  0  0  0  0  0  0  0  0  0  0
   -5.1090   -0.3030  -29.4230 C   0  0  0  0  0  0  0  0  0  0  0  0
   -5.4070    0.3620  -30.3960 O   0  0  0  0  0  0  0  0  0  0  0  0
   -4.6820   -1.6350  -29.5800 N   0  0  0  0  0  0  0  0  0  0  0  0
   -4.3290   -2.4350  -28.5370 C   0  0  0  0  0  0  0  0  0  0  0  0
   -4.4000   -2.0910  -27.2930 N   0  0  0  0  0  0  0  0  0  0  0  0
   -3.9810   -3.4280  -28.8050 H   0  0  0  0  0  0  0  0  0  0  0  0
   -4.6210   -1.9530  -30.5380 H   0  0  0  0  0  0  0  0  0  0  0  0
   -5.4300    1.0930  -27.7950 H   0  0  0  0  0  0  0  0  0  0  0  0
   -4.1970   -0.8810  -25.0410 H   0  0  0  0  0  0  0  0  0  0  0  0
   -4.9810    0.6630  -25.4870 H   0  0  0  0  0  0  0  0  0  0  0  0
   -7.4220   -0.2750  -25.3680 C   0  0  0  0  0  0  0  0  0  0  0  0
   -7.4360    0.6920  -26.1190 O   0  0  0  0  0  0  0  0  0  0  0  0
   -8.6960   -0.8660  -24.8470 C   0  0  0  0  0  0  0  0  0  0  0  0
   -9.8960   -0.4020  -25.3800 C   0  0  0  0  0  0  0  0  0  0  0  0
  -11.1130   -0.8280  -24.8960 C   0  0  0  0  0  0  0  0  0  0  0  0
  -11.0980   -1.7360  -23.8380 C   0  0  0  0  0  0  0  0  0  0  0  0
  -12.2440   -2.1730  -23.2920 F   0  0  0  0  0  0  0  0  0  0  0  0
   -9.9240   -2.2350  -23.3100 C   0  0  0  0  0  0  0  0  0  0  0  0
   -8.6930   -1.8140  -23.8160 C   0  0  0  0  0  0  0  0  0  0  0  0
   -9.9910   -2.8960  -22.4550 H   0  0  0  0  0  0  0  0  0  0  0  0
  -12.0300   -0.4600  -25.3450 H   0  0  0  0  0  0  0  0  0  0  0  0
   -9.8680    0.3180  -26.1870 H   0  0  0  0  0  0  0  0  0  0  0  0
   -6.2210   -2.9640  -24.8540 H   0  0  0  0  0  0  0  0  0  0  0  0
   -5.2760   -2.1180  -23.6260 H   0  0  0  0  0  0  0  0  0  0  0  0
   -5.2430   -3.4580  -21.6660 H   0  0  0  0  0  0  0  0  0  0  0  0
   -6.3630   -3.8030  -20.3410 H   0  0  0  0  0  0  0  0  0  0  0  0
   -8.2720   -3.6300  -21.8420 H   0  0  0  0  0  0  0  0  0  0  0  0
   -7.0100   -5.6760  -22.5860 H   0  0  0  0  0  0  0  0  0  0  0  0
   -7.8160   -4.9020  -23.9700 H   0  0  0  0  0  0  0  0  0  0  0  0
   -6.0780   -4.6760  -23.7080 H   0  0  0  0  0  0  0  0  0  0  0  0
  1  2  1  0  0  0  0
  1 56  1  0  0  0  0
  1 57  1  0  0  0  0
  1 58  1  0  0  0  0
  2  3  1  0  0  0  0
  2 23  1  0  0  0  0
  2 55  1  1  0  0  0
  3  4  1  0  0  0  0
  3 53  1  0  0  0  0
  3 54  1  0  0  0  0
  4  5  1  0  0  0  0
  4 21  1  0  0  0  0
  5  6  2  0  0  0  0
  5 14  1  0  0  0  0
  6  7  1  0  0  0  0
  6 20  1  0  0  0  0
  7  8  2  0  0  0  0
  8  9  1  0  0  0  0
  8 19  1  0  0  0  0
  9 10  2  0  0  0  0
  9 14  1  0  0  0  0
 10 11  1  0  0  0  0
 10 18  1  0  0  0  0
 11 12  2  0  0  0  0
 11 17  1  0  0  0  0
 12 13  1  0  0  0  0
 12 16  1  0  0  0  0
 13 14  2  0  0  0  0
 13 15  1  0  0  0  0
 21 22  2  0  0  0  0
 23 21  1  1  0  0  0
 23 24  1  0  0  0  0
 23 47  1  0  0  0  0
 24 25  1  0  0  0  0
 24 51  1  0  0  0  0
 24 52  1  0  0  0  0
 25 26  1  0  0  0  0
 25 39  1  0  0  0  0
 26 27  1  0  0  0  0
 26 37  1  0  0  0  0
 26 38  1  0  0  0  0
 27 28  2  0  0  0  0
 27 33  1  0  0  0  0
 28 29  1  0  0  0  0
 28 36  1  0  0  0  0
 29 30  2  0  0  0  0
 29 31  1  0  0  0  0
 31 32  1  0  0  0  0
 31 35  1  0  0  0  0
 32 33  2  0  0  0  0
 32 34  1  0  0  0  0
 39 40  2  0  0  0  0
 39 41  1  0  0  0  0
 41 42  2  0  0  0  0
 41 47  1  0  0  0  0
 42 43  1  0  0  0  0
 42 50  1  0  0  0  0
 43 44  2  0  0  0  0
 43 49  1  0  0  0  0
 44 45  1  0  0  0  0
 44 46  1  0  0  0  0
 46 47  2  0  0  0  0
 46 48  1  0  0  0  0
M  END
>  <MODEL>
       1

$$$$
