output/tmp_first_model_1_55.pdb
 OpenBabel07242613193D

 61 66  0  0  1  0  0  0  0  0999 V2000
  -12.3850   -2.2310  -22.6160 C   0  0  0  0  0  0  0  0  0  0  0  0
  -11.3650   -2.3460  -21.6570 O   0  0  0  0  0  0  0  0  0  0  0  0
  -10.1920   -2.9900  -22.1000 C   0  0  0  0  0  0  0  0  0  0  0  0
   -9.1510   -1.9910  -22.6590 C   0  0  1  0  0  0  0  0  0  0  0  0
   -8.7180   -0.9970  -21.5620 C   0  0  0  0  0  0  0  0  0  0  0  0
   -7.3850   -1.4220  -21.1990 N   0  0  0  0  0  0  0  0  0  0  0  0
   -6.6040   -0.8260  -20.1900 C   0  0  0  0  0  0  0  0  0  0  0  0
   -6.9260   -1.0500  -18.8800 C   0  0  0  0  0  0  0  0  0  0  0  0
   -6.2350   -0.5600  -17.8260 N   0  0  0  0  0  0  0  0  0  0  0  0
   -5.1980    0.1970  -18.0980 C   0  0  0  0  0  0  0  0  0  0  0  0
   -4.7590    0.5100  -19.4160 C   0  0  0  0  0  0  0  0  0  0  0  0
   -3.6320    1.3420  -19.6340 C   0  0  0  0  0  0  0  0  0  0  0  0
   -3.2330    1.6490  -20.9030 C   0  0  0  0  0  0  0  0  0  0  0  0
   -3.9470    1.1410  -22.0140 C   0  0  0  0  0  0  0  0  0  0  0  0
   -5.0440    0.3350  -21.8370 C   0  0  0  0  0  0  0  0  0  0  0  0
   -5.4750   -0.0110  -20.5170 C   0  0  0  0  0  0  0  0  0  0  0  0
   -5.5830   -0.0340  -22.7130 H   0  0  0  0  0  0  0  0  0  0  0  0
   -3.6200    1.4050  -23.0160 H   0  0  0  0  0  0  0  0  0  0  0  0
   -2.3810    2.3010  -21.0680 H   0  0  0  0  0  0  0  0  0  0  0  0
   -3.1140    1.7400  -18.7660 H   0  0  0  0  0  0  0  0  0  0  0  0
   -4.6450    0.6060  -17.2520 H   0  0  0  0  0  0  0  0  0  0  0  0
   -7.7790   -1.6850  -18.6460 H   0  0  0  0  0  0  0  0  0  0  0  0
   -6.8520   -2.4050  -21.9920 C   0  0  0  0  0  0  0  0  0  0  0  0
   -5.7970   -2.9610  -21.7670 O   0  0  0  0  0  0  0  0  0  0  0  0
   -7.8280   -2.6450  -23.1580 C   0  0  1  0  0  0  0  0  0  0  0  0
   -7.9380   -4.1520  -23.3760 C   0  0  0  0  0  0  0  0  0  0  0  0
   -6.6720   -4.6630  -23.8700 N   0  0  0  0  0  0  0  0  0  0  0  0
   -6.2820   -5.9940  -23.4340 C   0  0  0  0  0  0  0  0  0  0  0  0
   -7.1580   -7.0350  -24.0710 C   0  0  0  0  0  0  0  0  0  0  0  0
   -7.1030   -7.5320  -25.3250 C   0  0  0  0  0  0  0  0  0  0  0  0
   -8.2820   -8.2050  -25.5620 N   0  3  0  0  0  0  0  0  0  0  0  0
   -9.0460   -8.1340  -24.4610 C   0  0  0  0  0  0  0  0  0  0  0  0
   -8.3860   -7.4150  -23.5400 N   0  0  0  0  0  0  0  0  0  0  0  0
   -8.7350   -7.1690  -22.6180 H   0  0  0  0  0  0  0  0  0  0  0  0
  -10.0540   -8.4930  -24.3460 H   0  0  0  0  0  0  0  0  0  0  0  0
   -8.4650   -8.7130  -26.4190 H   0  0  0  0  0  0  0  0  0  0  0  0
   -6.3340   -7.4310  -26.0830 H   0  0  0  0  0  0  0  0  0  0  0  0
   -6.3350   -6.0110  -22.3360 H   0  0  0  0  0  0  0  0  0  0  0  0
   -5.2370   -6.1390  -23.7160 H   0  0  0  0  0  0  0  0  0  0  0  0
   -6.1630   -4.1920  -25.0500 C   0  0  0  0  0  0  0  0  0  0  0  0
   -5.4250   -4.8570  -25.7700 O   0  0  0  0  0  0  0  0  0  0  0  0
   -6.5470   -2.7830  -25.3570 C   0  0  0  0  0  0  0  0  0  0  0  0
   -6.0960   -2.2310  -26.5530 C   0  0  0  0  0  0  0  0  0  0  0  0
   -6.3160   -0.9020  -26.8470 C   0  0  0  0  0  0  0  0  0  0  0  0
   -7.0040   -0.1280  -25.9150 C   0  0  0  0  0  0  0  0  0  0  0  0
   -7.2550    1.5640  -26.2400 Cl  0  0  0  0  0  0  0  0  0  0  0  0
   -7.4910   -0.6710  -24.7360 C   0  0  0  0  0  0  0  0  0  0  0  0
   -7.2910   -2.0250  -24.4460 C   0  0  0  0  0  0  0  0  0  0  0  0
   -8.0330   -0.0180  -24.0610 H   0  0  0  0  0  0  0  0  0  0  0  0
   -5.9490   -0.4620  -27.7670 H   0  0  0  0  0  0  0  0  0  0  0  0
   -5.5610   -2.8790  -27.2340 H   0  0  0  0  0  0  0  0  0  0  0  0
   -8.1530   -4.6420  -22.4250 H   0  0  0  0  0  0  0  0  0  0  0  0
   -8.7610   -4.3620  -24.0810 H   0  0  0  0  0  0  0  0  0  0  0  0
   -9.3850   -1.0550  -20.7080 H   0  0  0  0  0  0  0  0  0  0  0  0
   -8.7300    0.0500  -21.8920 H   0  0  0  0  0  0  0  0  0  0  0  0
   -9.6440   -1.4700  -23.4860 H   0  0  0  0  0  0  0  0  0  0  0  0
   -9.7760   -3.5000  -21.2210 H   0  0  0  0  0  0  0  0  0  0  0  0
  -10.4440   -3.7600  -22.8470 H   0  0  0  0  0  0  0  0  0  0  0  0
  -12.7770   -3.2130  -22.9240 H   0  0  0  0  0  0  0  0  0  0  0  0
  -13.1980   -1.6680  -22.1490 H   0  0  0  0  0  0  0  0  0  0  0  0
  -12.0540   -1.6890  -23.5140 H   0  0  0  0  0  0  0  0  0  0  0  0
  1  2  1  0  0  0  0
  1 59  1  0  0  0  0
  1 60  1  0  0  0  0
  1 61  1  0  0  0  0
  2  3  1  0  0  0  0
  3  4  1  0  0  0  0
  3 57  1  0  0  0  0
  3 58  1  0  0  0  0
  4  5  1  0  0  0  0
  4 25  1  0  0  0  0
  4 56  1  6  0  0  0
  5  6  1  0  0  0  0
  5 54  1  0  0  0  0
  5 55  1  0  0  0  0
  6  7  1  0  0  0  0
  6 23  1  0  0  0  0
  7  8  2  0  0  0  0
  7 16  1  0  0  0  0
  8  9  1  0  0  0  0
  8 22  1  0  0  0  0
  9 10  2  0  0  0  0
 10 11  1  0  0  0  0
 10 21  1  0  0  0  0
 11 12  2  0  0  0  0
 11 16  1  0  0  0  0
 12 13  1  0  0  0  0
 12 20  1  0  0  0  0
 13 14  2  0  0  0  0
 13 19  1  0  0  0  0
 14 15  1  0  0  0  0
 14 18  1  0  0  0  0
 15 16  2  0  0  0  0
 15 17  1  0  0  0  0
 23 24  2  0  0  0  0
 25 23  1  1  0  0  0
 25 26  1  0  0  0  0
 25 48  1  0  0  0  0
 26 27  1  0  0  0  0
 26 52  1  0  0  0  0
 26 53  1  0  0  0  0
 27 28  1  0  0  0  0
 27 40  1  0  0  0  0
 28 29  1  0  0  0  0
 28 38  1  0  0  0  0
 28 39  1  0  0  0  0
 29 30  2  0  0  0  0
 29 33  1  0  0  0  0
 30 31  1  0  0  0  0
 30 37  1  0  0  0  0
 31 32  2  0  0  0  0
 31 36  1  0  0  0  0
 32 33  1  0  0  0  0
 32 35  1  0  0  0  0
 33 34  1  0  0  0  0
 40 41  2  0  0  0  0
 40 42  1  0  0  0  0
 42 43  2  0  0  0  0
 42 48  1  0  0  0  0
 43 44  1  0  0  0  0
 43 51  1  0  0  0  0
 44 45  2  0  0  0  0
 44 50  1  0  0  0  0
 45 46  1  0  0  0  0
 45 47  1  0  0  0  0
 47 48  2  0  0  0  0
 47 49  1  0  0  0  0
M  CHG  1  31   1
M  END
>  <MODEL>
       1

$$$$
