output/tmp_first_model_6_97.pdb
 OpenBabel07242616043D

 40 43  0  0  1  0  0  0  0  0999 V2000
   -8.7560   -6.1150  -24.3480 C   0  0  0  0  0  0  0  0  0  0  0  0
   -9.0400   -5.0580  -23.2940 C   0  0  2  0  0  0  0  0  0  0  0  0
  -10.5550   -5.0240  -23.0530 C   0  0  0  0  0  0  0  0  0  0  0  0
  -11.0130   -3.7960  -22.5130 O   0  0  0  0  0  0  0  0  0  0  0  0
  -10.0650   -3.2190  -21.6530 C   0  0  0  0  0  0  0  0  0  0  0  0
   -8.8490   -2.7110  -22.4670 C   0  0  1  0  0  0  0  0  0  0  0  0
   -8.5890   -3.6480  -23.6540 C   0  0  0  0  0  0  0  0  0  0  0  0
   -9.1250   -3.2730  -24.5350 H   0  0  0  0  0  0  0  0  0  0  0  0
   -7.5230   -3.6280  -23.9000 H   0  0  0  0  0  0  0  0  0  0  0  0
   -9.0060   -1.3170  -22.8880 N   0  0  0  0  0  0  0  0  0  0  0  0
   -8.3580   -0.4400  -22.0450 C   0  0  0  0  0  0  0  0  0  0  0  0
   -8.4380    0.7620  -21.9730 O   0  0  0  0  0  0  0  0  0  0  0  0
   -7.5190   -1.2350  -21.2390 N   0  0  0  0  0  0  0  0  0  0  0  0
   -6.6770   -0.7360  -20.2070 C   0  0  0  0  0  0  0  0  0  0  0  0
   -6.9380   -1.0570  -18.8980 C   0  0  0  0  0  0  0  0  0  0  0  0
   -6.2410   -0.5880  -17.8340 N   0  0  0  0  0  0  0  0  0  0  0  0
   -5.2340    0.2080  -18.0930 C   0  0  0  0  0  0  0  0  0  0  0  0
   -4.8380    0.5990  -19.3990 C   0  0  0  0  0  0  0  0  0  0  0  0
   -3.6870    1.4010  -19.5910 C   0  0  0  0  0  0  0  0  0  0  0  0
   -3.2900    1.7300  -20.8530 C   0  0  0  0  0  0  0  0  0  0  0  0
   -4.0240    1.2730  -21.9650 C   0  0  0  0  0  0  0  0  0  0  0  0
   -5.1280    0.4760  -21.8030 C   0  0  0  0  0  0  0  0  0  0  0  0
   -5.5740    0.1240  -20.5010 C   0  0  0  0  0  0  0  0  0  0  0  0
   -5.6410    0.0890  -22.6750 H   0  0  0  0  0  0  0  0  0  0  0  0
   -3.6760    1.5110  -22.9630 H   0  0  0  0  0  0  0  0  0  0  0  0
   -2.3970    2.3240  -21.0060 H   0  0  0  0  0  0  0  0  0  0  0  0
   -3.1230    1.7120  -18.7170 H   0  0  0  0  0  0  0  0  0  0  0  0
   -4.6490    0.5500  -17.2440 H   0  0  0  0  0  0  0  0  0  0  0  0
   -7.7650   -1.7170  -18.6530 H   0  0  0  0  0  0  0  0  0  0  0  0
   -7.6250   -2.5780  -21.5630 C   0  0  0  0  0  0  0  0  0  0  0  0
   -6.8550   -3.4390  -21.2170 O   0  0  0  0  0  0  0  0  0  0  0  0
   -9.8880   -1.0170  -23.2750 H   0  0  0  0  0  0  0  0  0  0  0  0
  -10.5350   -2.3770  -21.1350 H   0  0  0  0  0  0  0  0  0  0  0  0
   -9.7510   -3.9480  -20.8960 H   0  0  0  0  0  0  0  0  0  0  0  0
  -11.0660   -5.1630  -24.0170 H   0  0  0  0  0  0  0  0  0  0  0  0
  -10.8430   -5.8510  -22.3950 H   0  0  0  0  0  0  0  0  0  0  0  0
   -8.5090   -5.3490  -22.3770 H   0  0  0  0  0  0  0  0  0  0  0  0
   -9.2550   -5.8510  -25.2840 H   0  0  0  0  0  0  0  0  0  0  0  0
   -9.1430   -7.0880  -24.0240 H   0  0  0  0  0  0  0  0  0  0  0  0
   -7.6910   -6.2350  -24.5670 H   0  0  0  0  0  0  0  0  0  0  0  0
  1  2  1  0  0  0  0
  1 38  1  0  0  0  0
  1 39  1  0  0  0  0
  1 40  1  0  0  0  0
  2  3  1  0  0  0  0
  2  7  1  0  0  0  0
  2 37  1  1  0  0  0
  3  4  1  0  0  0  0
  3 35  1  0  0  0  0
  3 36  1  0  0  0  0
  4  5  1  0  0  0  0
  5  6  1  0  0  0  0
  5 33  1  0  0  0  0
  5 34  1  0  0  0  0
  6  7  1  0  0  0  0
  6 10  1  0  0  0  0
  6 30  1  1  0  0  0
  7  8  1  0  0  0  0
  7  9  1  0  0  0  0
 10 11  1  0  0  0  0
 10 32  1  0  0  0  0
 11 12  2  0  0  0  0
 11 13  1  0  0  0  0
 13 14  1  0  0  0  0
 13 30  1  0  0  0  0
 14 15  2  0  0  0  0
 14 23  1  0  0  0  0
 15 16  1  0  0  0  0
 15 29  1  0  0  0  0
 16 17  2  0  0  0  0
 17 18  1  0  0  0  0
 17 28  1  0  0  0  0
 18 19  2  0  0  0  0
 18 23  1  0  0  0  0
 19 20  1  0  0  0  0
 19 27  1  0  0  0  0
 20 21  2  0  0  0  0
 20 26  1  0  0  0  0
 21 22  1  0  0  0  0
 21 25  1  0  0  0  0
 22 23  2  0  0  0  0
 22 24  1  0  0  0  0
 30 31  2  0  0  0  0
M  END
>  <MODEL>
       1

$$$$
