output/tmp_first_model_1_75.pdb
 OpenBabel07242613193D

 66 71  0  0  1  0  0  0  0  0999 V2000
   -5.8170   -0.1880  -29.5360 C   0  0  0  0  0  0  0  0  0  0  0  0
   -5.7530    0.2240  -28.1530 N   0  0  0  0  0  0  0  0  0  0  0  0
   -5.1410   -0.5500  -27.2170 C   0  0  0  0  0  0  0  0  0  0  0  0
   -4.4800   -1.5390  -27.4750 O   0  0  0  0  0  0  0  0  0  0  0  0
   -5.3260   -0.0490  -25.7710 C   0  0  0  0  0  0  0  0  0  0  0  0
   -6.5280   -0.5630  -25.1190 N   0  0  0  0  0  0  0  0  0  0  0  0
   -6.4680   -1.8230  -24.3850 C   0  0  0  0  0  0  0  0  0  0  0  0
   -7.5440   -1.9080  -23.2550 C   0  0  2  0  0  0  0  0  0  0  0  0
   -7.1610   -1.0460  -22.0380 C   0  0  0  0  0  0  0  0  0  0  0  0
   -7.5260    0.0790  -21.7750 O   0  0  0  0  0  0  0  0  0  0  0  0
   -6.3460   -1.8130  -21.2230 N   0  0  0  0  0  0  0  0  0  0  0  0
   -5.7930   -1.2250  -20.0650 C   0  0  0  0  0  0  0  0  0  0  0  0
   -6.2290   -1.5600  -18.8090 C   0  0  0  0  0  0  0  0  0  0  0  0
   -5.8260   -0.9530  -17.6670 N   0  0  0  0  0  0  0  0  0  0  0  0
   -4.9510    0.0220  -17.7720 C   0  0  0  0  0  0  0  0  0  0  0  0
   -4.3860    0.4500  -19.0060 C   0  0  0  0  0  0  0  0  0  0  0  0
   -3.4210    1.4960  -19.0750 C   0  0  0  0  0  0  0  0  0  0  0  0
   -2.9150    1.8940  -20.2840 C   0  0  0  0  0  0  0  0  0  0  0  0
   -3.3350    1.2570  -21.4770 C   0  0  0  0  0  0  0  0  0  0  0  0
   -4.2480    0.2340  -21.4300 C   0  0  0  0  0  0  0  0  0  0  0  0
   -4.8170   -0.1850  -20.1920 C   0  0  0  0  0  0  0  0  0  0  0  0
   -4.5590   -0.2640  -22.3430 H   0  0  0  0  0  0  0  0  0  0  0  0
   -2.9360    1.5870  -22.4340 H   0  0  0  0  0  0  0  0  0  0  0  0
   -2.1910    2.7040  -20.3430 H   0  0  0  0  0  0  0  0  0  0  0  0
   -3.0990    1.9750  -18.1510 H   0  0  0  0  0  0  0  0  0  0  0  0
   -4.6490    0.5210  -16.8510 H   0  0  0  0  0  0  0  0  0  0  0  0
   -6.9770   -2.3440  -18.6910 H   0  0  0  0  0  0  0  0  0  0  0  0
   -6.3530   -3.2270  -21.5840 C   0  0  0  0  0  0  0  0  0  0  0  0
   -7.5400   -3.2890  -22.5550 C   0  0  2  0  0  0  0  0  0  0  0  0
   -7.5950   -4.5190  -23.4640 C   0  0  0  0  0  0  0  0  0  0  0  0
   -7.7450   -5.7690  -22.7350 N   0  0  0  0  0  0  0  0  0  0  0  0
   -6.6280   -6.4530  -22.2840 C   0  0  0  0  0  0  0  0  0  0  0  0
   -5.4960   -6.6670  -23.1030 C   0  0  0  0  0  0  0  0  0  0  0  0
   -4.4520   -7.3640  -22.6880 N   0  0  0  0  0  0  0  0  0  0  0  0
   -4.5130   -7.8630  -21.4480 C   0  0  0  0  0  0  0  0  0  0  0  0
   -5.6200   -7.6630  -20.6470 C   0  0  0  0  0  0  0  0  0  0  0  0
   -6.6750   -6.9540  -21.0530 N   0  0  0  0  0  0  0  0  0  0  0  0
   -5.6850   -8.1050  -19.6530 H   0  0  0  0  0  0  0  0  0  0  0  0
   -3.6600   -8.4350  -21.0900 H   0  0  0  0  0  0  0  0  0  0  0  0
   -5.4610   -6.2940  -24.1260 H   0  0  0  0  0  0  0  0  0  0  0  0
   -8.4690   -5.7580  -22.0260 H   0  0  0  0  0  0  0  0  0  0  0  0
   -8.4210   -4.4120  -24.1780 H   0  0  0  0  0  0  0  0  0  0  0  0
   -6.6770   -4.5920  -24.0490 H   0  0  0  0  0  0  0  0  0  0  0  0
   -8.4540   -3.2870  -21.9520 H   0  0  0  0  0  0  0  0  0  0  0  0
   -5.4220   -3.5200  -22.0950 H   0  0  0  0  0  0  0  0  0  0  0  0
   -6.4700   -3.8660  -20.7030 H   0  0  0  0  0  0  0  0  0  0  0  0
   -8.8790   -1.4830  -23.7990 C   0  0  0  0  0  0  0  0  0  0  0  0
  -10.0810   -1.7460  -23.1250 C   0  0  0  0  0  0  0  0  0  0  0  0
  -11.2910   -1.4680  -23.7360 C   0  0  0  0  0  0  0  0  0  0  0  0
  -12.7380   -1.9680  -22.8990 Cl  0  0  0  0  0  0  0  0  0  0  0  0
  -11.3400   -0.8540  -24.9890 C   0  0  0  0  0  0  0  0  0  0  0  0
  -10.1560   -0.4750  -25.5740 C   0  0  0  0  0  0  0  0  0  0  0  0
   -8.9360   -0.7250  -24.9660 C   0  0  0  0  0  0  0  0  0  0  0  0
   -7.7250   -0.0900  -25.5600 C   0  0  0  0  0  0  0  0  0  0  0  0
   -7.8090    0.8120  -26.3990 O   0  0  0  0  0  0  0  0  0  0  0  0
  -10.1620    0.0030  -26.5350 H   0  0  0  0  0  0  0  0  0  0  0  0
  -12.2470   -0.5600  -25.4960 H   0  0  0  0  0  0  0  0  0  0  0  0
  -10.0940   -2.1270  -22.1090 H   0  0  0  0  0  0  0  0  0  0  0  0
   -5.4640   -1.9250  -23.9590 H   0  0  0  0  0  0  0  0  0  0  0  0
   -6.6110   -2.6530  -25.0940 H   0  0  0  0  0  0  0  0  0  0  0  0
   -4.4530   -0.3690  -25.1970 H   0  0  0  0  0  0  0  0  0  0  0  0
   -5.3810    1.0420  -25.7480 H   0  0  0  0  0  0  0  0  0  0  0  0
   -6.4920    0.8260  -27.8100 H   0  0  0  0  0  0  0  0  0  0  0  0
   -6.4940   -1.0360  -29.6870 H   0  0  0  0  0  0  0  0  0  0  0  0
   -6.1740    0.6600  -30.1250 H   0  0  0  0  0  0  0  0  0  0  0  0
   -4.8260   -0.4720  -29.8950 H   0  0  0  0  0  0  0  0  0  0  0  0
  1  2  1  0  0  0  0
  1 64  1  0  0  0  0
  1 65  1  0  0  0  0
  1 66  1  0  0  0  0
  2  3  1  0  0  0  0
  2 63  1  0  0  0  0
  3  4  2  0  0  0  0
  3  5  1  0  0  0  0
  5  6  1  0  0  0  0
  5 61  1  0  0  0  0
  5 62  1  0  0  0  0
  6  7  1  0  0  0  0
  6 54  1  0  0  0  0
  7  8  1  0  0  0  0
  7 59  1  0  0  0  0
  7 60  1  0  0  0  0
  8  9  1  1  0  0  0
  8 29  1  0  0  0  0
  8 47  1  0  0  0  0
  9 10  2  0  0  0  0
  9 11  1  0  0  0  0
 11 12  1  0  0  0  0
 11 28  1  0  0  0  0
 12 13  2  0  0  0  0
 12 21  1  0  0  0  0
 13 14  1  0  0  0  0
 13 27  1  0  0  0  0
 14 15  2  0  0  0  0
 15 16  1  0  0  0  0
 15 26  1  0  0  0  0
 16 17  2  0  0  0  0
 16 21  1  0  0  0  0
 17 18  1  0  0  0  0
 17 25  1  0  0  0  0
 18 19  2  0  0  0  0
 18 24  1  0  0  0  0
 19 20  1  0  0  0  0
 19 23  1  0  0  0  0
 20 21  2  0  0  0  0
 20 22  1  0  0  0  0
 28 29  1  0  0  0  0
 28 45  1  0  0  0  0
 28 46  1  0  0  0  0
 29 30  1  0  0  0  0
 29 44  1  1  0  0  0
 30 31  1  0  0  0  0
 30 42  1  0  0  0  0
 30 43  1  0  0  0  0
 31 32  1  0  0  0  0
 31 41  1  0  0  0  0
 32 33  2  0  0  0  0
 32 37  1  0  0  0  0
 33 34  1  0  0  0  0
 33 40  1  0  0  0  0
 34 35  2  0  0  0  0
 35 36  1  0  0  0  0
 35 39  1  0  0  0  0
 36 37  2  0  0  0  0
 36 38  1  0  0  0  0
 47 48  2  0  0  0  0
 47 53  1  0  0  0  0
 48 49  1  0  0  0  0
 48 58  1  0  0  0  0
 49 50  1  0  0  0  0
 49 51  2  0  0  0  0
 51 52  1  0  0  0  0
 51 57  1  0  0  0  0
 52 53  2  0  0  0  0
 52 56  1  0  0  0  0
 53 54  1  0  0  0  0
 54 55  2  0  0  0  0
M  END
>  <MODEL>
       1

$$$$
