output/tmp_first_model_17_63.pdb
 OpenBabel07242622053D

 57 61  0  0  1  0  0  0  0  0999 V2000
   -7.3350    3.4230  -21.8480 C   0  0  0  0  0  0  0  0  0  0  0  0
   -8.1740    2.9590  -22.9350 N   0  0  0  0  0  0  0  0  0  0  0  0
   -7.6090    2.2450  -23.9380 C   0  0  0  0  0  0  0  0  0  0  0  0
   -6.3960    2.1240  -24.0510 O   0  0  0  0  0  0  0  0  0  0  0  0
   -8.5600    1.6210  -24.9610 C   0  0  0  0  0  0  0  0  0  0  0  0
   -9.2980    0.4810  -24.4600 N   0  0  0  0  0  0  0  0  0  0  0  0
   -8.5850   -0.7690  -24.2840 C   0  0  0  0  0  0  0  0  0  0  0  0
   -8.9910   -1.4770  -22.9690 C   0  0  2  0  0  0  0  0  0  0  0  0
   -8.4510   -0.6900  -21.7500 C   0  0  0  0  0  0  0  0  0  0  0  0
   -8.8650    0.3680  -21.3130 O   0  0  0  0  0  0  0  0  0  0  0  0
   -7.3970   -1.3850  -21.2080 N   0  0  0  0  0  0  0  0  0  0  0  0
   -6.6020   -0.8130  -20.1780 C   0  0  0  0  0  0  0  0  0  0  0  0
   -6.9100   -1.0450  -18.8630 C   0  0  0  0  0  0  0  0  0  0  0  0
   -6.2060   -0.5490  -17.8170 N   0  0  0  0  0  0  0  0  0  0  0  0
   -5.1700    0.2070  -18.0810 C   0  0  0  0  0  0  0  0  0  0  0  0
   -4.7360    0.5330  -19.3970 C   0  0  0  0  0  0  0  0  0  0  0  0
   -3.6090    1.3680  -19.6390 C   0  0  0  0  0  0  0  0  0  0  0  0
   -3.2240    1.6600  -20.9190 C   0  0  0  0  0  0  0  0  0  0  0  0
   -3.9460    1.1310  -22.0140 C   0  0  0  0  0  0  0  0  0  0  0  0
   -5.0370    0.3230  -21.8050 C   0  0  0  0  0  0  0  0  0  0  0  0
   -5.4690    0.0060  -20.4880 C   0  0  0  0  0  0  0  0  0  0  0  0
   -5.5860   -0.0720  -22.6550 H   0  0  0  0  0  0  0  0  0  0  0  0
   -3.6420    1.3690  -23.0270 H   0  0  0  0  0  0  0  0  0  0  0  0
   -2.3620    2.2960  -21.1010 H   0  0  0  0  0  0  0  0  0  0  0  0
   -3.0720    1.7690  -18.7840 H   0  0  0  0  0  0  0  0  0  0  0  0
   -4.6180    0.6080  -17.2300 H   0  0  0  0  0  0  0  0  0  0  0  0
   -7.7660   -1.6640  -18.6040 H   0  0  0  0  0  0  0  0  0  0  0  0
   -7.0730   -2.6180  -21.8990 C   0  0  0  0  0  0  0  0  0  0  0  0
   -8.2960   -2.8620  -22.8090 C   0  0  2  0  0  0  0  0  0  0  0  0
   -7.9360   -3.5860  -24.1060 C   0  0  0  0  0  0  0  0  0  0  0  0
   -7.4220   -4.8540  -23.7560 O   0  0  0  0  0  0  0  0  0  0  0  0
   -7.2090   -5.3270  -24.5690 H   0  0  0  0  0  0  0  0  0  0  0  0
   -7.1810   -2.9980  -24.6530 H   0  0  0  0  0  0  0  0  0  0  0  0
   -8.8260   -3.6830  -24.7500 H   0  0  0  0  0  0  0  0  0  0  0  0
   -8.9910   -3.5160  -22.2780 H   0  0  0  0  0  0  0  0  0  0  0  0
   -6.9110   -3.4300  -21.1830 H   0  0  0  0  0  0  0  0  0  0  0  0
   -6.1510   -2.5040  -22.4890 H   0  0  0  0  0  0  0  0  0  0  0  0
  -10.5060   -1.5100  -22.9080 C   0  0  0  0  0  0  0  0  0  0  0  0
  -11.1340   -2.3490  -21.9890 C   0  0  0  0  0  0  0  0  0  0  0  0
  -12.5080   -2.3360  -21.8520 C   0  0  0  0  0  0  0  0  0  0  0  0
  -13.1880   -3.2750  -20.5550 Cl  0  0  0  0  0  0  0  0  0  0  0  0
  -13.3100   -1.5110  -22.6440 C   0  0  0  0  0  0  0  0  0  0  0  0
  -12.6900   -0.6260  -23.5070 C   0  0  0  0  0  0  0  0  0  0  0  0
  -11.2980   -0.5930  -23.6060 C   0  0  0  0  0  0  0  0  0  0  0  0
  -10.6660    0.5280  -24.3660 C   0  0  0  0  0  0  0  0  0  0  0  0
  -11.3400    1.4420  -24.8210 O   0  0  0  0  0  0  0  0  0  0  0  0
  -13.2480    0.0990  -24.0890 H   0  0  0  0  0  0  0  0  0  0  0  0
  -14.3900   -1.5400  -22.5500 H   0  0  0  0  0  0  0  0  0  0  0  0
  -10.5580   -2.9820  -21.3250 H   0  0  0  0  0  0  0  0  0  0  0  0
   -7.5150   -0.5340  -24.2620 H   0  0  0  0  0  0  0  0  0  0  0  0
   -8.7950   -1.4460  -25.1270 H   0  0  0  0  0  0  0  0  0  0  0  0
   -7.9290    1.3330  -25.8100 H   0  0  0  0  0  0  0  0  0  0  0  0
   -9.3160    2.3340  -25.2840 H   0  0  0  0  0  0  0  0  0  0  0  0
   -9.1670    2.8820  -22.7900 H   0  0  0  0  0  0  0  0  0  0  0  0
   -6.6230    4.1720  -22.2060 H   0  0  0  0  0  0  0  0  0  0  0  0
   -7.9680    3.8750  -21.0840 H   0  0  0  0  0  0  0  0  0  0  0  0
   -6.7610    2.5890  -21.4260 H   0  0  0  0  0  0  0  0  0  0  0  0
  1  2  1  0  0  0  0
  1 55  1  0  0  0  0
  1 56  1  0  0  0  0
  1 57  1  0  0  0  0
  2  3  1  0  0  0  0
  2 54  1  0  0  0  0
  3  4  2  0  0  0  0
  3  5  1  0  0  0  0
  5  6  1  0  0  0  0
  5 52  1  0  0  0  0
  5 53  1  0  0  0  0
  6  7  1  0  0  0  0
  6 45  1  0  0  0  0
  7  8  1  0  0  0  0
  7 50  1  0  0  0  0
  7 51  1  0  0  0  0
  8  9  1  1  0  0  0
  8 29  1  0  0  0  0
  8 38  1  0  0  0  0
  9 10  2  0  0  0  0
  9 11  1  0  0  0  0
 11 12  1  0  0  0  0
 11 28  1  0  0  0  0
 12 13  2  0  0  0  0
 12 21  1  0  0  0  0
 13 14  1  0  0  0  0
 13 27  1  0  0  0  0
 14 15  2  0  0  0  0
 15 16  1  0  0  0  0
 15 26  1  0  0  0  0
 16 17  2  0  0  0  0
 16 21  1  0  0  0  0
 17 18  1  0  0  0  0
 17 25  1  0  0  0  0
 18 19  2  0  0  0  0
 18 24  1  0  0  0  0
 19 20  1  0  0  0  0
 19 23  1  0  0  0  0
 20 21  2  0  0  0  0
 20 22  1  0  0  0  0
 28 29  1  0  0  0  0
 28 36  1  0  0  0  0
 28 37  1  0  0  0  0
 29 30  1  0  0  0  0
 29 35  1  1  0  0  0
 30 31  1  0  0  0  0
 30 33  1  0  0  0  0
 30 34  1  0  0  0  0
 31 32  1  0  0  0  0
 38 39  2  0  0  0  0
 38 44  1  0  0  0  0
 39 40  1  0  0  0  0
 39 49  1  0  0  0  0
 40 41  1  0  0  0  0
 40 42  2  0  0  0  0
 42 43  1  0  0  0  0
 42 48  1  0  0  0  0
 43 44  2  0  0  0  0
 43 47  1  0  0  0  0
 44 45  1  0  0  0  0
 45 46  2  0  0  0  0
M  END
>  <MODEL>
       1

$$$$
