output/tmp_first_model_5_51.pdb
 OpenBabel07242615323D

 50 52  0  0  0  0  0  0  0  0999 V2000
   -9.8960   -3.9200  -25.5630 C   0  0  0  0  0  0  0  0  0  0  0  0
   -8.9240   -3.5660  -24.7240 C   0  0  0  0  0  0  0  0  0  0  0  0
   -8.8000   -2.1410  -24.2230 C   0  0  0  0  0  0  0  0  0  0  0  0
   -9.4450   -1.8900  -22.9330 N   0  0  0  0  0  0  0  0  0  0  0  0
   -8.7600   -1.3690  -21.8290 C   0  0  0  0  0  0  0  0  0  0  0  0
   -9.2670   -0.6040  -21.0320 O   0  0  0  0  0  0  0  0  0  0  0  0
   -7.4440   -1.7700  -21.7360 N   0  0  0  0  0  0  0  0  0  0  0  0
   -6.6720   -1.4530  -20.5940 C   0  0  0  0  0  0  0  0  0  0  0  0
   -6.8220   -2.0940  -19.3900 C   0  0  0  0  0  0  0  0  0  0  0  0
   -5.9670   -1.9470  -18.3450 N   0  0  0  0  0  0  0  0  0  0  0  0
   -4.9200   -1.1740  -18.5050 C   0  0  0  0  0  0  0  0  0  0  0  0
   -4.6780   -0.4130  -19.6850 C   0  0  0  0  0  0  0  0  0  0  0  0
   -3.5550    0.4450  -19.8460 C   0  0  0  0  0  0  0  0  0  0  0  0
   -3.5030    1.2930  -20.9190 C   0  0  0  0  0  0  0  0  0  0  0  0
   -4.5070    1.2850  -21.9160 C   0  0  0  0  0  0  0  0  0  0  0  0
   -5.5450    0.3890  -21.8350 C   0  0  0  0  0  0  0  0  0  0  0  0
   -5.6370   -0.4830  -20.7210 C   0  0  0  0  0  0  0  0  0  0  0  0
   -6.3060    0.3540  -22.6070 H   0  0  0  0  0  0  0  0  0  0  0  0
   -4.4580    1.9850  -22.7450 H   0  0  0  0  0  0  0  0  0  0  0  0
   -2.6670    1.9790  -21.0290 H   0  0  0  0  0  0  0  0  0  0  0  0
   -2.7910    0.4930  -19.0720 H   0  0  0  0  0  0  0  0  0  0  0  0
   -4.2230   -1.1080  -17.6660 H   0  0  0  0  0  0  0  0  0  0  0  0
   -7.6670   -2.7570  -19.2230 H   0  0  0  0  0  0  0  0  0  0  0  0
   -7.1850   -2.6290  -22.2260 H   0  0  0  0  0  0  0  0  0  0  0  0
  -10.8410   -2.1400  -22.7910 C   0  0  0  0  0  0  0  0  0  0  0  0
  -11.7810   -1.5530  -23.6450 C   0  0  0  0  0  0  0  0  0  0  0  0
  -13.1420   -1.7600  -23.4310 C   0  0  0  0  0  0  0  0  0  0  0  0
  -13.5770   -2.5650  -22.3830 C   0  0  0  0  0  0  0  0  0  0  0  0
  -12.6320   -3.1880  -21.5820 C   0  0  0  0  0  0  0  0  0  0  0  0
  -13.1930   -4.1140  -20.2270 Cl  0  0  0  0  0  0  0  0  0  0  0  0
  -11.2710   -3.0320  -21.8020 C   0  0  0  0  0  0  0  0  0  0  0  0
  -10.5640   -3.6260  -21.2230 H   0  0  0  0  0  0  0  0  0  0  0  0
  -14.6290   -2.6850  -22.1420 H   0  0  0  0  0  0  0  0  0  0  0  0
  -13.8840   -1.2680  -24.0600 H   0  0  0  0  0  0  0  0  0  0  0  0
  -11.4600   -0.9290  -24.4760 H   0  0  0  0  0  0  0  0  0  0  0  0
   -7.7460   -1.8940  -24.0980 H   0  0  0  0  0  0  0  0  0  0  0  0
   -9.2140   -1.4600  -24.9820 H   0  0  0  0  0  0  0  0  0  0  0  0
   -7.8640   -4.5130  -24.2290 C   0  0  0  0  0  0  0  0  0  0  0  0
   -7.1640   -4.2270  -23.2560 O   0  0  0  0  0  0  0  0  0  0  0  0
   -7.6910   -5.6770  -24.9020 N   0  0  0  0  0  0  0  0  0  0  0  0
   -6.9300   -6.7790  -24.3360 C   0  0  0  0  0  0  0  0  0  0  0  0
   -7.7870   -7.6380  -23.4040 C   0  0  0  0  0  0  0  0  0  0  0  0
   -8.1520   -7.0190  -22.5770 H   0  0  0  0  0  0  0  0  0  0  0  0
   -7.2230   -8.4780  -22.9840 H   0  0  0  0  0  0  0  0  0  0  0  0
   -8.6580   -8.0400  -23.9360 H   0  0  0  0  0  0  0  0  0  0  0  0
   -6.0860   -6.3460  -23.7950 H   0  0  0  0  0  0  0  0  0  0  0  0
   -6.5200   -7.3650  -25.1640 H   0  0  0  0  0  0  0  0  0  0  0  0
   -8.2410   -5.8580  -25.7230 H   0  0  0  0  0  0  0  0  0  0  0  0
  -10.0100   -4.9240  -25.9620 H   0  0  0  0  0  0  0  0  0  0  0  0
  -10.6190   -3.1850  -25.9170 H   0  0  0  0  0  0  0  0  0  0  0  0
  1  2  2  0  0  0  0
  1 49  1  0  0  0  0
  1 50  1  0  0  0  0
  2  3  1  0  0  0  0
  2 38  1  0  0  0  0
  3  4  1  0  0  0  0
  3 36  1  0  0  0  0
  3 37  1  0  0  0  0
  4  5  1  0  0  0  0
  4 25  1  0  0  0  0
  5  6  2  0  0  0  0
  5  7  1  0  0  0  0
  7  8  1  0  0  0  0
  7 24  1  0  0  0  0
  8  9  2  0  0  0  0
  8 17  1  0  0  0  0
  9 10  1  0  0  0  0
  9 23  1  0  0  0  0
 10 11  2  0  0  0  0
 11 12  1  0  0  0  0
 11 22  1  0  0  0  0
 12 13  2  0  0  0  0
 12 17  1  0  0  0  0
 13 14  1  0  0  0  0
 13 21  1  0  0  0  0
 14 15  2  0  0  0  0
 14 20  1  0  0  0  0
 15 16  1  0  0  0  0
 15 19  1  0  0  0  0
 16 17  2  0  0  0  0
 16 18  1  0  0  0  0
 25 26  2  0  0  0  0
 25 31  1  0  0  0  0
 26 27  1  0  0  0  0
 26 35  1  0  0  0  0
 27 28  2  0  0  0  0
 27 34  1  0  0  0  0
 28 29  1  0  0  0  0
 28 33  1  0  0  0  0
 29 30  1  0  0  0  0
 29 31  2  0  0  0  0
 31 32  1  0  0  0  0
 38 39  2  0  0  0  0
 38 40  1  0  0  0  0
 40 41  1  0  0  0  0
 40 48  1  0  0  0  0
 41 42  1  0  0  0  0
 41 46  1  0  0  0  0
 41 47  1  0  0  0  0
 42 43  1  0  0  0  0
 42 44  1  0  0  0  0
 42 45  1  0  0  0  0
M  END
>  <MODEL>
       1

$$$$
