output/tmp_first_model_1_70.pdb
 OpenBabel07242613193D

 52 54  0  0  0  0  0  0  0  0999 V2000
   -8.8310   -7.6700  -27.3630 C   0  0  0  0  0  0  0  0  0  0  0  0
   -8.4810   -6.7000  -26.2420 C   0  0  0  0  0  0  0  0  0  0  0  0
   -7.7260   -5.4950  -26.8350 C   0  0  0  0  0  0  0  0  0  0  0  0
   -8.4600   -4.7700  -27.2160 H   0  0  0  0  0  0  0  0  0  0  0  0
   -7.1160   -4.9900  -26.0780 H   0  0  0  0  0  0  0  0  0  0  0  0
   -7.0640   -5.7920  -27.6590 H   0  0  0  0  0  0  0  0  0  0  0  0
   -9.7440   -6.3100  -25.5120 C   0  0  0  0  0  0  0  0  0  0  0  0
   -9.6600   -5.7720  -23.9270 C   0  0  0  0  0  0  0  0  0  0  0  0
   -9.4100   -5.6820  -24.1950 C   0  0  0  0  0  0  0  0  0  0  0  0
   -9.8410   -6.0320  -22.6970 H   0  0  0  0  0  0  0  0  0  0  0  0
  -10.7720   -5.7720  -23.6170 H   0  0  0  0  0  0  0  0  0  0  0  0
   -7.9720   -6.0980  -23.7140 H   0  0  0  0  0  0  0  0  0  0  0  0
   -6.9370   -6.0930  -23.2760 C   0  0  0  0  0  0  0  0  0  0  0  0
   -6.9760   -5.2150  -22.0380 C   0  0  0  0  0  0  0  0  0  0  0  0
   -7.3870   -3.8270  -22.2690 N   0  0  0  0  0  0  0  0  0  0  0  0
   -6.6520   -2.8830  -21.5880 C   0  0  0  0  0  0  0  0  0  0  0  0
   -5.5050   -3.0940  -21.2240 O   0  0  0  0  0  0  0  0  0  0  0  0
   -7.3400   -1.5480  -21.2650 C   0  0  0  0  0  0  0  0  0  0  0  0
   -6.6090   -0.8240  -20.1790 C   0  0  0  0  0  0  0  0  0  0  0  0
   -6.9620   -1.0190  -18.8710 C   0  0  0  0  0  0  0  0  0  0  0  0
   -6.3130   -0.5070  -17.7960 N   0  0  0  0  0  0  0  0  0  0  0  0
   -5.2670    0.2460  -18.0410 C   0  0  0  0  0  0  0  0  0  0  0  0
   -4.7750    0.5260  -19.3460 C   0  0  0  0  0  0  0  0  0  0  0  0
   -3.6340    1.3400  -19.5650 C   0  0  0  0  0  0  0  0  0  0  0  0
   -3.1890    1.5860  -20.8360 C   0  0  0  0  0  0  0  0  0  0  0  0
   -3.8630    1.0240  -21.9450 C   0  0  0  0  0  0  0  0  0  0  0  0
   -4.9680    0.2320  -21.7570 C   0  0  0  0  0  0  0  0  0  0  0  0
   -5.4600   -0.0280  -20.4520 C   0  0  0  0  0  0  0  0  0  0  0  0
   -5.4700   -0.2040  -22.6150 H   0  0  0  0  0  0  0  0  0  0  0  0
   -3.5030    1.2290  -22.9500 H   0  0  0  0  0  0  0  0  0  0  0  0
   -2.3220    2.2180  -21.0040 H   0  0  0  0  0  0  0  0  0  0  0  0
   -3.1270    1.7670  -18.7000 H   0  0  0  0  0  0  0  0  0  0  0  0
   -4.7450    0.6650  -17.1800 H   0  0  0  0  0  0  0  0  0  0  0  0
   -7.8230   -1.6420  -18.6330 H   0  0  0  0  0  0  0  0  0  0  0  0
   -7.4210   -0.9440  -22.1790 H   0  0  0  0  0  0  0  0  0  0  0  0
   -8.3640   -1.7590  -20.9300 H   0  0  0  0  0  0  0  0  0  0  0  0
   -8.7390   -3.5290  -22.7660 C   0  0  0  0  0  0  0  0  0  0  0  0
   -9.1220   -4.1810  -24.0920 C   0  0  0  0  0  0  0  0  0  0  0  0
   -8.2710   -4.0060  -24.7590 H   0  0  0  0  0  0  0  0  0  0  0  0
   -9.9520   -3.6010  -24.5160 H   0  0  0  0  0  0  0  0  0  0  0  0
   -8.7740   -2.4590  -22.9610 H   0  0  0  0  0  0  0  0  0  0  0  0
   -9.5060   -3.7180  -21.9930 H   0  0  0  0  0  0  0  0  0  0  0  0
   -7.6490   -5.6720  -21.2970 H   0  0  0  0  0  0  0  0  0  0  0  0
   -5.9900   -5.1600  -21.5750 H   0  0  0  0  0  0  0  0  0  0  0  0
   -6.2550   -5.7230  -24.0470 H   0  0  0  0  0  0  0  0  0  0  0  0
   -6.6610   -7.1140  -23.0100 H   0  0  0  0  0  0  0  0  0  0  0  0
  -10.3000   -7.2260  -25.3420 H   0  0  0  0  0  0  0  0  0  0  0  0
  -10.3600   -5.6550  -26.1390 H   0  0  0  0  0  0  0  0  0  0  0  0
   -7.8320   -7.2030  -25.5130 H   0  0  0  0  0  0  0  0  0  0  0  0
   -7.9610   -7.9410  -27.9780 H   0  0  0  0  0  0  0  0  0  0  0  0
   -9.5660   -7.2020  -28.0300 H   0  0  0  0  0  0  0  0  0  0  0  0
   -9.2800   -8.5920  -26.9770 H   0  0  0  0  0  0  0  0  0  0  0  0
  1  2  1  0  0  0  0
  1 50  1  0  0  0  0
  1 51  1  0  0  0  0
  1 52  1  0  0  0  0
  2  3  1  0  0  0  0
  2  7  1  0  0  0  0
  2 49  1  0  0  0  0
  3  4  1  0  0  0  0
  3  5  1  0  0  0  0
  3  6  1  0  0  0  0
  7  8  1  0  0  0  0
  7 47  1  0  0  0  0
  7 48  1  0  0  0  0
  8  9  1  0  0  0  0
  8 13  1  0  0  0  0
  8 38  1  0  0  0  0
  9 10  1  0  0  0  0
  9 11  1  0  0  0  0
  9 12  1  0  0  0  0
 13 14  1  0  0  0  0
 13 45  1  0  0  0  0
 13 46  1  0  0  0  0
 14 15  1  0  0  0  0
 14 43  1  0  0  0  0
 14 44  1  0  0  0  0
 15 16  1  0  0  0  0
 15 37  1  0  0  0  0
 16 17  2  0  0  0  0
 16 18  1  0  0  0  0
 18 19  1  0  0  0  0
 18 35  1  0  0  0  0
 18 36  1  0  0  0  0
 19 20  2  0  0  0  0
 19 28  1  0  0  0  0
 20 21  1  0  0  0  0
 20 34  1  0  0  0  0
 21 22  2  0  0  0  0
 22 23  1  0  0  0  0
 22 33  1  0  0  0  0
 23 24  2  0  0  0  0
 23 28  1  0  0  0  0
 24 25  1  0  0  0  0
 24 32  1  0  0  0  0
 25 26  2  0  0  0  0
 25 31  1  0  0  0  0
 26 27  1  0  0  0  0
 26 30  1  0  0  0  0
 27 28  2  0  0  0  0
 27 29  1  0  0  0  0
 37 38  1  0  0  0  0
 37 41  1  0  0  0  0
 37 42  1  0  0  0  0
 38 39  1  0  0  0  0
 38 40  1  0  0  0  0
M  END
>  <MODEL>
       1

$$$$
