output/tmp_first_model_6_28.pdb
 OpenBabel07242616043D

 64 68  0  0  1  0  0  0  0  0999 V2000
   -7.2240    3.4240  -22.1320 C   0  0  0  0  0  0  0  0  0  0  0  0
   -8.1760    2.7710  -23.0080 N   0  0  0  0  0  0  0  0  0  0  0  0
   -7.7380    2.1230  -24.1180 C   0  0  0  0  0  0  0  0  0  0  0  0
   -6.5560    2.0260  -24.4240 O   0  0  0  0  0  0  0  0  0  0  0  0
   -8.8550    1.5510  -24.9830 C   0  0  0  0  0  0  0  0  0  0  0  0
   -9.5290    0.4430  -24.3290 N   0  0  0  0  0  0  0  0  0  0  0  0
   -8.7580   -0.7700  -24.1200 C   0  0  0  0  0  0  0  0  0  0  0  0
   -9.1670   -1.5200  -22.8230 C   0  0  2  0  0  0  0  0  0  0  0  0
   -8.6310   -0.7510  -21.6000 C   0  0  0  0  0  0  0  0  0  0  0  0
   -9.1440    0.2100  -21.0660 O   0  0  0  0  0  0  0  0  0  0  0  0
   -7.4570   -1.3430  -21.1970 N   0  0  0  0  0  0  0  0  0  0  0  0
   -6.6730   -0.7770  -20.1590 C   0  0  0  0  0  0  0  0  0  0  0  0
   -6.9740   -1.0520  -18.8520 C   0  0  0  0  0  0  0  0  0  0  0  0
   -6.2590   -0.6040  -17.7910 N   0  0  0  0  0  0  0  0  0  0  0  0
   -5.2210    0.1600  -18.0320 C   0  0  0  0  0  0  0  0  0  0  0  0
   -4.8060    0.5430  -19.3400 C   0  0  0  0  0  0  0  0  0  0  0  0
   -3.6850    1.3880  -19.5660 C   0  0  0  0  0  0  0  0  0  0  0  0
   -3.3510    1.7780  -20.8340 C   0  0  0  0  0  0  0  0  0  0  0  0
   -4.1280    1.3550  -21.9360 C   0  0  0  0  0  0  0  0  0  0  0  0
   -5.2080    0.5250  -21.7460 C   0  0  0  0  0  0  0  0  0  0  0  0
   -5.5660    0.0830  -20.4440 C   0  0  0  0  0  0  0  0  0  0  0  0
   -5.8250    0.2510  -22.5970 H   0  0  0  0  0  0  0  0  0  0  0  0
   -3.8940    1.6990  -22.9390 H   0  0  0  0  0  0  0  0  0  0  0  0
   -2.4970    2.4290  -21.0030 H   0  0  0  0  0  0  0  0  0  0  0  0
   -3.1080    1.7230  -18.7080 H   0  0  0  0  0  0  0  0  0  0  0  0
   -4.6490    0.5230  -17.1740 H   0  0  0  0  0  0  0  0  0  0  0  0
   -7.8390   -1.6700  -18.6150 H   0  0  0  0  0  0  0  0  0  0  0  0
   -7.0820   -2.5150  -21.9630 C   0  0  0  0  0  0  0  0  0  0  0  0
   -8.3870   -2.8700  -22.7110 C   0  0  2  0  0  0  0  0  0  0  0  0
   -8.1930   -3.5390  -24.0760 C   0  0  0  0  0  0  0  0  0  0  0  0
   -7.4180   -5.1430  -24.1230 S   0  0  0  0  0  0  0  0  0  0  0  0
   -6.1200   -5.0410  -23.4670 O   0  0  0  0  0  0  0  0  0  0  0  0
   -7.5250   -5.5940  -25.5010 O   0  0  0  0  0  0  0  0  0  0  0  0
   -8.4310   -6.0710  -23.1980 N   0  0  0  0  0  0  0  0  0  0  0  0
   -7.9800   -6.7210  -21.9750 C   0  0  0  0  0  0  0  0  0  0  0  0
   -8.8630   -6.9110  -21.3610 H   0  0  0  0  0  0  0  0  0  0  0  0
   -7.3200   -6.0330  -21.4430 H   0  0  0  0  0  0  0  0  0  0  0  0
   -7.4530   -7.6720  -22.1390 H   0  0  0  0  0  0  0  0  0  0  0  0
   -9.0950   -6.5970  -23.7660 H   0  0  0  0  0  0  0  0  0  0  0  0
   -7.5220   -2.9560  -24.7150 H   0  0  0  0  0  0  0  0  0  0  0  0
   -9.1550   -3.6530  -24.5900 H   0  0  0  0  0  0  0  0  0  0  0  0
   -8.9700   -3.5420  -22.0710 H   0  0  0  0  0  0  0  0  0  0  0  0
   -6.7470   -3.3140  -21.2990 H   0  0  0  0  0  0  0  0  0  0  0  0
   -6.2530   -2.3050  -22.6540 H   0  0  0  0  0  0  0  0  0  0  0  0
  -10.6840   -1.5990  -22.7690 C   0  0  0  0  0  0  0  0  0  0  0  0
  -11.3320   -2.4490  -21.8620 C   0  0  0  0  0  0  0  0  0  0  0  0
  -12.7080   -2.3810  -21.7030 C   0  0  0  0  0  0  0  0  0  0  0  0
  -13.4750   -3.2350  -20.3950 Cl  0  0  0  0  0  0  0  0  0  0  0  0
  -13.5070   -1.5520  -22.4900 C   0  0  0  0  0  0  0  0  0  0  0  0
  -12.8780   -0.7120  -23.3820 C   0  0  0  0  0  0  0  0  0  0  0  0
  -11.4860   -0.6950  -23.4820 C   0  0  0  0  0  0  0  0  0  0  0  0
  -10.8970    0.4150  -24.2940 C   0  0  0  0  0  0  0  0  0  0  0  0
  -11.6080    1.2690  -24.8100 O   0  0  0  0  0  0  0  0  0  0  0  0
  -13.4440   -0.0360  -24.0100 H   0  0  0  0  0  0  0  0  0  0  0  0
  -14.5820   -1.5280  -22.3380 H   0  0  0  0  0  0  0  0  0  0  0  0
  -10.7640   -3.1300  -21.2380 H   0  0  0  0  0  0  0  0  0  0  0  0
   -8.8690   -1.4330  -24.9890 H   0  0  0  0  0  0  0  0  0  0  0  0
   -7.7060   -0.4790  -24.0640 H   0  0  0  0  0  0  0  0  0  0  0  0
   -8.4100    1.2600  -25.9400 H   0  0  0  0  0  0  0  0  0  0  0  0
   -9.6200    2.3130  -25.1610 H   0  0  0  0  0  0  0  0  0  0  0  0
   -9.0950    2.5490  -22.6500 H   0  0  0  0  0  0  0  0  0  0  0  0
   -6.7080    2.6940  -21.4930 H   0  0  0  0  0  0  0  0  0  0  0  0
   -6.4770    3.9320  -22.7490 H   0  0  0  0  0  0  0  0  0  0  0  0
   -7.7380    4.1650  -21.5140 H   0  0  0  0  0  0  0  0  0  0  0  0
  1  2  1  0  0  0  0
  1 62  1  0  0  0  0
  1 63  1  0  0  0  0
  1 64  1  0  0  0  0
  2  3  1  0  0  0  0
  2 61  1  0  0  0  0
  3  4  2  0  0  0  0
  3  5  1  0  0  0  0
  5  6  1  0  0  0  0
  5 59  1  0  0  0  0
  5 60  1  0  0  0  0
  6  7  1  0  0  0  0
  6 52  1  0  0  0  0
  7  8  1  0  0  0  0
  7 57  1  0  0  0  0
  7 58  1  0  0  0  0
  8  9  1  1  0  0  0
  8 29  1  0  0  0  0
  8 45  1  0  0  0  0
  9 10  2  0  0  0  0
  9 11  1  0  0  0  0
 11 12  1  0  0  0  0
 11 28  1  0  0  0  0
 12 13  2  0  0  0  0
 12 21  1  0  0  0  0
 13 14  1  0  0  0  0
 13 27  1  0  0  0  0
 14 15  2  0  0  0  0
 15 16  1  0  0  0  0
 15 26  1  0  0  0  0
 16 17  2  0  0  0  0
 16 21  1  0  0  0  0
 17 18  1  0  0  0  0
 17 25  1  0  0  0  0
 18 19  2  0  0  0  0
 18 24  1  0  0  0  0
 19 20  1  0  0  0  0
 19 23  1  0  0  0  0
 20 21  2  0  0  0  0
 20 22  1  0  0  0  0
 28 29  1  0  0  0  0
 28 43  1  0  0  0  0
 28 44  1  0  0  0  0
 29 30  1  0  0  0  0
 29 42  1  1  0  0  0
 30 31  1  0  0  0  0
 30 40  1  0  0  0  0
 30 41  1  0  0  0  0
 31 32  2  0  0  0  0
 31 33  2  0  0  0  0
 31 34  1  0  0  0  0
 34 35  1  0  0  0  0
 34 39  1  0  0  0  0
 35 36  1  0  0  0  0
 35 37  1  0  0  0  0
 35 38  1  0  0  0  0
 45 46  2  0  0  0  0
 45 51  1  0  0  0  0
 46 47  1  0  0  0  0
 46 56  1  0  0  0  0
 47 48  1  0  0  0  0
 47 49  2  0  0  0  0
 49 50  1  0  0  0  0
 49 55  1  0  0  0  0
 50 51  2  0  0  0  0
 50 54  1  0  0  0  0
 51 52  1  0  0  0  0
 52 53  2  0  0  0  0
M  END
>  <MODEL>
       1

$$$$
