output/tmp_first_model_17_55.pdb
 OpenBabel07242622053D

 61 66  0  0  1  0  0  0  0  0999 V2000
   -7.0050   -5.4640  -25.0500 C   0  0  0  0  0  0  0  0  0  0  0  0
   -7.3270   -4.8020  -23.8540 O   0  0  0  0  0  0  0  0  0  0  0  0
   -7.9840   -3.5820  -24.0790 C   0  0  0  0  0  0  0  0  0  0  0  0
   -8.2850   -2.9260  -22.7350 C   0  0  1  0  0  0  0  0  0  0  0  0
   -7.0050   -2.5600  -21.9570 C   0  0  0  0  0  0  0  0  0  0  0  0
   -7.3870   -1.3770  -21.2090 N   0  0  0  0  0  0  0  0  0  0  0  0
   -6.6020   -0.8060  -20.1800 C   0  0  0  0  0  0  0  0  0  0  0  0
   -6.9160   -1.0410  -18.8660 C   0  0  0  0  0  0  0  0  0  0  0  0
   -6.2110   -0.5500  -17.8200 N   0  0  0  0  0  0  0  0  0  0  0  0
   -5.1790    0.2110  -18.0850 C   0  0  0  0  0  0  0  0  0  0  0  0
   -4.7500    0.5420  -19.4010 C   0  0  0  0  0  0  0  0  0  0  0  0
   -3.6310    1.3820  -19.6400 C   0  0  0  0  0  0  0  0  0  0  0  0
   -3.2510    1.6800  -20.9190 C   0  0  0  0  0  0  0  0  0  0  0  0
   -3.9530    1.1380  -22.0170 C   0  0  0  0  0  0  0  0  0  0  0  0
   -5.0260    0.3040  -21.8100 C   0  0  0  0  0  0  0  0  0  0  0  0
   -5.4660    0.0020  -20.4920 C   0  0  0  0  0  0  0  0  0  0  0  0
   -5.5850   -0.0720  -22.6610 H   0  0  0  0  0  0  0  0  0  0  0  0
   -3.6340    1.3950  -23.0240 H   0  0  0  0  0  0  0  0  0  0  0  0
   -2.3930    2.3200  -21.1000 H   0  0  0  0  0  0  0  0  0  0  0  0
   -3.0870    1.7710  -18.7860 H   0  0  0  0  0  0  0  0  0  0  0  0
   -4.6140    0.6050  -17.2380 H   0  0  0  0  0  0  0  0  0  0  0  0
   -7.7770   -1.6590  -18.6200 H   0  0  0  0  0  0  0  0  0  0  0  0
   -8.5870   -0.8200  -21.5870 C   0  0  0  0  0  0  0  0  0  0  0  0
   -9.1040    0.1430  -21.0560 O   0  0  0  0  0  0  0  0  0  0  0  0
   -9.1210   -1.6170  -22.8010 C   0  0  1  0  0  0  0  0  0  0  0  0
   -8.8200   -0.8420  -24.1090 C   0  0  0  0  0  0  0  0  0  0  0  0
   -9.6160    0.3610  -24.2140 N   0  0  0  0  0  0  0  0  0  0  0  0
   -8.9880    1.5980  -24.6370 C   0  0  0  0  0  0  0  0  0  0  0  0
   -8.1910    2.2630  -23.5640 C   0  0  0  0  0  0  0  0  0  0  0  0
   -6.8520    2.3780  -23.3960 C   0  0  0  0  0  0  0  0  0  0  0  0
   -6.6380    3.1120  -22.2540 N   0  3  0  0  0  0  0  0  0  0  0  0
   -7.8150    3.4560  -21.7300 C   0  0  0  0  0  0  0  0  0  0  0  0
   -8.7810    2.9520  -22.5150 N   0  0  0  0  0  0  0  0  0  0  0  0
   -9.7620    2.8970  -22.2410 H   0  0  0  0  0  0  0  0  0  0  0  0
   -7.9530    4.1010  -20.8740 H   0  0  0  0  0  0  0  0  0  0  0  0
   -5.7310    3.1730  -21.8070 H   0  0  0  0  0  0  0  0  0  0  0  0
   -6.0150    1.9860  -23.9510 H   0  0  0  0  0  0  0  0  0  0  0  0
   -9.8080    2.2360  -24.9690 H   0  0  0  0  0  0  0  0  0  0  0  0
   -8.3620    1.3860  -25.5080 H   0  0  0  0  0  0  0  0  0  0  0  0
  -10.9700    0.3270  -24.0540 C   0  0  0  0  0  0  0  0  0  0  0  0
  -11.7010    1.2260  -24.4420 O   0  0  0  0  0  0  0  0  0  0  0  0
  -11.4940   -0.8610  -23.3120 C   0  0  0  0  0  0  0  0  0  0  0  0
  -12.8750   -0.9350  -23.1480 C   0  0  0  0  0  0  0  0  0  0  0  0
  -13.4140   -1.8340  -22.2560 C   0  0  0  0  0  0  0  0  0  0  0  0
  -12.5470   -2.6870  -21.5770 C   0  0  0  0  0  0  0  0  0  0  0  0
  -13.1960   -3.7080  -20.3400 Cl  0  0  0  0  0  0  0  0  0  0  0  0
  -11.1850   -2.6950  -21.8110 C   0  0  0  0  0  0  0  0  0  0  0  0
  -10.6250   -1.7690  -22.6910 C   0  0  0  0  0  0  0  0  0  0  0  0
  -10.5680   -3.4100  -21.2800 H   0  0  0  0  0  0  0  0  0  0  0  0
  -14.4740   -1.8650  -22.0370 H   0  0  0  0  0  0  0  0  0  0  0  0
  -13.4820   -0.2350  -23.7100 H   0  0  0  0  0  0  0  0  0  0  0  0
   -9.0430   -1.5010  -24.9590 H   0  0  0  0  0  0  0  0  0  0  0  0
   -7.7610   -0.5660  -24.1570 H   0  0  0  0  0  0  0  0  0  0  0  0
   -6.1640   -2.3560  -22.6350 H   0  0  0  0  0  0  0  0  0  0  0  0
   -6.6950   -3.3580  -21.2800 H   0  0  0  0  0  0  0  0  0  0  0  0
   -8.8390   -3.6590  -22.1460 H   0  0  0  0  0  0  0  0  0  0  0  0
   -8.9200   -3.7460  -24.6420 H   0  0  0  0  0  0  0  0  0  0  0  0
   -7.3470   -2.9180  -24.6900 H   0  0  0  0  0  0  0  0  0  0  0  0
   -6.5400   -6.4160  -24.7850 H   0  0  0  0  0  0  0  0  0  0  0  0
   -7.8980   -5.6680  -25.6610 H   0  0  0  0  0  0  0  0  0  0  0  0
   -6.2960   -4.8850  -25.6610 H   0  0  0  0  0  0  0  0  0  0  0  0
  1  2  1  0  0  0  0
  1 59  1  0  0  0  0
  1 60  1  0  0  0  0
  1 61  1  0  0  0  0
  2  3  1  0  0  0  0
  3  4  1  0  0  0  0
  3 57  1  0  0  0  0
  3 58  1  0  0  0  0
  4  5  1  0  0  0  0
  4 25  1  0  0  0  0
  4 56  1  1  0  0  0
  5  6  1  0  0  0  0
  5 54  1  0  0  0  0
  5 55  1  0  0  0  0
  6  7  1  0  0  0  0
  6 23  1  0  0  0  0
  7  8  2  0  0  0  0
  7 16  1  0  0  0  0
  8  9  1  0  0  0  0
  8 22  1  0  0  0  0
  9 10  2  0  0  0  0
 10 11  1  0  0  0  0
 10 21  1  0  0  0  0
 11 12  2  0  0  0  0
 11 16  1  0  0  0  0
 12 13  1  0  0  0  0
 12 20  1  0  0  0  0
 13 14  2  0  0  0  0
 13 19  1  0  0  0  0
 14 15  1  0  0  0  0
 14 18  1  0  0  0  0
 15 16  2  0  0  0  0
 15 17  1  0  0  0  0
 23 24  2  0  0  0  0
 25 23  1  1  0  0  0
 25 26  1  0  0  0  0
 25 48  1  0  0  0  0
 26 27  1  0  0  0  0
 26 52  1  0  0  0  0
 26 53  1  0  0  0  0
 27 28  1  0  0  0  0
 27 40  1  0  0  0  0
 28 29  1  0  0  0  0
 28 38  1  0  0  0  0
 28 39  1  0  0  0  0
 29 30  2  0  0  0  0
 29 33  1  0  0  0  0
 30 31  1  0  0  0  0
 30 37  1  0  0  0  0
 31 32  2  0  0  0  0
 31 36  1  0  0  0  0
 32 33  1  0  0  0  0
 32 35  1  0  0  0  0
 33 34  1  0  0  0  0
 40 41  2  0  0  0  0
 40 42  1  0  0  0  0
 42 43  2  0  0  0  0
 42 48  1  0  0  0  0
 43 44  1  0  0  0  0
 43 51  1  0  0  0  0
 44 45  2  0  0  0  0
 44 50  1  0  0  0  0
 45 46  1  0  0  0  0
 45 47  1  0  0  0  0
 47 48  2  0  0  0  0
 47 49  1  0  0  0  0
M  CHG  1  31   1
M  END
>  <MODEL>
       1

$$$$
