output/tmp_first_model_5_13.pdb
 OpenBabel07242615323D

 69 74  0  0  1  0  0  0  0  0999 V2000
   -7.3450    3.2160  -21.6510 C   0  0  0  0  0  0  0  0  0  0  0  0
   -8.3470    2.7640  -22.5990 N   0  0  0  0  0  0  0  0  0  0  0  0
   -7.9490    2.1410  -23.7360 C   0  0  0  0  0  0  0  0  0  0  0  0
   -6.7700    1.9840  -24.0240 O   0  0  0  0  0  0  0  0  0  0  0  0
   -9.0670    1.6210  -24.6420 C   0  0  0  0  0  0  0  0  0  0  0  0
   -9.6800    0.4280  -24.0950 N   0  0  0  0  0  0  0  0  0  0  0  0
   -8.8900   -0.7950  -24.0720 C   0  0  0  0  0  0  0  0  0  0  0  0
   -9.1900   -1.6150  -22.7940 C   0  0  2  0  0  0  0  0  0  0  0  0
   -8.6350   -0.8930  -21.5420 C   0  0  0  0  0  0  0  0  0  0  0  0
   -9.1080    0.0590  -20.9550 O   0  0  0  0  0  0  0  0  0  0  0  0
   -7.4510   -1.4990  -21.2020 N   0  0  0  0  0  0  0  0  0  0  0  0
   -6.5940   -0.9870  -20.2060 C   0  0  0  0  0  0  0  0  0  0  0  0
   -6.8540   -1.2210  -18.8820 C   0  0  0  0  0  0  0  0  0  0  0  0
   -5.9720   -0.9710  -17.8850 N   0  0  0  0  0  0  0  0  0  0  0  0
   -4.8210   -0.4340  -18.2250 C   0  0  0  0  0  0  0  0  0  0  0  0
   -4.4760   -0.0390  -19.5490 C   0  0  0  0  0  0  0  0  0  0  0  0
   -3.3130    0.7320  -19.8330 C   0  0  0  0  0  0  0  0  0  0  0  0
   -3.2050    1.4080  -21.0170 C   0  0  0  0  0  0  0  0  0  0  0  0
   -4.1430    1.1770  -22.0530 C   0  0  0  0  0  0  0  0  0  0  0  0
   -5.2010    0.3250  -21.8490 C   0  0  0  0  0  0  0  0  0  0  0  0
   -5.4230   -0.2580  -20.5710 C   0  0  0  0  0  0  0  0  0  0  0  0
   -5.9090    0.1600  -22.6550 H   0  0  0  0  0  0  0  0  0  0  0  0
   -4.0250    1.6740  -23.0120 H   0  0  0  0  0  0  0  0  0  0  0  0
   -2.3540    2.0570  -21.1960 H   0  0  0  0  0  0  0  0  0  0  0  0
   -2.5950    0.8860  -19.0340 H   0  0  0  0  0  0  0  0  0  0  0  0
   -4.1120   -0.2360  -17.4220 H   0  0  0  0  0  0  0  0  0  0  0  0
   -7.8040   -1.6610  -18.5880 H   0  0  0  0  0  0  0  0  0  0  0  0
   -7.0750   -2.6000  -22.0630 C   0  0  0  0  0  0  0  0  0  0  0  0
   -8.3950   -2.9570  -22.7510 C   0  0  2  0  0  0  0  0  0  0  0  0
   -8.1840   -3.7020  -24.0660 C   0  0  0  0  0  0  0  0  0  0  0  0
   -9.4360   -4.0990  -24.6650 N   0  0  0  0  0  0  0  0  0  0  0  0
   -9.4670   -4.7530  -25.8540 C   0  0  0  0  0  0  0  0  0  0  0  0
  -10.6800   -5.2070  -26.4080 C   0  0  0  0  0  0  0  0  0  0  0  0
  -10.5960   -5.8090  -27.6410 C   0  0  0  0  0  0  0  0  0  0  0  0
   -9.4430   -5.9840  -28.3030 N   0  0  0  0  0  0  0  0  0  0  0  0
   -8.3500   -5.5550  -27.6750 C   0  0  0  0  0  0  0  0  0  0  0  0
   -7.0350   -5.8020  -28.3600 C   0  0  0  0  0  0  0  0  0  0  0  0
   -7.1650   -5.7580  -29.4440 H   0  0  0  0  0  0  0  0  0  0  0  0
   -6.6640   -6.8030  -28.1120 H   0  0  0  0  0  0  0  0  0  0  0  0
   -6.2900   -5.0710  -28.0360 H   0  0  0  0  0  0  0  0  0  0  0  0
   -8.3020   -4.9300  -26.4910 N   0  0  0  0  0  0  0  0  0  0  0  0
  -11.4940   -6.1740  -28.1400 H   0  0  0  0  0  0  0  0  0  0  0  0
  -11.6240   -5.0990  -25.8810 H   0  0  0  0  0  0  0  0  0  0  0  0
  -10.2890   -4.0390  -24.1310 H   0  0  0  0  0  0  0  0  0  0  0  0
   -7.5570   -4.5900  -23.9120 H   0  0  0  0  0  0  0  0  0  0  0  0
   -7.6400   -3.0780  -24.7870 H   0  0  0  0  0  0  0  0  0  0  0  0
   -8.9400   -3.6300  -22.0780 H   0  0  0  0  0  0  0  0  0  0  0  0
   -6.3070   -2.3000  -22.7950 H   0  0  0  0  0  0  0  0  0  0  0  0
   -6.6660   -3.4240  -21.4700 H   0  0  0  0  0  0  0  0  0  0  0  0
  -10.6880   -1.7640  -22.7020 C   0  0  0  0  0  0  0  0  0  0  0  0
  -11.2570   -2.7340  -21.8780 C   0  0  0  0  0  0  0  0  0  0  0  0
  -12.6160   -2.9780  -21.8960 C   0  0  0  0  0  0  0  0  0  0  0  0
  -13.2830   -3.9970  -20.6630 Cl  0  0  0  0  0  0  0  0  0  0  0  0
  -13.4460   -2.3320  -22.8140 C   0  0  0  0  0  0  0  0  0  0  0  0
  -12.9040   -1.2600  -23.5140 C   0  0  0  0  0  0  0  0  0  0  0  0
  -11.5590   -0.9150  -23.3930 C   0  0  0  0  0  0  0  0  0  0  0  0
  -11.0460    0.3710  -23.9710 C   0  0  0  0  0  0  0  0  0  0  0  0
  -11.7920    1.2820  -24.3060 O   0  0  0  0  0  0  0  0  0  0  0  0
  -13.5560   -0.6150  -24.0910 H   0  0  0  0  0  0  0  0  0  0  0  0
  -14.5050   -2.5730  -22.8760 H   0  0  0  0  0  0  0  0  0  0  0  0
  -10.6520   -3.3100  -21.1970 H   0  0  0  0  0  0  0  0  0  0  0  0
   -7.8320   -0.5290  -24.1190 H   0  0  0  0  0  0  0  0  0  0  0  0
   -9.1160   -1.4080  -24.9570 H   0  0  0  0  0  0  0  0  0  0  0  0
   -8.6220    1.4110  -25.6210 H   0  0  0  0  0  0  0  0  0  0  0  0
   -9.8700    2.3530  -24.7700 H   0  0  0  0  0  0  0  0  0  0  0  0
   -9.3010    2.6570  -22.2820 H   0  0  0  0  0  0  0  0  0  0  0  0
   -6.7760    2.3680  -21.2470 H   0  0  0  0  0  0  0  0  0  0  0  0
   -6.6470    3.8990  -22.1440 H   0  0  0  0  0  0  0  0  0  0  0  0
   -7.8370    3.7520  -20.8400 H   0  0  0  0  0  0  0  0  0  0  0  0
  1  2  1  0  0  0  0
  1 67  1  0  0  0  0
  1 68  1  0  0  0  0
  1 69  1  0  0  0  0
  2  3  1  0  0  0  0
  2 66  1  0  0  0  0
  3  4  2  0  0  0  0
  3  5  1  0  0  0  0
  5  6  1  0  0  0  0
  5 64  1  0  0  0  0
  5 65  1  0  0  0  0
  6  7  1  0  0  0  0
  6 57  1  0  0  0  0
  7  8  1  0  0  0  0
  7 62  1  0  0  0  0
  7 63  1  0  0  0  0
  8  9  1  1  0  0  0
  8 29  1  0  0  0  0
  8 50  1  0  0  0  0
  9 10  2  0  0  0  0
  9 11  1  0  0  0  0
 11 12  1  0  0  0  0
 11 28  1  0  0  0  0
 12 13  2  0  0  0  0
 12 21  1  0  0  0  0
 13 14  1  0  0  0  0
 13 27  1  0  0  0  0
 14 15  2  0  0  0  0
 15 16  1  0  0  0  0
 15 26  1  0  0  0  0
 16 17  2  0  0  0  0
 16 21  1  0  0  0  0
 17 18  1  0  0  0  0
 17 25  1  0  0  0  0
 18 19  2  0  0  0  0
 18 24  1  0  0  0  0
 19 20  1  0  0  0  0
 19 23  1  0  0  0  0
 20 21  2  0  0  0  0
 20 22  1  0  0  0  0
 28 29  1  0  0  0  0
 28 48  1  0  0  0  0
 28 49  1  0  0  0  0
 29 30  1  0  0  0  0
 29 47  1  1  0  0  0
 30 31  1  0  0  0  0
 30 45  1  0  0  0  0
 30 46  1  0  0  0  0
 31 32  1  0  0  0  0
 31 44  1  0  0  0  0
 32 33  2  0  0  0  0
 32 41  1  0  0  0  0
 33 34  1  0  0  0  0
 33 43  1  0  0  0  0
 34 35  2  0  0  0  0
 34 42  1  0  0  0  0
 35 36  1  0  0  0  0
 36 37  1  0  0  0  0
 36 41  2  0  0  0  0
 37 38  1  0  0  0  0
 37 39  1  0  0  0  0
 37 40  1  0  0  0  0
 50 51  2  0  0  0  0
 50 56  1  0  0  0  0
 51 52  1  0  0  0  0
 51 61  1  0  0  0  0
 52 53  1  0  0  0  0
 52 54  2  0  0  0  0
 54 55  1  0  0  0  0
 54 60  1  0  0  0  0
 55 56  2  0  0  0  0
 55 59  1  0  0  0  0
 56 57  1  0  0  0  0
 57 58  2  0  0  0  0
M  END
>  <MODEL>
       1

$$$$
