output/tmp_first_model_4_11.pdb
 OpenBabel07242615033D

 48 52  0  0  0  0  0  0  0  0999 V2000
  -10.5240   -2.5210  -22.3210 C   0  0  0  0  0  0  0  0  0  0  0  0
   -9.0990   -2.3290  -22.1330 N   0  0  0  0  0  0  0  0  0  0  0  0
   -8.6220   -1.2900  -21.3790 C   0  0  0  0  0  0  0  0  0  0  0  0
   -9.2680   -0.4070  -20.8660 O   0  0  0  0  0  0  0  0  0  0  0  0
   -7.2300   -1.4460  -21.3020 N   0  0  0  0  0  0  0  0  0  0  0  0
   -6.4160   -0.9700  -20.2380 C   0  0  0  0  0  0  0  0  0  0  0  0
   -6.6300   -1.4110  -18.9570 C   0  0  0  0  0  0  0  0  0  0  0  0
   -5.7390   -1.2550  -17.9500 N   0  0  0  0  0  0  0  0  0  0  0  0
   -4.6150   -0.6350  -18.2240 C   0  0  0  0  0  0  0  0  0  0  0  0
   -4.2920   -0.0940  -19.5050 C   0  0  0  0  0  0  0  0  0  0  0  0
   -3.0710    0.5780  -19.7830 C   0  0  0  0  0  0  0  0  0  0  0  0
   -2.8280    1.0940  -21.0280 C   0  0  0  0  0  0  0  0  0  0  0  0
   -3.7970    0.9970  -22.0500 C   0  0  0  0  0  0  0  0  0  0  0  0
   -4.9850    0.3560  -21.8140 C   0  0  0  0  0  0  0  0  0  0  0  0
   -5.2420   -0.2270  -20.5410 C   0  0  0  0  0  0  0  0  0  0  0  0
   -5.7430    0.2920  -22.5890 H   0  0  0  0  0  0  0  0  0  0  0  0
   -3.5910    1.4220  -23.0290 H   0  0  0  0  0  0  0  0  0  0  0  0
   -1.8850    1.5860  -21.2430 H   0  0  0  0  0  0  0  0  0  0  0  0
   -2.3540    0.7250  -18.9860 H   0  0  0  0  0  0  0  0  0  0  0  0
   -3.9080   -0.5270  -17.4000 H   0  0  0  0  0  0  0  0  0  0  0  0
   -7.5490   -1.9400  -18.7090 H   0  0  0  0  0  0  0  0  0  0  0  0
   -6.8030   -2.5570  -22.0220 C   0  0  0  0  0  0  0  0  0  0  0  0
   -5.6670   -2.9590  -22.0790 O   0  0  0  0  0  0  0  0  0  0  0  0
   -8.0420   -3.1790  -22.6230 C   0  0  0  0  0  0  0  0  0  0  0  0
   -8.1110   -4.6960  -22.3680 C   0  0  0  0  0  0  0  0  0  0  0  0
   -8.0550   -4.9470  -23.8360 N   0  0  0  0  0  0  0  0  0  0  0  0
   -9.3760   -5.7580  -24.5110 S   0  0  0  0  0  0  0  0  0  0  0  0
   -9.1740   -7.1700  -24.2470 O   0  0  0  0  0  0  0  0  0  0  0  0
  -10.5960   -5.0800  -24.0920 O   0  0  0  0  0  0  0  0  0  0  0  0
   -9.1270   -5.4500  -26.2330 C   0  0  0  0  0  0  0  0  0  0  0  0
   -8.2420   -6.2700  -26.9160 C   0  0  0  0  0  0  0  0  0  0  0  0
   -8.1060   -6.1190  -28.2870 C   0  0  0  0  0  0  0  0  0  0  0  0
   -8.8340   -5.1290  -28.9430 C   0  0  0  0  0  0  0  0  0  0  0  0
   -9.6890   -4.2810  -28.2400 C   0  0  0  0  0  0  0  0  0  0  0  0
   -9.8360   -4.4370  -26.8690 C   0  0  0  0  0  0  0  0  0  0  0  0
  -10.4920   -3.8000  -26.2860 H   0  0  0  0  0  0  0  0  0  0  0  0
  -10.2370   -3.4940  -28.7540 H   0  0  0  0  0  0  0  0  0  0  0  0
   -8.7500   -5.0520  -30.0150 H   0  0  0  0  0  0  0  0  0  0  0  0
   -7.4410   -6.7730  -28.8490 H   0  0  0  0  0  0  0  0  0  0  0  0
   -7.6940   -7.0220  -26.3580 H   0  0  0  0  0  0  0  0  0  0  0  0
   -7.9680   -3.4950  -24.1290 C   0  0  0  0  0  0  0  0  0  0  0  0
   -8.8020   -3.0840  -24.7060 H   0  0  0  0  0  0  0  0  0  0  0  0
   -7.0210   -3.2420  -24.6090 H   0  0  0  0  0  0  0  0  0  0  0  0
   -7.2030   -5.0700  -21.8910 H   0  0  0  0  0  0  0  0  0  0  0  0
   -9.0000   -5.0690  -21.8610 H   0  0  0  0  0  0  0  0  0  0  0  0
  -11.0310   -1.7600  -21.7240 H   0  0  0  0  0  0  0  0  0  0  0  0
  -10.8360   -3.5130  -21.9850 H   0  0  0  0  0  0  0  0  0  0  0  0
  -10.8070   -2.3960  -23.3710 H   0  0  0  0  0  0  0  0  0  0  0  0
  1  2  1  0  0  0  0
  1 46  1  0  0  0  0
  1 47  1  0  0  0  0
  1 48  1  0  0  0  0
  2  3  1  0  0  0  0
  2 24  1  0  0  0  0
  3  4  2  0  0  0  0
  3  5  1  0  0  0  0
  5  6  1  0  0  0  0
  5 22  1  0  0  0  0
  6  7  2  0  0  0  0
  6 15  1  0  0  0  0
  7  8  1  0  0  0  0
  7 21  1  0  0  0  0
  8  9  2  0  0  0  0
  9 10  1  0  0  0  0
  9 20  1  0  0  0  0
 10 11  2  0  0  0  0
 10 15  1  0  0  0  0
 11 12  1  0  0  0  0
 11 19  1  0  0  0  0
 12 13  2  0  0  0  0
 12 18  1  0  0  0  0
 13 14  1  0  0  0  0
 13 17  1  0  0  0  0
 14 15  2  0  0  0  0
 14 16  1  0  0  0  0
 22 23  2  0  0  0  0
 22 24  1  0  0  0  0
 24 25  1  0  0  0  0
 24 41  1  0  0  0  0
 25 26  1  0  0  0  0
 25 44  1  0  0  0  0
 25 45  1  0  0  0  0
 26 27  1  0  0  0  0
 26 41  1  0  0  0  0
 27 28  2  0  0  0  0
 27 29  2  0  0  0  0
 27 30  1  0  0  0  0
 30 31  2  0  0  0  0
 30 35  1  0  0  0  0
 31 32  1  0  0  0  0
 31 40  1  0  0  0  0
 32 33  2  0  0  0  0
 32 39  1  0  0  0  0
 33 34  1  0  0  0  0
 33 38  1  0  0  0  0
 34 35  2  0  0  0  0
 34 37  1  0  0  0  0
 35 36  1  0  0  0  0
 41 42  1  0  0  0  0
 41 43  1  0  0  0  0
M  END
>  <MODEL>
       1

$$$$
