output/tmp_first_model_13_8.pdb
 OpenBabel07242619583D

 60 64  0  0  1  0  0  0  0  0999 V2000
  -14.9030   -2.1100  -23.9540 C   0  0  0  0  0  0  0  0  0  0  0  0
  -13.9670   -3.0380  -23.3740 N   0  0  0  0  0  0  0  0  0  0  0  0
  -13.1990   -2.6980  -22.3040 C   0  0  0  0  0  0  0  0  0  0  0  0
  -13.1410   -1.5670  -21.8430 O   0  0  0  0  0  0  0  0  0  0  0  0
  -12.3980   -3.8690  -21.7570 C   0  0  0  0  0  0  0  0  0  0  0  0
  -11.0530   -3.8980  -22.3020 N   0  0  0  0  0  0  0  0  0  0  0  0
   -9.9310   -3.3570  -21.5400 C   0  0  0  0  0  0  0  0  0  0  0  0
   -8.7440   -2.8860  -22.4150 C   0  0  2  0  0  0  0  0  0  0  0  0
   -7.5420   -2.6740  -21.4800 C   0  0  0  0  0  0  0  0  0  0  0  0
   -6.8110   -3.5240  -21.0070 O   0  0  0  0  0  0  0  0  0  0  0  0
   -7.3950   -1.3240  -21.2460 N   0  0  0  0  0  0  0  0  0  0  0  0
   -6.5780   -0.8420  -20.1990 C   0  0  0  0  0  0  0  0  0  0  0  0
   -6.8850   -1.1110  -18.8900 C   0  0  0  0  0  0  0  0  0  0  0  0
   -6.2120   -0.5800  -17.8400 N   0  0  0  0  0  0  0  0  0  0  0  0
   -5.2010    0.2100  -18.0980 C   0  0  0  0  0  0  0  0  0  0  0  0
   -4.7520    0.5330  -19.4110 C   0  0  0  0  0  0  0  0  0  0  0  0
   -3.6260    1.3610  -19.6500 C   0  0  0  0  0  0  0  0  0  0  0  0
   -3.2230    1.6220  -20.9310 C   0  0  0  0  0  0  0  0  0  0  0  0
   -3.9200    1.0680  -22.0290 C   0  0  0  0  0  0  0  0  0  0  0  0
   -5.0140    0.2640  -21.8250 C   0  0  0  0  0  0  0  0  0  0  0  0
   -5.4560   -0.0120  -20.5040 C   0  0  0  0  0  0  0  0  0  0  0  0
   -5.5410   -0.1810  -22.6640 H   0  0  0  0  0  0  0  0  0  0  0  0
   -3.5870    1.2730  -23.0420 H   0  0  0  0  0  0  0  0  0  0  0  0
   -2.3620    2.2580  -21.1130 H   0  0  0  0  0  0  0  0  0  0  0  0
   -3.0990    1.7710  -18.7940 H   0  0  0  0  0  0  0  0  0  0  0  0
   -4.6710    0.6320  -17.2440 H   0  0  0  0  0  0  0  0  0  0  0  0
   -7.7180   -1.7660  -18.6390 H   0  0  0  0  0  0  0  0  0  0  0  0
   -8.3950   -0.4950  -21.8970 C   0  0  0  0  0  0  0  0  0  0  0  0
   -8.9610   -1.4370  -22.9730 C   0  0  2  0  0  0  0  0  0  0  0  0
  -10.3990   -1.1170  -23.3380 C   0  0  0  0  0  0  0  0  0  0  0  0
  -10.5060    0.1470  -23.9500 O   0  0  0  0  0  0  0  0  0  0  0  0
  -11.8620    0.3590  -24.2780 C   0  0  0  0  0  0  0  0  0  0  0  0
  -12.4970    0.3320  -23.3790 H   0  0  0  0  0  0  0  0  0  0  0  0
  -12.2100   -0.4330  -24.9600 H   0  0  0  0  0  0  0  0  0  0  0  0
  -11.9560    1.3250  -24.7780 H   0  0  0  0  0  0  0  0  0  0  0  0
  -10.7710   -1.8920  -24.0250 H   0  0  0  0  0  0  0  0  0  0  0  0
  -11.0390   -1.1270  -22.4410 H   0  0  0  0  0  0  0  0  0  0  0  0
   -8.3440   -1.3470  -23.8750 H   0  0  0  0  0  0  0  0  0  0  0  0
   -9.1670   -0.1640  -21.1820 H   0  0  0  0  0  0  0  0  0  0  0  0
   -7.9490    0.4110  -22.3190 H   0  0  0  0  0  0  0  0  0  0  0  0
   -8.4760   -3.9330  -23.4730 C   0  0  0  0  0  0  0  0  0  0  0  0
   -7.2030   -4.0900  -24.0350 C   0  0  0  0  0  0  0  0  0  0  0  0
   -6.9940   -5.0490  -25.0120 C   0  0  0  0  0  0  0  0  0  0  0  0
   -5.4060   -5.2300  -25.7060 Cl  0  0  0  0  0  0  0  0  0  0  0  0
   -8.0200   -5.8980  -25.4290 C   0  0  0  0  0  0  0  0  0  0  0  0
   -9.2860   -5.7230  -24.9070 C   0  0  0  0  0  0  0  0  0  0  0  0
   -9.5140   -4.7390  -23.9530 C   0  0  0  0  0  0  0  0  0  0  0  0
  -10.9080   -4.5660  -23.4760 C   0  0  0  0  0  0  0  0  0  0  0  0
  -11.8800   -5.0090  -24.0930 O   0  0  0  0  0  0  0  0  0  0  0  0
  -10.1260   -6.3350  -25.2200 H   0  0  0  0  0  0  0  0  0  0  0  0
   -7.8230   -6.6820  -26.1480 H   0  0  0  0  0  0  0  0  0  0  0  0
   -6.3660   -3.4990  -23.6790 H   0  0  0  0  0  0  0  0  0  0  0  0
   -9.5620   -4.1080  -20.8440 H   0  0  0  0  0  0  0  0  0  0  0  0
  -10.2540   -2.5000  -20.9390 H   0  0  0  0  0  0  0  0  0  0  0  0
  -12.9350   -4.7550  -22.0890 H   0  0  0  0  0  0  0  0  0  0  0  0
  -12.3530   -3.8430  -20.6730 H   0  0  0  0  0  0  0  0  0  0  0  0
  -13.6680   -3.8180  -23.9420 H   0  0  0  0  0  0  0  0  0  0  0  0
  -15.4350   -1.5980  -23.1520 H   0  0  0  0  0  0  0  0  0  0  0  0
  -15.6110   -2.6600  -24.5790 H   0  0  0  0  0  0  0  0  0  0  0  0
  -14.4170   -1.3420  -24.5620 H   0  0  0  0  0  0  0  0  0  0  0  0
  1  2  1  0  0  0  0
  1 58  1  0  0  0  0
  1 59  1  0  0  0  0
  1 60  1  0  0  0  0
  2  3  1  0  0  0  0
  2 57  1  0  0  0  0
  3  4  2  0  0  0  0
  3  5  1  0  0  0  0
  5  6  1  0  0  0  0
  5 55  1  0  0  0  0
  5 56  1  0  0  0  0
  6  7  1  0  0  0  0
  6 48  1  0  0  0  0
  7  8  1  0  0  0  0
  7 53  1  0  0  0  0
  7 54  1  0  0  0  0
  8  9  1  1  0  0  0
  8 29  1  0  0  0  0
  8 41  1  0  0  0  0
  9 10  2  0  0  0  0
  9 11  1  0  0  0  0
 11 12  1  0  0  0  0
 11 28  1  0  0  0  0
 12 13  2  0  0  0  0
 12 21  1  0  0  0  0
 13 14  1  0  0  0  0
 13 27  1  0  0  0  0
 14 15  2  0  0  0  0
 15 16  1  0  0  0  0
 15 26  1  0  0  0  0
 16 17  2  0  0  0  0
 16 21  1  0  0  0  0
 17 18  1  0  0  0  0
 17 25  1  0  0  0  0
 18 19  2  0  0  0  0
 18 24  1  0  0  0  0
 19 20  1  0  0  0  0
 19 23  1  0  0  0  0
 20 21  2  0  0  0  0
 20 22  1  0  0  0  0
 28 29  1  0  0  0  0
 28 39  1  0  0  0  0
 28 40  1  0  0  0  0
 29 30  1  0  0  0  0
 29 38  1  6  0  0  0
 30 31  1  0  0  0  0
 30 36  1  0  0  0  0
 30 37  1  0  0  0  0
 31 32  1  0  0  0  0
 32 33  1  0  0  0  0
 32 34  1  0  0  0  0
 32 35  1  0  0  0  0
 41 42  2  0  0  0  0
 41 47  1  0  0  0  0
 42 43  1  0  0  0  0
 42 52  1  0  0  0  0
 43 44  1  0  0  0  0
 43 45  2  0  0  0  0
 45 46  1  0  0  0  0
 45 51  1  0  0  0  0
 46 47  2  0  0  0  0
 46 50  1  0  0  0  0
 47 48  1  0  0  0  0
 48 49  2  0  0  0  0
M  END
>  <MODEL>
       1

$$$$
