output/tmp_first_model_14_79.pdb
 OpenBabel07242620283D

 45 49  0  0  0  0  0  0  0  0999 V2000
  -10.5240   -2.6040  -22.5090 C   0  0  0  0  0  0  0  0  0  0  0  0
   -9.1250   -2.3860  -22.2000 N   0  0  0  0  0  0  0  0  0  0  0  0
   -8.6930   -1.3220  -21.4590 C   0  0  0  0  0  0  0  0  0  0  0  0
   -9.3470   -0.3910  -21.0460 O   0  0  0  0  0  0  0  0  0  0  0  0
   -7.3120   -1.5150  -21.2770 N   0  0  0  0  0  0  0  0  0  0  0  0
   -6.5890   -0.8630  -20.2460 C   0  0  0  0  0  0  0  0  0  0  0  0
   -6.9540   -1.0400  -18.9340 C   0  0  0  0  0  0  0  0  0  0  0  0
   -6.2880   -0.5070  -17.8830 N   0  0  0  0  0  0  0  0  0  0  0  0
   -5.2300    0.2160  -18.1410 C   0  0  0  0  0  0  0  0  0  0  0  0
   -4.7730    0.5050  -19.4530 C   0  0  0  0  0  0  0  0  0  0  0  0
   -3.6430    1.3300  -19.6620 C   0  0  0  0  0  0  0  0  0  0  0  0
   -3.2470    1.6420  -20.9300 C   0  0  0  0  0  0  0  0  0  0  0  0
   -3.9590    1.1430  -22.0430 C   0  0  0  0  0  0  0  0  0  0  0  0
   -5.0510    0.3290  -21.8650 C   0  0  0  0  0  0  0  0  0  0  0  0
   -5.4770   -0.0240  -20.5540 C   0  0  0  0  0  0  0  0  0  0  0  0
   -5.5920   -0.0450  -22.7290 H   0  0  0  0  0  0  0  0  0  0  0  0
   -3.6430    1.4170  -23.0460 H   0  0  0  0  0  0  0  0  0  0  0  0
   -2.3920    2.2910  -21.0890 H   0  0  0  0  0  0  0  0  0  0  0  0
   -3.1270    1.7150  -18.7880 H   0  0  0  0  0  0  0  0  0  0  0  0
   -4.6760    0.6240  -17.2940 H   0  0  0  0  0  0  0  0  0  0  0  0
   -7.8110   -1.6560  -18.6760 H   0  0  0  0  0  0  0  0  0  0  0  0
   -6.8270   -2.5710  -22.0530 C   0  0  0  0  0  0  0  0  0  0  0  0
   -5.6730   -2.9090  -22.1700 O   0  0  0  0  0  0  0  0  0  0  0  0
   -8.0410   -3.1770  -22.7360 C   0  0  0  0  0  0  0  0  0  0  0  0
   -7.9320   -3.2880  -24.2770 C   0  0  0  0  0  0  0  0  0  0  0  0
   -7.9110   -4.7740  -24.1720 N   0  0  0  0  0  0  0  0  0  0  0  0
   -9.0230   -5.5720  -25.1510 S   0  0  0  0  0  0  0  0  0  0  0  0
  -10.3250   -5.5780  -24.4870 O   0  0  0  0  0  0  0  0  0  0  0  0
   -8.8710   -5.0120  -26.4800 O   0  0  0  0  0  0  0  0  0  0  0  0
   -8.4120   -7.2360  -25.1310 C   0  0  0  0  0  0  0  0  0  0  0  0
   -8.6990   -8.0220  -23.8930 C   0  0  0  0  0  0  0  0  0  0  0  0
   -9.5070   -8.2710  -25.1330 C   0  0  0  0  0  0  0  0  0  0  0  0
  -10.4930   -7.8170  -25.1740 H   0  0  0  0  0  0  0  0  0  0  0  0
   -9.3920   -9.1970  -25.6970 H   0  0  0  0  0  0  0  0  0  0  0  0
   -7.9640   -8.7500  -23.5950 H   0  0  0  0  0  0  0  0  0  0  0  0
   -9.1730   -7.5430  -23.0450 H   0  0  0  0  0  0  0  0  0  0  0  0
   -7.4830   -7.3890  -25.6790 H   0  0  0  0  0  0  0  0  0  0  0  0
   -8.1030   -4.7270  -22.7010 C   0  0  0  0  0  0  0  0  0  0  0  0
   -7.2510   -5.1840  -22.1920 H   0  0  0  0  0  0  0  0  0  0  0  0
   -9.0460   -5.1440  -22.3310 H   0  0  0  0  0  0  0  0  0  0  0  0
   -8.8000   -2.8960  -24.8200 H   0  0  0  0  0  0  0  0  0  0  0  0
   -7.0050   -2.9090  -24.7080 H   0  0  0  0  0  0  0  0  0  0  0  0
  -10.9880   -1.6530  -22.7830 H   0  0  0  0  0  0  0  0  0  0  0  0
  -11.0530   -3.0220  -21.6450 H   0  0  0  0  0  0  0  0  0  0  0  0
  -10.6000   -3.3040  -23.3450 H   0  0  0  0  0  0  0  0  0  0  0  0
  1  2  1  0  0  0  0
  1 43  1  0  0  0  0
  1 44  1  0  0  0  0
  1 45  1  0  0  0  0
  2  3  1  0  0  0  0
  2 24  1  0  0  0  0
  3  4  2  0  0  0  0
  3  5  1  0  0  0  0
  5  6  1  0  0  0  0
  5 22  1  0  0  0  0
  6  7  2  0  0  0  0
  6 15  1  0  0  0  0
  7  8  1  0  0  0  0
  7 21  1  0  0  0  0
  8  9  2  0  0  0  0
  9 10  1  0  0  0  0
  9 20  1  0  0  0  0
 10 11  2  0  0  0  0
 10 15  1  0  0  0  0
 11 12  1  0  0  0  0
 11 19  1  0  0  0  0
 12 13  2  0  0  0  0
 12 18  1  0  0  0  0
 13 14  1  0  0  0  0
 13 17  1  0  0  0  0
 14 15  2  0  0  0  0
 14 16  1  0  0  0  0
 22 23  2  0  0  0  0
 22 24  1  0  0  0  0
 24 25  1  0  0  0  0
 24 38  1  0  0  0  0
 25 26  1  0  0  0  0
 25 41  1  0  0  0  0
 25 42  1  0  0  0  0
 26 27  1  0  0  0  0
 26 38  1  0  0  0  0
 27 28  2  0  0  0  0
 27 29  2  0  0  0  0
 27 30  1  0  0  0  0
 30 31  1  0  0  0  0
 30 32  1  0  0  0  0
 30 37  1  0  0  0  0
 31 32  1  0  0  0  0
 31 35  1  0  0  0  0
 31 36  1  0  0  0  0
 32 33  1  0  0  0  0
 32 34  1  0  0  0  0
 38 39  1  0  0  0  0
 38 40  1  0  0  0  0
M  END
>  <MODEL>
       1

$$$$
