output/tmp_first_model_12_32.pdb
 OpenBabel07242619253D

 57 62  0  0  1  0  0  0  0  0999 V2000
   -8.1210   -4.0490  -23.7130 C   0  0  0  0  0  0  0  0  0  0  0  0
   -8.3900   -3.1530  -22.4990 C   0  0  1  0  0  0  0  0  0  0  0  0
   -7.1080   -2.4160  -22.0510 C   0  0  0  0  0  0  0  0  0  0  0  0
   -7.5980   -1.2720  -21.3070 N   0  0  0  0  0  0  0  0  0  0  0  0
   -6.8540   -0.7050  -20.2300 C   0  0  0  0  0  0  0  0  0  0  0  0
   -7.1320   -1.0490  -18.9280 C   0  0  0  0  0  0  0  0  0  0  0  0
   -6.3910   -0.6660  -17.8560 N   0  0  0  0  0  0  0  0  0  0  0  0
   -5.3370    0.0830  -18.0700 C   0  0  0  0  0  0  0  0  0  0  0  0
   -4.9320    0.5220  -19.3610 C   0  0  0  0  0  0  0  0  0  0  0  0
   -3.7930    1.3510  -19.5530 C   0  0  0  0  0  0  0  0  0  0  0  0
   -3.4560    1.7860  -20.8040 C   0  0  0  0  0  0  0  0  0  0  0  0
   -4.2340    1.4060  -21.9190 C   0  0  0  0  0  0  0  0  0  0  0  0
   -5.3340    0.5930  -21.7610 C   0  0  0  0  0  0  0  0  0  0  0  0
   -5.7100    0.1260  -20.4780 C   0  0  0  0  0  0  0  0  0  0  0  0
   -5.9640    0.3730  -22.6200 H   0  0  0  0  0  0  0  0  0  0  0  0
   -3.9790    1.7750  -22.9090 H   0  0  0  0  0  0  0  0  0  0  0  0
   -2.6070    2.4490  -20.9470 H   0  0  0  0  0  0  0  0  0  0  0  0
   -3.2040    1.6380  -18.6830 H   0  0  0  0  0  0  0  0  0  0  0  0
   -4.7370    0.3800  -17.2040 H   0  0  0  0  0  0  0  0  0  0  0  0
   -7.9940   -1.6740  -18.7050 H   0  0  0  0  0  0  0  0  0  0  0  0
   -8.9220   -0.9890  -21.5860 C   0  0  0  0  0  0  0  0  0  0  0  0
   -9.5580   -0.1000  -21.0570 O   0  0  0  0  0  0  0  0  0  0  0  0
   -9.4380   -1.9980  -22.6740 C   0  0  1  0  0  0  0  0  0  0  0  0
   -9.3010   -1.4100  -24.1030 C   0  0  0  0  0  0  0  0  0  0  0  0
  -10.3290   -0.4490  -24.4730 N   0  0  0  0  0  0  0  0  0  0  0  0
   -9.8890    0.7390  -25.1940 C   0  0  0  0  0  0  0  0  0  0  0  0
   -9.1090    1.5930  -24.2390 C   0  0  0  0  0  0  0  0  0  0  0  0
   -7.8070    1.7680  -24.2250 N   0  0  0  0  0  0  0  0  0  0  0  0
   -7.5450    2.4390  -23.0840 N   0  0  0  0  0  0  0  0  0  0  0  0
   -8.6210    2.6550  -22.4120 N   0  0  0  0  0  0  0  0  0  0  0  0
   -9.6270    2.1340  -23.1220 N   0  0  0  0  0  0  0  0  0  0  0  0
  -10.9950    2.2640  -22.6360 C   0  0  0  0  0  0  0  0  0  0  0  0
  -11.1960    1.4530  -21.9260 H   0  0  0  0  0  0  0  0  0  0  0  0
  -11.6770    2.2440  -23.4930 H   0  0  0  0  0  0  0  0  0  0  0  0
  -11.0700    3.2320  -22.1330 H   0  0  0  0  0  0  0  0  0  0  0  0
  -10.7760    1.2290  -25.6070 H   0  0  0  0  0  0  0  0  0  0  0  0
   -9.2330    0.4510  -26.0190 H   0  0  0  0  0  0  0  0  0  0  0  0
  -11.6370   -0.5460  -24.0910 C   0  0  0  0  0  0  0  0  0  0  0  0
  -12.5320    0.1140  -24.6080 O   0  0  0  0  0  0  0  0  0  0  0  0
  -11.9090   -1.4570  -22.9440 C   0  0  0  0  0  0  0  0  0  0  0  0
  -13.1800   -1.4060  -22.3700 C   0  0  0  0  0  0  0  0  0  0  0  0
  -13.5370   -2.3460  -21.4300 C   0  0  0  0  0  0  0  0  0  0  0  0
  -12.6240   -3.3450  -21.1260 C   0  0  0  0  0  0  0  0  0  0  0  0
  -13.0080   -4.2630  -20.2250 F   0  0  0  0  0  0  0  0  0  0  0  0
  -11.3380   -3.3690  -21.6300 C   0  0  0  0  0  0  0  0  0  0  0  0
  -10.9120   -2.3230  -22.4560 C   0  0  0  0  0  0  0  0  0  0  0  0
  -10.6690   -4.1530  -21.2970 H   0  0  0  0  0  0  0  0  0  0  0  0
  -14.4980   -2.3590  -20.9330 H   0  0  0  0  0  0  0  0  0  0  0  0
  -13.8650   -0.6150  -22.6670 H   0  0  0  0  0  0  0  0  0  0  0  0
   -8.3240   -0.9200  -24.1850 H   0  0  0  0  0  0  0  0  0  0  0  0
   -9.3360   -2.2440  -24.8110 H   0  0  0  0  0  0  0  0  0  0  0  0
   -6.5380   -2.0980  -22.9390 H   0  0  0  0  0  0  0  0  0  0  0  0
   -6.4430   -3.0200  -21.4280 H   0  0  0  0  0  0  0  0  0  0  0  0
   -8.7090   -3.7820  -21.6600 H   0  0  0  0  0  0  0  0  0  0  0  0
   -7.4370   -4.8670  -23.4640 H   0  0  0  0  0  0  0  0  0  0  0  0
   -9.0350   -4.4920  -24.1240 H   0  0  0  0  0  0  0  0  0  0  0  0
   -7.6480   -3.4750  -24.5180 H   0  0  0  0  0  0  0  0  0  0  0  0
  1  2  1  0  0  0  0
  1 55  1  0  0  0  0
  1 56  1  0  0  0  0
  1 57  1  0  0  0  0
  2  3  1  0  0  0  0
  2 23  1  0  0  0  0
  2 54  1  1  0  0  0
  3  4  1  0  0  0  0
  3 52  1  0  0  0  0
  3 53  1  0  0  0  0
  4  5  1  0  0  0  0
  4 21  1  0  0  0  0
  5  6  2  0  0  0  0
  5 14  1  0  0  0  0
  6  7  1  0  0  0  0
  6 20  1  0  0  0  0
  7  8  2  0  0  0  0
  8  9  1  0  0  0  0
  8 19  1  0  0  0  0
  9 10  2  0  0  0  0
  9 14  1  0  0  0  0
 10 11  1  0  0  0  0
 10 18  1  0  0  0  0
 11 12  2  0  0  0  0
 11 17  1  0  0  0  0
 12 13  1  0  0  0  0
 12 16  1  0  0  0  0
 13 14  2  0  0  0  0
 13 15  1  0  0  0  0
 21 22  2  0  0  0  0
 23 21  1  1  0  0  0
 23 24  1  0  0  0  0
 23 46  1  0  0  0  0
 24 25  1  0  0  0  0
 24 50  1  0  0  0  0
 24 51  1  0  0  0  0
 25 26  1  0  0  0  0
 25 38  1  0  0  0  0
 26 27  1  0  0  0  0
 26 36  1  0  0  0  0
 26 37  1  0  0  0  0
 27 28  2  0  0  0  0
 27 31  1  0  0  0  0
 28 29  1  0  0  0  0
 29 30  2  0  0  0  0
 30 31  1  0  0  0  0
 31 32  1  0  0  0  0
 32 33  1  0  0  0  0
 32 34  1  0  0  0  0
 32 35  1  0  0  0  0
 38 39  2  0  0  0  0
 38 40  1  0  0  0  0
 40 41  2  0  0  0  0
 40 46  1  0  0  0  0
 41 42  1  0  0  0  0
 41 49  1  0  0  0  0
 42 43  2  0  0  0  0
 42 48  1  0  0  0  0
 43 44  1  0  0  0  0
 43 45  1  0  0  0  0
 45 46  2  0  0  0  0
 45 47  1  0  0  0  0
M  END
>  <MODEL>
       1

$$$$
