output/tmp_first_model_8_11.pdb
 OpenBabel07242617113D

 48 52  0  0  0  0  0  0  0  0999 V2000
   -9.6860   -0.9150  -23.9830 C   0  0  0  0  0  0  0  0  0  0  0  0
   -8.6830   -1.3680  -23.0550 N   0  0  0  0  0  0  0  0  0  0  0  0
   -8.4500   -0.7350  -21.8640 C   0  0  0  0  0  0  0  0  0  0  0  0
   -9.0550    0.2020  -21.3860 O   0  0  0  0  0  0  0  0  0  0  0  0
   -7.3570   -1.4010  -21.2810 N   0  0  0  0  0  0  0  0  0  0  0  0
   -6.5870   -0.8260  -20.2350 C   0  0  0  0  0  0  0  0  0  0  0  0
   -6.9330   -1.0710  -18.9340 C   0  0  0  0  0  0  0  0  0  0  0  0
   -6.2510   -0.5920  -17.8640 N   0  0  0  0  0  0  0  0  0  0  0  0
   -5.2130    0.1740  -18.1060 C   0  0  0  0  0  0  0  0  0  0  0  0
   -4.7590    0.5210  -19.4140 C   0  0  0  0  0  0  0  0  0  0  0  0
   -3.6300    1.3600  -19.6240 C   0  0  0  0  0  0  0  0  0  0  0  0
   -3.2380    1.6800  -20.8970 C   0  0  0  0  0  0  0  0  0  0  0  0
   -3.9610    1.1960  -22.0140 C   0  0  0  0  0  0  0  0  0  0  0  0
   -5.0410    0.3680  -21.8360 C   0  0  0  0  0  0  0  0  0  0  0  0
   -5.4680    0.0160  -20.5230 C   0  0  0  0  0  0  0  0  0  0  0  0
   -5.5770   -0.0120  -22.6990 H   0  0  0  0  0  0  0  0  0  0  0  0
   -3.6360    1.4510  -23.0210 H   0  0  0  0  0  0  0  0  0  0  0  0
   -2.3690    2.3130  -21.0680 H   0  0  0  0  0  0  0  0  0  0  0  0
   -3.0960    1.7400  -18.7550 H   0  0  0  0  0  0  0  0  0  0  0  0
   -4.6710    0.5700  -17.2460 H   0  0  0  0  0  0  0  0  0  0  0  0
   -7.7970   -1.7020  -18.7370 H   0  0  0  0  0  0  0  0  0  0  0  0
   -6.9140   -2.4670  -22.0700 C   0  0  0  0  0  0  0  0  0  0  0  0
   -6.0050   -3.2150  -21.8120 O   0  0  0  0  0  0  0  0  0  0  0  0
   -7.7890   -2.4670  -23.3080 C   0  0  0  0  0  0  0  0  0  0  0  0
   -8.4030   -3.8310  -23.7060 C   0  0  0  0  0  0  0  0  0  0  0  0
   -7.6340   -3.8200  -24.9680 N   0  0  0  0  0  0  0  0  0  0  0  0
   -8.4470   -3.8930  -26.4360 S   0  0  0  0  0  0  0  0  0  0  0  0
   -9.5180   -2.8970  -26.4310 O   0  0  0  0  0  0  0  0  0  0  0  0
   -7.4300   -3.8540  -27.4750 O   0  0  0  0  0  0  0  0  0  0  0  0
   -9.2210   -5.4890  -26.3830 C   0  0  0  0  0  0  0  0  0  0  0  0
   -8.5730   -6.6300  -25.9140 C   0  0  0  0  0  0  0  0  0  0  0  0
   -9.2400   -7.8470  -26.0220 C   0  0  0  0  0  0  0  0  0  0  0  0
  -10.4940   -7.9110  -26.6250 C   0  0  0  0  0  0  0  0  0  0  0  0
  -11.1010   -6.7690  -27.1310 C   0  0  0  0  0  0  0  0  0  0  0  0
  -10.4710   -5.5440  -26.9880 C   0  0  0  0  0  0  0  0  0  0  0  0
  -10.9140   -4.6160  -27.3340 H   0  0  0  0  0  0  0  0  0  0  0  0
  -12.0420   -6.8440  -27.6590 H   0  0  0  0  0  0  0  0  0  0  0  0
  -10.9980   -8.8640  -26.7330 H   0  0  0  0  0  0  0  0  0  0  0  0
   -8.7720   -8.7540  -25.6610 H   0  0  0  0  0  0  0  0  0  0  0  0
   -7.5700   -6.5620  -25.4940 H   0  0  0  0  0  0  0  0  0  0  0  0
   -7.0150   -2.5080  -24.6480 C   0  0  0  0  0  0  0  0  0  0  0  0
   -7.2480   -1.7070  -25.3530 H   0  0  0  0  0  0  0  0  0  0  0  0
   -5.9340   -2.6100  -24.5390 H   0  0  0  0  0  0  0  0  0  0  0  0
   -8.0900   -4.6620  -23.0700 H   0  0  0  0  0  0  0  0  0  0  0  0
   -9.4870   -3.8420  -23.8400 H   0  0  0  0  0  0  0  0  0  0  0  0
  -10.2440   -0.1260  -23.4840 H   0  0  0  0  0  0  0  0  0  0  0  0
  -10.3570   -1.7360  -24.2440 H   0  0  0  0  0  0  0  0  0  0  0  0
   -9.2240   -0.5200  -24.8920 H   0  0  0  0  0  0  0  0  0  0  0  0
  1  2  1  0  0  0  0
  1 46  1  0  0  0  0
  1 47  1  0  0  0  0
  1 48  1  0  0  0  0
  2  3  1  0  0  0  0
  2 24  1  0  0  0  0
  3  4  2  0  0  0  0
  3  5  1  0  0  0  0
  5  6  1  0  0  0  0
  5 22  1  0  0  0  0
  6  7  2  0  0  0  0
  6 15  1  0  0  0  0
  7  8  1  0  0  0  0
  7 21  1  0  0  0  0
  8  9  2  0  0  0  0
  9 10  1  0  0  0  0
  9 20  1  0  0  0  0
 10 11  2  0  0  0  0
 10 15  1  0  0  0  0
 11 12  1  0  0  0  0
 11 19  1  0  0  0  0
 12 13  2  0  0  0  0
 12 18  1  0  0  0  0
 13 14  1  0  0  0  0
 13 17  1  0  0  0  0
 14 15  2  0  0  0  0
 14 16  1  0  0  0  0
 22 23  2  0  0  0  0
 22 24  1  0  0  0  0
 24 25  1  0  0  0  0
 24 41  1  0  0  0  0
 25 26  1  0  0  0  0
 25 44  1  0  0  0  0
 25 45  1  0  0  0  0
 26 27  1  0  0  0  0
 26 41  1  0  0  0  0
 27 28  2  0  0  0  0
 27 29  2  0  0  0  0
 27 30  1  0  0  0  0
 30 31  2  0  0  0  0
 30 35  1  0  0  0  0
 31 32  1  0  0  0  0
 31 40  1  0  0  0  0
 32 33  2  0  0  0  0
 32 39  1  0  0  0  0
 33 34  1  0  0  0  0
 33 38  1  0  0  0  0
 34 35  2  0  0  0  0
 34 37  1  0  0  0  0
 35 36  1  0  0  0  0
 41 42  1  0  0  0  0
 41 43  1  0  0  0  0
M  END
>  <MODEL>
       1

$$$$
