output/tmp_first_model_12_28.pdb
 OpenBabel07242619253D

 64 68  0  0  1  0  0  0  0  0999 V2000
   -7.9500    2.5330  -22.0290 C   0  0  0  0  0  0  0  0  0  0  0  0
   -8.8230    2.1790  -23.1320 N   0  0  0  0  0  0  0  0  0  0  0  0
   -8.3550    1.5490  -24.2360 C   0  0  0  0  0  0  0  0  0  0  0  0
   -7.1640    1.4090  -24.4910 O   0  0  0  0  0  0  0  0  0  0  0  0
   -9.4560    0.9400  -25.1140 C   0  0  0  0  0  0  0  0  0  0  0  0
  -10.0810   -0.1260  -24.3540 N   0  0  0  0  0  0  0  0  0  0  0  0
   -9.2810   -1.3140  -24.1210 C   0  0  0  0  0  0  0  0  0  0  0  0
   -9.4430   -1.8820  -22.6830 C   0  0  2  0  0  0  0  0  0  0  0  0
   -8.8890   -0.9250  -21.6020 C   0  0  0  0  0  0  0  0  0  0  0  0
   -9.5110   -0.0460  -21.0320 O   0  0  0  0  0  0  0  0  0  0  0  0
   -7.5770   -1.2610  -21.3480 N   0  0  0  0  0  0  0  0  0  0  0  0
   -6.8250   -0.7200  -20.2670 C   0  0  0  0  0  0  0  0  0  0  0  0
   -7.1310   -1.0360  -18.9630 C   0  0  0  0  0  0  0  0  0  0  0  0
   -6.4040   -0.6340  -17.8920 N   0  0  0  0  0  0  0  0  0  0  0  0
   -5.3570    0.1220  -18.1150 C   0  0  0  0  0  0  0  0  0  0  0  0
   -4.9420    0.5540  -19.4080 C   0  0  0  0  0  0  0  0  0  0  0  0
   -3.8360    1.4310  -19.5930 C   0  0  0  0  0  0  0  0  0  0  0  0
   -3.4950    1.8590  -20.8470 C   0  0  0  0  0  0  0  0  0  0  0  0
   -4.2160    1.4040  -21.9710 C   0  0  0  0  0  0  0  0  0  0  0  0
   -5.2670    0.5250  -21.8160 C   0  0  0  0  0  0  0  0  0  0  0  0
   -5.6800    0.1010  -20.5250 C   0  0  0  0  0  0  0  0  0  0  0  0
   -5.8120    0.1800  -22.6890 H   0  0  0  0  0  0  0  0  0  0  0  0
   -3.9490    1.7600  -22.9630 H   0  0  0  0  0  0  0  0  0  0  0  0
   -2.6730    2.5570  -20.9860 H   0  0  0  0  0  0  0  0  0  0  0  0
   -3.2890    1.7670  -18.7140 H   0  0  0  0  0  0  0  0  0  0  0  0
   -4.7770    0.4340  -17.2460 H   0  0  0  0  0  0  0  0  0  0  0  0
   -7.9890   -1.6660  -18.7410 H   0  0  0  0  0  0  0  0  0  0  0  0
   -7.1590   -2.4710  -22.0310 C   0  0  0  0  0  0  0  0  0  0  0  0
   -8.5000   -3.1030  -22.4720 C   0  0  2  0  0  0  0  0  0  0  0  0
   -8.3810   -4.0180  -23.6850 C   0  0  0  0  0  0  0  0  0  0  0  0
   -7.3200   -5.4320  -23.4680 S   0  0  0  0  0  0  0  0  0  0  0  0
   -6.0370   -4.9970  -22.9410 O   0  0  0  0  0  0  0  0  0  0  0  0
   -7.3770   -6.1990  -24.7070 O   0  0  0  0  0  0  0  0  0  0  0  0
   -8.0730   -6.3030  -22.2440 N   0  0  0  0  0  0  0  0  0  0  0  0
   -7.3340   -7.5310  -21.9000 C   0  0  0  0  0  0  0  0  0  0  0  0
   -7.2270   -8.2290  -22.7430 H   0  0  0  0  0  0  0  0  0  0  0  0
   -7.8790   -8.0060  -21.0810 H   0  0  0  0  0  0  0  0  0  0  0  0
   -6.3360   -7.2550  -21.5560 H   0  0  0  0  0  0  0  0  0  0  0  0
   -9.0310   -6.5290  -22.5160 H   0  0  0  0  0  0  0  0  0  0  0  0
   -9.3560   -4.3910  -24.0130 H   0  0  0  0  0  0  0  0  0  0  0  0
   -7.9250   -3.5000  -24.5340 H   0  0  0  0  0  0  0  0  0  0  0  0
   -8.8750   -3.6850  -21.6220 H   0  0  0  0  0  0  0  0  0  0  0  0
   -6.5860   -3.1190  -21.3660 H   0  0  0  0  0  0  0  0  0  0  0  0
   -6.5220   -2.2340  -22.8960 H   0  0  0  0  0  0  0  0  0  0  0  0
  -10.9280   -2.0350  -22.4500 C   0  0  0  0  0  0  0  0  0  0  0  0
  -11.4900   -3.0670  -21.6970 C   0  0  0  0  0  0  0  0  0  0  0  0
  -12.8220   -2.9910  -21.3260 C   0  0  0  0  0  0  0  0  0  0  0  0
  -13.5080   -4.2020  -20.2960 Cl  0  0  0  0  0  0  0  0  0  0  0  0
  -13.6350   -1.9200  -21.6870 C   0  0  0  0  0  0  0  0  0  0  0  0
  -13.0950   -0.9140  -22.4550 C   0  0  0  0  0  0  0  0  0  0  0  0
  -11.7720   -0.9930  -22.8760 C   0  0  0  0  0  0  0  0  0  0  0  0
  -11.2810    0.1070  -23.7590 C   0  0  0  0  0  0  0  0  0  0  0  0
  -11.8920    1.1630  -23.9070 O   0  0  0  0  0  0  0  0  0  0  0  0
  -13.6850   -0.0520  -22.7480 H   0  0  0  0  0  0  0  0  0  0  0  0
  -14.6660   -1.8940  -21.3540 H   0  0  0  0  0  0  0  0  0  0  0  0
  -10.8950   -3.9120  -21.3680 H   0  0  0  0  0  0  0  0  0  0  0  0
   -8.2330   -1.0410  -24.2990 H   0  0  0  0  0  0  0  0  0  0  0  0
   -9.5860   -2.0820  -24.8470 H   0  0  0  0  0  0  0  0  0  0  0  0
  -10.2500    1.6510  -25.3690 H   0  0  0  0  0  0  0  0  0  0  0  0
   -9.0080    0.5420  -26.0340 H   0  0  0  0  0  0  0  0  0  0  0  0
   -9.8110    2.0920  -22.9300 H   0  0  0  0  0  0  0  0  0  0  0  0
   -8.0170    1.7780  -21.2270 H   0  0  0  0  0  0  0  0  0  0  0  0
   -6.9230    2.5780  -22.4070 H   0  0  0  0  0  0  0  0  0  0  0  0
   -8.2030    3.5210  -21.6220 H   0  0  0  0  0  0  0  0  0  0  0  0
  1  2  1  0  0  0  0
  1 62  1  0  0  0  0
  1 63  1  0  0  0  0
  1 64  1  0  0  0  0
  2  3  1  0  0  0  0
  2 61  1  0  0  0  0
  3  4  2  0  0  0  0
  3  5  1  0  0  0  0
  5  6  1  0  0  0  0
  5 59  1  0  0  0  0
  5 60  1  0  0  0  0
  6  7  1  0  0  0  0
  6 52  1  0  0  0  0
  7  8  1  0  0  0  0
  7 57  1  0  0  0  0
  7 58  1  0  0  0  0
  8  9  1  1  0  0  0
  8 29  1  0  0  0  0
  8 45  1  0  0  0  0
  9 10  2  0  0  0  0
  9 11  1  0  0  0  0
 11 12  1  0  0  0  0
 11 28  1  0  0  0  0
 12 13  2  0  0  0  0
 12 21  1  0  0  0  0
 13 14  1  0  0  0  0
 13 27  1  0  0  0  0
 14 15  2  0  0  0  0
 15 16  1  0  0  0  0
 15 26  1  0  0  0  0
 16 17  2  0  0  0  0
 16 21  1  0  0  0  0
 17 18  1  0  0  0  0
 17 25  1  0  0  0  0
 18 19  2  0  0  0  0
 18 24  1  0  0  0  0
 19 20  1  0  0  0  0
 19 23  1  0  0  0  0
 20 21  2  0  0  0  0
 20 22  1  0  0  0  0
 28 29  1  0  0  0  0
 28 43  1  0  0  0  0
 28 44  1  0  0  0  0
 29 30  1  0  0  0  0
 29 42  1  1  0  0  0
 30 31  1  0  0  0  0
 30 40  1  0  0  0  0
 30 41  1  0  0  0  0
 31 32  2  0  0  0  0
 31 33  2  0  0  0  0
 31 34  1  0  0  0  0
 34 35  1  0  0  0  0
 34 39  1  0  0  0  0
 35 36  1  0  0  0  0
 35 37  1  0  0  0  0
 35 38  1  0  0  0  0
 45 46  2  0  0  0  0
 45 51  1  0  0  0  0
 46 47  1  0  0  0  0
 46 56  1  0  0  0  0
 47 48  1  0  0  0  0
 47 49  2  0  0  0  0
 49 50  1  0  0  0  0
 49 55  1  0  0  0  0
 50 51  2  0  0  0  0
 50 54  1  0  0  0  0
 51 52  1  0  0  0  0
 52 53  2  0  0  0  0
M  END
>  <MODEL>
       1

$$$$
