output/tmp_first_model_5_68.pdb
 OpenBabel07242615323D

 65 70  0  0  1  0  0  0  0  0999 V2000
   -8.7800    0.3280  -20.8450 O   0  0  0  0  0  0  0  0  0  0  0  0
   -8.3520   -0.3220  -21.7840 C   0  0  0  0  0  0  0  0  0  0  0  0
   -7.4760   -1.5280  -21.4500 C   0  0  0  0  0  0  0  0  0  0  0  0
   -6.5060   -1.1650  -20.3630 C   0  0  0  0  0  0  0  0  0  0  0  0
   -6.7180   -1.5440  -19.0650 C   0  0  0  0  0  0  0  0  0  0  0  0
   -5.8030   -1.4310  -18.0650 N   0  0  0  0  0  0  0  0  0  0  0  0
   -4.6780   -0.8250  -18.3650 C   0  0  0  0  0  0  0  0  0  0  0  0
   -4.4190   -0.2100  -19.6250 C   0  0  0  0  0  0  0  0  0  0  0  0
   -3.3060    0.6460  -19.8420 C   0  0  0  0  0  0  0  0  0  0  0  0
   -3.2160    1.4050  -20.9750 C   0  0  0  0  0  0  0  0  0  0  0  0
   -4.1490    1.2310  -22.0200 C   0  0  0  0  0  0  0  0  0  0  0  0
   -5.1910    0.3480  -21.8760 C   0  0  0  0  0  0  0  0  0  0  0  0
   -5.3720   -0.3620  -20.6550 C   0  0  0  0  0  0  0  0  0  0  0  0
   -5.8950    0.2110  -22.6930 H   0  0  0  0  0  0  0  0  0  0  0  0
   -4.0260    1.7800  -22.9480 H   0  0  0  0  0  0  0  0  0  0  0  0
   -2.3820    2.0840  -21.1310 H   0  0  0  0  0  0  0  0  0  0  0  0
   -2.5840    0.7680  -19.0440 H   0  0  0  0  0  0  0  0  0  0  0  0
   -3.9030   -0.8030  -17.5960 H   0  0  0  0  0  0  0  0  0  0  0  0
   -7.6700   -1.9900  -18.7750 H   0  0  0  0  0  0  0  0  0  0  0  0
   -8.1540   -2.3040  -21.0770 H   0  0  0  0  0  0  0  0  0  0  0  0
   -6.9400   -1.9100  -22.3230 H   0  0  0  0  0  0  0  0  0  0  0  0
   -8.5960   -0.0020  -23.1060 N   0  0  0  0  0  0  0  0  0  0  0  0
   -8.5260   -1.0340  -24.1470 C   0  0  0  0  0  0  0  0  0  0  0  0
   -9.4670   -2.1980  -23.8940 C   0  0  0  0  0  0  0  0  0  0  0  0
  -10.8260   -1.9570  -23.6800 C   0  0  0  0  0  0  0  0  0  0  0  0
  -11.7100   -3.0080  -23.4800 C   0  0  0  0  0  0  0  0  0  0  0  0
  -11.2580   -4.3240  -23.4590 C   0  0  0  0  0  0  0  0  0  0  0  0
   -9.8990   -4.5580  -23.6440 C   0  0  0  0  0  0  0  0  0  0  0  0
   -9.2620   -6.1800  -23.5590 Cl  0  0  0  0  0  0  0  0  0  0  0  0
   -9.0090   -3.5150  -23.8860 C   0  0  0  0  0  0  0  0  0  0  0  0
   -7.9660   -3.7610  -24.0760 H   0  0  0  0  0  0  0  0  0  0  0  0
  -11.9540   -5.1420  -23.3110 H   0  0  0  0  0  0  0  0  0  0  0  0
  -12.7670   -2.8020  -23.3300 H   0  0  0  0  0  0  0  0  0  0  0  0
  -11.2080   -0.9390  -23.6700 H   0  0  0  0  0  0  0  0  0  0  0  0
   -7.5000   -1.4040  -24.2690 H   0  0  0  0  0  0  0  0  0  0  0  0
   -8.7970   -0.5700  -25.0940 H   0  0  0  0  0  0  0  0  0  0  0  0
   -8.8450    1.4150  -23.4040 C   0  0  2  0  0  0  0  0  0  0  0  0
   -7.6590    2.3610  -23.0650 C   0  0  0  0  0  0  0  0  0  0  0  0
   -8.2920    3.7760  -23.0500 C   0  0  0  0  0  0  0  0  0  0  0  0
   -9.7610    3.4690  -23.3230 C   0  0  2  0  0  0  0  0  0  0  0  0
   -9.9950    2.1170  -22.6620 C   0  0  0  0  0  0  0  0  0  0  0  0
  -10.9760    1.6990  -22.9100 H   0  0  0  0  0  0  0  0  0  0  0  0
   -9.8490    2.0850  -21.5900 H   0  0  0  0  0  0  0  0  0  0  0  0
   -9.8190    3.1070  -24.8190 N   0  3  2  0  0  0  0  0  0  0  0  0
  -11.1580    3.2290  -25.4600 C   0  0  0  0  0  0  0  0  0  0  0  0
  -11.6180    4.6750  -25.5250 C   0  0  0  0  0  0  0  0  0  0  0  0
  -12.9210    4.9350  -26.2910 C   0  0  0  0  0  0  0  0  0  0  0  0
  -13.5610    5.4960  -25.1350 O   0  0  0  0  0  0  0  0  0  0  0  0
  -12.4060    5.2320  -24.3280 C   0  0  0  0  0  0  0  0  0  0  0  0
  -12.6230    4.4840  -23.5520 H   0  0  0  0  0  0  0  0  0  0  0  0
  -12.0140    6.1470  -23.8650 H   0  0  0  0  0  0  0  0  0  0  0  0
  -12.8720    5.6530  -27.1180 H   0  0  0  0  0  0  0  0  0  0  0  0
  -13.4260    4.0240  -26.6400 H   0  0  0  0  0  0  0  0  0  0  0  0
  -10.7680    5.2970  -25.8210 H   0  0  0  0  0  0  0  0  0  0  0  0
  -11.1140    2.8060  -26.4710 H   0  0  0  0  0  0  0  0  0  0  0  0
  -11.8880    2.6300  -24.8930 H   0  0  0  0  0  0  0  0  0  0  0  0
   -9.2660    1.7040  -24.8510 C   0  0  0  0  0  0  0  0  0  0  0  0
   -8.4410    1.6260  -25.5610 H   0  0  0  0  0  0  0  0  0  0  0  0
  -10.0740    1.0310  -25.1600 H   0  0  0  0  0  0  0  0  0  0  0  0
   -9.1820    3.7320  -25.3460 H   0  0  0  0  0  0  0  0  0  0  0  0
  -10.4610    4.2670  -23.0960 H   0  0  0  0  0  0  0  0  0  0  0  0
   -7.8940    4.4400  -23.8250 H   0  0  0  0  0  0  0  0  0  0  0  0
   -8.1520    4.2700  -22.0850 H   0  0  0  0  0  0  0  0  0  0  0  0
   -6.8350    2.2640  -23.7820 H   0  0  0  0  0  0  0  0  0  0  0  0
   -7.2910    2.1360  -22.0600 H   0  0  0  0  0  0  0  0  0  0  0  0
  1  2  2  0  0  0  0
  2  3  1  0  0  0  0
  2 22  1  0  0  0  0
  3  4  1  0  0  0  0
  3 20  1  0  0  0  0
  3 21  1  0  0  0  0
  4  5  2  0  0  0  0
  4 13  1  0  0  0  0
  5  6  1  0  0  0  0
  5 19  1  0  0  0  0
  6  7  2  0  0  0  0
  7  8  1  0  0  0  0
  7 18  1  0  0  0  0
  8  9  2  0  0  0  0
  8 13  1  0  0  0  0
  9 10  1  0  0  0  0
  9 17  1  0  0  0  0
 10 11  2  0  0  0  0
 10 16  1  0  0  0  0
 11 12  1  0  0  0  0
 11 15  1  0  0  0  0
 12 13  2  0  0  0  0
 12 14  1  0  0  0  0
 22 23  1  0  0  0  0
 23 24  1  0  0  0  0
 23 35  1  0  0  0  0
 23 36  1  0  0  0  0
 24 25  2  0  0  0  0
 24 30  1  0  0  0  0
 25 26  1  0  0  0  0
 25 34  1  0  0  0  0
 26 27  2  0  0  0  0
 26 33  1  0  0  0  0
 27 28  1  0  0  0  0
 27 32  1  0  0  0  0
 28 29  1  0  0  0  0
 28 30  2  0  0  0  0
 30 31  1  0  0  0  0
 37 22  1  1  0  0  0
 37 38  1  0  0  0  0
 37 41  1  0  0  0  0
 37 57  1  0  0  0  0
 38 39  1  0  0  0  0
 38 64  1  0  0  0  0
 38 65  1  0  0  0  0
 39 40  1  0  0  0  0
 39 62  1  0  0  0  0
 39 63  1  0  0  0  0
 40 41  1  0  0  0  0
 40 44  1  0  0  0  0
 40 61  1  1  0  0  0
 41 42  1  0  0  0  0
 41 43  1  0  0  0  0
 44 45  1  0  0  0  0
 44 57  1  0  0  0  0
 44 60  1  6  0  0  0
 45 46  1  0  0  0  0
 45 55  1  0  0  0  0
 45 56  1  0  0  0  0
 46 47  1  0  0  0  0
 46 49  1  0  0  0  0
 46 54  1  0  0  0  0
 47 48  1  0  0  0  0
 47 52  1  0  0  0  0
 47 53  1  0  0  0  0
 48 49  1  0  0  0  0
 49 50  1  0  0  0  0
 49 51  1  0  0  0  0
 57 58  1  0  0  0  0
 57 59  1  0  0  0  0
M  CHG  1  44   1
M  END
>  <MODEL>
       1

$$$$
