output/tmp_first_model_8_8.pdb
 OpenBabel07242617113D

 60 64  0  0  1  0  0  0  0  0999 V2000
  -12.2960    4.0620  -21.6830 C   0  0  0  0  0  0  0  0  0  0  0  0
  -12.2490    2.9380  -22.5860 N   0  0  0  0  0  0  0  0  0  0  0  0
  -11.1190    2.6320  -23.2700 C   0  0  0  0  0  0  0  0  0  0  0  0
  -10.0730    3.2600  -23.1860 O   0  0  0  0  0  0  0  0  0  0  0  0
  -11.2700    1.4610  -24.2440 C   0  0  0  0  0  0  0  0  0  0  0  0
  -11.2320    0.1560  -23.6140 N   0  0  0  0  0  0  0  0  0  0  0  0
  -10.0930   -0.7200  -23.8860 C   0  0  0  0  0  0  0  0  0  0  0  0
   -9.7270   -1.6370  -22.6690 C   0  0  2  0  0  0  0  0  0  0  0  0
   -9.0400   -0.7240  -21.6040 C   0  0  0  0  0  0  0  0  0  0  0  0
   -9.4880    0.2870  -21.1130 O   0  0  0  0  0  0  0  0  0  0  0  0
   -7.7940   -1.2350  -21.3080 N   0  0  0  0  0  0  0  0  0  0  0  0
   -7.0530   -0.7110  -20.2210 C   0  0  0  0  0  0  0  0  0  0  0  0
   -7.4550   -0.9460  -18.9310 C   0  0  0  0  0  0  0  0  0  0  0  0
   -6.8050   -0.4790  -17.8400 N   0  0  0  0  0  0  0  0  0  0  0  0
   -5.7370    0.2530  -18.0350 C   0  0  0  0  0  0  0  0  0  0  0  0
   -5.2150    0.5740  -19.3190 C   0  0  0  0  0  0  0  0  0  0  0  0
   -4.0700    1.3920  -19.4820 C   0  0  0  0  0  0  0  0  0  0  0  0
   -3.5980    1.6760  -20.7330 C   0  0  0  0  0  0  0  0  0  0  0  0
   -4.2410    1.1510  -21.8760 C   0  0  0  0  0  0  0  0  0  0  0  0
   -5.3520    0.3550  -21.7470 C   0  0  0  0  0  0  0  0  0  0  0  0
   -5.8750    0.0620  -20.4580 C   0  0  0  0  0  0  0  0  0  0  0  0
   -5.8400   -0.0530  -22.6280 H   0  0  0  0  0  0  0  0  0  0  0  0
   -3.8460    1.3800  -22.8620 H   0  0  0  0  0  0  0  0  0  0  0  0
   -2.7270    2.3120  -20.8590 H   0  0  0  0  0  0  0  0  0  0  0  0
   -3.5890    1.7910  -18.5930 H   0  0  0  0  0  0  0  0  0  0  0  0
   -5.2250    0.6310  -17.1490 H   0  0  0  0  0  0  0  0  0  0  0  0
   -8.3470   -1.5370  -18.7270 H   0  0  0  0  0  0  0  0  0  0  0  0
   -7.6080   -2.5880  -21.7850 C   0  0  0  0  0  0  0  0  0  0  0  0
   -8.5620   -2.6500  -22.9970 C   0  0  2  0  0  0  0  0  0  0  0  0
   -7.7590   -2.3510  -24.2730 C   0  0  0  0  0  0  0  0  0  0  0  0
   -6.8040   -3.3780  -24.4130 O   0  0  0  0  0  0  0  0  0  0  0  0
   -5.9380   -3.1880  -25.5010 C   0  0  0  0  0  0  0  0  0  0  0  0
   -5.4070   -2.2250  -25.4380 H   0  0  0  0  0  0  0  0  0  0  0  0
   -6.4720   -3.2310  -26.4630 H   0  0  0  0  0  0  0  0  0  0  0  0
   -5.2030   -3.9970  -25.4730 H   0  0  0  0  0  0  0  0  0  0  0  0
   -7.2500   -1.3720  -24.1980 H   0  0  0  0  0  0  0  0  0  0  0  0
   -8.4170   -2.3270  -25.1550 H   0  0  0  0  0  0  0  0  0  0  0  0
   -8.9370   -3.6650  -23.1490 H   0  0  0  0  0  0  0  0  0  0  0  0
   -6.5640   -2.7550  -22.0680 H   0  0  0  0  0  0  0  0  0  0  0  0
   -7.8650   -3.3250  -21.0120 H   0  0  0  0  0  0  0  0  0  0  0  0
  -11.0590   -2.2580  -22.2010 C   0  0  0  0  0  0  0  0  0  0  0  0
  -11.2200   -3.5150  -21.5250 C   0  0  0  0  0  0  0  0  0  0  0  0
  -12.8500   -3.7340  -21.2070 C   0  0  0  0  0  0  0  0  0  0  0  0
  -12.5400   -5.1540  -19.1290 Cl  0  0  0  0  0  0  0  0  0  0  0  0
  -12.9120   -3.8120  -20.8610 C   0  0  0  0  0  0  0  0  0  0  0  0
  -13.4850   -2.1910  -21.7720 C   0  0  0  0  0  0  0  0  0  0  0  0
  -12.3080   -1.5910  -22.3790 C   0  0  0  0  0  0  0  0  0  0  0  0
  -12.3960   -0.2970  -23.0490 C   0  0  0  0  0  0  0  0  0  0  0  0
  -13.4310    0.3760  -23.1060 O   0  0  0  0  0  0  0  0  0  0  0  0
  -14.1890   -2.4350  -22.5810 H   0  0  0  0  0  0  0  0  0  0  0  0
  -13.2750   -3.2500  -20.0070 H   0  0  0  0  0  0  0  0  0  0  0  0
  -10.9210   -4.3600  -22.1220 H   0  0  0  0  0  0  0  0  0  0  0  0
   -9.2490   -0.0730  -24.1290 H   0  0  0  0  0  0  0  0  0  0  0  0
  -10.3230   -1.3610  -24.7470 H   0  0  0  0  0  0  0  0  0  0  0  0
  -12.2340    1.5760  -24.7450 H   0  0  0  0  0  0  0  0  0  0  0  0
  -10.4610    1.5290  -24.9720 H   0  0  0  0  0  0  0  0  0  0  0  0
  -13.0500    2.3160  -22.6690 H   0  0  0  0  0  0  0  0  0  0  0  0
  -12.3490    3.7300  -20.6410 H   0  0  0  0  0  0  0  0  0  0  0  0
  -13.1610    4.6930  -21.9050 H   0  0  0  0  0  0  0  0  0  0  0  0
  -11.3810    4.6400  -21.8240 H   0  0  0  0  0  0  0  0  0  0  0  0
  1  2  1  0  0  0  0
  1 58  1  0  0  0  0
  1 59  1  0  0  0  0
  1 60  1  0  0  0  0
  2  3  1  0  0  0  0
  2 57  1  0  0  0  0
  3  4  2  0  0  0  0
  3  5  1  0  0  0  0
  5  6  1  0  0  0  0
  5 55  1  0  0  0  0
  5 56  1  0  0  0  0
  6  7  1  0  0  0  0
  6 48  1  0  0  0  0
  7  8  1  0  0  0  0
  7 53  1  0  0  0  0
  7 54  1  0  0  0  0
  8  9  1  1  0  0  0
  8 29  1  0  0  0  0
  8 41  1  0  0  0  0
  9 10  2  0  0  0  0
  9 11  1  0  0  0  0
 11 12  1  0  0  0  0
 11 28  1  0  0  0  0
 12 13  2  0  0  0  0
 12 21  1  0  0  0  0
 13 14  1  0  0  0  0
 13 27  1  0  0  0  0
 14 15  2  0  0  0  0
 15 16  1  0  0  0  0
 15 26  1  0  0  0  0
 16 17  2  0  0  0  0
 16 21  1  0  0  0  0
 17 18  1  0  0  0  0
 17 25  1  0  0  0  0
 18 19  2  0  0  0  0
 18 24  1  0  0  0  0
 19 20  1  0  0  0  0
 19 23  1  0  0  0  0
 20 21  2  0  0  0  0
 20 22  1  0  0  0  0
 28 29  1  0  0  0  0
 28 39  1  0  0  0  0
 28 40  1  0  0  0  0
 29 30  1  0  0  0  0
 29 38  1  6  0  0  0
 30 31  1  0  0  0  0
 30 36  1  0  0  0  0
 30 37  1  0  0  0  0
 31 32  1  0  0  0  0
 32 33  1  0  0  0  0
 32 34  1  0  0  0  0
 32 35  1  0  0  0  0
 41 42  2  0  0  0  0
 41 47  1  0  0  0  0
 42 43  1  0  0  0  0
 42 52  1  0  0  0  0
 43 44  1  0  0  0  0
 43 45  2  0  0  0  0
 45 46  1  0  0  0  0
 45 51  1  0  0  0  0
 46 47  2  0  0  0  0
 46 50  1  0  0  0  0
 47 48  1  0  0  0  0
 48 49  2  0  0  0  0
M  END
>  <MODEL>
       1

$$$$
