output/tmp_first_model_18_18.pdb
 OpenBabel07242622363D

 56 61  0  0  1  0  0  0  0  0999 V2000
  -10.2310   -2.9310  -22.0420 C   0  0  0  0  0  0  0  0  0  0  0  0
   -9.1840   -1.9800  -22.6410 C   0  0  1  0  0  0  0  0  0  0  0  0
   -8.7130   -0.9580  -21.5820 C   0  0  0  0  0  0  0  0  0  0  0  0
   -7.4020   -1.4200  -21.1900 N   0  0  0  0  0  0  0  0  0  0  0  0
   -6.6170   -0.8190  -20.1750 C   0  0  0  0  0  0  0  0  0  0  0  0
   -6.9420   -1.0260  -18.8600 C   0  0  0  0  0  0  0  0  0  0  0  0
   -6.2520   -0.5260  -17.8060 N   0  0  0  0  0  0  0  0  0  0  0  0
   -5.2070    0.2210  -18.0760 C   0  0  0  0  0  0  0  0  0  0  0  0
   -4.7660    0.5270  -19.3950 C   0  0  0  0  0  0  0  0  0  0  0  0
   -3.6340    1.3550  -19.6200 C   0  0  0  0  0  0  0  0  0  0  0  0
   -3.2390    1.6580  -20.8930 C   0  0  0  0  0  0  0  0  0  0  0  0
   -3.9560    1.1440  -21.9980 C   0  0  0  0  0  0  0  0  0  0  0  0
   -5.0500    0.3380  -21.8100 C   0  0  0  0  0  0  0  0  0  0  0  0
   -5.4840    0.0000  -20.4920 C   0  0  0  0  0  0  0  0  0  0  0  0
   -5.5820   -0.0540  -22.6780 H   0  0  0  0  0  0  0  0  0  0  0  0
   -3.6360    1.3940  -23.0070 H   0  0  0  0  0  0  0  0  0  0  0  0
   -2.3790    2.3000  -21.0650 H   0  0  0  0  0  0  0  0  0  0  0  0
   -3.1020    1.7460  -18.7560 H   0  0  0  0  0  0  0  0  0  0  0  0
   -4.6500    0.6280  -17.2300 H   0  0  0  0  0  0  0  0  0  0  0  0
   -7.7960   -1.6550  -18.6140 H   0  0  0  0  0  0  0  0  0  0  0  0
   -6.8730   -2.3800  -22.0150 C   0  0  0  0  0  0  0  0  0  0  0  0
   -5.7820   -2.8780  -21.8720 O   0  0  0  0  0  0  0  0  0  0  0  0
   -7.8790   -2.6730  -23.1480 C   0  0  1  0  0  0  0  0  0  0  0  0
   -8.0580   -4.1960  -23.3650 C   0  0  0  0  0  0  0  0  0  0  0  0
   -6.8660   -4.8390  -23.9070 N   0  0  0  0  0  0  0  0  0  0  0  0
   -6.4770   -6.1890  -23.4840 C   0  0  0  0  0  0  0  0  0  0  0  0
   -5.3550   -6.1780  -22.5370 C   0  0  0  0  0  0  0  0  0  0  0  0
   -3.8530   -5.9690  -22.9200 C   0  0  0  0  0  0  0  0  0  0  0  0
   -3.9630   -6.0900  -23.0490 C   0  0  0  0  0  0  0  0  0  0  0  0
   -4.7770   -5.8280  -20.4640 N   0  0  0  0  0  0  0  0  0  0  0  0
   -5.7450   -6.1070  -21.2270 N   0  0  0  0  0  0  0  0  0  0  0  0
   -5.1860   -5.7090  -19.5280 H   0  0  0  0  0  0  0  0  0  0  0  0
   -1.5760   -5.4410  -23.1100 H   0  0  0  0  0  0  0  0  0  0  0  0
   -2.9360   -6.1890  -23.6720 H   0  0  0  0  0  0  0  0  0  0  0  0
   -7.3290   -6.6450  -22.9700 H   0  0  0  0  0  0  0  0  0  0  0  0
   -6.2670   -6.7670  -24.3990 H   0  0  0  0  0  0  0  0  0  0  0  0
   -6.1040   -4.2540  -24.8820 C   0  0  0  0  0  0  0  0  0  0  0  0
   -5.1690   -4.8340  -25.4150 O   0  0  0  0  0  0  0  0  0  0  0  0
   -6.5300   -2.8650  -25.2910 C   0  0  0  0  0  0  0  0  0  0  0  0
   -6.0490   -2.3520  -26.4980 C   0  0  0  0  0  0  0  0  0  0  0  0
   -6.3000   -1.0410  -26.8530 C   0  0  0  0  0  0  0  0  0  0  0  0
   -7.0280   -0.2560  -25.9670 C   0  0  0  0  0  0  0  0  0  0  0  0
   -7.2350    1.0360  -26.2800 F   0  0  0  0  0  0  0  0  0  0  0  0
   -7.5390   -0.7440  -24.7790 C   0  0  0  0  0  0  0  0  0  0  0  0
   -7.3350   -2.0880  -24.4480 C   0  0  0  0  0  0  0  0  0  0  0  0
   -8.0930   -0.0640  -24.1400 H   0  0  0  0  0  0  0  0  0  0  0  0
   -5.9310   -0.6020  -27.7740 H   0  0  0  0  0  0  0  0  0  0  0  0
   -5.4700   -3.0000  -27.1470 H   0  0  0  0  0  0  0  0  0  0  0  0
   -8.8920   -4.3430  -24.0630 H   0  0  0  0  0  0  0  0  0  0  0  0
   -8.3360   -4.6710  -22.4200 H   0  0  0  0  0  0  0  0  0  0  0  0
   -9.3790   -0.9460  -20.7240 H   0  0  0  0  0  0  0  0  0  0  0  0
   -8.6740    0.0690  -21.9720 H   0  0  0  0  0  0  0  0  0  0  0  0
   -9.6680   -1.4680  -23.4790 H   0  0  0  0  0  0  0  0  0  0  0  0
  -11.0950   -2.3660  -21.6760 H   0  0  0  0  0  0  0  0  0  0  0  0
   -9.8240   -3.4990  -21.1970 H   0  0  0  0  0  0  0  0  0  0  0  0
  -10.6030   -3.6410  -22.7880 H   0  0  0  0  0  0  0  0  0  0  0  0
  1  2  1  0  0  0  0
  1 54  1  0  0  0  0
  1 55  1  0  0  0  0
  1 56  1  0  0  0  0
  2  3  1  0  0  0  0
  2 23  1  0  0  0  0
  2 53  1  6  0  0  0
  3  4  1  0  0  0  0
  3 51  1  0  0  0  0
  3 52  1  0  0  0  0
  4  5  1  0  0  0  0
  4 21  1  0  0  0  0
  5  6  2  0  0  0  0
  5 14  1  0  0  0  0
  6  7  1  0  0  0  0
  6 20  1  0  0  0  0
  7  8  2  0  0  0  0
  8  9  1  0  0  0  0
  8 19  1  0  0  0  0
  9 10  2  0  0  0  0
  9 14  1  0  0  0  0
 10 11  1  0  0  0  0
 10 18  1  0  0  0  0
 11 12  2  0  0  0  0
 11 17  1  0  0  0  0
 12 13  1  0  0  0  0
 12 16  1  0  0  0  0
 13 14  2  0  0  0  0
 13 15  1  0  0  0  0
 21 22  2  0  0  0  0
 23 21  1  1  0  0  0
 23 24  1  0  0  0  0
 23 45  1  0  0  0  0
 24 25  1  0  0  0  0
 24 49  1  0  0  0  0
 24 50  1  0  0  0  0
 25 26  1  0  0  0  0
 25 37  1  0  0  0  0
 26 27  1  0  0  0  0
 26 35  1  0  0  0  0
 26 36  1  0  0  0  0
 27 28  1  0  0  0  0
 27 31  2  0  0  0  0
 28 29  2  0  0  0  0
 28 34  1  0  0  0  0
 29 30  1  0  0  0  0
 29 33  1  0  0  0  0
 30 31  1  0  0  0  0
 30 32  1  0  0  0  0
 37 38  2  0  0  0  0
 37 39  1  0  0  0  0
 39 40  2  0  0  0  0
 39 45  1  0  0  0  0
 40 41  1  0  0  0  0
 40 48  1  0  0  0  0
 41 42  2  0  0  0  0
 41 47  1  0  0  0  0
 42 43  1  0  0  0  0
 42 44  1  0  0  0  0
 44 45  2  0  0  0  0
 44 46  1  0  0  0  0
M  END
>  <MODEL>
       1

$$$$
