output/tmp_first_model_6_46.pdb
 OpenBabel07242616043D

 50 54  0  0  1  0  0  0  0  0999 V2000
  -10.5120   -2.5290  -22.6470 C   0  0  0  0  0  0  0  0  0  0  0  0
   -9.0960   -1.9650  -22.6600 C   0  0  1  0  0  0  0  0  0  0  0  0
   -8.7500   -1.3830  -21.2840 C   0  0  0  0  0  0  0  0  0  0  0  0
   -7.3020   -1.4190  -21.2640 N   0  0  0  0  0  0  0  0  0  0  0  0
   -6.5650   -0.8360  -20.2120 C   0  0  0  0  0  0  0  0  0  0  0  0
   -6.9190   -1.0680  -18.9100 C   0  0  0  0  0  0  0  0  0  0  0  0
   -6.2560   -0.5760  -17.8360 N   0  0  0  0  0  0  0  0  0  0  0  0
   -5.2150    0.1900  -18.0660 C   0  0  0  0  0  0  0  0  0  0  0  0
   -4.7660    0.5430  -19.3690 C   0  0  0  0  0  0  0  0  0  0  0  0
   -3.6440    1.3910  -19.5780 C   0  0  0  0  0  0  0  0  0  0  0  0
   -3.2860    1.7650  -20.8430 C   0  0  0  0  0  0  0  0  0  0  0  0
   -4.0290    1.3160  -21.9600 C   0  0  0  0  0  0  0  0  0  0  0  0
   -5.0980    0.4730  -21.7880 C   0  0  0  0  0  0  0  0  0  0  0  0
   -5.4710    0.0430  -20.4850 C   0  0  0  0  0  0  0  0  0  0  0  0
   -5.6520    0.1000  -22.6460 H   0  0  0  0  0  0  0  0  0  0  0  0
   -3.7370    1.6210  -22.9600 H   0  0  0  0  0  0  0  0  0  0  0  0
   -2.4330    2.4200  -21.0030 H   0  0  0  0  0  0  0  0  0  0  0  0
   -3.0970    1.7460  -18.7080 H   0  0  0  0  0  0  0  0  0  0  0  0
   -4.6780    0.5830  -17.2010 H   0  0  0  0  0  0  0  0  0  0  0  0
   -7.7680   -1.7110  -18.6760 H   0  0  0  0  0  0  0  0  0  0  0  0
   -6.7800   -2.3600  -22.1380 C   0  0  0  0  0  0  0  0  0  0  0  0
   -5.6180   -2.7140  -22.1650 O   0  0  0  0  0  0  0  0  0  0  0  0
   -7.9150   -2.9480  -22.9960 C   0  0  1  0  0  0  0  0  0  0  0  0
   -8.1370   -4.3840  -22.4440 C   0  0  0  0  0  0  0  0  0  0  0  0
   -8.9410   -5.2140  -23.3070 N   0  0  0  0  0  0  0  0  0  0  0  0
   -9.7380   -6.2730  -22.7390 C   0  0  0  0  0  0  0  0  0  0  0  0
   -9.2880   -7.6030  -23.1810 C   0  0  0  0  0  0  0  0  0  0  0  0
   -8.9860   -8.6510  -23.5580 N   0  0  0  0  0  0  0  0  0  0  0  0
   -9.6520   -6.1960  -21.6530 H   0  0  0  0  0  0  0  0  0  0  0  0
  -10.7840   -6.1430  -23.0370 H   0  0  0  0  0  0  0  0  0  0  0  0
   -8.9190   -5.1350  -24.6680 C   0  0  0  0  0  0  0  0  0  0  0  0
   -9.5970   -5.8760  -25.3590 O   0  0  0  0  0  0  0  0  0  0  0  0
   -8.0220   -4.0970  -25.2490 C   0  0  0  0  0  0  0  0  0  0  0  0
   -7.7380   -4.2040  -26.6090 C   0  0  0  0  0  0  0  0  0  0  0  0
   -6.9710   -3.2550  -27.2460 C   0  0  0  0  0  0  0  0  0  0  0  0
   -6.5000   -2.1970  -26.4790 C   0  0  0  0  0  0  0  0  0  0  0  0
   -5.7660   -1.2580  -27.1000 F   0  0  0  0  0  0  0  0  0  0  0  0
   -6.7570   -2.0630  -25.1260 C   0  0  0  0  0  0  0  0  0  0  0  0
   -7.5460   -3.0310  -24.4750 C   0  0  0  0  0  0  0  0  0  0  0  0
   -6.3060   -1.2140  -24.6140 H   0  0  0  0  0  0  0  0  0  0  0  0
   -6.7540   -3.3250  -28.3070 H   0  0  0  0  0  0  0  0  0  0  0  0
   -8.1350   -5.0560  -27.1490 H   0  0  0  0  0  0  0  0  0  0  0  0
   -7.1550   -4.8360  -22.2580 H   0  0  0  0  0  0  0  0  0  0  0  0
   -8.6490   -4.3170  -21.4790 H   0  0  0  0  0  0  0  0  0  0  0  0
   -9.1820   -1.9980  -20.4790 H   0  0  0  0  0  0  0  0  0  0  0  0
   -9.1300   -0.3640  -21.1490 H   0  0  0  0  0  0  0  0  0  0  0  0
   -9.0190   -1.1500  -23.3920 H   0  0  0  0  0  0  0  0  0  0  0  0
  -10.6270   -3.2470  -21.8260 H   0  0  0  0  0  0  0  0  0  0  0  0
  -11.2440   -1.7300  -22.4810 H   0  0  0  0  0  0  0  0  0  0  0  0
  -10.7590   -3.0450  -23.5760 H   0  0  0  0  0  0  0  0  0  0  0  0
  1  2  1  0  0  0  0
  1 48  1  0  0  0  0
  1 49  1  0  0  0  0
  1 50  1  0  0  0  0
  2  3  1  0  0  0  0
  2 23  1  0  0  0  0
  2 47  1  6  0  0  0
  3  4  1  0  0  0  0
  3 45  1  0  0  0  0
  3 46  1  0  0  0  0
  4  5  1  0  0  0  0
  4 21  1  0  0  0  0
  5  6  2  0  0  0  0
  5 14  1  0  0  0  0
  6  7  1  0  0  0  0
  6 20  1  0  0  0  0
  7  8  2  0  0  0  0
  8  9  1  0  0  0  0
  8 19  1  0  0  0  0
  9 10  2  0  0  0  0
  9 14  1  0  0  0  0
 10 11  1  0  0  0  0
 10 18  1  0  0  0  0
 11 12  2  0  0  0  0
 11 17  1  0  0  0  0
 12 13  1  0  0  0  0
 12 16  1  0  0  0  0
 13 14  2  0  0  0  0
 13 15  1  0  0  0  0
 21 22  2  0  0  0  0
 23 21  1  1  0  0  0
 23 24  1  0  0  0  0
 23 39  1  0  0  0  0
 24 25  1  0  0  0  0
 24 43  1  0  0  0  0
 24 44  1  0  0  0  0
 25 26  1  0  0  0  0
 25 31  1  0  0  0  0
 26 27  1  0  0  0  0
 26 29  1  0  0  0  0
 26 30  1  0  0  0  0
 27 28  3  0  0  0  0
 31 32  2  0  0  0  0
 31 33  1  0  0  0  0
 33 34  2  0  0  0  0
 33 39  1  0  0  0  0
 34 35  1  0  0  0  0
 34 42  1  0  0  0  0
 35 36  2  0  0  0  0
 35 41  1  0  0  0  0
 36 37  1  0  0  0  0
 36 38  1  0  0  0  0
 38 39  2  0  0  0  0
 38 40  1  0  0  0  0
M  END
>  <MODEL>
       1

$$$$
