output/tmp_first_model_9_1.pdb
 OpenBabel07242617433D

 68 73  0  0  1  0  0  0  0  0999 V2000
   -7.3020    3.4630  -21.8820 C   0  0  0  0  0  0  0  0  0  0  0  0
   -8.2930    2.9120  -22.7960 N   0  0  0  0  0  0  0  0  0  0  0  0
   -7.8770    2.2340  -23.9000 C   0  0  0  0  0  0  0  0  0  0  0  0
   -6.6900    2.0610  -24.1500 O   0  0  0  0  0  0  0  0  0  0  0  0
   -8.9950    1.6930  -24.8120 C   0  0  0  0  0  0  0  0  0  0  0  0
   -9.5980    0.5020  -24.2300 N   0  0  0  0  0  0  0  0  0  0  0  0
   -8.7610   -0.6780  -24.0660 C   0  0  0  0  0  0  0  0  0  0  0  0
   -9.1010   -1.4830  -22.7760 C   0  0  2  0  0  0  0  0  0  0  0  0
   -8.6050   -0.6820  -21.5470 C   0  0  0  0  0  0  0  0  0  0  0  0
   -9.1210    0.2980  -21.0500 O   0  0  0  0  0  0  0  0  0  0  0  0
   -7.4400   -1.2530  -21.0920 N   0  0  0  0  0  0  0  0  0  0  0  0
   -6.6390   -0.6880  -20.0860 C   0  0  0  0  0  0  0  0  0  0  0  0
   -6.9140   -0.9620  -18.7740 C   0  0  0  0  0  0  0  0  0  0  0  0
   -6.1690   -0.5100  -17.7420 N   0  0  0  0  0  0  0  0  0  0  0  0
   -5.1310    0.2360  -18.0300 C   0  0  0  0  0  0  0  0  0  0  0  0
   -4.7170    0.5660  -19.3540 C   0  0  0  0  0  0  0  0  0  0  0  0
   -3.5870    1.3840  -19.6200 C   0  0  0  0  0  0  0  0  0  0  0  0
   -3.2230    1.6730  -20.9070 C   0  0  0  0  0  0  0  0  0  0  0  0
   -3.9730    1.1620  -21.9930 C   0  0  0  0  0  0  0  0  0  0  0  0
   -5.0810    0.3820  -21.7630 C   0  0  0  0  0  0  0  0  0  0  0  0
   -5.4850    0.0740  -20.4310 C   0  0  0  0  0  0  0  0  0  0  0  0
   -5.6670    0.0210  -22.6050 H   0  0  0  0  0  0  0  0  0  0  0  0
   -3.6860    1.3980  -23.0140 H   0  0  0  0  0  0  0  0  0  0  0  0
   -2.3670    2.3110  -21.1050 H   0  0  0  0  0  0  0  0  0  0  0  0
   -3.0440    1.7900  -18.7700 H   0  0  0  0  0  0  0  0  0  0  0  0
   -4.5530    0.6190  -17.1900 H   0  0  0  0  0  0  0  0  0  0  0  0
   -7.7700   -1.5880  -18.5250 H   0  0  0  0  0  0  0  0  0  0  0  0
   -6.9900   -2.3970  -21.8250 C   0  0  0  0  0  0  0  0  0  0  0  0
   -8.2250   -2.7770  -22.6370 C   0  0  2  0  0  0  0  0  0  0  0  0
   -7.7890   -3.4760  -23.9060 C   0  0  0  0  0  0  0  0  0  0  0  0
   -8.9320   -4.0240  -24.5780 N   0  0  0  0  0  0  0  0  0  0  0  0
   -8.7970   -4.5770  -25.8350 C   0  0  0  0  0  0  0  0  0  0  0  0
   -7.6250   -4.7050  -26.6230 C   0  0  0  0  0  0  0  0  0  0  0  0
   -7.8940   -5.2770  -27.7920 N   0  0  0  0  0  0  0  0  0  0  0  0
   -9.1980   -5.5530  -27.7530 N   0  0  0  0  0  0  0  0  0  0  0  0
   -9.8950   -6.0010  -28.9230 C   0  0  0  0  0  0  0  0  0  0  0  0
  -10.6330   -5.2520  -29.2100 H   0  0  0  0  0  0  0  0  0  0  0  0
  -10.4160   -6.9420  -28.7460 H   0  0  0  0  0  0  0  0  0  0  0  0
   -9.1530   -6.1130  -29.7060 H   0  0  0  0  0  0  0  0  0  0  0  0
   -9.7890   -5.1510  -26.6040 C   0  0  0  0  0  0  0  0  0  0  0  0
  -10.8340   -5.3500  -26.4300 H   0  0  0  0  0  0  0  0  0  0  0  0
   -6.6070   -4.4210  -26.3620 H   0  0  0  0  0  0  0  0  0  0  0  0
   -9.8450   -3.6410  -24.3670 H   0  0  0  0  0  0  0  0  0  0  0  0
   -7.2090   -2.7670  -24.5260 H   0  0  0  0  0  0  0  0  0  0  0  0
   -7.0830   -4.2890  -23.6810 H   0  0  0  0  0  0  0  0  0  0  0  0
   -8.7970   -3.4990  -22.0500 H   0  0  0  0  0  0  0  0  0  0  0  0
   -6.1260   -2.1520  -22.4640 H   0  0  0  0  0  0  0  0  0  0  0  0
   -6.6660   -3.2010  -21.1520 H   0  0  0  0  0  0  0  0  0  0  0  0
  -10.6150   -1.6760  -22.7140 C   0  0  0  0  0  0  0  0  0  0  0  0
  -11.2010   -2.6730  -21.9150 C   0  0  0  0  0  0  0  0  0  0  0  0
  -12.5790   -2.7400  -21.7730 C   0  0  0  0  0  0  0  0  0  0  0  0
  -13.2780   -3.9230  -20.7010 Cl  0  0  0  0  0  0  0  0  0  0  0  0
  -13.4230   -1.8530  -22.4380 C   0  0  0  0  0  0  0  0  0  0  0  0
  -12.8590   -0.8650  -23.2190 C   0  0  0  0  0  0  0  0  0  0  0  0
  -11.4740   -0.7500  -23.3350 C   0  0  0  0  0  0  0  0  0  0  0  0
  -10.9570    0.4370  -24.0940 C   0  0  0  0  0  0  0  0  0  0  0  0
  -11.7090    1.2980  -24.5350 O   0  0  0  0  0  0  0  0  0  0  0  0
  -13.4800   -0.1430  -23.7400 H   0  0  0  0  0  0  0  0  0  0  0  0
  -14.4980   -1.9300  -22.3250 H   0  0  0  0  0  0  0  0  0  0  0  0
  -10.6050   -3.3870  -21.3570 H   0  0  0  0  0  0  0  0  0  0  0  0
   -7.7250   -0.3360  -24.0050 H   0  0  0  0  0  0  0  0  0  0  0  0
   -8.8630   -1.3170  -24.9550 H   0  0  0  0  0  0  0  0  0  0  0  0
   -9.8050    2.4180  -24.9500 H   0  0  0  0  0  0  0  0  0  0  0  0
   -8.5740    1.4890  -25.8060 H   0  0  0  0  0  0  0  0  0  0  0  0
   -9.2370    2.7720  -22.4570 H   0  0  0  0  0  0  0  0  0  0  0  0
   -6.6460    4.1520  -22.4210 H   0  0  0  0  0  0  0  0  0  0  0  0
   -7.7990    4.0170  -21.0800 H   0  0  0  0  0  0  0  0  0  0  0  0
   -6.6670    2.6740  -21.4570 H   0  0  0  0  0  0  0  0  0  0  0  0
  1  2  1  0  0  0  0
  1 66  1  0  0  0  0
  1 67  1  0  0  0  0
  1 68  1  0  0  0  0
  2  3  1  0  0  0  0
  2 65  1  0  0  0  0
  3  4  2  0  0  0  0
  3  5  1  0  0  0  0
  5  6  1  0  0  0  0
  5 63  1  0  0  0  0
  5 64  1  0  0  0  0
  6  7  1  0  0  0  0
  6 56  1  0  0  0  0
  7  8  1  0  0  0  0
  7 61  1  0  0  0  0
  7 62  1  0  0  0  0
  8  9  1  1  0  0  0
  8 29  1  0  0  0  0
  8 49  1  0  0  0  0
  9 10  2  0  0  0  0
  9 11  1  0  0  0  0
 11 12  1  0  0  0  0
 11 28  1  0  0  0  0
 12 13  2  0  0  0  0
 12 21  1  0  0  0  0
 13 14  1  0  0  0  0
 13 27  1  0  0  0  0
 14 15  2  0  0  0  0
 15 16  1  0  0  0  0
 15 26  1  0  0  0  0
 16 17  2  0  0  0  0
 16 21  1  0  0  0  0
 17 18  1  0  0  0  0
 17 25  1  0  0  0  0
 18 19  2  0  0  0  0
 18 24  1  0  0  0  0
 19 20  1  0  0  0  0
 19 23  1  0  0  0  0
 20 21  2  0  0  0  0
 20 22  1  0  0  0  0
 28 29  1  0  0  0  0
 28 47  1  0  0  0  0
 28 48  1  0  0  0  0
 29 30  1  0  0  0  0
 29 46  1  1  0  0  0
 30 31  1  0  0  0  0
 30 44  1  0  0  0  0
 30 45  1  0  0  0  0
 31 32  1  0  0  0  0
 31 43  1  0  0  0  0
 32 33  1  0  0  0  0
 32 40  2  0  0  0  0
 33 34  2  0  0  0  0
 33 42  1  0  0  0  0
 34 35  1  0  0  0  0
 35 36  1  0  0  0  0
 35 40  1  0  0  0  0
 36 37  1  0  0  0  0
 36 38  1  0  0  0  0
 36 39  1  0  0  0  0
 40 41  1  0  0  0  0
 49 50  2  0  0  0  0
 49 55  1  0  0  0  0
 50 51  1  0  0  0  0
 50 60  1  0  0  0  0
 51 52  1  0  0  0  0
 51 53  2  0  0  0  0
 53 54  1  0  0  0  0
 53 59  1  0  0  0  0
 54 55  2  0  0  0  0
 54 58  1  0  0  0  0
 55 56  1  0  0  0  0
 56 57  2  0  0  0  0
M  END
>  <MODEL>
       1

$$$$
