output/tmp_first_model_17_88.pdb
 OpenBabel07242622053D

 40 42  0  0  0  0  0  0  0  0999 V2000
   -8.4060    0.7630  -21.4430 O   0  0  0  0  0  0  0  0  0  0  0  0
   -8.4790   -0.3960  -21.8090 C   0  0  0  0  0  0  0  0  0  0  0  0
   -7.4610   -1.4310  -21.2890 C   0  0  0  0  0  0  0  0  0  0  0  0
   -6.5930   -0.8480  -20.2000 C   0  0  0  0  0  0  0  0  0  0  0  0
   -6.8990   -1.0590  -18.8820 C   0  0  0  0  0  0  0  0  0  0  0  0
   -6.2220   -0.5530  -17.8200 N   0  0  0  0  0  0  0  0  0  0  0  0
   -5.1870    0.2070  -18.0830 C   0  0  0  0  0  0  0  0  0  0  0  0
   -4.7560    0.5290  -19.3950 C   0  0  0  0  0  0  0  0  0  0  0  0
   -3.6300    1.3580  -19.6250 C   0  0  0  0  0  0  0  0  0  0  0  0
   -3.2430    1.6590  -20.9030 C   0  0  0  0  0  0  0  0  0  0  0  0
   -3.9670    1.1420  -21.9980 C   0  0  0  0  0  0  0  0  0  0  0  0
   -5.0600    0.3370  -21.8020 C   0  0  0  0  0  0  0  0  0  0  0  0
   -5.4810   -0.0010  -20.4890 C   0  0  0  0  0  0  0  0  0  0  0  0
   -5.6170   -0.0350  -22.6550 H   0  0  0  0  0  0  0  0  0  0  0  0
   -3.6440    1.3830  -23.0050 H   0  0  0  0  0  0  0  0  0  0  0  0
   -2.3800    2.2920  -21.0820 H   0  0  0  0  0  0  0  0  0  0  0  0
   -3.0890    1.7500  -18.7710 H   0  0  0  0  0  0  0  0  0  0  0  0
   -4.6370    0.6130  -17.2350 H   0  0  0  0  0  0  0  0  0  0  0  0
   -7.7530   -1.6830  -18.6160 H   0  0  0  0  0  0  0  0  0  0  0  0
   -8.0200   -2.2900  -20.8850 H   0  0  0  0  0  0  0  0  0  0  0  0
   -6.8520   -1.8030  -22.1230 H   0  0  0  0  0  0  0  0  0  0  0  0
   -9.4920   -0.8050  -22.6600 N   0  0  0  0  0  0  0  0  0  0  0  0
   -9.7960   -2.2260  -22.8880 C   0  0  0  0  0  0  0  0  0  0  0  0
  -10.6730   -2.3600  -24.1340 C   0  0  0  0  0  0  0  0  0  0  0  0
  -11.9750   -1.5680  -23.9700 C   0  0  0  0  0  0  0  0  0  0  0  0
  -12.9180   -1.7030  -25.1600 C   0  0  0  0  0  0  0  0  0  0  0  0
  -12.4270   -1.0040  -26.2290 F   0  0  0  0  0  0  0  0  0  0  0  0
  -14.1280   -1.1420  -24.8570 F   0  0  0  0  0  0  0  0  0  0  0  0
  -13.0910   -2.7440  -25.4860 H   0  0  0  0  0  0  0  0  0  0  0  0
  -11.6330   -0.0960  -23.7350 C   0  0  0  0  0  0  0  0  0  0  0  0
  -10.6860    0.0490  -22.5620 C   0  0  0  0  0  0  0  0  0  0  0  0
  -11.2230   -0.2290  -21.6470 H   0  0  0  0  0  0  0  0  0  0  0  0
  -10.3530    1.0830  -22.4430 H   0  0  0  0  0  0  0  0  0  0  0  0
  -12.5550    0.4530  -23.5170 H   0  0  0  0  0  0  0  0  0  0  0  0
  -11.2140    0.3280  -24.6550 H   0  0  0  0  0  0  0  0  0  0  0  0
  -12.5210   -1.9520  -23.0910 H   0  0  0  0  0  0  0  0  0  0  0  0
  -10.8740   -3.4180  -24.3400 H   0  0  0  0  0  0  0  0  0  0  0  0
  -10.1140   -1.9930  -25.0000 H   0  0  0  0  0  0  0  0  0  0  0  0
   -8.8730   -2.8050  -23.0290 H   0  0  0  0  0  0  0  0  0  0  0  0
  -10.3140   -2.6800  -22.0190 H   0  0  0  0  0  0  0  0  0  0  0  0
  1  2  2  0  0  0  0
  2  3  1  0  0  0  0
  2 22  1  0  0  0  0
  3  4  1  0  0  0  0
  3 20  1  0  0  0  0
  3 21  1  0  0  0  0
  4  5  2  0  0  0  0
  4 13  1  0  0  0  0
  5  6  1  0  0  0  0
  5 19  1  0  0  0  0
  6  7  2  0  0  0  0
  7  8  1  0  0  0  0
  7 18  1  0  0  0  0
  8  9  2  0  0  0  0
  8 13  1  0  0  0  0
  9 10  1  0  0  0  0
  9 17  1  0  0  0  0
 10 11  2  0  0  0  0
 10 16  1  0  0  0  0
 11 12  1  0  0  0  0
 11 15  1  0  0  0  0
 12 13  2  0  0  0  0
 12 14  1  0  0  0  0
 22 23  1  0  0  0  0
 22 31  1  0  0  0  0
 23 24  1  0  0  0  0
 23 39  1  0  0  0  0
 23 40  1  0  0  0  0
 24 25  1  0  0  0  0
 24 37  1  0  0  0  0
 24 38  1  0  0  0  0
 25 26  1  0  0  0  0
 25 30  1  0  0  0  0
 25 36  1  0  0  0  0
 26 27  1  0  0  0  0
 26 28  1  0  0  0  0
 26 29  1  0  0  0  0
 30 31  1  0  0  0  0
 30 34  1  0  0  0  0
 30 35  1  0  0  0  0
 31 32  1  0  0  0  0
 31 33  1  0  0  0  0
M  END
>  <MODEL>
       1

$$$$
