output/tmp_first_model_4_71.pdb
 OpenBabel07242615033D

 50 54  0  0  1  0  0  0  0  0999 V2000
  -10.2060   -2.9560  -22.0730 C   0  0  0  0  0  0  0  0  0  0  0  0
   -9.1550   -1.9970  -22.6490 C   0  0  1  0  0  0  0  0  0  0  0  0
   -8.6570   -1.0210  -21.5580 C   0  0  0  0  0  0  0  0  0  0  0  0
   -7.3320   -1.4910  -21.2370 N   0  0  0  0  0  0  0  0  0  0  0  0
   -6.4990   -0.9970  -20.2080 C   0  0  0  0  0  0  0  0  0  0  0  0
   -6.7560   -1.2880  -18.8950 C   0  0  0  0  0  0  0  0  0  0  0  0
   -5.8930   -1.0270  -17.8850 N   0  0  0  0  0  0  0  0  0  0  0  0
   -4.7690   -0.4240  -18.1850 C   0  0  0  0  0  0  0  0  0  0  0  0
   -4.4300    0.0110  -19.4940 C   0  0  0  0  0  0  0  0  0  0  0  0
   -3.2510    0.7590  -19.7510 C   0  0  0  0  0  0  0  0  0  0  0  0
   -3.0200    1.2930  -20.9890 C   0  0  0  0  0  0  0  0  0  0  0  0
   -3.9270    1.0430  -22.0480 C   0  0  0  0  0  0  0  0  0  0  0  0
   -5.0370    0.2600  -21.8480 C   0  0  0  0  0  0  0  0  0  0  0  0
   -5.3290   -0.2490  -20.5440 C   0  0  0  0  0  0  0  0  0  0  0  0
   -5.6960    0.0120  -22.6820 H   0  0  0  0  0  0  0  0  0  0  0  0
   -3.7390    1.4800  -23.0240 H   0  0  0  0  0  0  0  0  0  0  0  0
   -2.1670    1.9370  -21.1570 H   0  0  0  0  0  0  0  0  0  0  0  0
   -2.5820    0.9590  -18.9150 H   0  0  0  0  0  0  0  0  0  0  0  0
   -4.0690   -0.2360  -17.3720 H   0  0  0  0  0  0  0  0  0  0  0  0
   -7.6780   -1.7990  -18.6210 H   0  0  0  0  0  0  0  0  0  0  0  0
   -6.8470   -2.4620  -22.0750 C   0  0  0  0  0  0  0  0  0  0  0  0
   -5.7750   -3.0180  -21.9230 O   0  0  0  0  0  0  0  0  0  0  0  0
   -7.8690   -2.6850  -23.2000 C   0  0  1  0  0  0  0  0  0  0  0  0
   -8.0190   -4.2050  -23.4290 C   0  0  0  0  0  0  0  0  0  0  0  0
   -6.8110   -4.7540  -24.0150 N   0  0  0  0  0  0  0  0  0  0  0  0
   -6.2810   -6.0170  -23.5320 C   0  0  0  0  0  0  0  0  0  0  0  0
   -6.6910   -7.4530  -24.1220 C   0  0  0  0  0  0  0  0  0  0  0  0
   -6.6580   -7.3570  -24.2000 N   0  0  0  0  0  0  0  0  0  0  0  0
   -6.5540   -6.1660  -22.4900 H   0  0  0  0  0  0  0  0  0  0  0  0
   -5.2000   -5.9820  -23.5920 H   0  0  0  0  0  0  0  0  0  0  0  0
   -6.2320   -4.1960  -25.1330 C   0  0  0  0  0  0  0  0  0  0  0  0
   -5.4480   -4.8310  -25.8240 O   0  0  0  0  0  0  0  0  0  0  0  0
   -6.6080   -2.7750  -25.4120 C   0  0  0  0  0  0  0  0  0  0  0  0
   -6.1340   -2.1980  -26.5900 C   0  0  0  0  0  0  0  0  0  0  0  0
   -6.3750   -0.8680  -26.8670 C   0  0  0  0  0  0  0  0  0  0  0  0
   -7.0750   -0.1230  -25.9240 C   0  0  0  0  0  0  0  0  0  0  0  0
   -7.3010    1.1810  -26.1800 F   0  0  0  0  0  0  0  0  0  0  0  0
   -7.5470   -0.6700  -24.7440 C   0  0  0  0  0  0  0  0  0  0  0  0
   -7.3490   -2.0350  -24.4840 C   0  0  0  0  0  0  0  0  0  0  0  0
   -8.0820   -0.0160  -24.0620 H   0  0  0  0  0  0  0  0  0  0  0  0
   -6.0350   -0.4020  -27.7840 H   0  0  0  0  0  0  0  0  0  0  0  0
   -5.5810   -2.8250  -27.2800 H   0  0  0  0  0  0  0  0  0  0  0  0
   -8.8980   -4.3800  -24.0730 H   0  0  0  0  0  0  0  0  0  0  0  0
   -8.1790   -4.7100  -22.4680 H   0  0  0  0  0  0  0  0  0  0  0  0
   -9.2910   -1.0610  -20.6760 H   0  0  0  0  0  0  0  0  0  0  0  0
   -8.6460    0.0230  -21.9000 H   0  0  0  0  0  0  0  0  0  0  0  0
   -9.6430   -1.4490  -23.4630 H   0  0  0  0  0  0  0  0  0  0  0  0
  -10.5760   -3.6450  -22.8370 H   0  0  0  0  0  0  0  0  0  0  0  0
   -9.7990   -3.5470  -21.2460 H   0  0  0  0  0  0  0  0  0  0  0  0
  -11.0650   -2.3940  -21.6940 H   0  0  0  0  0  0  0  0  0  0  0  0
  1  2  1  0  0  0  0
  1 48  1  0  0  0  0
  1 49  1  0  0  0  0
  1 50  1  0  0  0  0
  2  3  1  0  0  0  0
  2 23  1  0  0  0  0
  2 47  1  6  0  0  0
  3  4  1  0  0  0  0
  3 45  1  0  0  0  0
  3 46  1  0  0  0  0
  4  5  1  0  0  0  0
  4 21  1  0  0  0  0
  5  6  2  0  0  0  0
  5 14  1  0  0  0  0
  6  7  1  0  0  0  0
  6 20  1  0  0  0  0
  7  8  2  0  0  0  0
  8  9  1  0  0  0  0
  8 19  1  0  0  0  0
  9 10  2  0  0  0  0
  9 14  1  0  0  0  0
 10 11  1  0  0  0  0
 10 18  1  0  0  0  0
 11 12  2  0  0  0  0
 11 17  1  0  0  0  0
 12 13  1  0  0  0  0
 12 16  1  0  0  0  0
 13 14  2  0  0  0  0
 13 15  1  0  0  0  0
 21 22  2  0  0  0  0
 23 21  1  1  0  0  0
 23 24  1  0  0  0  0
 23 39  1  0  0  0  0
 24 25  1  0  0  0  0
 24 43  1  0  0  0  0
 24 44  1  0  0  0  0
 25 26  1  0  0  0  0
 25 31  1  0  0  0  0
 26 27  1  0  0  0  0
 26 29  1  0  0  0  0
 26 30  1  0  0  0  0
 27 28  3  0  0  0  0
 31 32  2  0  0  0  0
 31 33  1  0  0  0  0
 33 34  2  0  0  0  0
 33 39  1  0  0  0  0
 34 35  1  0  0  0  0
 34 42  1  0  0  0  0
 35 36  2  0  0  0  0
 35 41  1  0  0  0  0
 36 37  1  0  0  0  0
 36 38  1  0  0  0  0
 38 39  2  0  0  0  0
 38 40  1  0  0  0  0
M  END
>  <MODEL>
       1

$$$$
