output/tmp_first_model_17_64.pdb
 OpenBabel07242622053D

 55 60  0  0  1  0  0  0  0  0999 V2000
  -10.3560   -0.9870  -23.3800 C   0  0  0  0  0  0  0  0  0  0  0  0
   -8.9320   -1.4120  -23.0180 C   0  0  1  0  0  0  0  0  0  0  0  0
   -8.3420   -0.5230  -21.9110 C   0  0  0  0  0  0  0  0  0  0  0  0
   -7.3570   -1.3790  -21.2770 N   0  0  0  0  0  0  0  0  0  0  0  0
   -6.5620   -0.8980  -20.2090 C   0  0  0  0  0  0  0  0  0  0  0  0
   -6.8770   -1.1660  -18.9010 C   0  0  0  0  0  0  0  0  0  0  0  0
   -6.2280   -0.6170  -17.8450 N   0  0  0  0  0  0  0  0  0  0  0  0
   -5.2290    0.1930  -18.0900 C   0  0  0  0  0  0  0  0  0  0  0  0
   -4.7730    0.5270  -19.3990 C   0  0  0  0  0  0  0  0  0  0  0  0
   -3.6610    1.3800  -19.6320 C   0  0  0  0  0  0  0  0  0  0  0  0
   -3.2700    1.6680  -20.9110 C   0  0  0  0  0  0  0  0  0  0  0  0
   -3.9650    1.1220  -22.0140 C   0  0  0  0  0  0  0  0  0  0  0  0
   -5.0360    0.2870  -21.8120 C   0  0  0  0  0  0  0  0  0  0  0  0
   -5.4650   -0.0260  -20.4960 C   0  0  0  0  0  0  0  0  0  0  0  0
   -5.5610   -0.1550  -22.6510 H   0  0  0  0  0  0  0  0  0  0  0  0
   -3.6360    1.3520  -23.0230 H   0  0  0  0  0  0  0  0  0  0  0  0
   -2.4100    2.3070  -21.0910 H   0  0  0  0  0  0  0  0  0  0  0  0
   -3.1270    1.7880  -18.7770 H   0  0  0  0  0  0  0  0  0  0  0  0
   -4.7210    0.6230  -17.2260 H   0  0  0  0  0  0  0  0  0  0  0  0
   -7.6980   -1.8400  -18.6610 H   0  0  0  0  0  0  0  0  0  0  0  0
   -7.6240   -2.7210  -21.4480 C   0  0  0  0  0  0  0  0  0  0  0  0
   -7.0390   -3.6100  -20.8590 O   0  0  0  0  0  0  0  0  0  0  0  0
   -8.7590   -2.8810  -22.4790 C   0  0  1  0  0  0  0  0  0  0  0  0
  -10.0100   -3.3520  -21.6980 C   0  0  0  0  0  0  0  0  0  0  0  0
  -11.0950   -3.7840  -22.5760 N   0  0  0  0  0  0  0  0  0  0  0  0
  -12.4770   -3.5720  -22.1980 C   0  0  0  0  0  0  0  0  0  0  0  0
  -13.2100   -2.4570  -22.8800 C   0  0  0  0  0  0  0  0  0  0  0  0
  -13.7170   -2.5090  -24.1480 N   0  0  0  0  0  0  0  0  0  0  0  0
  -14.4410   -1.4120  -24.2120 C   0  0  0  0  0  0  0  0  0  0  0  0
  -14.3570   -0.7340  -23.0560 N   0  0  0  0  0  0  0  0  0  0  0  0
  -13.5530   -1.3850  -22.2000 N   0  0  0  0  0  0  0  0  0  0  0  0
  -14.9150    0.0180  -22.6980 H   0  0  0  0  0  0  0  0  0  0  0  0
  -15.0250   -1.0510  -25.0440 H   0  0  0  0  0  0  0  0  0  0  0  0
  -12.5410   -3.3930  -21.1270 H   0  0  0  0  0  0  0  0  0  0  0  0
  -13.0240   -4.4790  -22.4490 H   0  0  0  0  0  0  0  0  0  0  0  0
  -10.8550   -4.6390  -23.6230 C   0  0  0  0  0  0  0  0  0  0  0  0
  -11.7400   -5.2420  -24.2100 O   0  0  0  0  0  0  0  0  0  0  0  0
   -9.4250   -4.7700  -24.0410 C   0  0  0  0  0  0  0  0  0  0  0  0
   -9.1320   -5.7560  -24.9850 C   0  0  0  0  0  0  0  0  0  0  0  0
   -7.8500   -5.9240  -25.4670 C   0  0  0  0  0  0  0  0  0  0  0  0
   -6.8680   -5.0700  -24.9820 C   0  0  0  0  0  0  0  0  0  0  0  0
   -5.6200   -5.1980  -25.4600 F   0  0  0  0  0  0  0  0  0  0  0  0
   -7.1220   -4.0990  -24.0290 C   0  0  0  0  0  0  0  0  0  0  0  0
   -8.4250   -3.9290  -23.5340 C   0  0  0  0  0  0  0  0  0  0  0  0
   -6.2900   -3.5140  -23.6550 H   0  0  0  0  0  0  0  0  0  0  0  0
   -7.5890   -6.7000  -26.1810 H   0  0  0  0  0  0  0  0  0  0  0  0
   -9.9350   -6.4010  -25.3280 H   0  0  0  0  0  0  0  0  0  0  0  0
   -9.7090   -4.1770  -21.0430 H   0  0  0  0  0  0  0  0  0  0  0  0
  -10.3500   -2.5140  -21.0760 H   0  0  0  0  0  0  0  0  0  0  0  0
   -7.8710    0.3860  -22.3010 H   0  0  0  0  0  0  0  0  0  0  0  0
   -9.1130   -0.2110  -21.1820 H   0  0  0  0  0  0  0  0  0  0  0  0
   -8.2840   -1.3440  -23.9040 H   0  0  0  0  0  0  0  0  0  0  0  0
  -10.9880   -0.9000  -22.4890 H   0  0  0  0  0  0  0  0  0  0  0  0
  -10.3570   -0.0130  -23.8760 H   0  0  0  0  0  0  0  0  0  0  0  0
  -10.8390   -1.7140  -24.0380 H   0  0  0  0  0  0  0  0  0  0  0  0
  1  2  1  0  0  0  0
  1 53  1  0  0  0  0
  1 54  1  0  0  0  0
  1 55  1  0  0  0  0
  2  3  1  0  0  0  0
  2 23  1  0  0  0  0
  2 52  1  6  0  0  0
  3  4  1  0  0  0  0
  3 50  1  0  0  0  0
  3 51  1  0  0  0  0
  4  5  1  0  0  0  0
  4 21  1  0  0  0  0
  5  6  2  0  0  0  0
  5 14  1  0  0  0  0
  6  7  1  0  0  0  0
  6 20  1  0  0  0  0
  7  8  2  0  0  0  0
  8  9  1  0  0  0  0
  8 19  1  0  0  0  0
  9 10  2  0  0  0  0
  9 14  1  0  0  0  0
 10 11  1  0  0  0  0
 10 18  1  0  0  0  0
 11 12  2  0  0  0  0
 11 17  1  0  0  0  0
 12 13  1  0  0  0  0
 12 16  1  0  0  0  0
 13 14  2  0  0  0  0
 13 15  1  0  0  0  0
 21 22  2  0  0  0  0
 23 21  1  1  0  0  0
 23 24  1  0  0  0  0
 23 44  1  0  0  0  0
 24 25  1  0  0  0  0
 24 48  1  0  0  0  0
 24 49  1  0  0  0  0
 25 26  1  0  0  0  0
 25 36  1  0  0  0  0
 26 27  1  0  0  0  0
 26 34  1  0  0  0  0
 26 35  1  0  0  0  0
 27 28  1  0  0  0  0
 27 31  2  0  0  0  0
 28 29  2  0  0  0  0
 29 30  1  0  0  0  0
 29 33  1  0  0  0  0
 30 31  1  0  0  0  0
 30 32  1  0  0  0  0
 36 37  2  0  0  0  0
 36 38  1  0  0  0  0
 38 39  2  0  0  0  0
 38 44  1  0  0  0  0
 39 40  1  0  0  0  0
 39 47  1  0  0  0  0
 40 41  2  0  0  0  0
 40 46  1  0  0  0  0
 41 42  1  0  0  0  0
 41 43  1  0  0  0  0
 43 44  2  0  0  0  0
 43 45  1  0  0  0  0
M  END
>  <MODEL>
       1

$$$$
