output/tmp_first_model_17_4.pdb
 OpenBabel07242622053D

 59 64  0  0  1  0  0  0  0  0999 V2000
  -10.1620   -2.9910  -22.0630 C   0  0  0  0  0  0  0  0  0  0  0  0
   -9.1160   -2.0400  -22.6540 C   0  0  1  0  0  0  0  0  0  0  0  0
   -8.6440   -1.0180  -21.6020 C   0  0  0  0  0  0  0  0  0  0  0  0
   -7.3410   -1.4900  -21.2090 N   0  0  0  0  0  0  0  0  0  0  0  0
   -6.5720   -0.8780  -20.2030 C   0  0  0  0  0  0  0  0  0  0  0  0
   -6.9340   -1.0550  -18.8950 C   0  0  0  0  0  0  0  0  0  0  0  0
   -6.2610   -0.5340  -17.8460 N   0  0  0  0  0  0  0  0  0  0  0  0
   -5.2120    0.2010  -18.1160 C   0  0  0  0  0  0  0  0  0  0  0  0
   -4.7600    0.4990  -19.4320 C   0  0  0  0  0  0  0  0  0  0  0  0
   -3.6410    1.3400  -19.6480 C   0  0  0  0  0  0  0  0  0  0  0  0
   -3.2650    1.6730  -20.9170 C   0  0  0  0  0  0  0  0  0  0  0  0
   -3.9820    1.1680  -22.0290 C   0  0  0  0  0  0  0  0  0  0  0  0
   -5.0530    0.3260  -21.8540 C   0  0  0  0  0  0  0  0  0  0  0  0
   -5.4640   -0.0360  -20.5330 C   0  0  0  0  0  0  0  0  0  0  0  0
   -5.5910   -0.0610  -22.7240 H   0  0  0  0  0  0  0  0  0  0  0  0
   -3.6660    1.4500  -23.0290 H   0  0  0  0  0  0  0  0  0  0  0  0
   -2.4130    2.3280  -21.0810 H   0  0  0  0  0  0  0  0  0  0  0  0
   -3.1170    1.7240  -18.7770 H   0  0  0  0  0  0  0  0  0  0  0  0
   -4.6620    0.6090  -17.2680 H   0  0  0  0  0  0  0  0  0  0  0  0
   -7.8020   -1.6680  -18.6560 H   0  0  0  0  0  0  0  0  0  0  0  0
   -6.8310   -2.4880  -21.9910 C   0  0  0  0  0  0  0  0  0  0  0  0
   -5.7910   -3.0710  -21.7520 O   0  0  0  0  0  0  0  0  0  0  0  0
   -7.8030   -2.7070  -23.1680 C   0  0  1  0  0  0  0  0  0  0  0  0
   -7.9160   -4.2180  -23.4200 C   0  0  0  0  0  0  0  0  0  0  0  0
   -6.6800   -4.7220  -24.0030 N   0  0  0  0  0  0  0  0  0  0  0  0
   -6.0990   -5.9270  -23.4470 C   0  0  0  0  0  0  0  0  0  0  0  0
   -7.0570   -7.0640  -23.6050 C   0  0  0  0  0  0  0  0  0  0  0  0
   -7.5740   -7.7270  -22.6000 N   0  0  0  0  0  0  0  0  0  0  0  0
   -8.6100   -8.4370  -23.1530 C   0  0  0  0  0  0  0  0  0  0  0  0
   -8.7200   -8.1960  -24.4880 C   0  0  0  0  0  0  0  0  0  0  0  0
   -7.6700   -7.3580  -24.7930 N   0  0  0  0  0  0  0  0  0  0  0  0
   -7.2690   -6.9970  -26.1430 C   0  0  0  0  0  0  0  0  0  0  0  0
   -7.8760   -7.5840  -26.8310 H   0  0  0  0  0  0  0  0  0  0  0  0
   -7.4530   -5.9370  -26.3380 H   0  0  0  0  0  0  0  0  0  0  0  0
   -6.2180   -7.2320  -26.3440 H   0  0  0  0  0  0  0  0  0  0  0  0
   -9.4030   -8.5630  -25.2440 H   0  0  0  0  0  0  0  0  0  0  0  0
   -9.3070   -8.9690  -22.5340 H   0  0  0  0  0  0  0  0  0  0  0  0
   -5.1760   -6.1150  -24.0050 H   0  0  0  0  0  0  0  0  0  0  0  0
   -5.9030   -5.7760  -22.3730 H   0  0  0  0  0  0  0  0  0  0  0  0
   -6.0810   -4.1430  -25.0750 C   0  0  0  0  0  0  0  0  0  0  0  0
   -5.2250   -4.7060  -25.7490 O   0  0  0  0  0  0  0  0  0  0  0  0
   -6.5270   -2.7570  -25.3730 C   0  0  0  0  0  0  0  0  0  0  0  0
   -6.1130   -2.2050  -26.5830 C   0  0  0  0  0  0  0  0  0  0  0  0
   -6.3850   -0.8830  -26.8690 C   0  0  0  0  0  0  0  0  0  0  0  0
   -7.0800   -0.1430  -25.9180 C   0  0  0  0  0  0  0  0  0  0  0  0
   -7.3500    1.1510  -26.1740 F   0  0  0  0  0  0  0  0  0  0  0  0
   -7.5300   -0.6860  -24.7270 C   0  0  0  0  0  0  0  0  0  0  0  0
   -7.2860   -2.0380  -24.4440 C   0  0  0  0  0  0  0  0  0  0  0  0
   -8.0920   -0.0460  -24.0560 H   0  0  0  0  0  0  0  0  0  0  0  0
   -6.0620   -0.4150  -27.7920 H   0  0  0  0  0  0  0  0  0  0  0  0
   -5.5670   -2.8380  -27.2760 H   0  0  0  0  0  0  0  0  0  0  0  0
   -8.7770   -4.4250  -24.0720 H   0  0  0  0  0  0  0  0  0  0  0  0
   -8.0690   -4.7410  -22.4740 H   0  0  0  0  0  0  0  0  0  0  0  0
   -9.3100   -0.9850  -20.7420 H   0  0  0  0  0  0  0  0  0  0  0  0
   -8.5910    0.0060  -21.9940 H   0  0  0  0  0  0  0  0  0  0  0  0
   -9.6010   -1.5280  -23.4900 H   0  0  0  0  0  0  0  0  0  0  0  0
   -9.7670   -3.5790  -21.2280 H   0  0  0  0  0  0  0  0  0  0  0  0
  -10.5310   -3.6890  -22.8180 H   0  0  0  0  0  0  0  0  0  0  0  0
  -11.0240   -2.4240  -21.6950 H   0  0  0  0  0  0  0  0  0  0  0  0
  1  2  1  0  0  0  0
  1 57  1  0  0  0  0
  1 58  1  0  0  0  0
  1 59  1  0  0  0  0
  2  3  1  0  0  0  0
  2 23  1  0  0  0  0
  2 56  1  6  0  0  0
  3  4  1  0  0  0  0
  3 54  1  0  0  0  0
  3 55  1  0  0  0  0
  4  5  1  0  0  0  0
  4 21  1  0  0  0  0
  5  6  2  0  0  0  0
  5 14  1  0  0  0  0
  6  7  1  0  0  0  0
  6 20  1  0  0  0  0
  7  8  2  0  0  0  0
  8  9  1  0  0  0  0
  8 19  1  0  0  0  0
  9 10  2  0  0  0  0
  9 14  1  0  0  0  0
 10 11  1  0  0  0  0
 10 18  1  0  0  0  0
 11 12  2  0  0  0  0
 11 17  1  0  0  0  0
 12 13  1  0  0  0  0
 12 16  1  0  0  0  0
 13 14  2  0  0  0  0
 13 15  1  0  0  0  0
 21 22  2  0  0  0  0
 23 21  1  1  0  0  0
 23 24  1  0  0  0  0
 23 48  1  0  0  0  0
 24 25  1  0  0  0  0
 24 52  1  0  0  0  0
 24 53  1  0  0  0  0
 25 26  1  0  0  0  0
 25 40  1  0  0  0  0
 26 27  1  0  0  0  0
 26 38  1  0  0  0  0
 26 39  1  0  0  0  0
 27 28  2  0  0  0  0
 27 31  1  0  0  0  0
 28 29  1  0  0  0  0
 29 30  2  0  0  0  0
 29 37  1  0  0  0  0
 30 31  1  0  0  0  0
 30 36  1  0  0  0  0
 31 32  1  0  0  0  0
 32 33  1  0  0  0  0
 32 34  1  0  0  0  0
 32 35  1  0  0  0  0
 40 41  2  0  0  0  0
 40 42  1  0  0  0  0
 42 43  2  0  0  0  0
 42 48  1  0  0  0  0
 43 44  1  0  0  0  0
 43 51  1  0  0  0  0
 44 45  2  0  0  0  0
 44 50  1  0  0  0  0
 45 46  1  0  0  0  0
 45 47  1  0  0  0  0
 47 48  2  0  0  0  0
 47 49  1  0  0  0  0
M  END
>  <MODEL>
       1

$$$$
