output/tmp_first_model_12_2.pdb
 OpenBabel07242619253D

 60 65  0  0  1  0  0  0  0  0999 V2000
   -6.3300    1.0730  -30.6300 C   0  0  0  0  0  0  0  0  0  0  0  0
   -6.6990    1.2270  -29.1770 C   0  0  0  0  0  0  0  0  0  0  0  0
   -6.0610    0.4880  -28.1800 C   0  0  0  0  0  0  0  0  0  0  0  0
   -6.3740    0.5840  -26.8910 N   0  0  0  0  0  0  0  0  0  0  0  0
   -7.3690    1.4180  -26.5730 C   0  0  0  0  0  0  0  0  0  0  0  0
   -7.7750    1.5280  -25.1240 C   0  0  0  0  0  0  0  0  0  0  0  0
   -8.7270    0.5310  -24.6810 N   0  0  0  0  0  0  0  0  0  0  0  0
   -8.2600   -0.8090  -24.4080 C   0  0  0  0  0  0  0  0  0  0  0  0
   -8.8740   -1.3420  -23.0950 C   0  0  2  0  0  0  0  0  0  0  0  0
   -8.3000   -0.5380  -21.8990 C   0  0  0  0  0  0  0  0  0  0  0  0
   -8.5190    0.6150  -21.6100 O   0  0  0  0  0  0  0  0  0  0  0  0
   -7.4360   -1.3470  -21.1940 N   0  0  0  0  0  0  0  0  0  0  0  0
   -6.6210   -0.7890  -20.1730 C   0  0  0  0  0  0  0  0  0  0  0  0
   -6.9020   -1.0520  -18.8590 C   0  0  0  0  0  0  0  0  0  0  0  0
   -6.1930   -0.5650  -17.8090 N   0  0  0  0  0  0  0  0  0  0  0  0
   -5.1640    0.2020  -18.0750 C   0  0  0  0  0  0  0  0  0  0  0  0
   -4.7480    0.5520  -19.3910 C   0  0  0  0  0  0  0  0  0  0  0  0
   -3.6150    1.3790  -19.6240 C   0  0  0  0  0  0  0  0  0  0  0  0
   -3.2490    1.7130  -20.8980 C   0  0  0  0  0  0  0  0  0  0  0  0
   -4.0070    1.2430  -21.9940 C   0  0  0  0  0  0  0  0  0  0  0  0
   -5.1000    0.4310  -21.7930 C   0  0  0  0  0  0  0  0  0  0  0  0
   -5.5100    0.0690  -20.4790 C   0  0  0  0  0  0  0  0  0  0  0  0
   -5.5990   -0.0290  -22.6430 H   0  0  0  0  0  0  0  0  0  0  0  0
   -3.6620    1.4480  -23.0030 H   0  0  0  0  0  0  0  0  0  0  0  0
   -2.3540    2.2990  -21.0840 H   0  0  0  0  0  0  0  0  0  0  0  0
   -3.0620    1.7480  -18.7630 H   0  0  0  0  0  0  0  0  0  0  0  0
   -4.6200    0.6080  -17.2230 H   0  0  0  0  0  0  0  0  0  0  0  0
   -7.7500   -1.6800  -18.5930 H   0  0  0  0  0  0  0  0  0  0  0  0
   -7.2300   -2.6530  -21.7930 C   0  0  0  0  0  0  0  0  0  0  0  0
   -8.4080   -2.8010  -22.7820 C   0  0  2  0  0  0  0  0  0  0  0  0
   -8.0450   -3.6950  -23.9790 C   0  0  0  0  0  0  0  0  0  0  0  0
   -7.1710   -3.3030  -24.5170 H   0  0  0  0  0  0  0  0  0  0  0  0
   -8.8670   -3.7740  -24.7010 H   0  0  0  0  0  0  0  0  0  0  0  0
   -7.7950   -4.7110  -23.6490 H   0  0  0  0  0  0  0  0  0  0  0  0
   -9.2370   -3.2710  -22.2470 H   0  0  0  0  0  0  0  0  0  0  0  0
   -6.2650   -2.7120  -22.3230 H   0  0  0  0  0  0  0  0  0  0  0  0
   -7.2200   -3.4260  -21.0200 H   0  0  0  0  0  0  0  0  0  0  0  0
  -10.3780   -1.1250  -23.1680 C   0  0  0  0  0  0  0  0  0  0  0  0
  -11.2300   -1.8030  -22.2880 C   0  0  0  0  0  0  0  0  0  0  0  0
  -12.5880   -1.5760  -22.3520 C   0  0  0  0  0  0  0  0  0  0  0  0
  -13.3960   -2.2410  -21.5110 F   0  0  0  0  0  0  0  0  0  0  0  0
  -13.1570   -0.6760  -23.2440 C   0  0  0  0  0  0  0  0  0  0  0  0
  -12.3160    0.0430  -24.0680 C   0  0  0  0  0  0  0  0  0  0  0  0
  -10.9360   -0.1460  -24.0080 C   0  0  0  0  0  0  0  0  0  0  0  0
  -10.0630    0.7880  -24.7880 C   0  0  0  0  0  0  0  0  0  0  0  0
  -10.4940    1.7290  -25.4390 O   0  0  0  0  0  0  0  0  0  0  0  0
  -12.6920    0.7890  -24.7590 H   0  0  0  0  0  0  0  0  0  0  0  0
  -14.2330   -0.5530  -23.2490 H   0  0  0  0  0  0  0  0  0  0  0  0
  -10.8670   -2.4830  -21.5230 H   0  0  0  0  0  0  0  0  0  0  0  0
   -7.1700   -0.7660  -24.3260 H   0  0  0  0  0  0  0  0  0  0  0  0
   -8.5280   -1.4740  -25.2440 H   0  0  0  0  0  0  0  0  0  0  0  0
   -6.8740    1.4140  -24.5080 H   0  0  0  0  0  0  0  0  0  0  0  0
   -8.2220    2.5100  -24.9460 H   0  0  0  0  0  0  0  0  0  0  0  0
   -7.9800    2.1830  -27.5580 C   0  0  0  0  0  0  0  0  0  0  0  0
   -7.6550    2.0970  -28.8500 N   0  0  0  0  0  0  0  0  0  0  0  0
   -8.7600    2.8930  -27.2950 H   0  0  0  0  0  0  0  0  0  0  0  0
   -5.2810   -0.2220  -28.4400 H   0  0  0  0  0  0  0  0  0  0  0  0
   -6.5030    0.0410  -30.9650 H   0  0  0  0  0  0  0  0  0  0  0  0
   -6.9320    1.7560  -31.2360 H   0  0  0  0  0  0  0  0  0  0  0  0
   -5.2650    1.2910  -30.7810 H   0  0  0  0  0  0  0  0  0  0  0  0
  1  2  1  0  0  0  0
  1 58  1  0  0  0  0
  1 59  1  0  0  0  0
  1 60  1  0  0  0  0
  2  3  2  0  0  0  0
  2 55  1  0  0  0  0
  3  4  1  0  0  0  0
  3 57  1  0  0  0  0
  4  5  2  0  0  0  0
  5  6  1  0  0  0  0
  5 54  1  0  0  0  0
  6  7  1  0  0  0  0
  6 52  1  0  0  0  0
  6 53  1  0  0  0  0
  7  8  1  0  0  0  0
  7 45  1  0  0  0  0
  8  9  1  0  0  0  0
  8 50  1  0  0  0  0
  8 51  1  0  0  0  0
  9 10  1  1  0  0  0
  9 30  1  0  0  0  0
  9 38  1  0  0  0  0
 10 11  2  0  0  0  0
 10 12  1  0  0  0  0
 12 13  1  0  0  0  0
 12 29  1  0  0  0  0
 13 14  2  0  0  0  0
 13 22  1  0  0  0  0
 14 15  1  0  0  0  0
 14 28  1  0  0  0  0
 15 16  2  0  0  0  0
 16 17  1  0  0  0  0
 16 27  1  0  0  0  0
 17 18  2  0  0  0  0
 17 22  1  0  0  0  0
 18 19  1  0  0  0  0
 18 26  1  0  0  0  0
 19 20  2  0  0  0  0
 19 25  1  0  0  0  0
 20 21  1  0  0  0  0
 20 24  1  0  0  0  0
 21 22  2  0  0  0  0
 21 23  1  0  0  0  0
 29 30  1  0  0  0  0
 29 36  1  0  0  0  0
 29 37  1  0  0  0  0
 30 31  1  0  0  0  0
 30 35  1  1  0  0  0
 31 32  1  0  0  0  0
 31 33  1  0  0  0  0
 31 34  1  0  0  0  0
 38 39  2  0  0  0  0
 38 44  1  0  0  0  0
 39 40  1  0  0  0  0
 39 49  1  0  0  0  0
 40 41  1  0  0  0  0
 40 42  2  0  0  0  0
 42 43  1  0  0  0  0
 42 48  1  0  0  0  0
 43 44  2  0  0  0  0
 43 47  1  0  0  0  0
 44 45  1  0  0  0  0
 45 46  2  0  0  0  0
 54 55  2  0  0  0  0
 54 56  1  0  0  0  0
M  END
>  <MODEL>
       1

$$$$
