output/tmp_first_model_4_35.pdb
 OpenBabel07242615033D

 40 42  0  0  0  0  0  0  0  0999 V2000
   -9.1400   -1.8220  -22.5150 O   0  0  0  0  0  0  0  0  0  0  0  0
   -8.1680   -1.0720  -22.4130 C   0  0  0  0  0  0  0  0  0  0  0  0
   -6.7620   -1.6470  -22.3290 C   0  0  0  0  0  0  0  0  0  0  0  0
   -6.0220   -1.2540  -21.0630 C   0  0  0  0  0  0  0  0  0  0  0  0
   -6.5890   -1.5590  -19.8470 C   0  0  0  0  0  0  0  0  0  0  0  0
   -6.0800   -1.2310  -18.6390 N   0  0  0  0  0  0  0  0  0  0  0  0
   -4.9580   -0.5560  -18.6310 C   0  0  0  0  0  0  0  0  0  0  0  0
   -4.2500   -0.1750  -19.8030 C   0  0  0  0  0  0  0  0  0  0  0  0
   -3.0680    0.6030  -19.7330 C   0  0  0  0  0  0  0  0  0  0  0  0
   -2.4210    0.9870  -20.8740 C   0  0  0  0  0  0  0  0  0  0  0  0
   -2.9220    0.6050  -22.1360 C   0  0  0  0  0  0  0  0  0  0  0  0
   -4.0730   -0.1440  -22.2300 C   0  0  0  0  0  0  0  0  0  0  0  0
   -4.7790   -0.5490  -21.0640 C   0  0  0  0  0  0  0  0  0  0  0  0
   -4.4610   -0.3860  -23.2180 H   0  0  0  0  0  0  0  0  0  0  0  0
   -2.4100    0.9270  -23.0380 H   0  0  0  0  0  0  0  0  0  0  0  0
   -1.5280    1.6010  -20.8150 H   0  0  0  0  0  0  0  0  0  0  0  0
   -2.7260    0.9140  -18.7490 H   0  0  0  0  0  0  0  0  0  0  0  0
   -4.5370   -0.2880  -17.6610 H   0  0  0  0  0  0  0  0  0  0  0  0
   -7.5240   -2.1180  -19.8180 H   0  0  0  0  0  0  0  0  0  0  0  0
   -6.9150   -2.7300  -22.3450 H   0  0  0  0  0  0  0  0  0  0  0  0
   -6.1780   -1.4100  -23.2230 H   0  0  0  0  0  0  0  0  0  0  0  0
   -8.2180    0.2830  -22.3220 N   0  0  0  0  0  0  0  0  0  0  0  0
   -9.4070    0.9460  -21.7310 C   0  0  0  0  0  0  0  0  0  0  0  0
   -9.3720    1.1090  -21.8910 C   0  0  0  0  0  0  0  0  0  0  0  0
   -8.8860    2.8990  -23.5720 C   0  0  0  0  0  0  0  0  0  0  0  0
   -8.5200    5.6770  -23.0890 C   0  0  0  0  0  0  0  0  0  0  0  0
   -7.7120    6.2520  -23.9530 F   0  0  0  0  0  0  0  0  0  0  0  0
   -9.6050    6.3990  -22.9040 F   0  0  0  0  0  0  0  0  0  0  0  0
   -7.9040    5.4420  -21.9500 F   0  0  0  0  0  0  0  0  0  0  0  0
   -7.6330    2.4790  -23.4720 C   0  0  0  0  0  0  0  0  0  0  0  0
   -7.1650    1.1350  -22.9900 C   0  0  0  0  0  0  0  0  0  0  0  0
   -6.7740    0.5810  -23.8410 H   0  0  0  0  0  0  0  0  0  0  0  0
   -6.3610    1.2960  -22.2660 H   0  0  0  0  0  0  0  0  0  0  0  0
   -9.6840    2.1920  -23.5280 H   0  0  0  0  0  0  0  0  0  0  0  0
   -6.8210    3.1380  -23.7710 H   0  0  0  0  0  0  0  0  0  0  0  0
   -9.1050    3.9570  -23.7270 H   0  0  0  0  0  0  0  0  0  0  0  0
  -10.2620    1.9100  -21.6330 H   0  0  0  0  0  0  0  0  0  0  0  0
   -8.6390    1.8680  -21.2620 H   0  0  0  0  0  0  0  0  0  0  0  0
   -9.8670   -0.0230  -20.5940 H   0  0  0  0  0  0  0  0  0  0  0  0
  -10.1210    0.7150  -22.7750 H   0  0  0  0  0  0  0  0  0  0  0  0
  1  2  2  0  0  0  0
  2  3  1  0  0  0  0
  2 22  1  0  0  0  0
  3  4  1  0  0  0  0
  3 20  1  0  0  0  0
  3 21  1  0  0  0  0
  4  5  2  0  0  0  0
  4 13  1  0  0  0  0
  5  6  1  0  0  0  0
  5 19  1  0  0  0  0
  6  7  2  0  0  0  0
  7  8  1  0  0  0  0
  7 18  1  0  0  0  0
  8  9  2  0  0  0  0
  8 13  1  0  0  0  0
  9 10  1  0  0  0  0
  9 17  1  0  0  0  0
 10 11  2  0  0  0  0
 10 16  1  0  0  0  0
 11 12  1  0  0  0  0
 11 15  1  0  0  0  0
 12 13  2  0  0  0  0
 12 14  1  0  0  0  0
 22 23  1  0  0  0  0
 22 31  1  0  0  0  0
 23 24  1  0  0  0  0
 23 39  1  0  0  0  0
 23 40  1  0  0  0  0
 24 25  1  0  0  0  0
 24 37  1  0  0  0  0
 24 38  1  0  0  0  0
 25 26  1  0  0  0  0
 25 30  1  0  0  0  0
 25 36  1  0  0  0  0
 26 27  1  0  0  0  0
 26 28  1  0  0  0  0
 26 29  1  0  0  0  0
 30 31  1  0  0  0  0
 30 34  1  0  0  0  0
 30 35  1  0  0  0  0
 31 32  1  0  0  0  0
 31 33  1  0  0  0  0
M  END
>  <MODEL>
       1

$$$$
