output/tmp_first_model_1_77.pdb
 OpenBabel07242613193D

 55 60  0  0  1  0  0  0  0  0999 V2000
  -10.2220   -2.9700  -22.0730 C   0  0  0  0  0  0  0  0  0  0  0  0
   -9.1550   -2.0170  -22.6290 C   0  0  1  0  0  0  0  0  0  0  0  0
   -8.6900   -1.0310  -21.5390 C   0  0  0  0  0  0  0  0  0  0  0  0
   -7.3520   -1.4520  -21.2010 N   0  0  0  0  0  0  0  0  0  0  0  0
   -6.5760   -0.8500  -20.1920 C   0  0  0  0  0  0  0  0  0  0  0  0
   -6.9140   -1.0600  -18.8810 C   0  0  0  0  0  0  0  0  0  0  0  0
   -6.2280   -0.5650  -17.8270 N   0  0  0  0  0  0  0  0  0  0  0  0
   -5.1910    0.1940  -18.0960 C   0  0  0  0  0  0  0  0  0  0  0  0
   -4.7470    0.5070  -19.4140 C   0  0  0  0  0  0  0  0  0  0  0  0
   -3.6260    1.3480  -19.6370 C   0  0  0  0  0  0  0  0  0  0  0  0
   -3.2330    1.6580  -20.9080 C   0  0  0  0  0  0  0  0  0  0  0  0
   -3.9470    1.1490  -22.0190 C   0  0  0  0  0  0  0  0  0  0  0  0
   -5.0370    0.3340  -21.8350 C   0  0  0  0  0  0  0  0  0  0  0  0
   -5.4560   -0.0200  -20.5150 C   0  0  0  0  0  0  0  0  0  0  0  0
   -5.5820   -0.0350  -22.7060 H   0  0  0  0  0  0  0  0  0  0  0  0
   -3.6270    1.4130  -23.0240 H   0  0  0  0  0  0  0  0  0  0  0  0
   -2.3760    2.3040  -21.0770 H   0  0  0  0  0  0  0  0  0  0  0  0
   -3.1030    1.7450  -18.7710 H   0  0  0  0  0  0  0  0  0  0  0  0
   -4.6420    0.6080  -17.2500 H   0  0  0  0  0  0  0  0  0  0  0  0
   -7.7730   -1.6900  -18.6490 H   0  0  0  0  0  0  0  0  0  0  0  0
   -6.8280   -2.4110  -22.0270 C   0  0  0  0  0  0  0  0  0  0  0  0
   -5.7450   -2.9370  -21.8660 O   0  0  0  0  0  0  0  0  0  0  0  0
   -7.8470   -2.6830  -23.1500 C   0  0  1  0  0  0  0  0  0  0  0  0
   -7.9620   -4.1950  -23.3500 C   0  0  0  0  0  0  0  0  0  0  0  0
   -6.7210   -4.7060  -23.8910 N   0  0  0  0  0  0  0  0  0  0  0  0
   -6.2670   -6.0060  -23.4400 C   0  0  0  0  0  0  0  0  0  0  0  0
   -7.1040   -7.1050  -24.0410 C   0  0  0  0  0  0  0  0  0  0  0  0
   -7.0870   -7.5750  -25.3070 C   0  0  0  0  0  0  0  0  0  0  0  0
   -8.2230   -8.2940  -25.5190 O   0  0  0  0  0  0  0  0  0  0  0  0
   -8.8710   -8.2300  -24.3390 C   0  0  0  0  0  0  0  0  0  0  0  0
   -8.2720   -7.5550  -23.4240 N   0  0  0  0  0  0  0  0  0  0  0  0
   -9.8000   -8.7780  -24.2570 H   0  0  0  0  0  0  0  0  0  0  0  0
   -6.4030   -7.4780  -26.1350 H   0  0  0  0  0  0  0  0  0  0  0  0
   -5.2130   -6.0720  -23.7220 H   0  0  0  0  0  0  0  0  0  0  0  0
   -6.3410   -5.9890  -22.3470 H   0  0  0  0  0  0  0  0  0  0  0  0
   -6.2490   -4.2380  -25.0830 C   0  0  0  0  0  0  0  0  0  0  0  0
   -5.5340   -4.9060  -25.8250 O   0  0  0  0  0  0  0  0  0  0  0  0
   -6.6260   -2.8310  -25.3820 C   0  0  0  0  0  0  0  0  0  0  0  0
   -6.1750   -2.2870  -26.5820 C   0  0  0  0  0  0  0  0  0  0  0  0
   -6.3970   -0.9540  -26.8630 C   0  0  0  0  0  0  0  0  0  0  0  0
   -7.0760   -0.1920  -25.9170 C   0  0  0  0  0  0  0  0  0  0  0  0
   -7.2790    1.1130  -26.1720 F   0  0  0  0  0  0  0  0  0  0  0  0
   -7.5540   -0.7160  -24.7310 C   0  0  0  0  0  0  0  0  0  0  0  0
   -7.3530   -2.0730  -24.4570 C   0  0  0  0  0  0  0  0  0  0  0  0
   -8.0840   -0.0620  -24.0450 H   0  0  0  0  0  0  0  0  0  0  0  0
   -6.0360   -0.4830  -27.7700 H   0  0  0  0  0  0  0  0  0  0  0  0
   -5.6330   -2.9480  -27.2530 H   0  0  0  0  0  0  0  0  0  0  0  0
   -8.7960   -4.4110  -24.0330 H   0  0  0  0  0  0  0  0  0  0  0  0
   -8.1540   -4.6920  -22.3980 H   0  0  0  0  0  0  0  0  0  0  0  0
   -9.3370   -1.0920  -20.6700 H   0  0  0  0  0  0  0  0  0  0  0  0
   -8.6950    0.0120  -21.8770 H   0  0  0  0  0  0  0  0  0  0  0  0
   -9.6280   -1.4830  -23.4600 H   0  0  0  0  0  0  0  0  0  0  0  0
  -11.0770   -2.3970  -21.6990 H   0  0  0  0  0  0  0  0  0  0  0  0
   -9.8330   -3.5700  -21.2430 H   0  0  0  0  0  0  0  0  0  0  0  0
  -10.5970   -3.6500  -22.8440 H   0  0  0  0  0  0  0  0  0  0  0  0
  1  2  1  0  0  0  0
  1 53  1  0  0  0  0
  1 54  1  0  0  0  0
  1 55  1  0  0  0  0
  2  3  1  0  0  0  0
  2 23  1  0  0  0  0
  2 52  1  6  0  0  0
  3  4  1  0  0  0  0
  3 50  1  0  0  0  0
  3 51  1  0  0  0  0
  4  5  1  0  0  0  0
  4 21  1  0  0  0  0
  5  6  2  0  0  0  0
  5 14  1  0  0  0  0
  6  7  1  0  0  0  0
  6 20  1  0  0  0  0
  7  8  2  0  0  0  0
  8  9  1  0  0  0  0
  8 19  1  0  0  0  0
  9 10  2  0  0  0  0
  9 14  1  0  0  0  0
 10 11  1  0  0  0  0
 10 18  1  0  0  0  0
 11 12  2  0  0  0  0
 11 17  1  0  0  0  0
 12 13  1  0  0  0  0
 12 16  1  0  0  0  0
 13 14  2  0  0  0  0
 13 15  1  0  0  0  0
 21 22  2  0  0  0  0
 23 21  1  1  0  0  0
 23 24  1  0  0  0  0
 23 44  1  0  0  0  0
 24 25  1  0  0  0  0
 24 48  1  0  0  0  0
 24 49  1  0  0  0  0
 25 26  1  0  0  0  0
 25 36  1  0  0  0  0
 26 27  1  0  0  0  0
 26 34  1  0  0  0  0
 26 35  1  0  0  0  0
 27 28  2  0  0  0  0
 27 31  1  0  0  0  0
 28 29  1  0  0  0  0
 28 33  1  0  0  0  0
 29 30  1  0  0  0  0
 30 31  2  0  0  0  0
 30 32  1  0  0  0  0
 36 37  2  0  0  0  0
 36 38  1  0  0  0  0
 38 39  2  0  0  0  0
 38 44  1  0  0  0  0
 39 40  1  0  0  0  0
 39 47  1  0  0  0  0
 40 41  2  0  0  0  0
 40 46  1  0  0  0  0
 41 42  1  0  0  0  0
 41 43  1  0  0  0  0
 43 44  2  0  0  0  0
 43 45  1  0  0  0  0
M  END
>  <MODEL>
       1

$$$$
