output/tmp_first_model_10_78.pdb
 OpenBabel07242618173D

 56 60  0  0  1  0  0  0  0  0999 V2000
   -8.0100   -5.9730  -27.0110 C   0  0  0  0  0  0  0  0  0  0  0  0
   -8.2490   -4.5470  -27.1160 N   0  0  0  0  0  0  0  0  0  0  0  0
   -7.2760   -3.6870  -26.7270 C   0  0  0  0  0  0  0  0  0  0  0  0
   -6.2060   -4.0650  -26.2650 O   0  0  0  0  0  0  0  0  0  0  0  0
   -7.6360   -2.2030  -26.8460 C   0  0  0  0  0  0  0  0  0  0  0  0
   -8.4960   -1.8010  -25.7350 N   0  0  0  0  0  0  0  0  0  0  0  0
   -7.9270   -1.3130  -24.4830 C   0  0  0  0  0  0  0  0  0  0  0  0
   -8.7920   -1.5990  -23.2150 C   0  0  2  0  0  0  0  0  0  0  0  0
   -8.2620   -0.6390  -22.1320 C   0  0  0  0  0  0  0  0  0  0  0  0
   -8.4270    0.5610  -22.0880 O   0  0  0  0  0  0  0  0  0  0  0  0
   -7.4960   -1.3510  -21.2270 N   0  0  0  0  0  0  0  0  0  0  0  0
   -6.7050   -0.7580  -20.2120 C   0  0  0  0  0  0  0  0  0  0  0  0
   -6.9400   -1.1080  -18.9050 C   0  0  0  0  0  0  0  0  0  0  0  0
   -6.2350   -0.6550  -17.8420 N   0  0  0  0  0  0  0  0  0  0  0  0
   -5.2360    0.1580  -18.0840 C   0  0  0  0  0  0  0  0  0  0  0  0
   -4.8620    0.5810  -19.3910 C   0  0  0  0  0  0  0  0  0  0  0  0
   -3.7730    1.4710  -19.5900 C   0  0  0  0  0  0  0  0  0  0  0  0
   -3.5030    1.9720  -20.8330 C   0  0  0  0  0  0  0  0  0  0  0  0
   -4.2730    1.5590  -21.9440 C   0  0  0  0  0  0  0  0  0  0  0  0
   -5.2870    0.6490  -21.7890 C   0  0  0  0  0  0  0  0  0  0  0  0
   -5.6260    0.1450  -20.4980 C   0  0  0  0  0  0  0  0  0  0  0  0
   -5.8550    0.3320  -22.6590 H   0  0  0  0  0  0  0  0  0  0  0  0
   -4.0490    1.9520  -22.9310 H   0  0  0  0  0  0  0  0  0  0  0  0
   -2.7040    2.6960  -20.9760 H   0  0  0  0  0  0  0  0  0  0  0  0
   -3.1860    1.7670  -18.7250 H   0  0  0  0  0  0  0  0  0  0  0  0
   -4.6640    0.5340  -17.2330 H   0  0  0  0  0  0  0  0  0  0  0  0
   -7.7550   -1.7930  -18.6710 H   0  0  0  0  0  0  0  0  0  0  0  0
   -7.4100   -2.7660  -21.5280 C   0  0  0  0  0  0  0  0  0  0  0  0
   -8.5470   -2.9840  -22.5300 C   0  0  2  0  0  0  0  0  0  0  0  0
   -8.3160   -4.1630  -23.4610 C   0  0  0  0  0  0  0  0  0  0  0  0
   -8.2590   -5.0950  -22.8920 H   0  0  0  0  0  0  0  0  0  0  0  0
   -7.3800   -4.0600  -24.0240 H   0  0  0  0  0  0  0  0  0  0  0  0
   -9.1440   -4.2520  -24.1720 H   0  0  0  0  0  0  0  0  0  0  0  0
   -9.4590   -3.1660  -21.9420 H   0  0  0  0  0  0  0  0  0  0  0  0
   -7.5440   -3.3640  -20.6210 H   0  0  0  0  0  0  0  0  0  0  0  0
   -6.4260   -3.0250  -21.9490 H   0  0  0  0  0  0  0  0  0  0  0  0
  -10.2650   -1.3980  -23.5330 C   0  0  0  0  0  0  0  0  0  0  0  0
  -11.2140   -1.2920  -22.4980 C   0  0  0  0  0  0  0  0  0  0  0  0
  -12.5620   -1.2200  -22.8200 C   0  0  0  0  0  0  0  0  0  0  0  0
  -13.7930   -1.3410  -21.5990 Cl  0  0  0  0  0  0  0  0  0  0  0  0
  -12.9940   -1.1260  -24.1430 C   0  0  0  0  0  0  0  0  0  0  0  0
  -12.0660   -1.2200  -25.1590 C   0  0  0  0  0  0  0  0  0  0  0  0
  -10.7260   -1.4440  -24.8560 C   0  0  0  0  0  0  0  0  0  0  0  0
   -9.8320   -1.8640  -25.9750 C   0  0  0  0  0  0  0  0  0  0  0  0
  -10.2630   -2.2840  -27.0490 O   0  0  0  0  0  0  0  0  0  0  0  0
  -12.3520   -1.1590  -26.2060 H   0  0  0  0  0  0  0  0  0  0  0  0
  -14.0550   -1.0470  -24.3450 H   0  0  0  0  0  0  0  0  0  0  0  0
  -10.9130   -1.2860  -21.4520 H   0  0  0  0  0  0  0  0  0  0  0  0
   -6.9330   -1.7610  -24.3650 H   0  0  0  0  0  0  0  0  0  0  0  0
   -7.7690   -0.2270  -24.5330 H   0  0  0  0  0  0  0  0  0  0  0  0
   -6.7180   -1.6100  -26.8600 H   0  0  0  0  0  0  0  0  0  0  0  0
   -8.2100   -2.0330  -27.7640 H   0  0  0  0  0  0  0  0  0  0  0  0
   -9.1540   -4.1820  -27.3840 H   0  0  0  0  0  0  0  0  0  0  0  0
   -8.9190   -6.5190  -27.2720 H   0  0  0  0  0  0  0  0  0  0  0  0
   -7.6950   -6.2370  -25.9950 H   0  0  0  0  0  0  0  0  0  0  0  0
   -7.1980   -6.2780  -27.6760 H   0  0  0  0  0  0  0  0  0  0  0  0
  1  2  1  0  0  0  0
  1 54  1  0  0  0  0
  1 55  1  0  0  0  0
  1 56  1  0  0  0  0
  2  3  1  0  0  0  0
  2 53  1  0  0  0  0
  3  4  2  0  0  0  0
  3  5  1  0  0  0  0
  5  6  1  0  0  0  0
  5 51  1  0  0  0  0
  5 52  1  0  0  0  0
  6  7  1  0  0  0  0
  6 44  1  0  0  0  0
  7  8  1  0  0  0  0
  7 49  1  0  0  0  0
  7 50  1  0  0  0  0
  8  9  1  1  0  0  0
  8 29  1  0  0  0  0
  8 37  1  0  0  0  0
  9 10  2  0  0  0  0
  9 11  1  0  0  0  0
 11 12  1  0  0  0  0
 11 28  1  0  0  0  0
 12 13  2  0  0  0  0
 12 21  1  0  0  0  0
 13 14  1  0  0  0  0
 13 27  1  0  0  0  0
 14 15  2  0  0  0  0
 15 16  1  0  0  0  0
 15 26  1  0  0  0  0
 16 17  2  0  0  0  0
 16 21  1  0  0  0  0
 17 18  1  0  0  0  0
 17 25  1  0  0  0  0
 18 19  2  0  0  0  0
 18 24  1  0  0  0  0
 19 20  1  0  0  0  0
 19 23  1  0  0  0  0
 20 21  2  0  0  0  0
 20 22  1  0  0  0  0
 28 29  1  0  0  0  0
 28 35  1  0  0  0  0
 28 36  1  0  0  0  0
 29 30  1  0  0  0  0
 29 34  1  1  0  0  0
 30 31  1  0  0  0  0
 30 32  1  0  0  0  0
 30 33  1  0  0  0  0
 37 38  2  0  0  0  0
 37 43  1  0  0  0  0
 38 39  1  0  0  0  0
 38 48  1  0  0  0  0
 39 40  1  0  0  0  0
 39 41  2  0  0  0  0
 41 42  1  0  0  0  0
 41 47  1  0  0  0  0
 42 43  2  0  0  0  0
 42 46  1  0  0  0  0
 43 44  1  0  0  0  0
 44 45  2  0  0  0  0
M  END
>  <MODEL>
       1

$$$$
