output/tmp_first_model_10_35.pdb
 OpenBabel07242618173D

 40 42  0  0  0  0  0  0  0  0999 V2000
   -9.1340   -1.8190  -22.6400 O   0  0  0  0  0  0  0  0  0  0  0  0
   -8.2810   -0.9810  -22.3740 C   0  0  0  0  0  0  0  0  0  0  0  0
   -6.8670   -1.3930  -21.9670 C   0  0  0  0  0  0  0  0  0  0  0  0
   -6.3540   -0.7430  -20.6930 C   0  0  0  0  0  0  0  0  0  0  0  0
   -6.9210   -1.0630  -19.4810 C   0  0  0  0  0  0  0  0  0  0  0  0
   -6.5440   -0.5650  -18.2750 N   0  0  0  0  0  0  0  0  0  0  0  0
   -5.5610    0.3040  -18.2690 C   0  0  0  0  0  0  0  0  0  0  0  0
   -4.8830    0.7520  -19.4410 C   0  0  0  0  0  0  0  0  0  0  0  0
   -3.8730    1.7480  -19.3930 C   0  0  0  0  0  0  0  0  0  0  0  0
   -3.3500    2.2600  -20.5480 C   0  0  0  0  0  0  0  0  0  0  0  0
   -3.7790    1.7690  -21.7940 C   0  0  0  0  0  0  0  0  0  0  0  0
   -4.6740    0.7250  -21.8600 C   0  0  0  0  0  0  0  0  0  0  0  0
   -5.2920    0.2160  -20.6890 C   0  0  0  0  0  0  0  0  0  0  0  0
   -4.9010    0.2900  -22.8290 H   0  0  0  0  0  0  0  0  0  0  0  0
   -3.3710    2.1940  -22.7050 H   0  0  0  0  0  0  0  0  0  0  0  0
   -2.6100    3.0500  -20.5080 H   0  0  0  0  0  0  0  0  0  0  0  0
   -3.5410    2.1070  -18.4230 H   0  0  0  0  0  0  0  0  0  0  0  0
   -5.2660    0.7100  -17.2980 H   0  0  0  0  0  0  0  0  0  0  0  0
   -7.7410   -1.7760  -19.4440 H   0  0  0  0  0  0  0  0  0  0  0  0
   -6.9330   -2.4780  -21.8530 H   0  0  0  0  0  0  0  0  0  0  0  0
   -6.1850   -1.2160  -22.8030 H   0  0  0  0  0  0  0  0  0  0  0  0
   -8.4700    0.3760  -22.3900 N   0  0  0  0  0  0  0  0  0  0  0  0
   -7.5430    1.2780  -23.1120 C   0  0  0  0  0  0  0  0  0  0  0  0
   -8.1380    2.5340  -23.6720 C   0  0  0  0  0  0  0  0  0  0  0  0
   -9.4140    2.8920  -23.6160 C   0  0  0  0  0  0  0  0  0  0  0  0
   -8.5040    5.4120  -22.8600 C   0  0  0  0  0  0  0  0  0  0  0  0
   -7.8580    5.0580  -21.7640 F   0  0  0  0  0  0  0  0  0  0  0  0
   -9.4670    6.2660  -22.5820 F   0  0  0  0  0  0  0  0  0  0  0  0
   -7.6820    5.9130  -23.7610 F   0  0  0  0  0  0  0  0  0  0  0  0
   -9.6730    1.0970  -21.9160 C   0  0  0  0  0  0  0  0  0  0  0  0
   -9.6800    0.9400  -21.7390 C   0  0  0  0  0  0  0  0  0  0  0  0
  -10.4350    0.5630  -22.7020 H   0  0  0  0  0  0  0  0  0  0  0  0
   -9.8850    0.0520  -20.4750 H   0  0  0  0  0  0  0  0  0  0  0  0
  -10.6100    1.8260  -21.6210 H   0  0  0  0  0  0  0  0  0  0  0  0
   -8.9860    1.9680  -21.4000 H   0  0  0  0  0  0  0  0  0  0  0  0
   -9.6210    3.9530  -23.6660 H   0  0  0  0  0  0  0  0  0  0  0  0
   -7.3940    3.1640  -24.1550 H   0  0  0  0  0  0  0  0  0  0  0  0
  -10.1930    2.1530  -23.5600 H   0  0  0  0  0  0  0  0  0  0  0  0
   -7.0610    0.7160  -23.9130 H   0  0  0  0  0  0  0  0  0  0  0  0
   -6.7470    1.5750  -22.4240 H   0  0  0  0  0  0  0  0  0  0  0  0
  1  2  2  0  0  0  0
  2  3  1  0  0  0  0
  2 22  1  0  0  0  0
  3  4  1  0  0  0  0
  3 20  1  0  0  0  0
  3 21  1  0  0  0  0
  4  5  2  0  0  0  0
  4 13  1  0  0  0  0
  5  6  1  0  0  0  0
  5 19  1  0  0  0  0
  6  7  2  0  0  0  0
  7  8  1  0  0  0  0
  7 18  1  0  0  0  0
  8  9  2  0  0  0  0
  8 13  1  0  0  0  0
  9 10  1  0  0  0  0
  9 17  1  0  0  0  0
 10 11  2  0  0  0  0
 10 16  1  0  0  0  0
 11 12  1  0  0  0  0
 11 15  1  0  0  0  0
 12 13  2  0  0  0  0
 12 14  1  0  0  0  0
 22 23  1  0  0  0  0
 22 31  1  0  0  0  0
 23 24  1  0  0  0  0
 23 39  1  0  0  0  0
 23 40  1  0  0  0  0
 24 25  1  0  0  0  0
 24 37  1  0  0  0  0
 24 38  1  0  0  0  0
 25 26  1  0  0  0  0
 25 30  1  0  0  0  0
 25 36  1  0  0  0  0
 26 27  1  0  0  0  0
 26 28  1  0  0  0  0
 26 29  1  0  0  0  0
 30 31  1  0  0  0  0
 30 34  1  0  0  0  0
 30 35  1  0  0  0  0
 31 32  1  0  0  0  0
 31 33  1  0  0  0  0
M  END
>  <MODEL>
       1

$$$$
