output/tmp_first_model_19_41.pdb
 OpenBabel07242623063D

 67 71  0  0  1  0  0  0  0  0999 V2000
   -7.5850    2.5120  -21.4900 C   0  0  0  0  0  0  0  0  0  0  0  0
   -8.6340    2.2690  -22.4450 N   0  0  0  0  0  0  0  0  0  0  0  0
   -8.3720    1.6780  -23.6300 C   0  0  0  0  0  0  0  0  0  0  0  0
   -7.2380    1.4920  -24.0550 O   0  0  0  0  0  0  0  0  0  0  0  0
   -9.6100    1.2010  -24.3950 C   0  0  0  0  0  0  0  0  0  0  0  0
  -10.1040   -0.0490  -23.8370 N   0  0  0  0  0  0  0  0  0  0  0  0
   -9.2410   -1.2160  -23.8700 C   0  0  0  0  0  0  0  0  0  0  0  0
   -9.2920   -1.9770  -22.5190 C   0  0  2  0  0  0  0  0  0  0  0  0
   -8.7040   -1.0400  -21.4350 C   0  0  0  0  0  0  0  0  0  0  0  0
   -9.2600   -0.1010  -20.9000 O   0  0  0  0  0  0  0  0  0  0  0  0
   -7.3940   -1.4070  -21.2040 N   0  0  0  0  0  0  0  0  0  0  0  0
   -6.6180   -0.8070  -20.1830 C   0  0  0  0  0  0  0  0  0  0  0  0
   -6.9430   -1.0140  -18.8630 C   0  0  0  0  0  0  0  0  0  0  0  0
   -6.2510   -0.5030  -17.8220 N   0  0  0  0  0  0  0  0  0  0  0  0
   -5.2130    0.2550  -18.0980 C   0  0  0  0  0  0  0  0  0  0  0  0
   -4.7590    0.5430  -19.4160 C   0  0  0  0  0  0  0  0  0  0  0  0
   -3.6300    1.3670  -19.6680 C   0  0  0  0  0  0  0  0  0  0  0  0
   -3.2340    1.6420  -20.9510 C   0  0  0  0  0  0  0  0  0  0  0  0
   -3.9440    1.1030  -22.0420 C   0  0  0  0  0  0  0  0  0  0  0  0
   -5.0380    0.2920  -21.8260 C   0  0  0  0  0  0  0  0  0  0  0  0
   -5.4730   -0.0110  -20.5050 C   0  0  0  0  0  0  0  0  0  0  0  0
   -5.6530   -0.0030  -22.6710 H   0  0  0  0  0  0  0  0  0  0  0  0
   -3.6540    1.3660  -23.0560 H   0  0  0  0  0  0  0  0  0  0  0  0
   -2.3870    2.2970  -21.1320 H   0  0  0  0  0  0  0  0  0  0  0  0
   -3.1140    1.8030  -18.8170 H   0  0  0  0  0  0  0  0  0  0  0  0
   -4.6770    0.6910  -17.2540 H   0  0  0  0  0  0  0  0  0  0  0  0
   -7.7920   -1.6450  -18.6030 H   0  0  0  0  0  0  0  0  0  0  0  0
   -6.9600   -2.5560  -21.9730 C   0  0  0  0  0  0  0  0  0  0  0  0
   -8.2910   -3.1640  -22.4590 C   0  0  2  0  0  0  0  0  0  0  0  0
   -8.1970   -3.9720  -23.7530 C   0  0  0  0  0  0  0  0  0  0  0  0
   -7.2630   -5.4790  -23.5330 S   0  0  0  0  0  0  0  0  0  0  0  0
   -5.8630   -5.1150  -23.3730 O   0  0  0  0  0  0  0  0  0  0  0  0
   -7.9550   -6.2850  -22.5380 O   0  0  0  0  0  0  0  0  0  0  0  0
   -7.4010   -6.2700  -24.9860 N   0  0  0  0  0  0  0  0  0  0  0  0
   -8.6720   -6.9240  -25.2540 C   0  0  0  0  0  0  0  0  0  0  0  0
   -9.4800   -6.2230  -25.5080 H   0  0  0  0  0  0  0  0  0  0  0  0
   -8.5300   -7.6050  -26.0940 H   0  0  0  0  0  0  0  0  0  0  0  0
   -8.9630   -7.5050  -24.3810 H   0  0  0  0  0  0  0  0  0  0  0  0
   -6.7550   -5.6570  -26.1360 C   0  0  0  0  0  0  0  0  0  0  0  0
   -7.3180   -4.8080  -26.5480 H   0  0  0  0  0  0  0  0  0  0  0  0
   -6.6520   -6.4150  -26.9160 H   0  0  0  0  0  0  0  0  0  0  0  0
   -5.7570   -5.3220  -25.8560 H   0  0  0  0  0  0  0  0  0  0  0  0
   -9.2000   -4.2570  -24.0900 H   0  0  0  0  0  0  0  0  0  0  0  0
   -7.6990   -3.3900  -24.5350 H   0  0  0  0  0  0  0  0  0  0  0  0
   -8.6210   -3.8340  -21.6620 H   0  0  0  0  0  0  0  0  0  0  0  0
   -6.3210   -2.2520  -22.8110 H   0  0  0  0  0  0  0  0  0  0  0  0
   -6.3840   -3.2550  -21.3610 H   0  0  0  0  0  0  0  0  0  0  0  0
  -10.7530   -2.3190  -22.2690 C   0  0  0  0  0  0  0  0  0  0  0  0
  -11.1600   -3.4730  -21.5860 C   0  0  0  0  0  0  0  0  0  0  0  0
  -12.4910   -3.6320  -21.2550 C   0  0  0  0  0  0  0  0  0  0  0  0
  -12.8540   -4.6520  -20.4600 F   0  0  0  0  0  0  0  0  0  0  0  0
  -13.4790   -2.7490  -21.6600 C   0  0  0  0  0  0  0  0  0  0  0  0
  -13.0950   -1.6360  -22.3790 C   0  0  0  0  0  0  0  0  0  0  0  0
  -11.7480   -1.4080  -22.6680 C   0  0  0  0  0  0  0  0  0  0  0  0
  -11.4010   -0.1440  -23.4120 C   0  0  0  0  0  0  0  0  0  0  0  0
  -12.2290    0.7330  -23.6170 O   0  0  0  0  0  0  0  0  0  0  0  0
  -13.8250   -0.9110  -22.7180 H   0  0  0  0  0  0  0  0  0  0  0  0
  -14.5090   -2.9640  -21.3990 H   0  0  0  0  0  0  0  0  0  0  0  0
  -10.4650   -4.2210  -21.2250 H   0  0  0  0  0  0  0  0  0  0  0  0
   -9.5600   -1.8820  -24.6850 H   0  0  0  0  0  0  0  0  0  0  0  0
   -8.2250   -0.8700  -24.0800 H   0  0  0  0  0  0  0  0  0  0  0  0
   -9.3090    1.0750  -25.4400 H   0  0  0  0  0  0  0  0  0  0  0  0
  -10.4380    1.9130  -24.3470 H   0  0  0  0  0  0  0  0  0  0  0  0
   -9.5870    2.3460  -22.1180 H   0  0  0  0  0  0  0  0  0  0  0  0
   -6.6760    2.0970  -21.9120 H   0  0  0  0  0  0  0  0  0  0  0  0
   -7.8110    1.9850  -20.5560 H   0  0  0  0  0  0  0  0  0  0  0  0
   -7.4190    3.5870  -21.3580 H   0  0  0  0  0  0  0  0  0  0  0  0
  1  2  1  0  0  0  0
  1 65  1  0  0  0  0
  1 66  1  0  0  0  0
  1 67  1  0  0  0  0
  2  3  1  0  0  0  0
  2 64  1  0  0  0  0
  3  4  2  0  0  0  0
  3  5  1  0  0  0  0
  5  6  1  0  0  0  0
  5 62  1  0  0  0  0
  5 63  1  0  0  0  0
  6  7  1  0  0  0  0
  6 55  1  0  0  0  0
  7  8  1  0  0  0  0
  7 60  1  0  0  0  0
  7 61  1  0  0  0  0
  8  9  1  1  0  0  0
  8 29  1  0  0  0  0
  8 48  1  0  0  0  0
  9 10  2  0  0  0  0
  9 11  1  0  0  0  0
 11 12  1  0  0  0  0
 11 28  1  0  0  0  0
 12 13  2  0  0  0  0
 12 21  1  0  0  0  0
 13 14  1  0  0  0  0
 13 27  1  0  0  0  0
 14 15  2  0  0  0  0
 15 16  1  0  0  0  0
 15 26  1  0  0  0  0
 16 17  2  0  0  0  0
 16 21  1  0  0  0  0
 17 18  1  0  0  0  0
 17 25  1  0  0  0  0
 18 19  2  0  0  0  0
 18 24  1  0  0  0  0
 19 20  1  0  0  0  0
 19 23  1  0  0  0  0
 20 21  2  0  0  0  0
 20 22  1  0  0  0  0
 28 29  1  0  0  0  0
 28 46  1  0  0  0  0
 28 47  1  0  0  0  0
 29 30  1  0  0  0  0
 29 45  1  1  0  0  0
 30 31  1  0  0  0  0
 30 43  1  0  0  0  0
 30 44  1  0  0  0  0
 31 32  2  0  0  0  0
 31 33  2  0  0  0  0
 31 34  1  0  0  0  0
 34 35  1  0  0  0  0
 34 39  1  0  0  0  0
 35 36  1  0  0  0  0
 35 37  1  0  0  0  0
 35 38  1  0  0  0  0
 39 40  1  0  0  0  0
 39 41  1  0  0  0  0
 39 42  1  0  0  0  0
 48 49  2  0  0  0  0
 48 54  1  0  0  0  0
 49 50  1  0  0  0  0
 49 59  1  0  0  0  0
 50 51  1  0  0  0  0
 50 52  2  0  0  0  0
 52 53  1  0  0  0  0
 52 58  1  0  0  0  0
 53 54  2  0  0  0  0
 53 57  1  0  0  0  0
 54 55  1  0  0  0  0
 55 56  2  0  0  0  0
M  END
>  <MODEL>
       1

$$$$
