output/tmp_first_model_15_92.pdb
 OpenBabel07242621043D

 60 65  0  0  1  0  0  0  0  0999 V2000
   -7.1930   -5.5720  -24.9460 C   0  0  0  0  0  0  0  0  0  0  0  0
   -7.4390   -4.8970  -23.7390 O   0  0  0  0  0  0  0  0  0  0  0  0
   -8.1710   -3.7170  -23.9390 C   0  0  0  0  0  0  0  0  0  0  0  0
   -8.3510   -3.0270  -22.5960 C   0  0  1  0  0  0  0  0  0  0  0  0
   -7.0210   -2.5460  -21.9780 C   0  0  0  0  0  0  0  0  0  0  0  0
   -7.4090   -1.3650  -21.2240 N   0  0  0  0  0  0  0  0  0  0  0  0
   -6.6200   -0.8120  -20.1820 C   0  0  0  0  0  0  0  0  0  0  0  0
   -6.9360   -1.0420  -18.8650 C   0  0  0  0  0  0  0  0  0  0  0  0
   -6.2320   -0.5570  -17.8140 N   0  0  0  0  0  0  0  0  0  0  0  0
   -5.1940    0.2010  -18.0810 C   0  0  0  0  0  0  0  0  0  0  0  0
   -4.7530    0.5200  -19.3970 C   0  0  0  0  0  0  0  0  0  0  0  0
   -3.6380    1.3660  -19.6390 C   0  0  0  0  0  0  0  0  0  0  0  0
   -3.2500    1.6480  -20.9200 C   0  0  0  0  0  0  0  0  0  0  0  0
   -3.9350    1.0800  -22.0150 C   0  0  0  0  0  0  0  0  0  0  0  0
   -4.9960    0.2300  -21.8020 C   0  0  0  0  0  0  0  0  0  0  0  0
   -5.4590   -0.0380  -20.4870 C   0  0  0  0  0  0  0  0  0  0  0  0
   -5.5210   -0.1990  -22.6480 H   0  0  0  0  0  0  0  0  0  0  0  0
   -3.6270    1.3410  -23.0240 H   0  0  0  0  0  0  0  0  0  0  0  0
   -2.4050    2.3060  -21.1000 H   0  0  0  0  0  0  0  0  0  0  0  0
   -3.1130    1.7820  -18.7840 H   0  0  0  0  0  0  0  0  0  0  0  0
   -4.6370    0.6040  -17.2340 H   0  0  0  0  0  0  0  0  0  0  0  0
   -7.7940   -1.6630  -18.6160 H   0  0  0  0  0  0  0  0  0  0  0  0
   -8.7010   -0.9380  -21.4670 C   0  0  0  0  0  0  0  0  0  0  0  0
   -9.2520   -0.0370  -20.8730 O   0  0  0  0  0  0  0  0  0  0  0  0
   -9.2880   -1.7940  -22.6210 C   0  0  1  0  0  0  0  0  0  0  0  0
   -9.1500   -1.0410  -23.9700 C   0  0  0  0  0  0  0  0  0  0  0  0
  -10.0080    0.1230  -24.0290 N   0  0  0  0  0  0  0  0  0  0  0  0
   -9.4550    1.3360  -24.6280 C   0  0  0  0  0  0  0  0  0  0  0  0
   -8.4980    2.0430  -23.7040 C   0  0  0  0  0  0  0  0  0  0  0  0
   -8.9490    2.8850  -22.6620 C   0  0  0  0  0  0  0  0  0  0  0  0
   -7.9500    3.3400  -21.9060 N   0  0  0  0  0  0  0  0  0  0  0  0
   -6.8660    2.8080  -22.4650 N   0  0  0  0  0  0  0  0  0  0  0  0
   -7.1250    2.0160  -23.5360 C   0  0  0  0  0  0  0  0  0  0  0  0
   -6.3010    1.5020  -24.0190 H   0  0  0  0  0  0  0  0  0  0  0  0
   -5.9510    2.9690  -22.0770 H   0  0  0  0  0  0  0  0  0  0  0  0
   -9.9640    3.1800  -22.4330 H   0  0  0  0  0  0  0  0  0  0  0  0
   -8.9940    1.0550  -25.5790 H   0  0  0  0  0  0  0  0  0  0  0  0
  -10.3050    1.9870  -24.8590 H   0  0  0  0  0  0  0  0  0  0  0  0
  -11.3310    0.0510  -23.6820 C   0  0  0  0  0  0  0  0  0  0  0  0
  -12.1380    0.9180  -23.9910 O   0  0  0  0  0  0  0  0  0  0  0  0
  -11.7300   -1.1610  -22.8810 C   0  0  0  0  0  0  0  0  0  0  0  0
  -13.0830   -1.3190  -22.5710 C   0  0  0  0  0  0  0  0  0  0  0  0
  -13.5080   -2.3700  -21.7860 C   0  0  0  0  0  0  0  0  0  0  0  0
  -12.5540   -3.2670  -21.3220 C   0  0  0  0  0  0  0  0  0  0  0  0
  -13.0710   -4.4810  -20.1980 Cl  0  0  0  0  0  0  0  0  0  0  0  0
  -11.2150   -3.1560  -21.6500 C   0  0  0  0  0  0  0  0  0  0  0  0
  -10.7680   -2.0730  -22.4160 C   0  0  0  0  0  0  0  0  0  0  0  0
  -10.5410   -3.9050  -21.2490 H   0  0  0  0  0  0  0  0  0  0  0  0
  -14.5460   -2.4930  -21.4960 H   0  0  0  0  0  0  0  0  0  0  0  0
  -13.7880   -0.5820  -22.9330 H   0  0  0  0  0  0  0  0  0  0  0  0
   -9.4050   -1.7340  -24.7860 H   0  0  0  0  0  0  0  0  0  0  0  0
   -8.1140   -0.7140  -24.1120 H   0  0  0  0  0  0  0  0  0  0  0  0
   -6.2690   -2.3080  -22.7460 H   0  0  0  0  0  0  0  0  0  0  0  0
   -6.5960   -3.3060  -21.3140 H   0  0  0  0  0  0  0  0  0  0  0  0
   -8.7630   -3.7690  -21.9100 H   0  0  0  0  0  0  0  0  0  0  0  0
   -9.1560   -3.9380  -24.3870 H   0  0  0  0  0  0  0  0  0  0  0  0
   -7.6380   -3.0520  -24.6440 H   0  0  0  0  0  0  0  0  0  0  0  0
   -6.5750   -4.9670  -25.6290 H   0  0  0  0  0  0  0  0  0  0  0  0
   -8.1290   -5.8280  -25.4670 H   0  0  0  0  0  0  0  0  0  0  0  0
   -6.6580   -6.4930  -24.7030 H   0  0  0  0  0  0  0  0  0  0  0  0
  1  2  1  0  0  0  0
  1 58  1  0  0  0  0
  1 59  1  0  0  0  0
  1 60  1  0  0  0  0
  2  3  1  0  0  0  0
  3  4  1  0  0  0  0
  3 56  1  0  0  0  0
  3 57  1  0  0  0  0
  4  5  1  0  0  0  0
  4 25  1  0  0  0  0
  4 55  1  1  0  0  0
  5  6  1  0  0  0  0
  5 53  1  0  0  0  0
  5 54  1  0  0  0  0
  6  7  1  0  0  0  0
  6 23  1  0  0  0  0
  7  8  2  0  0  0  0
  7 16  1  0  0  0  0
  8  9  1  0  0  0  0
  8 22  1  0  0  0  0
  9 10  2  0  0  0  0
 10 11  1  0  0  0  0
 10 21  1  0  0  0  0
 11 12  2  0  0  0  0
 11 16  1  0  0  0  0
 12 13  1  0  0  0  0
 12 20  1  0  0  0  0
 13 14  2  0  0  0  0
 13 19  1  0  0  0  0
 14 15  1  0  0  0  0
 14 18  1  0  0  0  0
 15 16  2  0  0  0  0
 15 17  1  0  0  0  0
 23 24  2  0  0  0  0
 25 23  1  1  0  0  0
 25 26  1  0  0  0  0
 25 47  1  0  0  0  0
 26 27  1  0  0  0  0
 26 51  1  0  0  0  0
 26 52  1  0  0  0  0
 27 28  1  0  0  0  0
 27 39  1  0  0  0  0
 28 29  1  0  0  0  0
 28 37  1  0  0  0  0
 28 38  1  0  0  0  0
 29 30  1  0  0  0  0
 29 33  2  0  0  0  0
 30 31  2  0  0  0  0
 30 36  1  0  0  0  0
 31 32  1  0  0  0  0
 32 33  1  0  0  0  0
 32 35  1  0  0  0  0
 33 34  1  0  0  0  0
 39 40  2  0  0  0  0
 39 41  1  0  0  0  0
 41 42  2  0  0  0  0
 41 47  1  0  0  0  0
 42 43  1  0  0  0  0
 42 50  1  0  0  0  0
 43 44  2  0  0  0  0
 43 49  1  0  0  0  0
 44 45  1  0  0  0  0
 44 46  1  0  0  0  0
 46 47  2  0  0  0  0
 46 48  1  0  0  0  0
M  END
>  <MODEL>
       1

$$$$
