output/tmp_first_model_3_12.pdb
 OpenBabel07242614263D

 76 82  0  0  1  0  0  0  0  0999 V2000
  -12.4950    0.3420  -24.5260 O   0  0  0  0  0  0  0  0  0  0  0  0
  -11.6800   -0.4290  -24.0370 C   0  0  0  0  0  0  0  0  0  0  0  0
  -12.0370   -1.3750  -22.9410 C   0  0  0  0  0  0  0  0  0  0  0  0
  -13.2600   -1.2100  -22.2980 C   0  0  0  0  0  0  0  0  0  0  0  0
  -13.6130   -2.0720  -21.2900 C   0  0  0  0  0  0  0  0  0  0  0  0
  -12.8120   -3.1970  -21.0660 C   0  0  0  0  0  0  0  0  0  0  0  0
  -13.4030   -4.4720  -20.0550 Cl  0  0  0  0  0  0  0  0  0  0  0  0
  -11.5840   -3.3490  -21.6710 C   0  0  0  0  0  0  0  0  0  0  0  0
  -11.1120   -2.3260  -22.4900 C   0  0  0  0  0  0  0  0  0  0  0  0
   -9.6390   -2.0990  -22.7070 C   0  0  1  0  0  0  0  0  0  0  0  0
   -9.4890   -1.5230  -24.1320 C   0  0  0  0  0  0  0  0  0  0  0  0
  -10.3470   -0.3750  -24.3390 N   0  0  0  0  0  0  0  0  0  0  0  0
   -9.8610    0.9520  -24.6620 C   0  0  0  0  0  0  0  0  0  0  0  0
   -9.9900    1.8960  -23.4510 C   0  0  0  0  0  0  0  0  0  0  0  0
  -10.3250    3.3040  -23.8080 N   0  3  0  0  0  0  0  0  0  0  0  0
   -9.5680    3.8810  -24.9730 C   0  0  0  0  0  0  0  0  0  0  0  0
   -9.9370    5.3500  -25.1230 C   0  0  0  0  0  0  0  0  0  0  0  0
  -11.3280    5.5240  -25.3240 O   0  0  0  0  0  0  0  0  0  0  0  0
  -12.0720    5.0030  -24.2390 C   0  0  0  0  0  0  0  0  0  0  0  0
  -11.8080    3.5210  -24.0050 C   0  0  0  0  0  0  0  0  0  0  0  0
  -12.3270    3.1700  -23.1070 H   0  0  0  0  0  0  0  0  0  0  0  0
  -12.1530    2.9200  -24.8490 H   0  0  0  0  0  0  0  0  0  0  0  0
  -11.8200    5.5480  -23.3130 H   0  0  0  0  0  0  0  0  0  0  0  0
  -13.1260    5.1790  -24.4690 H   0  0  0  0  0  0  0  0  0  0  0  0
   -9.4370    5.7900  -25.9880 H   0  0  0  0  0  0  0  0  0  0  0  0
   -9.6130    5.8870  -24.2160 H   0  0  0  0  0  0  0  0  0  0  0  0
   -8.4940    3.7560  -24.8110 H   0  0  0  0  0  0  0  0  0  0  0  0
   -9.8510    3.3480  -25.8820 H   0  0  0  0  0  0  0  0  0  0  0  0
  -10.0590    3.8600  -22.9700 H   0  0  0  0  0  0  0  0  0  0  0  0
   -9.0800    1.8920  -22.8480 H   0  0  0  0  0  0  0  0  0  0  0  0
  -10.7980    1.5460  -22.8070 H   0  0  0  0  0  0  0  0  0  0  0  0
   -8.8270    0.8940  -25.0150 H   0  0  0  0  0  0  0  0  0  0  0  0
  -10.4780    1.3120  -25.4900 H   0  0  0  0  0  0  0  0  0  0  0  0
   -9.7660   -2.3150  -24.8410 H   0  0  0  0  0  0  0  0  0  0  0  0
   -8.4520   -1.2340  -24.3300 H   0  0  0  0  0  0  0  0  0  0  0  0
   -9.0990   -1.0800  -21.6660 C   0  0  0  0  0  0  0  0  0  0  0  0
   -9.6520   -0.0910  -21.2300 O   0  0  0  0  0  0  0  0  0  0  0  0
   -7.8290   -1.4650  -21.3140 N   0  0  0  0  0  0  0  0  0  0  0  0
   -7.1160   -0.8580  -20.2600 C   0  0  0  0  0  0  0  0  0  0  0  0
   -7.4960   -1.0340  -18.9560 C   0  0  0  0  0  0  0  0  0  0  0  0
   -6.7790   -0.5890  -17.8950 N   0  0  0  0  0  0  0  0  0  0  0  0
   -5.6720    0.0670  -18.1420 C   0  0  0  0  0  0  0  0  0  0  0  0
   -5.1900    0.3540  -19.4500 C   0  0  0  0  0  0  0  0  0  0  0  0
   -4.0090    1.1060  -19.6810 C   0  0  0  0  0  0  0  0  0  0  0  0
   -3.5650    1.3130  -20.9570 C   0  0  0  0  0  0  0  0  0  0  0  0
   -4.2780    0.7930  -22.0610 C   0  0  0  0  0  0  0  0  0  0  0  0
   -5.4410    0.0920  -21.8650 C   0  0  0  0  0  0  0  0  0  0  0  0
   -5.9200   -0.1400  -20.5500 C   0  0  0  0  0  0  0  0  0  0  0  0
   -6.0080   -0.2860  -22.7110 H   0  0  0  0  0  0  0  0  0  0  0  0
   -3.9090    0.9540  -23.0680 H   0  0  0  0  0  0  0  0  0  0  0  0
   -2.6600    1.8880  -21.1320 H   0  0  0  0  0  0  0  0  0  0  0  0
   -3.4830    1.5180  -18.8250 H   0  0  0  0  0  0  0  0  0  0  0  0
   -5.0900    0.3950  -17.2800 H   0  0  0  0  0  0  0  0  0  0  0  0
   -8.4070   -1.5800  -18.7190 H   0  0  0  0  0  0  0  0  0  0  0  0
   -7.3990   -2.7020  -21.9270 C   0  0  0  0  0  0  0  0  0  0  0  0
   -8.7250   -3.3110  -22.4030 C   0  0  2  0  0  0  0  0  0  0  0  0
   -8.4840   -4.3390  -23.4950 C   0  0  0  0  0  0  0  0  0  0  0  0
   -9.6760   -4.9640  -24.0400 N   0  0  0  0  0  0  0  0  0  0  0  0
   -9.5440   -5.7940  -25.1130 C   0  0  0  0  0  0  0  0  0  0  0  0
  -10.6050   -6.5460  -25.4550 N   0  0  0  0  0  0  0  0  0  0  0  0
  -10.4610   -7.2750  -26.5560 C   0  0  0  0  0  0  0  0  0  0  0  0
   -9.3060   -7.2760  -27.3350 C   0  0  0  0  0  0  0  0  0  0  0  0
   -8.2650   -6.4950  -26.8580 C   0  0  0  0  0  0  0  0  0  0  0  0
   -8.3580   -5.7650  -25.7520 N   0  0  0  0  0  0  0  0  0  0  0  0
   -7.3110   -6.4400  -27.3870 H   0  0  0  0  0  0  0  0  0  0  0  0
   -9.2250   -7.8510  -28.2500 H   0  0  0  0  0  0  0  0  0  0  0  0
  -11.3120   -7.8940  -26.8390 H   0  0  0  0  0  0  0  0  0  0  0  0
  -10.5360   -5.0380  -23.5150 H   0  0  0  0  0  0  0  0  0  0  0  0
   -7.8020   -5.1160  -23.1170 H   0  0  0  0  0  0  0  0  0  0  0  0
   -7.9770   -3.8630  -24.3420 H   0  0  0  0  0  0  0  0  0  0  0  0
   -9.1630   -3.7900  -21.5230 H   0  0  0  0  0  0  0  0  0  0  0  0
   -6.7080   -2.5290  -22.7710 H   0  0  0  0  0  0  0  0  0  0  0  0
   -6.8840   -3.3260  -21.1880 H   0  0  0  0  0  0  0  0  0  0  0  0
  -10.9900   -4.2250  -21.4420 H   0  0  0  0  0  0  0  0  0  0  0  0
  -14.5300   -1.9630  -20.7170 H   0  0  0  0  0  0  0  0  0  0  0  0
  -13.9060   -0.3810  -22.5770 H   0  0  0  0  0  0  0  0  0  0  0  0
  1  2  2  0  0  0  0
  2  3  1  0  0  0  0
  2 12  1  0  0  0  0
  3  4  2  0  0  0  0
  3  9  1  0  0  0  0
  4  5  1  0  0  0  0
  4 76  1  0  0  0  0
  5  6  2  0  0  0  0
  5 75  1  0  0  0  0
  6  7  1  0  0  0  0
  6  8  1  0  0  0  0
  8  9  2  0  0  0  0
  8 74  1  0  0  0  0
 10  9  1  1  0  0  0
 10 11  1  0  0  0  0
 10 36  1  0  0  0  0
 10 56  1  0  0  0  0
 11 12  1  0  0  0  0
 11 34  1  0  0  0  0
 11 35  1  0  0  0  0
 12 13  1  0  0  0  0
 13 14  1  0  0  0  0
 13 32  1  0  0  0  0
 13 33  1  0  0  0  0
 14 15  1  0  0  0  0
 14 30  1  0  0  0  0
 14 31  1  0  0  0  0
 15 16  1  0  0  0  0
 15 20  1  0  0  0  0
 15 29  1  0  0  0  0
 16 17  1  0  0  0  0
 16 27  1  0  0  0  0
 16 28  1  0  0  0  0
 17 18  1  0  0  0  0
 17 25  1  0  0  0  0
 17 26  1  0  0  0  0
 18 19  1  0  0  0  0
 19 20  1  0  0  0  0
 19 23  1  0  0  0  0
 19 24  1  0  0  0  0
 20 21  1  0  0  0  0
 20 22  1  0  0  0  0
 36 37  2  0  0  0  0
 36 38  1  0  0  0  0
 38 39  1  0  0  0  0
 38 55  1  0  0  0  0
 39 40  2  0  0  0  0
 39 48  1  0  0  0  0
 40 41  1  0  0  0  0
 40 54  1  0  0  0  0
 41 42  2  0  0  0  0
 42 43  1  0  0  0  0
 42 53  1  0  0  0  0
 43 44  2  0  0  0  0
 43 48  1  0  0  0  0
 44 45  1  0  0  0  0
 44 52  1  0  0  0  0
 45 46  2  0  0  0  0
 45 51  1  0  0  0  0
 46 47  1  0  0  0  0
 46 50  1  0  0  0  0
 47 48  2  0  0  0  0
 47 49  1  0  0  0  0
 55 56  1  0  0  0  0
 55 72  1  0  0  0  0
 55 73  1  0  0  0  0
 56 57  1  0  0  0  0
 56 71  1  1  0  0  0
 57 58  1  0  0  0  0
 57 69  1  0  0  0  0
 57 70  1  0  0  0  0
 58 59  1  0  0  0  0
 58 68  1  0  0  0  0
 59 60  2  0  0  0  0
 59 64  1  0  0  0  0
 60 61  1  0  0  0  0
 61 62  2  0  0  0  0
 61 67  1  0  0  0  0
 62 63  1  0  0  0  0
 62 66  1  0  0  0  0
 63 64  2  0  0  0  0
 63 65  1  0  0  0  0
M  CHG  1  15   1
M  END
>  <MODEL>
       1

$$$$
