output/tmp_first_model_19_12.pdb
 OpenBabel07242623063D

 76 82  0  0  1  0  0  0  0  0999 V2000
  -10.2170    1.7080  -25.2360 O   0  0  0  0  0  0  0  0  0  0  0  0
   -9.8940    0.6350  -24.7320 C   0  0  0  0  0  0  0  0  0  0  0  0
  -10.8320   -0.1320  -23.8500 C   0  0  0  0  0  0  0  0  0  0  0  0
  -12.1740    0.2420  -23.8750 C   0  0  0  0  0  0  0  0  0  0  0  0
  -13.1330   -0.5130  -23.2290 C   0  0  0  0  0  0  0  0  0  0  0  0
  -12.7040   -1.6470  -22.5360 C   0  0  0  0  0  0  0  0  0  0  0  0
  -13.8660   -2.7060  -21.7790 Cl  0  0  0  0  0  0  0  0  0  0  0  0
  -11.3630   -1.9890  -22.4340 C   0  0  0  0  0  0  0  0  0  0  0  0
  -10.3910   -1.2350  -23.1060 C   0  0  0  0  0  0  0  0  0  0  0  0
   -8.8990   -1.5140  -23.0270 C   0  0  1  0  0  0  0  0  0  0  0  0
   -8.3270   -1.2610  -24.4470 C   0  0  0  0  0  0  0  0  0  0  0  0
   -8.6880    0.0480  -24.9700 N   0  0  0  0  0  0  0  0  0  0  0  0
   -7.6990    0.8240  -25.6970 C   0  0  0  0  0  0  0  0  0  0  0  0
   -7.1000    1.9100  -24.8080 C   0  0  0  0  0  0  0  0  0  0  0  0
   -6.0750    2.7200  -25.4900 N   0  3  0  0  0  0  0  0  0  0  0  0
   -4.8490    1.9320  -25.8980 C   0  0  0  0  0  0  0  0  0  0  0  0
   -3.7220    2.9230  -26.2260 C   0  0  0  0  0  0  0  0  0  0  0  0
   -4.2940    4.1450  -26.6490 O   0  0  0  0  0  0  0  0  0  0  0  0
   -4.8260    4.8470  -25.5390 C   0  0  0  0  0  0  0  0  0  0  0  0
   -5.6750    3.9060  -24.6680 C   0  0  0  0  0  0  0  0  0  0  0  0
   -6.5770    4.4070  -24.3060 H   0  0  0  0  0  0  0  0  0  0  0  0
   -5.1140    3.5540  -23.7920 H   0  0  0  0  0  0  0  0  0  0  0  0
   -5.4250    5.6620  -25.9570 H   0  0  0  0  0  0  0  0  0  0  0  0
   -4.0170    5.2900  -24.9350 H   0  0  0  0  0  0  0  0  0  0  0  0
   -3.0800    3.0830  -25.3440 H   0  0  0  0  0  0  0  0  0  0  0  0
   -3.0940    2.5560  -27.0430 H   0  0  0  0  0  0  0  0  0  0  0  0
   -5.0980    1.3360  -26.7790 H   0  0  0  0  0  0  0  0  0  0  0  0
   -4.5690    1.2500  -25.0870 H   0  0  0  0  0  0  0  0  0  0  0  0
   -6.4820    3.0980  -26.3660 H   0  0  0  0  0  0  0  0  0  0  0  0
   -7.8940    2.5780  -24.4560 H   0  0  0  0  0  0  0  0  0  0  0  0
   -6.6610    1.4480  -23.9170 H   0  0  0  0  0  0  0  0  0  0  0  0
   -8.1810    1.2760  -26.5670 H   0  0  0  0  0  0  0  0  0  0  0  0
   -6.9210    0.1420  -26.0600 H   0  0  0  0  0  0  0  0  0  0  0  0
   -7.2370   -1.3090  -24.4120 H   0  0  0  0  0  0  0  0  0  0  0  0
   -8.6790   -2.0430  -25.1300 H   0  0  0  0  0  0  0  0  0  0  0  0
   -8.1890   -0.5490  -22.0450 C   0  0  0  0  0  0  0  0  0  0  0  0
   -8.2950    0.6640  -21.9980 O   0  0  0  0  0  0  0  0  0  0  0  0
   -7.3660   -1.2860  -21.2330 N   0  0  0  0  0  0  0  0  0  0  0  0
   -6.5880   -0.7390  -20.1980 C   0  0  0  0  0  0  0  0  0  0  0  0
   -6.8770   -1.0560  -18.8980 C   0  0  0  0  0  0  0  0  0  0  0  0
   -6.1880   -0.5890  -17.8330 N   0  0  0  0  0  0  0  0  0  0  0  0
   -5.1670    0.2020  -18.0710 C   0  0  0  0  0  0  0  0  0  0  0  0
   -4.7200    0.5460  -19.3810 C   0  0  0  0  0  0  0  0  0  0  0  0
   -3.5810    1.3630  -19.6140 C   0  0  0  0  0  0  0  0  0  0  0  0
   -3.1640    1.6320  -20.8890 C   0  0  0  0  0  0  0  0  0  0  0  0
   -3.8530    1.0920  -21.9970 C   0  0  0  0  0  0  0  0  0  0  0  0
   -4.9600    0.3070  -21.8040 C   0  0  0  0  0  0  0  0  0  0  0  0
   -5.4360    0.0450  -20.4880 C   0  0  0  0  0  0  0  0  0  0  0  0
   -5.4880   -0.1200  -22.6530 H   0  0  0  0  0  0  0  0  0  0  0  0
   -3.5100    1.3070  -23.0050 H   0  0  0  0  0  0  0  0  0  0  0  0
   -2.2940    2.2620  -21.0520 H   0  0  0  0  0  0  0  0  0  0  0  0
   -3.0540    1.7690  -18.7570 H   0  0  0  0  0  0  0  0  0  0  0  0
   -4.6260    0.5920  -17.2060 H   0  0  0  0  0  0  0  0  0  0  0  0
   -7.7130   -1.7210  -18.6750 H   0  0  0  0  0  0  0  0  0  0  0  0
   -7.2570   -2.6730  -21.5890 C   0  0  0  0  0  0  0  0  0  0  0  0
   -8.5210   -2.8970  -22.4140 C   0  0  2  0  0  0  0  0  0  0  0  0
   -8.3780   -4.0890  -23.3370 C   0  0  0  0  0  0  0  0  0  0  0  0
   -9.6330   -4.4720  -23.9350 N   0  0  0  0  0  0  0  0  0  0  0  0
   -9.6250   -5.3400  -24.9720 C   0  0  0  0  0  0  0  0  0  0  0  0
  -10.7930   -5.5590  -25.5920 N   0  0  0  0  0  0  0  0  0  0  0  0
  -10.7420   -6.4000  -26.6140 C   0  0  0  0  0  0  0  0  0  0  0  0
   -9.5770   -7.0470  -27.0170 C   0  0  0  0  0  0  0  0  0  0  0  0
   -8.4350   -6.7590  -26.2790 C   0  0  0  0  0  0  0  0  0  0  0  0
   -8.4410   -5.9150  -25.2550 N   0  0  0  0  0  0  0  0  0  0  0  0
   -7.4670   -7.2030  -26.5180 H   0  0  0  0  0  0  0  0  0  0  0  0
   -9.5690   -7.7370  -27.8510 H   0  0  0  0  0  0  0  0  0  0  0  0
  -11.6810   -6.5530  -27.1420 H   0  0  0  0  0  0  0  0  0  0  0  0
  -10.4580   -3.8930  -23.8510 H   0  0  0  0  0  0  0  0  0  0  0  0
   -7.9820   -4.9520  -22.7870 H   0  0  0  0  0  0  0  0  0  0  0  0
   -7.6520   -3.8800  -24.1320 H   0  0  0  0  0  0  0  0  0  0  0  0
   -9.2980   -3.1170  -21.6800 H   0  0  0  0  0  0  0  0  0  0  0  0
   -6.3280   -2.8780  -22.1450 H   0  0  0  0  0  0  0  0  0  0  0  0
   -7.2290   -3.2820  -20.6810 H   0  0  0  0  0  0  0  0  0  0  0  0
  -11.1100   -2.8480  -21.8160 H   0  0  0  0  0  0  0  0  0  0  0  0
  -14.1870   -0.2480  -23.2870 H   0  0  0  0  0  0  0  0  0  0  0  0
  -12.4550    1.1140  -24.4530 H   0  0  0  0  0  0  0  0  0  0  0  0
  1  2  2  0  0  0  0
  2  3  1  0  0  0  0
  2 12  1  0  0  0  0
  3  4  2  0  0  0  0
  3  9  1  0  0  0  0
  4  5  1  0  0  0  0
  4 76  1  0  0  0  0
  5  6  2  0  0  0  0
  5 75  1  0  0  0  0
  6  7  1  0  0  0  0
  6  8  1  0  0  0  0
  8  9  2  0  0  0  0
  8 74  1  0  0  0  0
 10  9  1  1  0  0  0
 10 11  1  0  0  0  0
 10 36  1  0  0  0  0
 10 56  1  0  0  0  0
 11 12  1  0  0  0  0
 11 34  1  0  0  0  0
 11 35  1  0  0  0  0
 12 13  1  0  0  0  0
 13 14  1  0  0  0  0
 13 32  1  0  0  0  0
 13 33  1  0  0  0  0
 14 15  1  0  0  0  0
 14 30  1  0  0  0  0
 14 31  1  0  0  0  0
 15 16  1  0  0  0  0
 15 20  1  0  0  0  0
 15 29  1  0  0  0  0
 16 17  1  0  0  0  0
 16 27  1  0  0  0  0
 16 28  1  0  0  0  0
 17 18  1  0  0  0  0
 17 25  1  0  0  0  0
 17 26  1  0  0  0  0
 18 19  1  0  0  0  0
 19 20  1  0  0  0  0
 19 23  1  0  0  0  0
 19 24  1  0  0  0  0
 20 21  1  0  0  0  0
 20 22  1  0  0  0  0
 36 37  2  0  0  0  0
 36 38  1  0  0  0  0
 38 39  1  0  0  0  0
 38 55  1  0  0  0  0
 39 40  2  0  0  0  0
 39 48  1  0  0  0  0
 40 41  1  0  0  0  0
 40 54  1  0  0  0  0
 41 42  2  0  0  0  0
 42 43  1  0  0  0  0
 42 53  1  0  0  0  0
 43 44  2  0  0  0  0
 43 48  1  0  0  0  0
 44 45  1  0  0  0  0
 44 52  1  0  0  0  0
 45 46  2  0  0  0  0
 45 51  1  0  0  0  0
 46 47  1  0  0  0  0
 46 50  1  0  0  0  0
 47 48  2  0  0  0  0
 47 49  1  0  0  0  0
 55 56  1  0  0  0  0
 55 72  1  0  0  0  0
 55 73  1  0  0  0  0
 56 57  1  0  0  0  0
 56 71  1  1  0  0  0
 57 58  1  0  0  0  0
 57 69  1  0  0  0  0
 57 70  1  0  0  0  0
 58 59  1  0  0  0  0
 58 68  1  0  0  0  0
 59 60  2  0  0  0  0
 59 64  1  0  0  0  0
 60 61  1  0  0  0  0
 61 62  2  0  0  0  0
 61 67  1  0  0  0  0
 62 63  1  0  0  0  0
 62 66  1  0  0  0  0
 63 64  2  0  0  0  0
 63 65  1  0  0  0  0
M  CHG  1  15   1
M  END
>  <MODEL>
       1

$$$$
