output/tmp_first_model_20_69.pdb
 OpenBabel07242623363D

 63 67  0  0  0  0  0  0  0  0999 V2000
  -10.6840   -5.9110  -28.1910 C   0  0  0  0  0  0  0  0  0  0  0  0
  -10.3010   -5.5070  -26.9790 C   0  0  0  0  0  0  0  0  0  0  0  0
   -9.9350   -4.0600  -26.8520 C   0  0  0  0  0  0  0  0  0  0  0  0
   -9.8340   -3.3590  -27.8480 O   0  0  0  0  0  0  0  0  0  0  0  0
   -9.7580   -3.5410  -25.5770 N   0  0  0  0  0  0  0  0  0  0  0  0
  -10.4010   -4.1310  -24.4030 C   0  0  0  0  0  0  0  0  0  0  0  0
  -11.1440   -3.0530  -23.6360 C   0  0  0  0  0  0  0  0  0  0  0  0
  -10.1370   -2.0700  -23.0910 C   0  0  0  0  0  0  0  0  0  0  0  0
   -9.1440   -1.6400  -24.1680 C   0  0  0  0  0  0  0  0  0  0  0  0
   -8.9850   -2.3680  -25.3700 C   0  0  0  0  0  0  0  0  0  0  0  0
   -8.0380   -1.9550  -26.3270 C   0  0  0  0  0  0  0  0  0  0  0  0
   -7.2570   -0.8340  -26.1040 C   0  0  0  0  0  0  0  0  0  0  0  0
   -7.3980   -0.1020  -24.9310 C   0  0  0  0  0  0  0  0  0  0  0  0
   -8.3560   -0.5030  -24.0100 C   0  0  0  0  0  0  0  0  0  0  0  0
   -8.5120    0.4160  -22.7620 N   0  3  0  0  0  0  0  0  0  0  0  0
   -9.6720    1.4520  -22.8750 C   0  0  0  0  0  0  0  0  0  0  0  0
   -9.4140    2.3510  -24.0410 C   0  0  0  0  0  0  0  0  0  0  0  0
  -10.0840    2.1650  -25.2500 C   0  0  0  0  0  0  0  0  0  0  0  0
   -9.8290    2.9990  -26.3310 C   0  0  0  0  0  0  0  0  0  0  0  0
   -8.9060    4.0330  -26.2150 C   0  0  0  0  0  0  0  0  0  0  0  0
   -8.2380    4.2100  -25.0080 C   0  0  0  0  0  0  0  0  0  0  0  0
   -7.0770    5.5000  -24.8530 Cl  0  0  0  0  0  0  0  0  0  0  0  0
   -8.4730    3.3770  -23.9240 C   0  0  0  0  0  0  0  0  0  0  0  0
   -7.9290    3.5280  -22.9900 H   0  0  0  0  0  0  0  0  0  0  0  0
   -8.6970    4.6890  -27.0530 H   0  0  0  0  0  0  0  0  0  0  0  0
  -10.3480    2.8390  -27.2720 H   0  0  0  0  0  0  0  0  0  0  0  0
  -10.7920    1.3420  -25.3340 H   0  0  0  0  0  0  0  0  0  0  0  0
   -9.7070    2.0060  -21.9340 H   0  0  0  0  0  0  0  0  0  0  0  0
  -10.6080    0.9010  -22.9990 H   0  0  0  0  0  0  0  0  0  0  0  0
   -8.5400   -0.2650  -21.4910 C   0  0  0  0  0  0  0  0  0  0  0  0
   -9.4110   -0.0180  -20.6940 O   0  0  0  0  0  0  0  0  0  0  0  0
   -7.4570   -1.3100  -21.2500 C   0  0  0  0  0  0  0  0  0  0  0  0
   -6.5400   -0.8270  -20.1640 C   0  0  0  0  0  0  0  0  0  0  0  0
   -6.8590   -1.0420  -18.8500 C   0  0  0  0  0  0  0  0  0  0  0  0
   -6.1680   -0.5430  -17.7950 N   0  0  0  0  0  0  0  0  0  0  0  0
   -5.1320    0.2090  -18.0630 C   0  0  0  0  0  0  0  0  0  0  0  0
   -4.6870    0.5210  -19.3760 C   0  0  0  0  0  0  0  0  0  0  0  0
   -3.5720    1.3630  -19.6180 C   0  0  0  0  0  0  0  0  0  0  0  0
   -3.1920    1.6610  -20.8950 C   0  0  0  0  0  0  0  0  0  0  0  0
   -3.9020    1.1220  -21.9930 C   0  0  0  0  0  0  0  0  0  0  0  0
   -4.9780    0.2940  -21.7840 C   0  0  0  0  0  0  0  0  0  0  0  0
   -5.4090   -0.0180  -20.4680 C   0  0  0  0  0  0  0  0  0  0  0  0
   -5.5030   -0.1140  -22.6470 H   0  0  0  0  0  0  0  0  0  0  0  0
   -3.5980    1.3740  -23.0050 H   0  0  0  0  0  0  0  0  0  0  0  0
   -2.3520    2.3240  -21.0820 H   0  0  0  0  0  0  0  0  0  0  0  0
   -3.0370    1.7730  -18.7640 H   0  0  0  0  0  0  0  0  0  0  0  0
   -4.5840    0.6170  -17.2120 H   0  0  0  0  0  0  0  0  0  0  0  0
   -7.7360   -1.6360  -18.5970 H   0  0  0  0  0  0  0  0  0  0  0  0
   -6.9280   -1.5350  -22.1780 H   0  0  0  0  0  0  0  0  0  0  0  0
   -7.9760   -2.2210  -20.9310 H   0  0  0  0  0  0  0  0  0  0  0  0
   -7.6300    0.9960  -22.7990 H   0  0  0  0  0  0  0  0  0  0  0  0
   -6.8280    0.8110  -24.7670 H   0  0  0  0  0  0  0  0  0  0  0  0
   -6.5440   -0.5190  -26.8610 H   0  0  0  0  0  0  0  0  0  0  0  0
   -7.9300   -2.5070  -27.2500 H   0  0  0  0  0  0  0  0  0  0  0  0
  -10.6650   -1.1950  -22.6960 H   0  0  0  0  0  0  0  0  0  0  0  0
   -9.6020   -2.5180  -22.2410 H   0  0  0  0  0  0  0  0  0  0  0  0
  -11.8280   -2.4660  -24.2550 H   0  0  0  0  0  0  0  0  0  0  0  0
  -11.7390   -3.5190  -22.8460 H   0  0  0  0  0  0  0  0  0  0  0  0
  -11.0870   -4.9150  -24.7200 H   0  0  0  0  0  0  0  0  0  0  0  0
   -9.6390   -4.5860  -23.7520 H   0  0  0  0  0  0  0  0  0  0  0  0
  -10.1870   -6.1830  -26.1320 H   0  0  0  0  0  0  0  0  0  0  0  0
  -10.6980   -5.1590  -28.9780 H   0  0  0  0  0  0  0  0  0  0  0  0
  -10.9940   -6.9230  -28.4220 H   0  0  0  0  0  0  0  0  0  0  0  0
  1  2  2  0  0  0  0
  1 62  1  0  0  0  0
  1 63  1  0  0  0  0
  2  3  1  0  0  0  0
  2 61  1  0  0  0  0
  3  4  2  0  0  0  0
  3  5  1  0  0  0  0
  5  6  1  0  0  0  0
  5 10  1  0  0  0  0
  6  7  1  0  0  0  0
  6 59  1  0  0  0  0
  6 60  1  0  0  0  0
  7  8  1  0  0  0  0
  7 57  1  0  0  0  0
  7 58  1  0  0  0  0
  8  9  1  0  0  0  0
  8 55  1  0  0  0  0
  8 56  1  0  0  0  0
  9 10  2  0  0  0  0
  9 14  1  0  0  0  0
 10 11  1  0  0  0  0
 11 12  2  0  0  0  0
 11 54  1  0  0  0  0
 12 13  1  0  0  0  0
 12 53  1  0  0  0  0
 13 14  2  0  0  0  0
 13 52  1  0  0  0  0
 14 15  1  0  0  0  0
 15 16  1  0  0  0  0
 15 30  1  0  0  0  0
 15 51  1  0  0  0  0
 16 17  1  0  0  0  0
 16 28  1  0  0  0  0
 16 29  1  0  0  0  0
 17 18  2  0  0  0  0
 17 23  1  0  0  0  0
 18 19  1  0  0  0  0
 18 27  1  0  0  0  0
 19 20  2  0  0  0  0
 19 26  1  0  0  0  0
 20 21  1  0  0  0  0
 20 25  1  0  0  0  0
 21 22  1  0  0  0  0
 21 23  2  0  0  0  0
 23 24  1  0  0  0  0
 30 31  2  0  0  0  0
 30 32  1  0  0  0  0
 32 33  1  0  0  0  0
 32 49  1  0  0  0  0
 32 50  1  0  0  0  0
 33 34  2  0  0  0  0
 33 42  1  0  0  0  0
 34 35  1  0  0  0  0
 34 48  1  0  0  0  0
 35 36  2  0  0  0  0
 36 37  1  0  0  0  0
 36 47  1  0  0  0  0
 37 38  2  0  0  0  0
 37 42  1  0  0  0  0
 38 39  1  0  0  0  0
 38 46  1  0  0  0  0
 39 40  2  0  0  0  0
 39 45  1  0  0  0  0
 40 41  1  0  0  0  0
 40 44  1  0  0  0  0
 41 42  2  0  0  0  0
 41 43  1  0  0  0  0
M  CHG  1  15   1
M  END
>  <MODEL>
       1

$$$$
