output/tmp_first_model_19_32.pdb
 OpenBabel07242623063D

 57 62  0  0  1  0  0  0  0  0999 V2000
   -8.0900   -4.0950  -23.7750 C   0  0  0  0  0  0  0  0  0  0  0  0
   -8.3110   -3.2200  -22.5430 C   0  0  1  0  0  0  0  0  0  0  0  0
   -7.0350   -2.4690  -22.1220 C   0  0  0  0  0  0  0  0  0  0  0  0
   -7.5210   -1.3160  -21.3820 N   0  0  0  0  0  0  0  0  0  0  0  0
   -6.7790   -0.7680  -20.3010 C   0  0  0  0  0  0  0  0  0  0  0  0
   -7.1280   -1.0210  -18.9930 C   0  0  0  0  0  0  0  0  0  0  0  0
   -6.4030   -0.6190  -17.9190 N   0  0  0  0  0  0  0  0  0  0  0  0
   -5.3170    0.0850  -18.1310 C   0  0  0  0  0  0  0  0  0  0  0  0
   -4.8410    0.4300  -19.4290 C   0  0  0  0  0  0  0  0  0  0  0  0
   -3.6790    1.2240  -19.6330 C   0  0  0  0  0  0  0  0  0  0  0  0
   -3.2370    1.4950  -20.9000 C   0  0  0  0  0  0  0  0  0  0  0  0
   -3.9090    0.9560  -22.0190 C   0  0  0  0  0  0  0  0  0  0  0  0
   -5.0370    0.1940  -21.8460 C   0  0  0  0  0  0  0  0  0  0  0  0
   -5.5590   -0.0520  -20.5490 C   0  0  0  0  0  0  0  0  0  0  0  0
   -5.5460   -0.2270  -22.7090 H   0  0  0  0  0  0  0  0  0  0  0  0
   -3.5340    1.1450  -23.0210 H   0  0  0  0  0  0  0  0  0  0  0  0
   -2.3640    2.1230  -21.0560 H   0  0  0  0  0  0  0  0  0  0  0  0
   -3.1570    1.6220  -18.7660 H   0  0  0  0  0  0  0  0  0  0  0  0
   -4.7410    0.4020  -17.2560 H   0  0  0  0  0  0  0  0  0  0  0  0
   -8.0200   -1.6010  -18.7590 H   0  0  0  0  0  0  0  0  0  0  0  0
   -8.8660   -1.0820  -21.6000 C   0  0  0  0  0  0  0  0  0  0  0  0
   -9.5120   -0.2270  -21.0330 O   0  0  0  0  0  0  0  0  0  0  0  0
   -9.3790   -2.0890  -22.6820 C   0  0  1  0  0  0  0  0  0  0  0  0
   -9.2950   -1.4600  -24.0980 C   0  0  0  0  0  0  0  0  0  0  0  0
  -10.3440   -0.4930  -24.3840 N   0  0  0  0  0  0  0  0  0  0  0  0
   -9.9330    0.7050  -25.1010 C   0  0  0  0  0  0  0  0  0  0  0  0
   -9.1440    1.5700  -24.1670 C   0  0  0  0  0  0  0  0  0  0  0  0
   -7.8330    1.6900  -24.1390 N   0  0  0  0  0  0  0  0  0  0  0  0
   -7.5480    2.3870  -23.0190 N   0  0  0  0  0  0  0  0  0  0  0  0
   -8.6250    2.6810  -22.3820 N   0  0  0  0  0  0  0  0  0  0  0  0
   -9.6520    2.1810  -23.0830 N   0  0  0  0  0  0  0  0  0  0  0  0
  -11.0070    2.3650  -22.5650 C   0  0  0  0  0  0  0  0  0  0  0  0
  -11.1870    1.6510  -21.7580 H   0  0  0  0  0  0  0  0  0  0  0  0
  -11.7250    2.2060  -23.3740 H   0  0  0  0  0  0  0  0  0  0  0  0
  -11.0820    3.3870  -22.1760 H   0  0  0  0  0  0  0  0  0  0  0  0
  -10.8320    1.1800  -25.5010 H   0  0  0  0  0  0  0  0  0  0  0  0
   -9.2840    0.4260  -25.9330 H   0  0  0  0  0  0  0  0  0  0  0  0
  -11.6310   -0.6160  -23.9570 C   0  0  0  0  0  0  0  0  0  0  0  0
  -12.5370    0.1080  -24.3620 O   0  0  0  0  0  0  0  0  0  0  0  0
  -11.8770   -1.6840  -22.9410 C   0  0  0  0  0  0  0  0  0  0  0  0
  -13.1940   -1.8550  -22.5110 C   0  0  0  0  0  0  0  0  0  0  0  0
  -13.5110   -2.8660  -21.6280 C   0  0  0  0  0  0  0  0  0  0  0  0
  -12.4860   -3.7060  -21.2140 C   0  0  0  0  0  0  0  0  0  0  0  0
  -12.7660   -4.6530  -20.3020 F   0  0  0  0  0  0  0  0  0  0  0  0
  -11.1750   -3.5550  -21.6180 C   0  0  0  0  0  0  0  0  0  0  0  0
  -10.8260   -2.4790  -22.4410 C   0  0  0  0  0  0  0  0  0  0  0  0
  -10.4450   -4.2310  -21.1890 H   0  0  0  0  0  0  0  0  0  0  0  0
  -14.5160   -3.0550  -21.2700 H   0  0  0  0  0  0  0  0  0  0  0  0
  -13.9440   -1.1540  -22.8680 H   0  0  0  0  0  0  0  0  0  0  0  0
   -8.3310   -0.9480  -24.1980 H   0  0  0  0  0  0  0  0  0  0  0  0
   -9.3570   -2.2660  -24.8360 H   0  0  0  0  0  0  0  0  0  0  0  0
   -6.4830   -2.1670  -23.0230 H   0  0  0  0  0  0  0  0  0  0  0  0
   -6.3530   -3.0480  -21.4950 H   0  0  0  0  0  0  0  0  0  0  0  0
   -8.5990   -3.8530  -21.7000 H   0  0  0  0  0  0  0  0  0  0  0  0
   -7.4070   -4.9250  -23.5730 H   0  0  0  0  0  0  0  0  0  0  0  0
   -9.0230   -4.5190  -24.1610 H   0  0  0  0  0  0  0  0  0  0  0  0
   -7.6460   -3.5080  -24.5860 H   0  0  0  0  0  0  0  0  0  0  0  0
  1  2  1  0  0  0  0
  1 55  1  0  0  0  0
  1 56  1  0  0  0  0
  1 57  1  0  0  0  0
  2  3  1  0  0  0  0
  2 23  1  0  0  0  0
  2 54  1  1  0  0  0
  3  4  1  0  0  0  0
  3 52  1  0  0  0  0
  3 53  1  0  0  0  0
  4  5  1  0  0  0  0
  4 21  1  0  0  0  0
  5  6  2  0  0  0  0
  5 14  1  0  0  0  0
  6  7  1  0  0  0  0
  6 20  1  0  0  0  0
  7  8  2  0  0  0  0
  8  9  1  0  0  0  0
  8 19  1  0  0  0  0
  9 10  2  0  0  0  0
  9 14  1  0  0  0  0
 10 11  1  0  0  0  0
 10 18  1  0  0  0  0
 11 12  2  0  0  0  0
 11 17  1  0  0  0  0
 12 13  1  0  0  0  0
 12 16  1  0  0  0  0
 13 14  2  0  0  0  0
 13 15  1  0  0  0  0
 21 22  2  0  0  0  0
 23 21  1  1  0  0  0
 23 24  1  0  0  0  0
 23 46  1  0  0  0  0
 24 25  1  0  0  0  0
 24 50  1  0  0  0  0
 24 51  1  0  0  0  0
 25 26  1  0  0  0  0
 25 38  1  0  0  0  0
 26 27  1  0  0  0  0
 26 36  1  0  0  0  0
 26 37  1  0  0  0  0
 27 28  2  0  0  0  0
 27 31  1  0  0  0  0
 28 29  1  0  0  0  0
 29 30  2  0  0  0  0
 30 31  1  0  0  0  0
 31 32  1  0  0  0  0
 32 33  1  0  0  0  0
 32 34  1  0  0  0  0
 32 35  1  0  0  0  0
 38 39  2  0  0  0  0
 38 40  1  0  0  0  0
 40 41  2  0  0  0  0
 40 46  1  0  0  0  0
 41 42  1  0  0  0  0
 41 49  1  0  0  0  0
 42 43  2  0  0  0  0
 42 48  1  0  0  0  0
 43 44  1  0  0  0  0
 43 45  1  0  0  0  0
 45 46  2  0  0  0  0
 45 47  1  0  0  0  0
M  END
>  <MODEL>
       1

$$$$
