output/tmp_first_model_3_24.pdb
 OpenBabel07242614263D

 65 70  0  0  1  0  0  0  0  0999 V2000
   -9.7640    3.1510  -25.9570 O   0  0  0  0  0  0  0  0  0  0  0  0
  -10.0790    2.3610  -25.0740 C   0  0  0  0  0  0  0  0  0  0  0  0
  -10.8500    1.0820  -25.4260 C   0  0  0  0  0  0  0  0  0  0  0  0
  -10.5480   -0.0670  -24.5370 N   0  3  1  0  0  0  0  0  0  0  0  0
  -11.5810   -1.1610  -24.5290 C   0  0  0  0  0  0  0  0  0  0  0  0
  -11.1890   -2.2360  -23.5350 C   0  0  0  0  0  0  0  0  0  0  0  0
  -12.1180   -2.8990  -22.7310 C   0  0  0  0  0  0  0  0  0  0  0  0
  -11.7180   -3.8290  -21.7700 C   0  0  0  0  0  0  0  0  0  0  0  0
  -10.3580   -4.1190  -21.6710 C   0  0  0  0  0  0  0  0  0  0  0  0
   -9.5520   -4.9550  -20.3600 Cl  0  0  0  0  0  0  0  0  0  0  0  0
   -9.4560   -3.5850  -22.5640 C   0  0  0  0  0  0  0  0  0  0  0  0
   -9.8290   -2.5220  -23.3680 C   0  0  0  0  0  0  0  0  0  0  0  0
   -8.7510   -1.5200  -23.7220 C   0  0  2  0  0  0  0  0  0  0  0  0
   -7.3570   -2.1400  -23.9100 C   0  0  0  0  0  0  0  0  0  0  0  0
   -6.6670   -2.0250  -22.5400 C   0  0  0  0  0  0  0  0  0  0  0  0
   -7.3030   -0.8460  -21.9690 N   0  0  0  0  0  0  0  0  0  0  0  0
   -6.8270   -0.3470  -20.7400 C   0  0  0  0  0  0  0  0  0  0  0  0
   -7.4410   -0.6320  -19.5480 C   0  0  0  0  0  0  0  0  0  0  0  0
   -6.9160   -0.3220  -18.3360 N   0  0  0  0  0  0  0  0  0  0  0  0
   -5.7530    0.2840  -18.3180 C   0  0  0  0  0  0  0  0  0  0  0  0
   -5.0140    0.6420  -19.4830 C   0  0  0  0  0  0  0  0  0  0  0  0
   -3.7470    1.2850  -19.4360 C   0  0  0  0  0  0  0  0  0  0  0  0
   -3.0810    1.5930  -20.5940 C   0  0  0  0  0  0  0  0  0  0  0  0
   -3.6400    1.2770  -21.8520 C   0  0  0  0  0  0  0  0  0  0  0  0
   -4.8660    0.6660  -21.9190 C   0  0  0  0  0  0  0  0  0  0  0  0
   -5.5700    0.3230  -20.7350 C   0  0  0  0  0  0  0  0  0  0  0  0
   -5.3200    0.4440  -22.8770 H   0  0  0  0  0  0  0  0  0  0  0  0
   -3.1090    1.5240  -22.7680 H   0  0  0  0  0  0  0  0  0  0  0  0
   -2.1160    2.0900  -20.5580 H   0  0  0  0  0  0  0  0  0  0  0  0
   -3.3270    1.5480  -18.4690 H   0  0  0  0  0  0  0  0  0  0  0  0
   -5.3480    0.5330  -17.3380 H   0  0  0  0  0  0  0  0  0  0  0  0
   -8.3760   -1.1800  -19.5370 H   0  0  0  0  0  0  0  0  0  0  0  0
   -8.5440   -0.6180  -22.4850 C   0  0  0  0  0  0  0  0  0  0  0  0
   -9.3730    0.1770  -22.0540 O   0  0  0  0  0  0  0  0  0  0  0  0
   -5.5840   -1.8850  -22.6010 H   0  0  0  0  0  0  0  0  0  0  0  0
   -6.8410   -2.8900  -21.8810 H   0  0  0  0  0  0  0  0  0  0  0  0
   -6.8030   -1.5530  -24.6510 H   0  0  0  0  0  0  0  0  0  0  0  0
   -7.4150   -3.1720  -24.2640 H   0  0  0  0  0  0  0  0  0  0  0  0
   -9.2130   -0.6630  -24.8890 C   0  0  0  0  0  0  0  0  0  0  0  0
   -9.3270   -1.2720  -25.7900 H   0  0  0  0  0  0  0  0  0  0  0  0
   -8.4890    0.1290  -25.0930 H   0  0  0  0  0  0  0  0  0  0  0  0
   -8.4430   -3.9620  -22.5260 H   0  0  0  0  0  0  0  0  0  0  0  0
  -12.4670   -4.2860  -21.1320 H   0  0  0  0  0  0  0  0  0  0  0  0
  -13.1760   -2.6470  -22.7930 H   0  0  0  0  0  0  0  0  0  0  0  0
  -12.5540   -0.7240  -24.2860 H   0  0  0  0  0  0  0  0  0  0  0  0
  -11.6490   -1.5630  -25.5470 H   0  0  0  0  0  0  0  0  0  0  0  0
  -10.4820    0.2260  -23.5450 H   0  0  0  0  0  0  0  0  0  0  0  0
  -11.9220    1.3050  -25.4060 H   0  0  0  0  0  0  0  0  0  0  0  0
  -10.5700    0.8440  -26.4540 H   0  0  0  0  0  0  0  0  0  0  0  0
   -9.8210    2.5710  -23.7540 N   0  0  0  0  0  0  0  0  0  0  0  0
   -9.3860    3.8650  -23.2610 C   0  0  0  0  0  0  0  0  0  0  0  0
  -10.5440    4.7950  -22.8720 C   0  0  1  0  0  0  0  0  0  0  0  0
  -11.4910    5.1900  -24.0390 C   0  0  0  0  0  0  0  0  0  0  0  0
  -12.5880    4.2830  -23.4640 C   0  0  1  0  0  0  0  0  0  0  0  0
  -12.7410    3.1030  -24.1820 F   0  0  0  0  0  0  0  0  0  0  0  0
  -11.7550    4.0930  -22.1870 C   0  0  0  0  0  0  0  0  0  0  0  0
  -12.1740    4.6420  -21.3420 H   0  0  0  0  0  0  0  0  0  0  0  0
  -11.6000    3.0530  -21.8890 H   0  0  0  0  0  0  0  0  0  0  0  0
  -13.5810    4.7190  -23.3290 H   0  0  0  0  0  0  0  0  0  0  0  0
  -11.7640    6.2470  -24.0230 H   0  0  0  0  0  0  0  0  0  0  0  0
  -11.1510    4.9300  -25.0430 H   0  0  0  0  0  0  0  0  0  0  0  0
  -10.1230    5.6490  -22.3240 H   0  0  0  0  0  0  0  0  0  0  0  0
   -8.7230    3.7090  -22.3940 H   0  0  0  0  0  0  0  0  0  0  0  0
   -8.7980    4.3240  -24.0630 H   0  0  0  0  0  0  0  0  0  0  0  0
   -9.9340    1.8560  -23.0470 H   0  0  0  0  0  0  0  0  0  0  0  0
  1  2  2  0  0  0  0
  2  3  1  0  0  0  0
  2 50  1  0  0  0  0
  3  4  1  0  0  0  0
  3 48  1  0  0  0  0
  3 49  1  0  0  0  0
  4  5  1  0  0  0  0
  4 39  1  0  0  0  0
  4 47  1  1  0  0  0
  5  6  1  0  0  0  0
  5 45  1  0  0  0  0
  5 46  1  0  0  0  0
  6  7  2  0  0  0  0
  6 12  1  0  0  0  0
  7  8  1  0  0  0  0
  7 44  1  0  0  0  0
  8  9  2  0  0  0  0
  8 43  1  0  0  0  0
  9 10  1  0  0  0  0
  9 11  1  0  0  0  0
 11 12  2  0  0  0  0
 11 42  1  0  0  0  0
 13 12  1  1  0  0  0
 13 14  1  0  0  0  0
 13 33  1  0  0  0  0
 13 39  1  0  0  0  0
 14 15  1  0  0  0  0
 14 37  1  0  0  0  0
 14 38  1  0  0  0  0
 15 16  1  0  0  0  0
 15 35  1  0  0  0  0
 15 36  1  0  0  0  0
 16 17  1  0  0  0  0
 16 33  1  0  0  0  0
 17 18  2  0  0  0  0
 17 26  1  0  0  0  0
 18 19  1  0  0  0  0
 18 32  1  0  0  0  0
 19 20  2  0  0  0  0
 20 21  1  0  0  0  0
 20 31  1  0  0  0  0
 21 22  2  0  0  0  0
 21 26  1  0  0  0  0
 22 23  1  0  0  0  0
 22 30  1  0  0  0  0
 23 24  2  0  0  0  0
 23 29  1  0  0  0  0
 24 25  1  0  0  0  0
 24 28  1  0  0  0  0
 25 26  2  0  0  0  0
 25 27  1  0  0  0  0
 33 34  2  0  0  0  0
 39 40  1  0  0  0  0
 39 41  1  0  0  0  0
 50 51  1  0  0  0  0
 50 65  1  0  0  0  0
 51 52  1  0  0  0  0
 51 63  1  0  0  0  0
 51 64  1  0  0  0  0
 52 53  1  0  0  0  0
 52 56  1  0  0  0  0
 52 62  1  1  0  0  0
 53 54  1  0  0  0  0
 53 60  1  0  0  0  0
 53 61  1  0  0  0  0
 54 55  1  0  0  0  0
 54 56  1  0  0  0  0
 54 59  1  1  0  0  0
 56 57  1  0  0  0  0
 56 58  1  0  0  0  0
M  CHG  1   4   1
M  END
>  <MODEL>
       1

$$$$
