output/tmp_first_model_11_35.pdb
 OpenBabel07242618513D

 40 42  0  0  0  0  0  0  0  0999 V2000
   -9.1160   -1.8040  -22.8010 O   0  0  0  0  0  0  0  0  0  0  0  0
   -8.1870   -1.0700  -22.4840 C   0  0  0  0  0  0  0  0  0  0  0  0
   -6.8320   -1.6220  -22.0660 C   0  0  0  0  0  0  0  0  0  0  0  0
   -6.2940   -0.9520  -20.8110 C   0  0  0  0  0  0  0  0  0  0  0  0
   -6.9740   -1.0940  -19.6240 C   0  0  0  0  0  0  0  0  0  0  0  0
   -6.6480   -0.4970  -18.4500 N   0  0  0  0  0  0  0  0  0  0  0  0
   -5.5950    0.2870  -18.4490 C   0  0  0  0  0  0  0  0  0  0  0  0
   -4.7650    0.5020  -19.5850 C   0  0  0  0  0  0  0  0  0  0  0  0
   -3.6240    1.3470  -19.5490 C   0  0  0  0  0  0  0  0  0  0  0  0
   -2.8560    1.5350  -20.6660 C   0  0  0  0  0  0  0  0  0  0  0  0
   -3.2010    0.9010  -21.8780 C   0  0  0  0  0  0  0  0  0  0  0  0
   -4.3110    0.0910  -21.9430 C   0  0  0  0  0  0  0  0  0  0  0  0
   -5.1150   -0.1450  -20.7990 C   0  0  0  0  0  0  0  0  0  0  0  0
   -4.6020   -0.3320  -22.9010 H   0  0  0  0  0  0  0  0  0  0  0  0
   -2.5970    1.0640  -22.7640 H   0  0  0  0  0  0  0  0  0  0  0  0
   -1.9820    2.1780  -20.6310 H   0  0  0  0  0  0  0  0  0  0  0  0
   -3.3860    1.8540  -18.6170 H   0  0  0  0  0  0  0  0  0  0  0  0
   -5.3530    0.7890  -17.5110 H   0  0  0  0  0  0  0  0  0  0  0  0
   -7.8480   -1.7460  -19.5760 H   0  0  0  0  0  0  0  0  0  0  0  0
   -7.0010   -2.6870  -21.8920 H   0  0  0  0  0  0  0  0  0  0  0  0
   -6.1310   -1.5460  -22.9020 H   0  0  0  0  0  0  0  0  0  0  0  0
   -8.2290    0.3010  -22.4350 N   0  0  0  0  0  0  0  0  0  0  0  0
   -9.4150    0.9280  -21.7990 C   0  0  0  0  0  0  0  0  0  0  0  0
   -9.3960    1.0850  -21.9710 C   0  0  0  0  0  0  0  0  0  0  0  0
   -9.0660    2.8680  -23.7000 C   0  0  0  0  0  0  0  0  0  0  0  0
   -8.2910    5.5370  -23.1920 C   0  0  0  0  0  0  0  0  0  0  0  0
   -7.2470    5.8660  -23.9240 F   0  0  0  0  0  0  0  0  0  0  0  0
   -9.2340    6.4490  -23.2710 F   0  0  0  0  0  0  0  0  0  0  0  0
   -7.9480    5.3190  -21.9410 F   0  0  0  0  0  0  0  0  0  0  0  0
   -7.8130    2.4360  -23.7260 C   0  0  0  0  0  0  0  0  0  0  0  0
   -7.2540    1.1570  -23.1810 C   0  0  0  0  0  0  0  0  0  0  0  0
   -6.8150    0.5600  -23.9800 H   0  0  0  0  0  0  0  0  0  0  0  0
   -6.4470    1.4420  -22.5030 H   0  0  0  0  0  0  0  0  0  0  0  0
   -9.8880    2.2030  -23.5490 H   0  0  0  0  0  0  0  0  0  0  0  0
   -7.0400    3.0890  -24.1190 H   0  0  0  0  0  0  0  0  0  0  0  0
   -9.2420    3.9290  -23.8690 H   0  0  0  0  0  0  0  0  0  0  0  0
  -10.3100    1.8480  -21.7050 H   0  0  0  0  0  0  0  0  0  0  0  0
   -8.6750    1.9130  -21.4240 H   0  0  0  0  0  0  0  0  0  0  0  0
   -9.7730    0.0380  -20.5670 H   0  0  0  0  0  0  0  0  0  0  0  0
  -10.1660    0.6070  -22.7910 H   0  0  0  0  0  0  0  0  0  0  0  0
  1  2  2  0  0  0  0
  2  3  1  0  0  0  0
  2 22  1  0  0  0  0
  3  4  1  0  0  0  0
  3 20  1  0  0  0  0
  3 21  1  0  0  0  0
  4  5  2  0  0  0  0
  4 13  1  0  0  0  0
  5  6  1  0  0  0  0
  5 19  1  0  0  0  0
  6  7  2  0  0  0  0
  7  8  1  0  0  0  0
  7 18  1  0  0  0  0
  8  9  2  0  0  0  0
  8 13  1  0  0  0  0
  9 10  1  0  0  0  0
  9 17  1  0  0  0  0
 10 11  2  0  0  0  0
 10 16  1  0  0  0  0
 11 12  1  0  0  0  0
 11 15  1  0  0  0  0
 12 13  2  0  0  0  0
 12 14  1  0  0  0  0
 22 23  1  0  0  0  0
 22 31  1  0  0  0  0
 23 24  1  0  0  0  0
 23 39  1  0  0  0  0
 23 40  1  0  0  0  0
 24 25  1  0  0  0  0
 24 37  1  0  0  0  0
 24 38  1  0  0  0  0
 25 26  1  0  0  0  0
 25 30  1  0  0  0  0
 25 36  1  0  0  0  0
 26 27  1  0  0  0  0
 26 28  1  0  0  0  0
 26 29  1  0  0  0  0
 30 31  1  0  0  0  0
 30 34  1  0  0  0  0
 30 35  1  0  0  0  0
 31 32  1  0  0  0  0
 31 33  1  0  0  0  0
M  END
>  <MODEL>
       1

$$$$
