output/tmp_first_model_17_9.pdb
 OpenBabel07242622053D

 41 43  0  0  1  0  0  0  0  0999 V2000
  -10.0080    0.4500  -24.9120 C   0  0  0  0  0  0  0  0  0  0  0  0
  -10.1760    1.6400  -24.0310 C   0  0  1  0  0  0  0  0  0  0  0  0
  -11.4260    1.9450  -23.5960 C   0  0  0  0  0  0  0  0  0  0  0  0
  -11.5910    1.7090  -23.3370 C   0  0  0  0  0  0  0  0  0  0  0  0
   -9.9270    0.4720  -21.4830 C   0  0  0  0  0  0  0  0  0  0  0  0
   -8.6930    0.1620  -21.8100 N   0  0  0  0  0  0  0  0  0  0  0  0
   -8.3760   -1.2310  -21.7260 C   0  0  0  0  0  0  0  0  0  0  0  0
   -9.2540   -2.0580  -21.8400 O   0  0  0  0  0  0  0  0  0  0  0  0
   -6.9380   -1.6310  -21.4550 C   0  0  0  0  0  0  0  0  0  0  0  0
   -6.2930   -0.8700  -20.3240 C   0  0  0  0  0  0  0  0  0  0  0  0
   -6.7170   -1.0750  -19.0350 C   0  0  0  0  0  0  0  0  0  0  0  0
   -6.1640   -0.5050  -17.9370 N   0  0  0  0  0  0  0  0  0  0  0  0
   -5.1490    0.3010  -18.1200 C   0  0  0  0  0  0  0  0  0  0  0  0
   -4.6220    0.6330  -19.3990 C   0  0  0  0  0  0  0  0  0  0  0  0
   -3.5180    1.5090  -19.5580 C   0  0  0  0  0  0  0  0  0  0  0  0
   -3.0810    1.8500  -20.8070 C   0  0  0  0  0  0  0  0  0  0  0  0
   -3.7280    1.3340  -21.9500 C   0  0  0  0  0  0  0  0  0  0  0  0
   -4.7800    0.4610  -21.8210 C   0  0  0  0  0  0  0  0  0  0  0  0
   -5.2420    0.0670  -20.5390 C   0  0  0  0  0  0  0  0  0  0  0  0
   -5.2650    0.0830  -22.7170 H   0  0  0  0  0  0  0  0  0  0  0  0
   -3.3760    1.6120  -22.9380 H   0  0  0  0  0  0  0  0  0  0  0  0
   -2.2350    2.5200  -20.9340 H   0  0  0  0  0  0  0  0  0  0  0  0
   -3.0350    1.9030  -18.6670 H   0  0  0  0  0  0  0  0  0  0  0  0
   -4.6980    0.7460  -17.2320 H   0  0  0  0  0  0  0  0  0  0  0  0
   -7.5430   -1.7540  -18.8320 H   0  0  0  0  0  0  0  0  0  0  0  0
   -6.3540   -1.5550  -22.3740 H   0  0  0  0  0  0  0  0  0  0  0  0
   -7.0100   -2.6980  -21.2170 H   0  0  0  0  0  0  0  0  0  0  0  0
   -7.9990    1.2180  -22.6370 C   0  0  0  0  0  0  0  0  0  0  0  0
   -9.0270    2.2010  -23.2510 C   0  0  0  0  0  0  0  0  0  0  0  0
   -8.4210    2.8600  -23.9060 H   0  0  0  0  0  0  0  0  0  0  0  0
   -9.3360    2.8860  -22.4510 H   0  0  0  0  0  0  0  0  0  0  0  0
   -7.4240    0.7220  -23.4250 H   0  0  0  0  0  0  0  0  0  0  0  0
   -7.2910    1.7690  -22.0000 H   0  0  0  0  0  0  0  0  0  0  0  0
  -10.6140   -0.3460  -21.3170 H   0  0  0  0  0  0  0  0  0  0  0  0
  -10.1290    1.4490  -21.0920 H   0  0  0  0  0  0  0  0  0  0  0  0
  -12.0380    0.7750  -22.7730 H   0  0  0  0  0  0  0  0  0  0  0  0
  -12.3530    2.6730  -23.4240 H   0  0  0  0  0  0  0  0  0  0  0  0
  -10.4920    2.4500  -24.6230 H   0  0  0  0  0  0  0  0  0  0  0  0
   -9.0230    0.4870  -25.4290 H   0  0  0  0  0  0  0  0  0  0  0  0
  -10.7320    0.3350  -25.7520 H   0  0  0  0  0  0  0  0  0  0  0  0
   -9.9880   -0.5390  -24.4010 H   0  0  0  0  0  0  0  0  0  0  0  0
  1  2  1  0  0  0  0
  1 39  1  0  0  0  0
  1 40  1  0  0  0  0
  1 41  1  0  0  0  0
  2  3  1  0  0  0  0
  2 29  1  0  0  0  0
  2 38  1  6  0  0  0
  3  4  2  3  0  0  0
  3 37  1  0  0  0  0
  4  5  1  0  0  0  0
  4 36  1  0  0  0  0
  5  6  1  0  0  0  0
  5 34  1  0  0  0  0
  5 35  1  0  0  0  0
  6  7  1  0  0  0  0
  6 28  1  0  0  0  0
  7  8  2  0  0  0  0
  7  9  1  0  0  0  0
  9 10  1  0  0  0  0
  9 26  1  0  0  0  0
  9 27  1  0  0  0  0
 10 11  2  0  0  0  0
 10 19  1  0  0  0  0
 11 12  1  0  0  0  0
 11 25  1  0  0  0  0
 12 13  2  0  0  0  0
 13 14  1  0  0  0  0
 13 24  1  0  0  0  0
 14 15  2  0  0  0  0
 14 19  1  0  0  0  0
 15 16  1  0  0  0  0
 15 23  1  0  0  0  0
 16 17  2  0  0  0  0
 16 22  1  0  0  0  0
 17 18  1  0  0  0  0
 17 21  1  0  0  0  0
 18 19  2  0  0  0  0
 18 20  1  0  0  0  0
 28 29  1  0  0  0  0
 28 32  1  0  0  0  0
 28 33  1  0  0  0  0
 29 30  1  0  0  0  0
 29 31  1  0  0  0  0
M  END
>  <MODEL>
       1

$$$$
