output/tmp_first_model_15_63.pdb
 OpenBabel07242621043D

 57 61  0  0  1  0  0  0  0  0999 V2000
  -14.5500   -1.6360  -23.6820 C   0  0  0  0  0  0  0  0  0  0  0  0
  -13.6180   -2.6710  -23.2970 N   0  0  0  0  0  0  0  0  0  0  0  0
  -13.3290   -2.9030  -21.9910 C   0  0  0  0  0  0  0  0  0  0  0  0
  -13.8820   -2.3280  -21.0600 O   0  0  0  0  0  0  0  0  0  0  0  0
  -12.3120   -4.0270  -21.7790 C   0  0  0  0  0  0  0  0  0  0  0  0
  -11.0230   -3.8510  -22.4300 N   0  0  0  0  0  0  0  0  0  0  0  0
   -9.9010   -3.3470  -21.6420 C   0  0  0  0  0  0  0  0  0  0  0  0
   -8.7200   -2.8200  -22.4950 C   0  0  2  0  0  0  0  0  0  0  0  0
   -7.5450   -2.6440  -21.5250 C   0  0  0  0  0  0  0  0  0  0  0  0
   -6.8530   -3.5210  -21.0470 O   0  0  0  0  0  0  0  0  0  0  0  0
   -7.3840   -1.3020  -21.2680 N   0  0  0  0  0  0  0  0  0  0  0  0
   -6.5830   -0.8460  -20.2000 C   0  0  0  0  0  0  0  0  0  0  0  0
   -6.9090   -1.1300  -18.9000 C   0  0  0  0  0  0  0  0  0  0  0  0
   -6.2610   -0.6010  -17.8310 N   0  0  0  0  0  0  0  0  0  0  0  0
   -5.2490    0.2010  -18.0700 C   0  0  0  0  0  0  0  0  0  0  0  0
   -4.7800    0.5350  -19.3770 C   0  0  0  0  0  0  0  0  0  0  0  0
   -3.6530    1.3680  -19.6060 C   0  0  0  0  0  0  0  0  0  0  0  0
   -3.2350    1.6290  -20.8840 C   0  0  0  0  0  0  0  0  0  0  0  0
   -3.9210    1.0830  -21.9930 C   0  0  0  0  0  0  0  0  0  0  0  0
   -5.0170    0.2810  -21.7980 C   0  0  0  0  0  0  0  0  0  0  0  0
   -5.4660   -0.0050  -20.4820 C   0  0  0  0  0  0  0  0  0  0  0  0
   -5.5450   -0.1550  -22.6400 H   0  0  0  0  0  0  0  0  0  0  0  0
   -3.5790    1.2970  -23.0010 H   0  0  0  0  0  0  0  0  0  0  0  0
   -2.3660    2.2580  -21.0560 H   0  0  0  0  0  0  0  0  0  0  0  0
   -3.1340    1.7830  -18.7470 H   0  0  0  0  0  0  0  0  0  0  0  0
   -4.7390    0.6310  -17.2070 H   0  0  0  0  0  0  0  0  0  0  0  0
   -7.7370   -1.8000  -18.6710 H   0  0  0  0  0  0  0  0  0  0  0  0
   -8.3800   -0.4510  -21.8970 C   0  0  0  0  0  0  0  0  0  0  0  0
   -8.9150   -1.3490  -23.0210 C   0  0  2  0  0  0  0  0  0  0  0  0
  -10.3210   -0.9900  -23.4990 C   0  0  0  0  0  0  0  0  0  0  0  0
  -11.2320   -0.8880  -22.4150 O   0  0  0  0  0  0  0  0  0  0  0  0
  -11.4340    0.0400  -22.2650 H   0  0  0  0  0  0  0  0  0  0  0  0
  -10.6650   -1.7900  -24.1600 H   0  0  0  0  0  0  0  0  0  0  0  0
  -10.3160   -0.0630  -24.0920 H   0  0  0  0  0  0  0  0  0  0  0  0
   -8.2320   -1.2480  -23.8750 H   0  0  0  0  0  0  0  0  0  0  0  0
   -9.1620   -0.1730  -21.1760 H   0  0  0  0  0  0  0  0  0  0  0  0
   -7.9260    0.4840  -22.2460 H   0  0  0  0  0  0  0  0  0  0  0  0
   -8.4190   -3.8420  -23.5700 C   0  0  0  0  0  0  0  0  0  0  0  0
   -7.1230   -4.0190  -24.0710 C   0  0  0  0  0  0  0  0  0  0  0  0
   -6.8910   -4.9820  -25.0400 C   0  0  0  0  0  0  0  0  0  0  0  0
   -5.2760   -5.1990  -25.6540 Cl  0  0  0  0  0  0  0  0  0  0  0  0
   -7.9150   -5.7870  -25.5380 C   0  0  0  0  0  0  0  0  0  0  0  0
   -9.2030   -5.5720  -25.0880 C   0  0  0  0  0  0  0  0  0  0  0  0
   -9.4520   -4.6180  -24.1070 C   0  0  0  0  0  0  0  0  0  0  0  0
  -10.8550   -4.4670  -23.6330 C   0  0  0  0  0  0  0  0  0  0  0  0
  -11.8220   -4.8470  -24.2970 O   0  0  0  0  0  0  0  0  0  0  0  0
  -10.0530   -6.1140  -25.4880 H   0  0  0  0  0  0  0  0  0  0  0  0
   -7.6960   -6.5820  -26.2430 H   0  0  0  0  0  0  0  0  0  0  0  0
   -6.2920   -3.4510  -23.6640 H   0  0  0  0  0  0  0  0  0  0  0  0
   -9.5030   -4.1330  -20.9960 H   0  0  0  0  0  0  0  0  0  0  0  0
  -10.2570   -2.5420  -21.0000 H   0  0  0  0  0  0  0  0  0  0  0  0
  -12.7670   -4.9160  -22.2230 H   0  0  0  0  0  0  0  0  0  0  0  0
  -12.1820   -4.1910  -20.7100 H   0  0  0  0  0  0  0  0  0  0  0  0
  -13.2000   -3.2530  -24.0140 H   0  0  0  0  0  0  0  0  0  0  0  0
  -14.1090   -0.6320  -23.6090 H   0  0  0  0  0  0  0  0  0  0  0  0
  -15.4260   -1.6610  -23.0310 H   0  0  0  0  0  0  0  0  0  0  0  0
  -14.8620   -1.8190  -24.7130 H   0  0  0  0  0  0  0  0  0  0  0  0
  1  2  1  0  0  0  0
  1 55  1  0  0  0  0
  1 56  1  0  0  0  0
  1 57  1  0  0  0  0
  2  3  1  0  0  0  0
  2 54  1  0  0  0  0
  3  4  2  0  0  0  0
  3  5  1  0  0  0  0
  5  6  1  0  0  0  0
  5 52  1  0  0  0  0
  5 53  1  0  0  0  0
  6  7  1  0  0  0  0
  6 45  1  0  0  0  0
  7  8  1  0  0  0  0
  7 50  1  0  0  0  0
  7 51  1  0  0  0  0
  8  9  1  1  0  0  0
  8 29  1  0  0  0  0
  8 38  1  0  0  0  0
  9 10  2  0  0  0  0
  9 11  1  0  0  0  0
 11 12  1  0  0  0  0
 11 28  1  0  0  0  0
 12 13  2  0  0  0  0
 12 21  1  0  0  0  0
 13 14  1  0  0  0  0
 13 27  1  0  0  0  0
 14 15  2  0  0  0  0
 15 16  1  0  0  0  0
 15 26  1  0  0  0  0
 16 17  2  0  0  0  0
 16 21  1  0  0  0  0
 17 18  1  0  0  0  0
 17 25  1  0  0  0  0
 18 19  2  0  0  0  0
 18 24  1  0  0  0  0
 19 20  1  0  0  0  0
 19 23  1  0  0  0  0
 20 21  2  0  0  0  0
 20 22  1  0  0  0  0
 28 29  1  0  0  0  0
 28 36  1  0  0  0  0
 28 37  1  0  0  0  0
 29 30  1  0  0  0  0
 29 35  1  6  0  0  0
 30 31  1  0  0  0  0
 30 33  1  0  0  0  0
 30 34  1  0  0  0  0
 31 32  1  0  0  0  0
 38 39  2  0  0  0  0
 38 44  1  0  0  0  0
 39 40  1  0  0  0  0
 39 49  1  0  0  0  0
 40 41  1  0  0  0  0
 40 42  2  0  0  0  0
 42 43  1  0  0  0  0
 42 48  1  0  0  0  0
 43 44  2  0  0  0  0
 43 47  1  0  0  0  0
 44 45  1  0  0  0  0
 45 46  2  0  0  0  0
M  END
>  <MODEL>
       1

$$$$
