output/tmp_first_model_10_84.pdb
 OpenBabel07242618173D

 63 68  0  0  1  0  0  0  0  0999 V2000
   -8.3280   -4.2070  -23.4700 C   0  0  0  0  0  0  0  0  0  0  0  0
   -8.5550   -3.0100  -22.5530 C   0  0  1  0  0  0  0  0  0  0  0  0
   -7.3840   -2.7660  -21.5920 C   0  0  0  0  0  0  0  0  0  0  0  0
   -7.4920   -1.3530  -21.2640 N   0  0  0  0  0  0  0  0  0  0  0  0
   -6.7370   -0.7440  -20.2270 C   0  0  0  0  0  0  0  0  0  0  0  0
   -6.9430   -1.1460  -18.9300 C   0  0  0  0  0  0  0  0  0  0  0  0
   -6.2400   -0.7100  -17.8570 N   0  0  0  0  0  0  0  0  0  0  0  0
   -5.2770    0.1520  -18.0790 C   0  0  0  0  0  0  0  0  0  0  0  0
   -4.9500    0.6590  -19.3690 C   0  0  0  0  0  0  0  0  0  0  0  0
   -3.8760    1.5740  -19.5490 C   0  0  0  0  0  0  0  0  0  0  0  0
   -3.5520    2.0270  -20.7980 C   0  0  0  0  0  0  0  0  0  0  0  0
   -4.3050    1.6100  -21.9190 C   0  0  0  0  0  0  0  0  0  0  0  0
   -5.3440    0.7240  -21.7700 C   0  0  0  0  0  0  0  0  0  0  0  0
   -5.6980    0.2170  -20.4860 C   0  0  0  0  0  0  0  0  0  0  0  0
   -5.9100    0.4150  -22.6420 H   0  0  0  0  0  0  0  0  0  0  0  0
   -4.0550    1.9930  -22.9040 H   0  0  0  0  0  0  0  0  0  0  0  0
   -2.7160    2.7080  -20.9380 H   0  0  0  0  0  0  0  0  0  0  0  0
   -3.3310    1.9100  -18.6690 H   0  0  0  0  0  0  0  0  0  0  0  0
   -4.6890    0.4740  -17.2180 H   0  0  0  0  0  0  0  0  0  0  0  0
   -7.7320   -1.8660  -18.7120 H   0  0  0  0  0  0  0  0  0  0  0  0
   -8.3190   -0.6560  -22.1220 C   0  0  0  0  0  0  0  0  0  0  0  0
   -8.5700    0.5270  -22.0160 O   0  0  0  0  0  0  0  0  0  0  0  0
   -8.8200   -1.6180  -23.2290 C   0  0  1  0  0  0  0  0  0  0  0  0
   -7.9700   -1.3430  -24.4940 C   0  0  0  0  0  0  0  0  0  0  0  0
   -8.5670   -1.8280  -25.7340 N   0  0  0  0  0  0  0  0  0  0  0  0
   -7.6810   -2.1790  -26.8330 C   0  0  0  0  0  0  0  0  0  0  0  0
   -7.6230   -3.6980  -27.0550 C   0  0  0  0  0  0  0  0  0  0  0  0
   -6.8090   -4.3950  -26.4670 O   0  0  0  0  0  0  0  0  0  0  0  0
   -8.5590   -4.1790  -27.9130 N   0  0  0  0  0  0  0  0  0  0  0  0
   -8.5020   -5.5730  -28.3140 C   0  0  0  0  0  0  0  0  0  0  0  0
   -7.4980   -5.8100  -29.3410 C   0  0  0  0  0  0  0  0  0  0  0  0
   -6.3670   -5.0580  -29.3200 F   0  0  0  0  0  0  0  0  0  0  0  0
   -7.5750   -6.9320  -30.2860 C   0  0  0  0  0  0  0  0  0  0  0  0
   -7.3880   -6.7800  -30.2790 C   0  0  0  0  0  0  0  0  0  0  0  0
   -6.6090   -7.7190  -29.8760 H   0  0  0  0  0  0  0  0  0  0  0  0
   -8.9160   -7.7940  -29.9050 H   0  0  0  0  0  0  0  0  0  0  0  0
   -6.5840   -6.2840  -31.1010 H   0  0  0  0  0  0  0  0  0  0  0  0
   -7.7590   -6.5380  -31.5290 H   0  0  0  0  0  0  0  0  0  0  0  0
   -8.2450   -6.1250  -27.3990 H   0  0  0  0  0  0  0  0  0  0  0  0
   -9.5030   -5.9210  -28.6190 H   0  0  0  0  0  0  0  0  0  0  0  0
   -9.2780   -3.5530  -28.2400 H   0  0  0  0  0  0  0  0  0  0  0  0
   -8.0110   -1.6790  -27.7470 H   0  0  0  0  0  0  0  0  0  0  0  0
   -6.6750   -1.8410  -26.5760 H   0  0  0  0  0  0  0  0  0  0  0  0
   -9.9000   -1.7730  -26.0050 C   0  0  0  0  0  0  0  0  0  0  0  0
  -10.3420   -2.0010  -27.1320 O   0  0  0  0  0  0  0  0  0  0  0  0
  -10.7870   -1.4620  -24.8480 C   0  0  0  0  0  0  0  0  0  0  0  0
  -12.1520   -1.3160  -25.0930 C   0  0  0  0  0  0  0  0  0  0  0  0
  -13.0380   -1.0910  -24.0570 C   0  0  0  0  0  0  0  0  0  0  0  0
  -12.5220   -1.0400  -22.7670 C   0  0  0  0  0  0  0  0  0  0  0  0
  -13.3770   -0.8530  -21.7520 F   0  0  0  0  0  0  0  0  0  0  0  0
  -11.1770   -1.1950  -22.4910 C   0  0  0  0  0  0  0  0  0  0  0  0
  -10.2800   -1.3930  -23.5450 C   0  0  0  0  0  0  0  0  0  0  0  0
  -10.8250   -1.1630  -21.4660 H   0  0  0  0  0  0  0  0  0  0  0  0
  -14.1050   -0.9700  -24.2200 H   0  0  0  0  0  0  0  0  0  0  0  0
  -12.4920   -1.4060  -26.1190 H   0  0  0  0  0  0  0  0  0  0  0  0
   -6.9970   -1.8370  -24.3900 H   0  0  0  0  0  0  0  0  0  0  0  0
   -7.7860   -0.2600  -24.5560 H   0  0  0  0  0  0  0  0  0  0  0  0
   -6.4160   -2.9870  -22.0690 H   0  0  0  0  0  0  0  0  0  0  0  0
   -7.4550   -3.3830  -20.6900 H   0  0  0  0  0  0  0  0  0  0  0  0
   -9.4480   -3.2070  -21.9390 H   0  0  0  0  0  0  0  0  0  0  0  0
   -9.1700   -4.3560  -24.1530 H   0  0  0  0  0  0  0  0  0  0  0  0
   -7.4230   -4.0950  -24.0790 H   0  0  0  0  0  0  0  0  0  0  0  0
   -8.2210   -5.1150  -22.8660 H   0  0  0  0  0  0  0  0  0  0  0  0
  1  2  1  0  0  0  0
  1 61  1  0  0  0  0
  1 62  1  0  0  0  0
  1 63  1  0  0  0  0
  2  3  1  0  0  0  0
  2 23  1  0  0  0  0
  2 60  1  1  0  0  0
  3  4  1  0  0  0  0
  3 58  1  0  0  0  0
  3 59  1  0  0  0  0
  4  5  1  0  0  0  0
  4 21  1  0  0  0  0
  5  6  2  0  0  0  0
  5 14  1  0  0  0  0
  6  7  1  0  0  0  0
  6 20  1  0  0  0  0
  7  8  2  0  0  0  0
  8  9  1  0  0  0  0
  8 19  1  0  0  0  0
  9 10  2  0  0  0  0
  9 14  1  0  0  0  0
 10 11  1  0  0  0  0
 10 18  1  0  0  0  0
 11 12  2  0  0  0  0
 11 17  1  0  0  0  0
 12 13  1  0  0  0  0
 12 16  1  0  0  0  0
 13 14  2  0  0  0  0
 13 15  1  0  0  0  0
 21 22  2  0  0  0  0
 23 21  1  1  0  0  0
 23 24  1  0  0  0  0
 23 52  1  0  0  0  0
 24 25  1  0  0  0  0
 24 56  1  0  0  0  0
 24 57  1  0  0  0  0
 25 26  1  0  0  0  0
 25 44  1  0  0  0  0
 26 27  1  0  0  0  0
 26 42  1  0  0  0  0
 26 43  1  0  0  0  0
 27 28  2  0  0  0  0
 27 29  1  0  0  0  0
 29 30  1  0  0  0  0
 29 41  1  0  0  0  0
 30 31  1  0  0  0  0
 30 39  1  0  0  0  0
 30 40  1  0  0  0  0
 31 32  1  0  0  0  0
 31 33  1  0  0  0  0
 31 34  1  0  0  0  0
 33 34  1  0  0  0  0
 33 37  1  0  0  0  0
 33 38  1  0  0  0  0
 34 35  1  0  0  0  0
 34 36  1  0  0  0  0
 44 45  2  0  0  0  0
 44 46  1  0  0  0  0
 46 47  2  0  0  0  0
 46 52  1  0  0  0  0
 47 48  1  0  0  0  0
 47 55  1  0  0  0  0
 48 49  2  0  0  0  0
 48 54  1  0  0  0  0
 49 50  1  0  0  0  0
 49 51  1  0  0  0  0
 51 52  2  0  0  0  0
 51 53  1  0  0  0  0
M  END
>  <MODEL>
       1

$$$$
