output/tmp_first_model_1_23.pdb
 OpenBabel07242613193D

 68 73  0  0  1  0  0  0  0  0999 V2000
   -5.8890   -0.0440  -29.4050 C   0  0  0  0  0  0  0  0  0  0  0  0
   -5.8880    0.2910  -27.9980 N   0  0  0  0  0  0  0  0  0  0  0  0
   -5.2560   -0.5190  -27.1070 C   0  0  0  0  0  0  0  0  0  0  0  0
   -4.5370   -1.4430  -27.4340 O   0  0  0  0  0  0  0  0  0  0  0  0
   -5.4720   -0.1210  -25.6310 C   0  0  0  0  0  0  0  0  0  0  0  0
   -6.6770   -0.6880  -25.0380 N   0  0  0  0  0  0  0  0  0  0  0  0
   -6.6070   -1.9120  -24.2360 C   0  0  0  0  0  0  0  0  0  0  0  0
   -7.7220   -1.9850  -23.1410 C   0  0  2  0  0  0  0  0  0  0  0  0
   -7.3440   -1.0080  -22.0030 C   0  0  0  0  0  0  0  0  0  0  0  0
   -7.6350    0.1620  -21.8820 O   0  0  0  0  0  0  0  0  0  0  0  0
   -6.5620   -1.7190  -21.1110 N   0  0  0  0  0  0  0  0  0  0  0  0
   -5.9850   -1.0510  -20.0080 C   0  0  0  0  0  0  0  0  0  0  0  0
   -6.4210   -1.2910  -18.7290 C   0  0  0  0  0  0  0  0  0  0  0  0
   -5.9520   -0.6560  -17.6280 N   0  0  0  0  0  0  0  0  0  0  0  0
   -5.0070    0.2380  -17.7960 C   0  0  0  0  0  0  0  0  0  0  0  0
   -4.4450    0.5690  -19.0580 C   0  0  0  0  0  0  0  0  0  0  0  0
   -3.4020    1.5270  -19.1820 C   0  0  0  0  0  0  0  0  0  0  0  0
   -2.9050    1.8460  -20.4160 C   0  0  0  0  0  0  0  0  0  0  0  0
   -3.4210    1.2190  -21.5760 C   0  0  0  0  0  0  0  0  0  0  0  0
   -4.4170    0.2830  -21.4760 C   0  0  0  0  0  0  0  0  0  0  0  0
   -4.9540   -0.0760  -20.2070 C   0  0  0  0  0  0  0  0  0  0  0  0
   -4.8190   -0.1900  -22.3680 H   0  0  0  0  0  0  0  0  0  0  0  0
   -3.0390    1.4900  -22.5560 H   0  0  0  0  0  0  0  0  0  0  0  0
   -2.1220    2.5930  -20.5160 H   0  0  0  0  0  0  0  0  0  0  0  0
   -3.0310    2.0110  -18.2800 H   0  0  0  0  0  0  0  0  0  0  0  0
   -4.6530    0.7600  -16.9060 H   0  0  0  0  0  0  0  0  0  0  0  0
   -7.2220   -2.0080  -18.5450 H   0  0  0  0  0  0  0  0  0  0  0  0
   -6.4690   -3.1490  -21.4220 C   0  0  0  0  0  0  0  0  0  0  0  0
   -7.7030   -3.3190  -22.3270 C   0  0  2  0  0  0  0  0  0  0  0  0
   -7.9250   -4.6170  -23.1380 C   0  0  0  0  0  0  0  0  0  0  0  0
   -6.8370   -5.1660  -23.9080 N   0  0  0  0  0  0  0  0  0  0  0  0
   -5.7410   -5.8440  -23.4200 C   0  0  0  0  0  0  0  0  0  0  0  0
   -4.5880   -5.9120  -24.2220 C   0  0  0  0  0  0  0  0  0  0  0  0
   -3.4350   -6.5150  -23.7450 C   0  0  0  0  0  0  0  0  0  0  0  0
   -3.4180   -7.1090  -22.4880 C   0  0  0  0  0  0  0  0  0  0  0  0
   -4.5800   -7.1010  -21.7200 C   0  0  0  0  0  0  0  0  0  0  0  0
   -5.7330   -6.4680  -22.1670 C   0  0  0  0  0  0  0  0  0  0  0  0
   -6.6330   -6.4910  -21.5550 H   0  0  0  0  0  0  0  0  0  0  0  0
   -4.5960   -7.6020  -20.7530 H   0  0  0  0  0  0  0  0  0  0  0  0
   -2.5150   -7.5880  -22.1170 H   0  0  0  0  0  0  0  0  0  0  0  0
   -2.5440   -6.5330  -24.3700 H   0  0  0  0  0  0  0  0  0  0  0  0
   -4.6050   -5.4880  -25.2250 H   0  0  0  0  0  0  0  0  0  0  0  0
   -6.8100   -4.9670  -24.8940 H   0  0  0  0  0  0  0  0  0  0  0  0
   -8.3160   -5.3970  -22.4710 H   0  0  0  0  0  0  0  0  0  0  0  0
   -8.7200   -4.4090  -23.8650 H   0  0  0  0  0  0  0  0  0  0  0  0
   -8.5680   -3.2610  -21.6510 H   0  0  0  0  0  0  0  0  0  0  0  0
   -5.5360   -3.3870  -21.9590 H   0  0  0  0  0  0  0  0  0  0  0  0
   -6.4860   -3.7310  -20.4950 H   0  0  0  0  0  0  0  0  0  0  0  0
   -9.0430   -1.6300  -23.7640 C   0  0  0  0  0  0  0  0  0  0  0  0
  -10.2710   -2.0060  -23.2040 C   0  0  0  0  0  0  0  0  0  0  0  0
  -11.4630   -1.5620  -23.7510 C   0  0  0  0  0  0  0  0  0  0  0  0
  -12.9440   -1.9820  -22.9190 Cl  0  0  0  0  0  0  0  0  0  0  0  0
  -11.4860   -0.7590  -24.8990 C   0  0  0  0  0  0  0  0  0  0  0  0
  -10.2830   -0.4550  -25.4870 C   0  0  0  0  0  0  0  0  0  0  0  0
   -9.0850   -0.8060  -24.8860 C   0  0  0  0  0  0  0  0  0  0  0  0
   -7.8650   -0.1930  -25.4610 C   0  0  0  0  0  0  0  0  0  0  0  0
   -7.9600    0.7270  -26.2820 O   0  0  0  0  0  0  0  0  0  0  0  0
  -10.2290    0.1010  -26.4080 H   0  0  0  0  0  0  0  0  0  0  0  0
  -12.3790   -0.3240  -25.3350 H   0  0  0  0  0  0  0  0  0  0  0  0
  -10.3150   -2.6490  -22.3340 H   0  0  0  0  0  0  0  0  0  0  0  0
   -5.6350   -1.9540  -23.7390 H   0  0  0  0  0  0  0  0  0  0  0  0
   -6.6720   -2.7820  -24.8960 H   0  0  0  0  0  0  0  0  0  0  0  0
   -4.6040   -0.4620  -25.0610 H   0  0  0  0  0  0  0  0  0  0  0  0
   -5.5430    0.9690  -25.5540 H   0  0  0  0  0  0  0  0  0  0  0  0
   -6.7020    0.7650  -27.6240 H   0  0  0  0  0  0  0  0  0  0  0  0
   -4.8610   -0.1890  -29.7530 H   0  0  0  0  0  0  0  0  0  0  0  0
   -6.4550   -0.9650  -29.6050 H   0  0  0  0  0  0  0  0  0  0  0  0
   -6.3340    0.7940  -29.9530 H   0  0  0  0  0  0  0  0  0  0  0  0
  1  2  1  0  0  0  0
  1 66  1  0  0  0  0
  1 67  1  0  0  0  0
  1 68  1  0  0  0  0
  2  3  1  0  0  0  0
  2 65  1  0  0  0  0
  3  4  2  0  0  0  0
  3  5  1  0  0  0  0
  5  6  1  0  0  0  0
  5 63  1  0  0  0  0
  5 64  1  0  0  0  0
  6  7  1  0  0  0  0
  6 56  1  0  0  0  0
  7  8  1  0  0  0  0
  7 61  1  0  0  0  0
  7 62  1  0  0  0  0
  8  9  1  1  0  0  0
  8 29  1  0  0  0  0
  8 49  1  0  0  0  0
  9 10  2  0  0  0  0
  9 11  1  0  0  0  0
 11 12  1  0  0  0  0
 11 28  1  0  0  0  0
 12 13  2  0  0  0  0
 12 21  1  0  0  0  0
 13 14  1  0  0  0  0
 13 27  1  0  0  0  0
 14 15  2  0  0  0  0
 15 16  1  0  0  0  0
 15 26  1  0  0  0  0
 16 17  2  0  0  0  0
 16 21  1  0  0  0  0
 17 18  1  0  0  0  0
 17 25  1  0  0  0  0
 18 19  2  0  0  0  0
 18 24  1  0  0  0  0
 19 20  1  0  0  0  0
 19 23  1  0  0  0  0
 20 21  2  0  0  0  0
 20 22  1  0  0  0  0
 28 29  1  0  0  0  0
 28 47  1  0  0  0  0
 28 48  1  0  0  0  0
 29 30  1  0  0  0  0
 29 46  1  1  0  0  0
 30 31  1  0  0  0  0
 30 44  1  0  0  0  0
 30 45  1  0  0  0  0
 31 32  1  0  0  0  0
 31 43  1  0  0  0  0
 32 33  2  0  0  0  0
 32 37  1  0  0  0  0
 33 34  1  0  0  0  0
 33 42  1  0  0  0  0
 34 35  2  0  0  0  0
 34 41  1  0  0  0  0
 35 36  1  0  0  0  0
 35 40  1  0  0  0  0
 36 37  2  0  0  0  0
 36 39  1  0  0  0  0
 37 38  1  0  0  0  0
 49 50  2  0  0  0  0
 49 55  1  0  0  0  0
 50 51  1  0  0  0  0
 50 60  1  0  0  0  0
 51 52  1  0  0  0  0
 51 53  2  0  0  0  0
 53 54  1  0  0  0  0
 53 59  1  0  0  0  0
 54 55  2  0  0  0  0
 54 58  1  0  0  0  0
 55 56  1  0  0  0  0
 56 57  2  0  0  0  0
M  END
>  <MODEL>
       1

$$$$
