output/tmp_first_model_6_3.pdb
 OpenBabel07242616043D

 66 70  0  0  1  0  0  0  0  0999 V2000
   -7.3530    3.4230  -21.9030 C   0  0  0  0  0  0  0  0  0  0  0  0
   -8.3090    2.9290  -22.8830 N   0  0  0  0  0  0  0  0  0  0  0  0
   -7.8010    2.2310  -23.9390 C   0  0  0  0  0  0  0  0  0  0  0  0
   -6.6010    2.0610  -24.0780 O   0  0  0  0  0  0  0  0  0  0  0  0
   -8.8140    1.6480  -24.9260 C   0  0  0  0  0  0  0  0  0  0  0  0
   -9.4630    0.4860  -24.3430 N   0  0  0  0  0  0  0  0  0  0  0  0
   -8.6980   -0.7410  -24.1620 C   0  0  0  0  0  0  0  0  0  0  0  0
   -9.0950   -1.4980  -22.8680 C   0  0  2  0  0  0  0  0  0  0  0  0
   -8.5730   -0.7450  -21.6210 C   0  0  0  0  0  0  0  0  0  0  0  0
   -9.0530    0.2360  -21.0890 O   0  0  0  0  0  0  0  0  0  0  0  0
   -7.4200   -1.3620  -21.1950 N   0  0  0  0  0  0  0  0  0  0  0  0
   -6.6310   -0.7880  -20.1670 C   0  0  0  0  0  0  0  0  0  0  0  0
   -6.9370   -1.0410  -18.8550 C   0  0  0  0  0  0  0  0  0  0  0  0
   -6.2320   -0.5710  -17.7990 N   0  0  0  0  0  0  0  0  0  0  0  0
   -5.1950    0.1890  -18.0590 C   0  0  0  0  0  0  0  0  0  0  0  0
   -4.7720    0.5420  -19.3730 C   0  0  0  0  0  0  0  0  0  0  0  0
   -3.6450    1.3750  -19.6060 C   0  0  0  0  0  0  0  0  0  0  0  0
   -3.2840    1.7180  -20.8810 C   0  0  0  0  0  0  0  0  0  0  0  0
   -4.0400    1.2580  -21.9820 C   0  0  0  0  0  0  0  0  0  0  0  0
   -5.1260    0.4360  -21.7850 C   0  0  0  0  0  0  0  0  0  0  0  0
   -5.5160    0.0510  -20.4730 C   0  0  0  0  0  0  0  0  0  0  0  0
   -5.6930    0.0900  -22.6440 H   0  0  0  0  0  0  0  0  0  0  0  0
   -3.7580    1.5400  -22.9920 H   0  0  0  0  0  0  0  0  0  0  0  0
   -2.4150    2.3460  -21.0540 H   0  0  0  0  0  0  0  0  0  0  0  0
   -3.0880    1.7370  -18.7460 H   0  0  0  0  0  0  0  0  0  0  0  0
   -4.6300    0.5720  -17.2080 H   0  0  0  0  0  0  0  0  0  0  0  0
   -7.7960   -1.6650  -18.6220 H   0  0  0  0  0  0  0  0  0  0  0  0
   -7.0470   -2.5350  -21.9590 C   0  0  0  0  0  0  0  0  0  0  0  0
   -8.3320   -2.8580  -22.7380 C   0  0  2  0  0  0  0  0  0  0  0  0
   -8.0640   -3.6440  -24.0210 C   0  0  0  0  0  0  0  0  0  0  0  0
   -9.2720   -4.1200  -24.5820 O   0  0  0  0  0  0  0  0  0  0  0  0
   -9.5470   -5.5040  -24.3590 C   0  0  0  0  0  0  0  0  0  0  0  0
  -11.0530   -5.7010  -24.3420 C   0  0  0  0  0  0  0  0  0  0  0  0
  -11.2980   -6.7110  -23.9870 H   0  0  0  0  0  0  0  0  0  0  0  0
  -11.5440   -4.9800  -23.6800 H   0  0  0  0  0  0  0  0  0  0  0  0
  -11.4530   -5.5950  -25.3550 H   0  0  0  0  0  0  0  0  0  0  0  0
   -8.9100   -6.3650  -25.4490 C   0  0  0  0  0  0  0  0  0  0  0  0
   -9.2950   -7.3890  -25.3770 H   0  0  0  0  0  0  0  0  0  0  0  0
   -7.8170   -6.3990  -25.3780 H   0  0  0  0  0  0  0  0  0  0  0  0
   -9.1860   -5.9650  -26.4300 H   0  0  0  0  0  0  0  0  0  0  0  0
   -9.1600   -5.7940  -23.3700 H   0  0  0  0  0  0  0  0  0  0  0  0
   -7.3560   -4.4670  -23.8200 H   0  0  0  0  0  0  0  0  0  0  0  0
   -7.5830   -2.9970  -24.7650 H   0  0  0  0  0  0  0  0  0  0  0  0
   -8.9420   -3.5000  -22.0990 H   0  0  0  0  0  0  0  0  0  0  0  0
   -6.1970   -2.3310  -22.6310 H   0  0  0  0  0  0  0  0  0  0  0  0
   -6.7470   -3.3520  -21.2910 H   0  0  0  0  0  0  0  0  0  0  0  0
  -10.6090   -1.5800  -22.8230 C   0  0  0  0  0  0  0  0  0  0  0  0
  -11.2350   -2.4370  -21.9060 C   0  0  0  0  0  0  0  0  0  0  0  0
  -12.6130   -2.4070  -21.7620 C   0  0  0  0  0  0  0  0  0  0  0  0
  -13.3840   -3.2450  -20.4460 Cl  0  0  0  0  0  0  0  0  0  0  0  0
  -13.4100   -1.6240  -22.5960 C   0  0  0  0  0  0  0  0  0  0  0  0
  -12.7990   -0.7730  -23.4930 C   0  0  0  0  0  0  0  0  0  0  0  0
  -11.4110   -0.6910  -23.5530 C   0  0  0  0  0  0  0  0  0  0  0  0
  -10.8280    0.4800  -24.2820 C   0  0  0  0  0  0  0  0  0  0  0  0
  -11.5190    1.3800  -24.7440 O   0  0  0  0  0  0  0  0  0  0  0  0
  -13.3650   -0.0930  -24.1160 H   0  0  0  0  0  0  0  0  0  0  0  0
  -14.4870   -1.6290  -22.4770 H   0  0  0  0  0  0  0  0  0  0  0  0
  -10.6490   -3.0970  -21.2770 H   0  0  0  0  0  0  0  0  0  0  0  0
   -8.8690   -1.4220  -25.0080 H   0  0  0  0  0  0  0  0  0  0  0  0
   -7.6330   -0.4880  -24.1500 H   0  0  0  0  0  0  0  0  0  0  0  0
   -9.6100    2.3540  -25.1860 H   0  0  0  0  0  0  0  0  0  0  0  0
   -8.2810    1.3830  -25.8470 H   0  0  0  0  0  0  0  0  0  0  0  0
   -9.2450    2.7260  -22.5590 H   0  0  0  0  0  0  0  0  0  0  0  0
   -6.7860    2.5810  -21.4790 H   0  0  0  0  0  0  0  0  0  0  0  0
   -6.6540    4.1180  -22.3770 H   0  0  0  0  0  0  0  0  0  0  0  0
   -7.8780    3.9820  -21.1270 H   0  0  0  0  0  0  0  0  0  0  0  0
  1  2  1  0  0  0  0
  1 64  1  0  0  0  0
  1 65  1  0  0  0  0
  1 66  1  0  0  0  0
  2  3  1  0  0  0  0
  2 63  1  0  0  0  0
  3  4  2  0  0  0  0
  3  5  1  0  0  0  0
  5  6  1  0  0  0  0
  5 61  1  0  0  0  0
  5 62  1  0  0  0  0
  6  7  1  0  0  0  0
  6 54  1  0  0  0  0
  7  8  1  0  0  0  0
  7 59  1  0  0  0  0
  7 60  1  0  0  0  0
  8  9  1  1  0  0  0
  8 29  1  0  0  0  0
  8 47  1  0  0  0  0
  9 10  2  0  0  0  0
  9 11  1  0  0  0  0
 11 12  1  0  0  0  0
 11 28  1  0  0  0  0
 12 13  2  0  0  0  0
 12 21  1  0  0  0  0
 13 14  1  0  0  0  0
 13 27  1  0  0  0  0
 14 15  2  0  0  0  0
 15 16  1  0  0  0  0
 15 26  1  0  0  0  0
 16 17  2  0  0  0  0
 16 21  1  0  0  0  0
 17 18  1  0  0  0  0
 17 25  1  0  0  0  0
 18 19  2  0  0  0  0
 18 24  1  0  0  0  0
 19 20  1  0  0  0  0
 19 23  1  0  0  0  0
 20 21  2  0  0  0  0
 20 22  1  0  0  0  0
 28 29  1  0  0  0  0
 28 45  1  0  0  0  0
 28 46  1  0  0  0  0
 29 30  1  0  0  0  0
 29 44  1  1  0  0  0
 30 31  1  0  0  0  0
 30 42  1  0  0  0  0
 30 43  1  0  0  0  0
 31 32  1  0  0  0  0
 32 33  1  0  0  0  0
 32 37  1  0  0  0  0
 32 41  1  0  0  0  0
 33 34  1  0  0  0  0
 33 35  1  0  0  0  0
 33 36  1  0  0  0  0
 37 38  1  0  0  0  0
 37 39  1  0  0  0  0
 37 40  1  0  0  0  0
 47 48  2  0  0  0  0
 47 53  1  0  0  0  0
 48 49  1  0  0  0  0
 48 58  1  0  0  0  0
 49 50  1  0  0  0  0
 49 51  2  0  0  0  0
 51 52  1  0  0  0  0
 51 57  1  0  0  0  0
 52 53  2  0  0  0  0
 52 56  1  0  0  0  0
 53 54  1  0  0  0  0
 54 55  2  0  0  0  0
M  END
>  <MODEL>
       1

$$$$
