output/tmp_first_model_17_17.pdb
 OpenBabel07242622053D

 38 41  0  0  1  0  0  0  0  0999 V2000
   -9.3480   -4.9450  -25.6900 C   0  0  0  0  0  0  0  0  0  0  0  0
   -9.3460   -4.1960  -24.3570 C   0  0  2  0  0  0  0  0  0  0  0  0
  -10.3470   -3.0410  -24.3790 C   0  0  0  0  0  0  0  0  0  0  0  0
  -10.4220   -2.3510  -23.0150 C   0  0  0  0  0  0  0  0  0  0  0  0
   -9.0830   -2.1130  -22.4700 C   0  0  0  0  0  0  0  0  0  0  0  0
   -8.7200   -1.1930  -21.4400 C   0  0  0  0  0  0  0  0  0  0  0  0
   -9.3840   -0.3270  -20.9150 O   0  5  0  0  0  0  0  0  0  0  0  0
   -7.3440   -1.4710  -21.2000 N   0  0  0  0  0  0  0  0  0  0  0  0
   -6.5720   -0.8440  -20.1830 C   0  0  0  0  0  0  0  0  0  0  0  0
   -6.8880   -1.0520  -18.8650 C   0  0  0  0  0  0  0  0  0  0  0  0
   -6.1890   -0.5420  -17.8220 N   0  0  0  0  0  0  0  0  0  0  0  0
   -5.1550    0.2150  -18.0790 C   0  0  0  0  0  0  0  0  0  0  0  0
   -4.7250    0.5350  -19.3930 C   0  0  0  0  0  0  0  0  0  0  0  0
   -3.6010    1.3710  -19.6280 C   0  0  0  0  0  0  0  0  0  0  0  0
   -3.2280    1.6770  -20.9070 C   0  0  0  0  0  0  0  0  0  0  0  0
   -3.9610    1.1640  -22.0010 C   0  0  0  0  0  0  0  0  0  0  0  0
   -5.0500    0.3550  -21.7980 C   0  0  0  0  0  0  0  0  0  0  0  0
   -5.4560    0.0040  -20.4850 C   0  0  0  0  0  0  0  0  0  0  0  0
   -5.6090   -0.0330  -22.6420 H   0  0  0  0  0  0  0  0  0  0  0  0
   -3.6530    1.4090  -23.0120 H   0  0  0  0  0  0  0  0  0  0  0  0
   -2.3670    2.3140  -21.0960 H   0  0  0  0  0  0  0  0  0  0  0  0
   -3.0570    1.7700  -18.7750 H   0  0  0  0  0  0  0  0  0  0  0  0
   -4.6090    0.6200  -17.2230 H   0  0  0  0  0  0  0  0  0  0  0  0
   -7.7380   -1.6720  -18.5920 H   0  0  0  0  0  0  0  0  0  0  0  0
   -6.8620   -2.4210  -22.1190 C   0  0  0  0  0  0  0  0  0  0  0  0
   -5.7270   -2.8180  -22.2480 O   0  0  0  0  0  0  0  0  0  0  0  0
   -7.9760   -2.7830  -22.8670 N   0  0  0  0  0  0  0  0  0  0  0  0
   -7.9460   -3.6820  -24.0080 C   0  0  0  0  0  0  0  0  0  0  0  0
   -7.2770   -4.4990  -23.7570 H   0  0  0  0  0  0  0  0  0  0  0  0
   -7.5090   -3.1780  -24.8750 H   0  0  0  0  0  0  0  0  0  0  0  0
  -10.9660   -1.4020  -23.0750 H   0  0  0  0  0  0  0  0  0  0  0  0
  -11.0040   -2.9650  -22.3100 H   0  0  0  0  0  0  0  0  0  0  0  0
  -10.0330   -2.3170  -25.1390 H   0  0  0  0  0  0  0  0  0  0  0  0
  -11.3400   -3.4070  -24.6710 H   0  0  0  0  0  0  0  0  0  0  0  0
   -9.6530   -4.9010  -23.5740 H   0  0  0  0  0  0  0  0  0  0  0  0
  -10.3420   -5.3460  -25.9210 H   0  0  0  0  0  0  0  0  0  0  0  0
   -8.6480   -5.7880  -25.6930 H   0  0  0  0  0  0  0  0  0  0  0  0
   -9.0710   -4.2820  -26.5190 H   0  0  0  0  0  0  0  0  0  0  0  0
  1  2  1  0  0  0  0
  1 36  1  0  0  0  0
  1 37  1  0  0  0  0
  1 38  1  0  0  0  0
  2  3  1  0  0  0  0
  2 28  1  0  0  0  0
  2 35  1  1  0  0  0
  3  4  1  0  0  0  0
  3 33  1  0  0  0  0
  3 34  1  0  0  0  0
  4  5  1  0  0  0  0
  4 31  1  0  0  0  0
  4 32  1  0  0  0  0
  5  6  2  0  0  0  0
  5 27  1  0  0  0  0
  6  7  1  0  0  0  0
  6  8  1  0  0  0  0
  8  9  1  0  0  0  0
  8 25  1  0  0  0  0
  9 10  2  0  0  0  0
  9 18  1  0  0  0  0
 10 11  1  0  0  0  0
 10 24  1  0  0  0  0
 11 12  2  0  0  0  0
 12 13  1  0  0  0  0
 12 23  1  0  0  0  0
 13 14  2  0  0  0  0
 13 18  1  0  0  0  0
 14 15  1  0  0  0  0
 14 22  1  0  0  0  0
 15 16  2  0  0  0  0
 15 21  1  0  0  0  0
 16 17  1  0  0  0  0
 16 20  1  0  0  0  0
 17 18  2  0  0  0  0
 17 19  1  0  0  0  0
 25 26  2  0  0  0  0
 25 27  1  0  0  0  0
 27 28  1  0  0  0  0
 28 29  1  0  0  0  0
 28 30  1  0  0  0  0
M  CHG  1   7  -1
M  END
>  <MODEL>
       1

$$$$
