output/tmp_first_model_13_12.pdb
 OpenBabel07242619583D

 76 82  0  0  1  0  0  0  0  0999 V2000
  -11.3160    1.5650  -24.7900 O   0  0  0  0  0  0  0  0  0  0  0  0
  -10.7190    0.5660  -24.3940 C   0  0  0  0  0  0  0  0  0  0  0  0
  -11.3290   -0.3830  -23.4050 C   0  0  0  0  0  0  0  0  0  0  0  0
  -12.6840   -0.2290  -23.1140 C   0  0  0  0  0  0  0  0  0  0  0  0
  -13.3260   -1.1130  -22.2700 C   0  0  0  0  0  0  0  0  0  0  0  0
  -12.5840   -2.1470  -21.7050 C   0  0  0  0  0  0  0  0  0  0  0  0
  -13.3880   -3.2760  -20.6560 Cl  0  0  0  0  0  0  0  0  0  0  0  0
  -11.2260   -2.2840  -21.9390 C   0  0  0  0  0  0  0  0  0  0  0  0
  -10.5680   -1.3980  -22.8030 C   0  0  0  0  0  0  0  0  0  0  0  0
   -9.0640   -1.4820  -23.0820 C   0  0  1  0  0  0  0  0  0  0  0  0
   -8.8750   -1.0520  -24.5570 C   0  0  0  0  0  0  0  0  0  0  0  0
   -9.4800    0.2320  -24.8530 N   0  0  0  0  0  0  0  0  0  0  0  0
   -8.6590    1.2500  -25.4920 C   0  0  0  0  0  0  0  0  0  0  0  0
   -8.3470    0.9050  -26.9460 C   0  0  0  0  0  0  0  0  0  0  0  0
   -9.6240    0.6300  -27.6970 N   0  3  0  0  0  0  0  0  0  0  0  0
   -9.4560   -0.2450  -28.9090 C   0  0  0  0  0  0  0  0  0  0  0  0
   -8.9100    0.5330  -30.1030 C   0  0  0  0  0  0  0  0  0  0  0  0
   -9.6950    1.6740  -30.4000 O   0  0  0  0  0  0  0  0  0  0  0  0
   -9.7400    2.5640  -29.3010 C   0  0  0  0  0  0  0  0  0  0  0  0
  -10.3720    1.8880  -28.0940 C   0  0  0  0  0  0  0  0  0  0  0  0
  -10.4260    2.5560  -27.2330 H   0  0  0  0  0  0  0  0  0  0  0  0
  -11.3890    1.5970  -28.3670 H   0  0  0  0  0  0  0  0  0  0  0  0
   -8.7310    2.9330  -29.0620 H   0  0  0  0  0  0  0  0  0  0  0  0
  -10.3510    3.4150  -29.6110 H   0  0  0  0  0  0  0  0  0  0  0  0
   -8.9320   -0.0980  -30.9950 H   0  0  0  0  0  0  0  0  0  0  0  0
   -7.8660    0.8280  -29.9110 H   0  0  0  0  0  0  0  0  0  0  0  0
   -8.7930   -1.0780  -28.6570 H   0  0  0  0  0  0  0  0  0  0  0  0
  -10.4300   -0.6640  -29.1650 H   0  0  0  0  0  0  0  0  0  0  0  0
  -10.2120    0.1040  -27.0260 H   0  0  0  0  0  0  0  0  0  0  0  0
   -7.7940    1.7210  -27.4160 H   0  0  0  0  0  0  0  0  0  0  0  0
   -7.7180    0.0090  -27.0040 H   0  0  0  0  0  0  0  0  0  0  0  0
   -7.7320    1.3740  -24.9190 H   0  0  0  0  0  0  0  0  0  0  0  0
   -9.2290    2.1770  -25.4340 H   0  0  0  0  0  0  0  0  0  0  0  0
   -9.3260   -1.8240  -25.2000 H   0  0  0  0  0  0  0  0  0  0  0  0
   -7.8130   -0.9730  -24.7940 H   0  0  0  0  0  0  0  0  0  0  0  0
   -8.2570   -0.5470  -22.1440 C   0  0  0  0  0  0  0  0  0  0  0  0
   -8.2950    0.6660  -22.1170 O   0  0  0  0  0  0  0  0  0  0  0  0
   -7.4650   -1.3230  -21.3180 N   0  0  0  0  0  0  0  0  0  0  0  0
   -6.6580   -0.7870  -20.2850 C   0  0  0  0  0  0  0  0  0  0  0  0
   -6.9640   -1.0550  -18.9740 C   0  0  0  0  0  0  0  0  0  0  0  0
   -6.2870   -0.5660  -17.9070 N   0  0  0  0  0  0  0  0  0  0  0  0
   -5.2520    0.1970  -18.1440 C   0  0  0  0  0  0  0  0  0  0  0  0
   -4.7900    0.5200  -19.4500 C   0  0  0  0  0  0  0  0  0  0  0  0
   -3.6460    1.3370  -19.6430 C   0  0  0  0  0  0  0  0  0  0  0  0
   -3.1900    1.6030  -20.9040 C   0  0  0  0  0  0  0  0  0  0  0  0
   -3.8540    1.0590  -22.0250 C   0  0  0  0  0  0  0  0  0  0  0  0
   -4.9710    0.2750  -21.8650 C   0  0  0  0  0  0  0  0  0  0  0  0
   -5.4870    0.0000  -20.5650 C   0  0  0  0  0  0  0  0  0  0  0  0
   -5.4680   -0.1380  -22.7370 H   0  0  0  0  0  0  0  0  0  0  0  0
   -3.4830    1.2660  -23.0240 H   0  0  0  0  0  0  0  0  0  0  0  0
   -2.3190    2.2350  -21.0510 H   0  0  0  0  0  0  0  0  0  0  0  0
   -3.1510    1.7430  -18.7660 H   0  0  0  0  0  0  0  0  0  0  0  0
   -4.7150    0.5930  -17.2830 H   0  0  0  0  0  0  0  0  0  0  0  0
   -7.8250   -1.6780  -18.7340 H   0  0  0  0  0  0  0  0  0  0  0  0
   -7.8310   -2.7250  -21.3730 C   0  0  0  0  0  0  0  0  0  0  0  0
   -8.4420   -2.8730  -22.7770 C   0  0  2  0  0  0  0  0  0  0  0  0
   -7.3960   -3.3600  -23.7950 C   0  0  0  0  0  0  0  0  0  0  0  0
   -7.0310   -4.7440  -23.5770 N   0  0  0  0  0  0  0  0  0  0  0  0
   -7.8940   -5.7450  -23.7900 C   0  0  0  0  0  0  0  0  0  0  0  0
  -10.2840   -5.6860  -24.7670 N   0  0  0  0  0  0  0  0  0  0  0  0
   -9.1470   -5.5640  -24.3810 C   0  0  0  0  0  0  0  0  0  0  0  0
   -8.6140   -7.7640  -23.7690 C   0  0  0  0  0  0  0  0  0  0  0  0
   -8.5260   -7.8400  -23.7300 C   0  0  0  0  0  0  0  0  0  0  0  0
   -7.4960   -6.9950  -23.3650 N   0  0  0  0  0  0  0  0  0  0  0  0
   -8.3520   -8.9640  -23.2650 H   0  0  0  0  0  0  0  0  0  0  0  0
   -8.7670   -7.8700  -24.9320 H   0  0  0  0  0  0  0  0  0  0  0  0
  -10.3610   -6.7200  -24.5830 H   0  0  0  0  0  0  0  0  0  0  0  0
   -6.3090   -4.9640  -22.9090 H   0  0  0  0  0  0  0  0  0  0  0  0
   -7.7820   -3.2880  -24.8170 H   0  0  0  0  0  0  0  0  0  0  0  0
   -6.4830   -2.7590  -23.7550 H   0  0  0  0  0  0  0  0  0  0  0  0
   -9.2130   -3.6420  -22.7840 H   0  0  0  0  0  0  0  0  0  0  0  0
   -8.5750   -2.9720  -20.6010 H   0  0  0  0  0  0  0  0  0  0  0  0
   -6.9480   -3.3470  -21.1990 H   0  0  0  0  0  0  0  0  0  0  0  0
  -10.6970   -3.0870  -21.4390 H   0  0  0  0  0  0  0  0  0  0  0  0
  -14.3800   -1.0060  -22.0410 H   0  0  0  0  0  0  0  0  0  0  0  0
  -13.2140    0.5960  -23.5780 H   0  0  0  0  0  0  0  0  0  0  0  0
  1  2  2  0  0  0  0
  2  3  1  0  0  0  0
  2 12  1  0  0  0  0
  3  4  2  0  0  0  0
  3  9  1  0  0  0  0
  4  5  1  0  0  0  0
  4 76  1  0  0  0  0
  5  6  2  0  0  0  0
  5 75  1  0  0  0  0
  6  7  1  0  0  0  0
  6  8  1  0  0  0  0
  8  9  2  0  0  0  0
  8 74  1  0  0  0  0
 10  9  1  1  0  0  0
 10 11  1  0  0  0  0
 10 36  1  0  0  0  0
 10 56  1  0  0  0  0
 11 12  1  0  0  0  0
 11 34  1  0  0  0  0
 11 35  1  0  0  0  0
 12 13  1  0  0  0  0
 13 14  1  0  0  0  0
 13 32  1  0  0  0  0
 13 33  1  0  0  0  0
 14 15  1  0  0  0  0
 14 30  1  0  0  0  0
 14 31  1  0  0  0  0
 15 16  1  0  0  0  0
 15 20  1  0  0  0  0
 15 29  1  0  0  0  0
 16 17  1  0  0  0  0
 16 27  1  0  0  0  0
 16 28  1  0  0  0  0
 17 18  1  0  0  0  0
 17 25  1  0  0  0  0
 17 26  1  0  0  0  0
 18 19  1  0  0  0  0
 19 20  1  0  0  0  0
 19 23  1  0  0  0  0
 19 24  1  0  0  0  0
 20 21  1  0  0  0  0
 20 22  1  0  0  0  0
 36 37  2  0  0  0  0
 36 38  1  0  0  0  0
 38 39  1  0  0  0  0
 38 55  1  0  0  0  0
 39 40  2  0  0  0  0
 39 48  1  0  0  0  0
 40 41  1  0  0  0  0
 40 54  1  0  0  0  0
 41 42  2  0  0  0  0
 42 43  1  0  0  0  0
 42 53  1  0  0  0  0
 43 44  2  0  0  0  0
 43 48  1  0  0  0  0
 44 45  1  0  0  0  0
 44 52  1  0  0  0  0
 45 46  2  0  0  0  0
 45 51  1  0  0  0  0
 46 47  1  0  0  0  0
 46 50  1  0  0  0  0
 47 48  2  0  0  0  0
 47 49  1  0  0  0  0
 55 56  1  0  0  0  0
 55 72  1  0  0  0  0
 55 73  1  0  0  0  0
 56 57  1  0  0  0  0
 56 71  1  1  0  0  0
 57 58  1  0  0  0  0
 57 69  1  0  0  0  0
 57 70  1  0  0  0  0
 58 59  1  0  0  0  0
 58 68  1  0  0  0  0
 59 60  2  0  0  0  0
 59 64  1  0  0  0  0
 60 61  1  0  0  0  0
 61 62  2  0  0  0  0
 61 67  1  0  0  0  0
 62 63  1  0  0  0  0
 62 66  1  0  0  0  0
 63 64  2  0  0  0  0
 63 65  1  0  0  0  0
M  CHG  1  15   1
M  END
>  <MODEL>
       1

$$$$
