output/tmp_first_model_6_95.pdb
 OpenBabel07242616043D

 66 71  0  0  1  0  0  0  0  0999 V2000
   -8.5150    2.7960  -28.3790 C   0  0  0  0  0  0  0  0  0  0  0  0
   -8.6060    2.7620  -26.9300 N   0  0  0  0  0  0  0  0  0  0  0  0
   -7.8740    1.8270  -26.2480 C   0  0  0  0  0  0  0  0  0  0  0  0
   -7.0460    1.0940  -26.7580 O   0  0  0  0  0  0  0  0  0  0  0  0
   -8.1640    1.8150  -24.7430 C   0  0  0  0  0  0  0  0  0  0  0  0
   -9.0210    0.7160  -24.3490 N   0  0  0  0  0  0  0  0  0  0  0  0
   -8.4620   -0.6160  -24.1890 C   0  0  0  0  0  0  0  0  0  0  0  0
   -9.0540   -1.3160  -22.9320 C   0  0  2  0  0  0  0  0  0  0  0  0
   -8.5350   -0.5990  -21.6620 C   0  0  0  0  0  0  0  0  0  0  0  0
   -8.9940    0.3760  -21.1110 O   0  0  0  0  0  0  0  0  0  0  0  0
   -7.4150   -1.2710  -21.2410 N   0  0  0  0  0  0  0  0  0  0  0  0
   -6.6320   -0.7650  -20.1810 C   0  0  0  0  0  0  0  0  0  0  0  0
   -6.9450   -1.0710  -18.8840 C   0  0  0  0  0  0  0  0  0  0  0  0
   -6.2430   -0.6340  -17.8090 N   0  0  0  0  0  0  0  0  0  0  0  0
   -5.2130    0.1440  -18.0380 C   0  0  0  0  0  0  0  0  0  0  0  0
   -4.7840    0.5440  -19.3380 C   0  0  0  0  0  0  0  0  0  0  0  0
   -3.6710    1.4010  -19.5470 C   0  0  0  0  0  0  0  0  0  0  0  0
   -3.3160    1.7800  -20.8130 C   0  0  0  0  0  0  0  0  0  0  0  0
   -4.0520    1.3280  -21.9300 C   0  0  0  0  0  0  0  0  0  0  0  0
   -5.1240    0.4900  -21.7570 C   0  0  0  0  0  0  0  0  0  0  0  0
   -5.5140    0.0790  -20.4520 C   0  0  0  0  0  0  0  0  0  0  0  0
   -5.6780    0.1350  -22.6220 H   0  0  0  0  0  0  0  0  0  0  0  0
   -3.7630    1.6330  -22.9310 H   0  0  0  0  0  0  0  0  0  0  0  0
   -2.4680    2.4390  -20.9710 H   0  0  0  0  0  0  0  0  0  0  0  0
   -3.1230    1.7540  -18.6780 H   0  0  0  0  0  0  0  0  0  0  0  0
   -4.6620    0.5060  -17.1700 H   0  0  0  0  0  0  0  0  0  0  0  0
   -7.8090   -1.7000  -18.6750 H   0  0  0  0  0  0  0  0  0  0  0  0
   -7.0880   -2.4450  -22.0220 C   0  0  0  0  0  0  0  0  0  0  0  0
   -8.4530   -2.7630  -22.7060 C   0  0  2  0  0  0  0  0  0  0  0  0
   -8.3450   -3.6850  -23.9600 C   0  0  0  0  0  0  0  0  0  0  0  0
   -7.6330   -4.9180  -23.7850 N   0  0  0  0  0  0  0  0  0  0  0  0
   -8.3100   -6.1060  -23.7620 C   0  0  0  0  0  0  0  0  0  0  0  0
   -9.8340   -6.0680  -23.9760 C   0  0  0  0  0  0  0  0  0  0  0  0
   -9.6740   -5.8610  -24.0170 C   0  0  0  0  0  0  0  0  0  0  0  0
   -9.5130   -8.5880  -23.6020 N   0  0  0  0  0  0  0  0  0  0  0  0
   -8.2970   -8.3870  -23.4210 C   0  0  0  0  0  0  0  0  0  0  0  0
   -7.5750   -7.1290  -23.4710 N   0  0  0  0  0  0  0  0  0  0  0  0
   -7.6070   -9.2110  -23.1720 H   0  0  0  0  0  0  0  0  0  0  0  0
  -10.4320   -5.4450  -24.8000 H   0  0  0  0  0  0  0  0  0  0  0  0
  -10.3610   -5.2520  -23.2620 H   0  0  0  0  0  0  0  0  0  0  0  0
   -6.7050   -4.8960  -23.3890 H   0  0  0  0  0  0  0  0  0  0  0  0
   -7.7290   -3.0750  -24.6630 H   0  0  0  0  0  0  0  0  0  0  0  0
   -9.2850   -3.8210  -24.4720 H   0  0  0  0  0  0  0  0  0  0  0  0
   -9.0610   -3.2420  -21.9300 H   0  0  0  0  0  0  0  0  0  0  0  0
   -6.2950   -2.2380  -22.7640 H   0  0  0  0  0  0  0  0  0  0  0  0
   -6.7000   -3.2060  -21.3350 H   0  0  0  0  0  0  0  0  0  0  0  0
  -10.5630   -1.1920  -23.0070 C   0  0  0  0  0  0  0  0  0  0  0  0
  -11.3810   -1.9960  -22.2050 C   0  0  0  0  0  0  0  0  0  0  0  0
  -12.7570   -1.8700  -22.2660 C   0  0  0  0  0  0  0  0  0  0  0  0
  -13.7520   -2.8840  -21.2590 Cl  0  0  0  0  0  0  0  0  0  0  0  0
  -13.3690   -0.9300  -23.0920 C   0  0  0  0  0  0  0  0  0  0  0  0
  -12.5670   -0.0850  -23.8330 C   0  0  0  0  0  0  0  0  0  0  0  0
  -11.1780   -0.1870  -23.7690 C   0  0  0  0  0  0  0  0  0  0  0  0
  -10.3700    0.8860  -24.4350 C   0  0  0  0  0  0  0  0  0  0  0  0
  -10.8810    1.8690  -24.9660 O   0  0  0  0  0  0  0  0  0  0  0  0
  -12.9920    0.7020  -24.4460 H   0  0  0  0  0  0  0  0  0  0  0  0
  -14.4500   -0.8410  -23.1000 H   0  0  0  0  0  0  0  0  0  0  0  0
  -10.9580   -2.7420  -21.5400 H   0  0  0  0  0  0  0  0  0  0  0  0
   -8.6920   -1.2060  -25.0850 H   0  0  0  0  0  0  0  0  0  0  0  0
   -7.3730   -0.5130  -24.1300 H   0  0  0  0  0  0  0  0  0  0  0  0
   -8.6470    2.7490  -24.4420 H   0  0  0  0  0  0  0  0  0  0  0  0
   -7.2130    1.7240  -24.2080 H   0  0  0  0  0  0  0  0  0  0  0  0
   -9.5380    2.8750  -26.5440 H   0  0  0  0  0  0  0  0  0  0  0  0
   -7.4940    3.0500  -28.6700 H   0  0  0  0  0  0  0  0  0  0  0  0
   -9.1950    3.5670  -28.7490 H   0  0  0  0  0  0  0  0  0  0  0  0
   -8.7700    1.8350  -28.8460 H   0  0  0  0  0  0  0  0  0  0  0  0
  1  2  1  0  0  0  0
  1 64  1  0  0  0  0
  1 65  1  0  0  0  0
  1 66  1  0  0  0  0
  2  3  1  0  0  0  0
  2 63  1  0  0  0  0
  3  4  2  0  0  0  0
  3  5  1  0  0  0  0
  5  6  1  0  0  0  0
  5 61  1  0  0  0  0
  5 62  1  0  0  0  0
  6  7  1  0  0  0  0
  6 54  1  0  0  0  0
  7  8  1  0  0  0  0
  7 59  1  0  0  0  0
  7 60  1  0  0  0  0
  8  9  1  1  0  0  0
  8 29  1  0  0  0  0
  8 47  1  0  0  0  0
  9 10  2  0  0  0  0
  9 11  1  0  0  0  0
 11 12  1  0  0  0  0
 11 28  1  0  0  0  0
 12 13  2  0  0  0  0
 12 21  1  0  0  0  0
 13 14  1  0  0  0  0
 13 27  1  0  0  0  0
 14 15  2  0  0  0  0
 15 16  1  0  0  0  0
 15 26  1  0  0  0  0
 16 17  2  0  0  0  0
 16 21  1  0  0  0  0
 17 18  1  0  0  0  0
 17 25  1  0  0  0  0
 18 19  2  0  0  0  0
 18 24  1  0  0  0  0
 19 20  1  0  0  0  0
 19 23  1  0  0  0  0
 20 21  2  0  0  0  0
 20 22  1  0  0  0  0
 28 29  1  0  0  0  0
 28 45  1  0  0  0  0
 28 46  1  0  0  0  0
 29 30  1  0  0  0  0
 29 44  1  1  0  0  0
 30 31  1  0  0  0  0
 30 42  1  0  0  0  0
 30 43  1  0  0  0  0
 31 32  1  0  0  0  0
 31 41  1  0  0  0  0
 32 33  2  0  0  0  0
 32 37  1  0  0  0  0
 33 34  1  0  0  0  0
 33 40  1  0  0  0  0
 34 35  2  0  0  0  0
 34 39  1  0  0  0  0
 35 36  1  0  0  0  0
 36 37  2  0  0  0  0
 36 38  1  0  0  0  0
 47 48  2  0  0  0  0
 47 53  1  0  0  0  0
 48 49  1  0  0  0  0
 48 58  1  0  0  0  0
 49 50  1  0  0  0  0
 49 51  2  0  0  0  0
 51 52  1  0  0  0  0
 51 57  1  0  0  0  0
 52 53  2  0  0  0  0
 52 56  1  0  0  0  0
 53 54  1  0  0  0  0
 54 55  2  0  0  0  0
M  END
>  <MODEL>
       1

$$$$
