output/tmp_first_model_18_69.pdb
 OpenBabel07242622363D

 63 67  0  0  0  0  0  0  0  0999 V2000
   -9.7790   -6.4730  -28.0900 C   0  0  0  0  0  0  0  0  0  0  0  0
  -10.0850   -5.4580  -27.2830 C   0  0  0  0  0  0  0  0  0  0  0  0
   -9.0300   -4.6140  -26.6370 C   0  0  0  0  0  0  0  0  0  0  0  0
   -7.8470   -4.7740  -26.8860 O   0  0  0  0  0  0  0  0  0  0  0  0
   -9.4790   -3.6510  -25.7340 N   0  0  0  0  0  0  0  0  0  0  0  0
  -10.8280   -3.7890  -25.1750 C   0  0  0  0  0  0  0  0  0  0  0  0
  -11.2070   -2.6430  -24.2540 C   0  0  0  0  0  0  0  0  0  0  0  0
  -10.0370   -2.1590  -23.4090 C   0  0  0  0  0  0  0  0  0  0  0  0
   -8.8990   -1.7440  -24.3190 C   0  0  0  0  0  0  0  0  0  0  0  0
   -8.6930   -2.4940  -25.4950 C   0  0  0  0  0  0  0  0  0  0  0  0
   -7.7750   -2.0520  -26.4540 C   0  0  0  0  0  0  0  0  0  0  0  0
   -7.0570   -0.8910  -26.2460 C   0  0  0  0  0  0  0  0  0  0  0  0
   -7.1720   -0.1970  -25.0500 C   0  0  0  0  0  0  0  0  0  0  0  0
   -8.0750   -0.6480  -24.0960 C   0  0  0  0  0  0  0  0  0  0  0  0
   -8.1820    0.2220  -22.7890 N   0  3  0  0  0  0  0  0  0  0  0  0
   -9.3000    1.3370  -22.8110 C   0  0  0  0  0  0  0  0  0  0  0  0
   -9.1390    2.2420  -23.9940 C   0  0  0  0  0  0  0  0  0  0  0  0
   -8.4560    3.4520  -23.8660 C   0  0  0  0  0  0  0  0  0  0  0  0
   -8.2170    4.2520  -24.9760 C   0  0  0  0  0  0  0  0  0  0  0  0
   -8.6590    3.8530  -26.2310 C   0  0  0  0  0  0  0  0  0  0  0  0
   -9.3940    2.6790  -26.3450 C   0  0  0  0  0  0  0  0  0  0  0  0
   -9.9890    2.2410  -27.9250 Cl  0  0  0  0  0  0  0  0  0  0  0  0
   -9.6480    1.8750  -25.2450 C   0  0  0  0  0  0  0  0  0  0  0  0
  -10.1390    0.9120  -25.3670 H   0  0  0  0  0  0  0  0  0  0  0  0
   -8.4450    4.4290  -27.1250 H   0  0  0  0  0  0  0  0  0  0  0  0
   -7.6780    5.1900  -24.8590 H   0  0  0  0  0  0  0  0  0  0  0  0
   -8.0710    3.7420  -22.8910 H   0  0  0  0  0  0  0  0  0  0  0  0
   -9.2720    1.8880  -21.8670 H   0  0  0  0  0  0  0  0  0  0  0  0
  -10.2490    0.8070  -22.8520 H   0  0  0  0  0  0  0  0  0  0  0  0
   -8.2090   -0.4810  -21.5150 C   0  0  0  0  0  0  0  0  0  0  0  0
   -9.0500   -0.2020  -20.7000 O   0  0  0  0  0  0  0  0  0  0  0  0
   -7.1490   -1.5390  -21.2210 C   0  0  0  0  0  0  0  0  0  0  0  0
   -6.2870   -1.0170  -20.1000 C   0  0  0  0  0  0  0  0  0  0  0  0
   -6.6480   -1.1930  -18.7900 C   0  0  0  0  0  0  0  0  0  0  0  0
   -6.0460   -0.5990  -17.7250 N   0  0  0  0  0  0  0  0  0  0  0  0
   -5.0530    0.2190  -17.9870 C   0  0  0  0  0  0  0  0  0  0  0  0
   -4.5750    0.5010  -19.2970 C   0  0  0  0  0  0  0  0  0  0  0  0
   -3.5210    1.4170  -19.5440 C   0  0  0  0  0  0  0  0  0  0  0  0
   -3.1420    1.7190  -20.8230 C   0  0  0  0  0  0  0  0  0  0  0  0
   -3.7820    1.0960  -21.9200 C   0  0  0  0  0  0  0  0  0  0  0  0
   -4.7780    0.1760  -21.7050 C   0  0  0  0  0  0  0  0  0  0  0  0
   -5.2110   -0.1350  -20.3900 C   0  0  0  0  0  0  0  0  0  0  0  0
   -5.2530   -0.2950  -22.5640 H   0  0  0  0  0  0  0  0  0  0  0  0
   -3.4930    1.3510  -22.9360 H   0  0  0  0  0  0  0  0  0  0  0  0
   -2.3500    2.4400  -21.0090 H   0  0  0  0  0  0  0  0  0  0  0  0
   -3.0360    1.8830  -18.6890 H   0  0  0  0  0  0  0  0  0  0  0  0
   -4.5810    0.7170  -17.1370 H   0  0  0  0  0  0  0  0  0  0  0  0
   -7.4920   -1.8360  -18.5440 H   0  0  0  0  0  0  0  0  0  0  0  0
   -6.5980   -1.7920  -22.1280 H   0  0  0  0  0  0  0  0  0  0  0  0
   -7.6980   -2.4260  -20.8870 H   0  0  0  0  0  0  0  0  0  0  0  0
   -7.2710    0.7430  -22.8360 H   0  0  0  0  0  0  0  0  0  0  0  0
   -6.6250    0.7260  -24.8930 H   0  0  0  0  0  0  0  0  0  0  0  0
   -6.3950   -0.5560  -27.0370 H   0  0  0  0  0  0  0  0  0  0  0  0
   -7.6370   -2.6180  -27.3620 H   0  0  0  0  0  0  0  0  0  0  0  0
   -9.6880   -2.9460  -22.7220 H   0  0  0  0  0  0  0  0  0  0  0  0
  -10.3550   -1.3170  -22.7800 H   0  0  0  0  0  0  0  0  0  0  0  0
  -11.5690   -1.8110  -24.8680 H   0  0  0  0  0  0  0  0  0  0  0  0
  -12.0430   -2.9450  -23.6160 H   0  0  0  0  0  0  0  0  0  0  0  0
  -10.9010   -4.7540  -24.6630 H   0  0  0  0  0  0  0  0  0  0  0  0
  -11.5520   -3.8110  -25.9910 H   0  0  0  0  0  0  0  0  0  0  0  0
  -11.1330   -5.2280  -27.1330 H   0  0  0  0  0  0  0  0  0  0  0  0
   -8.7520   -6.7520  -28.3050 H   0  0  0  0  0  0  0  0  0  0  0  0
  -10.5750   -7.0570  -28.5460 H   0  0  0  0  0  0  0  0  0  0  0  0
  1  2  2  0  0  0  0
  1 62  1  0  0  0  0
  1 63  1  0  0  0  0
  2  3  1  0  0  0  0
  2 61  1  0  0  0  0
  3  4  2  0  0  0  0
  3  5  1  0  0  0  0
  5  6  1  0  0  0  0
  5 10  1  0  0  0  0
  6  7  1  0  0  0  0
  6 59  1  0  0  0  0
  6 60  1  0  0  0  0
  7  8  1  0  0  0  0
  7 57  1  0  0  0  0
  7 58  1  0  0  0  0
  8  9  1  0  0  0  0
  8 55  1  0  0  0  0
  8 56  1  0  0  0  0
  9 10  2  0  0  0  0
  9 14  1  0  0  0  0
 10 11  1  0  0  0  0
 11 12  2  0  0  0  0
 11 54  1  0  0  0  0
 12 13  1  0  0  0  0
 12 53  1  0  0  0  0
 13 14  2  0  0  0  0
 13 52  1  0  0  0  0
 14 15  1  0  0  0  0
 15 16  1  0  0  0  0
 15 30  1  0  0  0  0
 15 51  1  0  0  0  0
 16 17  1  0  0  0  0
 16 28  1  0  0  0  0
 16 29  1  0  0  0  0
 17 18  2  0  0  0  0
 17 23  1  0  0  0  0
 18 19  1  0  0  0  0
 18 27  1  0  0  0  0
 19 20  2  0  0  0  0
 19 26  1  0  0  0  0
 20 21  1  0  0  0  0
 20 25  1  0  0  0  0
 21 22  1  0  0  0  0
 21 23  2  0  0  0  0
 23 24  1  0  0  0  0
 30 31  2  0  0  0  0
 30 32  1  0  0  0  0
 32 33  1  0  0  0  0
 32 49  1  0  0  0  0
 32 50  1  0  0  0  0
 33 34  2  0  0  0  0
 33 42  1  0  0  0  0
 34 35  1  0  0  0  0
 34 48  1  0  0  0  0
 35 36  2  0  0  0  0
 36 37  1  0  0  0  0
 36 47  1  0  0  0  0
 37 38  2  0  0  0  0
 37 42  1  0  0  0  0
 38 39  1  0  0  0  0
 38 46  1  0  0  0  0
 39 40  2  0  0  0  0
 39 45  1  0  0  0  0
 40 41  1  0  0  0  0
 40 44  1  0  0  0  0
 41 42  2  0  0  0  0
 41 43  1  0  0  0  0
M  CHG  1  15   1
M  END
>  <MODEL>
       1

$$$$
