output/tmp_first_model_8_18.pdb
 OpenBabel07242617113D

 56 61  0  0  1  0  0  0  0  0999 V2000
  -10.3750   -0.9660  -23.3930 C   0  0  0  0  0  0  0  0  0  0  0  0
   -8.9620   -1.3650  -22.9870 C   0  0  1  0  0  0  0  0  0  0  0  0
   -8.3720   -0.4700  -21.8890 C   0  0  0  0  0  0  0  0  0  0  0  0
   -7.3980   -1.3370  -21.2460 N   0  0  0  0  0  0  0  0  0  0  0  0
   -6.5910   -0.8760  -20.1860 C   0  0  0  0  0  0  0  0  0  0  0  0
   -6.8890   -1.1830  -18.8840 C   0  0  0  0  0  0  0  0  0  0  0  0
   -6.2310   -0.6580  -17.8200 N   0  0  0  0  0  0  0  0  0  0  0  0
   -5.2410    0.1680  -18.0610 C   0  0  0  0  0  0  0  0  0  0  0  0
   -4.8050    0.5360  -19.3670 C   0  0  0  0  0  0  0  0  0  0  0  0
   -3.7000    1.4000  -19.5960 C   0  0  0  0  0  0  0  0  0  0  0  0
   -3.3470    1.7450  -20.8720 C   0  0  0  0  0  0  0  0  0  0  0  0
   -4.0710    1.2430  -21.9780 C   0  0  0  0  0  0  0  0  0  0  0  0
   -5.1210    0.3820  -21.7830 C   0  0  0  0  0  0  0  0  0  0  0  0
   -5.5120    0.0150  -20.4700 C   0  0  0  0  0  0  0  0  0  0  0  0
   -5.6530   -0.0410  -22.6290 H   0  0  0  0  0  0  0  0  0  0  0  0
   -3.7810    1.5200  -22.9870 H   0  0  0  0  0  0  0  0  0  0  0  0
   -2.5010    2.4030  -21.0510 H   0  0  0  0  0  0  0  0  0  0  0  0
   -3.1470    1.7770  -18.7390 H   0  0  0  0  0  0  0  0  0  0  0  0
   -4.7230    0.5860  -17.1970 H   0  0  0  0  0  0  0  0  0  0  0  0
   -7.7010   -1.8700  -18.6520 H   0  0  0  0  0  0  0  0  0  0  0  0
   -7.6370   -2.6760  -21.4530 C   0  0  0  0  0  0  0  0  0  0  0  0
   -6.9970   -3.5760  -20.9400 O   0  0  0  0  0  0  0  0  0  0  0  0
   -8.8100   -2.8230  -22.4270 C   0  0  1  0  0  0  0  0  0  0  0  0
  -10.0420   -3.2450  -21.5860 C   0  0  0  0  0  0  0  0  0  0  0  0
  -11.1530   -3.7120  -22.4020 N   0  0  0  0  0  0  0  0  0  0  0  0
  -12.5310   -3.6350  -21.9130 C   0  0  0  0  0  0  0  0  0  0  0  0
  -13.3680   -2.5180  -22.4740 C   0  0  0  0  0  0  0  0  0  0  0  0
  -14.0540   -2.4780  -23.7090 C   0  0  0  0  0  0  0  0  0  0  0  0
  -14.7320   -1.2880  -23.6950 C   0  0  0  0  0  0  0  0  0  0  0  0
  -14.4440   -0.6980  -22.5160 N   0  0  0  0  0  0  0  0  0  0  0  0
  -13.6160   -1.4290  -21.7580 N   0  0  0  0  0  0  0  0  0  0  0  0
  -14.8150    0.1450  -22.1100 H   0  0  0  0  0  0  0  0  0  0  0  0
  -15.3630   -0.8140  -24.4200 H   0  0  0  0  0  0  0  0  0  0  0  0
  -14.0940   -3.2420  -24.4700 H   0  0  0  0  0  0  0  0  0  0  0  0
  -13.0160   -4.5630  -22.2340 H   0  0  0  0  0  0  0  0  0  0  0  0
  -12.5390   -3.5530  -20.8230 H   0  0  0  0  0  0  0  0  0  0  0  0
  -10.9590   -4.4900  -23.5110 C   0  0  0  0  0  0  0  0  0  0  0  0
  -11.9010   -5.0010  -24.1000 O   0  0  0  0  0  0  0  0  0  0  0  0
   -9.5530   -4.6800  -23.9690 C   0  0  0  0  0  0  0  0  0  0  0  0
   -9.3080   -5.6800  -24.9070 C   0  0  0  0  0  0  0  0  0  0  0  0
   -8.0340   -5.8990  -25.3910 C   0  0  0  0  0  0  0  0  0  0  0  0
   -7.0170   -5.0700  -24.9360 C   0  0  0  0  0  0  0  0  0  0  0  0
   -5.7760   -5.2580  -25.4140 F   0  0  0  0  0  0  0  0  0  0  0  0
   -7.2290   -4.0850  -23.9890 C   0  0  0  0  0  0  0  0  0  0  0  0
   -8.5200   -3.8800  -23.4780 C   0  0  0  0  0  0  0  0  0  0  0  0
   -6.3730   -3.5390  -23.6120 H   0  0  0  0  0  0  0  0  0  0  0  0
   -7.8180   -6.7080  -26.0780 H   0  0  0  0  0  0  0  0  0  0  0  0
  -10.1500   -6.2830  -25.2300 H   0  0  0  0  0  0  0  0  0  0  0  0
   -9.7220   -4.0310  -20.8940 H   0  0  0  0  0  0  0  0  0  0  0  0
  -10.3840   -2.3910  -20.9860 H   0  0  0  0  0  0  0  0  0  0  0  0
   -9.1410   -0.1400  -21.1710 H   0  0  0  0  0  0  0  0  0  0  0  0
   -7.8990    0.4380  -22.2750 H   0  0  0  0  0  0  0  0  0  0  0  0
   -8.2970   -1.3140  -23.8600 H   0  0  0  0  0  0  0  0  0  0  0  0
  -10.7940   -1.7090  -24.0760 H   0  0  0  0  0  0  0  0  0  0  0  0
  -11.0300   -0.9140  -22.5170 H   0  0  0  0  0  0  0  0  0  0  0  0
  -10.4010    0.0120  -23.8820 H   0  0  0  0  0  0  0  0  0  0  0  0
  1  2  1  0  0  0  0
  1 54  1  0  0  0  0
  1 55  1  0  0  0  0
  1 56  1  0  0  0  0
  2  3  1  0  0  0  0
  2 23  1  0  0  0  0
  2 53  1  6  0  0  0
  3  4  1  0  0  0  0
  3 51  1  0  0  0  0
  3 52  1  0  0  0  0
  4  5  1  0  0  0  0
  4 21  1  0  0  0  0
  5  6  2  0  0  0  0
  5 14  1  0  0  0  0
  6  7  1  0  0  0  0
  6 20  1  0  0  0  0
  7  8  2  0  0  0  0
  8  9  1  0  0  0  0
  8 19  1  0  0  0  0
  9 10  2  0  0  0  0
  9 14  1  0  0  0  0
 10 11  1  0  0  0  0
 10 18  1  0  0  0  0
 11 12  2  0  0  0  0
 11 17  1  0  0  0  0
 12 13  1  0  0  0  0
 12 16  1  0  0  0  0
 13 14  2  0  0  0  0
 13 15  1  0  0  0  0
 21 22  2  0  0  0  0
 23 21  1  1  0  0  0
 23 24  1  0  0  0  0
 23 45  1  0  0  0  0
 24 25  1  0  0  0  0
 24 49  1  0  0  0  0
 24 50  1  0  0  0  0
 25 26  1  0  0  0  0
 25 37  1  0  0  0  0
 26 27  1  0  0  0  0
 26 35  1  0  0  0  0
 26 36  1  0  0  0  0
 27 28  1  0  0  0  0
 27 31  2  0  0  0  0
 28 29  2  0  0  0  0
 28 34  1  0  0  0  0
 29 30  1  0  0  0  0
 29 33  1  0  0  0  0
 30 31  1  0  0  0  0
 30 32  1  0  0  0  0
 37 38  2  0  0  0  0
 37 39  1  0  0  0  0
 39 40  2  0  0  0  0
 39 45  1  0  0  0  0
 40 41  1  0  0  0  0
 40 48  1  0  0  0  0
 41 42  2  0  0  0  0
 41 47  1  0  0  0  0
 42 43  1  0  0  0  0
 42 44  1  0  0  0  0
 44 45  2  0  0  0  0
 44 46  1  0  0  0  0
M  END
>  <MODEL>
       1

$$$$
