output/tmp_first_model_8_80.pdb
 OpenBabel07242617113D

 60 65  0  0  1  0  0  0  0  0999 V2000
   -2.6880   -6.7550  -22.7400 C   0  0  0  0  0  0  0  0  0  0  0  0
   -3.9530   -6.1660  -22.3040 N   0  0  0  0  0  0  0  0  0  0  0  0
   -4.9830   -6.9870  -22.0150 C   0  0  0  0  0  0  0  0  0  0  0  0
   -4.9180   -8.1830  -21.9960 O   0  0  0  0  0  0  0  0  0  0  0  0
   -6.6740   -6.0140  -21.5040 C   0  0  0  0  0  0  0  0  0  0  0  0
   -7.5290   -5.5150  -22.5980 N   0  0  0  0  0  0  0  0  0  0  0  0
   -8.4710   -4.4100  -22.3610 C   0  0  0  0  0  0  0  0  0  0  0  0
   -7.9880   -3.0410  -22.8820 C   0  0  2  0  0  0  0  0  0  0  0  0
   -6.8350   -2.4920  -22.0110 C   0  0  0  0  0  0  0  0  0  0  0  0
   -5.6830   -2.8770  -22.0200 O   0  0  0  0  0  0  0  0  0  0  0  0
   -7.3230   -1.4800  -21.2090 N   0  0  0  0  0  0  0  0  0  0  0  0
   -6.5630   -0.8730  -20.1810 C   0  0  0  0  0  0  0  0  0  0  0  0
   -6.9000   -1.0790  -18.8660 C   0  0  0  0  0  0  0  0  0  0  0  0
   -6.2260   -0.5700  -17.8070 N   0  0  0  0  0  0  0  0  0  0  0  0
   -5.1930    0.1980  -18.0640 C   0  0  0  0  0  0  0  0  0  0  0  0
   -4.7540    0.5240  -19.3770 C   0  0  0  0  0  0  0  0  0  0  0  0
   -3.6400    1.3770  -19.5990 C   0  0  0  0  0  0  0  0  0  0  0  0
   -3.2730    1.7150  -20.8720 C   0  0  0  0  0  0  0  0  0  0  0  0
   -4.0020    1.2240  -21.9770 C   0  0  0  0  0  0  0  0  0  0  0  0
   -5.0650    0.3760  -21.7920 C   0  0  0  0  0  0  0  0  0  0  0  0
   -5.4620   -0.0050  -20.4790 C   0  0  0  0  0  0  0  0  0  0  0  0
   -5.6080   -0.0160  -22.6460 H   0  0  0  0  0  0  0  0  0  0  0  0
   -3.6960    1.4990  -22.9820 H   0  0  0  0  0  0  0  0  0  0  0  0
   -2.4220    2.3680  -21.0450 H   0  0  0  0  0  0  0  0  0  0  0  0
   -3.1010    1.7610  -18.7380 H   0  0  0  0  0  0  0  0  0  0  0  0
   -4.6500    0.6060  -17.2110 H   0  0  0  0  0  0  0  0  0  0  0  0
   -7.7470   -1.7190  -18.6220 H   0  0  0  0  0  0  0  0  0  0  0  0
   -8.7660   -1.3480  -21.2900 C   0  0  0  0  0  0  0  0  0  0  0  0
   -9.1060   -1.9730  -22.6530 C   0  0  2  0  0  0  0  0  0  0  0  0
  -10.5560   -2.4590  -22.7070 C   0  0  0  0  0  0  0  0  0  0  0  0
  -10.7790   -3.1370  -21.8720 H   0  0  0  0  0  0  0  0  0  0  0  0
  -11.2550   -1.6190  -22.6280 H   0  0  0  0  0  0  0  0  0  0  0  0
  -10.7750   -2.9920  -23.6390 H   0  0  0  0  0  0  0  0  0  0  0  0
   -8.9730   -1.1960  -23.4100 H   0  0  0  0  0  0  0  0  0  0  0  0
   -9.0580   -0.2940  -21.2270 H   0  0  0  0  0  0  0  0  0  0  0  0
   -9.2700   -1.8960  -20.4760 H   0  0  0  0  0  0  0  0  0  0  0  0
   -7.4990   -3.2470  -24.3000 C   0  0  0  0  0  0  0  0  0  0  0  0
   -7.3760   -2.1440  -25.1510 C   0  0  0  0  0  0  0  0  0  0  0  0
   -6.9300   -2.3180  -26.4460 C   0  0  0  0  0  0  0  0  0  0  0  0
   -6.8110   -0.9300  -27.4930 Cl  0  0  0  0  0  0  0  0  0  0  0  0
   -6.5760   -3.5750  -26.9360 C   0  0  0  0  0  0  0  0  0  0  0  0
   -6.6300   -4.6560  -26.0850 C   0  0  0  0  0  0  0  0  0  0  0  0
   -7.0660   -4.4990  -24.7650 C   0  0  0  0  0  0  0  0  0  0  0  0
   -6.9650   -5.6700  -23.8470 C   0  0  0  0  0  0  0  0  0  0  0  0
   -6.3710   -6.6960  -24.1480 O   0  0  0  0  0  0  0  0  0  0  0  0
   -6.3220   -5.6390  -26.4230 H   0  0  0  0  0  0  0  0  0  0  0  0
   -6.2380   -3.6790  -27.9600 H   0  0  0  0  0  0  0  0  0  0  0  0
   -7.6080   -1.1400  -24.8100 H   0  0  0  0  0  0  0  0  0  0  0  0
   -9.4320   -4.6690  -22.8220 H   0  0  0  0  0  0  0  0  0  0  0  0
   -8.6250   -4.3560  -21.2870 H   0  0  0  0  0  0  0  0  0  0  0  0
   -6.9480   -6.2840  -21.3430 C   0  0  0  0  0  0  0  0  0  0  0  0
   -5.9550   -5.3740  -20.4150 C   0  0  0  0  0  0  0  0  0  0  0  0
   -5.4870   -6.0780  -19.7690 H   0  0  0  0  0  0  0  0  0  0  0  0
   -6.5150   -4.5520  -20.0250 H   0  0  0  0  0  0  0  0  0  0  0  0
   -7.8620   -6.5030  -20.7740 H   0  0  0  0  0  0  0  0  0  0  0  0
   -7.2210   -7.3920  -21.5550 H   0  0  0  0  0  0  0  0  0  0  0  0
   -4.0360   -5.1560  -22.3120 H   0  0  0  0  0  0  0  0  0  0  0  0
   -2.3450   -7.5030  -22.0140 H   0  0  0  0  0  0  0  0  0  0  0  0
   -2.8130   -7.2650  -23.7040 H   0  0  0  0  0  0  0  0  0  0  0  0
   -1.9370   -5.9670  -22.8310 H   0  0  0  0  0  0  0  0  0  0  0  0
  1  2  1  0  0  0  0
  1 58  1  0  0  0  0
  1 59  1  0  0  0  0
  1 60  1  0  0  0  0
  2  3  1  0  0  0  0
  2 57  1  0  0  0  0
  3  4  2  0  0  0  0
  3  5  1  0  0  0  0
  5  6  1  0  0  0  0
  5 51  1  0  0  0  0
  5 52  1  0  0  0  0
  6  7  1  0  0  0  0
  6 44  1  0  0  0  0
  7  8  1  0  0  0  0
  7 49  1  0  0  0  0
  7 50  1  0  0  0  0
  8  9  1  1  0  0  0
  8 29  1  0  0  0  0
  8 37  1  0  0  0  0
  9 10  2  0  0  0  0
  9 11  1  0  0  0  0
 11 12  1  0  0  0  0
 11 28  1  0  0  0  0
 12 13  2  0  0  0  0
 12 21  1  0  0  0  0
 13 14  1  0  0  0  0
 13 27  1  0  0  0  0
 14 15  2  0  0  0  0
 15 16  1  0  0  0  0
 15 26  1  0  0  0  0
 16 17  2  0  0  0  0
 16 21  1  0  0  0  0
 17 18  1  0  0  0  0
 17 25  1  0  0  0  0
 18 19  2  0  0  0  0
 18 24  1  0  0  0  0
 19 20  1  0  0  0  0
 19 23  1  0  0  0  0
 20 21  2  0  0  0  0
 20 22  1  0  0  0  0
 28 29  1  0  0  0  0
 28 35  1  0  0  0  0
 28 36  1  0  0  0  0
 29 30  1  0  0  0  0
 29 34  1  6  0  0  0
 30 31  1  0  0  0  0
 30 32  1  0  0  0  0
 30 33  1  0  0  0  0
 37 38  2  0  0  0  0
 37 43  1  0  0  0  0
 38 39  1  0  0  0  0
 38 48  1  0  0  0  0
 39 40  1  0  0  0  0
 39 41  2  0  0  0  0
 41 42  1  0  0  0  0
 41 47  1  0  0  0  0
 42 43  2  0  0  0  0
 42 46  1  0  0  0  0
 43 44  1  0  0  0  0
 44 45  2  0  0  0  0
 51 52  1  0  0  0  0
 51 55  1  0  0  0  0
 51 56  1  0  0  0  0
 52 53  1  0  0  0  0
 52 54  1  0  0  0  0
M  END
>  <MODEL>
       1

$$$$
