output/tmp_first_model_7_6.pdb
 OpenBabel07242616393D

 43 45  0  0  0  0  0  0  0  0999 V2000
  -14.7830   -2.2180  -23.0420 C   0  0  0  0  0  0  0  0  0  0  0  0
  -13.4490   -2.9050  -22.6960 C   0  0  0  0  0  0  0  0  0  0  0  0
  -12.1800   -2.2060  -23.2130 C   0  0  0  0  0  0  0  0  0  0  0  0
  -10.9130   -3.0370  -22.9420 C   0  0  0  0  0  0  0  0  0  0  0  0
   -9.6090   -2.2640  -23.2140 C   0  0  0  0  0  0  0  0  0  0  0  0
   -9.5910   -0.9670  -22.5230 N   0  0  0  0  0  0  0  0  0  0  0  0
   -8.6060   -0.4520  -21.7160 C   0  0  0  0  0  0  0  0  0  0  0  0
   -8.6010    0.7080  -21.3470 O   0  0  0  0  0  0  0  0  0  0  0  0
   -7.4980   -1.4250  -21.2800 C   0  0  0  0  0  0  0  0  0  0  0  0
   -6.6120   -0.8430  -20.2140 C   0  0  0  0  0  0  0  0  0  0  0  0
   -6.9160   -1.0640  -18.8960 C   0  0  0  0  0  0  0  0  0  0  0  0
   -6.2300   -0.5680  -17.8340 N   0  0  0  0  0  0  0  0  0  0  0  0
   -5.1960    0.1900  -18.0940 C   0  0  0  0  0  0  0  0  0  0  0  0
   -4.7570    0.5080  -19.4080 C   0  0  0  0  0  0  0  0  0  0  0  0
   -3.6260    1.3320  -19.6380 C   0  0  0  0  0  0  0  0  0  0  0  0
   -3.2420    1.6350  -20.9150 C   0  0  0  0  0  0  0  0  0  0  0  0
   -3.9780    1.1390  -22.0130 C   0  0  0  0  0  0  0  0  0  0  0  0
   -5.0770    0.3400  -21.8170 C   0  0  0  0  0  0  0  0  0  0  0  0
   -5.4920   -0.0100  -20.5030 C   0  0  0  0  0  0  0  0  0  0  0  0
   -5.6370   -0.0270  -22.6710 H   0  0  0  0  0  0  0  0  0  0  0  0
   -3.6650    1.3990  -23.0210 H   0  0  0  0  0  0  0  0  0  0  0  0
   -2.3820    2.2760  -21.0880 H   0  0  0  0  0  0  0  0  0  0  0  0
   -3.0830    1.7240  -18.7800 H   0  0  0  0  0  0  0  0  0  0  0  0
   -4.6440    0.5930  -17.2410 H   0  0  0  0  0  0  0  0  0  0  0  0
   -7.7770   -1.6810  -18.6430 H   0  0  0  0  0  0  0  0  0  0  0  0
   -7.9810   -2.3260  -20.8810 H   0  0  0  0  0  0  0  0  0  0  0  0
   -6.9080   -1.7320  -22.1530 H   0  0  0  0  0  0  0  0  0  0  0  0
  -10.7580   -0.1360  -22.8190 C   0  0  0  0  0  0  0  0  0  0  0  0
  -12.0080   -0.9130  -22.4410 C   0  0  0  0  0  0  0  0  0  0  0  0
  -11.9160   -1.2800  -21.4140 H   0  0  0  0  0  0  0  0  0  0  0  0
  -12.8920   -0.2710  -22.4740 H   0  0  0  0  0  0  0  0  0  0  0  0
  -10.6930    0.8070  -22.2670 H   0  0  0  0  0  0  0  0  0  0  0  0
  -10.7640    0.1010  -23.8950 H   0  0  0  0  0  0  0  0  0  0  0  0
   -8.7590   -2.8900  -22.9200 H   0  0  0  0  0  0  0  0  0  0  0  0
   -9.5050   -2.0750  -24.2950 H   0  0  0  0  0  0  0  0  0  0  0  0
  -10.9220   -3.3210  -21.8780 H   0  0  0  0  0  0  0  0  0  0  0  0
  -10.9240   -3.9660  -23.5270 H   0  0  0  0  0  0  0  0  0  0  0  0
  -12.2730   -1.9730  -24.2830 H   0  0  0  0  0  0  0  0  0  0  0  0
  -13.4590   -3.9540  -23.0070 H   0  0  0  0  0  0  0  0  0  0  0  0
  -13.3580   -2.9370  -21.6020 H   0  0  0  0  0  0  0  0  0  0  0  0
  -14.7910   -1.7760  -24.0480 H   0  0  0  0  0  0  0  0  0  0  0  0
  -15.0150   -1.4190  -22.3230 H   0  0  0  0  0  0  0  0  0  0  0  0
  -15.5890   -2.9570  -23.0040 H   0  0  0  0  0  0  0  0  0  0  0  0
  1  2  1  0  0  0  0
  1 41  1  0  0  0  0
  1 42  1  0  0  0  0
  1 43  1  0  0  0  0
  2  3  1  0  0  0  0
  2 39  1  0  0  0  0
  2 40  1  0  0  0  0
  3  4  1  0  0  0  0
  3 29  1  0  0  0  0
  3 38  1  0  0  0  0
  4  5  1  0  0  0  0
  4 36  1  0  0  0  0
  4 37  1  0  0  0  0
  5  6  1  0  0  0  0
  5 34  1  0  0  0  0
  5 35  1  0  0  0  0
  6  7  1  0  0  0  0
  6 28  1  0  0  0  0
  7  8  2  0  0  0  0
  7  9  1  0  0  0  0
  9 10  1  0  0  0  0
  9 26  1  0  0  0  0
  9 27  1  0  0  0  0
 10 11  2  0  0  0  0
 10 19  1  0  0  0  0
 11 12  1  0  0  0  0
 11 25  1  0  0  0  0
 12 13  2  0  0  0  0
 13 14  1  0  0  0  0
 13 24  1  0  0  0  0
 14 15  2  0  0  0  0
 14 19  1  0  0  0  0
 15 16  1  0  0  0  0
 15 23  1  0  0  0  0
 16 17  2  0  0  0  0
 16 22  1  0  0  0  0
 17 18  1  0  0  0  0
 17 21  1  0  0  0  0
 18 19  2  0  0  0  0
 18 20  1  0  0  0  0
 28 29  1  0  0  0  0
 28 32  1  0  0  0  0
 28 33  1  0  0  0  0
 29 30  1  0  0  0  0
 29 31  1  0  0  0  0
M  END
>  <MODEL>
       1

$$$$
