output/tmp_first_model_9_67.pdb
 OpenBabel07242617433D

 58 63  0  0  1  0  0  0  0  0999 V2000
   -5.7390    4.0650  -22.3610 C   0  0  0  0  0  0  0  0  0  0  0  0
   -6.8360    3.5320  -23.2240 C   0  0  0  0  0  0  0  0  0  0  0  0
   -6.7720    2.4140  -24.1000 C   0  0  0  0  0  0  0  0  0  0  0  0
   -8.0280    2.3130  -24.6050 C   0  0  0  0  0  0  0  0  0  0  0  0
   -8.6760    1.3040  -25.5070 C   0  0  0  0  0  0  0  0  0  0  0  0
   -9.3920    0.2870  -24.7580 N   0  0  0  0  0  0  0  0  0  0  0  0
   -8.7510   -0.9830  -24.4710 C   0  0  0  0  0  0  0  0  0  0  0  0
   -8.9630   -1.4510  -23.0130 C   0  0  2  0  0  0  0  0  0  0  0  0
   -8.2020   -0.5510  -22.0150 C   0  0  0  0  0  0  0  0  0  0  0  0
   -8.3230    0.6440  -21.8890 O   0  0  0  0  0  0  0  0  0  0  0  0
   -7.3690   -1.3390  -21.2500 N   0  0  0  0  0  0  0  0  0  0  0  0
   -6.5870   -0.8070  -20.2010 C   0  0  0  0  0  0  0  0  0  0  0  0
   -6.8880   -1.0690  -18.8870 C   0  0  0  0  0  0  0  0  0  0  0  0
   -6.2040   -0.5630  -17.8320 N   0  0  0  0  0  0  0  0  0  0  0  0
   -5.1790    0.2150  -18.0880 C   0  0  0  0  0  0  0  0  0  0  0  0
   -4.7380    0.5340  -19.4050 C   0  0  0  0  0  0  0  0  0  0  0  0
   -3.6060    1.3600  -19.6360 C   0  0  0  0  0  0  0  0  0  0  0  0
   -3.1890    1.6260  -20.9140 C   0  0  0  0  0  0  0  0  0  0  0  0
   -3.8880    1.0880  -22.0150 C   0  0  0  0  0  0  0  0  0  0  0  0
   -4.9870    0.2900  -21.8210 C   0  0  0  0  0  0  0  0  0  0  0  0
   -5.4490    0.0040  -20.5030 C   0  0  0  0  0  0  0  0  0  0  0  0
   -5.5070   -0.1340  -22.6740 H   0  0  0  0  0  0  0  0  0  0  0  0
   -3.5450    1.3040  -23.0260 H   0  0  0  0  0  0  0  0  0  0  0  0
   -2.3220    2.2570  -21.0860 H   0  0  0  0  0  0  0  0  0  0  0  0
   -3.0820    1.7700  -18.7790 H   0  0  0  0  0  0  0  0  0  0  0  0
   -4.6240    0.6200  -17.2410 H   0  0  0  0  0  0  0  0  0  0  0  0
   -7.7510   -1.6880  -18.6400 H   0  0  0  0  0  0  0  0  0  0  0  0
   -7.6410   -2.7480  -21.3870 C   0  0  0  0  0  0  0  0  0  0  0  0
   -8.3720   -2.8720  -22.7390 C   0  0  2  0  0  0  0  0  0  0  0  0
   -7.4660   -3.4600  -23.8230 C   0  0  0  0  0  0  0  0  0  0  0  0
   -7.1240   -4.4540  -23.5170 H   0  0  0  0  0  0  0  0  0  0  0  0
   -6.5820   -2.8420  -24.0060 H   0  0  0  0  0  0  0  0  0  0  0  0
   -8.0050   -3.5910  -24.7650 H   0  0  0  0  0  0  0  0  0  0  0  0
   -9.1950   -3.5840  -22.6540 H   0  0  0  0  0  0  0  0  0  0  0  0
   -8.2780   -3.0970  -20.5680 H   0  0  0  0  0  0  0  0  0  0  0  0
   -6.7070   -3.3150  -21.3550 H   0  0  0  0  0  0  0  0  0  0  0  0
  -10.4640   -1.3640  -22.7520 C   0  0  0  0  0  0  0  0  0  0  0  0
  -11.0840   -2.2340  -21.8510 C   0  0  0  0  0  0  0  0  0  0  0  0
  -12.4500   -2.1580  -21.6740 C   0  0  0  0  0  0  0  0  0  0  0  0
  -13.0440   -3.1200  -20.9450 F   0  0  0  0  0  0  0  0  0  0  0  0
  -13.2300   -1.1400  -22.2100 C   0  0  0  0  0  0  0  0  0  0  0  0
  -12.6070   -0.2280  -23.0440 C   0  0  0  0  0  0  0  0  0  0  0  0
  -11.2550   -0.3880  -23.3680 C   0  0  0  0  0  0  0  0  0  0  0  0
  -10.6770    0.5600  -24.3690 C   0  0  0  0  0  0  0  0  0  0  0  0
  -11.3150    1.5140  -24.7860 O   0  0  0  0  0  0  0  0  0  0  0  0
  -13.1420    0.6110  -23.4770 H   0  0  0  0  0  0  0  0  0  0  0  0
  -14.2820   -1.0710  -21.9460 H   0  0  0  0  0  0  0  0  0  0  0  0
  -10.5280   -2.9610  -21.2710 H   0  0  0  0  0  0  0  0  0  0  0  0
   -7.6860   -0.9010  -24.6970 H   0  0  0  0  0  0  0  0  0  0  0  0
   -9.1830   -1.7510  -25.1230 H   0  0  0  0  0  0  0  0  0  0  0  0
   -9.3970    1.7870  -26.1680 H   0  0  0  0  0  0  0  0  0  0  0  0
   -7.9130    0.8070  -26.1170 H   0  0  0  0  0  0  0  0  0  0  0  0
   -8.7890    3.2910  -24.1000 O   0  0  0  0  0  0  0  0  0  0  0  0
   -8.0350    4.0710  -23.2480 N   0  0  0  0  0  0  0  0  0  0  0  0
   -5.9300    1.7740  -24.2990 H   0  0  0  0  0  0  0  0  0  0  0  0
   -5.7020    3.5080  -21.4190 H   0  0  0  0  0  0  0  0  0  0  0  0
   -4.7670    3.9480  -22.8540 H   0  0  0  0  0  0  0  0  0  0  0  0
   -5.8900    5.1190  -22.1270 H   0  0  0  0  0  0  0  0  0  0  0  0
  1  2  1  0  0  0  0
  1 56  1  0  0  0  0
  1 57  1  0  0  0  0
  1 58  1  0  0  0  0
  2  3  1  0  0  0  0
  2 54  2  0  0  0  0
  3  4  2  0  0  0  0
  3 55  1  0  0  0  0
  4  5  1  0  0  0  0
  4 53  1  0  0  0  0
  5  6  1  0  0  0  0
  5 51  1  0  0  0  0
  5 52  1  0  0  0  0
  6  7  1  0  0  0  0
  6 44  1  0  0  0  0
  7  8  1  0  0  0  0
  7 49  1  0  0  0  0
  7 50  1  0  0  0  0
  8  9  1  1  0  0  0
  8 29  1  0  0  0  0
  8 37  1  0  0  0  0
  9 10  2  0  0  0  0
  9 11  1  0  0  0  0
 11 12  1  0  0  0  0
 11 28  1  0  0  0  0
 12 13  2  0  0  0  0
 12 21  1  0  0  0  0
 13 14  1  0  0  0  0
 13 27  1  0  0  0  0
 14 15  2  0  0  0  0
 15 16  1  0  0  0  0
 15 26  1  0  0  0  0
 16 17  2  0  0  0  0
 16 21  1  0  0  0  0
 17 18  1  0  0  0  0
 17 25  1  0  0  0  0
 18 19  2  0  0  0  0
 18 24  1  0  0  0  0
 19 20  1  0  0  0  0
 19 23  1  0  0  0  0
 20 21  2  0  0  0  0
 20 22  1  0  0  0  0
 28 29  1  0  0  0  0
 28 35  1  0  0  0  0
 28 36  1  0  0  0  0
 29 30  1  0  0  0  0
 29 34  1  1  0  0  0
 30 31  1  0  0  0  0
 30 32  1  0  0  0  0
 30 33  1  0  0  0  0
 37 38  2  0  0  0  0
 37 43  1  0  0  0  0
 38 39  1  0  0  0  0
 38 48  1  0  0  0  0
 39 40  1  0  0  0  0
 39 41  2  0  0  0  0
 41 42  1  0  0  0  0
 41 47  1  0  0  0  0
 42 43  2  0  0  0  0
 42 46  1  0  0  0  0
 43 44  1  0  0  0  0
 44 45  2  0  0  0  0
 53 54  1  0  0  0  0
M  END
>  <MODEL>
       1

$$$$
