output/tmp_first_model_20_62.pdb
 OpenBabel07242623363D

 44 47  0  0  0  0  0  0  0  0999 V2000
   -5.6890   -3.1640  -21.4120 O   0  0  0  0  0  0  0  0  0  0  0  0
   -6.7100   -2.7150  -21.9090 C   0  0  0  0  0  0  0  0  0  0  0  0
   -7.4010   -1.4740  -21.2810 C   0  0  0  0  0  0  0  0  0  0  0  0
   -6.5750   -0.8330  -20.1860 C   0  0  0  0  0  0  0  0  0  0  0  0
   -6.8730   -1.0470  -18.8670 C   0  0  0  0  0  0  0  0  0  0  0  0
   -6.1880   -0.5390  -17.8080 N   0  0  0  0  0  0  0  0  0  0  0  0
   -5.1550    0.2190  -18.0700 C   0  0  0  0  0  0  0  0  0  0  0  0
   -4.7190    0.5310  -19.3830 C   0  0  0  0  0  0  0  0  0  0  0  0
   -3.5910    1.3570  -19.6230 C   0  0  0  0  0  0  0  0  0  0  0  0
   -3.1920    1.6330  -20.9020 C   0  0  0  0  0  0  0  0  0  0  0  0
   -3.9030    1.0890  -21.9930 C   0  0  0  0  0  0  0  0  0  0  0  0
   -4.9990    0.2870  -21.7880 C   0  0  0  0  0  0  0  0  0  0  0  0
   -5.4430   -0.0130  -20.4740 C   0  0  0  0  0  0  0  0  0  0  0  0
   -5.5380   -0.1190  -22.6370 H   0  0  0  0  0  0  0  0  0  0  0  0
   -3.5840    1.3190  -23.0060 H   0  0  0  0  0  0  0  0  0  0  0  0
   -2.3320    2.2740  -21.0890 H   0  0  0  0  0  0  0  0  0  0  0  0
   -3.0540    1.7690  -18.7720 H   0  0  0  0  0  0  0  0  0  0  0  0
   -4.6030    0.6260  -17.2170 H   0  0  0  0  0  0  0  0  0  0  0  0
   -7.7220   -1.6720  -18.5860 H   0  0  0  0  0  0  0  0  0  0  0  0
   -8.3610   -1.8000  -20.8490 H   0  0  0  0  0  0  0  0  0  0  0  0
   -7.6560   -0.7260  -22.0450 H   0  0  0  0  0  0  0  0  0  0  0  0
   -7.2940   -3.2990  -23.0140 N   0  0  0  0  0  0  0  0  0  0  0  0
   -6.7580   -4.5610  -23.5240 C   0  0  0  0  0  0  0  0  0  0  0  0
   -7.8760   -5.5560  -23.8360 C   0  0  0  0  0  0  0  0  0  0  0  0
   -9.0380   -4.9490  -24.6610 C   0  0  0  0  0  0  0  0  0  0  0  0
   -9.3790   -5.8460  -25.8600 C   0  0  0  0  0  0  0  0  0  0  0  0
   -8.3780   -6.0650  -26.9630 C   0  0  0  0  0  0  0  0  0  0  0  0
   -9.6640   -5.3360  -27.2460 C   0  0  0  0  0  0  0  0  0  0  0  0
  -10.4100   -5.8440  -27.8570 H   0  0  0  0  0  0  0  0  0  0  0  0
   -9.6130   -4.2670  -27.4390 H   0  0  0  0  0  0  0  0  0  0  0  0
   -8.2460   -7.0640  -27.3820 H   0  0  0  0  0  0  0  0  0  0  0  0
   -7.4660   -5.4710  -26.9280 H   0  0  0  0  0  0  0  0  0  0  0  0
   -9.9370   -6.7420  -25.5870 H   0  0  0  0  0  0  0  0  0  0  0  0
   -8.7430   -3.4930  -25.0210 C   0  0  0  0  0  0  0  0  0  0  0  0
   -8.3580   -2.6700  -23.7950 C   0  0  0  0  0  0  0  0  0  0  0  0
   -8.0460   -1.6730  -24.1290 H   0  0  0  0  0  0  0  0  0  0  0  0
   -9.2420   -2.5280  -23.1620 H   0  0  0  0  0  0  0  0  0  0  0  0
   -9.6320   -3.0410  -25.4670 H   0  0  0  0  0  0  0  0  0  0  0  0
   -7.9620   -3.4190  -25.7870 H   0  0  0  0  0  0  0  0  0  0  0  0
   -9.9240   -4.9390  -24.0140 H   0  0  0  0  0  0  0  0  0  0  0  0
   -7.4440   -6.4130  -24.3630 H   0  0  0  0  0  0  0  0  0  0  0  0
   -8.2700   -5.9500  -22.8970 H   0  0  0  0  0  0  0  0  0  0  0  0
   -6.0860   -4.9700  -22.7710 H   0  0  0  0  0  0  0  0  0  0  0  0
   -6.1490   -4.3790  -24.4220 H   0  0  0  0  0  0  0  0  0  0  0  0
  1  2  2  0  0  0  0
  2  3  1  0  0  0  0
  2 22  1  0  0  0  0
  3  4  1  0  0  0  0
  3 20  1  0  0  0  0
  3 21  1  0  0  0  0
  4  5  2  0  0  0  0
  4 13  1  0  0  0  0
  5  6  1  0  0  0  0
  5 19  1  0  0  0  0
  6  7  2  0  0  0  0
  7  8  1  0  0  0  0
  7 18  1  0  0  0  0
  8  9  2  0  0  0  0
  8 13  1  0  0  0  0
  9 10  1  0  0  0  0
  9 17  1  0  0  0  0
 10 11  2  0  0  0  0
 10 16  1  0  0  0  0
 11 12  1  0  0  0  0
 11 15  1  0  0  0  0
 12 13  2  0  0  0  0
 12 14  1  0  0  0  0
 22 23  1  0  0  0  0
 22 35  1  0  0  0  0
 23 24  1  0  0  0  0
 23 43  1  0  0  0  0
 23 44  1  0  0  0  0
 24 25  1  0  0  0  0
 24 41  1  0  0  0  0
 24 42  1  0  0  0  0
 25 26  1  0  0  0  0
 25 34  1  0  0  0  0
 25 40  1  0  0  0  0
 26 27  1  0  0  0  0
 26 28  1  0  0  0  0
 26 33  1  0  0  0  0
 27 28  1  0  0  0  0
 27 31  1  0  0  0  0
 27 32  1  0  0  0  0
 28 29  1  0  0  0  0
 28 30  1  0  0  0  0
 34 35  1  0  0  0  0
 34 38  1  0  0  0  0
 34 39  1  0  0  0  0
 35 36  1  0  0  0  0
 35 37  1  0  0  0  0
M  END
>  <MODEL>
       1

$$$$
