output/tmp_first_model_6_60.pdb
 OpenBabel07242616043D

 62 67  0  0  1  0  0  0  0  0999 V2000
  -11.6810    3.3360  -22.5710 C   0  0  0  0  0  0  0  0  0  0  0  0
  -10.8790    2.0730  -22.2420 C   0  0  0  0  0  0  0  0  0  0  0  0
   -9.5050    2.0740  -22.7330 N   0  0  0  0  0  0  0  0  0  0  0  0
   -8.5840    2.6570  -21.9570 N   0  0  0  0  0  0  0  0  0  0  0  0
   -7.4710    2.7010  -22.6650 C   0  0  0  0  0  0  0  0  0  0  0  0
   -7.6520    2.0980  -23.9240 C   0  0  0  0  0  0  0  0  0  0  0  0
   -8.9710    1.6900  -23.9200 C   0  0  0  0  0  0  0  0  0  0  0  0
   -9.7590    0.9580  -24.9460 C   0  0  0  0  0  0  0  0  0  0  0  0
  -10.2700   -0.3220  -24.4970 N   0  0  0  0  0  0  0  0  0  0  0  0
   -9.3260   -1.3780  -24.1990 C   0  0  0  0  0  0  0  0  0  0  0  0
   -9.5010   -1.9940  -22.7900 C   0  0  2  0  0  0  0  0  0  0  0  0
   -8.9480   -1.0720  -21.6690 C   0  0  0  0  0  0  0  0  0  0  0  0
   -9.5760   -0.2460  -21.0450 O   0  0  0  0  0  0  0  0  0  0  0  0
   -7.6100   -1.3460  -21.4800 N   0  0  0  0  0  0  0  0  0  0  0  0
   -6.9040   -0.8410  -20.3660 C   0  0  0  0  0  0  0  0  0  0  0  0
   -7.3090   -1.1250  -19.0850 C   0  0  0  0  0  0  0  0  0  0  0  0
   -6.6410   -0.7190  -17.9800 N   0  0  0  0  0  0  0  0  0  0  0  0
   -5.5730    0.0220  -18.1490 C   0  0  0  0  0  0  0  0  0  0  0  0
   -5.0720    0.4210  -19.4190 C   0  0  0  0  0  0  0  0  0  0  0  0
   -3.9620    1.2960  -19.5540 C   0  0  0  0  0  0  0  0  0  0  0  0
   -3.5010    1.6450  -20.7940 C   0  0  0  0  0  0  0  0  0  0  0  0
   -4.1160    1.1210  -21.9540 C   0  0  0  0  0  0  0  0  0  0  0  0
   -5.1750    0.2470  -21.8420 C   0  0  0  0  0  0  0  0  0  0  0  0
   -5.7170   -0.0740  -20.5710 C   0  0  0  0  0  0  0  0  0  0  0  0
   -5.5840   -0.2210  -22.7320 H   0  0  0  0  0  0  0  0  0  0  0  0
   -3.7310    1.3800  -22.9390 H   0  0  0  0  0  0  0  0  0  0  0  0
   -2.6560    2.3220  -20.8990 H   0  0  0  0  0  0  0  0  0  0  0  0
   -3.5090    1.6920  -18.6490 H   0  0  0  0  0  0  0  0  0  0  0  0
   -5.0460    0.3440  -17.2520 H   0  0  0  0  0  0  0  0  0  0  0  0
   -8.2090   -1.7130  -18.9090 H   0  0  0  0  0  0  0  0  0  0  0  0
   -7.1810   -2.5450  -22.1750 C   0  0  0  0  0  0  0  0  0  0  0  0
   -8.5170   -3.1900  -22.5930 C   0  0  2  0  0  0  0  0  0  0  0  0
   -8.3350   -4.1400  -23.7640 C   0  0  0  0  0  0  0  0  0  0  0  0
   -9.2930   -4.5380  -24.1100 H   0  0  0  0  0  0  0  0  0  0  0  0
   -7.6770   -4.9730  -23.4910 H   0  0  0  0  0  0  0  0  0  0  0  0
   -7.8570   -3.6140  -24.6000 H   0  0  0  0  0  0  0  0  0  0  0  0
   -8.8720   -3.7360  -21.7120 H   0  0  0  0  0  0  0  0  0  0  0  0
   -6.5500   -2.3030  -23.0460 H   0  0  0  0  0  0  0  0  0  0  0  0
   -6.5880   -3.1930  -21.5170 H   0  0  0  0  0  0  0  0  0  0  0  0
  -10.9860   -2.2280  -22.5750 C   0  0  0  0  0  0  0  0  0  0  0  0
  -11.4310   -3.0850  -21.5660 C   0  0  0  0  0  0  0  0  0  0  0  0
  -12.7370   -2.9950  -21.1170 C   0  0  0  0  0  0  0  0  0  0  0  0
  -13.1100   -3.7000  -20.0400 F   0  0  0  0  0  0  0  0  0  0  0  0
  -13.6940   -2.1700  -21.6950 C   0  0  0  0  0  0  0  0  0  0  0  0
  -13.2870   -1.4050  -22.7680 C   0  0  0  0  0  0  0  0  0  0  0  0
  -11.9600   -1.4270  -23.1950 C   0  0  0  0  0  0  0  0  0  0  0  0
  -11.5980   -0.4210  -24.2300 C   0  0  0  0  0  0  0  0  0  0  0  0
  -12.4460    0.3200  -24.7130 O   0  0  0  0  0  0  0  0  0  0  0  0
  -13.9730   -0.7490  -23.2910 H   0  0  0  0  0  0  0  0  0  0  0  0
  -14.6980   -2.1220  -21.2810 H   0  0  0  0  0  0  0  0  0  0  0  0
  -10.7450   -3.7800  -21.0890 H   0  0  0  0  0  0  0  0  0  0  0  0
   -9.4230   -2.1820  -24.9420 H   0  0  0  0  0  0  0  0  0  0  0  0
   -8.3360   -0.9310  -24.2850 H   0  0  0  0  0  0  0  0  0  0  0  0
   -9.1290    0.7840  -25.8190 H   0  0  0  0  0  0  0  0  0  0  0  0
  -10.6420    1.5310  -25.2270 H   0  0  0  0  0  0  0  0  0  0  0  0
   -6.9270    1.9280  -24.7090 H   0  0  0  0  0  0  0  0  0  0  0  0
   -6.5960    3.1540  -22.2210 H   0  0  0  0  0  0  0  0  0  0  0  0
  -11.4100    1.1970  -22.6140 H   0  0  0  0  0  0  0  0  0  0  0  0
  -10.7560    1.9280  -21.1690 H   0  0  0  0  0  0  0  0  0  0  0  0
  -11.9790    3.3620  -23.6280 H   0  0  0  0  0  0  0  0  0  0  0  0
  -11.1230    4.2500  -22.3450 H   0  0  0  0  0  0  0  0  0  0  0  0
  -12.6000    3.3460  -21.9740 H   0  0  0  0  0  0  0  0  0  0  0  0
  1  2  1  0  0  0  0
  1 60  1  0  0  0  0
  1 61  1  0  0  0  0
  1 62  1  0  0  0  0
  2  3  1  0  0  0  0
  2 58  1  0  0  0  0
  2 59  1  0  0  0  0
  3  4  1  0  0  0  0
  3  7  1  0  0  0  0
  4  5  2  0  0  0  0
  5  6  1  0  0  0  0
  5 57  1  0  0  0  0
  6  7  2  0  0  0  0
  6 56  1  0  0  0  0
  7  8  1  0  0  0  0
  8  9  1  0  0  0  0
  8 54  1  0  0  0  0
  8 55  1  0  0  0  0
  9 10  1  0  0  0  0
  9 47  1  0  0  0  0
 10 11  1  0  0  0  0
 10 52  1  0  0  0  0
 10 53  1  0  0  0  0
 11 12  1  1  0  0  0
 11 32  1  0  0  0  0
 11 40  1  0  0  0  0
 12 13  2  0  0  0  0
 12 14  1  0  0  0  0
 14 15  1  0  0  0  0
 14 31  1  0  0  0  0
 15 16  2  0  0  0  0
 15 24  1  0  0  0  0
 16 17  1  0  0  0  0
 16 30  1  0  0  0  0
 17 18  2  0  0  0  0
 18 19  1  0  0  0  0
 18 29  1  0  0  0  0
 19 20  2  0  0  0  0
 19 24  1  0  0  0  0
 20 21  1  0  0  0  0
 20 28  1  0  0  0  0
 21 22  2  0  0  0  0
 21 27  1  0  0  0  0
 22 23  1  0  0  0  0
 22 26  1  0  0  0  0
 23 24  2  0  0  0  0
 23 25  1  0  0  0  0
 31 32  1  0  0  0  0
 31 38  1  0  0  0  0
 31 39  1  0  0  0  0
 32 33  1  0  0  0  0
 32 37  1  1  0  0  0
 33 34  1  0  0  0  0
 33 35  1  0  0  0  0
 33 36  1  0  0  0  0
 40 41  2  0  0  0  0
 40 46  1  0  0  0  0
 41 42  1  0  0  0  0
 41 51  1  0  0  0  0
 42 43  1  0  0  0  0
 42 44  2  0  0  0  0
 44 45  1  0  0  0  0
 44 50  1  0  0  0  0
 45 46  2  0  0  0  0
 45 49  1  0  0  0  0
 46 47  1  0  0  0  0
 47 48  2  0  0  0  0
M  END
>  <MODEL>
       1

$$$$
