output/tmp_first_model_18_37.pdb
 OpenBabel07242622363D

 56 60  0  0  1  0  0  0  0  0999 V2000
   -8.1780    4.5170  -24.1440 C   0  0  0  0  0  0  0  0  0  0  0  0
   -8.2200    3.3300  -24.9700 N   0  0  0  0  0  0  0  0  0  0  0  0
   -7.4030    2.2840  -24.6740 C   0  0  0  0  0  0  0  0  0  0  0  0
   -6.5700    2.3190  -23.7880 O   0  0  0  0  0  0  0  0  0  0  0  0
   -7.6080    1.0500  -25.5550 C   0  0  0  0  0  0  0  0  0  0  0  0
   -8.5360    0.1170  -24.9380 N   0  0  0  0  0  0  0  0  0  0  0  0
   -8.0670   -1.1550  -24.4080 C   0  0  0  0  0  0  0  0  0  0  0  0
   -8.8220   -1.5520  -23.1060 C   0  0  2  0  0  0  0  0  0  0  0  0
   -8.3600   -0.6580  -21.9230 C   0  0  0  0  0  0  0  0  0  0  0  0
   -8.7170    0.4610  -21.6420 O   0  0  0  0  0  0  0  0  0  0  0  0
   -7.4190   -1.3750  -21.2120 N   0  0  0  0  0  0  0  0  0  0  0  0
   -6.6330   -0.8010  -20.1900 C   0  0  0  0  0  0  0  0  0  0  0  0
   -6.9260   -1.0760  -18.8790 C   0  0  0  0  0  0  0  0  0  0  0  0
   -6.2430   -0.5840  -17.8170 N   0  0  0  0  0  0  0  0  0  0  0  0
   -5.2170    0.1900  -18.0820 C   0  0  0  0  0  0  0  0  0  0  0  0
   -4.7760    0.5150  -19.3960 C   0  0  0  0  0  0  0  0  0  0  0  0
   -3.6390    1.3360  -19.6170 C   0  0  0  0  0  0  0  0  0  0  0  0
   -3.2170    1.6080  -20.8860 C   0  0  0  0  0  0  0  0  0  0  0  0
   -3.9150    1.0840  -21.9980 C   0  0  0  0  0  0  0  0  0  0  0  0
   -5.0270    0.2980  -21.8120 C   0  0  0  0  0  0  0  0  0  0  0  0
   -5.4890   -0.0000  -20.5000 C   0  0  0  0  0  0  0  0  0  0  0  0
   -5.5660   -0.0750  -22.6810 H   0  0  0  0  0  0  0  0  0  0  0  0
   -3.5840    1.3200  -23.0040 H   0  0  0  0  0  0  0  0  0  0  0  0
   -2.3430    2.2330  -21.0480 H   0  0  0  0  0  0  0  0  0  0  0  0
   -3.1240    1.7340  -18.7460 H   0  0  0  0  0  0  0  0  0  0  0  0
   -4.6700    0.6020  -17.2340 H   0  0  0  0  0  0  0  0  0  0  0  0
   -7.7700   -1.7270  -18.6540 H   0  0  0  0  0  0  0  0  0  0  0  0
   -7.1910   -2.7240  -21.6760 C   0  0  0  0  0  0  0  0  0  0  0  0
   -8.3780   -2.9660  -22.6140 C   0  0  2  0  0  0  0  0  0  0  0  0
   -8.1050   -3.9960  -23.7000 C   0  0  0  0  0  0  0  0  0  0  0  0
   -7.9310   -4.9810  -23.2530 H   0  0  0  0  0  0  0  0  0  0  0  0
   -8.9580   -4.0630  -24.3840 H   0  0  0  0  0  0  0  0  0  0  0  0
   -7.2150   -3.7240  -24.2820 H   0  0  0  0  0  0  0  0  0  0  0  0
   -9.1800   -3.3480  -21.9780 H   0  0  0  0  0  0  0  0  0  0  0  0
   -7.1800   -3.4200  -20.8320 H   0  0  0  0  0  0  0  0  0  0  0  0
   -6.2220   -2.8230  -22.1890 H   0  0  0  0  0  0  0  0  0  0  0  0
  -10.3100   -1.3940  -23.3600 C   0  0  0  0  0  0  0  0  0  0  0  0
  -11.2490   -2.0700  -22.5720 C   0  0  0  0  0  0  0  0  0  0  0  0
  -12.6050   -1.8490  -22.7230 C   0  0  0  0  0  0  0  0  0  0  0  0
  -13.0760   -1.0200  -23.7440 C   0  0  0  0  0  0  0  0  0  0  0  0
  -12.1690   -0.3780  -24.5650 C   0  0  0  0  0  0  0  0  0  0  0  0
  -10.7970   -0.5140  -24.3370 C   0  0  0  0  0  0  0  0  0  0  0  0
   -9.8630    0.3780  -25.0960 C   0  0  0  0  0  0  0  0  0  0  0  0
  -10.2580    1.3230  -25.7810 O   0  0  0  0  0  0  0  0  0  0  0  0
  -12.4890    0.2070  -25.4200 H   0  0  0  0  0  0  0  0  0  0  0  0
  -14.1420   -0.8490  -23.8680 H   0  0  0  0  0  0  0  0  0  0  0  0
  -13.3000   -2.3360  -22.0460 H   0  0  0  0  0  0  0  0  0  0  0  0
  -10.9340   -2.7750  -21.8080 H   0  0  0  0  0  0  0  0  0  0  0  0
   -6.9910   -1.0600  -24.2110 H   0  0  0  0  0  0  0  0  0  0  0  0
   -8.2120   -1.9440  -25.1630 H   0  0  0  0  0  0  0  0  0  0  0  0
   -6.6520    0.5440  -25.7090 H   0  0  0  0  0  0  0  0  0  0  0  0
   -8.0040    1.3550  -26.5260 H   0  0  0  0  0  0  0  0  0  0  0  0
   -9.0720    3.0920  -25.4550 H   0  0  0  0  0  0  0  0  0  0  0  0
   -7.1520    4.8890  -24.0930 H   0  0  0  0  0  0  0  0  0  0  0  0
   -8.5240    4.3070  -23.1250 H   0  0  0  0  0  0  0  0  0  0  0  0
   -8.8140    5.2770  -24.6030 H   0  0  0  0  0  0  0  0  0  0  0  0
  1  2  1  0  0  0  0
  1 54  1  0  0  0  0
  1 55  1  0  0  0  0
  1 56  1  0  0  0  0
  2  3  1  0  0  0  0
  2 53  1  0  0  0  0
  3  4  2  0  0  0  0
  3  5  1  0  0  0  0
  5  6  1  0  0  0  0
  5 51  1  0  0  0  0
  5 52  1  0  0  0  0
  6  7  1  0  0  0  0
  6 43  1  0  0  0  0
  7  8  1  0  0  0  0
  7 49  1  0  0  0  0
  7 50  1  0  0  0  0
  8  9  1  1  0  0  0
  8 29  1  0  0  0  0
  8 37  1  0  0  0  0
  9 10  2  0  0  0  0
  9 11  1  0  0  0  0
 11 12  1  0  0  0  0
 11 28  1  0  0  0  0
 12 13  2  0  0  0  0
 12 21  1  0  0  0  0
 13 14  1  0  0  0  0
 13 27  1  0  0  0  0
 14 15  2  0  0  0  0
 15 16  1  0  0  0  0
 15 26  1  0  0  0  0
 16 17  2  0  0  0  0
 16 21  1  0  0  0  0
 17 18  1  0  0  0  0
 17 25  1  0  0  0  0
 18 19  2  0  0  0  0
 18 24  1  0  0  0  0
 19 20  1  0  0  0  0
 19 23  1  0  0  0  0
 20 21  2  0  0  0  0
 20 22  1  0  0  0  0
 28 29  1  0  0  0  0
 28 35  1  0  0  0  0
 28 36  1  0  0  0  0
 29 30  1  0  0  0  0
 29 34  1  1  0  0  0
 30 31  1  0  0  0  0
 30 32  1  0  0  0  0
 30 33  1  0  0  0  0
 37 38  2  0  0  0  0
 37 42  1  0  0  0  0
 38 39  1  0  0  0  0
 38 48  1  0  0  0  0
 39 40  2  0  0  0  0
 39 47  1  0  0  0  0
 40 41  1  0  0  0  0
 40 46  1  0  0  0  0
 41 42  2  0  0  0  0
 41 45  1  0  0  0  0
 42 43  1  0  0  0  0
 43 44  2  0  0  0  0
M  END
>  <MODEL>
       1

$$$$
