output/tmp_first_model_3_2.pdb
 OpenBabel07242614263D

 60 65  0  0  1  0  0  0  0  0999 V2000
  -10.4770    0.0440  -30.0040 C   0  0  0  0  0  0  0  0  0  0  0  0
  -10.3350    0.1390  -28.5100 C   0  0  0  0  0  0  0  0  0  0  0  0
   -9.1430    0.4460  -27.8560 C   0  0  0  0  0  0  0  0  0  0  0  0
   -9.0780    0.6350  -26.5360 N   0  0  0  0  0  0  0  0  0  0  0  0
  -10.2200    0.5230  -25.8570 C   0  0  0  0  0  0  0  0  0  0  0  0
  -10.2120    0.7320  -24.3690 C   0  0  0  0  0  0  0  0  0  0  0  0
  -10.4030   -0.5150  -23.6520 N   0  0  0  0  0  0  0  0  0  0  0  0
   -9.3520   -1.5150  -23.7590 C   0  0  0  0  0  0  0  0  0  0  0  0
   -9.1320   -2.2540  -22.4220 C   0  0  2  0  0  0  0  0  0  0  0  0
   -8.5930   -1.2290  -21.4040 C   0  0  0  0  0  0  0  0  0  0  0  0
   -9.1890   -0.2910  -20.9230 O   0  0  0  0  0  0  0  0  0  0  0  0
   -7.2570   -1.4970  -21.1850 N   0  0  0  0  0  0  0  0  0  0  0  0
   -6.5510   -0.8500  -20.1490 C   0  0  0  0  0  0  0  0  0  0  0  0
   -6.9160   -1.0250  -18.8370 C   0  0  0  0  0  0  0  0  0  0  0  0
   -6.2390   -0.5050  -17.7830 N   0  0  0  0  0  0  0  0  0  0  0  0
   -5.1830    0.2290  -18.0470 C   0  0  0  0  0  0  0  0  0  0  0  0
   -4.7200    0.5190  -19.3620 C   0  0  0  0  0  0  0  0  0  0  0  0
   -3.5930    1.3470  -19.6030 C   0  0  0  0  0  0  0  0  0  0  0  0
   -3.2110    1.6400  -20.8830 C   0  0  0  0  0  0  0  0  0  0  0  0
   -3.9370    1.1260  -21.9810 C   0  0  0  0  0  0  0  0  0  0  0  0
   -5.0270    0.3190  -21.7740 C   0  0  0  0  0  0  0  0  0  0  0  0
   -5.4310   -0.0190  -20.4550 C   0  0  0  0  0  0  0  0  0  0  0  0
   -5.6040   -0.0470  -22.6180 H   0  0  0  0  0  0  0  0  0  0  0  0
   -3.6390    1.3810  -22.9940 H   0  0  0  0  0  0  0  0  0  0  0  0
   -2.3550    2.2840  -21.0650 H   0  0  0  0  0  0  0  0  0  0  0  0
   -3.0630    1.7560  -18.7460 H   0  0  0  0  0  0  0  0  0  0  0  0
   -4.6370    0.6400  -17.1970 H   0  0  0  0  0  0  0  0  0  0  0  0
   -7.7880   -1.6250  -18.5840 H   0  0  0  0  0  0  0  0  0  0  0  0
   -6.7240   -2.5460  -22.0370 C   0  0  0  0  0  0  0  0  0  0  0  0
   -7.9900   -3.3070  -22.4640 C   0  0  2  0  0  0  0  0  0  0  0  0
   -7.8650   -4.0840  -23.7680 C   0  0  0  0  0  0  0  0  0  0  0  0
   -7.5990   -3.4190  -24.5980 H   0  0  0  0  0  0  0  0  0  0  0  0
   -8.8180   -4.5650  -24.0180 H   0  0  0  0  0  0  0  0  0  0  0  0
   -7.1000   -4.8620  -23.6970 H   0  0  0  0  0  0  0  0  0  0  0  0
   -8.1680   -4.0170  -21.6480 H   0  0  0  0  0  0  0  0  0  0  0  0
   -6.1810   -2.1410  -22.9040 H   0  0  0  0  0  0  0  0  0  0  0  0
   -6.0220   -3.1750  -21.4790 H   0  0  0  0  0  0  0  0  0  0  0  0
  -10.5460   -2.8210  -22.0560 C   0  0  0  0  0  0  0  0  0  0  0  0
  -10.8930   -3.9300  -21.3670 C   0  0  0  0  0  0  0  0  0  0  0  0
  -13.1130   -2.9960  -20.6090 C   0  0  0  0  0  0  0  0  0  0  0  0
  -13.2280   -4.4580  -20.1690 F   0  0  0  0  0  0  0  0  0  0  0  0
  -13.1630   -3.1080  -20.5970 C   0  0  0  0  0  0  0  0  0  0  0  0
  -12.9610   -2.4450  -21.8790 C   0  0  0  0  0  0  0  0  0  0  0  0
  -11.6810   -2.0440  -22.4220 C   0  0  0  0  0  0  0  0  0  0  0  0
  -11.6740   -0.8880  -23.2560 C   0  0  0  0  0  0  0  0  0  0  0  0
  -12.6820   -0.2580  -23.5660 O   0  0  0  0  0  0  0  0  0  0  0  0
  -13.7660   -1.8870  -21.7260 H   0  0  0  0  0  0  0  0  0  0  0  0
  -14.0370   -2.5930  -19.7640 H   0  0  0  0  0  0  0  0  0  0  0  0
  -10.2660   -4.7470  -21.0130 H   0  0  0  0  0  0  0  0  0  0  0  0
   -9.6040   -2.2610  -24.5290 H   0  0  0  0  0  0  0  0  0  0  0  0
   -8.4340   -1.0010  -24.0530 H   0  0  0  0  0  0  0  0  0  0  0  0
   -9.2480    1.1620  -24.0760 H   0  0  0  0  0  0  0  0  0  0  0  0
  -11.0130    1.4130  -24.0580 H   0  0  0  0  0  0  0  0  0  0  0  0
  -11.4000    0.1570  -26.4960 C   0  0  0  0  0  0  0  0  0  0  0  0
  -11.4530   -0.0490  -27.8080 N   0  0  0  0  0  0  0  0  0  0  0  0
  -12.3250    0.0700  -25.9290 H   0  0  0  0  0  0  0  0  0  0  0  0
   -8.2120    0.5490  -28.4090 H   0  0  0  0  0  0  0  0  0  0  0  0
   -9.7300    0.6550  -30.5180 H   0  0  0  0  0  0  0  0  0  0  0  0
  -10.3900   -0.9890  -30.3560 H   0  0  0  0  0  0  0  0  0  0  0  0
  -11.4770    0.3950  -30.2760 H   0  0  0  0  0  0  0  0  0  0  0  0
  1  2  1  0  0  0  0
  1 58  1  0  0  0  0
  1 59  1  0  0  0  0
  1 60  1  0  0  0  0
  2  3  2  0  0  0  0
  2 55  1  0  0  0  0
  3  4  1  0  0  0  0
  3 57  1  0  0  0  0
  4  5  2  0  0  0  0
  5  6  1  0  0  0  0
  5 54  1  0  0  0  0
  6  7  1  0  0  0  0
  6 52  1  0  0  0  0
  6 53  1  0  0  0  0
  7  8  1  0  0  0  0
  7 45  1  0  0  0  0
  8  9  1  0  0  0  0
  8 50  1  0  0  0  0
  8 51  1  0  0  0  0
  9 10  1  1  0  0  0
  9 30  1  0  0  0  0
  9 38  1  0  0  0  0
 10 11  2  0  0  0  0
 10 12  1  0  0  0  0
 12 13  1  0  0  0  0
 12 29  1  0  0  0  0
 13 14  2  0  0  0  0
 13 22  1  0  0  0  0
 14 15  1  0  0  0  0
 14 28  1  0  0  0  0
 15 16  2  0  0  0  0
 16 17  1  0  0  0  0
 16 27  1  0  0  0  0
 17 18  2  0  0  0  0
 17 22  1  0  0  0  0
 18 19  1  0  0  0  0
 18 26  1  0  0  0  0
 19 20  2  0  0  0  0
 19 25  1  0  0  0  0
 20 21  1  0  0  0  0
 20 24  1  0  0  0  0
 21 22  2  0  0  0  0
 21 23  1  0  0  0  0
 29 30  1  0  0  0  0
 29 36  1  0  0  0  0
 29 37  1  0  0  0  0
 30 31  1  0  0  0  0
 30 35  1  1  0  0  0
 31 32  1  0  0  0  0
 31 33  1  0  0  0  0
 31 34  1  0  0  0  0
 38 39  2  0  0  0  0
 38 44  1  0  0  0  0
 39 40  1  0  0  0  0
 39 49  1  0  0  0  0
 40 41  1  0  0  0  0
 40 42  2  0  0  0  0
 42 43  1  0  0  0  0
 42 48  1  0  0  0  0
 43 44  2  0  0  0  0
 43 47  1  0  0  0  0
 44 45  1  0  0  0  0
 45 46  2  0  0  0  0
 54 55  2  0  0  0  0
 54 56  1  0  0  0  0
M  END
>  <MODEL>
       1

$$$$
