output/tmp_first_model_14_27.pdb
 OpenBabel07242620283D

 58 62  0  0  1  0  0  0  0  0999 V2000
   -8.4900   -0.9490  -29.4410 C   0  0  0  0  0  0  0  0  0  0  0  0
   -7.9810   -0.4530  -28.1350 N   0  3  0  0  0  0  0  0  0  0  0  0
   -6.9380   -1.3280  -27.5210 C   0  0  0  0  0  0  0  0  0  0  0  0
   -7.5940   -2.4450  -26.7030 C   0  0  0  0  0  0  0  0  0  0  0  0
   -8.4910   -1.9360  -25.6660 N   0  0  0  0  0  0  0  0  0  0  0  0
   -7.9230   -1.2980  -24.4890 C   0  0  0  0  0  0  0  0  0  0  0  0
   -8.7640   -1.5560  -23.2160 C   0  0  2  0  0  0  0  0  0  0  0  0
   -8.2290   -0.5770  -22.1550 C   0  0  0  0  0  0  0  0  0  0  0  0
   -8.4620    0.6090  -22.0620 O   0  0  0  0  0  0  0  0  0  0  0  0
   -7.3850   -1.2800  -21.3190 N   0  0  0  0  0  0  0  0  0  0  0  0
   -6.6230   -0.6840  -20.2870 C   0  0  0  0  0  0  0  0  0  0  0  0
   -6.9580   -0.9330  -18.9810 C   0  0  0  0  0  0  0  0  0  0  0  0
   -6.2970   -0.4320  -17.9130 N   0  0  0  0  0  0  0  0  0  0  0  0
   -5.2390    0.3070  -18.1510 C   0  0  0  0  0  0  0  0  0  0  0  0
   -4.7540    0.6070  -19.4550 C   0  0  0  0  0  0  0  0  0  0  0  0
   -3.5860    1.3900  -19.6570 C   0  0  0  0  0  0  0  0  0  0  0  0
   -3.1290    1.6410  -20.9230 C   0  0  0  0  0  0  0  0  0  0  0  0
   -3.8100    1.1130  -22.0440 C   0  0  0  0  0  0  0  0  0  0  0  0
   -4.9430    0.3560  -21.8720 C   0  0  0  0  0  0  0  0  0  0  0  0
   -5.4530    0.0940  -20.5700 C   0  0  0  0  0  0  0  0  0  0  0  0
   -5.4530   -0.0550  -22.7370 H   0  0  0  0  0  0  0  0  0  0  0  0
   -3.4390    1.3180  -23.0450 H   0  0  0  0  0  0  0  0  0  0  0  0
   -2.2510    2.2610  -21.0770 H   0  0  0  0  0  0  0  0  0  0  0  0
   -3.0790    1.7970  -18.7870 H   0  0  0  0  0  0  0  0  0  0  0  0
   -4.7020    0.7000  -17.2870 H   0  0  0  0  0  0  0  0  0  0  0  0
   -7.8200   -1.5630  -18.7620 H   0  0  0  0  0  0  0  0  0  0  0  0
   -7.2980   -2.6960  -21.6080 C   0  0  0  0  0  0  0  0  0  0  0  0
   -8.4920   -2.9430  -22.5350 C   0  0  2  0  0  0  0  0  0  0  0  0
   -8.3110   -4.1550  -23.4470 C   0  0  0  0  0  0  0  0  0  0  0  0
   -7.3950   -4.0740  -24.0480 H   0  0  0  0  0  0  0  0  0  0  0  0
   -8.2240   -5.0640  -22.8440 H   0  0  0  0  0  0  0  0  0  0  0  0
   -9.1620   -4.2650  -24.1260 H   0  0  0  0  0  0  0  0  0  0  0  0
   -9.3750   -3.1020  -21.8960 H   0  0  0  0  0  0  0  0  0  0  0  0
   -7.3720   -3.2660  -20.6800 H   0  0  0  0  0  0  0  0  0  0  0  0
   -6.3340   -2.9470  -22.0840 H   0  0  0  0  0  0  0  0  0  0  0  0
  -10.2360   -1.3480  -23.5230 C   0  0  0  0  0  0  0  0  0  0  0  0
  -11.1620   -1.1560  -22.4880 C   0  0  0  0  0  0  0  0  0  0  0  0
  -12.5120   -1.1420  -22.7890 C   0  0  0  0  0  0  0  0  0  0  0  0
  -13.4110   -0.9580  -21.8130 F   0  0  0  0  0  0  0  0  0  0  0  0
  -13.0040   -1.3500  -24.0710 C   0  0  0  0  0  0  0  0  0  0  0  0
  -12.0960   -1.5270  -25.0940 C   0  0  0  0  0  0  0  0  0  0  0  0
  -10.7240   -1.4920  -24.8270 C   0  0  0  0  0  0  0  0  0  0  0  0
   -9.8020   -1.6990  -25.9730 C   0  0  0  0  0  0  0  0  0  0  0  0
  -10.2150   -1.6600  -27.1330 O   0  0  0  0  0  0  0  0  0  0  0  0
  -12.4180   -1.7110  -26.1130 H   0  0  0  0  0  0  0  0  0  0  0  0
  -14.0750   -1.3910  -24.2230 H   0  0  0  0  0  0  0  0  0  0  0  0
  -10.8420   -1.0720  -21.4560 H   0  0  0  0  0  0  0  0  0  0  0  0
   -6.8950   -1.6570  -24.3380 H   0  0  0  0  0  0  0  0  0  0  0  0
   -7.8750   -0.2050  -24.6200 H   0  0  0  0  0  0  0  0  0  0  0  0
   -8.2060   -3.0840  -27.3470 H   0  0  0  0  0  0  0  0  0  0  0  0
   -6.8260   -3.0760  -26.2410 H   0  0  0  0  0  0  0  0  0  0  0  0
   -6.2900   -0.7160  -26.8900 H   0  0  0  0  0  0  0  0  0  0  0  0
   -6.3140   -1.7510  -28.3140 H   0  0  0  0  0  0  0  0  0  0  0  0
   -8.7980   -0.4340  -27.5060 H   0  0  0  0  0  0  0  0  0  0  0  0
   -7.6550    0.5270  -28.2220 H   0  0  0  0  0  0  0  0  0  0  0  0
   -8.9470   -0.1210  -29.9880 H   0  0  0  0  0  0  0  0  0  0  0  0
   -9.2480   -1.7120  -29.2600 H   0  0  0  0  0  0  0  0  0  0  0  0
   -7.6740   -1.3700  -30.0360 H   0  0  0  0  0  0  0  0  0  0  0  0
  1  2  1  0  0  0  0
  1 56  1  0  0  0  0
  1 57  1  0  0  0  0
  1 58  1  0  0  0  0
  2  3  1  0  0  0  0
  2 54  1  0  0  0  0
  2 55  1  0  0  0  0
  3  4  1  0  0  0  0
  3 52  1  0  0  0  0
  3 53  1  0  0  0  0
  4  5  1  0  0  0  0
  4 50  1  0  0  0  0
  4 51  1  0  0  0  0
  5  6  1  0  0  0  0
  5 43  1  0  0  0  0
  6  7  1  0  0  0  0
  6 48  1  0  0  0  0
  6 49  1  0  0  0  0
  7  8  1  1  0  0  0
  7 28  1  0  0  0  0
  7 36  1  0  0  0  0
  8  9  2  0  0  0  0
  8 10  1  0  0  0  0
 10 11  1  0  0  0  0
 10 27  1  0  0  0  0
 11 12  2  0  0  0  0
 11 20  1  0  0  0  0
 12 13  1  0  0  0  0
 12 26  1  0  0  0  0
 13 14  2  0  0  0  0
 14 15  1  0  0  0  0
 14 25  1  0  0  0  0
 15 16  2  0  0  0  0
 15 20  1  0  0  0  0
 16 17  1  0  0  0  0
 16 24  1  0  0  0  0
 17 18  2  0  0  0  0
 17 23  1  0  0  0  0
 18 19  1  0  0  0  0
 18 22  1  0  0  0  0
 19 20  2  0  0  0  0
 19 21  1  0  0  0  0
 27 28  1  0  0  0  0
 27 34  1  0  0  0  0
 27 35  1  0  0  0  0
 28 29  1  0  0  0  0
 28 33  1  1  0  0  0
 29 30  1  0  0  0  0
 29 31  1  0  0  0  0
 29 32  1  0  0  0  0
 36 37  2  0  0  0  0
 36 42  1  0  0  0  0
 37 38  1  0  0  0  0
 37 47  1  0  0  0  0
 38 39  1  0  0  0  0
 38 40  2  0  0  0  0
 40 41  1  0  0  0  0
 40 46  1  0  0  0  0
 41 42  2  0  0  0  0
 41 45  1  0  0  0  0
 42 43  1  0  0  0  0
 43 44  2  0  0  0  0
M  CHG  1   2   1
M  END
>  <MODEL>
       1

$$$$
