output/tmp_first_model_20_61.pdb
 OpenBabel07242623363D

 44 47  0  0  0  0  0  0  0  0999 V2000
   -9.1630    0.2410  -21.0760 O   0  0  0  0  0  0  0  0  0  0  0  0
   -8.3730   -0.3140  -21.8110 C   0  0  0  0  0  0  0  0  0  0  0  0
   -7.4420   -1.4120  -21.2710 C   0  0  0  0  0  0  0  0  0  0  0  0
   -6.5700   -0.8350  -20.1750 C   0  0  0  0  0  0  0  0  0  0  0  0
   -6.8770   -1.0400  -18.8560 C   0  0  0  0  0  0  0  0  0  0  0  0
   -6.1880   -0.5320  -17.8010 N   0  0  0  0  0  0  0  0  0  0  0  0
   -5.1520    0.2210  -18.0680 C   0  0  0  0  0  0  0  0  0  0  0  0
   -4.7190    0.5350  -19.3830 C   0  0  0  0  0  0  0  0  0  0  0  0
   -3.5980    1.3690  -19.6240 C   0  0  0  0  0  0  0  0  0  0  0  0
   -3.2100    1.6620  -20.9020 C   0  0  0  0  0  0  0  0  0  0  0  0
   -3.9310    1.1270  -21.9940 C   0  0  0  0  0  0  0  0  0  0  0  0
   -5.0180    0.3150  -21.7860 C   0  0  0  0  0  0  0  0  0  0  0  0
   -5.4480   -0.0030  -20.4720 C   0  0  0  0  0  0  0  0  0  0  0  0
   -5.5570   -0.0830  -22.6380 H   0  0  0  0  0  0  0  0  0  0  0  0
   -3.6180    1.3700  -23.0060 H   0  0  0  0  0  0  0  0  0  0  0  0
   -2.3590    2.3110  -21.0880 H   0  0  0  0  0  0  0  0  0  0  0  0
   -3.0590    1.7770  -18.7730 H   0  0  0  0  0  0  0  0  0  0  0  0
   -4.6010    0.6260  -17.2160 H   0  0  0  0  0  0  0  0  0  0  0  0
   -7.7290   -1.6590  -18.5800 H   0  0  0  0  0  0  0  0  0  0  0  0
   -8.0720   -2.2020  -20.8450 H   0  0  0  0  0  0  0  0  0  0  0  0
   -6.8320   -1.8520  -22.0690 H   0  0  0  0  0  0  0  0  0  0  0  0
   -8.1960    0.0590  -23.1440 N   0  0  0  0  0  0  0  0  0  0  0  0
   -8.3970    1.4600  -23.5010 C   0  0  0  0  0  0  0  0  0  0  0  0
   -7.3910    1.8630  -24.5790 C   0  0  0  0  0  0  0  0  0  0  0  0
   -7.4470    0.9340  -25.7880 C   0  0  0  0  0  0  0  0  0  0  0  0
   -6.4900    1.3370  -26.9350 C   0  0  0  0  0  0  0  0  0  0  0  0
   -7.6900    1.5930  -27.8740 C   0  0  0  0  0  0  0  0  0  0  0  0
   -8.6530    1.1930  -26.7350 C   0  0  0  0  0  0  0  0  0  0  0  0
   -9.2660    0.3100  -26.9380 H   0  0  0  0  0  0  0  0  0  0  0  0
   -9.3260    1.9870  -26.3990 H   0  0  0  0  0  0  0  0  0  0  0  0
   -7.7900    2.6270  -28.2170 H   0  0  0  0  0  0  0  0  0  0  0  0
   -7.7300    0.9460  -28.7550 H   0  0  0  0  0  0  0  0  0  0  0  0
   -5.8750    2.2150  -26.7210 H   0  0  0  0  0  0  0  0  0  0  0  0
   -5.8150    0.5390  -27.2560 H   0  0  0  0  0  0  0  0  0  0  0  0
   -7.2940   -0.5170  -25.3460 C   0  0  0  0  0  0  0  0  0  0  0  0
   -8.2940   -0.8800  -24.2560 C   0  0  0  0  0  0  0  0  0  0  0  0
   -9.3120   -0.8850  -24.6880 H   0  0  0  0  0  0  0  0  0  0  0  0
   -8.1180   -1.8880  -23.8820 H   0  0  0  0  0  0  0  0  0  0  0  0
   -6.2750   -0.6830  -24.9740 H   0  0  0  0  0  0  0  0  0  0  0  0
   -7.4220   -1.1790  -26.2090 H   0  0  0  0  0  0  0  0  0  0  0  0
   -6.3770    1.8580  -24.1550 H   0  0  0  0  0  0  0  0  0  0  0  0
   -7.5780    2.8920  -24.9010 H   0  0  0  0  0  0  0  0  0  0  0  0
   -8.2520    2.0580  -22.6000 H   0  0  0  0  0  0  0  0  0  0  0  0
   -9.4250    1.6600  -23.8450 H   0  0  0  0  0  0  0  0  0  0  0  0
  1  2  2  0  0  0  0
  2  3  1  0  0  0  0
  2 22  1  0  0  0  0
  3  4  1  0  0  0  0
  3 20  1  0  0  0  0
  3 21  1  0  0  0  0
  4  5  2  0  0  0  0
  4 13  1  0  0  0  0
  5  6  1  0  0  0  0
  5 19  1  0  0  0  0
  6  7  2  0  0  0  0
  7  8  1  0  0  0  0
  7 18  1  0  0  0  0
  8  9  2  0  0  0  0
  8 13  1  0  0  0  0
  9 10  1  0  0  0  0
  9 17  1  0  0  0  0
 10 11  2  0  0  0  0
 10 16  1  0  0  0  0
 11 12  1  0  0  0  0
 11 15  1  0  0  0  0
 12 13  2  0  0  0  0
 12 14  1  0  0  0  0
 22 23  1  0  0  0  0
 22 36  1  0  0  0  0
 23 24  1  0  0  0  0
 23 43  1  0  0  0  0
 23 44  1  0  0  0  0
 24 25  1  0  0  0  0
 24 41  1  0  0  0  0
 24 42  1  0  0  0  0
 25 26  1  0  0  0  0
 25 28  1  0  0  0  0
 25 35  1  0  0  0  0
 26 27  1  0  0  0  0
 26 33  1  0  0  0  0
 26 34  1  0  0  0  0
 27 28  1  0  0  0  0
 27 31  1  0  0  0  0
 27 32  1  0  0  0  0
 28 29  1  0  0  0  0
 28 30  1  0  0  0  0
 35 36  1  0  0  0  0
 35 39  1  0  0  0  0
 35 40  1  0  0  0  0
 36 37  1  0  0  0  0
 36 38  1  0  0  0  0
M  END
>  <MODEL>
       1

$$$$
