output/tmp_first_model_11_21.pdb
 OpenBabel07242618513D

 63 68  0  0  1  0  0  0  0  0999 V2000
   -7.6090   -3.5410  -23.7160 C   0  0  0  0  0  0  0  0  0  0  0  0
   -8.4510   -2.8790  -22.6220 C   0  0  1  0  0  0  0  0  0  0  0  0
   -7.6660   -2.7540  -21.2990 C   0  0  0  0  0  0  0  0  0  0  0  0
   -7.3760   -1.3430  -21.1900 N   0  0  0  0  0  0  0  0  0  0  0  0
   -6.5770   -0.8070  -20.1580 C   0  0  0  0  0  0  0  0  0  0  0  0
   -6.8720   -1.0670  -18.8440 C   0  0  0  0  0  0  0  0  0  0  0  0
   -6.1910   -0.5550  -17.7910 N   0  0  0  0  0  0  0  0  0  0  0  0
   -5.1670    0.2210  -18.0610 C   0  0  0  0  0  0  0  0  0  0  0  0
   -4.7260    0.5320  -19.3790 C   0  0  0  0  0  0  0  0  0  0  0  0
   -3.5940    1.3590  -19.6170 C   0  0  0  0  0  0  0  0  0  0  0  0
   -3.1750    1.6180  -20.8940 C   0  0  0  0  0  0  0  0  0  0  0  0
   -3.8670    1.0580  -21.9920 C   0  0  0  0  0  0  0  0  0  0  0  0
   -4.9700    0.2670  -21.7920 C   0  0  0  0  0  0  0  0  0  0  0  0
   -5.4390   -0.0040  -20.4730 C   0  0  0  0  0  0  0  0  0  0  0  0
   -5.4970   -0.1410  -22.6480 H   0  0  0  0  0  0  0  0  0  0  0  0
   -3.5320    1.2620  -23.0070 H   0  0  0  0  0  0  0  0  0  0  0  0
   -2.3130    2.2550  -21.0710 H   0  0  0  0  0  0  0  0  0  0  0  0
   -3.0800    1.7860  -18.7620 H   0  0  0  0  0  0  0  0  0  0  0  0
   -4.6220    0.6350  -17.2120 H   0  0  0  0  0  0  0  0  0  0  0  0
   -7.7240   -1.6970  -18.5930 H   0  0  0  0  0  0  0  0  0  0  0  0
   -8.1540   -0.5450  -21.9940 C   0  0  0  0  0  0  0  0  0  0  0  0
   -8.1700    0.6680  -21.9460 O   0  0  0  0  0  0  0  0  0  0  0  0
   -8.9840   -1.4380  -22.9600 C   0  0  1  0  0  0  0  0  0  0  0  0
   -8.5900   -0.9700  -24.4200 C   0  0  0  0  0  0  0  0  0  0  0  0
   -9.2520    0.2700  -24.7860 N   0  0  0  0  0  0  0  0  0  0  0  0
   -8.4860    1.2440  -25.5450 C   0  0  0  0  0  0  0  0  0  0  0  0
   -7.4310    1.9410  -24.6730 C   0  0  0  0  0  0  0  0  0  0  0  0
   -6.2650    1.5680  -24.6550 O   0  0  0  0  0  0  0  0  0  0  0  0
   -7.8970    2.9660  -23.9140 N   0  0  0  0  0  0  0  0  0  0  0  0
   -7.0380    3.6460  -22.9530 C   0  0  0  0  0  0  0  0  0  0  0  0
   -6.2000    4.7430  -23.5830 C   0  0  0  0  0  0  0  0  0  0  0  0
   -4.8090    4.4540  -24.0720 C   0  0  0  0  0  0  0  0  0  0  0  0
   -5.0140    5.2940  -22.8450 C   0  0  0  0  0  0  0  0  0  0  0  0
   -4.8230    6.3630  -22.9080 H   0  0  0  0  0  0  0  0  0  0  0  0
   -4.7660    4.8550  -21.8800 H   0  0  0  0  0  0  0  0  0  0  0  0
   -4.4690    4.9340  -24.9860 H   0  0  0  0  0  0  0  0  0  0  0  0
   -4.4390    3.4410  -23.9320 H   0  0  0  0  0  0  0  0  0  0  0  0
   -6.7720    5.4620  -24.1670 H   0  0  0  0  0  0  0  0  0  0  0  0
   -7.6830    4.0660  -22.1720 H   0  0  0  0  0  0  0  0  0  0  0  0
   -6.3880    2.9000  -22.4710 H   0  0  0  0  0  0  0  0  0  0  0  0
   -8.8960    3.0860  -23.8300 H   0  0  0  0  0  0  0  0  0  0  0  0
   -9.1910    1.9570  -25.9800 H   0  0  0  0  0  0  0  0  0  0  0  0
   -7.9450    0.7360  -26.3530 H   0  0  0  0  0  0  0  0  0  0  0  0
  -10.5830    0.5000  -24.5010 C   0  0  0  0  0  0  0  0  0  0  0  0
  -11.1230    1.5450  -24.8460 O   0  0  0  0  0  0  0  0  0  0  0  0
  -11.2730   -0.5550  -23.6670 C   0  0  0  0  0  0  0  0  0  0  0  0
  -12.6920   -0.7300  -23.6230 C   0  0  0  0  0  0  0  0  0  0  0  0
  -12.7630   -1.2040  -22.2350 C   0  0  0  0  0  0  0  0  0  0  0  0
  -12.6960   -1.3770  -22.2000 C   0  0  0  0  0  0  0  0  0  0  0  0
  -12.3660   -3.5630  -21.8700 F   0  0  0  0  0  0  0  0  0  0  0  0
  -11.3060   -1.6270  -21.7120 C   0  0  0  0  0  0  0  0  0  0  0  0
  -10.5320   -1.2750  -22.7610 C   0  0  0  0  0  0  0  0  0  0  0  0
  -11.8570   -2.7000  -21.7680 H   0  0  0  0  0  0  0  0  0  0  0  0
  -13.5850   -1.3690  -21.4440 H   0  0  0  0  0  0  0  0  0  0  0  0
  -13.2630    0.1550  -23.4210 H   0  0  0  0  0  0  0  0  0  0  0  0
   -7.5130   -0.7850  -24.4670 H   0  0  0  0  0  0  0  0  0  0  0  0
   -8.8290   -1.7440  -25.1640 H   0  0  0  0  0  0  0  0  0  0  0  0
   -6.7330   -3.3300  -21.3100 H   0  0  0  0  0  0  0  0  0  0  0  0
   -8.2740   -3.0980  -20.4520 H   0  0  0  0  0  0  0  0  0  0  0  0
   -9.3180   -3.5190  -22.4370 H   0  0  0  0  0  0  0  0  0  0  0  0
   -8.1780   -3.6440  -24.6450 H   0  0  0  0  0  0  0  0  0  0  0  0
   -7.2940   -4.5460  -23.4150 H   0  0  0  0  0  0  0  0  0  0  0  0
   -6.7100   -2.9510  -23.9260 H   0  0  0  0  0  0  0  0  0  0  0  0
  1  2  1  0  0  0  0
  1 61  1  0  0  0  0
  1 62  1  0  0  0  0
  1 63  1  0  0  0  0
  2  3  1  0  0  0  0
  2 23  1  0  0  0  0
  2 60  1  1  0  0  0
  3  4  1  0  0  0  0
  3 58  1  0  0  0  0
  3 59  1  0  0  0  0
  4  5  1  0  0  0  0
  4 21  1  0  0  0  0
  5  6  2  0  0  0  0
  5 14  1  0  0  0  0
  6  7  1  0  0  0  0
  6 20  1  0  0  0  0
  7  8  2  0  0  0  0
  8  9  1  0  0  0  0
  8 19  1  0  0  0  0
  9 10  2  0  0  0  0
  9 14  1  0  0  0  0
 10 11  1  0  0  0  0
 10 18  1  0  0  0  0
 11 12  2  0  0  0  0
 11 17  1  0  0  0  0
 12 13  1  0  0  0  0
 12 16  1  0  0  0  0
 13 14  2  0  0  0  0
 13 15  1  0  0  0  0
 21 22  2  0  0  0  0
 23 21  1  1  0  0  0
 23 24  1  0  0  0  0
 23 52  1  0  0  0  0
 24 25  1  0  0  0  0
 24 56  1  0  0  0  0
 24 57  1  0  0  0  0
 25 26  1  0  0  0  0
 25 44  1  0  0  0  0
 26 27  1  0  0  0  0
 26 42  1  0  0  0  0
 26 43  1  0  0  0  0
 27 28  2  0  0  0  0
 27 29  1  0  0  0  0
 29 30  1  0  0  0  0
 29 41  1  0  0  0  0
 30 31  1  0  0  0  0
 30 39  1  0  0  0  0
 30 40  1  0  0  0  0
 31 32  1  0  0  0  0
 31 33  1  0  0  0  0
 31 38  1  0  0  0  0
 32 33  1  0  0  0  0
 32 36  1  0  0  0  0
 32 37  1  0  0  0  0
 33 34  1  0  0  0  0
 33 35  1  0  0  0  0
 44 45  2  0  0  0  0
 44 46  1  0  0  0  0
 46 47  2  0  0  0  0
 46 52  1  0  0  0  0
 47 48  1  0  0  0  0
 47 55  1  0  0  0  0
 48 49  2  0  0  0  0
 48 54  1  0  0  0  0
 49 50  1  0  0  0  0
 49 51  1  0  0  0  0
 51 52  2  0  0  0  0
 51 53  1  0  0  0  0
M  END
>  <MODEL>
       1

$$$$
