output/tmp_first_model_2_83.pdb
 OpenBabel07242613513D

 46 50  0  0  1  0  0  0  0  0999 V2000
   -7.4420    1.2310  -26.7510 N   0  0  0  0  0  0  0  0  0  0  0  0
   -8.3350    1.6750  -25.4190 S   0  0  0  0  0  0  0  0  0  0  0  0
   -9.3440    2.6100  -25.8870 O   0  0  0  0  0  0  0  0  0  0  0  0
   -7.3710    2.0070  -24.3890 O   0  0  0  0  0  0  0  0  0  0  0  0
   -9.1690    0.1790  -24.9410 C   0  0  0  0  0  0  0  0  0  0  0  0
  -10.2450   -0.2900  -25.6860 C   0  0  0  0  0  0  0  0  0  0  0  0
  -10.8530   -1.4850  -25.3250 C   0  0  0  0  0  0  0  0  0  0  0  0
  -10.3990   -2.1830  -24.2020 C   0  0  0  0  0  0  0  0  0  0  0  0
   -9.3140   -1.7080  -23.4530 C   0  0  0  0  0  0  0  0  0  0  0  0
   -8.6880   -0.5340  -23.8580 C   0  0  0  0  0  0  0  0  0  0  0  0
   -7.8410   -0.1410  -23.3080 H   0  0  0  0  0  0  0  0  0  0  0  0
   -8.8660   -2.4250  -22.1910 C   0  0  1  0  0  0  0  0  0  0  0  0
  -10.0700   -3.2150  -21.6630 C   0  0  0  0  0  0  0  0  0  0  0  0
  -10.6390   -4.0780  -22.7750 C   0  0  0  0  0  0  0  0  0  0  0  0
  -11.0900   -3.3070  -23.8820 O   0  0  0  0  0  0  0  0  0  0  0  0
  -11.5230   -4.6270  -22.4430 H   0  0  0  0  0  0  0  0  0  0  0  0
   -9.8870   -4.8020  -23.1220 H   0  0  0  0  0  0  0  0  0  0  0  0
  -10.8280   -2.5050  -21.3190 H   0  0  0  0  0  0  0  0  0  0  0  0
   -9.7480   -3.8400  -20.8330 H   0  0  0  0  0  0  0  0  0  0  0  0
   -7.6930   -3.2750  -22.3710 N   0  0  0  0  0  0  0  0  0  0  0  0
   -6.6000   -2.8990  -21.6250 C   0  0  0  0  0  0  0  0  0  0  0  0
   -5.5030   -3.4040  -21.6100 O   0  0  0  0  0  0  0  0  0  0  0  0
   -7.0320   -1.7890  -20.8560 N   0  0  0  0  0  0  0  0  0  0  0  0
   -6.2990   -1.0270  -19.8970 C   0  0  0  0  0  0  0  0  0  0  0  0
   -6.7380   -1.0240  -18.5980 C   0  0  0  0  0  0  0  0  0  0  0  0
   -6.1290   -0.3690  -17.5830 N   0  0  0  0  0  0  0  0  0  0  0  0
   -5.0850    0.3640  -17.8820 C   0  0  0  0  0  0  0  0  0  0  0  0
   -4.5920    0.5450  -19.2020 C   0  0  0  0  0  0  0  0  0  0  0  0
   -3.5170    1.4320  -19.4700 C   0  0  0  0  0  0  0  0  0  0  0  0
   -3.1640    1.7090  -20.7600 C   0  0  0  0  0  0  0  0  0  0  0  0
   -3.8590    1.1060  -21.8340 C   0  0  0  0  0  0  0  0  0  0  0  0
   -4.8690    0.2030  -21.5960 C   0  0  0  0  0  0  0  0  0  0  0  0
   -5.2450   -0.1240  -20.2630 C   0  0  0  0  0  0  0  0  0  0  0  0
   -5.4000   -0.2430  -22.4340 H   0  0  0  0  0  0  0  0  0  0  0  0
   -3.5960    1.3690  -22.8560 H   0  0  0  0  0  0  0  0  0  0  0  0
   -2.3630    2.4130  -20.9680 H   0  0  0  0  0  0  0  0  0  0  0  0
   -3.0170    1.9040  -18.6270 H   0  0  0  0  0  0  0  0  0  0  0  0
   -4.6000    0.8850  -17.0590 H   0  0  0  0  0  0  0  0  0  0  0  0
   -7.6410   -1.5670  -18.3320 H   0  0  0  0  0  0  0  0  0  0  0  0
   -8.3410   -1.4300  -21.1540 C   0  0  0  0  0  0  0  0  0  0  0  0
   -8.8870   -0.4450  -20.7230 O   0  0  0  0  0  0  0  0  0  0  0  0
   -7.5740   -3.8520  -23.1930 H   0  0  0  0  0  0  0  0  0  0  0  0
  -11.6980   -1.9060  -25.8630 H   0  0  0  0  0  0  0  0  0  0  0  0
  -10.5930    0.3100  -26.5210 H   0  0  0  0  0  0  0  0  0  0  0  0
   -6.7190    0.5620  -26.5040 H   0  0  0  0  0  0  0  0  0  0  0  0
   -8.0170    0.9500  -27.5400 H   0  0  0  0  0  0  0  0  0  0  0  0
  1  2  1  0  0  0  0
  1 45  1  0  0  0  0
  1 46  1  0  0  0  0
  2  3  2  0  0  0  0
  2  4  2  0  0  0  0
  2  5  1  0  0  0  0
  5  6  2  0  0  0  0
  5 10  1  0  0  0  0
  6  7  1  0  0  0  0
  6 44  1  0  0  0  0
  7  8  2  0  0  0  0
  7 43  1  0  0  0  0
  8  9  1  0  0  0  0
  8 15  1  0  0  0  0
  9 10  2  0  0  0  0
 10 11  1  0  0  0  0
 12  9  1  6  0  0  0
 12 13  1  0  0  0  0
 12 20  1  0  0  0  0
 12 40  1  0  0  0  0
 13 14  1  0  0  0  0
 13 18  1  0  0  0  0
 13 19  1  0  0  0  0
 14 15  1  0  0  0  0
 14 16  1  0  0  0  0
 14 17  1  0  0  0  0
 20 21  1  0  0  0  0
 20 42  1  0  0  0  0
 21 22  2  0  0  0  0
 21 23  1  0  0  0  0
 23 24  1  0  0  0  0
 23 40  1  0  0  0  0
 24 25  2  0  0  0  0
 24 33  1  0  0  0  0
 25 26  1  0  0  0  0
 25 39  1  0  0  0  0
 26 27  2  0  0  0  0
 27 28  1  0  0  0  0
 27 38  1  0  0  0  0
 28 29  2  0  0  0  0
 28 33  1  0  0  0  0
 29 30  1  0  0  0  0
 29 37  1  0  0  0  0
 30 31  2  0  0  0  0
 30 36  1  0  0  0  0
 31 32  1  0  0  0  0
 31 35  1  0  0  0  0
 32 33  2  0  0  0  0
 32 34  1  0  0  0  0
 40 41  2  0  0  0  0
M  END
>  <MODEL>
       1

$$$$
