output/tmp_first_model_20_60.pdb
 OpenBabel07242623363D

 62 67  0  0  1  0  0  0  0  0999 V2000
  -11.3320    4.3030  -25.2510 C   0  0  0  0  0  0  0  0  0  0  0  0
   -9.8480    4.1560  -25.5860 C   0  0  0  0  0  0  0  0  0  0  0  0
   -9.0860    3.5680  -24.4960 N   0  0  0  0  0  0  0  0  0  0  0  0
   -8.5820    4.4190  -23.5950 N   0  0  0  0  0  0  0  0  0  0  0  0
   -8.0150    3.6590  -22.6760 C   0  0  0  0  0  0  0  0  0  0  0  0
   -8.1510    2.2920  -22.9890 C   0  0  0  0  0  0  0  0  0  0  0  0
   -8.8960    2.2650  -24.1450 C   0  0  0  0  0  0  0  0  0  0  0  0
   -9.3980    1.0860  -24.9350 C   0  0  0  0  0  0  0  0  0  0  0  0
   -9.8610   -0.0070  -24.0950 N   0  0  0  0  0  0  0  0  0  0  0  0
   -9.0400   -1.1980  -23.9790 C   0  0  0  0  0  0  0  0  0  0  0  0
   -9.2250   -1.9160  -22.6160 C   0  0  2  0  0  0  0  0  0  0  0  0
   -8.6630   -1.0280  -21.4710 C   0  0  0  0  0  0  0  0  0  0  0  0
   -9.2320   -0.1120  -20.9140 O   0  0  0  0  0  0  0  0  0  0  0  0
   -7.3750   -1.4340  -21.1950 N   0  0  0  0  0  0  0  0  0  0  0  0
   -6.6000   -0.8260  -20.1710 C   0  0  0  0  0  0  0  0  0  0  0  0
   -6.9060   -1.0470  -18.8500 C   0  0  0  0  0  0  0  0  0  0  0  0
   -6.1970   -0.5450  -17.8110 N   0  0  0  0  0  0  0  0  0  0  0  0
   -5.1610    0.2070  -18.0810 C   0  0  0  0  0  0  0  0  0  0  0  0
   -4.7280    0.5260  -19.3990 C   0  0  0  0  0  0  0  0  0  0  0  0
   -3.6040    1.3620  -19.6400 C   0  0  0  0  0  0  0  0  0  0  0  0
   -3.2260    1.6600  -20.9200 C   0  0  0  0  0  0  0  0  0  0  0  0
   -3.9530    1.1350  -22.0110 C   0  0  0  0  0  0  0  0  0  0  0  0
   -5.0450    0.3230  -21.8010 C   0  0  0  0  0  0  0  0  0  0  0  0
   -5.4630   -0.0070  -20.4850 C   0  0  0  0  0  0  0  0  0  0  0  0
   -5.6060   -0.0560  -22.6500 H   0  0  0  0  0  0  0  0  0  0  0  0
   -3.6570    1.3910  -23.0230 H   0  0  0  0  0  0  0  0  0  0  0  0
   -2.3780    2.3140  -21.1060 H   0  0  0  0  0  0  0  0  0  0  0  0
   -3.0670    1.7660  -18.7860 H   0  0  0  0  0  0  0  0  0  0  0  0
   -4.6110    0.6130  -17.2310 H   0  0  0  0  0  0  0  0  0  0  0  0
   -7.7530   -1.6720  -18.5820 H   0  0  0  0  0  0  0  0  0  0  0  0
   -6.9640   -2.6140  -21.9350 C   0  0  0  0  0  0  0  0  0  0  0  0
   -8.2910   -3.1610  -22.5110 C   0  0  2  0  0  0  0  0  0  0  0  0
   -8.0940   -3.9860  -23.7850 C   0  0  0  0  0  0  0  0  0  0  0  0
   -7.5530   -3.4120  -24.5480 H   0  0  0  0  0  0  0  0  0  0  0  0
   -7.5060   -4.8890  -23.5810 H   0  0  0  0  0  0  0  0  0  0  0  0
   -9.0500   -4.2980  -24.2200 H   0  0  0  0  0  0  0  0  0  0  0  0
   -8.7220   -3.8030  -21.7370 H   0  0  0  0  0  0  0  0  0  0  0  0
   -6.4650   -3.3280  -21.2690 H   0  0  0  0  0  0  0  0  0  0  0  0
   -6.2530   -2.3630  -22.7390 H   0  0  0  0  0  0  0  0  0  0  0  0
  -10.7170   -2.1460  -22.4260 C   0  0  0  0  0  0  0  0  0  0  0  0
  -11.2300   -3.2290  -21.7000 C   0  0  0  0  0  0  0  0  0  0  0  0
  -12.5880   -3.3020  -21.4570 C   0  0  0  0  0  0  0  0  0  0  0  0
  -13.0770   -4.2870  -20.6870 F   0  0  0  0  0  0  0  0  0  0  0  0
  -13.4870   -2.3610  -21.9350 C   0  0  0  0  0  0  0  0  0  0  0  0
  -12.9900   -1.2860  -22.6400 C   0  0  0  0  0  0  0  0  0  0  0  0
  -11.6200   -1.1710  -22.8820 C   0  0  0  0  0  0  0  0  0  0  0  0
  -11.1470    0.0360  -23.6410 C   0  0  0  0  0  0  0  0  0  0  0  0
  -11.8840    0.9870  -23.8610 O   0  0  0  0  0  0  0  0  0  0  0  0
  -13.6440   -0.5020  -23.0060 H   0  0  0  0  0  0  0  0  0  0  0  0
  -14.5410   -2.4890  -21.7210 H   0  0  0  0  0  0  0  0  0  0  0  0
  -10.5950   -3.9870  -21.2580 H   0  0  0  0  0  0  0  0  0  0  0  0
   -9.2950   -1.9050  -24.7850 H   0  0  0  0  0  0  0  0  0  0  0  0
   -7.9930   -0.8970  -24.0900 H   0  0  0  0  0  0  0  0  0  0  0  0
  -10.2120    1.3860  -25.6090 H   0  0  0  0  0  0  0  0  0  0  0  0
   -8.5730    0.6940  -25.5430 H   0  0  0  0  0  0  0  0  0  0  0  0
   -7.7930    1.4110  -22.4800 H   0  0  0  0  0  0  0  0  0  0  0  0
   -7.6410    4.1800  -21.8040 H   0  0  0  0  0  0  0  0  0  0  0  0
   -9.3850    5.1390  -25.7380 H   0  0  0  0  0  0  0  0  0  0  0  0
   -9.6870    3.5510  -26.4900 H   0  0  0  0  0  0  0  0  0  0  0  0
  -11.7780    3.3220  -25.0470 H   0  0  0  0  0  0  0  0  0  0  0  0
  -11.4720    4.9420  -24.3690 H   0  0  0  0  0  0  0  0  0  0  0  0
  -11.8490    4.7670  -26.0970 H   0  0  0  0  0  0  0  0  0  0  0  0
  1  2  1  0  0  0  0
  1 60  1  0  0  0  0
  1 61  1  0  0  0  0
  1 62  1  0  0  0  0
  2  3  1  0  0  0  0
  2 58  1  0  0  0  0
  2 59  1  0  0  0  0
  3  4  1  0  0  0  0
  3  7  1  0  0  0  0
  4  5  2  0  0  0  0
  5  6  1  0  0  0  0
  5 57  1  0  0  0  0
  6  7  2  0  0  0  0
  6 56  1  0  0  0  0
  7  8  1  0  0  0  0
  8  9  1  0  0  0  0
  8 54  1  0  0  0  0
  8 55  1  0  0  0  0
  9 10  1  0  0  0  0
  9 47  1  0  0  0  0
 10 11  1  0  0  0  0
 10 52  1  0  0  0  0
 10 53  1  0  0  0  0
 11 12  1  1  0  0  0
 11 32  1  0  0  0  0
 11 40  1  0  0  0  0
 12 13  2  0  0  0  0
 12 14  1  0  0  0  0
 14 15  1  0  0  0  0
 14 31  1  0  0  0  0
 15 16  2  0  0  0  0
 15 24  1  0  0  0  0
 16 17  1  0  0  0  0
 16 30  1  0  0  0  0
 17 18  2  0  0  0  0
 18 19  1  0  0  0  0
 18 29  1  0  0  0  0
 19 20  2  0  0  0  0
 19 24  1  0  0  0  0
 20 21  1  0  0  0  0
 20 28  1  0  0  0  0
 21 22  2  0  0  0  0
 21 27  1  0  0  0  0
 22 23  1  0  0  0  0
 22 26  1  0  0  0  0
 23 24  2  0  0  0  0
 23 25  1  0  0  0  0
 31 32  1  0  0  0  0
 31 38  1  0  0  0  0
 31 39  1  0  0  0  0
 32 33  1  0  0  0  0
 32 37  1  1  0  0  0
 33 34  1  0  0  0  0
 33 35  1  0  0  0  0
 33 36  1  0  0  0  0
 40 41  2  0  0  0  0
 40 46  1  0  0  0  0
 41 42  1  0  0  0  0
 41 51  1  0  0  0  0
 42 43  1  0  0  0  0
 42 44  2  0  0  0  0
 44 45  1  0  0  0  0
 44 50  1  0  0  0  0
 45 46  2  0  0  0  0
 45 49  1  0  0  0  0
 46 47  1  0  0  0  0
 47 48  2  0  0  0  0
M  END
>  <MODEL>
       1

$$$$
