output/tmp_first_model_20_52.pdb
 OpenBabel07242623363D

 57 60  0  0  0  0  0  0  0  0999 V2000
   -2.4120   -6.6180  -28.2870 C   0  0  0  0  0  0  0  0  0  0  0  0
   -3.6430   -5.6930  -28.2990 C   0  0  0  0  0  0  0  0  0  0  0  0
   -4.1350   -5.3410  -26.8950 C   0  0  0  0  0  0  0  0  0  0  0  0
   -3.7490   -4.3450  -26.3150 O   0  0  0  0  0  0  0  0  0  0  0  0
   -5.0180   -6.2310  -26.3320 N   0  0  0  0  0  0  0  0  0  0  0  0
   -5.6620   -6.0150  -25.0890 C   0  0  0  0  0  0  0  0  0  0  0  0
   -5.9020   -7.0990  -24.2420 C   0  0  0  0  0  0  0  0  0  0  0  0
   -6.5560   -6.8960  -23.0340 C   0  0  0  0  0  0  0  0  0  0  0  0
   -6.9640   -5.6250  -22.6460 C   0  0  0  0  0  0  0  0  0  0  0  0
   -6.7300   -4.5380  -23.4890 C   0  0  0  0  0  0  0  0  0  0  0  0
   -7.1600   -3.2230  -23.1040 N   0  0  0  0  0  0  0  0  0  0  0  0
   -8.1470   -2.5580  -23.9480 C   0  0  0  0  0  0  0  0  0  0  0  0
   -9.5680   -2.6570  -23.4200 C   0  0  0  0  0  0  0  0  0  0  0  0
  -10.1630   -3.9100  -23.2980 C   0  0  0  0  0  0  0  0  0  0  0  0
  -11.4640   -4.0160  -22.8290 C   0  0  0  0  0  0  0  0  0  0  0  0
  -12.1810   -2.8970  -22.4240 C   0  0  0  0  0  0  0  0  0  0  0  0
  -11.6050   -1.6380  -22.5550 C   0  0  0  0  0  0  0  0  0  0  0  0
  -10.3100   -1.5270  -23.0640 C   0  0  0  0  0  0  0  0  0  0  0  0
   -9.8670   -0.5380  -23.1760 H   0  0  0  0  0  0  0  0  0  0  0  0
  -12.1610   -0.7470  -22.2680 H   0  0  0  0  0  0  0  0  0  0  0  0
  -13.1840   -3.0220  -22.0240 H   0  0  0  0  0  0  0  0  0  0  0  0
  -11.9360   -4.9820  -22.8180 H   0  0  0  0  0  0  0  0  0  0  0  0
   -9.6040   -4.8030  -23.5800 H   0  0  0  0  0  0  0  0  0  0  0  0
   -8.0730   -3.0590  -24.9230 H   0  0  0  0  0  0  0  0  0  0  0  0
   -7.8820   -1.5030  -24.0870 H   0  0  0  0  0  0  0  0  0  0  0  0
   -6.6990   -2.7260  -21.8940 C   0  0  0  0  0  0  0  0  0  0  0  0
   -5.7900   -3.2820  -21.3030 O   0  0  0  0  0  0  0  0  0  0  0  0
   -7.3850   -1.4760  -21.2950 C   0  0  0  0  0  0  0  0  0  0  0  0
   -6.5730   -0.8380  -20.1960 C   0  0  0  0  0  0  0  0  0  0  0  0
   -6.8750   -1.0510  -18.8770 C   0  0  0  0  0  0  0  0  0  0  0  0
   -6.1940   -0.5400  -17.8170 N   0  0  0  0  0  0  0  0  0  0  0  0
   -5.1580    0.2150  -18.0740 C   0  0  0  0  0  0  0  0  0  0  0  0
   -4.7170    0.5270  -19.3880 C   0  0  0  0  0  0  0  0  0  0  0  0
   -3.5880    1.3530  -19.6240 C   0  0  0  0  0  0  0  0  0  0  0  0
   -3.1870    1.6280  -20.9020 C   0  0  0  0  0  0  0  0  0  0  0  0
   -3.8970    1.0850  -21.9960 C   0  0  0  0  0  0  0  0  0  0  0  0
   -4.9920    0.2850  -21.7920 C   0  0  0  0  0  0  0  0  0  0  0  0
   -5.4390   -0.0160  -20.4790 C   0  0  0  0  0  0  0  0  0  0  0  0
   -5.5350   -0.1210  -22.6390 H   0  0  0  0  0  0  0  0  0  0  0  0
   -3.5820    1.3170  -23.0090 H   0  0  0  0  0  0  0  0  0  0  0  0
   -2.3330    2.2710  -21.0850 H   0  0  0  0  0  0  0  0  0  0  0  0
   -3.0630    1.7610  -18.7650 H   0  0  0  0  0  0  0  0  0  0  0  0
   -4.6130    0.6220  -17.2200 H   0  0  0  0  0  0  0  0  0  0  0  0
   -7.7240   -1.6720  -18.5920 H   0  0  0  0  0  0  0  0  0  0  0  0
   -7.6340   -0.7470  -22.0750 H   0  0  0  0  0  0  0  0  0  0  0  0
   -8.3500   -1.8000  -20.8790 H   0  0  0  0  0  0  0  0  0  0  0  0
   -6.0940   -4.7390  -24.7170 C   0  0  0  0  0  0  0  0  0  0  0  0
   -5.9290   -3.9040  -25.3920 H   0  0  0  0  0  0  0  0  0  0  0  0
   -7.4480   -5.4770  -21.6860 H   0  0  0  0  0  0  0  0  0  0  0  0
   -6.7230   -7.7480  -22.3810 H   0  0  0  0  0  0  0  0  0  0  0  0
   -5.5340   -8.0850  -24.5110 H   0  0  0  0  0  0  0  0  0  0  0  0
   -5.1440   -7.1310  -26.7730 H   0  0  0  0  0  0  0  0  0  0  0  0
   -4.4420   -6.1320  -28.9130 H   0  0  0  0  0  0  0  0  0  0  0  0
   -3.3810   -4.7310  -28.7470 H   0  0  0  0  0  0  0  0  0  0  0  0
   -2.0410   -6.7990  -29.3050 H   0  0  0  0  0  0  0  0  0  0  0  0
   -1.5970   -6.1590  -27.7170 H   0  0  0  0  0  0  0  0  0  0  0  0
   -2.6420   -7.5920  -27.8370 H   0  0  0  0  0  0  0  0  0  0  0  0
  1  2  1  0  0  0  0
  1 55  1  0  0  0  0
  1 56  1  0  0  0  0
  1 57  1  0  0  0  0
  2  3  1  0  0  0  0
  2 53  1  0  0  0  0
  2 54  1  0  0  0  0
  3  4  2  0  0  0  0
  3  5  1  0  0  0  0
  5  6  1  0  0  0  0
  5 52  1  0  0  0  0
  6  7  2  0  0  0  0
  6 47  1  0  0  0  0
  7  8  1  0  0  0  0
  7 51  1  0  0  0  0
  8  9  2  0  0  0  0
  8 50  1  0  0  0  0
  9 10  1  0  0  0  0
  9 49  1  0  0  0  0
 10 11  1  0  0  0  0
 10 47  2  0  0  0  0
 11 12  1  0  0  0  0
 11 26  1  0  0  0  0
 12 13  1  0  0  0  0
 12 24  1  0  0  0  0
 12 25  1  0  0  0  0
 13 14  2  0  0  0  0
 13 18  1  0  0  0  0
 14 15  1  0  0  0  0
 14 23  1  0  0  0  0
 15 16  2  0  0  0  0
 15 22  1  0  0  0  0
 16 17  1  0  0  0  0
 16 21  1  0  0  0  0
 17 18  2  0  0  0  0
 17 20  1  0  0  0  0
 18 19  1  0  0  0  0
 26 27  2  0  0  0  0
 26 28  1  0  0  0  0
 28 29  1  0  0  0  0
 28 45  1  0  0  0  0
 28 46  1  0  0  0  0
 29 30  2  0  0  0  0
 29 38  1  0  0  0  0
 30 31  1  0  0  0  0
 30 44  1  0  0  0  0
 31 32  2  0  0  0  0
 32 33  1  0  0  0  0
 32 43  1  0  0  0  0
 33 34  2  0  0  0  0
 33 38  1  0  0  0  0
 34 35  1  0  0  0  0
 34 42  1  0  0  0  0
 35 36  2  0  0  0  0
 35 41  1  0  0  0  0
 36 37  1  0  0  0  0
 36 40  1  0  0  0  0
 37 38  2  0  0  0  0
 37 39  1  0  0  0  0
 47 48  1  0  0  0  0
M  END
>  <MODEL>
       1

$$$$
