output/tmp_first_model_17_92.pdb
 OpenBabel07242622053D

 60 65  0  0  1  0  0  0  0  0999 V2000
   -6.7830   -3.4410  -26.0940 C   0  0  0  0  0  0  0  0  0  0  0  0
   -7.0060   -2.9020  -24.8140 O   0  0  0  0  0  0  0  0  0  0  0  0
   -7.9830   -3.6110  -24.0780 C   0  0  0  0  0  0  0  0  0  0  0  0
   -8.2920   -2.9050  -22.7570 C   0  0  1  0  0  0  0  0  0  0  0  0
   -7.0210   -2.5610  -21.9630 C   0  0  0  0  0  0  0  0  0  0  0  0
   -7.3790   -1.3560  -21.2380 N   0  0  0  0  0  0  0  0  0  0  0  0
   -6.5980   -0.8040  -20.1930 C   0  0  0  0  0  0  0  0  0  0  0  0
   -6.9220   -1.0350  -18.8800 C   0  0  0  0  0  0  0  0  0  0  0  0
   -6.2190   -0.5480  -17.8300 N   0  0  0  0  0  0  0  0  0  0  0  0
   -5.1820    0.2080  -18.0870 C   0  0  0  0  0  0  0  0  0  0  0  0
   -4.7430    0.5390  -19.4010 C   0  0  0  0  0  0  0  0  0  0  0  0
   -3.6270    1.3830  -19.6390 C   0  0  0  0  0  0  0  0  0  0  0  0
   -3.2440    1.6770  -20.9180 C   0  0  0  0  0  0  0  0  0  0  0  0
   -3.9400    1.1280  -22.0170 C   0  0  0  0  0  0  0  0  0  0  0  0
   -5.0040    0.2810  -21.8080 C   0  0  0  0  0  0  0  0  0  0  0  0
   -5.4520   -0.0080  -20.4940 C   0  0  0  0  0  0  0  0  0  0  0  0
   -5.5190   -0.1580  -22.6570 H   0  0  0  0  0  0  0  0  0  0  0  0
   -3.6050    1.3670  -23.0220 H   0  0  0  0  0  0  0  0  0  0  0  0
   -2.3850    2.3130  -21.0990 H   0  0  0  0  0  0  0  0  0  0  0  0
   -3.0910    1.7830  -18.7830 H   0  0  0  0  0  0  0  0  0  0  0  0
   -4.6230    0.6000  -17.2360 H   0  0  0  0  0  0  0  0  0  0  0  0
   -7.7870   -1.6470  -18.6370 H   0  0  0  0  0  0  0  0  0  0  0  0
   -8.5990   -0.8190  -21.5830 C   0  0  0  0  0  0  0  0  0  0  0  0
   -9.1380    0.1010  -21.0060 O   0  0  0  0  0  0  0  0  0  0  0  0
   -9.1330   -1.5920  -22.8160 C   0  0  1  0  0  0  0  0  0  0  0  0
   -8.8470   -0.8190  -24.1290 C   0  0  0  0  0  0  0  0  0  0  0  0
   -9.6710    0.3670  -24.2460 N   0  0  0  0  0  0  0  0  0  0  0  0
   -9.0810    1.6150  -24.7040 C   0  0  0  0  0  0  0  0  0  0  0  0
   -8.2900    2.3680  -23.6670 C   0  0  0  0  0  0  0  0  0  0  0  0
   -8.8370    3.2880  -22.7390 C   0  0  0  0  0  0  0  0  0  0  0  0
   -7.9180    3.7800  -21.9100 N   0  0  0  0  0  0  0  0  0  0  0  0
   -6.7800    3.2040  -22.3100 N   0  0  0  0  0  0  0  0  0  0  0  0
   -6.9440    2.3620  -23.3590 C   0  0  0  0  0  0  0  0  0  0  0  0
   -6.0760    1.8370  -23.7340 H   0  0  0  0  0  0  0  0  0  0  0  0
   -5.9040    3.3860  -21.8440 H   0  0  0  0  0  0  0  0  0  0  0  0
   -9.8740    3.6050  -22.6320 H   0  0  0  0  0  0  0  0  0  0  0  0
   -8.5010    1.4260  -25.6120 H   0  0  0  0  0  0  0  0  0  0  0  0
   -9.9290    2.2290  -24.9950 H   0  0  0  0  0  0  0  0  0  0  0  0
  -11.0270    0.3140  -24.0790 C   0  0  0  0  0  0  0  0  0  0  0  0
  -11.7760    1.1840  -24.5050 O   0  0  0  0  0  0  0  0  0  0  0  0
  -11.5290   -0.8410  -23.2800 C   0  0  0  0  0  0  0  0  0  0  0  0
  -12.9020   -0.8920  -23.0480 C   0  0  0  0  0  0  0  0  0  0  0  0
  -13.4210   -1.7970  -22.1510 C   0  0  0  0  0  0  0  0  0  0  0  0
  -12.5390   -2.6800  -21.5330 C   0  0  0  0  0  0  0  0  0  0  0  0
  -13.1630   -3.7630  -20.3370 Cl  0  0  0  0  0  0  0  0  0  0  0  0
  -11.1820   -2.6770  -21.7930 C   0  0  0  0  0  0  0  0  0  0  0  0
  -10.6400   -1.7450  -22.6810 C   0  0  0  0  0  0  0  0  0  0  0  0
  -10.5590   -3.3890  -21.2660 H   0  0  0  0  0  0  0  0  0  0  0  0
  -14.4700   -1.8240  -21.8740 H   0  0  0  0  0  0  0  0  0  0  0  0
  -13.5200   -0.1730  -23.5740 H   0  0  0  0  0  0  0  0  0  0  0  0
   -9.0350   -1.5030  -24.9660 H   0  0  0  0  0  0  0  0  0  0  0  0
   -7.7980   -0.5250  -24.1850 H   0  0  0  0  0  0  0  0  0  0  0  0
   -6.1660   -2.3940  -22.6280 H   0  0  0  0  0  0  0  0  0  0  0  0
   -6.7550   -3.3600  -21.2630 H   0  0  0  0  0  0  0  0  0  0  0  0
   -8.8740   -3.6200  -22.1690 H   0  0  0  0  0  0  0  0  0  0  0  0
   -7.6170   -4.6270  -23.8680 H   0  0  0  0  0  0  0  0  0  0  0  0
   -8.9100   -3.7090  -24.6680 H   0  0  0  0  0  0  0  0  0  0  0  0
   -6.0220   -2.8290  -26.5850 H   0  0  0  0  0  0  0  0  0  0  0  0
   -6.4180   -4.4770  -26.0370 H   0  0  0  0  0  0  0  0  0  0  0  0
   -7.6970   -3.4230  -26.7080 H   0  0  0  0  0  0  0  0  0  0  0  0
  1  2  1  0  0  0  0
  1 58  1  0  0  0  0
  1 59  1  0  0  0  0
  1 60  1  0  0  0  0
  2  3  1  0  0  0  0
  3  4  1  0  0  0  0
  3 56  1  0  0  0  0
  3 57  1  0  0  0  0
  4  5  1  0  0  0  0
  4 25  1  0  0  0  0
  4 55  1  1  0  0  0
  5  6  1  0  0  0  0
  5 53  1  0  0  0  0
  5 54  1  0  0  0  0
  6  7  1  0  0  0  0
  6 23  1  0  0  0  0
  7  8  2  0  0  0  0
  7 16  1  0  0  0  0
  8  9  1  0  0  0  0
  8 22  1  0  0  0  0
  9 10  2  0  0  0  0
 10 11  1  0  0  0  0
 10 21  1  0  0  0  0
 11 12  2  0  0  0  0
 11 16  1  0  0  0  0
 12 13  1  0  0  0  0
 12 20  1  0  0  0  0
 13 14  2  0  0  0  0
 13 19  1  0  0  0  0
 14 15  1  0  0  0  0
 14 18  1  0  0  0  0
 15 16  2  0  0  0  0
 15 17  1  0  0  0  0
 23 24  2  0  0  0  0
 25 23  1  1  0  0  0
 25 26  1  0  0  0  0
 25 47  1  0  0  0  0
 26 27  1  0  0  0  0
 26 51  1  0  0  0  0
 26 52  1  0  0  0  0
 27 28  1  0  0  0  0
 27 39  1  0  0  0  0
 28 29  1  0  0  0  0
 28 37  1  0  0  0  0
 28 38  1  0  0  0  0
 29 30  1  0  0  0  0
 29 33  2  0  0  0  0
 30 31  2  0  0  0  0
 30 36  1  0  0  0  0
 31 32  1  0  0  0  0
 32 33  1  0  0  0  0
 32 35  1  0  0  0  0
 33 34  1  0  0  0  0
 39 40  2  0  0  0  0
 39 41  1  0  0  0  0
 41 42  2  0  0  0  0
 41 47  1  0  0  0  0
 42 43  1  0  0  0  0
 42 50  1  0  0  0  0
 43 44  2  0  0  0  0
 43 49  1  0  0  0  0
 44 45  1  0  0  0  0
 44 46  1  0  0  0  0
 46 47  2  0  0  0  0
 46 48  1  0  0  0  0
M  END
>  <MODEL>
       1

$$$$
