output/tmp_first_model_1_14.pdb
 OpenBabel07242613193D

 73 78  0  0  1  0  0  0  0  0999 V2000
   -7.3430   -4.8850  -22.9470 C   0  0  0  0  0  0  0  0  0  0  0  0
   -7.5010   -3.5710  -22.1920 C   0  0  1  0  0  0  0  0  0  0  0  0
   -6.3710   -3.2210  -21.2130 C   0  0  0  0  0  0  0  0  0  0  0  0
   -6.5300   -1.7850  -21.0370 N   0  0  0  0  0  0  0  0  0  0  0  0
   -6.0030   -1.0600  -19.9440 C   0  0  0  0  0  0  0  0  0  0  0  0
   -6.3870   -1.3570  -18.6610 C   0  0  0  0  0  0  0  0  0  0  0  0
   -5.9130   -0.7440  -17.5510 N   0  0  0  0  0  0  0  0  0  0  0  0
   -5.0050    0.1880  -17.7130 C   0  0  0  0  0  0  0  0  0  0  0  0
   -4.4810    0.5700  -18.9790 C   0  0  0  0  0  0  0  0  0  0  0  0
   -3.4450    1.5390  -19.1030 C   0  0  0  0  0  0  0  0  0  0  0  0
   -2.9940    1.9130  -20.3400 C   0  0  0  0  0  0  0  0  0  0  0  0
   -3.5560    1.3430  -21.5060 C   0  0  0  0  0  0  0  0  0  0  0  0
   -4.5350    0.3860  -21.4090 C   0  0  0  0  0  0  0  0  0  0  0  0
   -5.0190   -0.0350  -20.1370 C   0  0  0  0  0  0  0  0  0  0  0  0
   -4.9670   -0.0430  -22.3090 H   0  0  0  0  0  0  0  0  0  0  0  0
   -3.2090    1.6700  -22.4850 H   0  0  0  0  0  0  0  0  0  0  0  0
   -2.2090    2.6590  -20.4340 H   0  0  0  0  0  0  0  0  0  0  0  0
   -3.0240    1.9720  -18.1970 H   0  0  0  0  0  0  0  0  0  0  0  0
   -4.6390    0.6870  -16.8160 H   0  0  0  0  0  0  0  0  0  0  0  0
   -7.1360   -2.1280  -18.4910 H   0  0  0  0  0  0  0  0  0  0  0  0
   -7.3620   -1.2130  -21.9830 C   0  0  0  0  0  0  0  0  0  0  0  0
   -7.7920   -0.0850  -21.9550 O   0  0  0  0  0  0  0  0  0  0  0  0
   -7.6170   -2.2890  -23.0700 C   0  0  1  0  0  0  0  0  0  0  0  0
   -6.5000   -2.1990  -24.1660 C   0  0  0  0  0  0  0  0  0  0  0  0
   -6.6290   -1.0650  -25.0790 N   0  0  0  0  0  0  0  0  0  0  0  0
   -5.5280   -0.1080  -25.2640 C   0  0  0  0  0  0  0  0  0  0  0  0
   -5.1360    0.1330  -26.7360 C   0  0  0  0  0  0  0  0  0  0  0  0
   -3.9850    1.0910  -26.9100 N   0  3  0  0  0  0  0  0  0  0  0  0
   -2.6400    0.4810  -26.5420 C   0  0  0  0  0  0  0  0  0  0  0  0
   -1.5950    1.5650  -26.3020 C   0  0  0  0  0  0  0  0  0  0  0  0
   -1.8280    2.6780  -27.2350 N   0  0  0  0  0  0  0  0  0  0  0  0
   -0.4650    3.5430  -27.6880 S   0  0  0  0  0  0  0  0  0  0  0  0
   -0.4300    4.8220  -26.9950 O   0  0  0  0  0  0  0  0  0  0  0  0
    0.6620    2.6310  -27.6000 O   0  0  0  0  0  0  0  0  0  0  0  0
   -0.7350    3.8470  -29.4230 C   0  0  0  0  0  0  0  0  0  0  0  0
   -1.0620    2.9160  -29.8900 H   0  0  0  0  0  0  0  0  0  0  0  0
    0.2270    4.1490  -29.8460 H   0  0  0  0  0  0  0  0  0  0  0  0
   -1.4670    4.6420  -29.5680 H   0  0  0  0  0  0  0  0  0  0  0  0
   -3.0790    3.4220  -26.9940 C   0  0  0  0  0  0  0  0  0  0  0  0
   -4.1310    2.4950  -26.3520 C   0  0  0  0  0  0  0  0  0  0  0  0
   -4.0000    2.4780  -25.2660 H   0  0  0  0  0  0  0  0  0  0  0  0
   -5.1420    2.8570  -26.5580 H   0  0  0  0  0  0  0  0  0  0  0  0
   -2.8980    4.2900  -26.3510 H   0  0  0  0  0  0  0  0  0  0  0  0
   -3.4460    3.7950  -27.9580 H   0  0  0  0  0  0  0  0  0  0  0  0
   -1.6240    1.9070  -25.2570 H   0  0  0  0  0  0  0  0  0  0  0  0
   -0.5970    1.1730  -26.4890 H   0  0  0  0  0  0  0  0  0  0  0  0
   -2.3330   -0.1580  -27.3730 H   0  0  0  0  0  0  0  0  0  0  0  0
   -2.7450   -0.1330  -25.6470 H   0  0  0  0  0  0  0  0  0  0  0  0
   -3.9220    1.2560  -27.9320 H   0  0  0  0  0  0  0  0  0  0  0  0
   -5.9980    0.5030  -27.2920 H   0  0  0  0  0  0  0  0  0  0  0  0
   -4.8520   -0.8250  -27.1860 H   0  0  0  0  0  0  0  0  0  0  0  0
   -4.6650   -0.5080  -24.7130 H   0  0  0  0  0  0  0  0  0  0  0  0
   -5.8160    0.8520  -24.8100 H   0  0  0  0  0  0  0  0  0  0  0  0
   -7.8540   -0.7400  -25.5870 C   0  0  0  0  0  0  0  0  0  0  0  0
   -8.0020   -0.0260  -26.5720 O   0  0  0  0  0  0  0  0  0  0  0  0
   -9.0510   -1.2120  -24.8230 C   0  0  0  0  0  0  0  0  0  0  0  0
  -10.2550   -0.6280  -25.1950 C   0  0  0  0  0  0  0  0  0  0  0  0
  -11.3970   -0.9190  -24.4940 C   0  0  0  0  0  0  0  0  0  0  0  0
  -11.3460   -1.8780  -23.4820 C   0  0  0  0  0  0  0  0  0  0  0  0
  -12.8230   -2.2650  -22.6430 Cl  0  0  0  0  0  0  0  0  0  0  0  0
  -10.1510   -2.4430  -23.0790 C   0  0  0  0  0  0  0  0  0  0  0  0
   -8.9590   -2.0490  -23.7060 C   0  0  0  0  0  0  0  0  0  0  0  0
  -10.1760   -3.1350  -22.2450 H   0  0  0  0  0  0  0  0  0  0  0  0
  -12.3020   -0.3620  -24.6940 H   0  0  0  0  0  0  0  0  0  0  0  0
  -10.2340    0.0780  -26.0170 H   0  0  0  0  0  0  0  0  0  0  0  0
   -5.5240   -2.1470  -23.6720 H   0  0  0  0  0  0  0  0  0  0  0  0
   -6.5360   -3.1160  -24.7640 H   0  0  0  0  0  0  0  0  0  0  0  0
   -6.4440   -3.7290  -20.2480 H   0  0  0  0  0  0  0  0  0  0  0  0
   -5.3880   -3.4670  -21.6380 H   0  0  0  0  0  0  0  0  0  0  0  0
   -8.4090   -3.6210  -21.5810 H   0  0  0  0  0  0  0  0  0  0  0  0
   -8.1770   -5.0500  -23.6390 H   0  0  0  0  0  0  0  0  0  0  0  0
   -6.4160   -4.8920  -23.5290 H   0  0  0  0  0  0  0  0  0  0  0  0
   -7.3070   -5.7470  -22.2750 H   0  0  0  0  0  0  0  0  0  0  0  0
  1  2  1  0  0  0  0
  1 71  1  0  0  0  0
  1 72  1  0  0  0  0
  1 73  1  0  0  0  0
  2  3  1  0  0  0  0
  2 23  1  0  0  0  0
  2 70  1  1  0  0  0
  3  4  1  0  0  0  0
  3 68  1  0  0  0  0
  3 69  1  0  0  0  0
  4  5  1  0  0  0  0
  4 21  1  0  0  0  0
  5  6  2  0  0  0  0
  5 14  1  0  0  0  0
  6  7  1  0  0  0  0
  6 20  1  0  0  0  0
  7  8  2  0  0  0  0
  8  9  1  0  0  0  0
  8 19  1  0  0  0  0
  9 10  2  0  0  0  0
  9 14  1  0  0  0  0
 10 11  1  0  0  0  0
 10 18  1  0  0  0  0
 11 12  2  0  0  0  0
 11 17  1  0  0  0  0
 12 13  1  0  0  0  0
 12 16  1  0  0  0  0
 13 14  2  0  0  0  0
 13 15  1  0  0  0  0
 21 22  2  0  0  0  0
 23 21  1  1  0  0  0
 23 24  1  0  0  0  0
 23 62  1  0  0  0  0
 24 25  1  0  0  0  0
 24 66  1  0  0  0  0
 24 67  1  0  0  0  0
 25 26  1  0  0  0  0
 25 54  1  0  0  0  0
 26 27  1  0  0  0  0
 26 52  1  0  0  0  0
 26 53  1  0  0  0  0
 27 28  1  0  0  0  0
 27 50  1  0  0  0  0
 27 51  1  0  0  0  0
 28 29  1  0  0  0  0
 28 40  1  0  0  0  0
 28 49  1  0  0  0  0
 29 30  1  0  0  0  0
 29 47  1  0  0  0  0
 29 48  1  0  0  0  0
 30 31  1  0  0  0  0
 30 45  1  0  0  0  0
 30 46  1  0  0  0  0
 31 32  1  0  0  0  0
 31 39  1  0  0  0  0
 32 33  2  0  0  0  0
 32 34  2  0  0  0  0
 32 35  1  0  0  0  0
 35 36  1  0  0  0  0
 35 37  1  0  0  0  0
 35 38  1  0  0  0  0
 39 40  1  0  0  0  0
 39 43  1  0  0  0  0
 39 44  1  0  0  0  0
 40 41  1  0  0  0  0
 40 42  1  0  0  0  0
 54 55  2  0  0  0  0
 54 56  1  0  0  0  0
 56 57  2  0  0  0  0
 56 62  1  0  0  0  0
 57 58  1  0  0  0  0
 57 65  1  0  0  0  0
 58 59  2  0  0  0  0
 58 64  1  0  0  0  0
 59 60  1  0  0  0  0
 59 61  1  0  0  0  0
 61 62  2  0  0  0  0
 61 63  1  0  0  0  0
M  CHG  1  28   1
M  END
>  <MODEL>
       1

$$$$
