output/tmp_first_model_20_74.pdb
 OpenBabel07242623363D

 43 47  0  0  1  0  0  0  0  0999 V2000
   -9.4300   -0.4580  -20.9860 O   0  0  0  0  0  0  0  0  0  0  0  0
   -8.7460   -1.3670  -21.3790 C   0  0  0  0  0  0  0  0  0  0  0  0
   -9.1360   -2.4540  -22.1140 N   0  0  0  0  0  0  0  0  0  0  0  0
   -8.0390   -3.1460  -22.7420 C   0  0  1  0  0  0  0  0  0  0  0  0
   -8.1020   -4.6880  -22.7170 C   0  0  0  0  0  0  0  0  0  0  0  0
   -8.2240   -4.7220  -24.2750 C   0  0  2  0  0  0  0  0  0  0  0  0
   -7.1770   -5.5230  -24.9860 C   0  0  0  0  0  0  0  0  0  0  0  0
   -5.8200   -5.2780  -24.7410 C   0  0  0  0  0  0  0  0  0  0  0  0
   -4.8310   -6.0110  -25.3850 C   0  0  0  0  0  0  0  0  0  0  0  0
   -5.1810   -7.0120  -26.2900 C   0  0  0  0  0  0  0  0  0  0  0  0
   -6.5200   -7.2770  -26.5440 C   0  0  0  0  0  0  0  0  0  0  0  0
   -7.4980   -6.5340  -25.8920 C   0  0  0  0  0  0  0  0  0  0  0  0
   -9.1680   -6.9180  -26.2440 Cl  0  0  0  0  0  0  0  0  0  0  0  0
   -6.8260   -8.0520  -27.2420 H   0  0  0  0  0  0  0  0  0  0  0  0
   -4.4110   -7.5870  -26.7970 H   0  0  0  0  0  0  0  0  0  0  0  0
   -3.7860   -5.7970  -25.1790 H   0  0  0  0  0  0  0  0  0  0  0  0
   -5.5490   -4.4980  -24.0270 H   0  0  0  0  0  0  0  0  0  0  0  0
   -8.0350   -3.1700  -24.2990 C   0  0  0  0  0  0  0  0  0  0  0  0
   -8.8570   -2.6040  -24.7510 H   0  0  0  0  0  0  0  0  0  0  0  0
   -7.0980   -2.8270  -24.7570 H   0  0  0  0  0  0  0  0  0  0  0  0
   -9.2260   -5.0180  -24.6000 H   0  0  0  0  0  0  0  0  0  0  0  0
   -8.9670   -5.0560  -22.1590 H   0  0  0  0  0  0  0  0  0  0  0  0
   -7.1920   -5.1490  -22.3150 H   0  0  0  0  0  0  0  0  0  0  0  0
   -6.8400   -2.5130  -22.0550 C   0  0  0  0  0  0  0  0  0  0  0  0
   -5.6780   -2.8010  -22.2330 O   0  0  0  0  0  0  0  0  0  0  0  0
   -7.3410   -1.5170  -21.2070 N   0  0  0  0  0  0  0  0  0  0  0  0
   -6.5840   -0.8580  -20.1890 C   0  0  0  0  0  0  0  0  0  0  0  0
   -6.9090   -1.0580  -18.8690 C   0  0  0  0  0  0  0  0  0  0  0  0
   -6.2110   -0.5420  -17.8310 N   0  0  0  0  0  0  0  0  0  0  0  0
   -5.1740    0.2050  -18.0990 C   0  0  0  0  0  0  0  0  0  0  0  0
   -4.7420    0.5230  -19.4140 C   0  0  0  0  0  0  0  0  0  0  0  0
   -3.6120    1.3550  -19.6400 C   0  0  0  0  0  0  0  0  0  0  0  0
   -3.2240    1.6590  -20.9140 C   0  0  0  0  0  0  0  0  0  0  0  0
   -3.9550    1.1440  -22.0080 C   0  0  0  0  0  0  0  0  0  0  0  0
   -5.0490    0.3360  -21.8140 C   0  0  0  0  0  0  0  0  0  0  0  0
   -5.4680   -0.0120  -20.5010 C   0  0  0  0  0  0  0  0  0  0  0  0
   -5.6020   -0.0450  -22.6660 H   0  0  0  0  0  0  0  0  0  0  0  0
   -3.6490    1.4000  -23.0160 H   0  0  0  0  0  0  0  0  0  0  0  0
   -2.3680    2.3060  -21.0940 H   0  0  0  0  0  0  0  0  0  0  0  0
   -3.0760    1.7490  -18.7810 H   0  0  0  0  0  0  0  0  0  0  0  0
   -4.6240    0.6060  -17.2490 H   0  0  0  0  0  0  0  0  0  0  0  0
   -7.7550   -1.6820  -18.5950 H   0  0  0  0  0  0  0  0  0  0  0  0
  -10.1010   -2.6050  -22.3660 H   0  0  0  0  0  0  0  0  0  0  0  0
  1  2  2  0  0  0  0
  2  3  1  0  0  0  0
  2 26  1  0  0  0  0
  3  4  1  0  0  0  0
  3 43  1  0  0  0  0
  4  5  1  0  0  0  0
  4 18  1  0  0  0  0
  4 24  1  1  0  0  0
  5  6  1  0  0  0  0
  5 22  1  0  0  0  0
  5 23  1  0  0  0  0
  6  7  1  0  0  0  0
  6 18  1  0  0  0  0
  6 21  1  6  0  0  0
  7  8  2  0  0  0  0
  7 12  1  0  0  0  0
  8  9  1  0  0  0  0
  8 17  1  0  0  0  0
  9 10  2  0  0  0  0
  9 16  1  0  0  0  0
 10 11  1  0  0  0  0
 10 15  1  0  0  0  0
 11 12  2  0  0  0  0
 11 14  1  0  0  0  0
 12 13  1  0  0  0  0
 18 19  1  0  0  0  0
 18 20  1  0  0  0  0
 24 25  2  0  0  0  0
 24 26  1  0  0  0  0
 26 27  1  0  0  0  0
 27 28  2  0  0  0  0
 27 36  1  0  0  0  0
 28 29  1  0  0  0  0
 28 42  1  0  0  0  0
 29 30  2  0  0  0  0
 30 31  1  0  0  0  0
 30 41  1  0  0  0  0
 31 32  2  0  0  0  0
 31 36  1  0  0  0  0
 32 33  1  0  0  0  0
 32 40  1  0  0  0  0
 33 34  2  0  0  0  0
 33 39  1  0  0  0  0
 34 35  1  0  0  0  0
 34 38  1  0  0  0  0
 35 36  2  0  0  0  0
 35 37  1  0  0  0  0
M  END
>  <MODEL>
       1

$$$$
