output/tmp_first_model_15_69.pdb
 OpenBabel07242621043D

 63 67  0  0  0  0  0  0  0  0999 V2000
  -10.3530   -6.7360  -26.6910 C   0  0  0  0  0  0  0  0  0  0  0  0
  -10.8990   -5.8120  -27.4720 C   0  0  0  0  0  0  0  0  0  0  0  0
  -10.7120   -4.3460  -27.3210 C   0  0  0  0  0  0  0  0  0  0  0  0
  -11.1370   -3.5470  -28.1260 O   0  0  0  0  0  0  0  0  0  0  0  0
   -9.8700   -3.9630  -26.2340 N   0  0  0  0  0  0  0  0  0  0  0  0
   -8.4430   -4.1130  -26.5360 C   0  0  0  0  0  0  0  0  0  0  0  0
   -7.8400   -2.7320  -26.7500 C   0  0  0  0  0  0  0  0  0  0  0  0
   -7.9470   -1.9650  -25.4390 C   0  0  0  0  0  0  0  0  0  0  0  0
   -9.3360   -2.0290  -24.8350 C   0  0  0  0  0  0  0  0  0  0  0  0
  -10.2730   -2.9630  -25.3230 C   0  0  0  0  0  0  0  0  0  0  0  0
  -11.5890   -2.9480  -24.8340 C   0  0  0  0  0  0  0  0  0  0  0  0
  -11.9480   -2.0730  -23.8190 C   0  0  0  0  0  0  0  0  0  0  0  0
  -11.0150   -1.2020  -23.2640 C   0  0  0  0  0  0  0  0  0  0  0  0
   -9.7250   -1.2000  -23.7770 C   0  0  0  0  0  0  0  0  0  0  0  0
   -8.6880   -0.2110  -23.1280 N   0  3  0  0  0  0  0  0  0  0  0  0
   -9.0120    1.2870  -23.3910 C   0  0  0  0  0  0  0  0  0  0  0  0
   -7.8170    2.1800  -23.1330 C   0  0  0  0  0  0  0  0  0  0  0  0
   -7.6690    2.8170  -21.8990 C   0  0  0  0  0  0  0  0  0  0  0  0
   -6.6570    3.7450  -21.6840 C   0  0  0  0  0  0  0  0  0  0  0  0
   -5.7080    3.9940  -22.6690 C   0  0  0  0  0  0  0  0  0  0  0  0
   -5.8140    3.3020  -23.8700 C   0  0  0  0  0  0  0  0  0  0  0  0
   -4.5820    3.5420  -25.0860 Cl  0  0  0  0  0  0  0  0  0  0  0  0
   -6.8630    2.4250  -24.1220 C   0  0  0  0  0  0  0  0  0  0  0  0
   -6.9320    1.9370  -25.0910 H   0  0  0  0  0  0  0  0  0  0  0  0
   -4.8900    4.6950  -22.5040 H   0  0  0  0  0  0  0  0  0  0  0  0
   -6.6180    4.3080  -20.7520 H   0  0  0  0  0  0  0  0  0  0  0  0
   -8.3490    2.5530  -21.0960 H   0  0  0  0  0  0  0  0  0  0  0  0
   -9.3580    1.3770  -24.4210 H   0  0  0  0  0  0  0  0  0  0  0  0
   -9.8200    1.5550  -22.7090 H   0  0  0  0  0  0  0  0  0  0  0  0
   -8.5040   -0.4300  -21.6640 C   0  0  0  0  0  0  0  0  0  0  0  0
   -9.2440    0.1130  -20.8830 O   0  0  0  0  0  0  0  0  0  0  0  0
   -7.4330   -1.4290  -21.2300 C   0  0  0  0  0  0  0  0  0  0  0  0
   -6.5610   -0.8440  -20.1470 C   0  0  0  0  0  0  0  0  0  0  0  0
   -6.8700   -1.0500  -18.8290 C   0  0  0  0  0  0  0  0  0  0  0  0
   -6.1950   -0.5270  -17.7710 N   0  0  0  0  0  0  0  0  0  0  0  0
   -5.1650    0.2360  -18.0480 C   0  0  0  0  0  0  0  0  0  0  0  0
   -4.7220    0.5360  -19.3660 C   0  0  0  0  0  0  0  0  0  0  0  0
   -3.6000    1.3660  -19.6110 C   0  0  0  0  0  0  0  0  0  0  0  0
   -3.1970    1.6280  -20.8890 C   0  0  0  0  0  0  0  0  0  0  0  0
   -3.9070    1.0820  -21.9840 C   0  0  0  0  0  0  0  0  0  0  0  0
   -5.0140    0.2980  -21.7720 C   0  0  0  0  0  0  0  0  0  0  0  0
   -5.4450   -0.0110  -20.4560 C   0  0  0  0  0  0  0  0  0  0  0  0
   -5.5630   -0.0870  -22.6270 H   0  0  0  0  0  0  0  0  0  0  0  0
   -3.5650    1.2890  -22.9970 H   0  0  0  0  0  0  0  0  0  0  0  0
   -2.3390    2.2710  -21.0720 H   0  0  0  0  0  0  0  0  0  0  0  0
   -3.0800    1.8000  -18.7580 H   0  0  0  0  0  0  0  0  0  0  0  0
   -4.6200    0.6660  -17.2060 H   0  0  0  0  0  0  0  0  0  0  0  0
   -7.7230   -1.6730  -18.5650 H   0  0  0  0  0  0  0  0  0  0  0  0
   -6.8470   -1.7700  -22.0870 H   0  0  0  0  0  0  0  0  0  0  0  0
   -7.9650   -2.3100  -20.8480 H   0  0  0  0  0  0  0  0  0  0  0  0
   -7.7950   -0.4260  -23.5980 H   0  0  0  0  0  0  0  0  0  0  0  0
  -11.2830   -0.5590  -22.4300 H   0  0  0  0  0  0  0  0  0  0  0  0
  -12.9610   -2.0900  -23.4290 H   0  0  0  0  0  0  0  0  0  0  0  0
  -12.3300   -3.6380  -25.2270 H   0  0  0  0  0  0  0  0  0  0  0  0
   -7.2360   -2.3990  -24.7180 H   0  0  0  0  0  0  0  0  0  0  0  0
   -7.6420   -0.9230  -25.6010 H   0  0  0  0  0  0  0  0  0  0  0  0
   -8.3830   -2.2010  -27.5420 H   0  0  0  0  0  0  0  0  0  0  0  0
   -6.7940   -2.8170  -27.0640 H   0  0  0  0  0  0  0  0  0  0  0  0
   -7.9220   -4.6250  -25.7060 H   0  0  0  0  0  0  0  0  0  0  0  0
   -8.3400   -4.7370  -27.4340 H   0  0  0  0  0  0  0  0  0  0  0  0
  -11.5500   -6.1080  -28.2870 H   0  0  0  0  0  0  0  0  0  0  0  0
  -10.5520   -7.7860  -26.8940 H   0  0  0  0  0  0  0  0  0  0  0  0
   -9.6940   -6.4710  -25.8700 H   0  0  0  0  0  0  0  0  0  0  0  0
  1  2  2  0  0  0  0
  1 62  1  0  0  0  0
  1 63  1  0  0  0  0
  2  3  1  0  0  0  0
  2 61  1  0  0  0  0
  3  4  2  0  0  0  0
  3  5  1  0  0  0  0
  5  6  1  0  0  0  0
  5 10  1  0  0  0  0
  6  7  1  0  0  0  0
  6 59  1  0  0  0  0
  6 60  1  0  0  0  0
  7  8  1  0  0  0  0
  7 57  1  0  0  0  0
  7 58  1  0  0  0  0
  8  9  1  0  0  0  0
  8 55  1  0  0  0  0
  8 56  1  0  0  0  0
  9 10  2  0  0  0  0
  9 14  1  0  0  0  0
 10 11  1  0  0  0  0
 11 12  2  0  0  0  0
 11 54  1  0  0  0  0
 12 13  1  0  0  0  0
 12 53  1  0  0  0  0
 13 14  2  0  0  0  0
 13 52  1  0  0  0  0
 14 15  1  0  0  0  0
 15 16  1  0  0  0  0
 15 30  1  0  0  0  0
 15 51  1  0  0  0  0
 16 17  1  0  0  0  0
 16 28  1  0  0  0  0
 16 29  1  0  0  0  0
 17 18  2  0  0  0  0
 17 23  1  0  0  0  0
 18 19  1  0  0  0  0
 18 27  1  0  0  0  0
 19 20  2  0  0  0  0
 19 26  1  0  0  0  0
 20 21  1  0  0  0  0
 20 25  1  0  0  0  0
 21 22  1  0  0  0  0
 21 23  2  0  0  0  0
 23 24  1  0  0  0  0
 30 31  2  0  0  0  0
 30 32  1  0  0  0  0
 32 33  1  0  0  0  0
 32 49  1  0  0  0  0
 32 50  1  0  0  0  0
 33 34  2  0  0  0  0
 33 42  1  0  0  0  0
 34 35  1  0  0  0  0
 34 48  1  0  0  0  0
 35 36  2  0  0  0  0
 36 37  1  0  0  0  0
 36 47  1  0  0  0  0
 37 38  2  0  0  0  0
 37 42  1  0  0  0  0
 38 39  1  0  0  0  0
 38 46  1  0  0  0  0
 39 40  2  0  0  0  0
 39 45  1  0  0  0  0
 40 41  1  0  0  0  0
 40 44  1  0  0  0  0
 41 42  2  0  0  0  0
 41 43  1  0  0  0  0
M  CHG  1  15   1
M  END
>  <MODEL>
       1

$$$$
