output/tmp_first_model_18_59.pdb
 OpenBabel07242622363D

 60 65  0  0  1  0  0  0  0  0999 V2000
   -7.0860    3.4350  -22.7530 C   0  0  0  0  0  0  0  0  0  0  0  0
   -7.8110    2.7380  -23.8020 N   0  0  0  0  0  0  0  0  0  0  0  0
   -7.1550    1.8300  -24.5720 C   0  0  0  0  0  0  0  0  0  0  0  0
   -5.9410    1.6920  -24.5390 O   0  0  0  0  0  0  0  0  0  0  0  0
   -8.0370    1.0100  -25.5180 C   0  0  0  0  0  0  0  0  0  0  0  0
   -8.9090    0.0890  -24.8190 N   0  0  0  0  0  0  0  0  0  0  0  0
   -8.3720   -1.1810  -24.3660 C   0  0  0  0  0  0  0  0  0  0  0  0
   -8.9780   -1.5930  -23.0030 C   0  0  2  0  0  0  0  0  0  0  0  0
   -8.4150   -0.6640  -21.9000 C   0  0  0  0  0  0  0  0  0  0  0  0
   -8.7000    0.4930  -21.6820 O   0  0  0  0  0  0  0  0  0  0  0  0
   -7.4550   -1.3710  -21.2060 N   0  0  0  0  0  0  0  0  0  0  0  0
   -6.6490   -0.7930  -20.1910 C   0  0  0  0  0  0  0  0  0  0  0  0
   -6.9250   -1.0640  -18.8740 C   0  0  0  0  0  0  0  0  0  0  0  0
   -6.2310   -0.5730  -17.8170 N   0  0  0  0  0  0  0  0  0  0  0  0
   -5.2060    0.2020  -18.0870 C   0  0  0  0  0  0  0  0  0  0  0  0
   -4.7770    0.5290  -19.4050 C   0  0  0  0  0  0  0  0  0  0  0  0
   -3.6370    1.3450  -19.6340 C   0  0  0  0  0  0  0  0  0  0  0  0
   -3.2240    1.6210  -20.9100 C   0  0  0  0  0  0  0  0  0  0  0  0
   -3.9320    1.0970  -22.0140 C   0  0  0  0  0  0  0  0  0  0  0  0
   -5.0380    0.3030  -21.8180 C   0  0  0  0  0  0  0  0  0  0  0  0
   -5.5020    0.0090  -20.5040 C   0  0  0  0  0  0  0  0  0  0  0  0
   -5.5540   -0.1030  -22.6820 H   0  0  0  0  0  0  0  0  0  0  0  0
   -3.6180    1.3320  -23.0270 H   0  0  0  0  0  0  0  0  0  0  0  0
   -2.3490    2.2420  -21.0770 H   0  0  0  0  0  0  0  0  0  0  0  0
   -3.1110    1.7420  -18.7700 H   0  0  0  0  0  0  0  0  0  0  0  0
   -4.6480    0.6040  -17.2420 H   0  0  0  0  0  0  0  0  0  0  0  0
   -7.7660   -1.7090  -18.6270 H   0  0  0  0  0  0  0  0  0  0  0  0
   -7.2500   -2.7290  -21.6630 C   0  0  0  0  0  0  0  0  0  0  0  0
   -8.4590   -2.9930  -22.5760 C   0  0  2  0  0  0  0  0  0  0  0  0
   -8.1560   -3.9370  -23.7500 C   0  0  0  0  0  0  0  0  0  0  0  0
   -7.7190   -5.2800  -23.2870 C   0  0  0  0  0  0  0  0  0  0  0  0
   -6.5520   -5.4930  -22.6840 N   0  0  0  0  0  0  0  0  0  0  0  0
   -6.5230   -6.7970  -22.4480 N   0  0  0  0  0  0  0  0  0  0  0  0
   -7.6280   -7.3380  -22.8960 N   0  5  0  0  0  0  0  0  0  0  0  0
   -8.3960   -6.4030  -23.4450 N   0  0  0  0  0  0  0  0  0  0  0  0
   -7.3410   -3.5380  -24.3660 H   0  0  0  0  0  0  0  0  0  0  0  0
   -9.0420   -4.0640  -24.3790 H   0  0  0  0  0  0  0  0  0  0  0  0
   -9.2290   -3.4910  -21.9770 H   0  0  0  0  0  0  0  0  0  0  0  0
   -6.2920   -2.8480  -22.1900 H   0  0  0  0  0  0  0  0  0  0  0  0
   -7.2070   -3.4100  -20.8110 H   0  0  0  0  0  0  0  0  0  0  0  0
  -10.4820   -1.4920  -23.1300 C   0  0  0  0  0  0  0  0  0  0  0  0
  -11.3220   -2.1750  -22.2460 C   0  0  0  0  0  0  0  0  0  0  0  0
  -12.6910   -2.0100  -22.3250 C   0  0  0  0  0  0  0  0  0  0  0  0
  -13.6740   -2.8650  -21.1740 Cl  0  0  0  0  0  0  0  0  0  0  0  0
  -13.2950   -1.1950  -23.2870 C   0  0  0  0  0  0  0  0  0  0  0  0
  -12.4680   -0.5240  -24.1640 C   0  0  0  0  0  0  0  0  0  0  0  0
  -11.0830   -0.6530  -24.0810 C   0  0  0  0  0  0  0  0  0  0  0  0
  -10.2630    0.2160  -24.9830 C   0  0  0  0  0  0  0  0  0  0  0  0
  -10.7680    1.0180  -25.7600 O   0  0  0  0  0  0  0  0  0  0  0  0
  -12.8530    0.1350  -24.9350 H   0  0  0  0  0  0  0  0  0  0  0  0
  -14.3750   -1.0790  -23.3280 H   0  0  0  0  0  0  0  0  0  0  0  0
  -10.9350   -2.8530  -21.4910 H   0  0  0  0  0  0  0  0  0  0  0  0
   -7.2830   -1.0890  -24.2910 H   0  0  0  0  0  0  0  0  0  0  0  0
   -8.6040   -1.9700  -25.1000 H   0  0  0  0  0  0  0  0  0  0  0  0
   -8.6900    1.6580  -26.1140 H   0  0  0  0  0  0  0  0  0  0  0  0
   -7.3670    0.4580  -26.1840 H   0  0  0  0  0  0  0  0  0  0  0  0
   -8.8060    2.6170  -23.6870 H   0  0  0  0  0  0  0  0  0  0  0  0
   -7.7880    4.0590  -22.1960 H   0  0  0  0  0  0  0  0  0  0  0  0
   -6.3170    4.0810  -23.1890 H   0  0  0  0  0  0  0  0  0  0  0  0
   -6.6030    2.7210  -22.0700 H   0  0  0  0  0  0  0  0  0  0  0  0
  1  2  1  0  0  0  0
  1 58  1  0  0  0  0
  1 59  1  0  0  0  0
  1 60  1  0  0  0  0
  2  3  1  0  0  0  0
  2 57  1  0  0  0  0
  3  4  2  0  0  0  0
  3  5  1  0  0  0  0
  5  6  1  0  0  0  0
  5 55  1  0  0  0  0
  5 56  1  0  0  0  0
  6  7  1  0  0  0  0
  6 48  1  0  0  0  0
  7  8  1  0  0  0  0
  7 53  1  0  0  0  0
  7 54  1  0  0  0  0
  8  9  1  1  0  0  0
  8 29  1  0  0  0  0
  8 41  1  0  0  0  0
  9 10  2  0  0  0  0
  9 11  1  0  0  0  0
 11 12  1  0  0  0  0
 11 28  1  0  0  0  0
 12 13  2  0  0  0  0
 12 21  1  0  0  0  0
 13 14  1  0  0  0  0
 13 27  1  0  0  0  0
 14 15  2  0  0  0  0
 15 16  1  0  0  0  0
 15 26  1  0  0  0  0
 16 17  2  0  0  0  0
 16 21  1  0  0  0  0
 17 18  1  0  0  0  0
 17 25  1  0  0  0  0
 18 19  2  0  0  0  0
 18 24  1  0  0  0  0
 19 20  1  0  0  0  0
 19 23  1  0  0  0  0
 20 21  2  0  0  0  0
 20 22  1  0  0  0  0
 28 29  1  0  0  0  0
 28 39  1  0  0  0  0
 28 40  1  0  0  0  0
 29 30  1  0  0  0  0
 29 38  1  1  0  0  0
 30 31  1  0  0  0  0
 30 36  1  0  0  0  0
 30 37  1  0  0  0  0
 31 32  1  0  0  0  0
 31 35  2  0  0  0  0
 32 33  2  0  0  0  0
 33 34  1  0  0  0  0
 34 35  1  0  0  0  0
 41 42  2  0  0  0  0
 41 47  1  0  0  0  0
 42 43  1  0  0  0  0
 42 52  1  0  0  0  0
 43 44  1  0  0  0  0
 43 45  2  0  0  0  0
 45 46  1  0  0  0  0
 45 51  1  0  0  0  0
 46 47  2  0  0  0  0
 46 50  1  0  0  0  0
 47 48  1  0  0  0  0
 48 49  2  0  0  0  0
M  CHG  1  34  -1
M  END
>  <MODEL>
       1

$$$$
