output/tmp_first_model_1_37.pdb
 OpenBabel07242613193D

 56 60  0  0  1  0  0  0  0  0999 V2000
   -6.9780    3.1610  -22.1050 C   0  0  0  0  0  0  0  0  0  0  0  0
   -7.4950    2.5220  -23.3010 N   0  0  0  0  0  0  0  0  0  0  0  0
   -6.6200    1.8860  -24.1180 C   0  0  0  0  0  0  0  0  0  0  0  0
   -5.4070    2.0300  -24.0630 O   0  0  0  0  0  0  0  0  0  0  0  0
   -7.2550    0.9050  -25.1080 C   0  0  0  0  0  0  0  0  0  0  0  0
   -7.9220   -0.2110  -24.4590 N   0  0  0  0  0  0  0  0  0  0  0  0
   -7.1140   -1.3660  -24.1110 C   0  0  0  0  0  0  0  0  0  0  0  0
   -7.6360   -2.1070  -22.8450 C   0  0  2  0  0  0  0  0  0  0  0  0
   -7.3760   -1.2180  -21.5910 C   0  0  0  0  0  0  0  0  0  0  0  0
   -7.9770   -0.2290  -21.2260 O   0  0  0  0  0  0  0  0  0  0  0  0
   -6.2670   -1.7310  -20.9460 N   0  0  0  0  0  0  0  0  0  0  0  0
   -5.6670   -1.0210  -19.8880 C   0  0  0  0  0  0  0  0  0  0  0  0
   -5.9670   -1.3680  -18.5990 C   0  0  0  0  0  0  0  0  0  0  0  0
   -5.4880   -0.7220  -17.5110 N   0  0  0  0  0  0  0  0  0  0  0  0
   -4.6710    0.2810  -17.7340 C   0  0  0  0  0  0  0  0  0  0  0  0
   -4.2180    0.6850  -19.0270 C   0  0  0  0  0  0  0  0  0  0  0  0
   -3.2490    1.7030  -19.2160 C   0  0  0  0  0  0  0  0  0  0  0  0
   -2.8510    2.0700  -20.4730 C   0  0  0  0  0  0  0  0  0  0  0  0
   -3.4040    1.4360  -21.6080 C   0  0  0  0  0  0  0  0  0  0  0  0
   -4.3290    0.4360  -21.4590 C   0  0  0  0  0  0  0  0  0  0  0  0
   -4.7500    0.0320  -20.1570 C   0  0  0  0  0  0  0  0  0  0  0  0
   -4.7300   -0.0530  -22.3440 H   0  0  0  0  0  0  0  0  0  0  0  0
   -3.1170    1.7450  -22.6070 H   0  0  0  0  0  0  0  0  0  0  0  0
   -2.1090    2.8500  -20.6070 H   0  0  0  0  0  0  0  0  0  0  0  0
   -2.8270    2.1650  -18.3330 H   0  0  0  0  0  0  0  0  0  0  0  0
   -4.3120    0.8230  -16.8610 H   0  0  0  0  0  0  0  0  0  0  0  0
   -6.6320   -2.2110  -18.4200 H   0  0  0  0  0  0  0  0  0  0  0  0
   -5.5690   -2.7370  -21.7150 C   0  0  0  0  0  0  0  0  0  0  0  0
   -6.7320   -3.3370  -22.5110 C   0  0  2  0  0  0  0  0  0  0  0  0
   -6.2780   -4.1930  -23.6820 C   0  0  0  0  0  0  0  0  0  0  0  0
   -5.5350   -3.6510  -24.2800 H   0  0  0  0  0  0  0  0  0  0  0  0
   -5.8090   -5.1170  -23.3280 H   0  0  0  0  0  0  0  0  0  0  0  0
   -7.1140   -4.4520  -24.3400 H   0  0  0  0  0  0  0  0  0  0  0  0
   -7.2750   -3.9480  -21.7780 H   0  0  0  0  0  0  0  0  0  0  0  0
   -4.8000   -2.3020  -22.3820 H   0  0  0  0  0  0  0  0  0  0  0  0
   -5.0750   -3.4620  -21.0600 H   0  0  0  0  0  0  0  0  0  0  0  0
   -9.1210   -2.3660  -23.0610 C   0  0  0  0  0  0  0  0  0  0  0  0
   -9.7990   -3.4880  -22.5760 C   0  0  0  0  0  0  0  0  0  0  0  0
  -11.1720   -3.6180  -22.7250 C   0  0  0  0  0  0  0  0  0  0  0  0
  -11.9220   -2.6200  -23.3490 C   0  0  0  0  0  0  0  0  0  0  0  0
  -11.2760   -1.4980  -23.8360 C   0  0  0  0  0  0  0  0  0  0  0  0
   -9.8960   -1.3690  -23.6770 C   0  0  0  0  0  0  0  0  0  0  0  0
   -9.2390   -0.1120  -24.1560 C   0  0  0  0  0  0  0  0  0  0  0  0
   -9.8440    0.9580  -24.2580 O   0  0  0  0  0  0  0  0  0  0  0  0
  -11.8230   -0.6660  -24.2760 H   0  0  0  0  0  0  0  0  0  0  0  0
  -13.0010   -2.7270  -23.4230 H   0  0  0  0  0  0  0  0  0  0  0  0
  -11.6740   -4.4850  -22.3150 H   0  0  0  0  0  0  0  0  0  0  0  0
   -9.2480   -4.2640  -22.0580 H   0  0  0  0  0  0  0  0  0  0  0  0
   -7.1010   -2.0710  -24.9490 H   0  0  0  0  0  0  0  0  0  0  0  0
   -6.0950   -1.0000  -23.9490 H   0  0  0  0  0  0  0  0  0  0  0  0
   -6.4600    0.5160  -25.7450 H   0  0  0  0  0  0  0  0  0  0  0  0
   -7.9890    1.4150  -25.7330 H   0  0  0  0  0  0  0  0  0  0  0  0
   -8.4890    2.3300  -23.4070 H   0  0  0  0  0  0  0  0  0  0  0  0
   -6.6470    2.4020  -21.3790 H   0  0  0  0  0  0  0  0  0  0  0  0
   -6.1150    3.7780  -22.3760 H   0  0  0  0  0  0  0  0  0  0  0  0
   -7.7510    3.7920  -21.6610 H   0  0  0  0  0  0  0  0  0  0  0  0
  1  2  1  0  0  0  0
  1 54  1  0  0  0  0
  1 55  1  0  0  0  0
  1 56  1  0  0  0  0
  2  3  1  0  0  0  0
  2 53  1  0  0  0  0
  3  4  2  0  0  0  0
  3  5  1  0  0  0  0
  5  6  1  0  0  0  0
  5 51  1  0  0  0  0
  5 52  1  0  0  0  0
  6  7  1  0  0  0  0
  6 43  1  0  0  0  0
  7  8  1  0  0  0  0
  7 49  1  0  0  0  0
  7 50  1  0  0  0  0
  8  9  1  1  0  0  0
  8 29  1  0  0  0  0
  8 37  1  0  0  0  0
  9 10  2  0  0  0  0
  9 11  1  0  0  0  0
 11 12  1  0  0  0  0
 11 28  1  0  0  0  0
 12 13  2  0  0  0  0
 12 21  1  0  0  0  0
 13 14  1  0  0  0  0
 13 27  1  0  0  0  0
 14 15  2  0  0  0  0
 15 16  1  0  0  0  0
 15 26  1  0  0  0  0
 16 17  2  0  0  0  0
 16 21  1  0  0  0  0
 17 18  1  0  0  0  0
 17 25  1  0  0  0  0
 18 19  2  0  0  0  0
 18 24  1  0  0  0  0
 19 20  1  0  0  0  0
 19 23  1  0  0  0  0
 20 21  2  0  0  0  0
 20 22  1  0  0  0  0
 28 29  1  0  0  0  0
 28 35  1  0  0  0  0
 28 36  1  0  0  0  0
 29 30  1  0  0  0  0
 29 34  1  1  0  0  0
 30 31  1  0  0  0  0
 30 32  1  0  0  0  0
 30 33  1  0  0  0  0
 37 38  2  0  0  0  0
 37 42  1  0  0  0  0
 38 39  1  0  0  0  0
 38 48  1  0  0  0  0
 39 40  2  0  0  0  0
 39 47  1  0  0  0  0
 40 41  1  0  0  0  0
 40 46  1  0  0  0  0
 41 42  2  0  0  0  0
 41 45  1  0  0  0  0
 42 43  1  0  0  0  0
 43 44  2  0  0  0  0
M  END
>  <MODEL>
       1

$$$$
