output/tmp_first_model_13_67.pdb
 OpenBabel07242619583D

 58 63  0  0  1  0  0  0  0  0999 V2000
   -5.7430    4.0660  -22.3630 C   0  0  0  0  0  0  0  0  0  0  0  0
   -6.8340    3.5270  -23.2310 C   0  0  0  0  0  0  0  0  0  0  0  0
   -6.7690    2.4030  -24.1020 C   0  0  0  0  0  0  0  0  0  0  0  0
   -8.0260    2.3030  -24.6050 C   0  0  0  0  0  0  0  0  0  0  0  0
   -8.6860    1.3030  -25.5050 C   0  0  0  0  0  0  0  0  0  0  0  0
   -9.3970    0.2880  -24.7500 N   0  0  0  0  0  0  0  0  0  0  0  0
   -8.7590   -0.9810  -24.4640 C   0  0  0  0  0  0  0  0  0  0  0  0
   -8.9630   -1.4430  -23.0060 C   0  0  2  0  0  0  0  0  0  0  0  0
   -8.1970   -0.5470  -22.0110 C   0  0  0  0  0  0  0  0  0  0  0  0
   -8.3170    0.6500  -21.8740 O   0  0  0  0  0  0  0  0  0  0  0  0
   -7.3570   -1.3370  -21.2570 N   0  0  0  0  0  0  0  0  0  0  0  0
   -6.5810   -0.8050  -20.2070 C   0  0  0  0  0  0  0  0  0  0  0  0
   -6.8870   -1.0670  -18.8950 C   0  0  0  0  0  0  0  0  0  0  0  0
   -6.2050   -0.5600  -17.8420 N   0  0  0  0  0  0  0  0  0  0  0  0
   -5.1790    0.2150  -18.0950 C   0  0  0  0  0  0  0  0  0  0  0  0
   -4.7330    0.5330  -19.4100 C   0  0  0  0  0  0  0  0  0  0  0  0
   -3.6030    1.3560  -19.6410 C   0  0  0  0  0  0  0  0  0  0  0  0
   -3.1860    1.6240  -20.9190 C   0  0  0  0  0  0  0  0  0  0  0  0
   -3.8790    1.0820  -22.0210 C   0  0  0  0  0  0  0  0  0  0  0  0
   -4.9790    0.2840  -21.8270 C   0  0  0  0  0  0  0  0  0  0  0  0
   -5.4430    0.0020  -20.5090 C   0  0  0  0  0  0  0  0  0  0  0  0
   -5.5000   -0.1360  -22.6810 H   0  0  0  0  0  0  0  0  0  0  0  0
   -3.5350    1.2960  -23.0310 H   0  0  0  0  0  0  0  0  0  0  0  0
   -2.3210    2.2570  -21.0890 H   0  0  0  0  0  0  0  0  0  0  0  0
   -3.0790    1.7640  -18.7850 H   0  0  0  0  0  0  0  0  0  0  0  0
   -4.6240    0.6190  -17.2460 H   0  0  0  0  0  0  0  0  0  0  0  0
   -7.7500   -1.6870  -18.6480 H   0  0  0  0  0  0  0  0  0  0  0  0
   -7.6460   -2.7430  -21.3830 C   0  0  0  0  0  0  0  0  0  0  0  0
   -8.3720   -2.8620  -22.7360 C   0  0  2  0  0  0  0  0  0  0  0  0
   -7.4660   -3.4530  -23.8200 C   0  0  0  0  0  0  0  0  0  0  0  0
   -7.1250   -4.4480  -23.5150 H   0  0  0  0  0  0  0  0  0  0  0  0
   -6.5830   -2.8350  -24.0060 H   0  0  0  0  0  0  0  0  0  0  0  0
   -8.0070   -3.5800  -24.7630 H   0  0  0  0  0  0  0  0  0  0  0  0
   -9.1970   -3.5710  -22.6560 H   0  0  0  0  0  0  0  0  0  0  0  0
   -8.2910   -3.0800  -20.5640 H   0  0  0  0  0  0  0  0  0  0  0  0
   -6.7180   -3.3200  -21.3410 H   0  0  0  0  0  0  0  0  0  0  0  0
  -10.4590   -1.3570  -22.7390 C   0  0  0  0  0  0  0  0  0  0  0  0
  -11.0730   -2.2160  -21.8300 C   0  0  0  0  0  0  0  0  0  0  0  0
  -12.4350   -2.1200  -21.6370 C   0  0  0  0  0  0  0  0  0  0  0  0
  -13.0190   -3.0500  -20.8670 F   0  0  0  0  0  0  0  0  0  0  0  0
  -13.2220   -1.1110  -22.1800 C   0  0  0  0  0  0  0  0  0  0  0  0
  -12.5990   -0.2140  -23.0230 C   0  0  0  0  0  0  0  0  0  0  0  0
  -11.2520   -0.3760  -23.3490 C   0  0  0  0  0  0  0  0  0  0  0  0
  -10.6790    0.5610  -24.3620 C   0  0  0  0  0  0  0  0  0  0  0  0
  -11.3080    1.5170  -24.7890 O   0  0  0  0  0  0  0  0  0  0  0  0
  -13.1320    0.6220  -23.4670 H   0  0  0  0  0  0  0  0  0  0  0  0
  -14.2780   -1.0590  -21.9250 H   0  0  0  0  0  0  0  0  0  0  0  0
  -10.5250   -2.9750  -21.2820 H   0  0  0  0  0  0  0  0  0  0  0  0
   -7.6970   -0.9010  -24.7010 H   0  0  0  0  0  0  0  0  0  0  0  0
   -9.1910   -1.7520  -25.1110 H   0  0  0  0  0  0  0  0  0  0  0  0
   -9.4140    1.7890  -26.1560 H   0  0  0  0  0  0  0  0  0  0  0  0
   -7.9390    0.8020  -26.1260 H   0  0  0  0  0  0  0  0  0  0  0  0
   -8.7860    3.2860  -24.1070 O   0  0  0  0  0  0  0  0  0  0  0  0
   -8.0330    4.0660  -23.2560 N   0  0  0  0  0  0  0  0  0  0  0  0
   -5.9220    1.7620  -24.2930 H   0  0  0  0  0  0  0  0  0  0  0  0
   -5.6980    3.4960  -21.4290 H   0  0  0  0  0  0  0  0  0  0  0  0
   -4.7690    3.9610  -22.8510 H   0  0  0  0  0  0  0  0  0  0  0  0
   -5.9040    5.1170  -22.1180 H   0  0  0  0  0  0  0  0  0  0  0  0
  1  2  1  0  0  0  0
  1 56  1  0  0  0  0
  1 57  1  0  0  0  0
  1 58  1  0  0  0  0
  2  3  1  0  0  0  0
  2 54  2  0  0  0  0
  3  4  2  0  0  0  0
  3 55  1  0  0  0  0
  4  5  1  0  0  0  0
  4 53  1  0  0  0  0
  5  6  1  0  0  0  0
  5 51  1  0  0  0  0
  5 52  1  0  0  0  0
  6  7  1  0  0  0  0
  6 44  1  0  0  0  0
  7  8  1  0  0  0  0
  7 49  1  0  0  0  0
  7 50  1  0  0  0  0
  8  9  1  1  0  0  0
  8 29  1  0  0  0  0
  8 37  1  0  0  0  0
  9 10  2  0  0  0  0
  9 11  1  0  0  0  0
 11 12  1  0  0  0  0
 11 28  1  0  0  0  0
 12 13  2  0  0  0  0
 12 21  1  0  0  0  0
 13 14  1  0  0  0  0
 13 27  1  0  0  0  0
 14 15  2  0  0  0  0
 15 16  1  0  0  0  0
 15 26  1  0  0  0  0
 16 17  2  0  0  0  0
 16 21  1  0  0  0  0
 17 18  1  0  0  0  0
 17 25  1  0  0  0  0
 18 19  2  0  0  0  0
 18 24  1  0  0  0  0
 19 20  1  0  0  0  0
 19 23  1  0  0  0  0
 20 21  2  0  0  0  0
 20 22  1  0  0  0  0
 28 29  1  0  0  0  0
 28 35  1  0  0  0  0
 28 36  1  0  0  0  0
 29 30  1  0  0  0  0
 29 34  1  1  0  0  0
 30 31  1  0  0  0  0
 30 32  1  0  0  0  0
 30 33  1  0  0  0  0
 37 38  2  0  0  0  0
 37 43  1  0  0  0  0
 38 39  1  0  0  0  0
 38 48  1  0  0  0  0
 39 40  1  0  0  0  0
 39 41  2  0  0  0  0
 41 42  1  0  0  0  0
 41 47  1  0  0  0  0
 42 43  2  0  0  0  0
 42 46  1  0  0  0  0
 43 44  1  0  0  0  0
 44 45  2  0  0  0  0
 53 54  1  0  0  0  0
M  END
>  <MODEL>
       1

$$$$
