output/tmp_first_model_17_96.pdb
 OpenBabel07242622053D

 66 70  0  0  1  0  0  0  0  0999 V2000
   -7.4560    3.3430  -21.6830 C   0  0  0  0  0  0  0  0  0  0  0  0
   -8.3730    2.9340  -22.7290 N   0  0  0  0  0  0  0  0  0  0  0  0
   -7.8250    2.2590  -23.7670 C   0  0  0  0  0  0  0  0  0  0  0  0
   -6.6110    2.1620  -23.9040 O   0  0  0  0  0  0  0  0  0  0  0  0
   -8.7720    1.6470  -24.7940 C   0  0  0  0  0  0  0  0  0  0  0  0
   -9.4590    0.4600  -24.3290 N   0  0  0  0  0  0  0  0  0  0  0  0
   -8.6960   -0.7690  -24.1950 C   0  0  0  0  0  0  0  0  0  0  0  0
   -9.0550   -1.5250  -22.8960 C   0  0  2  0  0  0  0  0  0  0  0  0
   -8.5310   -0.7520  -21.6610 C   0  0  0  0  0  0  0  0  0  0  0  0
   -9.0100    0.2490  -21.1580 O   0  0  0  0  0  0  0  0  0  0  0  0
   -7.4000   -1.3820  -21.2000 N   0  0  0  0  0  0  0  0  0  0  0  0
   -6.6030   -0.8090  -20.1720 C   0  0  0  0  0  0  0  0  0  0  0  0
   -6.9090   -1.0410  -18.8560 C   0  0  0  0  0  0  0  0  0  0  0  0
   -6.2020   -0.5470  -17.8120 N   0  0  0  0  0  0  0  0  0  0  0  0
   -5.1660    0.2070  -18.0780 C   0  0  0  0  0  0  0  0  0  0  0  0
   -4.7310    0.5320  -19.3940 C   0  0  0  0  0  0  0  0  0  0  0  0
   -3.6070    1.3700  -19.6380 C   0  0  0  0  0  0  0  0  0  0  0  0
   -3.2290    1.6670  -20.9180 C   0  0  0  0  0  0  0  0  0  0  0  0
   -3.9540    1.1430  -22.0130 C   0  0  0  0  0  0  0  0  0  0  0  0
   -5.0440    0.3310  -21.8020 C   0  0  0  0  0  0  0  0  0  0  0  0
   -5.4660    0.0050  -20.4840 C   0  0  0  0  0  0  0  0  0  0  0  0
   -5.6040   -0.0490  -22.6520 H   0  0  0  0  0  0  0  0  0  0  0  0
   -3.6540    1.3860  -23.0260 H   0  0  0  0  0  0  0  0  0  0  0  0
   -2.3700    2.3070  -21.1010 H   0  0  0  0  0  0  0  0  0  0  0  0
   -3.0680    1.7690  -18.7830 H   0  0  0  0  0  0  0  0  0  0  0  0
   -4.6150    0.6090  -17.2280 H   0  0  0  0  0  0  0  0  0  0  0  0
   -7.7620   -1.6650  -18.6000 H   0  0  0  0  0  0  0  0  0  0  0  0
   -7.0400   -2.5760  -21.9420 C   0  0  0  0  0  0  0  0  0  0  0  0
   -8.2940   -2.8830  -22.7750 C   0  0  2  0  0  0  0  0  0  0  0  0
   -7.9660   -3.6190  -24.0780 C   0  0  0  0  0  0  0  0  0  0  0  0
   -9.1230   -3.9180  -24.8300 O   0  0  0  0  0  0  0  0  0  0  0  0
   -9.6970   -5.1980  -24.5640 C   0  0  0  0  0  0  0  0  0  0  0  0
  -11.1990   -5.0780  -24.7350 C   0  0  0  0  0  0  0  0  0  0  0  0
  -11.6760   -6.0360  -24.5130 H   0  0  0  0  0  0  0  0  0  0  0  0
  -11.6100   -4.3080  -24.0770 H   0  0  0  0  0  0  0  0  0  0  0  0
  -11.4350   -4.8230  -25.7670 H   0  0  0  0  0  0  0  0  0  0  0  0
   -9.0930   -6.2340  -25.5070 C   0  0  0  0  0  0  0  0  0  0  0  0
   -9.5460   -7.2150  -25.3400 H   0  0  0  0  0  0  0  0  0  0  0  0
   -8.0120   -6.3290  -25.3610 H   0  0  0  0  0  0  0  0  0  0  0  0
   -9.2740   -5.9350  -26.5450 H   0  0  0  0  0  0  0  0  0  0  0  0
   -9.4710   -5.4760  -23.5210 H   0  0  0  0  0  0  0  0  0  0  0  0
   -7.4020   -4.5380  -23.8550 H   0  0  0  0  0  0  0  0  0  0  0  0
   -7.3230   -2.9910  -24.7080 H   0  0  0  0  0  0  0  0  0  0  0  0
   -8.9460   -3.5400  -22.1960 H   0  0  0  0  0  0  0  0  0  0  0  0
   -6.1680   -2.3880  -22.5870 H   0  0  0  0  0  0  0  0  0  0  0  0
   -6.7750   -3.3910  -21.2570 H   0  0  0  0  0  0  0  0  0  0  0  0
  -10.5660   -1.6230  -22.8340 C   0  0  0  0  0  0  0  0  0  0  0  0
  -11.1530   -2.5240  -21.9440 C   0  0  0  0  0  0  0  0  0  0  0  0
  -12.5220   -2.5680  -21.7840 C   0  0  0  0  0  0  0  0  0  0  0  0
  -13.1420   -3.5900  -20.5170 Cl  0  0  0  0  0  0  0  0  0  0  0  0
  -13.3660   -1.7580  -22.5480 C   0  0  0  0  0  0  0  0  0  0  0  0
  -12.7940   -0.8200  -23.3890 C   0  0  0  0  0  0  0  0  0  0  0  0
  -11.4060   -0.7180  -23.4970 C   0  0  0  0  0  0  0  0  0  0  0  0
  -10.8290    0.4510  -24.2380 C   0  0  0  0  0  0  0  0  0  0  0  0
  -11.5310    1.3450  -24.6860 O   0  0  0  0  0  0  0  0  0  0  0  0
  -13.3950   -0.1090  -23.9460 H   0  0  0  0  0  0  0  0  0  0  0  0
  -14.4430   -1.8380  -22.4610 H   0  0  0  0  0  0  0  0  0  0  0  0
  -10.5490   -3.1540  -21.3040 H   0  0  0  0  0  0  0  0  0  0  0  0
   -8.8980   -1.4430  -25.0410 H   0  0  0  0  0  0  0  0  0  0  0  0
   -7.6340   -0.4970  -24.1800 H   0  0  0  0  0  0  0  0  0  0  0  0
   -9.5590    2.3500  -25.0580 H   0  0  0  0  0  0  0  0  0  0  0  0
   -8.1510    1.4200  -25.6700 H   0  0  0  0  0  0  0  0  0  0  0  0
   -9.3560    2.8130  -22.5290 H   0  0  0  0  0  0  0  0  0  0  0  0
   -6.8220    2.4920  -21.4020 H   0  0  0  0  0  0  0  0  0  0  0  0
   -6.8040    4.1410  -22.0470 H   0  0  0  0  0  0  0  0  0  0  0  0
   -8.0130    3.6950  -20.8200 H   0  0  0  0  0  0  0  0  0  0  0  0
  1  2  1  0  0  0  0
  1 64  1  0  0  0  0
  1 65  1  0  0  0  0
  1 66  1  0  0  0  0
  2  3  1  0  0  0  0
  2 63  1  0  0  0  0
  3  4  2  0  0  0  0
  3  5  1  0  0  0  0
  5  6  1  0  0  0  0
  5 61  1  0  0  0  0
  5 62  1  0  0  0  0
  6  7  1  0  0  0  0
  6 54  1  0  0  0  0
  7  8  1  0  0  0  0
  7 59  1  0  0  0  0
  7 60  1  0  0  0  0
  8  9  1  1  0  0  0
  8 29  1  0  0  0  0
  8 47  1  0  0  0  0
  9 10  2  0  0  0  0
  9 11  1  0  0  0  0
 11 12  1  0  0  0  0
 11 28  1  0  0  0  0
 12 13  2  0  0  0  0
 12 21  1  0  0  0  0
 13 14  1  0  0  0  0
 13 27  1  0  0  0  0
 14 15  2  0  0  0  0
 15 16  1  0  0  0  0
 15 26  1  0  0  0  0
 16 17  2  0  0  0  0
 16 21  1  0  0  0  0
 17 18  1  0  0  0  0
 17 25  1  0  0  0  0
 18 19  2  0  0  0  0
 18 24  1  0  0  0  0
 19 20  1  0  0  0  0
 19 23  1  0  0  0  0
 20 21  2  0  0  0  0
 20 22  1  0  0  0  0
 28 29  1  0  0  0  0
 28 45  1  0  0  0  0
 28 46  1  0  0  0  0
 29 30  1  0  0  0  0
 29 44  1  1  0  0  0
 30 31  1  0  0  0  0
 30 42  1  0  0  0  0
 30 43  1  0  0  0  0
 31 32  1  0  0  0  0
 32 33  1  0  0  0  0
 32 37  1  0  0  0  0
 32 41  1  0  0  0  0
 33 34  1  0  0  0  0
 33 35  1  0  0  0  0
 33 36  1  0  0  0  0
 37 38  1  0  0  0  0
 37 39  1  0  0  0  0
 37 40  1  0  0  0  0
 47 48  2  0  0  0  0
 47 53  1  0  0  0  0
 48 49  1  0  0  0  0
 48 58  1  0  0  0  0
 49 50  1  0  0  0  0
 49 51  2  0  0  0  0
 51 52  1  0  0  0  0
 51 57  1  0  0  0  0
 52 53  2  0  0  0  0
 52 56  1  0  0  0  0
 53 54  1  0  0  0  0
 54 55  2  0  0  0  0
M  END
>  <MODEL>
       1

$$$$
