output/tmp_first_model_16_13.pdb
 OpenBabel07242621343D

 69 74  0  0  1  0  0  0  0  0999 V2000
  -10.7190    3.2730  -26.8510 C   0  0  0  0  0  0  0  0  0  0  0  0
  -10.3200    1.8770  -26.9100 N   0  0  0  0  0  0  0  0  0  0  0  0
  -10.0850    1.1840  -25.7600 C   0  0  0  0  0  0  0  0  0  0  0  0
  -10.4190    1.6080  -24.6700 O   0  0  0  0  0  0  0  0  0  0  0  0
   -9.3450   -0.1560  -25.9620 C   0  0  0  0  0  0  0  0  0  0  0  0
   -9.5400   -1.0980  -24.8860 N   0  0  0  0  0  0  0  0  0  0  0  0
   -8.6780   -0.8970  -23.7250 C   0  0  0  0  0  0  0  0  0  0  0  0
   -8.6650   -2.0350  -22.6680 C   0  0  2  0  0  0  0  0  0  0  0  0
   -8.2060   -1.3010  -21.3840 C   0  0  0  0  0  0  0  0  0  0  0  0
   -8.8790   -0.5730  -20.6870 O   0  0  0  0  0  0  0  0  0  0  0  0
   -6.8500   -1.5020  -21.2160 N   0  0  0  0  0  0  0  0  0  0  0  0
   -6.1560   -0.9620  -20.1100 C   0  0  0  0  0  0  0  0  0  0  0  0
   -6.5260   -1.2900  -18.8290 C   0  0  0  0  0  0  0  0  0  0  0  0
   -5.8330   -0.9300  -17.7230 N   0  0  0  0  0  0  0  0  0  0  0  0
   -4.7660   -0.1840  -17.8890 C   0  0  0  0  0  0  0  0  0  0  0  0
   -4.3060    0.2800  -19.1540 C   0  0  0  0  0  0  0  0  0  0  0  0
   -3.1740    1.1280  -19.2850 C   0  0  0  0  0  0  0  0  0  0  0  0
   -2.8090    1.6090  -20.5110 C   0  0  0  0  0  0  0  0  0  0  0  0
   -3.5610    1.2760  -21.6600 C   0  0  0  0  0  0  0  0  0  0  0  0
   -4.6510    0.4480  -21.5600 C   0  0  0  0  0  0  0  0  0  0  0  0
   -5.0340   -0.0910  -20.3040 C   0  0  0  0  0  0  0  0  0  0  0  0
   -5.2430    0.2190  -22.4400 H   0  0  0  0  0  0  0  0  0  0  0  0
   -3.2720    1.6770  -22.6260 H   0  0  0  0  0  0  0  0  0  0  0  0
   -1.9440    2.2590  -20.6130 H   0  0  0  0  0  0  0  0  0  0  0  0
   -2.6290    1.4060  -18.3870 H   0  0  0  0  0  0  0  0  0  0  0  0
   -4.2180    0.1070  -16.9930 H   0  0  0  0  0  0  0  0  0  0  0  0
   -7.4140   -1.8930  -18.6540 H   0  0  0  0  0  0  0  0  0  0  0  0
   -6.2720   -2.3820  -22.2230 C   0  0  0  0  0  0  0  0  0  0  0  0
   -7.5240   -3.0920  -22.7580 C   0  0  2  0  0  0  0  0  0  0  0  0
   -7.3700   -3.8850  -24.0460 C   0  0  0  0  0  0  0  0  0  0  0  0
   -6.7890   -3.1300  -25.1280 N   0  0  0  0  0  0  0  0  0  0  0  0
   -6.8970   -3.4630  -26.4400 C   0  0  0  0  0  0  0  0  0  0  0  0
   -7.3940   -4.7050  -26.8750 C   0  0  0  0  0  0  0  0  0  0  0  0
   -7.4590   -4.8790  -28.2400 C   0  0  0  0  0  0  0  0  0  0  0  0
   -7.0640   -3.9600  -29.1250 N   0  0  0  0  0  0  0  0  0  0  0  0
   -6.5840   -2.8290  -28.6060 C   0  0  0  0  0  0  0  0  0  0  0  0
   -6.1350   -1.7750  -29.5760 C   0  0  0  0  0  0  0  0  0  0  0  0
   -7.0000   -1.2070  -29.9340 H   0  0  0  0  0  0  0  0  0  0  0  0
   -5.6580   -2.2420  -30.4400 H   0  0  0  0  0  0  0  0  0  0  0  0
   -5.4470   -1.0850  -29.0830 H   0  0  0  0  0  0  0  0  0  0  0  0
   -6.4720   -2.5330  -27.3090 N   0  0  0  0  0  0  0  0  0  0  0  0
   -7.8500   -5.8090  -28.6580 H   0  0  0  0  0  0  0  0  0  0  0  0
   -7.6900   -5.4910  -26.1840 H   0  0  0  0  0  0  0  0  0  0  0  0
   -6.3320   -2.2470  -24.9640 H   0  0  0  0  0  0  0  0  0  0  0  0
   -8.3610   -4.2290  -24.3600 H   0  0  0  0  0  0  0  0  0  0  0  0
   -6.7760   -4.7880  -23.8420 H   0  0  0  0  0  0  0  0  0  0  0  0
   -7.7720   -3.8280  -21.9870 H   0  0  0  0  0  0  0  0  0  0  0  0
   -5.7540   -1.8120  -23.0060 H   0  0  0  0  0  0  0  0  0  0  0  0
   -5.5450   -3.0610  -21.7640 H   0  0  0  0  0  0  0  0  0  0  0  0
  -10.0570   -2.6510  -22.5920 C   0  0  0  0  0  0  0  0  0  0  0  0
  -10.5620   -3.3520  -21.5570 C   0  0  0  0  0  0  0  0  0  0  0  0
  -12.6420   -3.4180  -21.5910 C   0  0  0  0  0  0  0  0  0  0  0  0
  -12.6740   -4.4470  -24.2100 Cl  0  0  0  0  0  0  0  0  0  0  0  0
  -12.4390   -3.5490  -21.8370 C   0  0  0  0  0  0  0  0  0  0  0  0
  -12.4260   -2.9160  -23.2240 C   0  0  0  0  0  0  0  0  0  0  0  0
  -11.0670   -2.3950  -23.5700 C   0  0  0  0  0  0  0  0  0  0  0  0
  -10.8020   -1.6620  -24.7930 C   0  0  0  0  0  0  0  0  0  0  0  0
  -11.6170   -1.5340  -25.7040 O   0  0  0  0  0  0  0  0  0  0  0  0
  -13.2530   -2.2510  -23.4410 H   0  0  0  0  0  0  0  0  0  0  0  0
  -12.6790   -2.5090  -20.9850 H   0  0  0  0  0  0  0  0  0  0  0  0
  -10.0940   -3.9760  -20.8030 H   0  0  0  0  0  0  0  0  0  0  0  0
   -8.9840    0.0220  -23.2060 H   0  0  0  0  0  0  0  0  0  0  0  0
   -7.6600   -0.7170  -24.0890 H   0  0  0  0  0  0  0  0  0  0  0  0
   -8.2670    0.0370  -26.0430 H   0  0  0  0  0  0  0  0  0  0  0  0
   -9.6610   -0.6160  -26.9030 H   0  0  0  0  0  0  0  0  0  0  0  0
   -9.9590    1.5250  -27.7820 H   0  0  0  0  0  0  0  0  0  0  0  0
   -9.8830    3.9160  -26.5490 H   0  0  0  0  0  0  0  0  0  0  0  0
  -11.5190    3.3910  -26.1170 H   0  0  0  0  0  0  0  0  0  0  0  0
  -11.0760    3.5820  -27.8370 H   0  0  0  0  0  0  0  0  0  0  0  0
  1  2  1  0  0  0  0
  1 67  1  0  0  0  0
  1 68  1  0  0  0  0
  1 69  1  0  0  0  0
  2  3  1  0  0  0  0
  2 66  1  0  0  0  0
  3  4  2  0  0  0  0
  3  5  1  0  0  0  0
  5  6  1  0  0  0  0
  5 64  1  0  0  0  0
  5 65  1  0  0  0  0
  6  7  1  0  0  0  0
  6 57  1  0  0  0  0
  7  8  1  0  0  0  0
  7 62  1  0  0  0  0
  7 63  1  0  0  0  0
  8  9  1  1  0  0  0
  8 29  1  0  0  0  0
  8 50  1  0  0  0  0
  9 10  2  0  0  0  0
  9 11  1  0  0  0  0
 11 12  1  0  0  0  0
 11 28  1  0  0  0  0
 12 13  2  0  0  0  0
 12 21  1  0  0  0  0
 13 14  1  0  0  0  0
 13 27  1  0  0  0  0
 14 15  2  0  0  0  0
 15 16  1  0  0  0  0
 15 26  1  0  0  0  0
 16 17  2  0  0  0  0
 16 21  1  0  0  0  0
 17 18  1  0  0  0  0
 17 25  1  0  0  0  0
 18 19  2  0  0  0  0
 18 24  1  0  0  0  0
 19 20  1  0  0  0  0
 19 23  1  0  0  0  0
 20 21  2  0  0  0  0
 20 22  1  0  0  0  0
 28 29  1  0  0  0  0
 28 48  1  0  0  0  0
 28 49  1  0  0  0  0
 29 30  1  0  0  0  0
 29 47  1  1  0  0  0
 30 31  1  0  0  0  0
 30 45  1  0  0  0  0
 30 46  1  0  0  0  0
 31 32  1  0  0  0  0
 31 44  1  0  0  0  0
 32 33  2  0  0  0  0
 32 41  1  0  0  0  0
 33 34  1  0  0  0  0
 33 43  1  0  0  0  0
 34 35  2  0  0  0  0
 34 42  1  0  0  0  0
 35 36  1  0  0  0  0
 36 37  1  0  0  0  0
 36 41  2  0  0  0  0
 37 38  1  0  0  0  0
 37 39  1  0  0  0  0
 37 40  1  0  0  0  0
 50 51  2  0  0  0  0
 50 56  1  0  0  0  0
 51 52  1  0  0  0  0
 51 61  1  0  0  0  0
 52 53  1  0  0  0  0
 52 54  2  0  0  0  0
 54 55  1  0  0  0  0
 54 60  1  0  0  0  0
 55 56  2  0  0  0  0
 55 59  1  0  0  0  0
 56 57  1  0  0  0  0
 57 58  2  0  0  0  0
M  END
>  <MODEL>
       1

$$$$
