output/tmp_first_model_9_24.pdb
 OpenBabel07242617433D

 65 70  0  0  1  0  0  0  0  0999 V2000
  -12.8120   -2.2450  -22.7360 O   0  0  0  0  0  0  0  0  0  0  0  0
  -12.5470   -3.4010  -23.0280 C   0  0  0  0  0  0  0  0  0  0  0  0
  -11.2860   -3.8410  -23.7630 C   0  0  0  0  0  0  0  0  0  0  0  0
  -10.4980   -4.7240  -22.8000 N   0  3  1  0  0  0  0  0  0  0  0  0
   -9.5870   -5.6670  -23.5130 C   0  0  0  0  0  0  0  0  0  0  0  0
   -8.4880   -4.9100  -24.2210 C   0  0  0  0  0  0  0  0  0  0  0  0
   -7.9140   -5.4470  -25.3680 C   0  0  0  0  0  0  0  0  0  0  0  0
   -6.9150   -4.7790  -26.0600 C   0  0  0  0  0  0  0  0  0  0  0  0
   -6.4890   -3.5460  -25.5810 C   0  0  0  0  0  0  0  0  0  0  0  0
   -5.2300   -2.6910  -26.4260 Cl  0  0  0  0  0  0  0  0  0  0  0  0
   -7.0470   -2.9920  -24.4400 C   0  0  0  0  0  0  0  0  0  0  0  0
   -8.0620   -3.6620  -23.7470 C   0  0  0  0  0  0  0  0  0  0  0  0
   -8.6270   -2.9960  -22.4980 C   0  0  2  0  0  0  0  0  0  0  0  0
   -9.2060   -1.5720  -22.7460 C   0  0  0  0  0  0  0  0  0  0  0  0
   -8.3670   -0.5640  -21.9350 C   0  0  0  0  0  0  0  0  0  0  0  0
   -7.4040   -1.3950  -21.2350 N   0  0  0  0  0  0  0  0  0  0  0  0
   -6.5870   -0.8890  -20.1920 C   0  0  0  0  0  0  0  0  0  0  0  0
   -6.8900   -1.1500  -18.8800 C   0  0  0  0  0  0  0  0  0  0  0  0
   -6.2280   -0.6100  -17.8270 N   0  0  0  0  0  0  0  0  0  0  0  0
   -5.2330    0.2020  -18.0810 C   0  0  0  0  0  0  0  0  0  0  0  0
   -4.7920    0.5330  -19.3950 C   0  0  0  0  0  0  0  0  0  0  0  0
   -3.6880    1.3950  -19.6240 C   0  0  0  0  0  0  0  0  0  0  0  0
   -3.2800    1.6700  -20.8990 C   0  0  0  0  0  0  0  0  0  0  0  0
   -3.9590    1.1040  -22.0010 C   0  0  0  0  0  0  0  0  0  0  0  0
   -5.0360    0.2750  -21.8060 C   0  0  0  0  0  0  0  0  0  0  0  0
   -5.4840   -0.0280  -20.4910 C   0  0  0  0  0  0  0  0  0  0  0  0
   -5.5460   -0.1620  -22.6590 H   0  0  0  0  0  0  0  0  0  0  0  0
   -3.6240    1.3210  -23.0120 H   0  0  0  0  0  0  0  0  0  0  0  0
   -2.4350    2.3300  -21.0750 H   0  0  0  0  0  0  0  0  0  0  0  0
   -3.1870    1.8300  -18.7630 H   0  0  0  0  0  0  0  0  0  0  0  0
   -4.7110    0.6360  -17.2270 H   0  0  0  0  0  0  0  0  0  0  0  0
   -7.7150   -1.8120  -18.6280 H   0  0  0  0  0  0  0  0  0  0  0  0
   -7.4850   -2.7390  -21.5070 C   0  0  0  0  0  0  0  0  0  0  0  0
   -6.7460   -3.5840  -21.0460 O   0  0  0  0  0  0  0  0  0  0  0  0
   -7.8640    0.1710  -22.5760 H   0  0  0  0  0  0  0  0  0  0  0  0
   -8.9700   -0.0010  -21.2110 H   0  0  0  0  0  0  0  0  0  0  0  0
  -10.2570   -1.5320  -22.4320 H   0  0  0  0  0  0  0  0  0  0  0  0
   -9.1860   -1.3210  -23.8100 H   0  0  0  0  0  0  0  0  0  0  0  0
   -9.6450   -3.9190  -21.8050 C   0  0  0  0  0  0  0  0  0  0  0  0
  -10.3150   -3.3490  -21.1590 H   0  0  0  0  0  0  0  0  0  0  0  0
   -9.1070   -4.6440  -21.1960 H   0  0  0  0  0  0  0  0  0  0  0  0
   -6.6870   -2.0300  -24.0830 H   0  0  0  0  0  0  0  0  0  0  0  0
   -6.4730   -5.2040  -26.9560 H   0  0  0  0  0  0  0  0  0  0  0  0
   -8.2690   -6.4100  -25.7330 H   0  0  0  0  0  0  0  0  0  0  0  0
  -10.1630   -6.2610  -24.2290 H   0  0  0  0  0  0  0  0  0  0  0  0
   -9.1750   -6.3680  -22.7830 H   0  0  0  0  0  0  0  0  0  0  0  0
  -11.1880   -5.2590  -22.2400 H   0  0  0  0  0  0  0  0  0  0  0  0
  -10.6910   -2.9940  -24.0770 H   0  0  0  0  0  0  0  0  0  0  0  0
  -11.5340   -4.4380  -24.6470 H   0  0  0  0  0  0  0  0  0  0  0  0
  -13.3120   -4.4630  -22.6460 N   0  0  0  0  0  0  0  0  0  0  0  0
  -14.4810   -4.1680  -21.7490 C   0  0  0  0  0  0  0  0  0  0  0  0
  -15.2150   -5.2450  -21.2230 C   0  0  1  0  0  0  0  0  0  0  0  0
  -15.5500   -5.4450  -19.7600 C   0  0  0  0  0  0  0  0  0  0  0  0
  -16.8720   -5.6360  -18.9740 C   0  0  1  0  0  0  0  0  0  0  0  0
  -17.8760   -5.6030  -17.2730 F   0  0  0  0  0  0  0  0  0  0  0  0
  -16.7930   -5.4150  -19.1830 C   0  0  0  0  0  0  0  0  0  0  0  0
  -17.1120   -4.4900  -18.5550 H   0  0  0  0  0  0  0  0  0  0  0  0
  -17.9060   -5.3520  -19.6620 H   0  0  0  0  0  0  0  0  0  0  0  0
  -16.9670   -7.0000  -18.3270 H   0  0  0  0  0  0  0  0  0  0  0  0
  -14.8870   -4.6660  -19.3260 H   0  0  0  0  0  0  0  0  0  0  0  0
  -15.0500   -6.4410  -19.6540 H   0  0  0  0  0  0  0  0  0  0  0  0
  -15.6780   -5.9650  -21.8880 H   0  0  0  0  0  0  0  0  0  0  0  0
  -15.0700   -3.4210  -22.3660 H   0  0  0  0  0  0  0  0  0  0  0  0
  -14.0780   -3.5450  -20.8920 H   0  0  0  0  0  0  0  0  0  0  0  0
  -13.0560   -5.3880  -22.9630 H   0  0  0  0  0  0  0  0  0  0  0  0
  1  2  2  0  0  0  0
  2  3  1  0  0  0  0
  2 50  1  0  0  0  0
  3  4  1  0  0  0  0
  3 48  1  0  0  0  0
  3 49  1  0  0  0  0
  4  5  1  0  0  0  0
  4 39  1  0  0  0  0
  4 47  1  1  0  0  0
  5  6  1  0  0  0  0
  5 45  1  0  0  0  0
  5 46  1  0  0  0  0
  6  7  2  0  0  0  0
  6 12  1  0  0  0  0
  7  8  1  0  0  0  0
  7 44  1  0  0  0  0
  8  9  2  0  0  0  0
  8 43  1  0  0  0  0
  9 10  1  0  0  0  0
  9 11  1  0  0  0  0
 11 12  2  0  0  0  0
 11 42  1  0  0  0  0
 13 12  1  6  0  0  0
 13 14  1  0  0  0  0
 13 33  1  0  0  0  0
 13 39  1  0  0  0  0
 14 15  1  0  0  0  0
 14 37  1  0  0  0  0
 14 38  1  0  0  0  0
 15 16  1  0  0  0  0
 15 35  1  0  0  0  0
 15 36  1  0  0  0  0
 16 17  1  0  0  0  0
 16 33  1  0  0  0  0
 17 18  2  0  0  0  0
 17 26  1  0  0  0  0
 18 19  1  0  0  0  0
 18 32  1  0  0  0  0
 19 20  2  0  0  0  0
 20 21  1  0  0  0  0
 20 31  1  0  0  0  0
 21 22  2  0  0  0  0
 21 26  1  0  0  0  0
 22 23  1  0  0  0  0
 22 30  1  0  0  0  0
 23 24  2  0  0  0  0
 23 29  1  0  0  0  0
 24 25  1  0  0  0  0
 24 28  1  0  0  0  0
 25 26  2  0  0  0  0
 25 27  1  0  0  0  0
 33 34  2  0  0  0  0
 39 40  1  0  0  0  0
 39 41  1  0  0  0  0
 50 51  1  0  0  0  0
 50 65  1  0  0  0  0
 51 52  1  0  0  0  0
 51 63  1  0  0  0  0
 51 64  1  0  0  0  0
 52 53  1  0  0  0  0
 52 56  1  0  0  0  0
 52 62  1  6  0  0  0
 53 54  1  0  0  0  0
 53 60  1  0  0  0  0
 53 61  1  0  0  0  0
 54 55  1  0  0  0  0
 54 56  1  0  0  0  0
 54 59  1  6  0  0  0
 56 57  1  0  0  0  0
 56 58  1  0  0  0  0
M  CHG  1   4   1
M  END
>  <MODEL>
       1

$$$$
