output/tmp_first_model_3_80.pdb
 OpenBabel07242614263D

 60 65  0  0  1  0  0  0  0  0999 V2000
   -8.9250   -7.8520  -25.8530 C   0  0  0  0  0  0  0  0  0  0  0  0
   -8.1870   -6.8480  -25.1140 N   0  0  0  0  0  0  0  0  0  0  0  0
   -7.4440   -7.1490  -24.0180 C   0  0  0  0  0  0  0  0  0  0  0  0
   -7.5270   -8.2030  -23.4110 O   0  0  0  0  0  0  0  0  0  0  0  0
   -6.4950   -6.0640  -23.5750 C   0  0  0  0  0  0  0  0  0  0  0  0
   -6.8000   -4.7270  -23.9750 N   0  0  0  0  0  0  0  0  0  0  0  0
   -7.9840   -4.1540  -23.3880 C   0  0  0  0  0  0  0  0  0  0  0  0
   -7.8050   -2.6450  -23.1750 C   0  0  2  0  0  0  0  0  0  0  0  0
   -6.8360   -2.4180  -21.9940 C   0  0  0  0  0  0  0  0  0  0  0  0
   -5.7750   -2.9640  -21.7690 O   0  0  0  0  0  0  0  0  0  0  0  0
   -7.3700   -1.4500  -21.1860 N   0  0  0  0  0  0  0  0  0  0  0  0
   -6.5930   -0.8450  -20.1780 C   0  0  0  0  0  0  0  0  0  0  0  0
   -6.9420   -1.0330  -18.8680 C   0  0  0  0  0  0  0  0  0  0  0  0
   -6.2640   -0.5200  -17.8160 N   0  0  0  0  0  0  0  0  0  0  0  0
   -5.2130    0.2150  -18.0950 C   0  0  0  0  0  0  0  0  0  0  0  0
   -4.7610    0.5040  -19.4140 C   0  0  0  0  0  0  0  0  0  0  0  0
   -3.6310    1.3310  -19.6360 C   0  0  0  0  0  0  0  0  0  0  0  0
   -3.2430    1.6430  -20.9080 C   0  0  0  0  0  0  0  0  0  0  0  0
   -3.9620    1.1370  -22.0160 C   0  0  0  0  0  0  0  0  0  0  0  0
   -5.0530    0.3200  -21.8360 C   0  0  0  0  0  0  0  0  0  0  0  0
   -5.4710   -0.0250  -20.5110 C   0  0  0  0  0  0  0  0  0  0  0  0
   -5.5950   -0.0590  -22.7050 H   0  0  0  0  0  0  0  0  0  0  0  0
   -3.6490    1.4120  -23.0190 H   0  0  0  0  0  0  0  0  0  0  0  0
   -2.3920    2.2980  -21.0740 H   0  0  0  0  0  0  0  0  0  0  0  0
   -3.1120    1.7300  -18.7700 H   0  0  0  0  0  0  0  0  0  0  0  0
   -4.6590    0.6280  -17.2530 H   0  0  0  0  0  0  0  0  0  0  0  0
   -7.8090   -1.6500  -18.6360 H   0  0  0  0  0  0  0  0  0  0  0  0
   -8.6610   -0.9560  -21.5960 C   0  0  0  0  0  0  0  0  0  0  0  0
   -9.1140   -1.9470  -22.6870 C   0  0  2  0  0  0  0  0  0  0  0  0
  -10.2020   -2.8780  -22.1280 C   0  0  0  0  0  0  0  0  0  0  0  0
  -11.0530   -2.2830  -21.7740 H   0  0  0  0  0  0  0  0  0  0  0  0
  -10.5820   -3.5610  -22.8930 H   0  0  0  0  0  0  0  0  0  0  0  0
   -9.8460   -3.4800  -21.2830 H   0  0  0  0  0  0  0  0  0  0  0  0
   -9.5690   -1.4150  -23.5310 H   0  0  0  0  0  0  0  0  0  0  0  0
   -9.3460   -0.9430  -20.7490 H   0  0  0  0  0  0  0  0  0  0  0  0
   -8.5990    0.0760  -21.9650 H   0  0  0  0  0  0  0  0  0  0  0  0
   -7.2480   -2.0210  -24.4570 C   0  0  0  0  0  0  0  0  0  0  0  0
   -7.4220   -0.6580  -24.7450 C   0  0  0  0  0  0  0  0  0  0  0  0
   -6.9130   -0.1110  -25.9150 C   0  0  0  0  0  0  0  0  0  0  0  0
   -7.1570    1.5910  -26.2350 Cl  0  0  0  0  0  0  0  0  0  0  0  0
   -6.2260   -0.8880  -26.8470 C   0  0  0  0  0  0  0  0  0  0  0  0
   -6.0380   -2.2270  -26.5680 C   0  0  0  0  0  0  0  0  0  0  0  0
   -6.5180   -2.7830  -25.3780 C   0  0  0  0  0  0  0  0  0  0  0  0
   -6.2310   -4.2200  -25.1190 C   0  0  0  0  0  0  0  0  0  0  0  0
   -5.5420   -4.9080  -25.8570 O   0  0  0  0  0  0  0  0  0  0  0  0
   -5.5050   -2.8590  -27.2720 H   0  0  0  0  0  0  0  0  0  0  0  0
   -5.8560   -0.4380  -27.7650 H   0  0  0  0  0  0  0  0  0  0  0  0
   -7.9720   -0.0060  -24.0730 H   0  0  0  0  0  0  0  0  0  0  0  0
   -8.1320   -4.6490  -22.4290 H   0  0  0  0  0  0  0  0  0  0  0  0
   -8.8630   -4.3470  -24.0240 H   0  0  0  0  0  0  0  0  0  0  0  0
   -5.9050   -6.2290  -22.2040 C   0  0  0  0  0  0  0  0  0  0  0  0
   -5.0370   -6.3900  -23.3960 C   0  0  0  0  0  0  0  0  0  0  0  0
   -4.6830   -7.3820  -23.6620 H   0  0  0  0  0  0  0  0  0  0  0  0
   -4.3910   -5.5610  -23.6610 H   0  0  0  0  0  0  0  0  0  0  0  0
   -5.8210   -5.3060  -21.6370 H   0  0  0  0  0  0  0  0  0  0  0  0
   -6.1590   -7.1560  -21.7020 H   0  0  0  0  0  0  0  0  0  0  0  0
   -7.9140   -6.0300  -25.6330 H   0  0  0  0  0  0  0  0  0  0  0  0
   -8.2570   -8.5950  -26.3010 H   0  0  0  0  0  0  0  0  0  0  0  0
   -9.6450   -8.3470  -25.2000 H   0  0  0  0  0  0  0  0  0  0  0  0
   -9.4810   -7.3530  -26.6510 H   0  0  0  0  0  0  0  0  0  0  0  0
  1  2  1  0  0  0  0
  1 58  1  0  0  0  0
  1 59  1  0  0  0  0
  1 60  1  0  0  0  0
  2  3  1  0  0  0  0
  2 57  1  0  0  0  0
  3  4  2  0  0  0  0
  3  5  1  0  0  0  0
  5  6  1  0  0  0  0
  5 51  1  0  0  0  0
  5 52  1  0  0  0  0
  6  7  1  0  0  0  0
  6 44  1  0  0  0  0
  7  8  1  0  0  0  0
  7 49  1  0  0  0  0
  7 50  1  0  0  0  0
  8  9  1  1  0  0  0
  8 29  1  0  0  0  0
  8 37  1  0  0  0  0
  9 10  2  0  0  0  0
  9 11  1  0  0  0  0
 11 12  1  0  0  0  0
 11 28  1  0  0  0  0
 12 13  2  0  0  0  0
 12 21  1  0  0  0  0
 13 14  1  0  0  0  0
 13 27  1  0  0  0  0
 14 15  2  0  0  0  0
 15 16  1  0  0  0  0
 15 26  1  0  0  0  0
 16 17  2  0  0  0  0
 16 21  1  0  0  0  0
 17 18  1  0  0  0  0
 17 25  1  0  0  0  0
 18 19  2  0  0  0  0
 18 24  1  0  0  0  0
 19 20  1  0  0  0  0
 19 23  1  0  0  0  0
 20 21  2  0  0  0  0
 20 22  1  0  0  0  0
 28 29  1  0  0  0  0
 28 35  1  0  0  0  0
 28 36  1  0  0  0  0
 29 30  1  0  0  0  0
 29 34  1  6  0  0  0
 30 31  1  0  0  0  0
 30 32  1  0  0  0  0
 30 33  1  0  0  0  0
 37 38  2  0  0  0  0
 37 43  1  0  0  0  0
 38 39  1  0  0  0  0
 38 48  1  0  0  0  0
 39 40  1  0  0  0  0
 39 41  2  0  0  0  0
 41 42  1  0  0  0  0
 41 47  1  0  0  0  0
 42 43  2  0  0  0  0
 42 46  1  0  0  0  0
 43 44  1  0  0  0  0
 44 45  2  0  0  0  0
 51 52  1  0  0  0  0
 51 55  1  0  0  0  0
 51 56  1  0  0  0  0
 52 53  1  0  0  0  0
 52 54  1  0  0  0  0
M  END
>  <MODEL>
       1

$$$$
