output/tmp_first_model_8_71.pdb
 OpenBabel07242617113D

 50 54  0  0  1  0  0  0  0  0999 V2000
  -10.3870   -1.0160  -23.3600 C   0  0  0  0  0  0  0  0  0  0  0  0
   -8.9700   -1.4180  -22.9680 C   0  0  1  0  0  0  0  0  0  0  0  0
   -8.3690   -0.4970  -21.8950 C   0  0  0  0  0  0  0  0  0  0  0  0
   -7.3930   -1.3510  -21.2390 N   0  0  0  0  0  0  0  0  0  0  0  0
   -6.5850   -0.8670  -20.1830 C   0  0  0  0  0  0  0  0  0  0  0  0
   -6.8880   -1.1490  -18.8770 C   0  0  0  0  0  0  0  0  0  0  0  0
   -6.2240   -0.6240  -17.8170 N   0  0  0  0  0  0  0  0  0  0  0  0
   -5.2200    0.1840  -18.0650 C   0  0  0  0  0  0  0  0  0  0  0  0
   -4.7830    0.5370  -19.3740 C   0  0  0  0  0  0  0  0  0  0  0  0
   -3.6700    1.3880  -19.6060 C   0  0  0  0  0  0  0  0  0  0  0  0
   -3.3090    1.7140  -20.8860 C   0  0  0  0  0  0  0  0  0  0  0  0
   -4.0360    1.2050  -21.9850 C   0  0  0  0  0  0  0  0  0  0  0  0
   -5.0940    0.3570  -21.7890 C   0  0  0  0  0  0  0  0  0  0  0  0
   -5.4940    0.0090  -20.4720 C   0  0  0  0  0  0  0  0  0  0  0  0
   -5.6250   -0.0760  -22.6310 H   0  0  0  0  0  0  0  0  0  0  0  0
   -3.7300    1.4580  -22.9960 H   0  0  0  0  0  0  0  0  0  0  0  0
   -2.4560    2.3610  -21.0680 H   0  0  0  0  0  0  0  0  0  0  0  0
   -3.1210    1.7740  -18.7530 H   0  0  0  0  0  0  0  0  0  0  0  0
   -4.6920    0.5970  -17.2050 H   0  0  0  0  0  0  0  0  0  0  0  0
   -7.7130   -1.8160  -18.6320 H   0  0  0  0  0  0  0  0  0  0  0  0
   -7.6400   -2.6980  -21.4200 C   0  0  0  0  0  0  0  0  0  0  0  0
   -6.9940   -3.5820  -20.8940 O   0  0  0  0  0  0  0  0  0  0  0  0
   -8.8250   -2.8700  -22.3860 C   0  0  1  0  0  0  0  0  0  0  0  0
  -10.0690   -3.2870  -21.5630 C   0  0  0  0  0  0  0  0  0  0  0  0
  -11.1920   -3.6970  -22.3960 N   0  0  0  0  0  0  0  0  0  0  0  0
  -12.5690   -3.5300  -21.9720 C   0  0  0  0  0  0  0  0  0  0  0  0
  -13.3050   -2.5000  -22.7310 C   0  0  0  0  0  0  0  0  0  0  0  0
  -13.9360   -1.7090  -23.2960 N   0  0  0  0  0  0  0  0  0  0  0  0
  -12.6230   -3.2740  -20.9160 H   0  0  0  0  0  0  0  0  0  0  0  0
  -13.0960   -4.4800  -22.1170 H   0  0  0  0  0  0  0  0  0  0  0  0
  -10.9900   -4.5690  -23.4330 C   0  0  0  0  0  0  0  0  0  0  0  0
  -11.9160   -5.1430  -23.9780 O   0  0  0  0  0  0  0  0  0  0  0  0
   -9.5790   -4.7510  -23.8820 C   0  0  0  0  0  0  0  0  0  0  0  0
   -9.3350   -5.7450  -24.8270 C   0  0  0  0  0  0  0  0  0  0  0  0
   -8.0710   -5.9360  -25.3500 C   0  0  0  0  0  0  0  0  0  0  0  0
   -7.0530   -5.0920  -24.9180 C   0  0  0  0  0  0  0  0  0  0  0  0
   -5.8180   -5.2550  -25.4210 F   0  0  0  0  0  0  0  0  0  0  0  0
   -7.2580   -4.1090  -23.9660 C   0  0  0  0  0  0  0  0  0  0  0  0
   -8.5410   -3.9360  -23.4230 C   0  0  0  0  0  0  0  0  0  0  0  0
   -6.4040   -3.5380  -23.6100 H   0  0  0  0  0  0  0  0  0  0  0  0
   -7.8560   -6.7370  -26.0530 H   0  0  0  0  0  0  0  0  0  0  0  0
  -10.1710   -6.3590  -25.1420 H   0  0  0  0  0  0  0  0  0  0  0  0
   -9.7920   -4.1030  -20.8910 H   0  0  0  0  0  0  0  0  0  0  0  0
  -10.3510   -2.4290  -20.9510 H   0  0  0  0  0  0  0  0  0  0  0  0
   -9.1380   -0.1470  -21.1850 H   0  0  0  0  0  0  0  0  0  0  0  0
   -7.9040    0.4020  -22.3130 H   0  0  0  0  0  0  0  0  0  0  0  0
   -8.3190   -1.3880  -23.8520 H   0  0  0  0  0  0  0  0  0  0  0  0
  -10.4300   -0.0300  -23.8300 H   0  0  0  0  0  0  0  0  0  0  0  0
  -11.0330   -0.9890  -22.4760 H   0  0  0  0  0  0  0  0  0  0  0  0
  -10.8070   -1.7530  -24.0480 H   0  0  0  0  0  0  0  0  0  0  0  0
  1  2  1  0  0  0  0
  1 48  1  0  0  0  0
  1 49  1  0  0  0  0
  1 50  1  0  0  0  0
  2  3  1  0  0  0  0
  2 23  1  0  0  0  0
  2 47  1  6  0  0  0
  3  4  1  0  0  0  0
  3 45  1  0  0  0  0
  3 46  1  0  0  0  0
  4  5  1  0  0  0  0
  4 21  1  0  0  0  0
  5  6  2  0  0  0  0
  5 14  1  0  0  0  0
  6  7  1  0  0  0  0
  6 20  1  0  0  0  0
  7  8  2  0  0  0  0
  8  9  1  0  0  0  0
  8 19  1  0  0  0  0
  9 10  2  0  0  0  0
  9 14  1  0  0  0  0
 10 11  1  0  0  0  0
 10 18  1  0  0  0  0
 11 12  2  0  0  0  0
 11 17  1  0  0  0  0
 12 13  1  0  0  0  0
 12 16  1  0  0  0  0
 13 14  2  0  0  0  0
 13 15  1  0  0  0  0
 21 22  2  0  0  0  0
 23 21  1  1  0  0  0
 23 24  1  0  0  0  0
 23 39  1  0  0  0  0
 24 25  1  0  0  0  0
 24 43  1  0  0  0  0
 24 44  1  0  0  0  0
 25 26  1  0  0  0  0
 25 31  1  0  0  0  0
 26 27  1  0  0  0  0
 26 29  1  0  0  0  0
 26 30  1  0  0  0  0
 27 28  3  0  0  0  0
 31 32  2  0  0  0  0
 31 33  1  0  0  0  0
 33 34  2  0  0  0  0
 33 39  1  0  0  0  0
 34 35  1  0  0  0  0
 34 42  1  0  0  0  0
 35 36  2  0  0  0  0
 35 41  1  0  0  0  0
 36 37  1  0  0  0  0
 36 38  1  0  0  0  0
 38 39  2  0  0  0  0
 38 40  1  0  0  0  0
M  END
>  <MODEL>
       1

$$$$
