output/tmp_first_model_4_1.pdb
 OpenBabel07242615033D

 68 73  0  0  1  0  0  0  0  0999 V2000
   -7.2980    3.4620  -21.9380 C   0  0  0  0  0  0  0  0  0  0  0  0
   -8.2870    2.9090  -22.8460 N   0  0  0  0  0  0  0  0  0  0  0  0
   -7.8800    2.2280  -23.9470 C   0  0  0  0  0  0  0  0  0  0  0  0
   -6.6970    2.0560  -24.2150 O   0  0  0  0  0  0  0  0  0  0  0  0
   -9.0030    1.6770  -24.8320 C   0  0  0  0  0  0  0  0  0  0  0  0
   -9.6080    0.5010  -24.2250 N   0  0  0  0  0  0  0  0  0  0  0  0
   -8.7730   -0.6760  -24.0480 C   0  0  0  0  0  0  0  0  0  0  0  0
   -9.1070   -1.4750  -22.7530 C   0  0  2  0  0  0  0  0  0  0  0  0
   -8.5710   -0.7020  -21.5110 C   0  0  0  0  0  0  0  0  0  0  0  0
   -9.0490    0.2900  -21.0100 O   0  0  0  0  0  0  0  0  0  0  0  0
   -7.4190   -1.3290  -21.0840 N   0  0  0  0  0  0  0  0  0  0  0  0
   -6.5300   -0.8770  -20.0880 C   0  0  0  0  0  0  0  0  0  0  0  0
   -6.6870   -1.2950  -18.7910 C   0  0  0  0  0  0  0  0  0  0  0  0
   -5.7350   -1.1600  -17.8400 N   0  0  0  0  0  0  0  0  0  0  0  0
   -4.6250   -0.5490  -18.1690 C   0  0  0  0  0  0  0  0  0  0  0  0
   -4.3620   -0.0090  -19.4600 C   0  0  0  0  0  0  0  0  0  0  0  0
   -3.1530    0.6660  -19.7760 C   0  0  0  0  0  0  0  0  0  0  0  0
   -2.9410    1.1790  -21.0250 C   0  0  0  0  0  0  0  0  0  0  0  0
   -3.9200    1.0210  -22.0350 C   0  0  0  0  0  0  0  0  0  0  0  0
   -5.0850    0.3420  -21.7650 C   0  0  0  0  0  0  0  0  0  0  0  0
   -5.3450   -0.1720  -20.4600 C   0  0  0  0  0  0  0  0  0  0  0  0
   -5.8120    0.1950  -22.5590 H   0  0  0  0  0  0  0  0  0  0  0  0
   -3.7690    1.4670  -23.0140 H   0  0  0  0  0  0  0  0  0  0  0  0
   -2.0180    1.7080  -21.2490 H   0  0  0  0  0  0  0  0  0  0  0  0
   -2.4260    0.8120  -18.9840 H   0  0  0  0  0  0  0  0  0  0  0  0
   -3.8630   -0.4670  -17.3960 H   0  0  0  0  0  0  0  0  0  0  0  0
   -7.5990   -1.8070  -18.4860 H   0  0  0  0  0  0  0  0  0  0  0  0
   -7.0050   -2.4510  -21.8810 C   0  0  0  0  0  0  0  0  0  0  0  0
   -8.2730   -2.7960  -22.6510 C   0  0  2  0  0  0  0  0  0  0  0  0
   -7.9270   -3.5020  -23.9370 C   0  0  0  0  0  0  0  0  0  0  0  0
   -9.1190   -4.0280  -24.5430 N   0  0  0  0  0  0  0  0  0  0  0  0
   -8.9720   -4.5220  -25.8270 C   0  0  0  0  0  0  0  0  0  0  0  0
   -7.7650   -4.7860  -26.5260 C   0  0  0  0  0  0  0  0  0  0  0  0
   -8.0030   -5.3280  -27.7150 N   0  0  0  0  0  0  0  0  0  0  0  0
   -9.3270   -5.4250  -27.7790 N   0  0  0  0  0  0  0  0  0  0  0  0
   -9.9830   -5.9580  -28.9340 C   0  0  0  0  0  0  0  0  0  0  0  0
  -10.7330   -5.2290  -29.2470 H   0  0  0  0  0  0  0  0  0  0  0  0
  -10.4740   -6.9120  -28.7050 H   0  0  0  0  0  0  0  0  0  0  0  0
   -9.2250   -6.0950  -29.7070 H   0  0  0  0  0  0  0  0  0  0  0  0
   -9.9670   -4.9500  -26.6840 C   0  0  0  0  0  0  0  0  0  0  0  0
  -11.0530   -4.9820  -26.6320 H   0  0  0  0  0  0  0  0  0  0  0  0
   -6.7440   -4.6220  -26.2030 H   0  0  0  0  0  0  0  0  0  0  0  0
   -9.9620   -3.4700  -24.4080 H   0  0  0  0  0  0  0  0  0  0  0  0
   -7.3720   -2.8140  -24.6030 H   0  0  0  0  0  0  0  0  0  0  0  0
   -7.2390   -4.3360  -23.7480 H   0  0  0  0  0  0  0  0  0  0  0  0
   -8.8510   -3.4900  -22.0350 H   0  0  0  0  0  0  0  0  0  0  0  0
   -6.1560   -2.1940  -22.5380 H   0  0  0  0  0  0  0  0  0  0  0  0
   -6.6660   -3.2740  -21.2390 H   0  0  0  0  0  0  0  0  0  0  0  0
  -10.6220   -1.6530  -22.6900 C   0  0  0  0  0  0  0  0  0  0  0  0
  -11.2120   -2.6500  -21.8960 C   0  0  0  0  0  0  0  0  0  0  0  0
  -12.5900   -2.7210  -21.7690 C   0  0  0  0  0  0  0  0  0  0  0  0
  -13.2980   -3.8930  -20.7000 Cl  0  0  0  0  0  0  0  0  0  0  0  0
  -13.4380   -1.8470  -22.4420 C   0  0  0  0  0  0  0  0  0  0  0  0
  -12.8700   -0.8620  -23.2220 C   0  0  0  0  0  0  0  0  0  0  0  0
  -11.4840   -0.7440  -23.3290 C   0  0  0  0  0  0  0  0  0  0  0  0
  -10.9680    0.4340  -24.1010 C   0  0  0  0  0  0  0  0  0  0  0  0
  -11.7190    1.2890  -24.5570 O   0  0  0  0  0  0  0  0  0  0  0  0
  -13.4820   -0.1410  -23.7520 H   0  0  0  0  0  0  0  0  0  0  0  0
  -14.5140   -1.9310  -22.3320 H   0  0  0  0  0  0  0  0  0  0  0  0
  -10.6180   -3.3680  -21.3430 H   0  0  0  0  0  0  0  0  0  0  0  0
   -7.7370   -0.3280  -24.0110 H   0  0  0  0  0  0  0  0  0  0  0  0
   -8.8810   -1.3220  -24.9320 H   0  0  0  0  0  0  0  0  0  0  0  0
   -9.8100    2.4030  -24.9650 H   0  0  0  0  0  0  0  0  0  0  0  0
   -8.5750    1.4540  -25.8190 H   0  0  0  0  0  0  0  0  0  0  0  0
   -9.2310    2.7840  -22.5080 H   0  0  0  0  0  0  0  0  0  0  0  0
   -6.6200    4.1130  -22.4950 H   0  0  0  0  0  0  0  0  0  0  0  0
   -7.8090    4.0480  -21.1700 H   0  0  0  0  0  0  0  0  0  0  0  0
   -6.6910    2.6770  -21.4640 H   0  0  0  0  0  0  0  0  0  0  0  0
  1  2  1  0  0  0  0
  1 66  1  0  0  0  0
  1 67  1  0  0  0  0
  1 68  1  0  0  0  0
  2  3  1  0  0  0  0
  2 65  1  0  0  0  0
  3  4  2  0  0  0  0
  3  5  1  0  0  0  0
  5  6  1  0  0  0  0
  5 63  1  0  0  0  0
  5 64  1  0  0  0  0
  6  7  1  0  0  0  0
  6 56  1  0  0  0  0
  7  8  1  0  0  0  0
  7 61  1  0  0  0  0
  7 62  1  0  0  0  0
  8  9  1  1  0  0  0
  8 29  1  0  0  0  0
  8 49  1  0  0  0  0
  9 10  2  0  0  0  0
  9 11  1  0  0  0  0
 11 12  1  0  0  0  0
 11 28  1  0  0  0  0
 12 13  2  0  0  0  0
 12 21  1  0  0  0  0
 13 14  1  0  0  0  0
 13 27  1  0  0  0  0
 14 15  2  0  0  0  0
 15 16  1  0  0  0  0
 15 26  1  0  0  0  0
 16 17  2  0  0  0  0
 16 21  1  0  0  0  0
 17 18  1  0  0  0  0
 17 25  1  0  0  0  0
 18 19  2  0  0  0  0
 18 24  1  0  0  0  0
 19 20  1  0  0  0  0
 19 23  1  0  0  0  0
 20 21  2  0  0  0  0
 20 22  1  0  0  0  0
 28 29  1  0  0  0  0
 28 47  1  0  0  0  0
 28 48  1  0  0  0  0
 29 30  1  0  0  0  0
 29 46  1  1  0  0  0
 30 31  1  0  0  0  0
 30 44  1  0  0  0  0
 30 45  1  0  0  0  0
 31 32  1  0  0  0  0
 31 43  1  0  0  0  0
 32 33  1  0  0  0  0
 32 40  2  0  0  0  0
 33 34  2  0  0  0  0
 33 42  1  0  0  0  0
 34 35  1  0  0  0  0
 35 36  1  0  0  0  0
 35 40  1  0  0  0  0
 36 37  1  0  0  0  0
 36 38  1  0  0  0  0
 36 39  1  0  0  0  0
 40 41  1  0  0  0  0
 49 50  2  0  0  0  0
 49 55  1  0  0  0  0
 50 51  1  0  0  0  0
 50 60  1  0  0  0  0
 51 52  1  0  0  0  0
 51 53  2  0  0  0  0
 53 54  1  0  0  0  0
 53 59  1  0  0  0  0
 54 55  2  0  0  0  0
 54 58  1  0  0  0  0
 55 56  1  0  0  0  0
 56 57  2  0  0  0  0
M  END
>  <MODEL>
       1

$$$$
