output/tmp_first_model_20_41.pdb
 OpenBabel07242623363D

 67 71  0  0  1  0  0  0  0  0999 V2000
   -7.7700    2.9180  -22.0680 C   0  0  0  0  0  0  0  0  0  0  0  0
   -8.8780    2.3500  -22.7960 N   0  0  0  0  0  0  0  0  0  0  0  0
   -8.5870    1.6100  -23.8990 C   0  0  0  0  0  0  0  0  0  0  0  0
   -7.4380    1.3580  -24.2460 O   0  0  0  0  0  0  0  0  0  0  0  0
   -9.7810    1.0650  -24.6740 C   0  0  0  0  0  0  0  0  0  0  0  0
  -10.2210   -0.1710  -24.0500 N   0  0  0  0  0  0  0  0  0  0  0  0
   -9.2720   -1.2710  -23.9300 C   0  0  0  0  0  0  0  0  0  0  0  0
   -9.3340   -1.9790  -22.5400 C   0  0  2  0  0  0  0  0  0  0  0  0
   -8.7370   -1.0290  -21.4650 C   0  0  0  0  0  0  0  0  0  0  0  0
   -9.2890   -0.0760  -20.9500 O   0  0  0  0  0  0  0  0  0  0  0  0
   -7.4360   -1.4180  -21.2020 N   0  0  0  0  0  0  0  0  0  0  0  0
   -6.6570   -0.8180  -20.1800 C   0  0  0  0  0  0  0  0  0  0  0  0
   -6.9640   -1.0360  -18.8580 C   0  0  0  0  0  0  0  0  0  0  0  0
   -6.2400   -0.5530  -17.8200 N   0  0  0  0  0  0  0  0  0  0  0  0
   -5.1860    0.1720  -18.0950 C   0  0  0  0  0  0  0  0  0  0  0  0
   -4.7560    0.4840  -19.4150 C   0  0  0  0  0  0  0  0  0  0  0  0
   -3.6230    1.3060  -19.6600 C   0  0  0  0  0  0  0  0  0  0  0  0
   -3.2590    1.6190  -20.9410 C   0  0  0  0  0  0  0  0  0  0  0  0
   -4.0130    1.1330  -22.0320 C   0  0  0  0  0  0  0  0  0  0  0  0
   -5.1210    0.3430  -21.8210 C   0  0  0  0  0  0  0  0  0  0  0  0
   -5.5140   -0.0160  -20.5010 C   0  0  0  0  0  0  0  0  0  0  0  0
   -5.7450    0.0610  -22.6640 H   0  0  0  0  0  0  0  0  0  0  0  0
   -3.7340    1.4090  -23.0450 H   0  0  0  0  0  0  0  0  0  0  0  0
   -2.4070    2.2660  -21.1270 H   0  0  0  0  0  0  0  0  0  0  0  0
   -3.0740    1.6920  -18.8050 H   0  0  0  0  0  0  0  0  0  0  0  0
   -4.6130    0.5650  -17.2520 H   0  0  0  0  0  0  0  0  0  0  0  0
   -7.8290   -1.6400  -18.5910 H   0  0  0  0  0  0  0  0  0  0  0  0
   -6.9940   -2.5550  -21.9840 C   0  0  0  0  0  0  0  0  0  0  0  0
   -8.3290   -3.1620  -22.4540 C   0  0  2  0  0  0  0  0  0  0  0  0
   -8.2430   -3.9750  -23.7400 C   0  0  0  0  0  0  0  0  0  0  0  0
   -7.2740   -5.4600  -23.5420 S   0  0  0  0  0  0  0  0  0  0  0  0
   -5.8780   -5.0700  -23.4100 O   0  0  0  0  0  0  0  0  0  0  0  0
   -7.9250   -6.2880  -22.5370 O   0  0  0  0  0  0  0  0  0  0  0  0
   -7.4380   -6.2260  -25.0020 N   0  0  0  0  0  0  0  0  0  0  0  0
   -8.6720   -6.9520  -25.2490 C   0  0  0  0  0  0  0  0  0  0  0  0
   -9.5190   -6.3100  -25.5340 H   0  0  0  0  0  0  0  0  0  0  0  0
   -8.4900   -7.6780  -26.0450 H   0  0  0  0  0  0  0  0  0  0  0  0
   -8.9370   -7.4940  -24.3430 H   0  0  0  0  0  0  0  0  0  0  0  0
   -6.7420   -5.6540  -26.1420 C   0  0  0  0  0  0  0  0  0  0  0  0
   -7.2590   -4.7960  -26.5950 H   0  0  0  0  0  0  0  0  0  0  0  0
   -6.6200   -6.4340  -26.8970 H   0  0  0  0  0  0  0  0  0  0  0  0
   -5.7520   -5.3320  -25.8220 H   0  0  0  0  0  0  0  0  0  0  0  0
   -9.2490   -4.2780  -24.0530 H   0  0  0  0  0  0  0  0  0  0  0  0
   -7.7610   -3.3870  -24.5310 H   0  0  0  0  0  0  0  0  0  0  0  0
   -8.6540   -3.8150  -21.6400 H   0  0  0  0  0  0  0  0  0  0  0  0
   -6.3650   -2.2390  -22.8270 H   0  0  0  0  0  0  0  0  0  0  0  0
   -6.4050   -3.2590  -21.3880 H   0  0  0  0  0  0  0  0  0  0  0  0
  -10.8040   -2.3230  -22.2890 C   0  0  0  0  0  0  0  0  0  0  0  0
  -11.2380   -3.4600  -21.5910 C   0  0  0  0  0  0  0  0  0  0  0  0
  -12.5650   -3.5590  -21.2040 C   0  0  0  0  0  0  0  0  0  0  0  0
  -12.9440   -4.5140  -20.3370 F   0  0  0  0  0  0  0  0  0  0  0  0
  -13.5410   -2.6610  -21.6110 C   0  0  0  0  0  0  0  0  0  0  0  0
  -13.1450   -1.5980  -22.3890 C   0  0  0  0  0  0  0  0  0  0  0  0
  -11.7990   -1.4190  -22.7010 C   0  0  0  0  0  0  0  0  0  0  0  0
  -11.4630   -0.2000  -23.4930 C   0  0  0  0  0  0  0  0  0  0  0  0
  -12.2710    0.7150  -23.6310 O   0  0  0  0  0  0  0  0  0  0  0  0
  -13.8550   -0.8640  -22.7590 H   0  0  0  0  0  0  0  0  0  0  0  0
  -14.5700   -2.8040  -21.3060 H   0  0  0  0  0  0  0  0  0  0  0  0
  -10.5520   -4.2390  -21.2880 H   0  0  0  0  0  0  0  0  0  0  0  0
   -9.4810   -1.9980  -24.7240 H   0  0  0  0  0  0  0  0  0  0  0  0
   -8.2750   -0.8540  -24.1030 H   0  0  0  0  0  0  0  0  0  0  0  0
   -9.5130    0.9140  -25.7330 H   0  0  0  0  0  0  0  0  0  0  0  0
  -10.6300    1.7470  -24.6190 H   0  0  0  0  0  0  0  0  0  0  0  0
   -9.7010    2.1170  -22.2580 H   0  0  0  0  0  0  0  0  0  0  0  0
   -8.0970    3.3020  -21.1000 H   0  0  0  0  0  0  0  0  0  0  0  0
   -6.9950    2.1700  -21.8820 H   0  0  0  0  0  0  0  0  0  0  0  0
   -7.2990    3.7190  -22.6510 H   0  0  0  0  0  0  0  0  0  0  0  0
  1  2  1  0  0  0  0
  1 65  1  0  0  0  0
  1 66  1  0  0  0  0
  1 67  1  0  0  0  0
  2  3  1  0  0  0  0
  2 64  1  0  0  0  0
  3  4  2  0  0  0  0
  3  5  1  0  0  0  0
  5  6  1  0  0  0  0
  5 62  1  0  0  0  0
  5 63  1  0  0  0  0
  6  7  1  0  0  0  0
  6 55  1  0  0  0  0
  7  8  1  0  0  0  0
  7 60  1  0  0  0  0
  7 61  1  0  0  0  0
  8  9  1  1  0  0  0
  8 29  1  0  0  0  0
  8 48  1  0  0  0  0
  9 10  2  0  0  0  0
  9 11  1  0  0  0  0
 11 12  1  0  0  0  0
 11 28  1  0  0  0  0
 12 13  2  0  0  0  0
 12 21  1  0  0  0  0
 13 14  1  0  0  0  0
 13 27  1  0  0  0  0
 14 15  2  0  0  0  0
 15 16  1  0  0  0  0
 15 26  1  0  0  0  0
 16 17  2  0  0  0  0
 16 21  1  0  0  0  0
 17 18  1  0  0  0  0
 17 25  1  0  0  0  0
 18 19  2  0  0  0  0
 18 24  1  0  0  0  0
 19 20  1  0  0  0  0
 19 23  1  0  0  0  0
 20 21  2  0  0  0  0
 20 22  1  0  0  0  0
 28 29  1  0  0  0  0
 28 46  1  0  0  0  0
 28 47  1  0  0  0  0
 29 30  1  0  0  0  0
 29 45  1  1  0  0  0
 30 31  1  0  0  0  0
 30 43  1  0  0  0  0
 30 44  1  0  0  0  0
 31 32  2  0  0  0  0
 31 33  2  0  0  0  0
 31 34  1  0  0  0  0
 34 35  1  0  0  0  0
 34 39  1  0  0  0  0
 35 36  1  0  0  0  0
 35 37  1  0  0  0  0
 35 38  1  0  0  0  0
 39 40  1  0  0  0  0
 39 41  1  0  0  0  0
 39 42  1  0  0  0  0
 48 49  2  0  0  0  0
 48 54  1  0  0  0  0
 49 50  1  0  0  0  0
 49 59  1  0  0  0  0
 50 51  1  0  0  0  0
 50 52  2  0  0  0  0
 52 53  1  0  0  0  0
 52 58  1  0  0  0  0
 53 54  2  0  0  0  0
 53 57  1  0  0  0  0
 54 55  1  0  0  0  0
 55 56  2  0  0  0  0
M  END
>  <MODEL>
       1

$$$$
