output/tmp_first_model_17_70.pdb
 OpenBabel07242622053D

 52 54  0  0  0  0  0  0  0  0999 V2000
   -6.3720   -6.8980  -26.9820 C   0  0  0  0  0  0  0  0  0  0  0  0
   -5.9410   -5.7180  -26.1090 C   0  0  0  0  0  0  0  0  0  0  0  0
   -4.7390   -5.0150  -26.7460 C   0  0  0  0  0  0  0  0  0  0  0  0
   -4.3650   -4.1970  -26.1220 H   0  0  0  0  0  0  0  0  0  0  0  0
   -3.9080   -5.7120  -26.9010 H   0  0  0  0  0  0  0  0  0  0  0  0
   -4.9940   -4.5980  -27.7270 H   0  0  0  0  0  0  0  0  0  0  0  0
   -7.0570   -4.6940  -25.8270 C   0  0  0  0  0  0  0  0  0  0  0  0
   -8.3060   -5.0850  -24.9860 C   0  0  0  0  0  0  0  0  0  0  0  0
   -9.2710   -5.9590  -25.8030 C   0  0  0  0  0  0  0  0  0  0  0  0
   -9.5080   -5.4980  -26.7690 H   0  0  0  0  0  0  0  0  0  0  0  0
   -8.8820   -6.9610  -26.0020 H   0  0  0  0  0  0  0  0  0  0  0  0
  -10.2200   -6.0940  -25.2700 H   0  0  0  0  0  0  0  0  0  0  0  0
   -9.0540   -3.7820  -24.5750 C   0  0  0  0  0  0  0  0  0  0  0  0
   -8.8700   -3.3510  -23.1080 C   0  0  0  0  0  0  0  0  0  0  0  0
   -7.5310   -3.6170  -22.6010 N   0  0  0  0  0  0  0  0  0  0  0  0
   -6.7720   -2.7630  -21.8390 C   0  0  0  0  0  0  0  0  0  0  0  0
   -5.6000   -3.0150  -21.6010 O   0  0  0  0  0  0  0  0  0  0  0  0
   -7.4200   -1.4780  -21.2630 C   0  0  0  0  0  0  0  0  0  0  0  0
   -6.5810   -0.8310  -20.1840 C   0  0  0  0  0  0  0  0  0  0  0  0
   -6.8730   -1.0440  -18.8610 C   0  0  0  0  0  0  0  0  0  0  0  0
   -6.1850   -0.5400  -17.8050 N   0  0  0  0  0  0  0  0  0  0  0  0
   -5.1540    0.2230  -18.0670 C   0  0  0  0  0  0  0  0  0  0  0  0
   -4.7200    0.5320  -19.3830 C   0  0  0  0  0  0  0  0  0  0  0  0
   -3.5930    1.3610  -19.6210 C   0  0  0  0  0  0  0  0  0  0  0  0
   -3.1960    1.6400  -20.9000 C   0  0  0  0  0  0  0  0  0  0  0  0
   -3.9080    1.0960  -21.9910 C   0  0  0  0  0  0  0  0  0  0  0  0
   -5.0010    0.2890  -21.7870 C   0  0  0  0  0  0  0  0  0  0  0  0
   -5.4450   -0.0120  -20.4730 C   0  0  0  0  0  0  0  0  0  0  0  0
   -5.5230   -0.1360  -22.6370 H   0  0  0  0  0  0  0  0  0  0  0  0
   -3.5720    1.3100  -23.0010 H   0  0  0  0  0  0  0  0  0  0  0  0
   -2.3280    2.2670  -21.0870 H   0  0  0  0  0  0  0  0  0  0  0  0
   -3.0520    1.7730  -18.7710 H   0  0  0  0  0  0  0  0  0  0  0  0
   -4.6010    0.6280  -17.2160 H   0  0  0  0  0  0  0  0  0  0  0  0
   -7.7200   -1.6690  -18.5840 H   0  0  0  0  0  0  0  0  0  0  0  0
   -8.4070   -1.7230  -20.8420 H   0  0  0  0  0  0  0  0  0  0  0  0
   -7.6030   -0.7590  -22.0730 H   0  0  0  0  0  0  0  0  0  0  0  0
   -7.0270   -4.9840  -22.7740 C   0  0  0  0  0  0  0  0  0  0  0  0
   -7.9120   -5.8180  -23.6990 C   0  0  0  0  0  0  0  0  0  0  0  0
   -7.4030   -6.7560  -23.9440 H   0  0  0  0  0  0  0  0  0  0  0  0
   -8.8170   -6.1340  -23.1690 H   0  0  0  0  0  0  0  0  0  0  0  0
   -6.9510   -5.4820  -21.7990 H   0  0  0  0  0  0  0  0  0  0  0  0
   -6.0060   -4.9420  -23.1650 H   0  0  0  0  0  0  0  0  0  0  0  0
   -9.0760   -2.2840  -23.0300 H   0  0  0  0  0  0  0  0  0  0  0  0
   -9.6210   -3.8570  -22.4860 H   0  0  0  0  0  0  0  0  0  0  0  0
  -10.1320   -3.8940  -24.7410 H   0  0  0  0  0  0  0  0  0  0  0  0
   -8.7550   -2.9620  -25.2350 H   0  0  0  0  0  0  0  0  0  0  0  0
   -7.4110   -4.3120  -26.7950 H   0  0  0  0  0  0  0  0  0  0  0  0
   -6.5920   -3.8250  -25.3440 H   0  0  0  0  0  0  0  0  0  0  0  0
   -5.5900   -6.1220  -25.1540 H   0  0  0  0  0  0  0  0  0  0  0  0
   -5.5100   -7.3780  -27.4570 H   0  0  0  0  0  0  0  0  0  0  0  0
   -7.0400   -6.5750  -27.7880 H   0  0  0  0  0  0  0  0  0  0  0  0
   -6.8940   -7.6730  -26.4140 H   0  0  0  0  0  0  0  0  0  0  0  0
  1  2  1  0  0  0  0
  1 50  1  0  0  0  0
  1 51  1  0  0  0  0
  1 52  1  0  0  0  0
  2  3  1  0  0  0  0
  2  7  1  0  0  0  0
  2 49  1  0  0  0  0
  3  4  1  0  0  0  0
  3  5  1  0  0  0  0
  3  6  1  0  0  0  0
  7  8  1  0  0  0  0
  7 47  1  0  0  0  0
  7 48  1  0  0  0  0
  8  9  1  0  0  0  0
  8 13  1  0  0  0  0
  8 38  1  0  0  0  0
  9 10  1  0  0  0  0
  9 11  1  0  0  0  0
  9 12  1  0  0  0  0
 13 14  1  0  0  0  0
 13 45  1  0  0  0  0
 13 46  1  0  0  0  0
 14 15  1  0  0  0  0
 14 43  1  0  0  0  0
 14 44  1  0  0  0  0
 15 16  1  0  0  0  0
 15 37  1  0  0  0  0
 16 17  2  0  0  0  0
 16 18  1  0  0  0  0
 18 19  1  0  0  0  0
 18 35  1  0  0  0  0
 18 36  1  0  0  0  0
 19 20  2  0  0  0  0
 19 28  1  0  0  0  0
 20 21  1  0  0  0  0
 20 34  1  0  0  0  0
 21 22  2  0  0  0  0
 22 23  1  0  0  0  0
 22 33  1  0  0  0  0
 23 24  2  0  0  0  0
 23 28  1  0  0  0  0
 24 25  1  0  0  0  0
 24 32  1  0  0  0  0
 25 26  2  0  0  0  0
 25 31  1  0  0  0  0
 26 27  1  0  0  0  0
 26 30  1  0  0  0  0
 27 28  2  0  0  0  0
 27 29  1  0  0  0  0
 37 38  1  0  0  0  0
 37 41  1  0  0  0  0
 37 42  1  0  0  0  0
 38 39  1  0  0  0  0
 38 40  1  0  0  0  0
M  END
>  <MODEL>
       1

$$$$
