output/tmp_first_model_1_1.pdb
 OpenBabel07242613193D

 68 73  0  0  1  0  0  0  0  0999 V2000
   -6.9490    3.0040  -22.0470 C   0  0  0  0  0  0  0  0  0  0  0  0
   -7.6610    2.3210  -23.1090 N   0  0  0  0  0  0  0  0  0  0  0  0
   -6.9720    1.6910  -24.0900 C   0  0  0  0  0  0  0  0  0  0  0  0
   -5.7660    1.8210  -24.2540 O   0  0  0  0  0  0  0  0  0  0  0  0
   -7.7940    0.7430  -24.9600 C   0  0  0  0  0  0  0  0  0  0  0  0
   -8.4570   -0.2800  -24.1740 N   0  0  0  0  0  0  0  0  0  0  0  0
   -7.7030   -1.4500  -23.7690 C   0  0  0  0  0  0  0  0  0  0  0  0
   -8.2640   -2.1640  -22.4860 C   0  0  2  0  0  0  0  0  0  0  0  0
   -7.9040   -1.3220  -21.2420 C   0  0  0  0  0  0  0  0  0  0  0  0
   -8.5960   -0.4890  -20.6990 O   0  0  0  0  0  0  0  0  0  0  0  0
   -6.6270   -1.6760  -20.8560 N   0  0  0  0  0  0  0  0  0  0  0  0
   -5.9480   -0.9650  -19.8290 C   0  0  0  0  0  0  0  0  0  0  0  0
   -6.2460   -1.2190  -18.5140 C   0  0  0  0  0  0  0  0  0  0  0  0
   -5.6510   -0.6090  -17.4610 N   0  0  0  0  0  0  0  0  0  0  0  0
   -4.7380    0.2980  -17.7160 C   0  0  0  0  0  0  0  0  0  0  0  0
   -4.3170    0.6620  -19.0280 C   0  0  0  0  0  0  0  0  0  0  0  0
   -3.3170    1.6450  -19.2730 C   0  0  0  0  0  0  0  0  0  0  0  0
   -2.9430    1.9550  -20.5530 C   0  0  0  0  0  0  0  0  0  0  0  0
   -3.5760    1.3300  -21.6480 C   0  0  0  0  0  0  0  0  0  0  0  0
   -4.5640    0.3970  -21.4380 C   0  0  0  0  0  0  0  0  0  0  0  0
   -4.9470    0.0180  -20.1240 C   0  0  0  0  0  0  0  0  0  0  0  0
   -5.0900   -0.0280  -22.2860 H   0  0  0  0  0  0  0  0  0  0  0  0
   -3.3000    1.5930  -22.6630 H   0  0  0  0  0  0  0  0  0  0  0  0
   -2.1660    2.6940  -20.7350 H   0  0  0  0  0  0  0  0  0  0  0  0
   -2.8660    2.1490  -18.4230 H   0  0  0  0  0  0  0  0  0  0  0  0
   -4.2790    0.7920  -16.8600 H   0  0  0  0  0  0  0  0  0  0  0  0
   -7.0090   -1.9540  -18.2650 H   0  0  0  0  0  0  0  0  0  0  0  0
   -6.1550   -2.9090  -21.4810 C   0  0  0  0  0  0  0  0  0  0  0  0
   -7.4180   -3.4430  -22.2090 C   0  0  2  0  0  0  0  0  0  0  0  0
   -7.1450   -4.2560  -23.4710 C   0  0  0  0  0  0  0  0  0  0  0  0
   -6.7610   -5.6440  -23.2700 N   0  0  0  0  0  0  0  0  0  0  0  0
   -6.2150   -6.2230  -24.4290 C   0  0  0  0  0  0  0  0  0  0  0  0
   -6.4370   -5.8750  -25.7870 C   0  0  0  0  0  0  0  0  0  0  0  0
   -5.7480   -6.6530  -26.6130 N   0  0  0  0  0  0  0  0  0  0  0  0
   -5.0880   -7.4960  -25.8180 N   0  0  0  0  0  0  0  0  0  0  0  0
   -4.1230   -8.3900  -26.4090 C   0  0  0  0  0  0  0  0  0  0  0  0
   -3.2940   -7.8230  -26.8430 H   0  0  0  0  0  0  0  0  0  0  0  0
   -3.7230   -9.0530  -25.6420 H   0  0  0  0  0  0  0  0  0  0  0  0
   -4.5980   -8.9820  -27.1920 H   0  0  0  0  0  0  0  0  0  0  0  0
   -5.3360   -7.2870  -24.4980 C   0  0  0  0  0  0  0  0  0  0  0  0
   -4.9220   -7.9320  -23.7290 H   0  0  0  0  0  0  0  0  0  0  0  0
   -7.0580   -5.0840  -26.1940 H   0  0  0  0  0  0  0  0  0  0  0  0
   -6.1580   -5.8200  -22.4730 H   0  0  0  0  0  0  0  0  0  0  0  0
   -6.3730   -3.7530  -24.0820 H   0  0  0  0  0  0  0  0  0  0  0  0
   -8.0640   -4.2750  -24.0710 H   0  0  0  0  0  0  0  0  0  0  0  0
   -7.9820   -4.0680  -21.5100 H   0  0  0  0  0  0  0  0  0  0  0  0
   -5.3350   -2.6980  -22.1870 H   0  0  0  0  0  0  0  0  0  0  0  0
   -5.7600   -3.5960  -20.7230 H   0  0  0  0  0  0  0  0  0  0  0  0
   -9.7760   -2.2850  -22.5910 C   0  0  0  0  0  0  0  0  0  0  0  0
  -10.5680   -3.0710  -21.7330 C   0  0  0  0  0  0  0  0  0  0  0  0
  -11.9570   -2.9310  -21.7580 C   0  0  0  0  0  0  0  0  0  0  0  0
  -13.0150   -3.4650  -20.4800 Cl  0  0  0  0  0  0  0  0  0  0  0  0
  -12.5990   -2.2030  -22.7540 C   0  0  0  0  0  0  0  0  0  0  0  0
  -11.8200   -1.4430  -23.5900 C   0  0  0  0  0  0  0  0  0  0  0  0
  -10.4520   -1.3710  -23.4020 C   0  0  0  0  0  0  0  0  0  0  0  0
   -9.7850   -0.1580  -23.9540 C   0  0  0  0  0  0  0  0  0  0  0  0
  -10.3760    0.8990  -24.1610 O   0  0  0  0  0  0  0  0  0  0  0  0
  -12.2180   -0.6780  -24.2480 H   0  0  0  0  0  0  0  0  0  0  0  0
  -13.6840   -2.1490  -22.7670 H   0  0  0  0  0  0  0  0  0  0  0  0
  -10.1060   -3.7590  -21.0370 H   0  0  0  0  0  0  0  0  0  0  0  0
   -7.6740   -2.1270  -24.6290 H   0  0  0  0  0  0  0  0  0  0  0  0
   -6.6780   -1.1160  -23.5780 H   0  0  0  0  0  0  0  0  0  0  0  0
   -7.1200    0.2890  -25.6880 H   0  0  0  0  0  0  0  0  0  0  0  0
   -8.5780    1.2930  -25.4880 H   0  0  0  0  0  0  0  0  0  0  0  0
   -8.6460    2.1070  -22.9790 H   0  0  0  0  0  0  0  0  0  0  0  0
   -6.5690    2.2930  -21.2940 H   0  0  0  0  0  0  0  0  0  0  0  0
   -7.6020    3.7410  -21.5720 H   0  0  0  0  0  0  0  0  0  0  0  0
   -6.0860    3.5150  -22.4790 H   0  0  0  0  0  0  0  0  0  0  0  0
  1  2  1  0  0  0  0
  1 66  1  0  0  0  0
  1 67  1  0  0  0  0
  1 68  1  0  0  0  0
  2  3  1  0  0  0  0
  2 65  1  0  0  0  0
  3  4  2  0  0  0  0
  3  5  1  0  0  0  0
  5  6  1  0  0  0  0
  5 63  1  0  0  0  0
  5 64  1  0  0  0  0
  6  7  1  0  0  0  0
  6 56  1  0  0  0  0
  7  8  1  0  0  0  0
  7 61  1  0  0  0  0
  7 62  1  0  0  0  0
  8  9  1  1  0  0  0
  8 29  1  0  0  0  0
  8 49  1  0  0  0  0
  9 10  2  0  0  0  0
  9 11  1  0  0  0  0
 11 12  1  0  0  0  0
 11 28  1  0  0  0  0
 12 13  2  0  0  0  0
 12 21  1  0  0  0  0
 13 14  1  0  0  0  0
 13 27  1  0  0  0  0
 14 15  2  0  0  0  0
 15 16  1  0  0  0  0
 15 26  1  0  0  0  0
 16 17  2  0  0  0  0
 16 21  1  0  0  0  0
 17 18  1  0  0  0  0
 17 25  1  0  0  0  0
 18 19  2  0  0  0  0
 18 24  1  0  0  0  0
 19 20  1  0  0  0  0
 19 23  1  0  0  0  0
 20 21  2  0  0  0  0
 20 22  1  0  0  0  0
 28 29  1  0  0  0  0
 28 47  1  0  0  0  0
 28 48  1  0  0  0  0
 29 30  1  0  0  0  0
 29 46  1  1  0  0  0
 30 31  1  0  0  0  0
 30 44  1  0  0  0  0
 30 45  1  0  0  0  0
 31 32  1  0  0  0  0
 31 43  1  0  0  0  0
 32 33  1  0  0  0  0
 32 40  2  0  0  0  0
 33 34  2  0  0  0  0
 33 42  1  0  0  0  0
 34 35  1  0  0  0  0
 35 36  1  0  0  0  0
 35 40  1  0  0  0  0
 36 37  1  0  0  0  0
 36 38  1  0  0  0  0
 36 39  1  0  0  0  0
 40 41  1  0  0  0  0
 49 50  2  0  0  0  0
 49 55  1  0  0  0  0
 50 51  1  0  0  0  0
 50 60  1  0  0  0  0
 51 52  1  0  0  0  0
 51 53  2  0  0  0  0
 53 54  1  0  0  0  0
 53 59  1  0  0  0  0
 54 55  2  0  0  0  0
 54 58  1  0  0  0  0
 55 56  1  0  0  0  0
 56 57  2  0  0  0  0
M  END
>  <MODEL>
       1

$$$$
