output/tmp_first_model_1_53.pdb
 OpenBabel07242613193D

 59 63  0  0  1  0  0  0  0  0999 V2000
   -5.1510   -8.3180  -23.7120 C   0  0  0  0  0  0  0  0  0  0  0  0
   -6.0870   -8.7500  -22.5780 C   0  0  0  0  0  0  0  0  0  0  0  0
   -7.1610   -7.7990  -22.3190 N   0  0  0  0  0  0  0  0  0  0  0  0
   -8.2140   -7.6660  -23.1840 C   0  0  0  0  0  0  0  0  0  0  0  0
   -8.4890   -8.4980  -24.0230 O   0  0  0  0  0  0  0  0  0  0  0  0
   -9.0380   -6.3880  -23.0330 C   0  0  0  0  0  0  0  0  0  0  0  0
   -8.4420   -5.2220  -23.6460 N   0  0  0  0  0  0  0  0  0  0  0  0
   -7.5400   -4.4310  -22.8340 C   0  0  0  0  0  0  0  0  0  0  0  0
   -7.7210   -2.9170  -23.0340 C   0  0  2  0  0  0  0  0  0  0  0  0
   -6.6620   -2.2710  -22.1450 C   0  0  0  0  0  0  0  0  0  0  0  0
   -5.4790   -2.5730  -22.0810 O   0  0  0  0  0  0  0  0  0  0  0  0
   -7.2730   -1.3520  -21.3350 N   0  0  0  0  0  0  0  0  0  0  0  0
   -6.5640   -0.7780  -20.2590 C   0  0  0  0  0  0  0  0  0  0  0  0
   -6.9310   -1.0180  -18.9580 C   0  0  0  0  0  0  0  0  0  0  0  0
   -6.2600   -0.5510  -17.8780 N   0  0  0  0  0  0  0  0  0  0  0  0
   -5.2090    0.2050  -18.1020 C   0  0  0  0  0  0  0  0  0  0  0  0
   -4.7350    0.5440  -19.4020 C   0  0  0  0  0  0  0  0  0  0  0  0
   -3.5950    1.3700  -19.5980 C   0  0  0  0  0  0  0  0  0  0  0  0
   -3.1660    1.6810  -20.8620 C   0  0  0  0  0  0  0  0  0  0  0  0
   -3.8520    1.1750  -21.9880 C   0  0  0  0  0  0  0  0  0  0  0  0
   -4.9530    0.3770  -21.8240 C   0  0  0  0  0  0  0  0  0  0  0  0
   -5.4230    0.0380  -20.5210 C   0  0  0  0  0  0  0  0  0  0  0  0
   -5.4610   -0.0120  -22.7000 H   0  0  0  0  0  0  0  0  0  0  0  0
   -3.5040    1.4160  -22.9890 H   0  0  0  0  0  0  0  0  0  0  0  0
   -2.3020    2.3220  -21.0100 H   0  0  0  0  0  0  0  0  0  0  0  0
   -3.0810    1.7550  -18.7220 H   0  0  0  0  0  0  0  0  0  0  0  0
   -4.6780    0.5860  -17.2300 H   0  0  0  0  0  0  0  0  0  0  0  0
   -7.7850   -1.6570  -18.7340 H   0  0  0  0  0  0  0  0  0  0  0  0
   -8.6350   -1.0580  -21.7420 C   0  0  0  0  0  0  0  0  0  0  0  0
   -9.0790   -2.3150  -22.5100 C   0  0  2  0  0  0  0  0  0  0  0  0
   -9.9630   -3.2520  -21.6860 C   0  0  0  0  0  0  0  0  0  0  0  0
  -10.9470   -2.7980  -21.5320 H   0  0  0  0  0  0  0  0  0  0  0  0
  -10.1090   -4.1850  -22.2350 H   0  0  0  0  0  0  0  0  0  0  0  0
   -9.5280   -3.4720  -20.7070 H   0  0  0  0  0  0  0  0  0  0  0  0
   -9.6820   -2.0240  -23.3790 H   0  0  0  0  0  0  0  0  0  0  0  0
   -8.6450   -0.1750  -22.3980 H   0  0  0  0  0  0  0  0  0  0  0  0
   -9.2570   -0.8480  -20.8720 H   0  0  0  0  0  0  0  0  0  0  0  0
   -7.6310   -2.6430  -24.5240 C   0  0  0  0  0  0  0  0  0  0  0  0
   -7.2530   -1.3930  -25.0270 C   0  0  0  0  0  0  0  0  0  0  0  0
   -7.4800   -1.0840  -26.3620 C   0  0  0  0  0  0  0  0  0  0  0  0
   -7.0890    0.5030  -26.9730 Cl  0  0  0  0  0  0  0  0  0  0  0  0
   -8.0760   -2.0020  -27.2240 C   0  0  0  0  0  0  0  0  0  0  0  0
   -8.4310   -3.2450  -26.7310 C   0  0  0  0  0  0  0  0  0  0  0  0
   -8.2220   -3.5710  -25.3970 C   0  0  0  0  0  0  0  0  0  0  0  0
   -8.7640   -4.8940  -24.9350 C   0  0  0  0  0  0  0  0  0  0  0  0
   -9.4570   -5.6120  -25.6470 O   0  0  0  0  0  0  0  0  0  0  0  0
   -8.9130   -3.9920  -27.3510 H   0  0  0  0  0  0  0  0  0  0  0  0
   -8.2630   -1.7260  -28.2570 H   0  0  0  0  0  0  0  0  0  0  0  0
   -6.8200   -0.6450  -24.3690 H   0  0  0  0  0  0  0  0  0  0  0  0
   -6.4940   -4.6600  -23.0710 H   0  0  0  0  0  0  0  0  0  0  0  0
   -7.6880   -4.6390  -21.7700 H   0  0  0  0  0  0  0  0  0  0  0  0
  -10.0100   -6.5690  -23.4910 H   0  0  0  0  0  0  0  0  0  0  0  0
   -9.1360   -6.1650  -21.9660 H   0  0  0  0  0  0  0  0  0  0  0  0
   -6.9280   -7.0190  -21.7210 H   0  0  0  0  0  0  0  0  0  0  0  0
   -6.5300   -9.7310  -22.7730 H   0  0  0  0  0  0  0  0  0  0  0  0
   -5.5190   -8.8190  -21.6470 H   0  0  0  0  0  0  0  0  0  0  0  0
   -4.4710   -7.5300  -23.3730 H   0  0  0  0  0  0  0  0  0  0  0  0
   -4.5410   -9.1590  -24.0570 H   0  0  0  0  0  0  0  0  0  0  0  0
   -5.7160   -7.9330  -24.5670 H   0  0  0  0  0  0  0  0  0  0  0  0
  1  2  1  0  0  0  0
  1 57  1  0  0  0  0
  1 58  1  0  0  0  0
  1 59  1  0  0  0  0
  2  3  1  0  0  0  0
  2 55  1  0  0  0  0
  2 56  1  0  0  0  0
  3  4  1  0  0  0  0
  3 54  1  0  0  0  0
  4  5  2  0  0  0  0
  4  6  1  0  0  0  0
  6  7  1  0  0  0  0
  6 52  1  0  0  0  0
  6 53  1  0  0  0  0
  7  8  1  0  0  0  0
  7 45  1  0  0  0  0
  8  9  1  0  0  0  0
  8 50  1  0  0  0  0
  8 51  1  0  0  0  0
  9 10  1  1  0  0  0
  9 30  1  0  0  0  0
  9 38  1  0  0  0  0
 10 11  2  0  0  0  0
 10 12  1  0  0  0  0
 12 13  1  0  0  0  0
 12 29  1  0  0  0  0
 13 14  2  0  0  0  0
 13 22  1  0  0  0  0
 14 15  1  0  0  0  0
 14 28  1  0  0  0  0
 15 16  2  0  0  0  0
 16 17  1  0  0  0  0
 16 27  1  0  0  0  0
 17 18  2  0  0  0  0
 17 22  1  0  0  0  0
 18 19  1  0  0  0  0
 18 26  1  0  0  0  0
 19 20  2  0  0  0  0
 19 25  1  0  0  0  0
 20 21  1  0  0  0  0
 20 24  1  0  0  0  0
 21 22  2  0  0  0  0
 21 23  1  0  0  0  0
 29 30  1  0  0  0  0
 29 36  1  0  0  0  0
 29 37  1  0  0  0  0
 30 31  1  0  0  0  0
 30 35  1  6  0  0  0
 31 32  1  0  0  0  0
 31 33  1  0  0  0  0
 31 34  1  0  0  0  0
 38 39  2  0  0  0  0
 38 44  1  0  0  0  0
 39 40  1  0  0  0  0
 39 49  1  0  0  0  0
 40 41  1  0  0  0  0
 40 42  2  0  0  0  0
 42 43  1  0  0  0  0
 42 48  1  0  0  0  0
 43 44  2  0  0  0  0
 43 47  1  0  0  0  0
 44 45  1  0  0  0  0
 45 46  2  0  0  0  0
M  END
>  <MODEL>
       1

$$$$
