output/tmp_first_model_8_83.pdb
 OpenBabel07242617113D

 46 50  0  0  1  0  0  0  0  0999 V2000
   -9.3080    1.6550  -26.2500 N   0  0  0  0  0  0  0  0  0  0  0  0
   -8.8840    0.0950  -26.7020 S   0  0  0  0  0  0  0  0  0  0  0  0
   -7.4690   -0.0380  -26.3890 O   0  0  0  0  0  0  0  0  0  0  0  0
   -9.3980   -0.2050  -28.0290 O   0  0  0  0  0  0  0  0  0  0  0  0
   -9.8420   -0.8370  -25.5480 C   0  0  0  0  0  0  0  0  0  0  0  0
  -11.1660   -1.2090  -25.7880 C   0  0  0  0  0  0  0  0  0  0  0  0
  -11.8670   -1.9200  -24.8360 C   0  0  0  0  0  0  0  0  0  0  0  0
  -11.2050   -2.3550  -23.6960 C   0  0  0  0  0  0  0  0  0  0  0  0
   -9.8580   -2.0510  -23.4920 C   0  0  0  0  0  0  0  0  0  0  0  0
   -9.2100   -1.2150  -24.3800 C   0  0  0  0  0  0  0  0  0  0  0  0
   -8.2070   -0.8790  -24.1550 H   0  0  0  0  0  0  0  0  0  0  0  0
   -9.0790   -2.5950  -22.3350 C   0  0  1  0  0  0  0  0  0  0  0  0
   -9.9460   -3.6260  -21.6010 C   0  0  0  0  0  0  0  0  0  0  0  0
  -11.3680   -3.1170  -21.5240 C   0  0  0  0  0  0  0  0  0  0  0  0
  -11.9420   -3.0630  -22.8120 O   0  0  0  0  0  0  0  0  0  0  0  0
  -11.3510   -2.1130  -21.0860 H   0  0  0  0  0  0  0  0  0  0  0  0
  -12.0250   -3.7710  -20.9520 H   0  0  0  0  0  0  0  0  0  0  0  0
   -9.9370   -4.5770  -22.1410 H   0  0  0  0  0  0  0  0  0  0  0  0
   -9.5340   -3.7710  -20.6120 H   0  0  0  0  0  0  0  0  0  0  0  0
   -7.7800   -3.1250  -22.6980 N   0  0  0  0  0  0  0  0  0  0  0  0
   -6.7590   -2.6940  -21.8970 C   0  0  0  0  0  0  0  0  0  0  0  0
   -5.6340   -3.1210  -21.8130 O   0  0  0  0  0  0  0  0  0  0  0  0
   -7.2840   -1.6170  -21.1490 N   0  0  0  0  0  0  0  0  0  0  0  0
   -6.5650   -0.9200  -20.1310 C   0  0  0  0  0  0  0  0  0  0  0  0
   -6.9000   -1.1060  -18.8160 C   0  0  0  0  0  0  0  0  0  0  0  0
   -6.2260   -0.5820  -17.7640 N   0  0  0  0  0  0  0  0  0  0  0  0
   -5.1980    0.1870  -18.0260 C   0  0  0  0  0  0  0  0  0  0  0  0
   -4.7610    0.5090  -19.3390 C   0  0  0  0  0  0  0  0  0  0  0  0
   -3.6650    1.3910  -19.5650 C   0  0  0  0  0  0  0  0  0  0  0  0
   -3.3280    1.7550  -20.8390 C   0  0  0  0  0  0  0  0  0  0  0  0
   -4.0620    1.2500  -21.9350 C   0  0  0  0  0  0  0  0  0  0  0  0
   -5.0960    0.3680  -21.7380 C   0  0  0  0  0  0  0  0  0  0  0  0
   -5.4750   -0.0360  -20.4320 C   0  0  0  0  0  0  0  0  0  0  0  0
   -5.6490   -0.0020  -22.5910 H   0  0  0  0  0  0  0  0  0  0  0  0
   -3.7970    1.5620  -22.9420 H   0  0  0  0  0  0  0  0  0  0  0  0
   -2.5070    2.4450  -21.0240 H   0  0  0  0  0  0  0  0  0  0  0  0
   -3.1140    1.7840  -18.7130 H   0  0  0  0  0  0  0  0  0  0  0  0
   -4.6650    0.6040  -17.1710 H   0  0  0  0  0  0  0  0  0  0  0  0
   -7.7550   -1.7290  -18.5710 H   0  0  0  0  0  0  0  0  0  0  0  0
   -8.6400   -1.4480  -21.4080 C   0  0  0  0  0  0  0  0  0  0  0  0
   -9.3230   -0.5390  -21.0080 O   0  0  0  0  0  0  0  0  0  0  0  0
   -7.6570   -3.9190  -23.3050 H   0  0  0  0  0  0  0  0  0  0  0  0
  -12.9070   -2.1970  -24.9660 H   0  0  0  0  0  0  0  0  0  0  0  0
  -11.6580   -1.0050  -26.7230 H   0  0  0  0  0  0  0  0  0  0  0  0
   -8.4970    2.2580  -26.3310 H   0  0  0  0  0  0  0  0  0  0  0  0
  -10.0240    2.0010  -26.8720 H   0  0  0  0  0  0  0  0  0  0  0  0
  1  2  1  0  0  0  0
  1 45  1  0  0  0  0
  1 46  1  0  0  0  0
  2  3  2  0  0  0  0
  2  4  2  0  0  0  0
  2  5  1  0  0  0  0
  5  6  2  0  0  0  0
  5 10  1  0  0  0  0
  6  7  1  0  0  0  0
  6 44  1  0  0  0  0
  7  8  2  0  0  0  0
  7 43  1  0  0  0  0
  8  9  1  0  0  0  0
  8 15  1  0  0  0  0
  9 10  2  0  0  0  0
 10 11  1  0  0  0  0
 12  9  1  6  0  0  0
 12 13  1  0  0  0  0
 12 20  1  0  0  0  0
 12 40  1  0  0  0  0
 13 14  1  0  0  0  0
 13 18  1  0  0  0  0
 13 19  1  0  0  0  0
 14 15  1  0  0  0  0
 14 16  1  0  0  0  0
 14 17  1  0  0  0  0
 20 21  1  0  0  0  0
 20 42  1  0  0  0  0
 21 22  2  0  0  0  0
 21 23  1  0  0  0  0
 23 24  1  0  0  0  0
 23 40  1  0  0  0  0
 24 25  2  0  0  0  0
 24 33  1  0  0  0  0
 25 26  1  0  0  0  0
 25 39  1  0  0  0  0
 26 27  2  0  0  0  0
 27 28  1  0  0  0  0
 27 38  1  0  0  0  0
 28 29  2  0  0  0  0
 28 33  1  0  0  0  0
 29 30  1  0  0  0  0
 29 37  1  0  0  0  0
 30 31  2  0  0  0  0
 30 36  1  0  0  0  0
 31 32  1  0  0  0  0
 31 35  1  0  0  0  0
 32 33  2  0  0  0  0
 32 34  1  0  0  0  0
 40 41  2  0  0  0  0
M  END
>  <MODEL>
       1

$$$$
