output/tmp_first_model_13_68.pdb
 OpenBabel07242619583D

 65 70  0  0  1  0  0  0  0  0999 V2000
   -9.2210    0.1590  -20.8320 O   0  0  0  0  0  0  0  0  0  0  0  0
   -8.4350   -0.2550  -21.6660 C   0  0  0  0  0  0  0  0  0  0  0  0
   -7.4660   -1.3660  -21.2730 C   0  0  0  0  0  0  0  0  0  0  0  0
   -6.5630   -0.8400  -20.1820 C   0  0  0  0  0  0  0  0  0  0  0  0
   -6.8840   -1.0390  -18.8620 C   0  0  0  0  0  0  0  0  0  0  0  0
   -6.2010   -0.5280  -17.8090 N   0  0  0  0  0  0  0  0  0  0  0  0
   -5.1650    0.2230  -18.0770 C   0  0  0  0  0  0  0  0  0  0  0  0
   -4.7160    0.5260  -19.3930 C   0  0  0  0  0  0  0  0  0  0  0  0
   -3.5970    1.3640  -19.6310 C   0  0  0  0  0  0  0  0  0  0  0  0
   -3.1980    1.6450  -20.9080 C   0  0  0  0  0  0  0  0  0  0  0  0
   -3.9010    1.1020  -22.0020 C   0  0  0  0  0  0  0  0  0  0  0  0
   -4.9940    0.2890  -21.7980 C   0  0  0  0  0  0  0  0  0  0  0  0
   -5.4340   -0.0230  -20.4820 C   0  0  0  0  0  0  0  0  0  0  0  0
   -5.5290   -0.0860  -22.6640 H   0  0  0  0  0  0  0  0  0  0  0  0
   -3.5830    1.3250  -23.0170 H   0  0  0  0  0  0  0  0  0  0  0  0
   -2.3440    2.2960  -21.0870 H   0  0  0  0  0  0  0  0  0  0  0  0
   -3.0740    1.7800  -18.7740 H   0  0  0  0  0  0  0  0  0  0  0  0
   -4.6140    0.6350  -17.2300 H   0  0  0  0  0  0  0  0  0  0  0  0
   -7.7550   -1.6420  -18.6110 H   0  0  0  0  0  0  0  0  0  0  0  0
   -6.8830   -1.7190  -22.1250 H   0  0  0  0  0  0  0  0  0  0  0  0
   -8.0800   -2.1890  -20.8870 H   0  0  0  0  0  0  0  0  0  0  0  0
   -8.3170    0.3200  -22.9240 N   0  0  0  0  0  0  0  0  0  0  0  0
   -8.1250   -0.4830  -24.1300 C   0  0  0  0  0  0  0  0  0  0  0  0
   -9.3140   -1.3710  -24.4430 C   0  0  0  0  0  0  0  0  0  0  0  0
  -10.4020   -0.9130  -25.1830 C   0  0  0  0  0  0  0  0  0  0  0  0
  -11.4970   -1.7430  -25.3950 C   0  0  0  0  0  0  0  0  0  0  0  0
  -11.5440   -3.0370  -24.9030 C   0  0  0  0  0  0  0  0  0  0  0  0
  -10.4500   -3.4870  -24.1900 C   0  0  0  0  0  0  0  0  0  0  0  0
  -10.4620   -5.1230  -23.6090 Cl  0  0  0  0  0  0  0  0  0  0  0  0
   -9.3470   -2.6760  -23.9560 C   0  0  0  0  0  0  0  0  0  0  0  0
   -8.5080   -3.0920  -23.4100 H   0  0  0  0  0  0  0  0  0  0  0  0
  -12.4020   -3.6790  -25.0820 H   0  0  0  0  0  0  0  0  0  0  0  0
  -12.3320   -1.4210  -25.9890 H   0  0  0  0  0  0  0  0  0  0  0  0
  -10.4060    0.0850  -25.6170 H   0  0  0  0  0  0  0  0  0  0  0  0
   -7.2340   -1.1060  -24.0150 H   0  0  0  0  0  0  0  0  0  0  0  0
   -7.9220    0.1840  -24.9690 H   0  0  0  0  0  0  0  0  0  0  0  0
   -8.6630    1.7360  -23.0000 C   0  0  2  0  0  0  0  0  0  0  0  0
  -10.1520    2.1040  -22.8320 C   0  0  0  0  0  0  0  0  0  0  0  0
  -10.2120    3.5540  -23.3820 C   0  0  0  0  0  0  0  0  0  0  0  0
   -8.7650    3.8350  -23.7860 C   0  0  2  0  0  0  0  0  0  0  0  0
   -8.3010    2.4760  -24.2940 C   0  0  0  0  0  0  0  0  0  0  0  0
   -7.2340    2.4220  -24.5390 H   0  0  0  0  0  0  0  0  0  0  0  0
   -8.9010    2.1440  -25.1480 H   0  0  0  0  0  0  0  0  0  0  0  0
   -7.9670    3.9920  -22.4730 N   0  3  2  0  0  0  0  0  0  0  0  0
   -6.6270    4.6290  -22.6430 C   0  0  0  0  0  0  0  0  0  0  0  0
   -6.7370    6.1470  -22.6640 C   0  0  0  0  0  0  0  0  0  0  0  0
   -5.4210    6.9250  -22.8050 C   0  0  0  0  0  0  0  0  0  0  0  0
   -5.6170    7.5880  -21.5470 O   0  0  0  0  0  0  0  0  0  0  0  0
   -6.7760    6.7970  -21.2800 C   0  0  0  0  0  0  0  0  0  0  0  0
   -7.6490    7.3910  -21.0150 H   0  0  0  0  0  0  0  0  0  0  0  0
   -6.5600    6.0620  -20.5010 H   0  0  0  0  0  0  0  0  0  0  0  0
   -4.5320    6.2710  -22.7930 H   0  0  0  0  0  0  0  0  0  0  0  0
   -5.3500    7.6610  -23.6200 H   0  0  0  0  0  0  0  0  0  0  0  0
   -7.5090    6.4650  -23.3690 H   0  0  0  0  0  0  0  0  0  0  0  0
   -5.9860    4.3250  -21.8040 H   0  0  0  0  0  0  0  0  0  0  0  0
   -6.1390    4.2450  -23.5490 H   0  0  0  0  0  0  0  0  0  0  0  0
   -7.9010    2.5760  -21.9500 C   0  0  0  0  0  0  0  0  0  0  0  0
   -8.3620    2.5180  -20.9660 H   0  0  0  0  0  0  0  0  0  0  0  0
   -6.8610    2.2610  -21.8680 H   0  0  0  0  0  0  0  0  0  0  0  0
   -8.4920    4.5730  -21.7930 H   0  0  0  0  0  0  0  0  0  0  0  0
   -8.6180    4.6950  -24.4350 H   0  0  0  0  0  0  0  0  0  0  0  0
  -10.8720    3.6160  -24.2520 H   0  0  0  0  0  0  0  0  0  0  0  0
  -10.5570    4.2850  -22.6420 H   0  0  0  0  0  0  0  0  0  0  0  0
  -10.4720    2.0220  -21.7930 H   0  0  0  0  0  0  0  0  0  0  0  0
  -10.7620    1.4180  -23.4250 H   0  0  0  0  0  0  0  0  0  0  0  0
  1  2  2  0  0  0  0
  2  3  1  0  0  0  0
  2 22  1  0  0  0  0
  3  4  1  0  0  0  0
  3 20  1  0  0  0  0
  3 21  1  0  0  0  0
  4  5  2  0  0  0  0
  4 13  1  0  0  0  0
  5  6  1  0  0  0  0
  5 19  1  0  0  0  0
  6  7  2  0  0  0  0
  7  8  1  0  0  0  0
  7 18  1  0  0  0  0
  8  9  2  0  0  0  0
  8 13  1  0  0  0  0
  9 10  1  0  0  0  0
  9 17  1  0  0  0  0
 10 11  2  0  0  0  0
 10 16  1  0  0  0  0
 11 12  1  0  0  0  0
 11 15  1  0  0  0  0
 12 13  2  0  0  0  0
 12 14  1  0  0  0  0
 22 23  1  0  0  0  0
 23 24  1  0  0  0  0
 23 35  1  0  0  0  0
 23 36  1  0  0  0  0
 24 25  2  0  0  0  0
 24 30  1  0  0  0  0
 25 26  1  0  0  0  0
 25 34  1  0  0  0  0
 26 27  2  0  0  0  0
 26 33  1  0  0  0  0
 27 28  1  0  0  0  0
 27 32  1  0  0  0  0
 28 29  1  0  0  0  0
 28 30  2  0  0  0  0
 30 31  1  0  0  0  0
 37 22  1  1  0  0  0
 37 38  1  0  0  0  0
 37 41  1  0  0  0  0
 37 57  1  0  0  0  0
 38 39  1  0  0  0  0
 38 64  1  0  0  0  0
 38 65  1  0  0  0  0
 39 40  1  0  0  0  0
 39 62  1  0  0  0  0
 39 63  1  0  0  0  0
 40 41  1  0  0  0  0
 40 44  1  0  0  0  0
 40 61  1  6  0  0  0
 41 42  1  0  0  0  0
 41 43  1  0  0  0  0
 44 45  1  0  0  0  0
 44 57  1  0  0  0  0
 44 60  1  1  0  0  0
 45 46  1  0  0  0  0
 45 55  1  0  0  0  0
 45 56  1  0  0  0  0
 46 47  1  0  0  0  0
 46 49  1  0  0  0  0
 46 54  1  0  0  0  0
 47 48  1  0  0  0  0
 47 52  1  0  0  0  0
 47 53  1  0  0  0  0
 48 49  1  0  0  0  0
 49 50  1  0  0  0  0
 49 51  1  0  0  0  0
 57 58  1  0  0  0  0
 57 59  1  0  0  0  0
M  CHG  1  44   1
M  END
>  <MODEL>
       1

$$$$
