output/tmp_first_model_19_30.pdb
 OpenBabel07242623063D

 58 63  0  0  1  0  0  0  0  0999 V2000
   -9.5100   -0.2890  -23.7720 C   0  0  0  0  0  0  0  0  0  0  0  0
   -8.3030   -0.7600  -22.9810 C   0  0  1  0  0  0  0  0  0  0  0  0
   -7.9680    0.1240  -21.7810 C   0  0  0  0  0  0  0  0  0  0  0  0
   -7.0860   -0.7450  -21.0210 N   0  0  0  0  0  0  0  0  0  0  0  0
   -6.2470   -0.3450  -19.9780 C   0  0  0  0  0  0  0  0  0  0  0  0
   -6.5420   -0.6950  -18.6900 C   0  0  0  0  0  0  0  0  0  0  0  0
   -5.8310   -0.2740  -17.6210 N   0  0  0  0  0  0  0  0  0  0  0  0
   -4.7850    0.4830  -17.8630 C   0  0  0  0  0  0  0  0  0  0  0  0
   -4.3320    0.8480  -19.1650 C   0  0  0  0  0  0  0  0  0  0  0  0
   -3.1570    1.6130  -19.3890 C   0  0  0  0  0  0  0  0  0  0  0  0
   -2.7640    1.9140  -20.6640 C   0  0  0  0  0  0  0  0  0  0  0  0
   -3.5100    1.4660  -21.7800 C   0  0  0  0  0  0  0  0  0  0  0  0
   -4.6490    0.7270  -21.5900 C   0  0  0  0  0  0  0  0  0  0  0  0
   -5.0860    0.4200  -20.2720 C   0  0  0  0  0  0  0  0  0  0  0  0
   -5.2130    0.3620  -22.4420 H   0  0  0  0  0  0  0  0  0  0  0  0
   -3.1800    1.7110  -22.7870 H   0  0  0  0  0  0  0  0  0  0  0  0
   -1.8720    2.5120  -20.8310 H   0  0  0  0  0  0  0  0  0  0  0  0
   -2.5980    1.9620  -18.5250 H   0  0  0  0  0  0  0  0  0  0  0  0
   -4.2300    0.8170  -16.9920 H   0  0  0  0  0  0  0  0  0  0  0  0
   -7.4010   -1.3300  -18.4890 H   0  0  0  0  0  0  0  0  0  0  0  0
   -7.2800   -2.0800  -21.2660 C   0  0  0  0  0  0  0  0  0  0  0  0
   -6.7180   -2.9790  -20.6680 O   0  0  0  0  0  0  0  0  0  0  0  0
   -8.3240   -2.2060  -22.3660 C   0  0  1  0  0  0  0  0  0  0  0  0
   -9.6280   -2.5990  -21.6290 C   0  0  0  0  0  0  0  0  0  0  0  0
  -10.6910   -3.0160  -22.5370 N   0  0  0  0  0  0  0  0  0  0  0  0
  -12.0530   -3.0960  -21.9890 C   0  0  0  0  0  0  0  0  0  0  0  0
  -13.1010   -2.5200  -22.8990 C   0  0  0  0  0  0  0  0  0  0  0  0
  -13.1110   -1.1760  -23.1300 C   0  0  0  0  0  0  0  0  0  0  0  0
  -13.9770   -0.6170  -24.1360 C   0  0  0  0  0  0  0  0  0  0  0  0
  -13.9800    0.5060  -24.6070 O   0  0  0  0  0  0  0  0  0  0  0  0
  -14.9020   -1.5680  -24.6060 N   0  0  0  0  0  0  0  0  0  0  0  0
  -14.8740   -2.8780  -24.2500 C   0  0  0  0  0  0  0  0  0  0  0  0
  -14.0320   -3.3900  -23.4160 N   0  0  0  0  0  0  0  0  0  0  0  0
  -15.6010   -3.5150  -24.7440 H   0  0  0  0  0  0  0  0  0  0  0  0
  -15.6290   -1.2250  -25.2200 H   0  0  0  0  0  0  0  0  0  0  0  0
  -12.4610   -0.5060  -22.5750 H   0  0  0  0  0  0  0  0  0  0  0  0
  -12.3240   -4.1260  -21.7670 H   0  0  0  0  0  0  0  0  0  0  0  0
  -12.0560   -2.5290  -21.0560 H   0  0  0  0  0  0  0  0  0  0  0  0
  -10.3640   -3.9610  -23.4860 C   0  0  0  0  0  0  0  0  0  0  0  0
  -11.1580   -4.7780  -23.9080 O   0  0  0  0  0  0  0  0  0  0  0  0
   -8.9580   -3.9970  -23.9830 C   0  0  0  0  0  0  0  0  0  0  0  0
   -8.6660   -4.8440  -25.0530 C   0  0  0  0  0  0  0  0  0  0  0  0
   -7.3580   -5.0440  -25.4530 C   0  0  0  0  0  0  0  0  0  0  0  0
   -6.3550   -4.3620  -24.7700 C   0  0  0  0  0  0  0  0  0  0  0  0
   -5.0760   -4.5800  -25.1160 F   0  0  0  0  0  0  0  0  0  0  0  0
   -6.6210   -3.4960  -23.7290 C   0  0  0  0  0  0  0  0  0  0  0  0
   -7.9520   -3.2700  -23.3590 C   0  0  0  0  0  0  0  0  0  0  0  0
   -5.8100   -3.0190  -23.1900 H   0  0  0  0  0  0  0  0  0  0  0  0
   -7.0880   -5.7210  -26.2580 H   0  0  0  0  0  0  0  0  0  0  0  0
   -9.4920   -5.3400  -25.5540 H   0  0  0  0  0  0  0  0  0  0  0  0
   -9.3600   -3.4050  -20.9270 H   0  0  0  0  0  0  0  0  0  0  0  0
   -9.9720   -1.7630  -21.0090 H   0  0  0  0  0  0  0  0  0  0  0  0
   -8.8780    0.3620  -21.2080 H   0  0  0  0  0  0  0  0  0  0  0  0
   -7.4830    1.0710  -22.0380 H   0  0  0  0  0  0  0  0  0  0  0  0
   -7.4230   -0.7460  -23.6390 H   0  0  0  0  0  0  0  0  0  0  0  0
  -10.3900   -0.2430  -23.1270 H   0  0  0  0  0  0  0  0  0  0  0  0
   -9.7280   -0.9540  -24.6130 H   0  0  0  0  0  0  0  0  0  0  0  0
   -9.3330    0.7170  -24.1680 H   0  0  0  0  0  0  0  0  0  0  0  0
  1  2  1  0  0  0  0
  1 56  1  0  0  0  0
  1 57  1  0  0  0  0
  1 58  1  0  0  0  0
  2  3  1  0  0  0  0
  2 23  1  0  0  0  0
  2 55  1  6  0  0  0
  3  4  1  0  0  0  0
  3 53  1  0  0  0  0
  3 54  1  0  0  0  0
  4  5  1  0  0  0  0
  4 21  1  0  0  0  0
  5  6  2  0  0  0  0
  5 14  1  0  0  0  0
  6  7  1  0  0  0  0
  6 20  1  0  0  0  0
  7  8  2  0  0  0  0
  8  9  1  0  0  0  0
  8 19  1  0  0  0  0
  9 10  2  0  0  0  0
  9 14  1  0  0  0  0
 10 11  1  0  0  0  0
 10 18  1  0  0  0  0
 11 12  2  0  0  0  0
 11 17  1  0  0  0  0
 12 13  1  0  0  0  0
 12 16  1  0  0  0  0
 13 14  2  0  0  0  0
 13 15  1  0  0  0  0
 21 22  2  0  0  0  0
 23 21  1  1  0  0  0
 23 24  1  0  0  0  0
 23 47  1  0  0  0  0
 24 25  1  0  0  0  0
 24 51  1  0  0  0  0
 24 52  1  0  0  0  0
 25 26  1  0  0  0  0
 25 39  1  0  0  0  0
 26 27  1  0  0  0  0
 26 37  1  0  0  0  0
 26 38  1  0  0  0  0
 27 28  2  0  0  0  0
 27 33  1  0  0  0  0
 28 29  1  0  0  0  0
 28 36  1  0  0  0  0
 29 30  2  0  0  0  0
 29 31  1  0  0  0  0
 31 32  1  0  0  0  0
 31 35  1  0  0  0  0
 32 33  2  0  0  0  0
 32 34  1  0  0  0  0
 39 40  2  0  0  0  0
 39 41  1  0  0  0  0
 41 42  2  0  0  0  0
 41 47  1  0  0  0  0
 42 43  1  0  0  0  0
 42 50  1  0  0  0  0
 43 44  2  0  0  0  0
 43 49  1  0  0  0  0
 44 45  1  0  0  0  0
 44 46  1  0  0  0  0
 46 47  2  0  0  0  0
 46 48  1  0  0  0  0
M  END
>  <MODEL>
       1

$$$$
