output/tmp_first_model_13_83.pdb
 OpenBabel07242619583D

 46 50  0  0  1  0  0  0  0  0999 V2000
   -4.5510   -0.7960  -25.3130 N   0  0  0  0  0  0  0  0  0  0  0  0
   -5.3030   -1.7580  -26.4540 S   0  0  0  0  0  0  0  0  0  0  0  0
   -5.1260   -1.1830  -27.7820 O   0  0  0  0  0  0  0  0  0  0  0  0
   -4.8920   -3.1210  -26.1580 O   0  0  0  0  0  0  0  0  0  0  0  0
   -6.9960   -1.5420  -26.0170 C   0  0  0  0  0  0  0  0  0  0  0  0
   -7.9370   -1.2090  -26.9870 C   0  0  0  0  0  0  0  0  0  0  0  0
   -9.2590   -1.0320  -26.6150 C   0  0  0  0  0  0  0  0  0  0  0  0
   -9.6300   -1.1890  -25.2770 C   0  0  0  0  0  0  0  0  0  0  0  0
   -8.6650   -1.4490  -24.2890 C   0  0  0  0  0  0  0  0  0  0  0  0
   -7.3590   -1.6970  -24.6900 C   0  0  0  0  0  0  0  0  0  0  0  0
   -6.6250   -2.0550  -23.9690 H   0  0  0  0  0  0  0  0  0  0  0  0
   -9.0090   -1.5490  -22.8070 C   0  0  1  0  0  0  0  0  0  0  0  0
  -10.5010   -1.2440  -22.6050 C   0  0  0  0  0  0  0  0  0  0  0  0
  -11.3100   -1.7880  -23.7720 C   0  0  0  0  0  0  0  0  0  0  0  0
  -10.9550   -1.1020  -24.9700 O   0  0  0  0  0  0  0  0  0  0  0  0
  -11.1350   -2.8710  -23.8970 H   0  0  0  0  0  0  0  0  0  0  0  0
  -12.3790   -1.6210  -23.6340 H   0  0  0  0  0  0  0  0  0  0  0  0
  -10.8020   -1.6480  -21.6340 H   0  0  0  0  0  0  0  0  0  0  0  0
  -10.6020   -0.1510  -22.5890 H   0  0  0  0  0  0  0  0  0  0  0  0
   -8.5740   -2.8350  -22.2510 N   0  0  0  0  0  0  0  0  0  0  0  0
   -7.4700   -2.7330  -21.4390 C   0  0  0  0  0  0  0  0  0  0  0  0
   -6.7560   -3.6160  -21.0150 O   0  0  0  0  0  0  0  0  0  0  0  0
   -7.2920   -1.3690  -21.1960 N   0  0  0  0  0  0  0  0  0  0  0  0
   -6.4630   -0.8230  -20.1800 C   0  0  0  0  0  0  0  0  0  0  0  0
   -6.8020   -1.0040  -18.8620 C   0  0  0  0  0  0  0  0  0  0  0  0
   -6.1330   -0.4580  -17.8190 N   0  0  0  0  0  0  0  0  0  0  0  0
   -5.0960    0.2900  -18.0950 C   0  0  0  0  0  0  0  0  0  0  0  0
   -4.6370    0.5570  -19.4160 C   0  0  0  0  0  0  0  0  0  0  0  0
   -3.5100    1.3910  -19.6440 C   0  0  0  0  0  0  0  0  0  0  0  0
   -3.0920    1.6470  -20.9210 C   0  0  0  0  0  0  0  0  0  0  0  0
   -3.7910    1.0940  -22.0190 C   0  0  0  0  0  0  0  0  0  0  0  0
   -4.8900    0.2910  -21.8320 C   0  0  0  0  0  0  0  0  0  0  0  0
   -5.3380   -0.0050  -20.5090 C   0  0  0  0  0  0  0  0  0  0  0  0
   -5.4190   -0.1090  -22.7010 H   0  0  0  0  0  0  0  0  0  0  0  0
   -3.4640    1.3170  -23.0300 H   0  0  0  0  0  0  0  0  0  0  0  0
   -2.2350    2.2940  -21.0900 H   0  0  0  0  0  0  0  0  0  0  0  0
   -3.0100    1.8320  -18.7840 H   0  0  0  0  0  0  0  0  0  0  0  0
   -4.5700    0.7350  -17.2500 H   0  0  0  0  0  0  0  0  0  0  0  0
   -7.6720   -1.5980  -18.5980 H   0  0  0  0  0  0  0  0  0  0  0  0
   -8.2040   -0.5990  -21.9110 C   0  0  0  0  0  0  0  0  0  0  0  0
   -8.3530    0.5890  -21.7630 O   0  0  0  0  0  0  0  0  0  0  0  0
   -8.6550   -3.6860  -22.7880 H   0  0  0  0  0  0  0  0  0  0  0  0
  -10.0190   -0.8050  -27.3520 H   0  0  0  0  0  0  0  0  0  0  0  0
   -7.6230   -1.1090  -28.0200 H   0  0  0  0  0  0  0  0  0  0  0  0
   -4.3590    0.1400  -25.6480 H   0  0  0  0  0  0  0  0  0  0  0  0
   -3.7140   -1.2520  -24.9670 H   0  0  0  0  0  0  0  0  0  0  0  0
  1  2  1  0  0  0  0
  1 45  1  0  0  0  0
  1 46  1  0  0  0  0
  2  3  2  0  0  0  0
  2  4  2  0  0  0  0
  2  5  1  0  0  0  0
  5  6  2  0  0  0  0
  5 10  1  0  0  0  0
  6  7  1  0  0  0  0
  6 44  1  0  0  0  0
  7  8  2  0  0  0  0
  7 43  1  0  0  0  0
  8  9  1  0  0  0  0
  8 15  1  0  0  0  0
  9 10  2  0  0  0  0
 10 11  1  0  0  0  0
 12  9  1  6  0  0  0
 12 13  1  0  0  0  0
 12 20  1  0  0  0  0
 12 40  1  0  0  0  0
 13 14  1  0  0  0  0
 13 18  1  0  0  0  0
 13 19  1  0  0  0  0
 14 15  1  0  0  0  0
 14 16  1  0  0  0  0
 14 17  1  0  0  0  0
 20 21  1  0  0  0  0
 20 42  1  0  0  0  0
 21 22  2  0  0  0  0
 21 23  1  0  0  0  0
 23 24  1  0  0  0  0
 23 40  1  0  0  0  0
 24 25  2  0  0  0  0
 24 33  1  0  0  0  0
 25 26  1  0  0  0  0
 25 39  1  0  0  0  0
 26 27  2  0  0  0  0
 27 28  1  0  0  0  0
 27 38  1  0  0  0  0
 28 29  2  0  0  0  0
 28 33  1  0  0  0  0
 29 30  1  0  0  0  0
 29 37  1  0  0  0  0
 30 31  2  0  0  0  0
 30 36  1  0  0  0  0
 31 32  1  0  0  0  0
 31 35  1  0  0  0  0
 32 33  2  0  0  0  0
 32 34  1  0  0  0  0
 40 41  2  0  0  0  0
M  END
>  <MODEL>
       1

$$$$
