output/tmp_first_model_8_16.pdb
 OpenBabel07242617113D

 61 66  0  0  1  0  0  0  0  0999 V2000
  -12.2930    3.9420  -21.6890 C   0  0  0  0  0  0  0  0  0  0  0  0
  -12.2700    2.8420  -22.6240 N   0  0  0  0  0  0  0  0  0  0  0  0
  -11.1290    2.4300  -23.2430 C   0  0  0  0  0  0  0  0  0  0  0  0
  -10.0220    2.9050  -23.0460 O   0  0  0  0  0  0  0  0  0  0  0  0
  -11.3760    1.3290  -24.2820 C   0  0  0  0  0  0  0  0  0  0  0  0
  -11.2880   -0.0060  -23.7120 N   0  0  0  0  0  0  0  0  0  0  0  0
  -10.0950   -0.8310  -23.9430 C   0  0  0  0  0  0  0  0  0  0  0  0
   -9.6790   -1.7030  -22.7140 C   0  0  2  0  0  0  0  0  0  0  0  0
   -9.0400   -0.7840  -21.6330 C   0  0  0  0  0  0  0  0  0  0  0  0
   -9.5130    0.2360  -21.1870 O   0  0  0  0  0  0  0  0  0  0  0  0
   -7.8220   -1.3090  -21.2570 N   0  0  0  0  0  0  0  0  0  0  0  0
   -7.0740   -0.7480  -20.1860 C   0  0  0  0  0  0  0  0  0  0  0  0
   -7.4540   -0.9570  -18.8870 C   0  0  0  0  0  0  0  0  0  0  0  0
   -6.7880   -0.4740  -17.8100 N   0  0  0  0  0  0  0  0  0  0  0  0
   -5.7220    0.2540  -18.0250 C   0  0  0  0  0  0  0  0  0  0  0  0
   -5.2190    0.5550  -19.3170 C   0  0  0  0  0  0  0  0  0  0  0  0
   -4.0810    1.3820  -19.5000 C   0  0  0  0  0  0  0  0  0  0  0  0
   -3.6130    1.6380  -20.7590 C   0  0  0  0  0  0  0  0  0  0  0  0
   -4.2680    1.0900  -21.8860 C   0  0  0  0  0  0  0  0  0  0  0  0
   -5.3830    0.3030  -21.7340 C   0  0  0  0  0  0  0  0  0  0  0  0
   -5.8940    0.0230  -20.4390 C   0  0  0  0  0  0  0  0  0  0  0  0
   -5.8890   -0.1090  -22.6040 H   0  0  0  0  0  0  0  0  0  0  0  0
   -3.8800    1.2990  -22.8800 H   0  0  0  0  0  0  0  0  0  0  0  0
   -2.7410    2.2710  -20.9060 H   0  0  0  0  0  0  0  0  0  0  0  0
   -3.6070    1.8180  -18.6250 H   0  0  0  0  0  0  0  0  0  0  0  0
   -5.1970    0.6410  -17.1530 H   0  0  0  0  0  0  0  0  0  0  0  0
   -8.3470   -1.5360  -18.6620 H   0  0  0  0  0  0  0  0  0  0  0  0
   -7.6080   -2.6480  -21.7650 C   0  0  0  0  0  0  0  0  0  0  0  0
   -8.5030   -2.7020  -23.0160 C   0  0  2  0  0  0  0  0  0  0  0  0
   -7.7020   -2.3400  -24.2850 C   0  0  0  0  0  0  0  0  0  0  0  0
   -6.6030   -3.2470  -24.5480 N   0  0  0  0  0  0  0  0  0  0  0  0
   -6.7800   -4.4790  -24.9870 N   0  0  0  0  0  0  0  0  0  0  0  0
   -5.5290   -4.8880  -25.1160 C   0  0  0  0  0  0  0  0  0  0  0  0
   -4.6320   -3.9440  -24.7610 N   0  0  0  0  0  0  0  0  0  0  0  0
   -5.3410   -2.9070  -24.4030 N   0  0  0  0  0  0  0  0  0  0  0  0
   -5.2570   -5.8710  -25.4690 H   0  0  0  0  0  0  0  0  0  0  0  0
   -8.3430   -2.4000  -25.1620 H   0  0  0  0  0  0  0  0  0  0  0  0
   -7.2740   -1.3410  -24.2210 H   0  0  0  0  0  0  0  0  0  0  0  0
   -8.8530   -3.7200  -23.2100 H   0  0  0  0  0  0  0  0  0  0  0  0
   -7.9100   -3.4050  -21.0290 H   0  0  0  0  0  0  0  0  0  0  0  0
   -6.5550   -2.8220  -21.9940 H   0  0  0  0  0  0  0  0  0  0  0  0
  -10.9800   -2.3920  -22.2030 C   0  0  0  0  0  0  0  0  0  0  0  0
  -11.0750   -3.5210  -21.5040 C   0  0  0  0  0  0  0  0  0  0  0  0
  -12.9100   -3.7110  -21.0920 C   0  0  0  0  0  0  0  0  0  0  0  0
  -12.5470   -5.2500  -19.0990 Cl  0  0  0  0  0  0  0  0  0  0  0  0
  -12.9470   -3.7820  -20.7510 C   0  0  0  0  0  0  0  0  0  0  0  0
  -13.3930   -2.2960  -21.6820 C   0  0  0  0  0  0  0  0  0  0  0  0
  -12.2820   -1.7160  -22.3650 C   0  0  0  0  0  0  0  0  0  0  0  0
  -12.4160   -0.4580  -23.0800 C   0  0  0  0  0  0  0  0  0  0  0  0
  -13.4660    0.1940  -23.0940 O   0  0  0  0  0  0  0  0  0  0  0  0
  -14.3190   -2.3960  -22.2250 H   0  0  0  0  0  0  0  0  0  0  0  0
  -12.9660   -3.1560  -19.8650 H   0  0  0  0  0  0  0  0  0  0  0  0
  -10.3610   -4.3250  -21.3890 H   0  0  0  0  0  0  0  0  0  0  0  0
   -9.2800   -0.1530  -24.1920 H   0  0  0  0  0  0  0  0  0  0  0  0
  -10.2810   -1.5090  -24.7860 H   0  0  0  0  0  0  0  0  0  0  0  0
  -12.3900    1.4600  -24.6650 H   0  0  0  0  0  0  0  0  0  0  0  0
  -10.6630    1.4370  -25.1030 H   0  0  0  0  0  0  0  0  0  0  0  0
  -13.0950    2.2540  -22.6800 H   0  0  0  0  0  0  0  0  0  0  0  0
  -13.1590    4.5700  -21.9140 H   0  0  0  0  0  0  0  0  0  0  0  0
  -11.3760    4.5240  -21.8120 H   0  0  0  0  0  0  0  0  0  0  0  0
  -12.3580    3.5830  -20.6560 H   0  0  0  0  0  0  0  0  0  0  0  0
  1  2  1  0  0  0  0
  1 59  1  0  0  0  0
  1 60  1  0  0  0  0
  1 61  1  0  0  0  0
  2  3  1  0  0  0  0
  2 58  1  0  0  0  0
  3  4  2  0  0  0  0
  3  5  1  0  0  0  0
  5  6  1  0  0  0  0
  5 56  1  0  0  0  0
  5 57  1  0  0  0  0
  6  7  1  0  0  0  0
  6 49  1  0  0  0  0
  7  8  1  0  0  0  0
  7 54  1  0  0  0  0
  7 55  1  0  0  0  0
  8  9  1  1  0  0  0
  8 29  1  0  0  0  0
  8 42  1  0  0  0  0
  9 10  2  0  0  0  0
  9 11  1  0  0  0  0
 11 12  1  0  0  0  0
 11 28  1  0  0  0  0
 12 13  2  0  0  0  0
 12 21  1  0  0  0  0
 13 14  1  0  0  0  0
 13 27  1  0  0  0  0
 14 15  2  0  0  0  0
 15 16  1  0  0  0  0
 15 26  1  0  0  0  0
 16 17  2  0  0  0  0
 16 21  1  0  0  0  0
 17 18  1  0  0  0  0
 17 25  1  0  0  0  0
 18 19  2  0  0  0  0
 18 24  1  0  0  0  0
 19 20  1  0  0  0  0
 19 23  1  0  0  0  0
 20 21  2  0  0  0  0
 20 22  1  0  0  0  0
 28 29  1  0  0  0  0
 28 40  1  0  0  0  0
 28 41  1  0  0  0  0
 29 30  1  0  0  0  0
 29 39  1  6  0  0  0
 30 31  1  0  0  0  0
 30 37  1  0  0  0  0
 30 38  1  0  0  0  0
 31 32  1  0  0  0  0
 31 35  1  0  0  0  0
 32 33  2  0  0  0  0
 33 34  1  0  0  0  0
 33 36  1  0  0  0  0
 34 35  2  0  0  0  0
 42 43  2  0  0  0  0
 42 48  1  0  0  0  0
 43 44  1  0  0  0  0
 43 53  1  0  0  0  0
 44 45  1  0  0  0  0
 44 46  2  0  0  0  0
 46 47  1  0  0  0  0
 46 52  1  0  0  0  0
 47 48  2  0  0  0  0
 47 51  1  0  0  0  0
 48 49  1  0  0  0  0
 49 50  2  0  0  0  0
M  END
>  <MODEL>
       1

$$$$
