output/tmp_first_model_2_70.pdb
 OpenBabel07242613513D

 52 54  0  0  0  0  0  0  0  0999 V2000
  -14.7770   -3.8010  -23.6510 C   0  0  0  0  0  0  0  0  0  0  0  0
  -14.0270   -3.0250  -22.5550 C   0  0  0  0  0  0  0  0  0  0  0  0
  -14.3550   -3.5010  -21.1250 C   0  0  0  0  0  0  0  0  0  0  0  0
  -15.3690   -3.2310  -20.8130 H   0  0  0  0  0  0  0  0  0  0  0  0
  -14.2550   -4.5860  -20.9990 H   0  0  0  0  0  0  0  0  0  0  0  0
  -13.6790   -3.0400  -20.3930 H   0  0  0  0  0  0  0  0  0  0  0  0
  -12.5200   -3.1370  -22.8430 C   0  0  0  0  0  0  0  0  0  0  0  0
  -11.9280   -1.9860  -23.7060 C   0  0  0  0  0  0  0  0  0  0  0  0
  -12.7570   -1.6210  -24.9370 C   0  0  0  0  0  0  0  0  0  0  0  0
  -12.7930   -2.4060  -25.7010 H   0  0  0  0  0  0  0  0  0  0  0  0
  -13.7810   -1.3410  -24.6570 H   0  0  0  0  0  0  0  0  0  0  0  0
  -12.2870   -0.7340  -25.3760 H   0  0  0  0  0  0  0  0  0  0  0  0
  -11.8790   -0.7050  -22.8300 C   0  0  0  0  0  0  0  0  0  0  0  0
  -10.5580    0.0450  -22.8990 C   0  0  0  0  0  0  0  0  0  0  0  0
   -9.4600   -0.8550  -22.5560 N   0  0  0  0  0  0  0  0  0  0  0  0
   -8.5160   -0.4160  -21.6820 C   0  0  0  0  0  0  0  0  0  0  0  0
   -8.5150    0.7220  -21.2440 O   0  0  0  0  0  0  0  0  0  0  0  0
   -7.4610   -1.4430  -21.2430 C   0  0  0  0  0  0  0  0  0  0  0  0
   -6.6050   -0.8690  -20.1640 C   0  0  0  0  0  0  0  0  0  0  0  0
   -6.9410   -1.0680  -18.8510 C   0  0  0  0  0  0  0  0  0  0  0  0
   -6.2780   -0.5520  -17.7840 N   0  0  0  0  0  0  0  0  0  0  0  0
   -5.2400    0.2080  -18.0530 C   0  0  0  0  0  0  0  0  0  0  0  0
   -4.7930    0.5180  -19.3670 C   0  0  0  0  0  0  0  0  0  0  0  0
   -3.6620    1.3430  -19.6070 C   0  0  0  0  0  0  0  0  0  0  0  0
   -3.2640    1.6240  -20.8890 C   0  0  0  0  0  0  0  0  0  0  0  0
   -3.9880    1.1110  -21.9870 C   0  0  0  0  0  0  0  0  0  0  0  0
   -5.0940    0.3190  -21.7830 C   0  0  0  0  0  0  0  0  0  0  0  0
   -5.5060   -0.0140  -20.4640 C   0  0  0  0  0  0  0  0  0  0  0  0
   -5.6620   -0.0430  -22.6350 H   0  0  0  0  0  0  0  0  0  0  0  0
   -3.6660    1.3440  -22.9990 H   0  0  0  0  0  0  0  0  0  0  0  0
   -2.3890    2.2440  -21.0680 H   0  0  0  0  0  0  0  0  0  0  0  0
   -3.1260    1.7440  -18.7520 H   0  0  0  0  0  0  0  0  0  0  0  0
   -4.6960    0.6170  -17.2010 H   0  0  0  0  0  0  0  0  0  0  0  0
   -7.8090   -1.6810  -18.6080 H   0  0  0  0  0  0  0  0  0  0  0  0
   -7.9670   -2.3440  -20.8680 H   0  0  0  0  0  0  0  0  0  0  0  0
   -6.8570   -1.7550  -22.1060 H   0  0  0  0  0  0  0  0  0  0  0  0
   -9.5350   -2.2480  -22.9910 C   0  0  0  0  0  0  0  0  0  0  0  0
  -10.5010   -2.3620  -24.1560 C   0  0  0  0  0  0  0  0  0  0  0  0
  -10.4890   -3.3750  -24.5780 H   0  0  0  0  0  0  0  0  0  0  0  0
  -10.1640   -1.6840  -24.9510 H   0  0  0  0  0  0  0  0  0  0  0  0
   -8.5390   -2.5990  -23.2760 H   0  0  0  0  0  0  0  0  0  0  0  0
   -9.8860   -2.8960  -22.1750 H   0  0  0  0  0  0  0  0  0  0  0  0
  -10.5500    0.8780  -22.1950 H   0  0  0  0  0  0  0  0  0  0  0  0
  -10.4060    0.4790  -23.8940 H   0  0  0  0  0  0  0  0  0  0  0  0
  -12.7040   -0.0280  -23.0810 H   0  0  0  0  0  0  0  0  0  0  0  0
  -12.0410   -1.0070  -21.8040 H   0  0  0  0  0  0  0  0  0  0  0  0
  -12.3160   -4.1090  -23.3180 H   0  0  0  0  0  0  0  0  0  0  0  0
  -11.9750   -3.1650  -21.8880 H   0  0  0  0  0  0  0  0  0  0  0  0
  -14.3220   -1.9620  -22.5860 H   0  0  0  0  0  0  0  0  0  0  0  0
  -14.4350   -3.5340  -24.6620 H   0  0  0  0  0  0  0  0  0  0  0  0
  -15.8600   -3.6690  -23.5920 H   0  0  0  0  0  0  0  0  0  0  0  0
  -14.5530   -4.8690  -23.5420 H   0  0  0  0  0  0  0  0  0  0  0  0
  1  2  1  0  0  0  0
  1 50  1  0  0  0  0
  1 51  1  0  0  0  0
  1 52  1  0  0  0  0
  2  3  1  0  0  0  0
  2  7  1  0  0  0  0
  2 49  1  0  0  0  0
  3  4  1  0  0  0  0
  3  5  1  0  0  0  0
  3  6  1  0  0  0  0
  7  8  1  0  0  0  0
  7 47  1  0  0  0  0
  7 48  1  0  0  0  0
  8  9  1  0  0  0  0
  8 13  1  0  0  0  0
  8 38  1  0  0  0  0
  9 10  1  0  0  0  0
  9 11  1  0  0  0  0
  9 12  1  0  0  0  0
 13 14  1  0  0  0  0
 13 45  1  0  0  0  0
 13 46  1  0  0  0  0
 14 15  1  0  0  0  0
 14 43  1  0  0  0  0
 14 44  1  0  0  0  0
 15 16  1  0  0  0  0
 15 37  1  0  0  0  0
 16 17  2  0  0  0  0
 16 18  1  0  0  0  0
 18 19  1  0  0  0  0
 18 35  1  0  0  0  0
 18 36  1  0  0  0  0
 19 20  2  0  0  0  0
 19 28  1  0  0  0  0
 20 21  1  0  0  0  0
 20 34  1  0  0  0  0
 21 22  2  0  0  0  0
 22 23  1  0  0  0  0
 22 33  1  0  0  0  0
 23 24  2  0  0  0  0
 23 28  1  0  0  0  0
 24 25  1  0  0  0  0
 24 32  1  0  0  0  0
 25 26  2  0  0  0  0
 25 31  1  0  0  0  0
 26 27  1  0  0  0  0
 26 30  1  0  0  0  0
 27 28  2  0  0  0  0
 27 29  1  0  0  0  0
 37 38  1  0  0  0  0
 37 41  1  0  0  0  0
 37 42  1  0  0  0  0
 38 39  1  0  0  0  0
 38 40  1  0  0  0  0
M  END
>  <MODEL>
       1

$$$$
