output/tmp_first_model_5_91.pdb
 OpenBabel07242615323D

 66 71  0  0  1  0  0  0  0  0999 V2000
   -7.3480    3.2620  -21.7200 C   0  0  0  0  0  0  0  0  0  0  0  0
   -8.2970    2.8400  -22.7370 N   0  0  0  0  0  0  0  0  0  0  0  0
   -7.7970    2.1800  -23.8180 C   0  0  0  0  0  0  0  0  0  0  0  0
   -6.5930    2.0450  -23.9890 O   0  0  0  0  0  0  0  0  0  0  0  0
   -8.7980    1.5910  -24.8150 C   0  0  0  0  0  0  0  0  0  0  0  0
   -9.4430    0.4070  -24.2780 N   0  0  0  0  0  0  0  0  0  0  0  0
   -8.6690   -0.8240  -24.1670 C   0  0  0  0  0  0  0  0  0  0  0  0
   -9.0470   -1.6020  -22.8780 C   0  0  2  0  0  0  0  0  0  0  0  0
   -8.5200   -0.8400  -21.6380 C   0  0  0  0  0  0  0  0  0  0  0  0
   -8.9810    0.1630  -21.1260 O   0  0  0  0  0  0  0  0  0  0  0  0
   -7.3860   -1.4790  -21.1990 N   0  0  0  0  0  0  0  0  0  0  0  0
   -6.5430   -0.9540  -20.2020 C   0  0  0  0  0  0  0  0  0  0  0  0
   -6.8480   -1.1130  -18.8810 C   0  0  0  0  0  0  0  0  0  0  0  0
   -5.9940   -0.8290  -17.8700 N   0  0  0  0  0  0  0  0  0  0  0  0
   -4.8270   -0.3220  -18.2000 C   0  0  0  0  0  0  0  0  0  0  0  0
   -4.4400   -0.0110  -19.5340 C   0  0  0  0  0  0  0  0  0  0  0  0
   -3.2650    0.7390  -19.8200 C   0  0  0  0  0  0  0  0  0  0  0  0
   -3.1580    1.4150  -21.0000 C   0  0  0  0  0  0  0  0  0  0  0  0
   -4.0810    1.1670  -22.0500 C   0  0  0  0  0  0  0  0  0  0  0  0
   -5.1150    0.2890  -21.8570 C   0  0  0  0  0  0  0  0  0  0  0  0
   -5.3630   -0.2520  -20.5660 C   0  0  0  0  0  0  0  0  0  0  0  0
   -5.7550    0.0140  -22.6880 H   0  0  0  0  0  0  0  0  0  0  0  0
   -3.9530    1.6470  -23.0140 H   0  0  0  0  0  0  0  0  0  0  0  0
   -2.2990    2.0520  -21.1780 H   0  0  0  0  0  0  0  0  0  0  0  0
   -2.5490    0.8610  -19.0120 H   0  0  0  0  0  0  0  0  0  0  0  0
   -4.1490   -0.0480  -17.3900 H   0  0  0  0  0  0  0  0  0  0  0  0
   -7.8170   -1.5230  -18.6140 H   0  0  0  0  0  0  0  0  0  0  0  0
   -6.9910   -2.6230  -21.9790 C   0  0  0  0  0  0  0  0  0  0  0  0
   -8.2750   -2.9520  -22.7460 C   0  0  2  0  0  0  0  0  0  0  0  0
   -8.0030   -3.7370  -24.0340 C   0  0  0  0  0  0  0  0  0  0  0  0
   -7.5000   -5.0780  -23.8020 N   0  0  0  0  0  0  0  0  0  0  0  0
   -6.1980   -5.4040  -23.5010 C   0  0  0  0  0  0  0  0  0  0  0  0
   -5.0830   -4.6240  -23.8930 C   0  0  0  0  0  0  0  0  0  0  0  0
   -3.8340   -4.9700  -23.6170 N   0  0  0  0  0  0  0  0  0  0  0  0
   -3.6600   -6.1080  -22.9420 C   0  0  0  0  0  0  0  0  0  0  0  0
   -4.7460   -6.8790  -22.5600 C   0  0  0  0  0  0  0  0  0  0  0  0
   -6.0070   -6.5450  -22.8360 N   0  0  0  0  0  0  0  0  0  0  0  0
   -4.6010   -7.8040  -22.0080 H   0  0  0  0  0  0  0  0  0  0  0  0
   -2.6380   -6.4020  -22.7110 H   0  0  0  0  0  0  0  0  0  0  0  0
   -5.2090   -3.6960  -24.4440 H   0  0  0  0  0  0  0  0  0  0  0  0
   -8.1590   -5.7490  -23.4280 H   0  0  0  0  0  0  0  0  0  0  0  0
   -7.2740   -3.1960  -24.6480 H   0  0  0  0  0  0  0  0  0  0  0  0
   -8.9250   -3.8070  -24.6240 H   0  0  0  0  0  0  0  0  0  0  0  0
   -8.8680   -3.5900  -22.0820 H   0  0  0  0  0  0  0  0  0  0  0  0
   -6.6680   -3.4380  -21.3230 H   0  0  0  0  0  0  0  0  0  0  0  0
   -6.1450   -2.3970  -22.6520 H   0  0  0  0  0  0  0  0  0  0  0  0
  -10.5560   -1.7210  -22.8390 C   0  0  0  0  0  0  0  0  0  0  0  0
  -11.1790   -2.6530  -22.0070 C   0  0  0  0  0  0  0  0  0  0  0  0
  -12.5430   -2.8480  -22.0900 C   0  0  0  0  0  0  0  0  0  0  0  0
  -13.2950   -3.9520  -20.9890 Cl  0  0  0  0  0  0  0  0  0  0  0  0
  -13.3310   -2.1550  -23.0100 C   0  0  0  0  0  0  0  0  0  0  0  0
  -12.7390   -1.1260  -23.7230 C   0  0  0  0  0  0  0  0  0  0  0  0
  -11.3760   -0.8670  -23.5880 C   0  0  0  0  0  0  0  0  0  0  0  0
  -10.8110    0.3710  -24.2150 C   0  0  0  0  0  0  0  0  0  0  0  0
  -11.5210    1.2780  -24.6300 O   0  0  0  0  0  0  0  0  0  0  0  0
  -13.3270   -0.4690  -24.3570 H   0  0  0  0  0  0  0  0  0  0  0  0
  -14.3890   -2.3810  -23.1150 H   0  0  0  0  0  0  0  0  0  0  0  0
  -10.6070   -3.2510  -21.3100 H   0  0  0  0  0  0  0  0  0  0  0  0
   -8.8620   -1.4610  -25.0420 H   0  0  0  0  0  0  0  0  0  0  0  0
   -7.6020   -0.5720  -24.1760 H   0  0  0  0  0  0  0  0  0  0  0  0
   -8.2390    1.3410  -25.7250 H   0  0  0  0  0  0  0  0  0  0  0  0
   -9.5840    2.3070  -25.0750 H   0  0  0  0  0  0  0  0  0  0  0  0
   -9.2560    2.6930  -22.4510 H   0  0  0  0  0  0  0  0  0  0  0  0
   -6.7630    2.4050  -21.3580 H   0  0  0  0  0  0  0  0  0  0  0  0
   -6.6650    4.0070  -22.1400 H   0  0  0  0  0  0  0  0  0  0  0  0
   -7.8820    3.7180  -20.8890 H   0  0  0  0  0  0  0  0  0  0  0  0
  1  2  1  0  0  0  0
  1 64  1  0  0  0  0
  1 65  1  0  0  0  0
  1 66  1  0  0  0  0
  2  3  1  0  0  0  0
  2 63  1  0  0  0  0
  3  4  2  0  0  0  0
  3  5  1  0  0  0  0
  5  6  1  0  0  0  0
  5 61  1  0  0  0  0
  5 62  1  0  0  0  0
  6  7  1  0  0  0  0
  6 54  1  0  0  0  0
  7  8  1  0  0  0  0
  7 59  1  0  0  0  0
  7 60  1  0  0  0  0
  8  9  1  1  0  0  0
  8 29  1  0  0  0  0
  8 47  1  0  0  0  0
  9 10  2  0  0  0  0
  9 11  1  0  0  0  0
 11 12  1  0  0  0  0
 11 28  1  0  0  0  0
 12 13  2  0  0  0  0
 12 21  1  0  0  0  0
 13 14  1  0  0  0  0
 13 27  1  0  0  0  0
 14 15  2  0  0  0  0
 15 16  1  0  0  0  0
 15 26  1  0  0  0  0
 16 17  2  0  0  0  0
 16 21  1  0  0  0  0
 17 18  1  0  0  0  0
 17 25  1  0  0  0  0
 18 19  2  0  0  0  0
 18 24  1  0  0  0  0
 19 20  1  0  0  0  0
 19 23  1  0  0  0  0
 20 21  2  0  0  0  0
 20 22  1  0  0  0  0
 28 29  1  0  0  0  0
 28 45  1  0  0  0  0
 28 46  1  0  0  0  0
 29 30  1  0  0  0  0
 29 44  1  1  0  0  0
 30 31  1  0  0  0  0
 30 42  1  0  0  0  0
 30 43  1  0  0  0  0
 31 32  1  0  0  0  0
 31 41  1  0  0  0  0
 32 33  2  0  0  0  0
 32 37  1  0  0  0  0
 33 34  1  0  0  0  0
 33 40  1  0  0  0  0
 34 35  2  0  0  0  0
 35 36  1  0  0  0  0
 35 39  1  0  0  0  0
 36 37  2  0  0  0  0
 36 38  1  0  0  0  0
 47 48  2  0  0  0  0
 47 53  1  0  0  0  0
 48 49  1  0  0  0  0
 48 58  1  0  0  0  0
 49 50  1  0  0  0  0
 49 51  2  0  0  0  0
 51 52  1  0  0  0  0
 51 57  1  0  0  0  0
 52 53  2  0  0  0  0
 52 56  1  0  0  0  0
 53 54  1  0  0  0  0
 54 55  2  0  0  0  0
M  END
>  <MODEL>
       1

$$$$
