output/tmp_first_model_7_58.pdb
 OpenBabel07242616393D

 42 45  0  0  1  0  0  0  0  0999 V2000
  -10.8160   -3.7610  -21.6340 C   0  0  0  0  0  0  0  0  0  0  0  0
   -9.9590   -3.2440  -22.6880 N   0  0  0  0  0  0  0  0  0  0  0  0
  -10.0440   -1.8680  -23.1570 C   0  0  0  0  0  0  0  0  0  0  0  0
   -8.6700   -1.2070  -23.4300 C   0  0  1  0  0  0  0  0  0  0  0  0
   -8.0990   -0.5450  -22.1560 C   0  0  0  0  0  0  0  0  0  0  0  0
   -8.2740    0.6360  -21.9190 O   0  0  0  0  0  0  0  0  0  0  0  0
   -7.3920   -1.3560  -21.3050 N   0  0  0  0  0  0  0  0  0  0  0  0
   -6.6020   -0.8290  -20.2520 C   0  0  0  0  0  0  0  0  0  0  0  0
   -6.9270   -1.0860  -18.9450 C   0  0  0  0  0  0  0  0  0  0  0  0
   -6.2530   -0.5890  -17.8800 N   0  0  0  0  0  0  0  0  0  0  0  0
   -5.2200    0.1780  -18.1200 C   0  0  0  0  0  0  0  0  0  0  0  0
   -4.7580    0.5030  -19.4230 C   0  0  0  0  0  0  0  0  0  0  0  0
   -3.6240    1.3340  -19.6230 C   0  0  0  0  0  0  0  0  0  0  0  0
   -3.1930    1.6240  -20.8880 C   0  0  0  0  0  0  0  0  0  0  0  0
   -3.8680    1.0810  -22.0050 C   0  0  0  0  0  0  0  0  0  0  0  0
   -4.9540    0.2580  -21.8380 C   0  0  0  0  0  0  0  0  0  0  0  0
   -5.4530   -0.0240  -20.5310 C   0  0  0  0  0  0  0  0  0  0  0  0
   -5.4430   -0.1900  -22.6990 H   0  0  0  0  0  0  0  0  0  0  0  0
   -3.5290    1.3300  -23.0070 H   0  0  0  0  0  0  0  0  0  0  0  0
   -2.3370    2.2780  -21.0410 H   0  0  0  0  0  0  0  0  0  0  0  0
   -3.1240    1.7430  -18.7480 H   0  0  0  0  0  0  0  0  0  0  0  0
   -4.6950    0.5870  -17.2570 H   0  0  0  0  0  0  0  0  0  0  0  0
   -7.7870   -1.7090  -18.7010 H   0  0  0  0  0  0  0  0  0  0  0  0
   -7.4930   -2.3570  -21.3770 H   0  0  0  0  0  0  0  0  0  0  0  0
   -7.7620   -2.1750  -24.1580 C   0  0  0  0  0  0  0  0  0  0  0  0
   -6.7860   -1.7170  -25.0540 C   0  0  0  0  0  0  0  0  0  0  0  0
   -5.9500   -2.6320  -25.6820 C   0  0  0  0  0  0  0  0  0  0  0  0
   -4.7430   -2.0600  -26.8020 Cl  0  0  0  0  0  0  0  0  0  0  0  0
   -6.0510   -4.0040  -25.4400 C   0  0  0  0  0  0  0  0  0  0  0  0
   -7.0320   -4.4570  -24.5730 C   0  0  0  0  0  0  0  0  0  0  0  0
   -7.8970   -3.5490  -23.9560 C   0  0  0  0  0  0  0  0  0  0  0  0
   -8.9530   -4.0920  -23.0470 C   0  0  0  0  0  0  0  0  0  0  0  0
   -8.9060   -5.2360  -22.6080 O   0  0  0  0  0  0  0  0  0  0  0  0
   -7.1460   -5.5180  -24.3610 H   0  0  0  0  0  0  0  0  0  0  0  0
   -5.3730   -4.6960  -25.9330 H   0  0  0  0  0  0  0  0  0  0  0  0
   -6.6800   -0.6550  -25.2740 H   0  0  0  0  0  0  0  0  0  0  0  0
   -8.8250   -0.3310  -24.0700 H   0  0  0  0  0  0  0  0  0  0  0  0
  -10.5710   -1.2740  -22.4000 H   0  0  0  0  0  0  0  0  0  0  0  0
  -10.6220   -1.8240  -24.0870 H   0  0  0  0  0  0  0  0  0  0  0  0
  -11.3500   -4.6620  -21.9650 H   0  0  0  0  0  0  0  0  0  0  0  0
  -10.1710   -4.0310  -20.7890 H   0  0  0  0  0  0  0  0  0  0  0  0
  -11.5340   -2.9940  -21.3330 H   0  0  0  0  0  0  0  0  0  0  0  0
  1  2  1  0  0  0  0
  1 40  1  0  0  0  0
  1 41  1  0  0  0  0
  1 42  1  0  0  0  0
  2  3  1  0  0  0  0
  2 32  1  0  0  0  0
  3  4  1  0  0  0  0
  3 38  1  0  0  0  0
  3 39  1  0  0  0  0
  4  5  1  0  0  0  0
  4 25  1  0  0  0  0
  4 37  1  6  0  0  0
  5  6  2  0  0  0  0
  5  7  1  0  0  0  0
  7  8  1  0  0  0  0
  7 24  1  0  0  0  0
  8  9  2  0  0  0  0
  8 17  1  0  0  0  0
  9 10  1  0  0  0  0
  9 23  1  0  0  0  0
 10 11  2  0  0  0  0
 11 12  1  0  0  0  0
 11 22  1  0  0  0  0
 12 13  2  0  0  0  0
 12 17  1  0  0  0  0
 13 14  1  0  0  0  0
 13 21  1  0  0  0  0
 14 15  2  0  0  0  0
 14 20  1  0  0  0  0
 15 16  1  0  0  0  0
 15 19  1  0  0  0  0
 16 17  2  0  0  0  0
 16 18  1  0  0  0  0
 25 26  2  0  0  0  0
 25 31  1  0  0  0  0
 26 27  1  0  0  0  0
 26 36  1  0  0  0  0
 27 28  1  0  0  0  0
 27 29  2  0  0  0  0
 29 30  1  0  0  0  0
 29 35  1  0  0  0  0
 30 31  2  0  0  0  0
 30 34  1  0  0  0  0
 31 32  1  0  0  0  0
 32 33  2  0  0  0  0
M  END
>  <MODEL>
       1

$$$$
