output/tmp_first_model_9_32.pdb
 OpenBabel07242617433D

 57 62  0  0  1  0  0  0  0  0999 V2000
  -10.1060   -0.9250  -23.7300 C   0  0  0  0  0  0  0  0  0  0  0  0
   -8.7690   -1.3330  -23.1330 C   0  0  1  0  0  0  0  0  0  0  0  0
   -8.2590   -0.4250  -22.0080 C   0  0  0  0  0  0  0  0  0  0  0  0
   -7.2850   -1.2770  -21.3350 N   0  0  0  0  0  0  0  0  0  0  0  0
   -6.4900   -0.8070  -20.2590 C   0  0  0  0  0  0  0  0  0  0  0  0
   -6.7920   -1.1300  -18.9580 C   0  0  0  0  0  0  0  0  0  0  0  0
   -6.1550   -0.6110  -17.8780 N   0  0  0  0  0  0  0  0  0  0  0  0
   -5.1780    0.2360  -18.0940 C   0  0  0  0  0  0  0  0  0  0  0  0
   -4.7310    0.6210  -19.3890 C   0  0  0  0  0  0  0  0  0  0  0  0
   -3.6440    1.5130  -19.5690 C   0  0  0  0  0  0  0  0  0  0  0  0
   -3.2170    1.8360  -20.8290 C   0  0  0  0  0  0  0  0  0  0  0  0
   -3.8690    1.2930  -21.9580 C   0  0  0  0  0  0  0  0  0  0  0  0
   -4.9350    0.4430  -21.8080 C   0  0  0  0  0  0  0  0  0  0  0  0
   -5.3970    0.0860  -20.5130 C   0  0  0  0  0  0  0  0  0  0  0  0
   -5.4270    0.0200  -22.6770 H   0  0  0  0  0  0  0  0  0  0  0  0
   -3.5200    1.5450  -22.9560 H   0  0  0  0  0  0  0  0  0  0  0  0
   -2.3810    2.5120  -20.9670 H   0  0  0  0  0  0  0  0  0  0  0  0
   -3.1690    1.9300  -18.6860 H   0  0  0  0  0  0  0  0  0  0  0  0
   -4.6740    0.6530  -17.2230 H   0  0  0  0  0  0  0  0  0  0  0  0
   -7.5990   -1.8260  -18.7330 H   0  0  0  0  0  0  0  0  0  0  0  0
   -7.5340   -2.6240  -21.5380 C   0  0  0  0  0  0  0  0  0  0  0  0
   -6.8960   -3.5220  -21.0350 O   0  0  0  0  0  0  0  0  0  0  0  0
   -8.7230   -2.7710  -22.5090 C   0  0  1  0  0  0  0  0  0  0  0  0
   -9.9600   -3.1270  -21.6580 C   0  0  0  0  0  0  0  0  0  0  0  0
  -11.0760   -3.6550  -22.4290 N   0  0  0  0  0  0  0  0  0  0  0  0
  -12.4110   -3.5960  -21.8340 C   0  0  0  0  0  0  0  0  0  0  0  0
  -13.3480   -2.7990  -22.6630 C   0  0  0  0  0  0  0  0  0  0  0  0
  -13.8990   -3.2920  -23.7620 N   0  0  0  0  0  0  0  0  0  0  0  0
  -13.6890   -1.5110  -22.4570 N   0  0  0  0  0  0  0  0  0  0  0  0
  -14.4670   -1.1760  -23.4560 N   0  0  0  0  0  0  0  0  0  0  0  0
  -14.5560   -2.2460  -24.2120 N   0  0  0  0  0  0  0  0  0  0  0  0
  -15.1910   -2.3150  -25.5030 C   0  0  0  0  0  0  0  0  0  0  0  0
  -16.1520   -2.8090  -25.3890 H   0  0  0  0  0  0  0  0  0  0  0  0
  -15.2770   -1.3070  -25.8860 H   0  0  0  0  0  0  0  0  0  0  0  0
  -14.5680   -2.9210  -26.1610 H   0  0  0  0  0  0  0  0  0  0  0  0
  -12.3520   -3.1700  -20.8310 H   0  0  0  0  0  0  0  0  0  0  0  0
  -12.8070   -4.6130  -21.8200 H   0  0  0  0  0  0  0  0  0  0  0  0
  -10.8930   -4.5730  -23.4380 C   0  0  0  0  0  0  0  0  0  0  0  0
  -11.8060   -5.2640  -23.8640 O   0  0  0  0  0  0  0  0  0  0  0  0
   -9.5280   -4.6510  -24.0220 C   0  0  0  0  0  0  0  0  0  0  0  0
   -9.3030   -5.5680  -25.0560 C   0  0  0  0  0  0  0  0  0  0  0  0
   -8.0450   -5.7020  -25.6120 C   0  0  0  0  0  0  0  0  0  0  0  0
   -7.0130   -4.9320  -25.0890 C   0  0  0  0  0  0  0  0  0  0  0  0
   -5.7730   -5.0770  -25.5830 F   0  0  0  0  0  0  0  0  0  0  0  0
   -7.2060   -4.0420  -24.0540 C   0  0  0  0  0  0  0  0  0  0  0  0
   -8.4870   -3.8610  -23.5290 C   0  0  0  0  0  0  0  0  0  0  0  0
   -6.3600   -3.5100  -23.6360 H   0  0  0  0  0  0  0  0  0  0  0  0
   -7.8390   -6.3910  -26.4250 H   0  0  0  0  0  0  0  0  0  0  0  0
  -10.1280   -6.1730  -25.4230 H   0  0  0  0  0  0  0  0  0  0  0  0
  -10.3040   -2.2350  -21.1210 H   0  0  0  0  0  0  0  0  0  0  0  0
   -9.6560   -3.8510  -20.8960 H   0  0  0  0  0  0  0  0  0  0  0  0
   -9.0770   -0.1460  -21.3230 H   0  0  0  0  0  0  0  0  0  0  0  0
   -7.7970    0.5030  -22.3600 H   0  0  0  0  0  0  0  0  0  0  0  0
   -7.9940   -1.3400  -23.9100 H   0  0  0  0  0  0  0  0  0  0  0  0
  -10.8760   -0.8950  -22.9540 H   0  0  0  0  0  0  0  0  0  0  0  0
  -10.0690    0.0600  -24.2050 H   0  0  0  0  0  0  0  0  0  0  0  0
  -10.4220   -1.6570  -24.4790 H   0  0  0  0  0  0  0  0  0  0  0  0
  1  2  1  0  0  0  0
  1 55  1  0  0  0  0
  1 56  1  0  0  0  0
  1 57  1  0  0  0  0
  2  3  1  0  0  0  0
  2 23  1  0  0  0  0
  2 54  1  6  0  0  0
  3  4  1  0  0  0  0
  3 52  1  0  0  0  0
  3 53  1  0  0  0  0
  4  5  1  0  0  0  0
  4 21  1  0  0  0  0
  5  6  2  0  0  0  0
  5 14  1  0  0  0  0
  6  7  1  0  0  0  0
  6 20  1  0  0  0  0
  7  8  2  0  0  0  0
  8  9  1  0  0  0  0
  8 19  1  0  0  0  0
  9 10  2  0  0  0  0
  9 14  1  0  0  0  0
 10 11  1  0  0  0  0
 10 18  1  0  0  0  0
 11 12  2  0  0  0  0
 11 17  1  0  0  0  0
 12 13  1  0  0  0  0
 12 16  1  0  0  0  0
 13 14  2  0  0  0  0
 13 15  1  0  0  0  0
 21 22  2  0  0  0  0
 23 21  1  1  0  0  0
 23 24  1  0  0  0  0
 23 46  1  0  0  0  0
 24 25  1  0  0  0  0
 24 50  1  0  0  0  0
 24 51  1  0  0  0  0
 25 26  1  0  0  0  0
 25 38  1  0  0  0  0
 26 27  1  0  0  0  0
 26 36  1  0  0  0  0
 26 37  1  0  0  0  0
 27 28  2  0  0  0  0
 27 31  1  0  0  0  0
 28 29  1  0  0  0  0
 29 30  2  0  0  0  0
 30 31  1  0  0  0  0
 31 32  1  0  0  0  0
 32 33  1  0  0  0  0
 32 34  1  0  0  0  0
 32 35  1  0  0  0  0
 38 39  2  0  0  0  0
 38 40  1  0  0  0  0
 40 41  2  0  0  0  0
 40 46  1  0  0  0  0
 41 42  1  0  0  0  0
 41 49  1  0  0  0  0
 42 43  2  0  0  0  0
 42 48  1  0  0  0  0
 43 44  1  0  0  0  0
 43 45  1  0  0  0  0
 45 46  2  0  0  0  0
 45 47  1  0  0  0  0
M  END
>  <MODEL>
       1

$$$$
