output/tmp_first_model_1_61.pdb
 OpenBabel07242613193D

 44 47  0  0  0  0  0  0  0  0999 V2000
   -5.8680   -3.3080  -21.2790 O   0  0  0  0  0  0  0  0  0  0  0  0
   -6.6940   -2.6840  -21.9260 C   0  0  0  0  0  0  0  0  0  0  0  0
   -7.3970   -1.4600  -21.2860 C   0  0  0  0  0  0  0  0  0  0  0  0
   -6.5780   -0.8280  -20.1840 C   0  0  0  0  0  0  0  0  0  0  0  0
   -6.8720   -1.0470  -18.8610 C   0  0  0  0  0  0  0  0  0  0  0  0
   -6.1850   -0.5490  -17.7980 N   0  0  0  0  0  0  0  0  0  0  0  0
   -5.1580    0.2230  -18.0620 C   0  0  0  0  0  0  0  0  0  0  0  0
   -4.7210    0.5340  -19.3810 C   0  0  0  0  0  0  0  0  0  0  0  0
   -3.5920    1.3610  -19.6200 C   0  0  0  0  0  0  0  0  0  0  0  0
   -3.1930    1.6380  -20.9020 C   0  0  0  0  0  0  0  0  0  0  0  0
   -3.9070    1.0970  -21.9930 C   0  0  0  0  0  0  0  0  0  0  0  0
   -5.0040    0.2970  -21.7860 C   0  0  0  0  0  0  0  0  0  0  0  0
   -5.4450   -0.0070  -20.4700 C   0  0  0  0  0  0  0  0  0  0  0  0
   -5.5360   -0.1090  -22.6400 H   0  0  0  0  0  0  0  0  0  0  0  0
   -3.5840    1.3210  -23.0050 H   0  0  0  0  0  0  0  0  0  0  0  0
   -2.3330    2.2750  -21.0900 H   0  0  0  0  0  0  0  0  0  0  0  0
   -3.0530    1.7750  -18.7720 H   0  0  0  0  0  0  0  0  0  0  0  0
   -4.6020    0.6290  -17.2150 H   0  0  0  0  0  0  0  0  0  0  0  0
   -7.7210   -1.6710  -18.5890 H   0  0  0  0  0  0  0  0  0  0  0  0
   -8.3350   -1.8260  -20.8460 H   0  0  0  0  0  0  0  0  0  0  0  0
   -7.6870   -0.6990  -22.0200 H   0  0  0  0  0  0  0  0  0  0  0  0
   -7.0450   -3.0670  -23.1950 N   0  0  0  0  0  0  0  0  0  0  0  0
   -6.6670   -4.4020  -23.6640 C   0  0  0  0  0  0  0  0  0  0  0  0
   -7.8180   -5.0360  -24.4340 C   0  0  0  0  0  0  0  0  0  0  0  0
   -8.2730   -4.2030  -25.6410 C   0  0  0  0  0  0  0  0  0  0  0  0
   -8.0320   -4.8560  -27.0310 C   0  0  0  0  0  0  0  0  0  0  0  0
   -9.5450   -4.9270  -27.2910 C   0  0  0  0  0  0  0  0  0  0  0  0
   -9.8010   -4.2860  -25.9170 C   0  0  0  0  0  0  0  0  0  0  0  0
  -10.3050   -3.3190  -25.9470 H   0  0  0  0  0  0  0  0  0  0  0  0
  -10.3420   -4.9260  -25.2180 H   0  0  0  0  0  0  0  0  0  0  0  0
   -9.8850   -4.3320  -28.1400 H   0  0  0  0  0  0  0  0  0  0  0  0
   -9.9360   -5.9400  -27.3930 H   0  0  0  0  0  0  0  0  0  0  0  0
   -7.4840   -4.2210  -27.7290 H   0  0  0  0  0  0  0  0  0  0  0  0
   -7.5280   -5.8220  -26.9900 H   0  0  0  0  0  0  0  0  0  0  0  0
   -7.7280   -2.7760  -25.5540 C   0  0  0  0  0  0  0  0  0  0  0  0
   -7.7420   -2.1980  -24.1420 C   0  0  0  0  0  0  0  0  0  0  0  0
   -8.7760   -2.0280  -23.8220 H   0  0  0  0  0  0  0  0  0  0  0  0
   -7.2630   -1.2110  -24.1740 H   0  0  0  0  0  0  0  0  0  0  0  0
   -6.7110   -2.7370  -25.9630 H   0  0  0  0  0  0  0  0  0  0  0  0
   -8.3050   -2.1260  -26.2170 H   0  0  0  0  0  0  0  0  0  0  0  0
   -7.5460   -6.0470  -24.7530 H   0  0  0  0  0  0  0  0  0  0  0  0
   -8.6540   -5.1730  -23.7380 H   0  0  0  0  0  0  0  0  0  0  0  0
   -6.4080   -5.0130  -22.8010 H   0  0  0  0  0  0  0  0  0  0  0  0
   -5.7710   -4.3620  -24.2940 H   0  0  0  0  0  0  0  0  0  0  0  0
  1  2  2  0  0  0  0
  2  3  1  0  0  0  0
  2 22  1  0  0  0  0
  3  4  1  0  0  0  0
  3 20  1  0  0  0  0
  3 21  1  0  0  0  0
  4  5  2  0  0  0  0
  4 13  1  0  0  0  0
  5  6  1  0  0  0  0
  5 19  1  0  0  0  0
  6  7  2  0  0  0  0
  7  8  1  0  0  0  0
  7 18  1  0  0  0  0
  8  9  2  0  0  0  0
  8 13  1  0  0  0  0
  9 10  1  0  0  0  0
  9 17  1  0  0  0  0
 10 11  2  0  0  0  0
 10 16  1  0  0  0  0
 11 12  1  0  0  0  0
 11 15  1  0  0  0  0
 12 13  2  0  0  0  0
 12 14  1  0  0  0  0
 22 23  1  0  0  0  0
 22 36  1  0  0  0  0
 23 24  1  0  0  0  0
 23 43  1  0  0  0  0
 23 44  1  0  0  0  0
 24 25  1  0  0  0  0
 24 41  1  0  0  0  0
 24 42  1  0  0  0  0
 25 26  1  0  0  0  0
 25 28  1  0  0  0  0
 25 35  1  0  0  0  0
 26 27  1  0  0  0  0
 26 33  1  0  0  0  0
 26 34  1  0  0  0  0
 27 28  1  0  0  0  0
 27 31  1  0  0  0  0
 27 32  1  0  0  0  0
 28 29  1  0  0  0  0
 28 30  1  0  0  0  0
 35 36  1  0  0  0  0
 35 39  1  0  0  0  0
 35 40  1  0  0  0  0
 36 37  1  0  0  0  0
 36 38  1  0  0  0  0
M  END
>  <MODEL>
       1

$$$$
