output/tmp_first_model_20_77.pdb
 OpenBabel07242623363D

 55 60  0  0  1  0  0  0  0  0999 V2000
  -10.4650   -1.0880  -23.3000 C   0  0  0  0  0  0  0  0  0  0  0  0
   -9.0230   -1.4410  -22.9440 C   0  0  1  0  0  0  0  0  0  0  0  0
   -8.4030   -0.4980  -21.9000 C   0  0  0  0  0  0  0  0  0  0  0  0
   -7.4090   -1.3310  -21.2420 N   0  0  0  0  0  0  0  0  0  0  0  0
   -6.5840   -0.8470  -20.1990 C   0  0  0  0  0  0  0  0  0  0  0  0
   -6.8940   -1.0980  -18.8860 C   0  0  0  0  0  0  0  0  0  0  0  0
   -6.2150   -0.5750  -17.8370 N   0  0  0  0  0  0  0  0  0  0  0  0
   -5.1910    0.1980  -18.0960 C   0  0  0  0  0  0  0  0  0  0  0  0
   -4.7430    0.5140  -19.4100 C   0  0  0  0  0  0  0  0  0  0  0  0
   -3.6090    1.3360  -19.6420 C   0  0  0  0  0  0  0  0  0  0  0  0
   -3.2130    1.6120  -20.9230 C   0  0  0  0  0  0  0  0  0  0  0  0
   -3.9230    1.0760  -22.0230 C   0  0  0  0  0  0  0  0  0  0  0  0
   -5.0210    0.2750  -21.8220 C   0  0  0  0  0  0  0  0  0  0  0  0
   -5.4590   -0.0190  -20.5030 C   0  0  0  0  0  0  0  0  0  0  0  0
   -5.5640   -0.1440  -22.6630 H   0  0  0  0  0  0  0  0  0  0  0  0
   -3.5990    1.3040  -23.0340 H   0  0  0  0  0  0  0  0  0  0  0  0
   -2.3510    2.2480  -21.1060 H   0  0  0  0  0  0  0  0  0  0  0  0
   -3.0710    1.7360  -18.7860 H   0  0  0  0  0  0  0  0  0  0  0  0
   -4.6540    0.6100  -17.2420 H   0  0  0  0  0  0  0  0  0  0  0  0
   -7.7370   -1.7350  -18.6300 H   0  0  0  0  0  0  0  0  0  0  0  0
   -7.6020   -2.6810  -21.4380 C   0  0  0  0  0  0  0  0  0  0  0  0
   -6.8830   -3.5470  -20.9820 O   0  0  0  0  0  0  0  0  0  0  0  0
   -8.8270   -2.8800  -22.3470 C   0  0  1  0  0  0  0  0  0  0  0  0
  -10.0330   -3.3210  -21.4820 C   0  0  0  0  0  0  0  0  0  0  0  0
  -11.1880   -3.7480  -22.2760 N   0  0  0  0  0  0  0  0  0  0  0  0
  -12.5350   -3.7170  -21.6970 C   0  0  0  0  0  0  0  0  0  0  0  0
  -13.4390   -2.6200  -22.1910 C   0  0  0  0  0  0  0  0  0  0  0  0
  -13.8740   -1.4210  -21.7240 C   0  0  0  0  0  0  0  0  0  0  0  0
  -14.7870   -0.9170  -22.6170 O   0  0  0  0  0  0  0  0  0  0  0  0
  -14.8490   -1.8490  -23.5790 C   0  0  0  0  0  0  0  0  0  0  0  0
  -14.1190   -2.8750  -23.3700 N   0  0  0  0  0  0  0  0  0  0  0  0
  -15.4560   -1.6840  -24.4530 H   0  0  0  0  0  0  0  0  0  0  0  0
  -13.6930   -0.7890  -20.8710 H   0  0  0  0  0  0  0  0  0  0  0  0
  -13.0420   -4.6100  -22.0650 H   0  0  0  0  0  0  0  0  0  0  0  0
  -12.4810   -3.7630  -20.6040 H   0  0  0  0  0  0  0  0  0  0  0  0
  -11.0100   -4.5480  -23.3830 C   0  0  0  0  0  0  0  0  0  0  0  0
  -11.9380   -5.0780  -23.9710 O   0  0  0  0  0  0  0  0  0  0  0  0
   -9.6010   -4.7390  -23.8570 C   0  0  0  0  0  0  0  0  0  0  0  0
   -9.3570   -5.6970  -24.8410 C   0  0  0  0  0  0  0  0  0  0  0  0
   -8.0830   -5.8590  -25.3580 C   0  0  0  0  0  0  0  0  0  0  0  0
   -7.0610   -5.0270  -24.9140 C   0  0  0  0  0  0  0  0  0  0  0  0
   -5.8280   -5.1610  -25.4340 F   0  0  0  0  0  0  0  0  0  0  0  0
   -7.2790   -4.0740  -23.9440 C   0  0  0  0  0  0  0  0  0  0  0  0
   -8.5590   -3.9350  -23.3910 C   0  0  0  0  0  0  0  0  0  0  0  0
   -6.4410   -3.4850  -23.5930 H   0  0  0  0  0  0  0  0  0  0  0  0
   -7.8650   -6.6200  -26.0940 H   0  0  0  0  0  0  0  0  0  0  0  0
  -10.1920   -6.3040  -25.1850 H   0  0  0  0  0  0  0  0  0  0  0  0
  -10.3020   -2.4550  -20.8660 H   0  0  0  0  0  0  0  0  0  0  0  0
   -9.7080   -4.1420  -20.8330 H   0  0  0  0  0  0  0  0  0  0  0  0
   -9.1560   -0.1320  -21.1830 H   0  0  0  0  0  0  0  0  0  0  0  0
   -7.9410    0.3830  -22.3540 H   0  0  0  0  0  0  0  0  0  0  0  0
   -8.4010   -1.4110  -23.8500 H   0  0  0  0  0  0  0  0  0  0  0  0
  -11.0770   -1.0530  -22.3920 H   0  0  0  0  0  0  0  0  0  0  0  0
  -10.8930   -1.8510  -23.9580 H   0  0  0  0  0  0  0  0  0  0  0  0
  -10.5450   -0.1160  -23.7930 H   0  0  0  0  0  0  0  0  0  0  0  0
  1  2  1  0  0  0  0
  1 53  1  0  0  0  0
  1 54  1  0  0  0  0
  1 55  1  0  0  0  0
  2  3  1  0  0  0  0
  2 23  1  0  0  0  0
  2 52  1  6  0  0  0
  3  4  1  0  0  0  0
  3 50  1  0  0  0  0
  3 51  1  0  0  0  0
  4  5  1  0  0  0  0
  4 21  1  0  0  0  0
  5  6  2  0  0  0  0
  5 14  1  0  0  0  0
  6  7  1  0  0  0  0
  6 20  1  0  0  0  0
  7  8  2  0  0  0  0
  8  9  1  0  0  0  0
  8 19  1  0  0  0  0
  9 10  2  0  0  0  0
  9 14  1  0  0  0  0
 10 11  1  0  0  0  0
 10 18  1  0  0  0  0
 11 12  2  0  0  0  0
 11 17  1  0  0  0  0
 12 13  1  0  0  0  0
 12 16  1  0  0  0  0
 13 14  2  0  0  0  0
 13 15  1  0  0  0  0
 21 22  2  0  0  0  0
 23 21  1  1  0  0  0
 23 24  1  0  0  0  0
 23 44  1  0  0  0  0
 24 25  1  0  0  0  0
 24 48  1  0  0  0  0
 24 49  1  0  0  0  0
 25 26  1  0  0  0  0
 25 36  1  0  0  0  0
 26 27  1  0  0  0  0
 26 34  1  0  0  0  0
 26 35  1  0  0  0  0
 27 28  2  0  0  0  0
 27 31  1  0  0  0  0
 28 29  1  0  0  0  0
 28 33  1  0  0  0  0
 29 30  1  0  0  0  0
 30 31  2  0  0  0  0
 30 32  1  0  0  0  0
 36 37  2  0  0  0  0
 36 38  1  0  0  0  0
 38 39  2  0  0  0  0
 38 44  1  0  0  0  0
 39 40  1  0  0  0  0
 39 47  1  0  0  0  0
 40 41  2  0  0  0  0
 40 46  1  0  0  0  0
 41 42  1  0  0  0  0
 41 43  1  0  0  0  0
 43 44  2  0  0  0  0
 43 45  1  0  0  0  0
M  END
>  <MODEL>
       1

$$$$
