output/tmp_first_model_17_89.pdb
 OpenBabel07242622053D

 43 45  0  0  0  0  0  0  0  0999 V2000
   -9.8230    0.5780  -27.2230 C   0  0  0  0  0  0  0  0  0  0  0  0
   -8.8010    0.4500  -26.0890 C   0  0  0  0  0  0  0  0  0  0  0  0
   -7.4080    0.6970  -26.6790 C   0  0  0  0  0  0  0  0  0  0  0  0
   -6.6070    0.6040  -25.9420 H   0  0  0  0  0  0  0  0  0  0  0  0
   -7.3390    1.7020  -27.1100 H   0  0  0  0  0  0  0  0  0  0  0  0
   -7.1980   -0.0180  -27.4810 H   0  0  0  0  0  0  0  0  0  0  0  0
   -9.1180    1.4650  -24.9820 C   0  0  0  0  0  0  0  0  0  0  0  0
   -8.2850    1.2630  -23.7220 C   0  0  0  0  0  0  0  0  0  0  0  0
   -8.3470   -0.1120  -23.2420 N   0  0  0  0  0  0  0  0  0  0  0  0
   -8.3600   -0.3250  -21.8670 C   0  0  0  0  0  0  0  0  0  0  0  0
   -9.0500    0.3420  -21.1230 O   0  0  0  0  0  0  0  0  0  0  0  0
   -7.4340   -1.4120  -21.2790 C   0  0  0  0  0  0  0  0  0  0  0  0
   -6.5700   -0.8340  -20.1770 C   0  0  0  0  0  0  0  0  0  0  0  0
   -6.8760   -1.0410  -18.8570 C   0  0  0  0  0  0  0  0  0  0  0  0
   -6.1880   -0.5320  -17.8010 N   0  0  0  0  0  0  0  0  0  0  0  0
   -5.1520    0.2220  -18.0670 C   0  0  0  0  0  0  0  0  0  0  0  0
   -4.7200    0.5350  -19.3820 C   0  0  0  0  0  0  0  0  0  0  0  0
   -3.6000    1.3700  -19.6220 C   0  0  0  0  0  0  0  0  0  0  0  0
   -3.2150    1.6670  -20.9000 C   0  0  0  0  0  0  0  0  0  0  0  0
   -3.9370    1.1330  -21.9930 C   0  0  0  0  0  0  0  0  0  0  0  0
   -5.0220    0.3180  -21.7880 C   0  0  0  0  0  0  0  0  0  0  0  0
   -5.4470   -0.0040  -20.4720 C   0  0  0  0  0  0  0  0  0  0  0  0
   -5.5600   -0.0820  -22.6440 H   0  0  0  0  0  0  0  0  0  0  0  0
   -3.6130    1.3660  -23.0020 H   0  0  0  0  0  0  0  0  0  0  0  0
   -2.3540    2.3020  -21.0870 H   0  0  0  0  0  0  0  0  0  0  0  0
   -3.0600    1.7760  -18.7700 H   0  0  0  0  0  0  0  0  0  0  0  0
   -4.6020    0.6270  -17.2150 H   0  0  0  0  0  0  0  0  0  0  0  0
   -7.7280   -1.6590  -18.5800 H   0  0  0  0  0  0  0  0  0  0  0  0
   -6.8140   -1.8910  -22.0470 H   0  0  0  0  0  0  0  0  0  0  0  0
   -8.0820   -2.1840  -20.8450 H   0  0  0  0  0  0  0  0  0  0  0  0
   -8.0620   -1.1430  -24.2200 C   0  0  0  0  0  0  0  0  0  0  0  0
   -8.9040   -0.9500  -25.4820 C   0  0  0  0  0  0  0  0  0  0  0  0
   -9.9550   -1.1570  -25.2530 H   0  0  0  0  0  0  0  0  0  0  0  0
   -8.6030   -1.6890  -26.2280 H   0  0  0  0  0  0  0  0  0  0  0  0
   -6.9940   -1.1820  -24.4900 H   0  0  0  0  0  0  0  0  0  0  0  0
   -8.3120   -2.1050  -23.7780 H   0  0  0  0  0  0  0  0  0  0  0  0
   -8.6510    1.8950  -22.9140 H   0  0  0  0  0  0  0  0  0  0  0  0
   -7.2400    1.5640  -23.9100 H   0  0  0  0  0  0  0  0  0  0  0  0
  -10.1790    1.3920  -24.7180 H   0  0  0  0  0  0  0  0  0  0  0  0
   -8.9640    2.4820  -25.3620 H   0  0  0  0  0  0  0  0  0  0  0  0
   -9.7310    1.5470  -27.7180 H   0  0  0  0  0  0  0  0  0  0  0  0
  -10.8510    0.4510  -26.8580 H   0  0  0  0  0  0  0  0  0  0  0  0
   -9.6500   -0.1550  -28.0170 H   0  0  0  0  0  0  0  0  0  0  0  0
  1  2  1  0  0  0  0
  1 41  1  0  0  0  0
  1 42  1  0  0  0  0
  1 43  1  0  0  0  0
  2  3  1  0  0  0  0
  2  7  1  0  0  0  0
  2 32  1  0  0  0  0
  3  4  1  0  0  0  0
  3  5  1  0  0  0  0
  3  6  1  0  0  0  0
  7  8  1  0  0  0  0
  7 39  1  0  0  0  0
  7 40  1  0  0  0  0
  8  9  1  0  0  0  0
  8 37  1  0  0  0  0
  8 38  1  0  0  0  0
  9 10  1  0  0  0  0
  9 31  1  0  0  0  0
 10 11  2  0  0  0  0
 10 12  1  0  0  0  0
 12 13  1  0  0  0  0
 12 29  1  0  0  0  0
 12 30  1  0  0  0  0
 13 14  2  0  0  0  0
 13 22  1  0  0  0  0
 14 15  1  0  0  0  0
 14 28  1  0  0  0  0
 15 16  2  0  0  0  0
 16 17  1  0  0  0  0
 16 27  1  0  0  0  0
 17 18  2  0  0  0  0
 17 22  1  0  0  0  0
 18 19  1  0  0  0  0
 18 26  1  0  0  0  0
 19 20  2  0  0  0  0
 19 25  1  0  0  0  0
 20 21  1  0  0  0  0
 20 24  1  0  0  0  0
 21 22  2  0  0  0  0
 21 23  1  0  0  0  0
 31 32  1  0  0  0  0
 31 35  1  0  0  0  0
 31 36  1  0  0  0  0
 32 33  1  0  0  0  0
 32 34  1  0  0  0  0
M  END
>  <MODEL>
       1

$$$$
