output/tmp_first_model_10_71.pdb
 OpenBabel07242618173D

 50 54  0  0  1  0  0  0  0  0999 V2000
   -8.3540   -4.1610  -23.4470 C   0  0  0  0  0  0  0  0  0  0  0  0
   -8.5500   -2.9960  -22.4930 C   0  0  1  0  0  0  0  0  0  0  0  0
   -7.4030   -2.8080  -21.4930 C   0  0  0  0  0  0  0  0  0  0  0  0
   -7.4540   -1.3850  -21.1970 N   0  0  0  0  0  0  0  0  0  0  0  0
   -6.6710   -0.7850  -20.1840 C   0  0  0  0  0  0  0  0  0  0  0  0
   -6.9210   -1.1040  -18.8720 C   0  0  0  0  0  0  0  0  0  0  0  0
   -6.2340   -0.6200  -17.8120 N   0  0  0  0  0  0  0  0  0  0  0  0
   -5.2190    0.1700  -18.0770 C   0  0  0  0  0  0  0  0  0  0  0  0
   -4.8410    0.5730  -19.3910 C   0  0  0  0  0  0  0  0  0  0  0  0
   -3.7440    1.4500  -19.5940 C   0  0  0  0  0  0  0  0  0  0  0  0
   -3.4840    1.9480  -20.8420 C   0  0  0  0  0  0  0  0  0  0  0  0
   -4.2600    1.5250  -21.9460 C   0  0  0  0  0  0  0  0  0  0  0  0
   -5.2730    0.6150  -21.7880 C   0  0  0  0  0  0  0  0  0  0  0  0
   -5.6030    0.1210  -20.4900 C   0  0  0  0  0  0  0  0  0  0  0  0
   -5.8450    0.3090  -22.6570 H   0  0  0  0  0  0  0  0  0  0  0  0
   -4.0640    1.9570  -22.9240 H   0  0  0  0  0  0  0  0  0  0  0  0
   -2.7160    2.6990  -20.9850 H   0  0  0  0  0  0  0  0  0  0  0  0
   -3.1440    1.7360  -18.7350 H   0  0  0  0  0  0  0  0  0  0  0  0
   -4.6520    0.5490  -17.2250 H   0  0  0  0  0  0  0  0  0  0  0  0
   -7.7390   -1.7840  -18.6360 H   0  0  0  0  0  0  0  0  0  0  0  0
   -8.1850   -0.6510  -22.1080 C   0  0  0  0  0  0  0  0  0  0  0  0
   -8.3110    0.5570  -22.0810 O   0  0  0  0  0  0  0  0  0  0  0  0
   -8.7530   -1.5960  -23.1750 C   0  0  1  0  0  0  0  0  0  0  0  0
   -7.9340   -1.3340  -24.4690 C   0  0  0  0  0  0  0  0  0  0  0  0
   -8.5510   -1.9410  -25.6470 N   0  0  0  0  0  0  0  0  0  0  0  0
   -7.7670   -2.4230  -26.7710 C   0  0  0  0  0  0  0  0  0  0  0  0
   -7.9140   -3.8800  -26.9290 C   0  0  0  0  0  0  0  0  0  0  0  0
   -8.0840   -5.0190  -27.0440 N   0  0  0  0  0  0  0  0  0  0  0  0
   -8.1590   -1.9570  -27.6800 H   0  0  0  0  0  0  0  0  0  0  0  0
   -6.7130   -2.1580  -26.6510 H   0  0  0  0  0  0  0  0  0  0  0  0
   -9.8890   -1.7750  -25.9160 C   0  0  0  0  0  0  0  0  0  0  0  0
  -10.3590   -1.9390  -27.0350 O   0  0  0  0  0  0  0  0  0  0  0  0
  -10.7400   -1.3970  -24.7620 C   0  0  0  0  0  0  0  0  0  0  0  0
  -12.0970   -1.1970  -25.0090 C   0  0  0  0  0  0  0  0  0  0  0  0
  -12.9660   -0.8950  -23.9830 C   0  0  0  0  0  0  0  0  0  0  0  0
  -12.4380   -0.8280  -22.6990 C   0  0  0  0  0  0  0  0  0  0  0  0
  -13.2780   -0.5880  -21.6860 F   0  0  0  0  0  0  0  0  0  0  0  0
  -11.0940   -1.0190  -22.4300 C   0  0  0  0  0  0  0  0  0  0  0  0
  -10.2120   -1.3060  -23.4740 C   0  0  0  0  0  0  0  0  0  0  0  0
  -10.7210   -0.9400  -21.4180 H   0  0  0  0  0  0  0  0  0  0  0  0
  -14.0220   -0.7240  -24.1640 H   0  0  0  0  0  0  0  0  0  0  0  0
  -12.4430   -1.3010  -26.0300 H   0  0  0  0  0  0  0  0  0  0  0  0
   -6.9110   -1.7170  -24.3580 H   0  0  0  0  0  0  0  0  0  0  0  0
   -7.8620   -0.2400  -24.6010 H   0  0  0  0  0  0  0  0  0  0  0  0
   -7.5500   -3.3990  -20.5830 H   0  0  0  0  0  0  0  0  0  0  0  0
   -6.4270   -3.0960  -21.9130 H   0  0  0  0  0  0  0  0  0  0  0  0
   -9.4590   -3.1710  -21.8990 H   0  0  0  0  0  0  0  0  0  0  0  0
   -7.4500   -4.0100  -24.0470 H   0  0  0  0  0  0  0  0  0  0  0  0
   -8.2550   -5.1000  -22.8940 H   0  0  0  0  0  0  0  0  0  0  0  0
   -9.2060   -4.2340  -24.1280 H   0  0  0  0  0  0  0  0  0  0  0  0
  1  2  1  0  0  0  0
  1 48  1  0  0  0  0
  1 49  1  0  0  0  0
  1 50  1  0  0  0  0
  2  3  1  0  0  0  0
  2 23  1  0  0  0  0
  2 47  1  1  0  0  0
  3  4  1  0  0  0  0
  3 45  1  0  0  0  0
  3 46  1  0  0  0  0
  4  5  1  0  0  0  0
  4 21  1  0  0  0  0
  5  6  2  0  0  0  0
  5 14  1  0  0  0  0
  6  7  1  0  0  0  0
  6 20  1  0  0  0  0
  7  8  2  0  0  0  0
  8  9  1  0  0  0  0
  8 19  1  0  0  0  0
  9 10  2  0  0  0  0
  9 14  1  0  0  0  0
 10 11  1  0  0  0  0
 10 18  1  0  0  0  0
 11 12  2  0  0  0  0
 11 17  1  0  0  0  0
 12 13  1  0  0  0  0
 12 16  1  0  0  0  0
 13 14  2  0  0  0  0
 13 15  1  0  0  0  0
 21 22  2  0  0  0  0
 23 21  1  1  0  0  0
 23 24  1  0  0  0  0
 23 39  1  0  0  0  0
 24 25  1  0  0  0  0
 24 43  1  0  0  0  0
 24 44  1  0  0  0  0
 25 26  1  0  0  0  0
 25 31  1  0  0  0  0
 26 27  1  0  0  0  0
 26 29  1  0  0  0  0
 26 30  1  0  0  0  0
 27 28  3  0  0  0  0
 31 32  2  0  0  0  0
 31 33  1  0  0  0  0
 33 34  2  0  0  0  0
 33 39  1  0  0  0  0
 34 35  1  0  0  0  0
 34 42  1  0  0  0  0
 35 36  2  0  0  0  0
 35 41  1  0  0  0  0
 36 37  1  0  0  0  0
 36 38  1  0  0  0  0
 38 39  2  0  0  0  0
 38 40  1  0  0  0  0
M  END
>  <MODEL>
       1

$$$$
