output/tmp_first_model_20_55.pdb
 OpenBabel07242623363D

 61 66  0  0  1  0  0  0  0  0999 V2000
   -5.4860   -3.1700  -25.0080 C   0  0  0  0  0  0  0  0  0  0  0  0
   -6.2780   -2.6970  -23.9430 O   0  0  0  0  0  0  0  0  0  0  0  0
   -7.4530   -3.4670  -23.7960 C   0  0  0  0  0  0  0  0  0  0  0  0
   -8.3750   -2.8780  -22.7260 C   0  0  1  0  0  0  0  0  0  0  0  0
   -7.6520   -2.7420  -21.3720 C   0  0  0  0  0  0  0  0  0  0  0  0
   -7.4050   -1.3260  -21.2400 N   0  0  0  0  0  0  0  0  0  0  0  0
   -6.6000   -0.7930  -20.2080 C   0  0  0  0  0  0  0  0  0  0  0  0
   -6.8920   -1.0590  -18.8930 C   0  0  0  0  0  0  0  0  0  0  0  0
   -6.2030   -0.5610  -17.8390 N   0  0  0  0  0  0  0  0  0  0  0  0
   -5.1710    0.2040  -18.0980 C   0  0  0  0  0  0  0  0  0  0  0  0
   -4.7310    0.5190  -19.4150 C   0  0  0  0  0  0  0  0  0  0  0  0
   -3.5970    1.3420  -19.6420 C   0  0  0  0  0  0  0  0  0  0  0  0
   -3.1800    1.6170  -20.9150 C   0  0  0  0  0  0  0  0  0  0  0  0
   -3.8760    1.0780  -22.0210 C   0  0  0  0  0  0  0  0  0  0  0  0
   -4.9790    0.2830  -21.8340 C   0  0  0  0  0  0  0  0  0  0  0  0
   -5.4490    0.0000  -20.5160 C   0  0  0  0  0  0  0  0  0  0  0  0
   -5.4970   -0.1360  -22.6920 H   0  0  0  0  0  0  0  0  0  0  0  0
   -3.5360    1.3070  -23.0290 H   0  0  0  0  0  0  0  0  0  0  0  0
   -2.3180    2.2530  -21.0870 H   0  0  0  0  0  0  0  0  0  0  0  0
   -3.0740    1.7460  -18.7810 H   0  0  0  0  0  0  0  0  0  0  0  0
   -4.6170    0.6090  -17.2500 H   0  0  0  0  0  0  0  0  0  0  0  0
   -7.7520   -1.6810  -18.6410 H   0  0  0  0  0  0  0  0  0  0  0  0
   -8.1990   -0.5460  -22.0570 C   0  0  0  0  0  0  0  0  0  0  0  0
   -8.2680    0.6570  -22.0010 O   0  0  0  0  0  0  0  0  0  0  0  0
   -8.9870   -1.4760  -23.0130 C   0  0  1  0  0  0  0  0  0  0  0  0
   -8.8290   -1.0370  -24.4870 C   0  0  0  0  0  0  0  0  0  0  0  0
   -9.4790    0.2260  -24.7790 N   0  0  0  0  0  0  0  0  0  0  0  0
   -8.7760    1.2340  -25.5580 C   0  0  0  0  0  0  0  0  0  0  0  0
   -7.9640    2.1670  -24.7090 C   0  0  0  0  0  0  0  0  0  0  0  0
   -6.6520    2.1320  -24.3660 C   0  0  0  0  0  0  0  0  0  0  0  0
   -6.4390    3.1670  -23.4890 N   0  3  0  0  0  0  0  0  0  0  0  0
   -7.5820    3.8240  -23.2820 C   0  0  0  0  0  0  0  0  0  0  0  0
   -8.5260    3.2330  -24.0270 N   0  0  0  0  0  0  0  0  0  0  0  0
   -9.5170    3.4500  -24.0270 H   0  0  0  0  0  0  0  0  0  0  0  0
   -7.6940    4.6710  -22.6210 H   0  0  0  0  0  0  0  0  0  0  0  0
   -5.5910    3.2980  -22.9570 H   0  0  0  0  0  0  0  0  0  0  0  0
   -5.8420    1.4650  -24.6380 H   0  0  0  0  0  0  0  0  0  0  0  0
   -9.5450    1.7850  -26.1070 H   0  0  0  0  0  0  0  0  0  0  0  0
   -8.1400    0.7190  -26.2870 H   0  0  0  0  0  0  0  0  0  0  0  0
  -10.6840    0.5790  -24.2500 C   0  0  0  0  0  0  0  0  0  0  0  0
  -11.2330    1.6430  -24.5280 O   0  0  0  0  0  0  0  0  0  0  0  0
  -11.2730   -0.3970  -23.2900 C   0  0  0  0  0  0  0  0  0  0  0  0
  -12.6110   -0.2150  -22.9410 C   0  0  0  0  0  0  0  0  0  0  0  0
  -13.2470   -1.1180  -22.1130 C   0  0  0  0  0  0  0  0  0  0  0  0
  -12.4840   -2.1800  -21.6230 C   0  0  0  0  0  0  0  0  0  0  0  0
  -13.2380   -3.4490  -20.6920 Cl  0  0  0  0  0  0  0  0  0  0  0  0
  -11.1200   -2.2800  -21.8330 C   0  0  0  0  0  0  0  0  0  0  0  0
  -10.4880   -1.4040  -22.7180 C   0  0  0  0  0  0  0  0  0  0  0  0
  -10.5760   -3.0490  -21.2960 H   0  0  0  0  0  0  0  0  0  0  0  0
  -14.2990   -1.0100  -21.8510 H   0  0  0  0  0  0  0  0  0  0  0  0
  -13.1210    0.6460  -23.3570 H   0  0  0  0  0  0  0  0  0  0  0  0
   -7.7780   -0.9580  -24.7530 H   0  0  0  0  0  0  0  0  0  0  0  0
   -9.2820   -1.8190  -25.1040 H   0  0  0  0  0  0  0  0  0  0  0  0
   -6.7050   -3.2880  -21.3360 H   0  0  0  0  0  0  0  0  0  0  0  0
   -8.2850   -3.0960  -20.5520 H   0  0  0  0  0  0  0  0  0  0  0  0
   -9.1890   -3.6030  -22.6560 H   0  0  0  0  0  0  0  0  0  0  0  0
   -7.9890   -3.5310  -24.7570 H   0  0  0  0  0  0  0  0  0  0  0  0
   -7.1910   -4.5000  -23.5090 H   0  0  0  0  0  0  0  0  0  0  0  0
   -6.0390   -3.1630  -25.9610 H   0  0  0  0  0  0  0  0  0  0  0  0
   -4.6260   -2.5040  -25.1060 H   0  0  0  0  0  0  0  0  0  0  0  0
   -5.1190   -4.1930  -24.8220 H   0  0  0  0  0  0  0  0  0  0  0  0
  1  2  1  0  0  0  0
  1 59  1  0  0  0  0
  1 60  1  0  0  0  0
  1 61  1  0  0  0  0
  2  3  1  0  0  0  0
  3  4  1  0  0  0  0
  3 57  1  0  0  0  0
  3 58  1  0  0  0  0
  4  5  1  0  0  0  0
  4 25  1  0  0  0  0
  4 56  1  1  0  0  0
  5  6  1  0  0  0  0
  5 54  1  0  0  0  0
  5 55  1  0  0  0  0
  6  7  1  0  0  0  0
  6 23  1  0  0  0  0
  7  8  2  0  0  0  0
  7 16  1  0  0  0  0
  8  9  1  0  0  0  0
  8 22  1  0  0  0  0
  9 10  2  0  0  0  0
 10 11  1  0  0  0  0
 10 21  1  0  0  0  0
 11 12  2  0  0  0  0
 11 16  1  0  0  0  0
 12 13  1  0  0  0  0
 12 20  1  0  0  0  0
 13 14  2  0  0  0  0
 13 19  1  0  0  0  0
 14 15  1  0  0  0  0
 14 18  1  0  0  0  0
 15 16  2  0  0  0  0
 15 17  1  0  0  0  0
 23 24  2  0  0  0  0
 25 23  1  1  0  0  0
 25 26  1  0  0  0  0
 25 48  1  0  0  0  0
 26 27  1  0  0  0  0
 26 52  1  0  0  0  0
 26 53  1  0  0  0  0
 27 28  1  0  0  0  0
 27 40  1  0  0  0  0
 28 29  1  0  0  0  0
 28 38  1  0  0  0  0
 28 39  1  0  0  0  0
 29 30  2  0  0  0  0
 29 33  1  0  0  0  0
 30 31  1  0  0  0  0
 30 37  1  0  0  0  0
 31 32  2  0  0  0  0
 31 36  1  0  0  0  0
 32 33  1  0  0  0  0
 32 35  1  0  0  0  0
 33 34  1  0  0  0  0
 40 41  2  0  0  0  0
 40 42  1  0  0  0  0
 42 43  2  0  0  0  0
 42 48  1  0  0  0  0
 43 44  1  0  0  0  0
 43 51  1  0  0  0  0
 44 45  2  0  0  0  0
 44 50  1  0  0  0  0
 45 46  1  0  0  0  0
 45 47  1  0  0  0  0
 47 48  2  0  0  0  0
 47 49  1  0  0  0  0
M  CHG  1  31   1
M  END
>  <MODEL>
       1

$$$$
