output/tmp_first_model_1_64.pdb
 OpenBabel07242613193D

 55 60  0  0  1  0  0  0  0  0999 V2000
  -10.2190   -2.9630  -22.0640 C   0  0  0  0  0  0  0  0  0  0  0  0
   -9.1490   -2.0210  -22.6400 C   0  0  1  0  0  0  0  0  0  0  0  0
   -8.6710   -1.0400  -21.5570 C   0  0  0  0  0  0  0  0  0  0  0  0
   -7.3420   -1.4870  -21.2140 N   0  0  0  0  0  0  0  0  0  0  0  0
   -6.5680   -0.8690  -20.2000 C   0  0  0  0  0  0  0  0  0  0  0  0
   -6.9090   -1.0620  -18.8860 C   0  0  0  0  0  0  0  0  0  0  0  0
   -6.2250   -0.5600  -17.8310 N   0  0  0  0  0  0  0  0  0  0  0  0
   -5.1880    0.1990  -18.0930 C   0  0  0  0  0  0  0  0  0  0  0  0
   -4.7460    0.5130  -19.4110 C   0  0  0  0  0  0  0  0  0  0  0  0
   -3.6220    1.3520  -19.6350 C   0  0  0  0  0  0  0  0  0  0  0  0
   -3.2290    1.6610  -20.9070 C   0  0  0  0  0  0  0  0  0  0  0  0
   -3.9460    1.1530  -22.0150 C   0  0  0  0  0  0  0  0  0  0  0  0
   -5.0390    0.3420  -21.8300 C   0  0  0  0  0  0  0  0  0  0  0  0
   -5.4560   -0.0180  -20.5130 C   0  0  0  0  0  0  0  0  0  0  0  0
   -5.5880   -0.0270  -22.6980 H   0  0  0  0  0  0  0  0  0  0  0  0
   -3.6290    1.4110  -23.0230 H   0  0  0  0  0  0  0  0  0  0  0  0
   -2.3690    2.3030  -21.0800 H   0  0  0  0  0  0  0  0  0  0  0  0
   -3.0940    1.7480  -18.7710 H   0  0  0  0  0  0  0  0  0  0  0  0
   -4.6380    0.6110  -17.2450 H   0  0  0  0  0  0  0  0  0  0  0  0
   -7.7670   -1.6870  -18.6400 H   0  0  0  0  0  0  0  0  0  0  0  0
   -6.8270   -2.4450  -22.0580 C   0  0  0  0  0  0  0  0  0  0  0  0
   -5.7360   -2.9500  -21.9230 O   0  0  0  0  0  0  0  0  0  0  0  0
   -7.8570   -2.7040  -23.1840 C   0  0  1  0  0  0  0  0  0  0  0  0
   -8.1060   -4.2060  -23.4330 C   0  0  0  0  0  0  0  0  0  0  0  0
   -7.1050   -4.8830  -24.2370 N   0  0  0  0  0  0  0  0  0  0  0  0
   -6.7170   -6.2300  -23.8470 C   0  0  0  0  0  0  0  0  0  0  0  0
   -5.5500   -6.1470  -22.9080 C   0  0  0  0  0  0  0  0  0  0  0  0
   -4.2670   -5.9780  -23.3320 N   0  0  0  0  0  0  0  0  0  0  0  0
   -3.6020   -5.8220  -22.2130 C   0  0  0  0  0  0  0  0  0  0  0  0
   -4.4540   -5.8700  -21.1730 N   0  0  0  0  0  0  0  0  0  0  0  0
   -5.7110   -6.0890  -21.5990 N   0  0  0  0  0  0  0  0  0  0  0  0
   -4.2530   -5.8320  -20.1910 H   0  0  0  0  0  0  0  0  0  0  0  0
   -2.5280   -5.7090  -22.1260 H   0  0  0  0  0  0  0  0  0  0  0  0
   -7.5720   -6.6950  -23.3470 H   0  0  0  0  0  0  0  0  0  0  0  0
   -6.4710   -6.7740  -24.7640 H   0  0  0  0  0  0  0  0  0  0  0  0
   -6.3290   -4.2750  -25.1740 C   0  0  0  0  0  0  0  0  0  0  0  0
   -5.4570   -4.8710  -25.7930 O   0  0  0  0  0  0  0  0  0  0  0  0
   -6.6130   -2.8370  -25.3910 C   0  0  0  0  0  0  0  0  0  0  0  0
   -6.0830   -2.2840  -26.5520 C   0  0  0  0  0  0  0  0  0  0  0  0
   -6.3070   -0.9570  -26.8480 C   0  0  0  0  0  0  0  0  0  0  0  0
   -7.0370   -0.2030  -25.9340 C   0  0  0  0  0  0  0  0  0  0  0  0
   -7.2580    1.0950  -26.2090 F   0  0  0  0  0  0  0  0  0  0  0  0
   -7.5450   -0.7250  -24.7580 C   0  0  0  0  0  0  0  0  0  0  0  0
   -7.3530   -2.0820  -24.4780 C   0  0  0  0  0  0  0  0  0  0  0  0
   -8.1040   -0.0710  -24.0940 H   0  0  0  0  0  0  0  0  0  0  0  0
   -5.9330   -0.4880  -27.7510 H   0  0  0  0  0  0  0  0  0  0  0  0
   -5.5060   -2.9460  -27.1920 H   0  0  0  0  0  0  0  0  0  0  0  0
   -9.0860   -4.3060  -23.9130 H   0  0  0  0  0  0  0  0  0  0  0  0
   -8.1360   -4.7060  -22.4630 H   0  0  0  0  0  0  0  0  0  0  0  0
   -8.6650    0.0040  -21.8930 H   0  0  0  0  0  0  0  0  0  0  0  0
   -9.3210   -1.0830  -20.6880 H   0  0  0  0  0  0  0  0  0  0  0  0
   -9.6250   -1.4860  -23.4650 H   0  0  0  0  0  0  0  0  0  0  0  0
  -11.0710   -2.3870  -21.6910 H   0  0  0  0  0  0  0  0  0  0  0  0
  -10.6120   -3.6470  -22.8200 H   0  0  0  0  0  0  0  0  0  0  0  0
   -9.8300   -3.5600  -21.2310 H   0  0  0  0  0  0  0  0  0  0  0  0
  1  2  1  0  0  0  0
  1 53  1  0  0  0  0
  1 54  1  0  0  0  0
  1 55  1  0  0  0  0
  2  3  1  0  0  0  0
  2 23  1  0  0  0  0
  2 52  1  6  0  0  0
  3  4  1  0  0  0  0
  3 50  1  0  0  0  0
  3 51  1  0  0  0  0
  4  5  1  0  0  0  0
  4 21  1  0  0  0  0
  5  6  2  0  0  0  0
  5 14  1  0  0  0  0
  6  7  1  0  0  0  0
  6 20  1  0  0  0  0
  7  8  2  0  0  0  0
  8  9  1  0  0  0  0
  8 19  1  0  0  0  0
  9 10  2  0  0  0  0
  9 14  1  0  0  0  0
 10 11  1  0  0  0  0
 10 18  1  0  0  0  0
 11 12  2  0  0  0  0
 11 17  1  0  0  0  0
 12 13  1  0  0  0  0
 12 16  1  0  0  0  0
 13 14  2  0  0  0  0
 13 15  1  0  0  0  0
 21 22  2  0  0  0  0
 23 21  1  1  0  0  0
 23 24  1  0  0  0  0
 23 44  1  0  0  0  0
 24 25  1  0  0  0  0
 24 48  1  0  0  0  0
 24 49  1  0  0  0  0
 25 26  1  0  0  0  0
 25 36  1  0  0  0  0
 26 27  1  0  0  0  0
 26 34  1  0  0  0  0
 26 35  1  0  0  0  0
 27 28  1  0  0  0  0
 27 31  2  0  0  0  0
 28 29  2  0  0  0  0
 29 30  1  0  0  0  0
 29 33  1  0  0  0  0
 30 31  1  0  0  0  0
 30 32  1  0  0  0  0
 36 37  2  0  0  0  0
 36 38  1  0  0  0  0
 38 39  2  0  0  0  0
 38 44  1  0  0  0  0
 39 40  1  0  0  0  0
 39 47  1  0  0  0  0
 40 41  2  0  0  0  0
 40 46  1  0  0  0  0
 41 42  1  0  0  0  0
 41 43  1  0  0  0  0
 43 44  2  0  0  0  0
 43 45  1  0  0  0  0
M  END
>  <MODEL>
       1

$$$$
