output/tmp_first_model_18_64.pdb
 OpenBabel07242622363D

 55 60  0  0  1  0  0  0  0  0999 V2000
  -10.1780   -1.0070  -23.6830 C   0  0  0  0  0  0  0  0  0  0  0  0
   -8.8370   -1.3500  -23.0520 C   0  0  1  0  0  0  0  0  0  0  0  0
   -8.3880   -0.4160  -21.9150 C   0  0  0  0  0  0  0  0  0  0  0  0
   -7.3840   -1.2140  -21.2250 N   0  0  0  0  0  0  0  0  0  0  0  0
   -6.5850   -0.7380  -20.1550 C   0  0  0  0  0  0  0  0  0  0  0  0
   -6.8830   -1.0350  -18.8490 C   0  0  0  0  0  0  0  0  0  0  0  0
   -6.2110   -0.5250  -17.7820 N   0  0  0  0  0  0  0  0  0  0  0  0
   -5.1980    0.2740  -18.0240 C   0  0  0  0  0  0  0  0  0  0  0  0
   -4.7440    0.6150  -19.3340 C   0  0  0  0  0  0  0  0  0  0  0  0
   -3.6060    1.4290  -19.5770 C   0  0  0  0  0  0  0  0  0  0  0  0
   -3.1860    1.6650  -20.8570 C   0  0  0  0  0  0  0  0  0  0  0  0
   -3.8760    1.1090  -21.9550 C   0  0  0  0  0  0  0  0  0  0  0  0
   -4.9890    0.3360  -21.7520 C   0  0  0  0  0  0  0  0  0  0  0  0
   -5.4490    0.0820  -20.4350 C   0  0  0  0  0  0  0  0  0  0  0  0
   -5.5110   -0.1120  -22.5910 H   0  0  0  0  0  0  0  0  0  0  0  0
   -3.5240    1.2860  -22.9650 H   0  0  0  0  0  0  0  0  0  0  0  0
   -2.3120    2.2830  -21.0430 H   0  0  0  0  0  0  0  0  0  0  0  0
   -3.0780    1.8560  -18.7300 H   0  0  0  0  0  0  0  0  0  0  0  0
   -4.6620    0.6730  -17.1600 H   0  0  0  0  0  0  0  0  0  0  0  0
   -7.7040   -1.7090  -18.6110 H   0  0  0  0  0  0  0  0  0  0  0  0
   -7.5220   -2.5650  -21.4660 C   0  0  0  0  0  0  0  0  0  0  0  0
   -6.8140   -3.4200  -20.9700 O   0  0  0  0  0  0  0  0  0  0  0  0
   -8.6930   -2.7810  -22.4320 C   0  0  1  0  0  0  0  0  0  0  0  0
   -9.9130   -3.1690  -21.5520 C   0  0  0  0  0  0  0  0  0  0  0  0
  -11.0440   -3.6490  -22.3180 N   0  0  0  0  0  0  0  0  0  0  0  0
  -12.3870   -3.5950  -21.7600 C   0  0  0  0  0  0  0  0  0  0  0  0
  -13.2560   -2.4740  -22.2470 C   0  0  0  0  0  0  0  0  0  0  0  0
  -13.3370   -2.0940  -23.5530 N   0  0  0  0  0  0  0  0  0  0  0  0
  -14.2390   -1.1300  -23.5230 C   0  0  0  0  0  0  0  0  0  0  0  0
  -14.6870   -0.9540  -22.2710 N   0  0  0  0  0  0  0  0  0  0  0  0
  -14.0600   -1.8190  -21.4320 N   0  0  0  0  0  0  0  0  0  0  0  0
  -15.2270   -0.1870  -21.8890 H   0  0  0  0  0  0  0  0  0  0  0  0
  -14.5970   -0.5640  -24.3720 H   0  0  0  0  0  0  0  0  0  0  0  0
  -12.3710   -3.5310  -20.6760 H   0  0  0  0  0  0  0  0  0  0  0  0
  -12.8860   -4.5270  -22.0320 H   0  0  0  0  0  0  0  0  0  0  0  0
  -10.8380   -4.5200  -23.3450 C   0  0  0  0  0  0  0  0  0  0  0  0
  -11.7500   -5.1650  -23.8280 O   0  0  0  0  0  0  0  0  0  0  0  0
   -9.4610   -4.6850  -23.8740 C   0  0  0  0  0  0  0  0  0  0  0  0
   -9.2820   -5.6700  -24.8480 C   0  0  0  0  0  0  0  0  0  0  0  0
   -8.0400   -5.8880  -25.4070 C   0  0  0  0  0  0  0  0  0  0  0  0
   -6.9930   -5.0800  -24.9740 C   0  0  0  0  0  0  0  0  0  0  0  0
   -5.7720   -5.2950  -25.4950 F   0  0  0  0  0  0  0  0  0  0  0  0
   -7.1500   -4.0840  -24.0240 C   0  0  0  0  0  0  0  0  0  0  0  0
   -8.4130   -3.8740  -23.4450 C   0  0  0  0  0  0  0  0  0  0  0  0
   -6.2780   -3.5160  -23.7150 H   0  0  0  0  0  0  0  0  0  0  0  0
   -7.8590   -6.6570  -26.1530 H   0  0  0  0  0  0  0  0  0  0  0  0
  -10.1440   -6.2570  -25.1500 H   0  0  0  0  0  0  0  0  0  0  0  0
   -9.5800   -3.9310  -20.8390 H   0  0  0  0  0  0  0  0  0  0  0  0
  -10.2520   -2.2980  -20.9880 H   0  0  0  0  0  0  0  0  0  0  0  0
   -7.9680    0.5280  -22.2730 H   0  0  0  0  0  0  0  0  0  0  0  0
   -9.2250   -0.1730  -21.2430 H   0  0  0  0  0  0  0  0  0  0  0  0
   -8.0780   -1.2880  -23.8430 H   0  0  0  0  0  0  0  0  0  0  0  0
  -10.9920   -1.0150  -22.9600 H   0  0  0  0  0  0  0  0  0  0  0  0
  -10.1580   -0.0130  -24.1350 H   0  0  0  0  0  0  0  0  0  0  0  0
  -10.4390   -1.7240  -24.4670 H   0  0  0  0  0  0  0  0  0  0  0  0
  1  2  1  0  0  0  0
  1 53  1  0  0  0  0
  1 54  1  0  0  0  0
  1 55  1  0  0  0  0
  2  3  1  0  0  0  0
  2 23  1  0  0  0  0
  2 52  1  6  0  0  0
  3  4  1  0  0  0  0
  3 50  1  0  0  0  0
  3 51  1  0  0  0  0
  4  5  1  0  0  0  0
  4 21  1  0  0  0  0
  5  6  2  0  0  0  0
  5 14  1  0  0  0  0
  6  7  1  0  0  0  0
  6 20  1  0  0  0  0
  7  8  2  0  0  0  0
  8  9  1  0  0  0  0
  8 19  1  0  0  0  0
  9 10  2  0  0  0  0
  9 14  1  0  0  0  0
 10 11  1  0  0  0  0
 10 18  1  0  0  0  0
 11 12  2  0  0  0  0
 11 17  1  0  0  0  0
 12 13  1  0  0  0  0
 12 16  1  0  0  0  0
 13 14  2  0  0  0  0
 13 15  1  0  0  0  0
 21 22  2  0  0  0  0
 23 21  1  1  0  0  0
 23 24  1  0  0  0  0
 23 44  1  0  0  0  0
 24 25  1  0  0  0  0
 24 48  1  0  0  0  0
 24 49  1  0  0  0  0
 25 26  1  0  0  0  0
 25 36  1  0  0  0  0
 26 27  1  0  0  0  0
 26 34  1  0  0  0  0
 26 35  1  0  0  0  0
 27 28  1  0  0  0  0
 27 31  2  0  0  0  0
 28 29  2  0  0  0  0
 29 30  1  0  0  0  0
 29 33  1  0  0  0  0
 30 31  1  0  0  0  0
 30 32  1  0  0  0  0
 36 37  2  0  0  0  0
 36 38  1  0  0  0  0
 38 39  2  0  0  0  0
 38 44  1  0  0  0  0
 39 40  1  0  0  0  0
 39 47  1  0  0  0  0
 40 41  2  0  0  0  0
 40 46  1  0  0  0  0
 41 42  1  0  0  0  0
 41 43  1  0  0  0  0
 43 44  2  0  0  0  0
 43 45  1  0  0  0  0
M  END
>  <MODEL>
       1

$$$$
