output/tmp_first_model_20_39.pdb
 OpenBabel07242623363D

 40 44  0  0  1  0  0  0  0  0999 V2000
   -7.2310    0.9540  -25.6020 C   0  0  0  0  0  0  0  0  0  0  0  0
   -6.5000   -0.3690  -25.4060 C   0  0  0  0  0  0  0  0  0  0  0  0
   -5.2970   -0.4730  -25.5780 O   0  0  0  0  0  0  0  0  0  0  0  0
   -7.2550   -1.4520  -25.0430 N   0  0  0  0  0  0  0  0  0  0  0  0
   -6.6460   -2.7650  -24.7200 C   0  0  0  0  0  0  0  0  0  0  0  0
   -7.8230   -3.4990  -24.0350 C   0  0  2  0  0  0  0  0  0  0  0  0
   -8.9950   -2.9680  -24.8670 C   0  0  0  0  0  0  0  0  0  0  0  0
   -8.6590   -1.5010  -24.5570 C   0  0  1  0  0  0  0  0  0  0  0  0
   -8.5980   -1.5860  -23.0830 C   0  0  0  0  0  0  0  0  0  0  0  0
   -8.1610   -0.6190  -22.1230 C   0  0  0  0  0  0  0  0  0  0  0  0
   -8.3140    0.5800  -22.0790 O   0  5  0  0  0  0  0  0  0  0  0  0
   -7.4070   -1.4000  -21.1910 N   0  0  0  0  0  0  0  0  0  0  0  0
   -6.5880   -0.8210  -20.1760 C   0  0  0  0  0  0  0  0  0  0  0  0
   -6.8830   -1.0540  -18.8590 C   0  0  0  0  0  0  0  0  0  0  0  0
   -6.1880   -0.5380  -17.8150 N   0  0  0  0  0  0  0  0  0  0  0  0
   -5.1570    0.2220  -18.0730 C   0  0  0  0  0  0  0  0  0  0  0  0
   -4.7200    0.5340  -19.3910 C   0  0  0  0  0  0  0  0  0  0  0  0
   -3.5870    1.3600  -19.6300 C   0  0  0  0  0  0  0  0  0  0  0  0
   -3.1880    1.6250  -20.9100 C   0  0  0  0  0  0  0  0  0  0  0  0
   -3.8910    1.0730  -22.0040 C   0  0  0  0  0  0  0  0  0  0  0  0
   -4.9840    0.2720  -21.7960 C   0  0  0  0  0  0  0  0  0  0  0  0
   -5.4430   -0.0080  -20.4810 C   0  0  0  0  0  0  0  0  0  0  0  0
   -5.5140   -0.1500  -22.6450 H   0  0  0  0  0  0  0  0  0  0  0  0
   -3.5730    1.2880  -23.0200 H   0  0  0  0  0  0  0  0  0  0  0  0
   -2.3290    2.2620  -21.1010 H   0  0  0  0  0  0  0  0  0  0  0  0
   -3.0500    1.7740  -18.7800 H   0  0  0  0  0  0  0  0  0  0  0  0
   -4.6060    0.6240  -17.2190 H   0  0  0  0  0  0  0  0  0  0  0  0
   -7.7360   -1.6740  -18.5970 H   0  0  0  0  0  0  0  0  0  0  0  0
   -7.2460   -2.7310  -21.6340 C   0  0  0  0  0  0  0  0  0  0  0  0
   -6.5150   -3.5740  -21.1700 O   0  0  0  0  0  0  0  0  0  0  0  0
   -8.0970   -2.8220  -22.7430 N   0  0  0  0  0  0  0  0  0  0  0  0
   -9.2950   -0.7200  -24.9740 H   0  0  0  0  0  0  0  0  0  0  0  0
   -9.9610   -3.2810  -24.4790 H   0  0  0  0  0  0  0  0  0  0  0  0
   -8.9160   -3.2080  -25.9300 H   0  0  0  0  0  0  0  0  0  0  0  0
   -7.7300   -4.5730  -23.9230 H   0  0  0  0  0  0  0  0  0  0  0  0
   -5.7870   -2.6790  -24.0510 H   0  0  0  0  0  0  0  0  0  0  0  0
   -6.3240   -3.2730  -25.6340 H   0  0  0  0  0  0  0  0  0  0  0  0
   -6.4990    1.6970  -25.9130 H   0  0  0  0  0  0  0  0  0  0  0  0
   -7.7130    1.2970  -24.6830 H   0  0  0  0  0  0  0  0  0  0  0  0
   -7.9970    0.8940  -26.3820 H   0  0  0  0  0  0  0  0  0  0  0  0
  1  2  1  0  0  0  0
  1 38  1  0  0  0  0
  1 39  1  0  0  0  0
  1 40  1  0  0  0  0
  2  3  2  0  0  0  0
  2  4  1  0  0  0  0
  4  5  1  0  0  0  0
  4  8  1  0  0  0  0
  5  6  1  0  0  0  0
  5 36  1  0  0  0  0
  5 37  1  0  0  0  0
  6  7  1  0  0  0  0
  6 31  1  0  0  0  0
  6 35  1  1  0  0  0
  7  8  1  0  0  0  0
  7 33  1  0  0  0  0
  7 34  1  0  0  0  0
  8  9  1  0  0  0  0
  8 32  1  6  0  0  0
  9 10  2  0  0  0  0
  9 31  1  0  0  0  0
 10 11  1  0  0  0  0
 10 12  1  0  0  0  0
 12 13  1  0  0  0  0
 12 29  1  0  0  0  0
 13 14  2  0  0  0  0
 13 22  1  0  0  0  0
 14 15  1  0  0  0  0
 14 28  1  0  0  0  0
 15 16  2  0  0  0  0
 16 17  1  0  0  0  0
 16 27  1  0  0  0  0
 17 18  2  0  0  0  0
 17 22  1  0  0  0  0
 18 19  1  0  0  0  0
 18 26  1  0  0  0  0
 19 20  2  0  0  0  0
 19 25  1  0  0  0  0
 20 21  1  0  0  0  0
 20 24  1  0  0  0  0
 21 22  2  0  0  0  0
 21 23  1  0  0  0  0
 29 30  2  0  0  0  0
 29 31  1  0  0  0  0
M  CHG  1  11  -1
M  END
>  <MODEL>
       1

$$$$
