output/tmp_first_model_12_18.pdb
 OpenBabel07242619253D

 56 61  0  0  1  0  0  0  0  0999 V2000
  -10.2060   -2.9500  -22.0460 C   0  0  0  0  0  0  0  0  0  0  0  0
   -9.1610   -1.9980  -22.6500 C   0  0  1  0  0  0  0  0  0  0  0  0
   -8.7210   -0.9510  -21.6040 C   0  0  0  0  0  0  0  0  0  0  0  0
   -7.4090   -1.3890  -21.1930 N   0  0  0  0  0  0  0  0  0  0  0  0
   -6.6500   -0.7690  -20.1710 C   0  0  0  0  0  0  0  0  0  0  0  0
   -6.9510   -1.0240  -18.8590 C   0  0  0  0  0  0  0  0  0  0  0  0
   -6.2500   -0.5450  -17.8030 N   0  0  0  0  0  0  0  0  0  0  0  0
   -5.2140    0.2150  -18.0670 C   0  0  0  0  0  0  0  0  0  0  0  0
   -4.8040    0.5740  -19.3820 C   0  0  0  0  0  0  0  0  0  0  0  0
   -3.6720    1.3990  -19.6040 C   0  0  0  0  0  0  0  0  0  0  0  0
   -3.3380    1.7920  -20.8700 C   0  0  0  0  0  0  0  0  0  0  0  0
   -4.1320    1.3900  -21.9690 C   0  0  0  0  0  0  0  0  0  0  0  0
   -5.2170    0.5670  -21.7880 C   0  0  0  0  0  0  0  0  0  0  0  0
   -5.5620    0.1100  -20.4800 C   0  0  0  0  0  0  0  0  0  0  0  0
   -5.8060    0.2480  -22.6490 H   0  0  0  0  0  0  0  0  0  0  0  0
   -3.8600    1.7200  -22.9680 H   0  0  0  0  0  0  0  0  0  0  0  0
   -2.4730    2.4280  -21.0370 H   0  0  0  0  0  0  0  0  0  0  0  0
   -3.0960    1.7230  -18.7400 H   0  0  0  0  0  0  0  0  0  0  0  0
   -4.6430    0.5940  -17.2180 H   0  0  0  0  0  0  0  0  0  0  0  0
   -7.7910   -1.6750  -18.6160 H   0  0  0  0  0  0  0  0  0  0  0  0
   -6.8430   -2.3420  -22.0070 C   0  0  0  0  0  0  0  0  0  0  0  0
   -5.7310   -2.7980  -21.8400 O   0  0  0  0  0  0  0  0  0  0  0  0
   -7.8340   -2.6760  -23.1440 C   0  0  1  0  0  0  0  0  0  0  0  0
   -7.9840   -4.2060  -23.3470 C   0  0  0  0  0  0  0  0  0  0  0  0
   -6.8020   -4.8350  -23.9310 N   0  0  0  0  0  0  0  0  0  0  0  0
   -6.4060   -6.1910  -23.5310 C   0  0  0  0  0  0  0  0  0  0  0  0
   -5.3490   -6.1750  -22.5270 C   0  0  0  0  0  0  0  0  0  0  0  0
   -3.8310   -6.2860  -22.8380 C   0  0  0  0  0  0  0  0  0  0  0  0
   -3.9830   -6.1480  -23.0330 C   0  0  0  0  0  0  0  0  0  0  0  0
   -4.8410   -5.8550  -20.4280 N   0  0  0  0  0  0  0  0  0  0  0  0
   -5.8000   -6.0210  -21.2450 N   0  0  0  0  0  0  0  0  0  0  0  0
   -5.2830   -5.6810  -19.5180 H   0  0  0  0  0  0  0  0  0  0  0  0
   -1.7110   -5.4490  -23.6390 H   0  0  0  0  0  0  0  0  0  0  0  0
   -2.9880   -5.7270  -23.4520 H   0  0  0  0  0  0  0  0  0  0  0  0
   -7.2790   -6.6730  -23.0820 H   0  0  0  0  0  0  0  0  0  0  0  0
   -6.1330   -6.7430  -24.4370 H   0  0  0  0  0  0  0  0  0  0  0  0
   -6.2150   -4.3010  -25.0440 C   0  0  0  0  0  0  0  0  0  0  0  0
   -5.4480   -4.9460  -25.7460 O   0  0  0  0  0  0  0  0  0  0  0  0
   -6.5630   -2.8670  -25.3450 C   0  0  0  0  0  0  0  0  0  0  0  0
   -6.0650   -2.3290  -26.5300 C   0  0  0  0  0  0  0  0  0  0  0  0
   -6.2920   -1.0080  -26.8600 C   0  0  0  0  0  0  0  0  0  0  0  0
   -7.0140   -0.2370  -25.9580 C   0  0  0  0  0  0  0  0  0  0  0  0
   -7.2370    1.0530  -26.2650 F   0  0  0  0  0  0  0  0  0  0  0  0
   -7.5160   -0.7380  -24.7700 C   0  0  0  0  0  0  0  0  0  0  0  0
   -7.3150   -2.0880  -24.4550 C   0  0  0  0  0  0  0  0  0  0  0  0
   -8.0750   -0.0620  -24.1290 H   0  0  0  0  0  0  0  0  0  0  0  0
   -5.9260   -0.5680  -27.7820 H   0  0  0  0  0  0  0  0  0  0  0  0
   -5.4940   -2.9830  -27.1780 H   0  0  0  0  0  0  0  0  0  0  0  0
   -8.8480   -4.3710  -24.0060 H   0  0  0  0  0  0  0  0  0  0  0  0
   -8.2010   -4.6870  -22.3930 H   0  0  0  0  0  0  0  0  0  0  0  0
   -9.4010   -0.9280  -20.7540 H   0  0  0  0  0  0  0  0  0  0  0  0
   -8.6980    0.0710  -22.0100 H   0  0  0  0  0  0  0  0  0  0  0  0
   -9.6470   -1.5050  -23.4990 H   0  0  0  0  0  0  0  0  0  0  0  0
  -11.0730   -2.3850  -21.6840 H   0  0  0  0  0  0  0  0  0  0  0  0
   -9.8030   -3.5150  -21.1980 H   0  0  0  0  0  0  0  0  0  0  0  0
  -10.5780   -3.6640  -22.7880 H   0  0  0  0  0  0  0  0  0  0  0  0
  1  2  1  0  0  0  0
  1 54  1  0  0  0  0
  1 55  1  0  0  0  0
  1 56  1  0  0  0  0
  2  3  1  0  0  0  0
  2 23  1  0  0  0  0
  2 53  1  6  0  0  0
  3  4  1  0  0  0  0
  3 51  1  0  0  0  0
  3 52  1  0  0  0  0
  4  5  1  0  0  0  0
  4 21  1  0  0  0  0
  5  6  2  0  0  0  0
  5 14  1  0  0  0  0
  6  7  1  0  0  0  0
  6 20  1  0  0  0  0
  7  8  2  0  0  0  0
  8  9  1  0  0  0  0
  8 19  1  0  0  0  0
  9 10  2  0  0  0  0
  9 14  1  0  0  0  0
 10 11  1  0  0  0  0
 10 18  1  0  0  0  0
 11 12  2  0  0  0  0
 11 17  1  0  0  0  0
 12 13  1  0  0  0  0
 12 16  1  0  0  0  0
 13 14  2  0  0  0  0
 13 15  1  0  0  0  0
 21 22  2  0  0  0  0
 23 21  1  1  0  0  0
 23 24  1  0  0  0  0
 23 45  1  0  0  0  0
 24 25  1  0  0  0  0
 24 49  1  0  0  0  0
 24 50  1  0  0  0  0
 25 26  1  0  0  0  0
 25 37  1  0  0  0  0
 26 27  1  0  0  0  0
 26 35  1  0  0  0  0
 26 36  1  0  0  0  0
 27 28  1  0  0  0  0
 27 31  2  0  0  0  0
 28 29  2  0  0  0  0
 28 34  1  0  0  0  0
 29 30  1  0  0  0  0
 29 33  1  0  0  0  0
 30 31  1  0  0  0  0
 30 32  1  0  0  0  0
 37 38  2  0  0  0  0
 37 39  1  0  0  0  0
 39 40  2  0  0  0  0
 39 45  1  0  0  0  0
 40 41  1  0  0  0  0
 40 48  1  0  0  0  0
 41 42  2  0  0  0  0
 41 47  1  0  0  0  0
 42 43  1  0  0  0  0
 42 44  1  0  0  0  0
 44 45  2  0  0  0  0
 44 46  1  0  0  0  0
M  END
>  <MODEL>
       1

$$$$
