output/tmp_first_model_1_41.pdb
 OpenBabel07242613193D

 67 71  0  0  1  0  0  0  0  0999 V2000
   -5.7600    0.0680  -29.5590 C   0  0  0  0  0  0  0  0  0  0  0  0
   -5.6000    0.5140  -28.1930 N   0  0  0  0  0  0  0  0  0  0  0  0
   -4.9040   -0.2520  -27.3100 C   0  0  0  0  0  0  0  0  0  0  0  0
   -4.1880   -1.1830  -27.6310 O   0  0  0  0  0  0  0  0  0  0  0  0
   -5.0590    0.1740  -25.8370 C   0  0  0  0  0  0  0  0  0  0  0  0
   -6.2450   -0.3640  -25.1780 N   0  0  0  0  0  0  0  0  0  0  0  0
   -6.1050   -1.5840  -24.3860 C   0  0  0  0  0  0  0  0  0  0  0  0
   -7.2410   -1.8140  -23.3300 C   0  0  2  0  0  0  0  0  0  0  0  0
   -7.0030   -1.0100  -22.0390 C   0  0  0  0  0  0  0  0  0  0  0  0
   -7.4350    0.0840  -21.7440 O   0  0  0  0  0  0  0  0  0  0  0  0
   -6.2060   -1.7690  -21.2100 N   0  0  0  0  0  0  0  0  0  0  0  0
   -5.7160   -1.1550  -20.0380 C   0  0  0  0  0  0  0  0  0  0  0  0
   -6.2320   -1.4690  -18.8050 C   0  0  0  0  0  0  0  0  0  0  0  0
   -5.8740   -0.8450  -17.6540 N   0  0  0  0  0  0  0  0  0  0  0  0
   -4.9740    0.1080  -17.7390 C   0  0  0  0  0  0  0  0  0  0  0  0
   -4.3430    0.5060  -18.9520 C   0  0  0  0  0  0  0  0  0  0  0  0
   -3.3510    1.5180  -18.9880 C   0  0  0  0  0  0  0  0  0  0  0  0
   -2.8410    1.9550  -20.1790 C   0  0  0  0  0  0  0  0  0  0  0  0
   -3.2930    1.3910  -21.3950 C   0  0  0  0  0  0  0  0  0  0  0  0
   -4.2160    0.3780  -21.3850 C   0  0  0  0  0  0  0  0  0  0  0  0
   -4.7560   -0.1020  -20.1530 C   0  0  0  0  0  0  0  0  0  0  0  0
   -4.5660   -0.0430  -22.3240 H   0  0  0  0  0  0  0  0  0  0  0  0
   -2.9150    1.7700  -22.3400 H   0  0  0  0  0  0  0  0  0  0  0  0
   -2.0990    2.7470  -20.1990 H   0  0  0  0  0  0  0  0  0  0  0  0
   -3.0250    1.9430  -18.0450 H   0  0  0  0  0  0  0  0  0  0  0  0
   -4.7040    0.6350  -16.8230 H   0  0  0  0  0  0  0  0  0  0  0  0
   -6.9990   -2.2410  -18.7140 H   0  0  0  0  0  0  0  0  0  0  0  0
   -5.9740   -3.1110  -21.7280 C   0  0  0  0  0  0  0  0  0  0  0  0
   -7.1410   -3.2470  -22.7190 C   0  0  2  0  0  0  0  0  0  0  0  0
   -7.0910   -4.3830  -23.7360 C   0  0  0  0  0  0  0  0  0  0  0  0
   -7.4860   -5.9900  -23.0680 S   0  0  0  0  0  0  0  0  0  0  0  0
   -7.5580   -6.9130  -24.1940 O   0  0  0  0  0  0  0  0  0  0  0  0
   -8.6070   -5.8520  -22.1500 O   0  0  0  0  0  0  0  0  0  0  0  0
   -6.1450   -6.4160  -22.1120 N   0  0  0  0  0  0  0  0  0  0  0  0
   -6.4680   -7.6840  -21.4430 C   0  0  0  0  0  0  0  0  0  0  0  0
   -6.4770   -8.5450  -22.1350 H   0  0  0  0  0  0  0  0  0  0  0  0
   -5.7220   -7.8490  -20.6630 H   0  0  0  0  0  0  0  0  0  0  0  0
   -7.4490   -7.5900  -20.9790 H   0  0  0  0  0  0  0  0  0  0  0  0
   -4.8950   -6.5490  -22.8710 C   0  0  0  0  0  0  0  0  0  0  0  0
   -4.2350   -7.2110  -22.3050 H   0  0  0  0  0  0  0  0  0  0  0  0
   -5.0490   -6.9670  -23.8740 H   0  0  0  0  0  0  0  0  0  0  0  0
   -4.3980   -5.5800  -22.9390 H   0  0  0  0  0  0  0  0  0  0  0  0
   -6.1250   -4.4730  -24.2420 H   0  0  0  0  0  0  0  0  0  0  0  0
   -7.8510   -4.2400  -24.5150 H   0  0  0  0  0  0  0  0  0  0  0  0
   -8.0370   -3.3910  -22.1130 H   0  0  0  0  0  0  0  0  0  0  0  0
   -5.9580   -3.8540  -20.9320 H   0  0  0  0  0  0  0  0  0  0  0  0
   -5.0170   -3.1650  -22.2680 H   0  0  0  0  0  0  0  0  0  0  0  0
   -8.5660   -1.4340  -23.9130 C   0  0  0  0  0  0  0  0  0  0  0  0
   -9.7560   -1.8320  -23.2960 C   0  0  0  0  0  0  0  0  0  0  0  0
  -10.9590   -1.5550  -23.9150 C   0  0  0  0  0  0  0  0  0  0  0  0
  -12.0760   -2.0320  -23.3390 F   0  0  0  0  0  0  0  0  0  0  0  0
  -11.0400   -0.8260  -25.1010 C   0  0  0  0  0  0  0  0  0  0  0  0
   -9.8650   -0.3180  -25.6130 C   0  0  0  0  0  0  0  0  0  0  0  0
   -8.6420   -0.5830  -25.0160 C   0  0  0  0  0  0  0  0  0  0  0  0
   -7.4510    0.1280  -25.5510 C   0  0  0  0  0  0  0  0  0  0  0  0
   -7.5680    1.1000  -26.3030 O   0  0  0  0  0  0  0  0  0  0  0  0
   -9.8460    0.3300  -26.4730 H   0  0  0  0  0  0  0  0  0  0  0  0
  -11.9840   -0.6270  -25.5960 H   0  0  0  0  0  0  0  0  0  0  0  0
   -9.7540   -2.2950  -22.3140 H   0  0  0  0  0  0  0  0  0  0  0  0
   -6.0420   -2.4340  -25.0780 H   0  0  0  0  0  0  0  0  0  0  0  0
   -5.1370   -1.5070  -23.8820 H   0  0  0  0  0  0  0  0  0  0  0  0
   -5.0760    1.2650  -25.7310 H   0  0  0  0  0  0  0  0  0  0  0  0
   -4.1930   -0.2240  -25.3150 H   0  0  0  0  0  0  0  0  0  0  0  0
   -6.3400    1.0870  -27.8000 H   0  0  0  0  0  0  0  0  0  0  0  0
   -6.4500   -0.7820  -29.6190 H   0  0  0  0  0  0  0  0  0  0  0  0
   -6.1530    0.8960  -30.1540 H   0  0  0  0  0  0  0  0  0  0  0  0
   -4.7950   -0.2370  -29.9710 H   0  0  0  0  0  0  0  0  0  0  0  0
  1  2  1  0  0  0  0
  1 65  1  0  0  0  0
  1 66  1  0  0  0  0
  1 67  1  0  0  0  0
  2  3  1  0  0  0  0
  2 64  1  0  0  0  0
  3  4  2  0  0  0  0
  3  5  1  0  0  0  0
  5  6  1  0  0  0  0
  5 62  1  0  0  0  0
  5 63  1  0  0  0  0
  6  7  1  0  0  0  0
  6 55  1  0  0  0  0
  7  8  1  0  0  0  0
  7 60  1  0  0  0  0
  7 61  1  0  0  0  0
  8  9  1  1  0  0  0
  8 29  1  0  0  0  0
  8 48  1  0  0  0  0
  9 10  2  0  0  0  0
  9 11  1  0  0  0  0
 11 12  1  0  0  0  0
 11 28  1  0  0  0  0
 12 13  2  0  0  0  0
 12 21  1  0  0  0  0
 13 14  1  0  0  0  0
 13 27  1  0  0  0  0
 14 15  2  0  0  0  0
 15 16  1  0  0  0  0
 15 26  1  0  0  0  0
 16 17  2  0  0  0  0
 16 21  1  0  0  0  0
 17 18  1  0  0  0  0
 17 25  1  0  0  0  0
 18 19  2  0  0  0  0
 18 24  1  0  0  0  0
 19 20  1  0  0  0  0
 19 23  1  0  0  0  0
 20 21  2  0  0  0  0
 20 22  1  0  0  0  0
 28 29  1  0  0  0  0
 28 46  1  0  0  0  0
 28 47  1  0  0  0  0
 29 30  1  0  0  0  0
 29 45  1  1  0  0  0
 30 31  1  0  0  0  0
 30 43  1  0  0  0  0
 30 44  1  0  0  0  0
 31 32  2  0  0  0  0
 31 33  2  0  0  0  0
 31 34  1  0  0  0  0
 34 35  1  0  0  0  0
 34 39  1  0  0  0  0
 35 36  1  0  0  0  0
 35 37  1  0  0  0  0
 35 38  1  0  0  0  0
 39 40  1  0  0  0  0
 39 41  1  0  0  0  0
 39 42  1  0  0  0  0
 48 49  2  0  0  0  0
 48 54  1  0  0  0  0
 49 50  1  0  0  0  0
 49 59  1  0  0  0  0
 50 51  1  0  0  0  0
 50 52  2  0  0  0  0
 52 53  1  0  0  0  0
 52 58  1  0  0  0  0
 53 54  2  0  0  0  0
 53 57  1  0  0  0  0
 54 55  1  0  0  0  0
 55 56  2  0  0  0  0
M  END
>  <MODEL>
       1

$$$$
