output/tmp_first_model_10_1.pdb
 OpenBabel07242618173D

 68 73  0  0  1  0  0  0  0  0999 V2000
   -7.3350    3.3530  -22.0540 C   0  0  0  0  0  0  0  0  0  0  0  0
   -8.2070    2.7330  -23.0320 N   0  0  0  0  0  0  0  0  0  0  0  0
   -7.6620    2.1880  -24.1500 C   0  0  0  0  0  0  0  0  0  0  0  0
   -6.4730    2.2720  -24.4320 O   0  0  0  0  0  0  0  0  0  0  0  0
   -8.6600    1.4740  -25.0640 C   0  0  0  0  0  0  0  0  0  0  0  0
   -9.3470    0.3840  -24.3850 N   0  0  0  0  0  0  0  0  0  0  0  0
   -8.5960   -0.8440  -24.1550 C   0  0  0  0  0  0  0  0  0  0  0  0
   -9.0390   -1.5830  -22.8600 C   0  0  2  0  0  0  0  0  0  0  0  0
   -8.5580   -0.7890  -21.6200 C   0  0  0  0  0  0  0  0  0  0  0  0
   -9.0670    0.2010  -21.1370 O   0  0  0  0  0  0  0  0  0  0  0  0
   -7.4160   -1.3850  -21.1400 N   0  0  0  0  0  0  0  0  0  0  0  0
   -6.6470   -0.7880  -20.1070 C   0  0  0  0  0  0  0  0  0  0  0  0
   -6.9020   -1.1060  -18.7970 C   0  0  0  0  0  0  0  0  0  0  0  0
   -6.1910   -0.6430  -17.7410 N   0  0  0  0  0  0  0  0  0  0  0  0
   -5.2050    0.1860  -17.9960 C   0  0  0  0  0  0  0  0  0  0  0  0
   -4.8480    0.6210  -19.3050 C   0  0  0  0  0  0  0  0  0  0  0  0
   -3.8060    1.5600  -19.5280 C   0  0  0  0  0  0  0  0  0  0  0  0
   -3.5260    2.0010  -20.7940 C   0  0  0  0  0  0  0  0  0  0  0  0
   -4.2720    1.5290  -21.8960 C   0  0  0  0  0  0  0  0  0  0  0  0
   -5.2640    0.5930  -21.7090 C   0  0  0  0  0  0  0  0  0  0  0  0
   -5.5910    0.1290  -20.4030 C   0  0  0  0  0  0  0  0  0  0  0  0
   -5.8480    0.2530  -22.5590 H   0  0  0  0  0  0  0  0  0  0  0  0
   -4.0820    1.9130  -22.8940 H   0  0  0  0  0  0  0  0  0  0  0  0
   -2.7400    2.7350  -20.9460 H   0  0  0  0  0  0  0  0  0  0  0  0
   -3.2600    1.9310  -18.6660 H   0  0  0  0  0  0  0  0  0  0  0  0
   -4.6410    0.5710  -17.1460 H   0  0  0  0  0  0  0  0  0  0  0  0
   -7.7260   -1.7760  -18.5590 H   0  0  0  0  0  0  0  0  0  0  0  0
   -6.9920   -2.5520  -21.8850 C   0  0  0  0  0  0  0  0  0  0  0  0
   -8.2580   -2.9340  -22.6760 C   0  0  2  0  0  0  0  0  0  0  0  0
   -7.9630   -3.7090  -23.9660 C   0  0  0  0  0  0  0  0  0  0  0  0
   -7.3610   -5.0070  -23.7650 N   0  0  0  0  0  0  0  0  0  0  0  0
   -6.9260   -5.7340  -24.8600 C   0  0  0  0  0  0  0  0  0  0  0  0
   -7.1170   -5.4280  -26.2310 C   0  0  0  0  0  0  0  0  0  0  0  0
   -6.4840   -6.2900  -27.0110 N   0  0  0  0  0  0  0  0  0  0  0  0
   -5.8940   -7.1500  -26.1800 N   0  0  0  0  0  0  0  0  0  0  0  0
   -5.0200   -8.1330  -26.7800 C   0  0  0  0  0  0  0  0  0  0  0  0
   -4.3400   -8.5440  -26.0260 H   0  0  0  0  0  0  0  0  0  0  0  0
   -5.6260   -8.9250  -27.2280 H   0  0  0  0  0  0  0  0  0  0  0  0
   -4.4430   -7.6360  -27.5680 H   0  0  0  0  0  0  0  0  0  0  0  0
   -6.1490   -6.8820  -24.8700 C   0  0  0  0  0  0  0  0  0  0  0  0
   -5.8340   -7.5660  -24.0820 H   0  0  0  0  0  0  0  0  0  0  0  0
   -7.6450   -4.6080  -26.7040 H   0  0  0  0  0  0  0  0  0  0  0  0
   -7.0420   -5.3320  -22.8700 H   0  0  0  0  0  0  0  0  0  0  0  0
   -7.3020   -3.1040  -24.6090 H   0  0  0  0  0  0  0  0  0  0  0  0
   -8.8960   -3.8650  -24.5260 H   0  0  0  0  0  0  0  0  0  0  0  0
   -8.8580   -3.5800  -22.0280 H   0  0  0  0  0  0  0  0  0  0  0  0
   -6.1420   -2.3150  -22.5470 H   0  0  0  0  0  0  0  0  0  0  0  0
   -6.6610   -3.3360  -21.1950 H   0  0  0  0  0  0  0  0  0  0  0  0
  -10.5570   -1.6610  -22.8550 C   0  0  0  0  0  0  0  0  0  0  0  0
  -11.2240   -2.5670  -22.0210 C   0  0  0  0  0  0  0  0  0  0  0  0
  -12.6070   -2.5810  -21.9670 C   0  0  0  0  0  0  0  0  0  0  0  0
  -13.4090   -3.7250  -20.9290 Cl  0  0  0  0  0  0  0  0  0  0  0  0
  -13.3800   -1.6960  -22.7160 C   0  0  0  0  0  0  0  0  0  0  0  0
  -12.7310   -0.7710  -23.5080 C   0  0  0  0  0  0  0  0  0  0  0  0
  -11.3380   -0.7360  -23.5670 C   0  0  0  0  0  0  0  0  0  0  0  0
  -10.7190    0.3690  -24.3730 C   0  0  0  0  0  0  0  0  0  0  0  0
  -11.3970    1.2110  -24.9450 O   0  0  0  0  0  0  0  0  0  0  0  0
  -13.2840   -0.0420  -24.0890 H   0  0  0  0  0  0  0  0  0  0  0  0
  -14.4630   -1.7330  -22.6590 H   0  0  0  0  0  0  0  0  0  0  0  0
  -10.6820   -3.2610  -21.3890 H   0  0  0  0  0  0  0  0  0  0  0  0
   -8.7220   -1.5170  -25.0160 H   0  0  0  0  0  0  0  0  0  0  0  0
   -7.5370   -0.5740  -24.0940 H   0  0  0  0  0  0  0  0  0  0  0  0
   -8.1030    1.1220  -25.9370 H   0  0  0  0  0  0  0  0  0  0  0  0
   -9.4390    2.1690  -25.4020 H   0  0  0  0  0  0  0  0  0  0  0  0
   -9.0850    2.3450  -22.7040 H   0  0  0  0  0  0  0  0  0  0  0  0
   -6.8560    2.5930  -21.4210 H   0  0  0  0  0  0  0  0  0  0  0  0
   -7.9020    4.0570  -21.4380 H   0  0  0  0  0  0  0  0  0  0  0  0
   -6.5500    3.8940  -22.5900 H   0  0  0  0  0  0  0  0  0  0  0  0
  1  2  1  0  0  0  0
  1 66  1  0  0  0  0
  1 67  1  0  0  0  0
  1 68  1  0  0  0  0
  2  3  1  0  0  0  0
  2 65  1  0  0  0  0
  3  4  2  0  0  0  0
  3  5  1  0  0  0  0
  5  6  1  0  0  0  0
  5 63  1  0  0  0  0
  5 64  1  0  0  0  0
  6  7  1  0  0  0  0
  6 56  1  0  0  0  0
  7  8  1  0  0  0  0
  7 61  1  0  0  0  0
  7 62  1  0  0  0  0
  8  9  1  1  0  0  0
  8 29  1  0  0  0  0
  8 49  1  0  0  0  0
  9 10  2  0  0  0  0
  9 11  1  0  0  0  0
 11 12  1  0  0  0  0
 11 28  1  0  0  0  0
 12 13  2  0  0  0  0
 12 21  1  0  0  0  0
 13 14  1  0  0  0  0
 13 27  1  0  0  0  0
 14 15  2  0  0  0  0
 15 16  1  0  0  0  0
 15 26  1  0  0  0  0
 16 17  2  0  0  0  0
 16 21  1  0  0  0  0
 17 18  1  0  0  0  0
 17 25  1  0  0  0  0
 18 19  2  0  0  0  0
 18 24  1  0  0  0  0
 19 20  1  0  0  0  0
 19 23  1  0  0  0  0
 20 21  2  0  0  0  0
 20 22  1  0  0  0  0
 28 29  1  0  0  0  0
 28 47  1  0  0  0  0
 28 48  1  0  0  0  0
 29 30  1  0  0  0  0
 29 46  1  1  0  0  0
 30 31  1  0  0  0  0
 30 44  1  0  0  0  0
 30 45  1  0  0  0  0
 31 32  1  0  0  0  0
 31 43  1  0  0  0  0
 32 33  1  0  0  0  0
 32 40  2  0  0  0  0
 33 34  2  0  0  0  0
 33 42  1  0  0  0  0
 34 35  1  0  0  0  0
 35 36  1  0  0  0  0
 35 40  1  0  0  0  0
 36 37  1  0  0  0  0
 36 38  1  0  0  0  0
 36 39  1  0  0  0  0
 40 41  1  0  0  0  0
 49 50  2  0  0  0  0
 49 55  1  0  0  0  0
 50 51  1  0  0  0  0
 50 60  1  0  0  0  0
 51 52  1  0  0  0  0
 51 53  2  0  0  0  0
 53 54  1  0  0  0  0
 53 59  1  0  0  0  0
 54 55  2  0  0  0  0
 54 58  1  0  0  0  0
 55 56  1  0  0  0  0
 56 57  2  0  0  0  0
M  END
>  <MODEL>
       1

$$$$
