output/tmp_first_model_6_70.pdb
 OpenBabel07242616043D

 52 54  0  0  0  0  0  0  0  0999 V2000
   -9.4120   -5.2500  -27.2090 C   0  0  0  0  0  0  0  0  0  0  0  0
   -8.9490   -6.5640  -26.5860 C   0  0  0  0  0  0  0  0  0  0  0  0
   -8.0400   -7.3060  -27.5690 C   0  0  0  0  0  0  0  0  0  0  0  0
   -7.1330   -6.7290  -27.7830 H   0  0  0  0  0  0  0  0  0  0  0  0
   -7.7330   -8.2840  -27.1850 H   0  0  0  0  0  0  0  0  0  0  0  0
   -8.5480   -7.4750  -28.5250 H   0  0  0  0  0  0  0  0  0  0  0  0
   -8.2370   -6.3990  -25.2310 C   0  0  0  0  0  0  0  0  0  0  0  0
   -9.0180   -5.8290  -24.0150 C   0  0  0  0  0  0  0  0  0  0  0  0
  -10.3840   -6.5200  -23.9070 C   0  0  0  0  0  0  0  0  0  0  0  0
  -11.0410   -6.2940  -24.7540 H   0  0  0  0  0  0  0  0  0  0  0  0
  -10.9070   -6.1800  -23.0100 H   0  0  0  0  0  0  0  0  0  0  0  0
  -10.2840   -7.6100  -23.8490 H   0  0  0  0  0  0  0  0  0  0  0  0
   -8.2340   -6.1140  -22.7110 C   0  0  0  0  0  0  0  0  0  0  0  0
   -7.1090   -5.1180  -22.4360 C   0  0  0  0  0  0  0  0  0  0  0  0
   -7.6170   -3.7460  -22.3270 N   0  0  0  0  0  0  0  0  0  0  0  0
   -6.7940   -2.7930  -21.7840 C   0  0  0  0  0  0  0  0  0  0  0  0
   -5.5940   -2.9850  -21.6790 O   0  0  0  0  0  0  0  0  0  0  0  0
   -7.4240   -1.4820  -21.2550 C   0  0  0  0  0  0  0  0  0  0  0  0
   -6.5820   -0.8270  -20.1810 C   0  0  0  0  0  0  0  0  0  0  0  0
   -6.8730   -1.0440  -18.8580 C   0  0  0  0  0  0  0  0  0  0  0  0
   -6.1870   -0.5450  -17.7970 N   0  0  0  0  0  0  0  0  0  0  0  0
   -5.1560    0.2230  -18.0620 C   0  0  0  0  0  0  0  0  0  0  0  0
   -4.7210    0.5340  -19.3800 C   0  0  0  0  0  0  0  0  0  0  0  0
   -3.5910    1.3620  -19.6150 C   0  0  0  0  0  0  0  0  0  0  0  0
   -3.1950    1.6480  -20.8960 C   0  0  0  0  0  0  0  0  0  0  0  0
   -3.9280    1.1350  -21.9850 C   0  0  0  0  0  0  0  0  0  0  0  0
   -5.0170    0.3170  -21.7810 C   0  0  0  0  0  0  0  0  0  0  0  0
   -5.4480   -0.0050  -20.4690 C   0  0  0  0  0  0  0  0  0  0  0  0
   -5.5140   -0.1320  -22.6340 H   0  0  0  0  0  0  0  0  0  0  0  0
   -3.5790    1.3160  -22.9970 H   0  0  0  0  0  0  0  0  0  0  0  0
   -2.3250    2.2710  -21.0840 H   0  0  0  0  0  0  0  0  0  0  0  0
   -3.0510    1.7740  -18.7670 H   0  0  0  0  0  0  0  0  0  0  0  0
   -4.6000    0.6290  -17.2160 H   0  0  0  0  0  0  0  0  0  0  0  0
   -7.7200   -1.6710  -18.5860 H   0  0  0  0  0  0  0  0  0  0  0  0
   -7.5710   -0.7840  -22.0910 H   0  0  0  0  0  0  0  0  0  0  0  0
   -8.4230   -1.6890  -20.8440 H   0  0  0  0  0  0  0  0  0  0  0  0
   -8.9560   -3.5070  -22.8400 C   0  0  0  0  0  0  0  0  0  0  0  0
   -9.1960   -4.2940  -24.1260 C   0  0  0  0  0  0  0  0  0  0  0  0
   -8.5510   -3.8780  -24.9090 H   0  0  0  0  0  0  0  0  0  0  0  0
  -10.2050   -4.0710  -24.4460 H   0  0  0  0  0  0  0  0  0  0  0  0
   -9.0800   -2.4430  -23.0530 H   0  0  0  0  0  0  0  0  0  0  0  0
   -9.7190   -3.7660  -22.0930 H   0  0  0  0  0  0  0  0  0  0  0  0
   -6.6180   -5.3840  -21.4960 H   0  0  0  0  0  0  0  0  0  0  0  0
   -6.3360   -5.1970  -23.2110 H   0  0  0  0  0  0  0  0  0  0  0  0
   -8.9140   -6.1130  -21.8500 H   0  0  0  0  0  0  0  0  0  0  0  0
   -7.8330   -7.1330  -22.7420 H   0  0  0  0  0  0  0  0  0  0  0  0
   -7.3380   -5.7840  -25.3860 H   0  0  0  0  0  0  0  0  0  0  0  0
   -7.8580   -7.3890  -24.9480 H   0  0  0  0  0  0  0  0  0  0  0  0
   -9.8310   -7.1980  -26.4400 H   0  0  0  0  0  0  0  0  0  0  0  0
   -9.7720   -5.4030  -28.2330 H   0  0  0  0  0  0  0  0  0  0  0  0
  -10.2240   -4.7850  -26.6480 H   0  0  0  0  0  0  0  0  0  0  0  0
   -8.5900   -4.5280  -27.2650 H   0  0  0  0  0  0  0  0  0  0  0  0
  1  2  1  0  0  0  0
  1 50  1  0  0  0  0
  1 51  1  0  0  0  0
  1 52  1  0  0  0  0
  2  3  1  0  0  0  0
  2  7  1  0  0  0  0
  2 49  1  0  0  0  0
  3  4  1  0  0  0  0
  3  5  1  0  0  0  0
  3  6  1  0  0  0  0
  7  8  1  0  0  0  0
  7 47  1  0  0  0  0
  7 48  1  0  0  0  0
  8  9  1  0  0  0  0
  8 13  1  0  0  0  0
  8 38  1  0  0  0  0
  9 10  1  0  0  0  0
  9 11  1  0  0  0  0
  9 12  1  0  0  0  0
 13 14  1  0  0  0  0
 13 45  1  0  0  0  0
 13 46  1  0  0  0  0
 14 15  1  0  0  0  0
 14 43  1  0  0  0  0
 14 44  1  0  0  0  0
 15 16  1  0  0  0  0
 15 37  1  0  0  0  0
 16 17  2  0  0  0  0
 16 18  1  0  0  0  0
 18 19  1  0  0  0  0
 18 35  1  0  0  0  0
 18 36  1  0  0  0  0
 19 20  2  0  0  0  0
 19 28  1  0  0  0  0
 20 21  1  0  0  0  0
 20 34  1  0  0  0  0
 21 22  2  0  0  0  0
 22 23  1  0  0  0  0
 22 33  1  0  0  0  0
 23 24  2  0  0  0  0
 23 28  1  0  0  0  0
 24 25  1  0  0  0  0
 24 32  1  0  0  0  0
 25 26  2  0  0  0  0
 25 31  1  0  0  0  0
 26 27  1  0  0  0  0
 26 30  1  0  0  0  0
 27 28  2  0  0  0  0
 27 29  1  0  0  0  0
 37 38  1  0  0  0  0
 37 41  1  0  0  0  0
 37 42  1  0  0  0  0
 38 39  1  0  0  0  0
 38 40  1  0  0  0  0
M  END
>  <MODEL>
       1

$$$$
