output/tmp_first_model_2_18.pdb
 OpenBabel07242613513D

 56 61  0  0  1  0  0  0  0  0999 V2000
  -10.4370   -1.1310  -23.2640 C   0  0  0  0  0  0  0  0  0  0  0  0
   -8.9940   -1.4800  -22.9270 C   0  0  1  0  0  0  0  0  0  0  0  0
   -8.3610   -0.5310  -21.8990 C   0  0  0  0  0  0  0  0  0  0  0  0
   -7.3660   -1.3660  -21.2390 N   0  0  0  0  0  0  0  0  0  0  0  0
   -6.5700   -0.8710  -20.1830 C   0  0  0  0  0  0  0  0  0  0  0  0
   -6.8950   -1.1130  -18.8720 C   0  0  0  0  0  0  0  0  0  0  0  0
   -6.2380   -0.5720  -17.8160 N   0  0  0  0  0  0  0  0  0  0  0  0
   -5.2160    0.2070  -18.0800 C   0  0  0  0  0  0  0  0  0  0  0  0
   -4.7580    0.5100  -19.3950 C   0  0  0  0  0  0  0  0  0  0  0  0
   -3.6330    1.3410  -19.6300 C   0  0  0  0  0  0  0  0  0  0  0  0
   -3.2280    1.6040  -20.9080 C   0  0  0  0  0  0  0  0  0  0  0  0
   -3.9250    1.0620  -22.0100 C   0  0  0  0  0  0  0  0  0  0  0  0
   -5.0190    0.2560  -21.8100 C   0  0  0  0  0  0  0  0  0  0  0  0
   -5.4570   -0.0340  -20.4900 C   0  0  0  0  0  0  0  0  0  0  0  0
   -5.5490   -0.1700  -22.6560 H   0  0  0  0  0  0  0  0  0  0  0  0
   -3.5980    1.2900  -23.0200 H   0  0  0  0  0  0  0  0  0  0  0  0
   -2.3710    2.2470  -21.0860 H   0  0  0  0  0  0  0  0  0  0  0  0
   -3.1180    1.7610  -18.7700 H   0  0  0  0  0  0  0  0  0  0  0  0
   -4.6870    0.6400  -17.2310 H   0  0  0  0  0  0  0  0  0  0  0  0
   -7.7340   -1.7610  -18.6250 H   0  0  0  0  0  0  0  0  0  0  0  0
   -7.6090   -2.7170  -21.3700 C   0  0  0  0  0  0  0  0  0  0  0  0
   -6.9730   -3.5900  -20.8160 O   0  0  0  0  0  0  0  0  0  0  0  0
   -8.8030   -2.9100  -22.3120 C   0  0  1  0  0  0  0  0  0  0  0  0
  -10.0070   -3.3520  -21.4510 C   0  0  0  0  0  0  0  0  0  0  0  0
  -11.1270   -3.8540  -22.2250 N   0  0  0  0  0  0  0  0  0  0  0  0
  -12.4900   -3.8460  -21.7010 C   0  0  0  0  0  0  0  0  0  0  0  0
  -13.3540   -2.7490  -22.2450 C   0  0  0  0  0  0  0  0  0  0  0  0
  -13.9860   -2.7770  -23.5130 C   0  0  0  0  0  0  0  0  0  0  0  0
  -14.6930   -1.6020  -23.5600 C   0  0  0  0  0  0  0  0  0  0  0  0
  -14.4540   -0.9620  -22.3950 N   0  0  0  0  0  0  0  0  0  0  0  0
  -13.6530   -1.6520  -21.5690 N   0  0  0  0  0  0  0  0  0  0  0  0
  -14.8610   -0.1020  -22.0520 H   0  0  0  0  0  0  0  0  0  0  0  0
  -15.3120   -1.1650  -24.3280 H   0  0  0  0  0  0  0  0  0  0  0  0
  -13.9080   -3.5710  -24.2490 H   0  0  0  0  0  0  0  0  0  0  0  0
  -12.9570   -4.7590  -22.0820 H   0  0  0  0  0  0  0  0  0  0  0  0
  -12.4760   -3.8570  -20.6070 H   0  0  0  0  0  0  0  0  0  0  0  0
  -10.9780   -4.5290  -23.4000 C   0  0  0  0  0  0  0  0  0  0  0  0
  -11.9560   -4.9160  -24.0230 O   0  0  0  0  0  0  0  0  0  0  0  0
   -9.5790   -4.7450  -23.8610 C   0  0  0  0  0  0  0  0  0  0  0  0
   -9.3330   -5.7340  -24.8070 C   0  0  0  0  0  0  0  0  0  0  0  0
   -8.0740   -5.8850  -25.3580 C   0  0  0  0  0  0  0  0  0  0  0  0
   -7.0720   -5.0280  -24.9170 C   0  0  0  0  0  0  0  0  0  0  0  0
   -5.8510   -5.1480  -25.4590 F   0  0  0  0  0  0  0  0  0  0  0  0
   -7.2660   -4.0910  -23.9200 C   0  0  0  0  0  0  0  0  0  0  0  0
   -8.5390   -3.9630  -23.3550 C   0  0  0  0  0  0  0  0  0  0  0  0
   -6.4340   -3.4930  -23.5630 H   0  0  0  0  0  0  0  0  0  0  0  0
   -7.8570   -6.6440  -26.1040 H   0  0  0  0  0  0  0  0  0  0  0  0
  -10.1640   -6.3600  -25.1110 H   0  0  0  0  0  0  0  0  0  0  0  0
   -9.6730   -4.1180  -20.7500 H   0  0  0  0  0  0  0  0  0  0  0  0
  -10.3580   -2.4750  -20.9000 H   0  0  0  0  0  0  0  0  0  0  0  0
   -9.1100   -0.1620  -21.1780 H   0  0  0  0  0  0  0  0  0  0  0  0
   -7.8900    0.3450  -22.3560 H   0  0  0  0  0  0  0  0  0  0  0  0
   -8.3830   -1.4570  -23.8430 H   0  0  0  0  0  0  0  0  0  0  0  0
  -10.8720   -1.9140  -23.8910 H   0  0  0  0  0  0  0  0  0  0  0  0
  -11.0350   -1.0810  -22.3490 H   0  0  0  0  0  0  0  0  0  0  0  0
  -10.5160   -0.1740  -23.7820 H   0  0  0  0  0  0  0  0  0  0  0  0
  1  2  1  0  0  0  0
  1 54  1  0  0  0  0
  1 55  1  0  0  0  0
  1 56  1  0  0  0  0
  2  3  1  0  0  0  0
  2 23  1  0  0  0  0
  2 53  1  6  0  0  0
  3  4  1  0  0  0  0
  3 51  1  0  0  0  0
  3 52  1  0  0  0  0
  4  5  1  0  0  0  0
  4 21  1  0  0  0  0
  5  6  2  0  0  0  0
  5 14  1  0  0  0  0
  6  7  1  0  0  0  0
  6 20  1  0  0  0  0
  7  8  2  0  0  0  0
  8  9  1  0  0  0  0
  8 19  1  0  0  0  0
  9 10  2  0  0  0  0
  9 14  1  0  0  0  0
 10 11  1  0  0  0  0
 10 18  1  0  0  0  0
 11 12  2  0  0  0  0
 11 17  1  0  0  0  0
 12 13  1  0  0  0  0
 12 16  1  0  0  0  0
 13 14  2  0  0  0  0
 13 15  1  0  0  0  0
 21 22  2  0  0  0  0
 23 21  1  1  0  0  0
 23 24  1  0  0  0  0
 23 45  1  0  0  0  0
 24 25  1  0  0  0  0
 24 49  1  0  0  0  0
 24 50  1  0  0  0  0
 25 26  1  0  0  0  0
 25 37  1  0  0  0  0
 26 27  1  0  0  0  0
 26 35  1  0  0  0  0
 26 36  1  0  0  0  0
 27 28  1  0  0  0  0
 27 31  2  0  0  0  0
 28 29  2  0  0  0  0
 28 34  1  0  0  0  0
 29 30  1  0  0  0  0
 29 33  1  0  0  0  0
 30 31  1  0  0  0  0
 30 32  1  0  0  0  0
 37 38  2  0  0  0  0
 37 39  1  0  0  0  0
 39 40  2  0  0  0  0
 39 45  1  0  0  0  0
 40 41  1  0  0  0  0
 40 48  1  0  0  0  0
 41 42  2  0  0  0  0
 41 47  1  0  0  0  0
 42 43  1  0  0  0  0
 42 44  1  0  0  0  0
 44 45  2  0  0  0  0
 44 46  1  0  0  0  0
M  END
>  <MODEL>
       1

$$$$
