output/tmp_first_model_20_36.pdb
 OpenBabel07242623363D

 47 50  0  0  1  0  0  0  0  0999 V2000
   -8.6920    0.6120  -21.3570 O   0  0  0  0  0  0  0  0  0  0  0  0
   -8.3370   -0.3830  -21.9590 C   0  0  0  0  0  0  0  0  0  0  0  0
   -7.4340   -1.4320  -21.2730 C   0  0  0  0  0  0  0  0  0  0  0  0
   -6.5770   -0.8320  -20.1820 C   0  0  0  0  0  0  0  0  0  0  0  0
   -6.8790   -1.0380  -18.8620 C   0  0  0  0  0  0  0  0  0  0  0  0
   -6.1910   -0.5320  -17.8040 N   0  0  0  0  0  0  0  0  0  0  0  0
   -5.1540    0.2200  -18.0680 C   0  0  0  0  0  0  0  0  0  0  0  0
   -4.7210    0.5330  -19.3830 C   0  0  0  0  0  0  0  0  0  0  0  0
   -3.5960    1.3640  -19.6230 C   0  0  0  0  0  0  0  0  0  0  0  0
   -3.2060    1.6550  -20.9020 C   0  0  0  0  0  0  0  0  0  0  0  0
   -3.9290    1.1250  -21.9940 C   0  0  0  0  0  0  0  0  0  0  0  0
   -5.0210    0.3190  -21.7880 C   0  0  0  0  0  0  0  0  0  0  0  0
   -5.4510   -0.0030  -20.4740 C   0  0  0  0  0  0  0  0  0  0  0  0
   -5.5690   -0.0680  -22.6420 H   0  0  0  0  0  0  0  0  0  0  0  0
   -3.6200    1.3690  -23.0050 H   0  0  0  0  0  0  0  0  0  0  0  0
   -2.3510    2.3000  -21.0890 H   0  0  0  0  0  0  0  0  0  0  0  0
   -3.0550    1.7700  -18.7710 H   0  0  0  0  0  0  0  0  0  0  0  0
   -4.6020    0.6240  -17.2160 H   0  0  0  0  0  0  0  0  0  0  0  0
   -7.7290   -1.6580  -18.5820 H   0  0  0  0  0  0  0  0  0  0  0  0
   -8.0860   -2.1980  -20.8320 H   0  0  0  0  0  0  0  0  0  0  0  0
   -6.8080   -1.9520  -22.0120 H   0  0  0  0  0  0  0  0  0  0  0  0
   -8.6770   -0.6030  -23.2870 N   0  0  0  0  0  0  0  0  0  0  0  0
   -9.1590    0.5340  -24.0700 C   0  0  0  0  0  0  0  0  0  0  0  0
  -10.6770    0.5430  -24.2210 C   0  0  0  0  0  0  0  0  0  0  0  0
  -11.1720   -0.7930  -24.7680 C   0  0  0  0  0  0  0  0  0  0  0  0
  -10.6160   -1.9400  -23.9270 C   0  0  0  0  0  0  0  0  0  0  0  0
   -9.0790   -1.9110  -23.8200 C   0  0  1  0  0  0  0  0  0  0  0  0
   -8.3310   -2.2540  -25.1130 C   0  0  0  0  0  0  0  0  0  0  0  0
   -6.9740   -1.9280  -25.2100 C   0  0  0  0  0  0  0  0  0  0  0  0
   -6.2250   -2.2430  -26.3370 C   0  0  0  0  0  0  0  0  0  0  0  0
   -6.8150   -2.9060  -27.4060 C   0  0  0  0  0  0  0  0  0  0  0  0
   -8.1560   -3.2580  -27.3190 C   0  0  0  0  0  0  0  0  0  0  0  0
   -8.9050   -2.9420  -26.1860 C   0  0  0  0  0  0  0  0  0  0  0  0
   -9.9460   -3.2500  -26.1590 H   0  0  0  0  0  0  0  0  0  0  0  0
   -8.6290   -3.7890  -28.1400 H   0  0  0  0  0  0  0  0  0  0  0  0
   -6.2340   -3.1490  -28.2930 H   0  0  0  0  0  0  0  0  0  0  0  0
   -5.1770   -1.9640  -26.3820 H   0  0  0  0  0  0  0  0  0  0  0  0
   -6.4820   -1.4130  -24.3910 H   0  0  0  0  0  0  0  0  0  0  0  0
   -8.7900   -2.6560  -23.0730 H   0  0  0  0  0  0  0  0  0  0  0  0
  -10.9420   -2.9160  -24.2900 H   0  0  0  0  0  0  0  0  0  0  0  0
  -11.0240   -1.8680  -22.9130 H   0  0  0  0  0  0  0  0  0  0  0  0
  -10.8500   -0.9100  -25.8100 H   0  0  0  0  0  0  0  0  0  0  0  0
  -12.2670   -0.8170  -24.7710 H   0  0  0  0  0  0  0  0  0  0  0  0
  -10.9890    1.3660  -24.8780 H   0  0  0  0  0  0  0  0  0  0  0  0
  -11.1160    0.7400  -23.2380 H   0  0  0  0  0  0  0  0  0  0  0  0
   -8.8050    1.4510  -23.5990 H   0  0  0  0  0  0  0  0  0  0  0  0
   -8.7000    0.4720  -25.0630 H   0  0  0  0  0  0  0  0  0  0  0  0
  1  2  2  0  0  0  0
  2  3  1  0  0  0  0
  2 22  1  0  0  0  0
  3  4  1  0  0  0  0
  3 20  1  0  0  0  0
  3 21  1  0  0  0  0
  4  5  2  0  0  0  0
  4 13  1  0  0  0  0
  5  6  1  0  0  0  0
  5 19  1  0  0  0  0
  6  7  2  0  0  0  0
  7  8  1  0  0  0  0
  7 18  1  0  0  0  0
  8  9  2  0  0  0  0
  8 13  1  0  0  0  0
  9 10  1  0  0  0  0
  9 17  1  0  0  0  0
 10 11  2  0  0  0  0
 10 16  1  0  0  0  0
 11 12  1  0  0  0  0
 11 15  1  0  0  0  0
 12 13  2  0  0  0  0
 12 14  1  0  0  0  0
 22 23  1  0  0  0  0
 22 27  1  0  0  0  0
 23 24  1  0  0  0  0
 23 46  1  0  0  0  0
 23 47  1  0  0  0  0
 24 25  1  0  0  0  0
 24 44  1  0  0  0  0
 24 45  1  0  0  0  0
 25 26  1  0  0  0  0
 25 42  1  0  0  0  0
 25 43  1  0  0  0  0
 26 27  1  0  0  0  0
 26 40  1  0  0  0  0
 26 41  1  0  0  0  0
 27 28  1  0  0  0  0
 27 39  1  1  0  0  0
 28 29  2  0  0  0  0
 28 33  1  0  0  0  0
 29 30  1  0  0  0  0
 29 38  1  0  0  0  0
 30 31  2  0  0  0  0
 30 37  1  0  0  0  0
 31 32  1  0  0  0  0
 31 36  1  0  0  0  0
 32 33  2  0  0  0  0
 32 35  1  0  0  0  0
 33 34  1  0  0  0  0
M  END
>  <MODEL>
       1

$$$$
