output/tmp_first_model_3_32.pdb
 OpenBabel07242614263D

 57 62  0  0  1  0  0  0  0  0999 V2000
   -9.8870   -0.7240  -23.6060 C   0  0  0  0  0  0  0  0  0  0  0  0
   -8.5910   -1.1700  -22.9440 C   0  0  1  0  0  0  0  0  0  0  0  0
   -8.1690   -0.2780  -21.7730 C   0  0  0  0  0  0  0  0  0  0  0  0
   -7.2190   -1.1140  -21.0610 N   0  0  0  0  0  0  0  0  0  0  0  0
   -6.3940   -0.6230  -20.0230 C   0  0  0  0  0  0  0  0  0  0  0  0
   -6.7160   -0.8610  -18.7100 C   0  0  0  0  0  0  0  0  0  0  0  0
   -6.0630   -0.3190  -17.6520 N   0  0  0  0  0  0  0  0  0  0  0  0
   -5.0360    0.4570  -17.9050 C   0  0  0  0  0  0  0  0  0  0  0  0
   -4.5710    0.7560  -19.2160 C   0  0  0  0  0  0  0  0  0  0  0  0
   -3.4350    1.5840  -19.4260 C   0  0  0  0  0  0  0  0  0  0  0  0
   -3.0050    1.8600  -20.6940 C   0  0  0  0  0  0  0  0  0  0  0  0
   -3.6900    1.3180  -21.8050 C   0  0  0  0  0  0  0  0  0  0  0  0
   -4.7930    0.5130  -21.6270 C   0  0  0  0  0  0  0  0  0  0  0  0
   -5.2640    0.2110  -20.3190 C   0  0  0  0  0  0  0  0  0  0  0  0
   -5.3050    0.1010  -22.4910 H   0  0  0  0  0  0  0  0  0  0  0  0
   -3.3460    1.5450  -22.8100 H   0  0  0  0  0  0  0  0  0  0  0  0
   -2.1450    2.5070  -20.8560 H   0  0  0  0  0  0  0  0  0  0  0  0
   -2.9340    2.0030  -18.5560 H   0  0  0  0  0  0  0  0  0  0  0  0
   -4.5060    0.8860  -17.0520 H   0  0  0  0  0  0  0  0  0  0  0  0
   -7.5550   -1.5030  -18.4530 H   0  0  0  0  0  0  0  0  0  0  0  0
   -7.5080   -2.4540  -21.2130 C   0  0  0  0  0  0  0  0  0  0  0  0
   -7.0410   -3.3440  -20.5270 O   0  0  0  0  0  0  0  0  0  0  0  0
   -8.5140   -2.6250  -22.3730 C   0  0  1  0  0  0  0  0  0  0  0  0
   -9.8220   -3.1620  -21.7370 C   0  0  0  0  0  0  0  0  0  0  0  0
  -10.7500   -3.7620  -22.7010 N   0  0  0  0  0  0  0  0  0  0  0  0
  -12.1620   -3.8300  -22.3310 C   0  0  0  0  0  0  0  0  0  0  0  0
  -12.9590   -2.6200  -22.7260 C   0  0  0  0  0  0  0  0  0  0  0  0
  -12.8970   -1.4620  -22.1030 N   0  0  0  0  0  0  0  0  0  0  0  0
  -13.7860   -0.6510  -22.7170 N   0  0  0  0  0  0  0  0  0  0  0  0
  -14.3880   -1.2640  -23.6690 N   0  0  0  0  0  0  0  0  0  0  0  0
  -13.8970   -2.5220  -23.6920 N   0  0  0  0  0  0  0  0  0  0  0  0
  -14.4380   -3.4590  -24.6620 C   0  0  0  0  0  0  0  0  0  0  0  0
  -14.0500   -4.4670  -24.4800 H   0  0  0  0  0  0  0  0  0  0  0  0
  -15.5290   -3.4840  -24.5930 H   0  0  0  0  0  0  0  0  0  0  0  0
  -14.1620   -3.1210  -25.6640 H   0  0  0  0  0  0  0  0  0  0  0  0
  -12.2400   -3.9270  -21.2400 H   0  0  0  0  0  0  0  0  0  0  0  0
  -12.6060   -4.7290  -22.7630 H   0  0  0  0  0  0  0  0  0  0  0  0
  -10.2840   -4.6730  -23.6220 C   0  0  0  0  0  0  0  0  0  0  0  0
  -10.9780   -5.5280  -24.1440 O   0  0  0  0  0  0  0  0  0  0  0  0
   -8.8490   -4.5650  -23.9850 C   0  0  0  0  0  0  0  0  0  0  0  0
   -8.3970   -5.4760  -24.9350 C   0  0  0  0  0  0  0  0  0  0  0  0
   -7.0700   -5.5250  -25.2980 C   0  0  0  0  0  0  0  0  0  0  0  0
   -6.2250   -4.5800  -24.7290 C   0  0  0  0  0  0  0  0  0  0  0  0
   -4.9250   -4.6230  -25.0630 F   0  0  0  0  0  0  0  0  0  0  0  0
   -6.6670   -3.6210  -23.8310 C   0  0  0  0  0  0  0  0  0  0  0  0
   -8.0040   -3.6240  -23.4030 C   0  0  0  0  0  0  0  0  0  0  0  0
   -5.9600   -2.8840  -23.4710 H   0  0  0  0  0  0  0  0  0  0  0  0
   -6.6920   -6.2720  -25.9890 H   0  0  0  0  0  0  0  0  0  0  0  0
   -9.1370   -6.1400  -25.3650 H   0  0  0  0  0  0  0  0  0  0  0  0
  -10.3580   -2.3710  -21.1970 H   0  0  0  0  0  0  0  0  0  0  0  0
   -9.5170   -3.9100  -20.9930 H   0  0  0  0  0  0  0  0  0  0  0  0
   -9.0260   -0.0150  -21.1310 H   0  0  0  0  0  0  0  0  0  0  0  0
   -7.7070    0.6570  -22.0940 H   0  0  0  0  0  0  0  0  0  0  0  0
   -7.7930   -1.1170  -23.6960 H   0  0  0  0  0  0  0  0  0  0  0  0
  -10.7220   -0.7520  -22.9030 H   0  0  0  0  0  0  0  0  0  0  0  0
   -9.7870    0.3070  -23.9670 H   0  0  0  0  0  0  0  0  0  0  0  0
  -10.1360   -1.3560  -24.4640 H   0  0  0  0  0  0  0  0  0  0  0  0
  1  2  1  0  0  0  0
  1 55  1  0  0  0  0
  1 56  1  0  0  0  0
  1 57  1  0  0  0  0
  2  3  1  0  0  0  0
  2 23  1  0  0  0  0
  2 54  1  6  0  0  0
  3  4  1  0  0  0  0
  3 52  1  0  0  0  0
  3 53  1  0  0  0  0
  4  5  1  0  0  0  0
  4 21  1  0  0  0  0
  5  6  2  0  0  0  0
  5 14  1  0  0  0  0
  6  7  1  0  0  0  0
  6 20  1  0  0  0  0
  7  8  2  0  0  0  0
  8  9  1  0  0  0  0
  8 19  1  0  0  0  0
  9 10  2  0  0  0  0
  9 14  1  0  0  0  0
 10 11  1  0  0  0  0
 10 18  1  0  0  0  0
 11 12  2  0  0  0  0
 11 17  1  0  0  0  0
 12 13  1  0  0  0  0
 12 16  1  0  0  0  0
 13 14  2  0  0  0  0
 13 15  1  0  0  0  0
 21 22  2  0  0  0  0
 23 21  1  1  0  0  0
 23 24  1  0  0  0  0
 23 46  1  0  0  0  0
 24 25  1  0  0  0  0
 24 50  1  0  0  0  0
 24 51  1  0  0  0  0
 25 26  1  0  0  0  0
 25 38  1  0  0  0  0
 26 27  1  0  0  0  0
 26 36  1  0  0  0  0
 26 37  1  0  0  0  0
 27 28  2  0  0  0  0
 27 31  1  0  0  0  0
 28 29  1  0  0  0  0
 29 30  2  0  0  0  0
 30 31  1  0  0  0  0
 31 32  1  0  0  0  0
 32 33  1  0  0  0  0
 32 34  1  0  0  0  0
 32 35  1  0  0  0  0
 38 39  2  0  0  0  0
 38 40  1  0  0  0  0
 40 41  2  0  0  0  0
 40 46  1  0  0  0  0
 41 42  1  0  0  0  0
 41 49  1  0  0  0  0
 42 43  2  0  0  0  0
 42 48  1  0  0  0  0
 43 44  1  0  0  0  0
 43 45  1  0  0  0  0
 45 46  2  0  0  0  0
 45 47  1  0  0  0  0
M  END
>  <MODEL>
       1

$$$$
