output/tmp_first_model_12_68.pdb
 OpenBabel07242619253D

 65 70  0  0  1  0  0  0  0  0999 V2000
   -8.9760    0.5850  -21.2420 O   0  0  0  0  0  0  0  0  0  0  0  0
   -8.0240    0.1920  -21.8990 C   0  0  0  0  0  0  0  0  0  0  0  0
   -7.2300   -1.0000  -21.3650 C   0  0  0  0  0  0  0  0  0  0  0  0
   -6.4630   -0.5550  -20.1380 C   0  0  0  0  0  0  0  0  0  0  0  0
   -6.9010   -0.8760  -18.8820 C   0  0  0  0  0  0  0  0  0  0  0  0
   -6.3460   -0.4390  -17.7220 N   0  0  0  0  0  0  0  0  0  0  0  0
   -5.3140    0.3630  -17.8200 C   0  0  0  0  0  0  0  0  0  0  0  0
   -4.7410    0.7800  -19.0530 C   0  0  0  0  0  0  0  0  0  0  0  0
   -3.6430    1.6770  -19.1210 C   0  0  0  0  0  0  0  0  0  0  0  0
   -3.1690    2.1170  -20.3270 C   0  0  0  0  0  0  0  0  0  0  0  0
   -3.7500    1.6490  -21.5230 C   0  0  0  0  0  0  0  0  0  0  0  0
   -4.7970    0.7580  -21.4800 C   0  0  0  0  0  0  0  0  0  0  0  0
   -5.3360    0.3090  -20.2480 C   0  0  0  0  0  0  0  0  0  0  0  0
   -5.2300    0.4120  -22.4100 H   0  0  0  0  0  0  0  0  0  0  0  0
   -3.3730    1.9950  -22.4830 H   0  0  0  0  0  0  0  0  0  0  0  0
   -2.3580    2.8360  -20.3680 H   0  0  0  0  0  0  0  0  0  0  0  0
   -3.2020    2.0210  -18.1900 H   0  0  0  0  0  0  0  0  0  0  0  0
   -4.8820    0.7320  -16.8890 H   0  0  0  0  0  0  0  0  0  0  0  0
   -7.7620   -1.5330  -18.7630 H   0  0  0  0  0  0  0  0  0  0  0  0
   -7.9690   -1.7580  -21.0880 H   0  0  0  0  0  0  0  0  0  0  0  0
   -6.5670   -1.4320  -22.1150 H   0  0  0  0  0  0  0  0  0  0  0  0
   -7.5800    0.8490  -23.0420 N   0  0  0  0  0  0  0  0  0  0  0  0
   -7.0490    0.1460  -24.2250 C   0  0  0  0  0  0  0  0  0  0  0  0
   -8.1120   -0.3240  -25.1940 C   0  0  0  0  0  0  0  0  0  0  0  0
   -8.5630   -1.7510  -25.3120 C   0  0  0  0  0  0  0  0  0  0  0  0
  -10.1730   -1.8060  -26.4720 C   0  0  0  0  0  0  0  0  0  0  0  0
  -10.1010   -1.5450  -26.2100 C   0  0  0  0  0  0  0  0  0  0  0  0
   -9.9380   -0.1010  -26.8470 C   0  0  0  0  0  0  0  0  0  0  0  0
   -9.7280    0.0890  -28.6710 Cl  0  0  0  0  0  0  0  0  0  0  0  0
   -8.8060    0.5110  -26.0340 C   0  0  0  0  0  0  0  0  0  0  0  0
   -8.6020    1.5690  -26.1490 H   0  0  0  0  0  0  0  0  0  0  0  0
  -10.8490    0.4660  -26.6440 H   0  0  0  0  0  0  0  0  0  0  0  0
   -9.5390   -2.6130  -26.8370 H   0  0  0  0  0  0  0  0  0  0  0  0
   -8.7740   -2.0680  -24.2450 H   0  0  0  0  0  0  0  0  0  0  0  0
   -6.4790   -0.7170  -23.8640 H   0  0  0  0  0  0  0  0  0  0  0  0
   -6.2980    0.8120  -24.6850 H   0  0  0  0  0  0  0  0  0  0  0  0
   -7.8450    2.2920  -23.0890 C   0  0  2  0  0  0  0  0  0  0  0  0
   -9.2880    2.7180  -23.4420 C   0  0  0  0  0  0  0  0  0  0  0  0
   -9.1320    4.2110  -23.8140 C   0  0  0  0  0  0  0  0  0  0  0  0
   -7.6350    4.4700  -23.6090 C   0  0  2  0  0  0  0  0  0  0  0  0
   -6.9990    3.1510  -24.0370 C   0  0  0  0  0  0  0  0  0  0  0  0
   -7.1780    2.9360  -25.0930 H   0  0  0  0  0  0  0  0  0  0  0  0
   -5.9270    3.0890  -23.8100 H   0  0  0  0  0  0  0  0  0  0  0  0
   -7.4330    4.4590  -22.0820 N   0  3  2  0  0  0  0  0  0  0  0  0
   -6.1830    5.1020  -21.5690 C   0  0  0  0  0  0  0  0  0  0  0  0
   -6.3000    6.6130  -21.4960 C   0  0  0  0  0  0  0  0  0  0  0  0
   -5.0790    7.3640  -20.9470 C   0  0  0  0  0  0  0  0  0  0  0  0
   -4.9710    8.1660  -22.1360 O   0  0  0  0  0  0  0  0  0  0  0  0
   -6.0100    7.4100  -22.7780 C   0  0  0  0  0  0  0  0  0  0  0  0
   -6.8130    8.0460  -23.1710 H   0  0  0  0  0  0  0  0  0  0  0  0
   -5.6060    6.7940  -23.5950 H   0  0  0  0  0  0  0  0  0  0  0  0
   -4.1920    6.7300  -20.7980 H   0  0  0  0  0  0  0  0  0  0  0  0
   -5.2230    7.9750  -20.0490 H   0  0  0  0  0  0  0  0  0  0  0  0
   -7.2420    6.8880  -21.0110 H   0  0  0  0  0  0  0  0  0  0  0  0
   -5.9590    4.7000  -20.5760 H   0  0  0  0  0  0  0  0  0  0  0  0
   -5.3370    4.8230  -22.2140 H   0  0  0  0  0  0  0  0  0  0  0  0
   -7.5480    2.9910  -21.7480 C   0  0  0  0  0  0  0  0  0  0  0  0
   -6.6130    2.6450  -21.3080 H   0  0  0  0  0  0  0  0  0  0  0  0
   -8.3470    2.8300  -21.0330 H   0  0  0  0  0  0  0  0  0  0  0  0
   -8.2250    4.9550  -21.6270 H   0  0  0  0  0  0  0  0  0  0  0  0
   -7.2470    5.3880  -24.0420 H   0  0  0  0  0  0  0  0  0  0  0  0
   -9.4200    4.3960  -24.8510 H   0  0  0  0  0  0  0  0  0  0  0  0
   -9.7270    4.8660  -23.1680 H   0  0  0  0  0  0  0  0  0  0  0  0
   -9.9610    2.5470  -22.6000 H   0  0  0  0  0  0  0  0  0  0  0  0
   -9.6560    2.1360  -24.2840 H   0  0  0  0  0  0  0  0  0  0  0  0
  1  2  2  0  0  0  0
  2  3  1  0  0  0  0
  2 22  1  0  0  0  0
  3  4  1  0  0  0  0
  3 20  1  0  0  0  0
  3 21  1  0  0  0  0
  4  5  2  0  0  0  0
  4 13  1  0  0  0  0
  5  6  1  0  0  0  0
  5 19  1  0  0  0  0
  6  7  2  0  0  0  0
  7  8  1  0  0  0  0
  7 18  1  0  0  0  0
  8  9  2  0  0  0  0
  8 13  1  0  0  0  0
  9 10  1  0  0  0  0
  9 17  1  0  0  0  0
 10 11  2  0  0  0  0
 10 16  1  0  0  0  0
 11 12  1  0  0  0  0
 11 15  1  0  0  0  0
 12 13  2  0  0  0  0
 12 14  1  0  0  0  0
 22 23  1  0  0  0  0
 23 24  1  0  0  0  0
 23 35  1  0  0  0  0
 23 36  1  0  0  0  0
 24 25  2  0  0  0  0
 24 30  1  0  0  0  0
 25 26  1  0  0  0  0
 25 34  1  0  0  0  0
 26 27  2  0  0  0  0
 26 33  1  0  0  0  0
 27 28  1  0  0  0  0
 27 32  1  0  0  0  0
 28 29  1  0  0  0  0
 28 30  2  0  0  0  0
 30 31  1  0  0  0  0
 37 22  1  6  0  0  0
 37 38  1  0  0  0  0
 37 41  1  0  0  0  0
 37 57  1  0  0  0  0
 38 39  1  0  0  0  0
 38 64  1  0  0  0  0
 38 65  1  0  0  0  0
 39 40  1  0  0  0  0
 39 62  1  0  0  0  0
 39 63  1  0  0  0  0
 40 41  1  0  0  0  0
 40 44  1  0  0  0  0
 40 61  1  6  0  0  0
 41 42  1  0  0  0  0
 41 43  1  0  0  0  0
 44 45  1  0  0  0  0
 44 57  1  0  0  0  0
 44 60  1  1  0  0  0
 45 46  1  0  0  0  0
 45 55  1  0  0  0  0
 45 56  1  0  0  0  0
 46 47  1  0  0  0  0
 46 49  1  0  0  0  0
 46 54  1  0  0  0  0
 47 48  1  0  0  0  0
 47 52  1  0  0  0  0
 47 53  1  0  0  0  0
 48 49  1  0  0  0  0
 49 50  1  0  0  0  0
 49 51  1  0  0  0  0
 57 58  1  0  0  0  0
 57 59  1  0  0  0  0
M  CHG  1  44   1
M  END
>  <MODEL>
       1

$$$$
