output/tmp_first_model_5_96.pdb
 OpenBabel07242615323D

 66 70  0  0  1  0  0  0  0  0999 V2000
   -7.3740    3.5640  -22.7020 C   0  0  0  0  0  0  0  0  0  0  0  0
   -8.3220    2.9860  -23.6380 N   0  0  0  0  0  0  0  0  0  0  0  0
   -7.8840    2.0560  -24.5280 C   0  0  0  0  0  0  0  0  0  0  0  0
   -6.6980    1.7920  -24.6770 O   0  0  0  0  0  0  0  0  0  0  0  0
   -8.9780    1.3480  -25.3370 C   0  0  0  0  0  0  0  0  0  0  0  0
   -9.5430    0.2120  -24.6100 N   0  0  0  0  0  0  0  0  0  0  0  0
   -8.7440   -1.0030  -24.4500 C   0  0  0  0  0  0  0  0  0  0  0  0
   -8.9330   -1.6840  -23.0270 C   0  0  2  0  0  0  0  0  0  0  0  0
   -8.2190   -0.7370  -21.9950 C   0  0  0  0  0  0  0  0  0  0  0  0
   -8.3670    0.4660  -21.8930 O   0  0  0  0  0  0  0  0  0  0  0  0
   -7.3530   -1.4780  -21.2430 N   0  0  0  0  0  0  0  0  0  0  0  0
   -6.5190   -0.9440  -20.2320 C   0  0  0  0  0  0  0  0  0  0  0  0
   -6.8140   -1.1440  -18.9070 C   0  0  0  0  0  0  0  0  0  0  0  0
   -6.0220   -0.7600  -17.8780 N   0  0  0  0  0  0  0  0  0  0  0  0
   -4.8750   -0.1980  -18.1860 C   0  0  0  0  0  0  0  0  0  0  0  0
   -4.4400    0.0520  -19.5230 C   0  0  0  0  0  0  0  0  0  0  0  0
   -3.2790    0.8440  -19.7950 C   0  0  0  0  0  0  0  0  0  0  0  0
   -3.1340    1.4650  -21.0030 C   0  0  0  0  0  0  0  0  0  0  0  0
   -4.0080    1.1500  -22.0770 C   0  0  0  0  0  0  0  0  0  0  0  0
   -5.0350    0.2640  -21.8860 C   0  0  0  0  0  0  0  0  0  0  0  0
   -5.3300   -0.2380  -20.5800 C   0  0  0  0  0  0  0  0  0  0  0  0
   -5.6590   -0.0370  -22.7230 H   0  0  0  0  0  0  0  0  0  0  0  0
   -3.8300    1.5690  -23.0610 H   0  0  0  0  0  0  0  0  0  0  0  0
   -2.3160    2.1580  -21.1650 H   0  0  0  0  0  0  0  0  0  0  0  0
   -2.6360    1.1020  -18.9560 H   0  0  0  0  0  0  0  0  0  0  0  0
   -4.2770    0.1820  -17.3550 H   0  0  0  0  0  0  0  0  0  0  0  0
   -7.7580   -1.6140  -18.6270 H   0  0  0  0  0  0  0  0  0  0  0  0
   -7.3660   -2.8920  -21.5100 C   0  0  0  0  0  0  0  0  0  0  0  0
   -8.1630   -3.0250  -22.8250 C   0  0  2  0  0  0  0  0  0  0  0  0
   -7.2230   -3.4110  -23.9640 C   0  0  0  0  0  0  0  0  0  0  0  0
   -6.1690   -2.4790  -24.0660 O   0  0  0  0  0  0  0  0  0  0  0  0
   -5.2780   -2.7120  -25.1470 C   0  0  0  0  0  0  0  0  0  0  0  0
   -5.5950   -1.8060  -26.3320 C   0  0  0  0  0  0  0  0  0  0  0  0
   -6.5820   -2.0130  -26.7590 H   0  0  0  0  0  0  0  0  0  0  0  0
   -5.5680   -0.7580  -26.0100 H   0  0  0  0  0  0  0  0  0  0  0  0
   -4.8430   -1.9410  -27.1190 H   0  0  0  0  0  0  0  0  0  0  0  0
   -3.9290   -2.3620  -24.5940 C   0  0  0  0  0  0  0  0  0  0  0  0
   -3.1490   -2.4510  -25.3600 H   0  0  0  0  0  0  0  0  0  0  0  0
   -3.6610   -2.9720  -23.7270 H   0  0  0  0  0  0  0  0  0  0  0  0
   -4.0170   -1.3180  -24.2600 H   0  0  0  0  0  0  0  0  0  0  0  0
   -5.3150   -3.7700  -25.4450 H   0  0  0  0  0  0  0  0  0  0  0  0
   -6.7940   -4.4050  -23.7740 H   0  0  0  0  0  0  0  0  0  0  0  0
   -7.7670   -3.4640  -24.9160 H   0  0  0  0  0  0  0  0  0  0  0  0
   -8.9110   -3.8260  -22.7450 H   0  0  0  0  0  0  0  0  0  0  0  0
   -7.8430   -3.4150  -20.6820 H   0  0  0  0  0  0  0  0  0  0  0  0
   -6.3370   -3.2600  -21.5800 H   0  0  0  0  0  0  0  0  0  0  0  0
  -10.3990   -1.9000  -22.7790 C   0  0  0  0  0  0  0  0  0  0  0  0
  -11.1300   -3.0270  -22.2500 C   0  0  0  0  0  0  0  0  0  0  0  0
  -12.5400   -2.5070  -22.1560 C   0  0  0  0  0  0  0  0  0  0  0  0
  -12.6640   -4.1070  -20.3960 Cl  0  0  0  0  0  0  0  0  0  0  0  0
  -12.5470   -2.5010  -22.1630 C   0  0  0  0  0  0  0  0  0  0  0  0
  -12.5370   -1.1960  -23.0450 C   0  0  0  0  0  0  0  0  0  0  0  0
  -11.2900   -0.8750  -23.2460 C   0  0  0  0  0  0  0  0  0  0  0  0
  -10.8450    0.2890  -24.1510 C   0  0  0  0  0  0  0  0  0  0  0  0
  -11.5770    1.2090  -24.4770 O   0  0  0  0  0  0  0  0  0  0  0  0
  -13.4680   -1.0870  -23.4430 H   0  0  0  0  0  0  0  0  0  0  0  0
  -13.7120   -2.4300  -22.3540 H   0  0  0  0  0  0  0  0  0  0  0  0
  -11.2260   -3.0620  -21.2590 H   0  0  0  0  0  0  0  0  0  0  0  0
   -9.0020   -1.7150  -25.2490 H   0  0  0  0  0  0  0  0  0  0  0  0
   -7.7050   -0.7420  -24.5940 H   0  0  0  0  0  0  0  0  0  0  0  0
   -9.7980    2.0330  -25.5690 H   0  0  0  0  0  0  0  0  0  0  0  0
   -8.5230    1.0380  -26.2900 H   0  0  0  0  0  0  0  0  0  0  0  0
   -9.2970    2.9700  -23.3760 H   0  0  0  0  0  0  0  0  0  0  0  0
   -6.6550    4.1860  -23.2430 H   0  0  0  0  0  0  0  0  0  0  0  0
   -6.8200    2.7800  -22.1680 H   0  0  0  0  0  0  0  0  0  0  0  0
   -7.9090    4.1910  -21.9850 H   0  0  0  0  0  0  0  0  0  0  0  0
  1  2  1  0  0  0  0
  1 64  1  0  0  0  0
  1 65  1  0  0  0  0
  1 66  1  0  0  0  0
  2  3  1  0  0  0  0
  2 63  1  0  0  0  0
  3  4  2  0  0  0  0
  3  5  1  0  0  0  0
  5  6  1  0  0  0  0
  5 61  1  0  0  0  0
  5 62  1  0  0  0  0
  6  7  1  0  0  0  0
  6 54  1  0  0  0  0
  7  8  1  0  0  0  0
  7 59  1  0  0  0  0
  7 60  1  0  0  0  0
  8  9  1  1  0  0  0
  8 29  1  0  0  0  0
  8 47  1  0  0  0  0
  9 10  2  0  0  0  0
  9 11  1  0  0  0  0
 11 12  1  0  0  0  0
 11 28  1  0  0  0  0
 12 13  2  0  0  0  0
 12 21  1  0  0  0  0
 13 14  1  0  0  0  0
 13 27  1  0  0  0  0
 14 15  2  0  0  0  0
 15 16  1  0  0  0  0
 15 26  1  0  0  0  0
 16 17  2  0  0  0  0
 16 21  1  0  0  0  0
 17 18  1  0  0  0  0
 17 25  1  0  0  0  0
 18 19  2  0  0  0  0
 18 24  1  0  0  0  0
 19 20  1  0  0  0  0
 19 23  1  0  0  0  0
 20 21  2  0  0  0  0
 20 22  1  0  0  0  0
 28 29  1  0  0  0  0
 28 45  1  0  0  0  0
 28 46  1  0  0  0  0
 29 30  1  0  0  0  0
 29 44  1  1  0  0  0
 30 31  1  0  0  0  0
 30 42  1  0  0  0  0
 30 43  1  0  0  0  0
 31 32  1  0  0  0  0
 32 33  1  0  0  0  0
 32 37  1  0  0  0  0
 32 41  1  0  0  0  0
 33 34  1  0  0  0  0
 33 35  1  0  0  0  0
 33 36  1  0  0  0  0
 37 38  1  0  0  0  0
 37 39  1  0  0  0  0
 37 40  1  0  0  0  0
 47 48  2  0  0  0  0
 47 53  1  0  0  0  0
 48 49  1  0  0  0  0
 48 58  1  0  0  0  0
 49 50  1  0  0  0  0
 49 51  2  0  0  0  0
 51 52  1  0  0  0  0
 51 57  1  0  0  0  0
 52 53  2  0  0  0  0
 52 56  1  0  0  0  0
 53 54  1  0  0  0  0
 54 55  2  0  0  0  0
M  END
>  <MODEL>
       1

$$$$
