output/tmp_first_model_11_30.pdb
 OpenBabel07242618513D

 58 63  0  0  1  0  0  0  0  0999 V2000
   -8.1120   -4.1500  -23.7850 C   0  0  0  0  0  0  0  0  0  0  0  0
   -8.3420   -3.1670  -22.6570 C   0  0  1  0  0  0  0  0  0  0  0  0
   -7.0530   -2.4530  -22.2440 C   0  0  0  0  0  0  0  0  0  0  0  0
   -7.5640   -1.4000  -21.3900 N   0  0  0  0  0  0  0  0  0  0  0  0
   -6.8510   -0.8400  -20.3040 C   0  0  0  0  0  0  0  0  0  0  0  0
   -7.2300   -1.0480  -18.9970 C   0  0  0  0  0  0  0  0  0  0  0  0
   -6.5310   -0.5980  -17.9260 N   0  0  0  0  0  0  0  0  0  0  0  0
   -5.4420    0.0940  -18.1610 C   0  0  0  0  0  0  0  0  0  0  0  0
   -4.9510    0.4030  -19.4590 C   0  0  0  0  0  0  0  0  0  0  0  0
   -3.7840    1.1880  -19.6660 C   0  0  0  0  0  0  0  0  0  0  0  0
   -3.3720    1.4950  -20.9340 C   0  0  0  0  0  0  0  0  0  0  0  0
   -4.0880    1.0130  -22.0540 C   0  0  0  0  0  0  0  0  0  0  0  0
   -5.1890    0.2110  -21.8680 C   0  0  0  0  0  0  0  0  0  0  0  0
   -5.6640   -0.0920  -20.5670 C   0  0  0  0  0  0  0  0  0  0  0  0
   -5.7420   -0.1560  -22.7240 H   0  0  0  0  0  0  0  0  0  0  0  0
   -3.8040    1.3140  -23.0580 H   0  0  0  0  0  0  0  0  0  0  0  0
   -2.4930    2.1140  -21.0850 H   0  0  0  0  0  0  0  0  0  0  0  0
   -3.2540    1.5560  -18.7910 H   0  0  0  0  0  0  0  0  0  0  0  0
   -4.8900    0.4600  -17.2960 H   0  0  0  0  0  0  0  0  0  0  0  0
   -8.1260   -1.6200  -18.7660 H   0  0  0  0  0  0  0  0  0  0  0  0
   -8.8870   -1.1040  -21.6600 C   0  0  0  0  0  0  0  0  0  0  0  0
   -9.5330   -0.2490  -21.0990 O   0  0  0  0  0  0  0  0  0  0  0  0
   -9.3980   -2.0380  -22.7980 C   0  0  1  0  0  0  0  0  0  0  0  0
   -9.3040   -1.3050  -24.1660 C   0  0  0  0  0  0  0  0  0  0  0  0
  -10.3870   -0.3570  -24.3960 N   0  0  0  0  0  0  0  0  0  0  0  0
  -10.1020    0.8390  -25.1680 C   0  0  0  0  0  0  0  0  0  0  0  0
   -8.9790    1.6090  -24.5170 C   0  0  0  0  0  0  0  0  0  0  0  0
   -7.8390    1.9800  -25.1690 C   0  0  0  0  0  0  0  0  0  0  0  0
   -6.6570    2.3210  -24.4030 C   0  0  0  0  0  0  0  0  0  0  0  0
   -5.5230    2.4840  -24.8180 O   0  0  0  0  0  0  0  0  0  0  0  0
   -6.9350    2.4260  -23.0300 N   0  0  0  0  0  0  0  0  0  0  0  0
   -8.1540    2.1750  -22.4880 C   0  0  0  0  0  0  0  0  0  0  0  0
   -9.1840    1.8190  -23.1810 N   0  0  0  0  0  0  0  0  0  0  0  0
   -8.2280    2.2540  -21.4070 H   0  0  0  0  0  0  0  0  0  0  0  0
   -6.1440    2.6210  -22.4270 H   0  0  0  0  0  0  0  0  0  0  0  0
   -7.7400    1.9260  -26.2440 H   0  0  0  0  0  0  0  0  0  0  0  0
  -11.0200    1.4260  -25.1380 H   0  0  0  0  0  0  0  0  0  0  0  0
   -9.8750    0.5890  -26.2100 H   0  0  0  0  0  0  0  0  0  0  0  0
  -11.6780   -0.5770  -24.0250 C   0  0  0  0  0  0  0  0  0  0  0  0
  -12.6210    0.1020  -24.4090 O   0  0  0  0  0  0  0  0  0  0  0  0
  -11.8990   -1.6810  -23.0630 C   0  0  0  0  0  0  0  0  0  0  0  0
  -13.2160   -1.8330  -22.6400 C   0  0  0  0  0  0  0  0  0  0  0  0
  -13.5300   -2.7160  -21.6350 C   0  0  0  0  0  0  0  0  0  0  0  0
  -12.4860   -3.4680  -21.1130 C   0  0  0  0  0  0  0  0  0  0  0  0
  -12.7760   -4.2140  -20.0330 F   0  0  0  0  0  0  0  0  0  0  0  0
  -11.1860   -3.4100  -21.5870 C   0  0  0  0  0  0  0  0  0  0  0  0
  -10.8430   -2.4310  -22.5330 C   0  0  0  0  0  0  0  0  0  0  0  0
  -10.4390   -4.0390  -21.1070 H   0  0  0  0  0  0  0  0  0  0  0  0
  -14.5220   -2.7950  -21.2100 H   0  0  0  0  0  0  0  0  0  0  0  0
  -13.9640   -1.1800  -23.0710 H   0  0  0  0  0  0  0  0  0  0  0  0
   -9.2820   -2.0380  -24.9830 H   0  0  0  0  0  0  0  0  0  0  0  0
   -8.3650   -0.7480  -24.1990 H   0  0  0  0  0  0  0  0  0  0  0  0
   -6.3620   -3.1160  -21.7120 H   0  0  0  0  0  0  0  0  0  0  0  0
   -6.5180   -2.0540  -23.1210 H   0  0  0  0  0  0  0  0  0  0  0  0
   -8.6410   -3.7320  -21.7710 H   0  0  0  0  0  0  0  0  0  0  0  0
   -9.0240   -4.7000  -24.0250 H   0  0  0  0  0  0  0  0  0  0  0  0
   -7.7500   -3.6590  -24.6940 H   0  0  0  0  0  0  0  0  0  0  0  0
   -7.3470   -4.8720  -23.4750 H   0  0  0  0  0  0  0  0  0  0  0  0
  1  2  1  0  0  0  0
  1 56  1  0  0  0  0
  1 57  1  0  0  0  0
  1 58  1  0  0  0  0
  2  3  1  0  0  0  0
  2 23  1  0  0  0  0
  2 55  1  1  0  0  0
  3  4  1  0  0  0  0
  3 53  1  0  0  0  0
  3 54  1  0  0  0  0
  4  5  1  0  0  0  0
  4 21  1  0  0  0  0
  5  6  2  0  0  0  0
  5 14  1  0  0  0  0
  6  7  1  0  0  0  0
  6 20  1  0  0  0  0
  7  8  2  0  0  0  0
  8  9  1  0  0  0  0
  8 19  1  0  0  0  0
  9 10  2  0  0  0  0
  9 14  1  0  0  0  0
 10 11  1  0  0  0  0
 10 18  1  0  0  0  0
 11 12  2  0  0  0  0
 11 17  1  0  0  0  0
 12 13  1  0  0  0  0
 12 16  1  0  0  0  0
 13 14  2  0  0  0  0
 13 15  1  0  0  0  0
 21 22  2  0  0  0  0
 23 21  1  1  0  0  0
 23 24  1  0  0  0  0
 23 47  1  0  0  0  0
 24 25  1  0  0  0  0
 24 51  1  0  0  0  0
 24 52  1  0  0  0  0
 25 26  1  0  0  0  0
 25 39  1  0  0  0  0
 26 27  1  0  0  0  0
 26 37  1  0  0  0  0
 26 38  1  0  0  0  0
 27 28  2  0  0  0  0
 27 33  1  0  0  0  0
 28 29  1  0  0  0  0
 28 36  1  0  0  0  0
 29 30  2  0  0  0  0
 29 31  1  0  0  0  0
 31 32  1  0  0  0  0
 31 35  1  0  0  0  0
 32 33  2  0  0  0  0
 32 34  1  0  0  0  0
 39 40  2  0  0  0  0
 39 41  1  0  0  0  0
 41 42  2  0  0  0  0
 41 47  1  0  0  0  0
 42 43  1  0  0  0  0
 42 50  1  0  0  0  0
 43 44  2  0  0  0  0
 43 49  1  0  0  0  0
 44 45  1  0  0  0  0
 44 46  1  0  0  0  0
 46 47  2  0  0  0  0
 46 48  1  0  0  0  0
M  END
>  <MODEL>
       1

$$$$
