output/tmp_first_model_20_90.pdb
 OpenBabel07242623363D

 64 68  0  0  1  0  0  0  0  0999 V2000
   -7.7900    2.9100  -22.2290 C   0  0  0  0  0  0  0  0  0  0  0  0
   -8.7230    2.4100  -23.2090 N   0  0  0  0  0  0  0  0  0  0  0  0
   -8.2780    1.8640  -24.3590 C   0  0  0  0  0  0  0  0  0  0  0  0
   -7.0970    1.8320  -24.6780 O   0  0  0  0  0  0  0  0  0  0  0  0
   -9.3670    1.1900  -25.1920 C   0  0  0  0  0  0  0  0  0  0  0  0
   -9.9130    0.0580  -24.4610 N   0  0  0  0  0  0  0  0  0  0  0  0
   -8.9900   -1.0150  -24.1520 C   0  0  0  0  0  0  0  0  0  0  0  0
   -9.2520   -1.7150  -22.7850 C   0  0  2  0  0  0  0  0  0  0  0  0
   -8.7090   -0.8260  -21.6360 C   0  0  0  0  0  0  0  0  0  0  0  0
   -9.2630    0.1370  -21.1430 O   0  0  0  0  0  0  0  0  0  0  0  0
   -7.4730   -1.3070  -21.2590 N   0  0  0  0  0  0  0  0  0  0  0  0
   -6.6940   -0.7420  -20.2160 C   0  0  0  0  0  0  0  0  0  0  0  0
   -6.9910   -1.0020  -18.9030 C   0  0  0  0  0  0  0  0  0  0  0  0
   -6.2580   -0.5610  -17.8510 N   0  0  0  0  0  0  0  0  0  0  0  0
   -5.1950    0.1590  -18.1070 C   0  0  0  0  0  0  0  0  0  0  0  0
   -4.7640    0.5030  -19.4210 C   0  0  0  0  0  0  0  0  0  0  0  0
   -3.6070    1.2960  -19.6570 C   0  0  0  0  0  0  0  0  0  0  0  0
   -3.2330    1.6120  -20.9340 C   0  0  0  0  0  0  0  0  0  0  0  0
   -3.9920    1.1580  -22.0330 C   0  0  0  0  0  0  0  0  0  0  0  0
   -5.1170    0.3920  -21.8270 C   0  0  0  0  0  0  0  0  0  0  0  0
   -5.5320    0.0390  -20.5150 C   0  0  0  0  0  0  0  0  0  0  0  0
   -5.7350    0.1230  -22.6770 H   0  0  0  0  0  0  0  0  0  0  0  0
   -3.7070    1.4360  -23.0440 H   0  0  0  0  0  0  0  0  0  0  0  0
   -2.3600    2.2330  -21.1150 H   0  0  0  0  0  0  0  0  0  0  0  0
   -3.0390    1.6540  -18.8030 H   0  0  0  0  0  0  0  0  0  0  0  0
   -4.6140    0.5130  -17.2530 H   0  0  0  0  0  0  0  0  0  0  0  0
   -7.8570   -1.6130  -18.6600 H   0  0  0  0  0  0  0  0  0  0  0  0
   -7.0360   -2.4680  -21.9990 C   0  0  0  0  0  0  0  0  0  0  0  0
   -8.3470   -2.9700  -22.6330 C   0  0  2  0  0  0  0  0  0  0  0  0
   -8.1490   -3.7640  -23.9150 C   0  0  0  0  0  0  0  0  0  0  0  0
   -7.2850   -5.2980  -23.6710 S   0  0  0  0  0  0  0  0  0  0  0  0
   -5.8900   -5.0240  -23.3530 O   0  0  0  0  0  0  0  0  0  0  0  0
   -8.0780   -6.1580  -22.7990 O   0  0  0  0  0  0  0  0  0  0  0  0
   -7.2930   -5.8660  -25.2280 N   0  0  0  0  0  0  0  0  0  0  0  0
   -8.5150   -6.4300  -25.7800 C   0  0  0  0  0  0  0  0  0  0  0  0
   -9.1690   -5.6250  -26.1320 H   0  0  0  0  0  0  0  0  0  0  0  0
   -8.2680   -7.0630  -26.6370 H   0  0  0  0  0  0  0  0  0  0  0  0
   -9.0540   -7.0190  -25.0360 H   0  0  0  0  0  0  0  0  0  0  0  0
   -6.4180   -6.3330  -25.4300 H   0  0  0  0  0  0  0  0  0  0  0  0
   -7.5460   -3.2160  -24.6420 H   0  0  0  0  0  0  0  0  0  0  0  0
   -9.1130   -4.0010  -24.3730 H   0  0  0  0  0  0  0  0  0  0  0  0
   -8.8140   -3.6310  -21.9020 H   0  0  0  0  0  0  0  0  0  0  0  0
   -6.5880   -3.2010  -21.3230 H   0  0  0  0  0  0  0  0  0  0  0  0
   -6.2740   -2.2170  -22.7540 H   0  0  0  0  0  0  0  0  0  0  0  0
  -10.7480   -1.9510  -22.6370 C   0  0  0  0  0  0  0  0  0  0  0  0
  -11.2890   -2.9880  -21.8650 C   0  0  0  0  0  0  0  0  0  0  0  0
  -12.6540   -3.0410  -21.6490 C   0  0  0  0  0  0  0  0  0  0  0  0
  -13.1460   -4.0330  -20.8900 F   0  0  0  0  0  0  0  0  0  0  0  0
  -13.5490   -2.1100  -22.1600 C   0  0  0  0  0  0  0  0  0  0  0  0
  -13.0250   -1.0960  -22.9270 C   0  0  0  0  0  0  0  0  0  0  0  0
  -11.6550   -1.0220  -23.1730 C   0  0  0  0  0  0  0  0  0  0  0  0
  -11.1880    0.1330  -23.9950 C   0  0  0  0  0  0  0  0  0  0  0  0
  -11.9070    1.0990  -24.2260 O   0  0  0  0  0  0  0  0  0  0  0  0
  -13.6570   -0.3200  -23.3400 H   0  0  0  0  0  0  0  0  0  0  0  0
  -14.6080   -2.1990  -21.9380 H   0  0  0  0  0  0  0  0  0  0  0  0
  -10.6830   -3.7560  -21.3970 H   0  0  0  0  0  0  0  0  0  0  0  0
   -7.9890   -0.5770  -24.1610 H   0  0  0  0  0  0  0  0  0  0  0  0
   -9.0260   -1.7430  -24.9650 H   0  0  0  0  0  0  0  0  0  0  0  0
  -10.2020    1.8710  -25.3670 H   0  0  0  0  0  0  0  0  0  0  0  0
   -8.9090    0.8930  -26.1420 H   0  0  0  0  0  0  0  0  0  0  0  0
   -9.6610    2.1950  -22.9110 H   0  0  0  0  0  0  0  0  0  0  0  0
   -7.4880    3.9420  -22.4440 H   0  0  0  0  0  0  0  0  0  0  0  0
   -6.9060    2.2680  -22.2290 H   0  0  0  0  0  0  0  0  0  0  0  0
   -8.2460    2.8580  -21.2410 H   0  0  0  0  0  0  0  0  0  0  0  0
  1  2  1  0  0  0  0
  1 62  1  0  0  0  0
  1 63  1  0  0  0  0
  1 64  1  0  0  0  0
  2  3  1  0  0  0  0
  2 61  1  0  0  0  0
  3  4  2  0  0  0  0
  3  5  1  0  0  0  0
  5  6  1  0  0  0  0
  5 59  1  0  0  0  0
  5 60  1  0  0  0  0
  6  7  1  0  0  0  0
  6 52  1  0  0  0  0
  7  8  1  0  0  0  0
  7 57  1  0  0  0  0
  7 58  1  0  0  0  0
  8  9  1  1  0  0  0
  8 29  1  0  0  0  0
  8 45  1  0  0  0  0
  9 10  2  0  0  0  0
  9 11  1  0  0  0  0
 11 12  1  0  0  0  0
 11 28  1  0  0  0  0
 12 13  2  0  0  0  0
 12 21  1  0  0  0  0
 13 14  1  0  0  0  0
 13 27  1  0  0  0  0
 14 15  2  0  0  0  0
 15 16  1  0  0  0  0
 15 26  1  0  0  0  0
 16 17  2  0  0  0  0
 16 21  1  0  0  0  0
 17 18  1  0  0  0  0
 17 25  1  0  0  0  0
 18 19  2  0  0  0  0
 18 24  1  0  0  0  0
 19 20  1  0  0  0  0
 19 23  1  0  0  0  0
 20 21  2  0  0  0  0
 20 22  1  0  0  0  0
 28 29  1  0  0  0  0
 28 43  1  0  0  0  0
 28 44  1  0  0  0  0
 29 30  1  0  0  0  0
 29 42  1  1  0  0  0
 30 31  1  0  0  0  0
 30 40  1  0  0  0  0
 30 41  1  0  0  0  0
 31 32  2  0  0  0  0
 31 33  2  0  0  0  0
 31 34  1  0  0  0  0
 34 35  1  0  0  0  0
 34 39  1  0  0  0  0
 35 36  1  0  0  0  0
 35 37  1  0  0  0  0
 35 38  1  0  0  0  0
 45 46  2  0  0  0  0
 45 51  1  0  0  0  0
 46 47  1  0  0  0  0
 46 56  1  0  0  0  0
 47 48  1  0  0  0  0
 47 49  2  0  0  0  0
 49 50  1  0  0  0  0
 49 55  1  0  0  0  0
 50 51  2  0  0  0  0
 50 54  1  0  0  0  0
 51 52  1  0  0  0  0
 52 53  2  0  0  0  0
M  END
>  <MODEL>
       1

$$$$
