output/tmp_first_model_5_53.pdb
 OpenBabel07242615323D

 59 63  0  0  1  0  0  0  0  0999 V2000
  -13.9080   -0.6350  -24.1060 C   0  0  0  0  0  0  0  0  0  0  0  0
  -14.6860   -1.6710  -23.2760 C   0  0  0  0  0  0  0  0  0  0  0  0
  -13.7760   -2.6990  -22.8340 N   0  0  0  0  0  0  0  0  0  0  0  0
  -13.4010   -2.9550  -21.5590 C   0  0  0  0  0  0  0  0  0  0  0  0
  -13.8260   -2.3870  -20.5680 O   0  0  0  0  0  0  0  0  0  0  0  0
  -12.4000   -4.0950  -21.5480 C   0  0  0  0  0  0  0  0  0  0  0  0
  -11.2050   -3.8600  -22.3390 N   0  0  0  0  0  0  0  0  0  0  0  0
  -10.0710   -3.3450  -21.5990 C   0  0  0  0  0  0  0  0  0  0  0  0
   -8.8880   -2.8840  -22.4650 C   0  0  2  0  0  0  0  0  0  0  0  0
   -7.6960   -2.7530  -21.5030 C   0  0  0  0  0  0  0  0  0  0  0  0
   -7.0430   -3.6570  -21.0150 O   0  0  0  0  0  0  0  0  0  0  0  0
   -7.4640   -1.4200  -21.2400 N   0  0  0  0  0  0  0  0  0  0  0  0
   -6.5230   -1.0640  -20.2460 C   0  0  0  0  0  0  0  0  0  0  0  0
   -6.7070   -1.4600  -18.9440 C   0  0  0  0  0  0  0  0  0  0  0  0
   -5.7860   -1.2960  -17.9630 N   0  0  0  0  0  0  0  0  0  0  0  0
   -4.6600   -0.6980  -18.2810 C   0  0  0  0  0  0  0  0  0  0  0  0
   -4.3920   -0.1400  -19.5650 C   0  0  0  0  0  0  0  0  0  0  0  0
   -3.2570    0.6850  -19.8140 C   0  0  0  0  0  0  0  0  0  0  0  0
   -3.1770    1.4100  -20.9730 C   0  0  0  0  0  0  0  0  0  0  0  0
   -4.1270    1.2220  -22.0060 C   0  0  0  0  0  0  0  0  0  0  0  0
   -5.1850    0.3700  -21.8250 C   0  0  0  0  0  0  0  0  0  0  0  0
   -5.3740   -0.2790  -20.5730 C   0  0  0  0  0  0  0  0  0  0  0  0
   -5.8870    0.1990  -22.6350 H   0  0  0  0  0  0  0  0  0  0  0  0
   -4.0090    1.7350  -22.9560 H   0  0  0  0  0  0  0  0  0  0  0  0
   -2.3380    2.0740  -21.1520 H   0  0  0  0  0  0  0  0  0  0  0  0
   -2.5180    0.8100  -19.0290 H   0  0  0  0  0  0  0  0  0  0  0  0
   -3.9130   -0.5850  -17.4930 H   0  0  0  0  0  0  0  0  0  0  0  0
   -7.6360   -1.9460  -18.6470 H   0  0  0  0  0  0  0  0  0  0  0  0
   -8.4430   -0.5400  -21.8590 C   0  0  0  0  0  0  0  0  0  0  0  0
   -9.0190   -1.4150  -22.9880 C   0  0  2  0  0  0  0  0  0  0  0  0
  -10.4040   -0.9840  -23.4530 C   0  0  0  0  0  0  0  0  0  0  0  0
  -10.3820    0.0480  -23.8200 H   0  0  0  0  0  0  0  0  0  0  0  0
  -11.1440   -1.0390  -22.6460 H   0  0  0  0  0  0  0  0  0  0  0  0
  -10.7570   -1.6300  -24.2650 H   0  0  0  0  0  0  0  0  0  0  0  0
   -8.3310   -1.3430  -23.8410 H   0  0  0  0  0  0  0  0  0  0  0  0
   -7.9820    0.3800  -22.2320 H   0  0  0  0  0  0  0  0  0  0  0  0
   -9.2170   -0.2420  -21.1350 H   0  0  0  0  0  0  0  0  0  0  0  0
   -8.6450   -3.9160  -23.5420 C   0  0  0  0  0  0  0  0  0  0  0  0
   -7.3610   -4.0860  -24.0690 C   0  0  0  0  0  0  0  0  0  0  0  0
   -7.1220   -5.0860  -24.9950 C   0  0  0  0  0  0  0  0  0  0  0  0
   -5.5050   -5.3120  -25.6010 Cl  0  0  0  0  0  0  0  0  0  0  0  0
   -8.1460   -5.9200  -25.4490 C   0  0  0  0  0  0  0  0  0  0  0  0
   -9.4340   -5.6990  -24.9870 C   0  0  0  0  0  0  0  0  0  0  0  0
   -9.6900   -4.7000  -24.0450 C   0  0  0  0  0  0  0  0  0  0  0  0
  -11.0840   -4.4890  -23.5530 C   0  0  0  0  0  0  0  0  0  0  0  0
  -12.0740   -4.8500  -24.1890 O   0  0  0  0  0  0  0  0  0  0  0  0
  -10.2680   -6.3000  -25.3370 H   0  0  0  0  0  0  0  0  0  0  0  0
   -7.9240   -6.7190  -26.1540 H   0  0  0  0  0  0  0  0  0  0  0  0
   -6.5460   -3.4600  -23.7200 H   0  0  0  0  0  0  0  0  0  0  0  0
   -9.6900   -4.1120  -20.9160 H   0  0  0  0  0  0  0  0  0  0  0  0
  -10.4240   -2.5000  -21.0030 H   0  0  0  0  0  0  0  0  0  0  0  0
  -12.9330   -4.8830  -22.0730 H   0  0  0  0  0  0  0  0  0  0  0  0
  -12.1580   -4.3760  -20.5210 H   0  0  0  0  0  0  0  0  0  0  0  0
  -13.4440   -3.3450  -23.5400 H   0  0  0  0  0  0  0  0  0  0  0  0
  -15.1940   -1.2900  -22.3870 H   0  0  0  0  0  0  0  0  0  0  0  0
  -15.4540   -2.1370  -23.8980 H   0  0  0  0  0  0  0  0  0  0  0  0
  -14.4990   -0.2710  -24.9440 H   0  0  0  0  0  0  0  0  0  0  0  0
  -13.0300   -1.1120  -24.5570 H   0  0  0  0  0  0  0  0  0  0  0  0
  -13.5440    0.2300  -23.5380 H   0  0  0  0  0  0  0  0  0  0  0  0
  1  2  1  0  0  0  0
  1 57  1  0  0  0  0
  1 58  1  0  0  0  0
  1 59  1  0  0  0  0
  2  3  1  0  0  0  0
  2 55  1  0  0  0  0
  2 56  1  0  0  0  0
  3  4  1  0  0  0  0
  3 54  1  0  0  0  0
  4  5  2  0  0  0  0
  4  6  1  0  0  0  0
  6  7  1  0  0  0  0
  6 52  1  0  0  0  0
  6 53  1  0  0  0  0
  7  8  1  0  0  0  0
  7 45  1  0  0  0  0
  8  9  1  0  0  0  0
  8 50  1  0  0  0  0
  8 51  1  0  0  0  0
  9 10  1  1  0  0  0
  9 30  1  0  0  0  0
  9 38  1  0  0  0  0
 10 11  2  0  0  0  0
 10 12  1  0  0  0  0
 12 13  1  0  0  0  0
 12 29  1  0  0  0  0
 13 14  2  0  0  0  0
 13 22  1  0  0  0  0
 14 15  1  0  0  0  0
 14 28  1  0  0  0  0
 15 16  2  0  0  0  0
 16 17  1  0  0  0  0
 16 27  1  0  0  0  0
 17 18  2  0  0  0  0
 17 22  1  0  0  0  0
 18 19  1  0  0  0  0
 18 26  1  0  0  0  0
 19 20  2  0  0  0  0
 19 25  1  0  0  0  0
 20 21  1  0  0  0  0
 20 24  1  0  0  0  0
 21 22  2  0  0  0  0
 21 23  1  0  0  0  0
 29 30  1  0  0  0  0
 29 36  1  0  0  0  0
 29 37  1  0  0  0  0
 30 31  1  0  0  0  0
 30 35  1  6  0  0  0
 31 32  1  0  0  0  0
 31 33  1  0  0  0  0
 31 34  1  0  0  0  0
 38 39  2  0  0  0  0
 38 44  1  0  0  0  0
 39 40  1  0  0  0  0
 39 49  1  0  0  0  0
 40 41  1  0  0  0  0
 40 42  2  0  0  0  0
 42 43  1  0  0  0  0
 42 48  1  0  0  0  0
 43 44  2  0  0  0  0
 43 47  1  0  0  0  0
 44 45  1  0  0  0  0
 45 46  2  0  0  0  0
M  END
>  <MODEL>
       1

$$$$
