output/tmp_first_model_11_11.pdb
 OpenBabel07242618513D

 48 52  0  0  0  0  0  0  0  0999 V2000
  -10.1060   -0.8330  -23.6160 C   0  0  0  0  0  0  0  0  0  0  0  0
   -9.1550   -1.3980  -22.6820 N   0  0  0  0  0  0  0  0  0  0  0  0
   -8.2920   -0.5770  -22.0100 C   0  0  0  0  0  0  0  0  0  0  0  0
   -8.2220    0.6300  -22.1030 O   0  0  0  0  0  0  0  0  0  0  0  0
   -7.5150   -1.3950  -21.1750 N   0  0  0  0  0  0  0  0  0  0  0  0
   -6.6580   -0.8730  -20.1660 C   0  0  0  0  0  0  0  0  0  0  0  0
   -6.9580   -1.1070  -18.8500 C   0  0  0  0  0  0  0  0  0  0  0  0
   -6.2810   -0.5760  -17.8040 N   0  0  0  0  0  0  0  0  0  0  0  0
   -5.2540    0.1910  -18.0770 C   0  0  0  0  0  0  0  0  0  0  0  0
   -4.8060    0.4820  -19.3960 C   0  0  0  0  0  0  0  0  0  0  0  0
   -3.6670    1.3010  -19.6310 C   0  0  0  0  0  0  0  0  0  0  0  0
   -3.2470    1.5540  -20.9080 C   0  0  0  0  0  0  0  0  0  0  0  0
   -3.9470    1.0040  -22.0050 C   0  0  0  0  0  0  0  0  0  0  0  0
   -5.0550    0.2160  -21.8040 C   0  0  0  0  0  0  0  0  0  0  0  0
   -5.5220   -0.0620  -20.4870 C   0  0  0  0  0  0  0  0  0  0  0  0
   -5.5900   -0.1870  -22.6570 H   0  0  0  0  0  0  0  0  0  0  0  0
   -3.6100    1.2160  -23.0170 H   0  0  0  0  0  0  0  0  0  0  0  0
   -2.3790    2.1850  -21.0910 H   0  0  0  0  0  0  0  0  0  0  0  0
   -3.1500    1.7370  -18.7800 H   0  0  0  0  0  0  0  0  0  0  0  0
   -4.7110    0.6170  -17.2310 H   0  0  0  0  0  0  0  0  0  0  0  0
   -7.8000   -1.7460  -18.5970 H   0  0  0  0  0  0  0  0  0  0  0  0
   -7.9770   -2.7090  -21.2150 C   0  0  0  0  0  0  0  0  0  0  0  0
   -7.6180   -3.6090  -20.5010 O   0  0  0  0  0  0  0  0  0  0  0  0
   -9.0020   -2.7900  -22.3340 C   0  0  0  0  0  0  0  0  0  0  0  0
   -8.6460   -3.8440  -23.4220 C   0  0  0  0  0  0  0  0  0  0  0  0
   -9.9160   -4.5610  -23.2020 N   0  0  0  0  0  0  0  0  0  0  0  0
  -11.0320   -4.5460  -24.4800 S   0  0  0  0  0  0  0  0  0  0  0  0
  -12.2330   -5.1260  -23.9190 O   0  0  0  0  0  0  0  0  0  0  0  0
  -11.0670   -3.2090  -25.0660 O   0  0  0  0  0  0  0  0  0  0  0  0
  -10.3930   -5.6010  -25.7730 C   0  0  0  0  0  0  0  0  0  0  0  0
  -10.1340   -6.9530  -25.5690 C   0  0  0  0  0  0  0  0  0  0  0  0
   -9.6420   -7.7230  -26.6210 C   0  0  0  0  0  0  0  0  0  0  0  0
   -9.4190   -7.1420  -27.8650 C   0  0  0  0  0  0  0  0  0  0  0  0
   -9.7130   -5.7990  -28.0740 C   0  0  0  0  0  0  0  0  0  0  0  0
  -10.2310   -5.0390  -27.0350 C   0  0  0  0  0  0  0  0  0  0  0  0
  -10.5370   -4.0140  -27.1930 H   0  0  0  0  0  0  0  0  0  0  0  0
   -9.5480   -5.3490  -29.0500 H   0  0  0  0  0  0  0  0  0  0  0  0
   -9.0560   -7.7500  -28.6870 H   0  0  0  0  0  0  0  0  0  0  0  0
   -9.4480   -8.7830  -26.4740 H   0  0  0  0  0  0  0  0  0  0  0  0
  -10.3390   -7.4070  -24.6110 H   0  0  0  0  0  0  0  0  0  0  0  0
  -10.2410   -3.6720  -22.0300 C   0  0  0  0  0  0  0  0  0  0  0  0
  -10.1060   -4.2210  -21.0990 H   0  0  0  0  0  0  0  0  0  0  0  0
  -11.2300   -3.2080  -22.0380 H   0  0  0  0  0  0  0  0  0  0  0  0
   -8.5060   -3.4800  -24.4410 H   0  0  0  0  0  0  0  0  0  0  0  0
   -7.8110   -4.4680  -23.0920 H   0  0  0  0  0  0  0  0  0  0  0  0
   -9.9090    0.2410  -23.6320 H   0  0  0  0  0  0  0  0  0  0  0  0
  -11.1340   -1.0030  -23.2830 H   0  0  0  0  0  0  0  0  0  0  0  0
   -9.9650   -1.2600  -24.6100 H   0  0  0  0  0  0  0  0  0  0  0  0
  1  2  1  0  0  0  0
  1 46  1  0  0  0  0
  1 47  1  0  0  0  0
  1 48  1  0  0  0  0
  2  3  1  0  0  0  0
  2 24  1  0  0  0  0
  3  4  2  0  0  0  0
  3  5  1  0  0  0  0
  5  6  1  0  0  0  0
  5 22  1  0  0  0  0
  6  7  2  0  0  0  0
  6 15  1  0  0  0  0
  7  8  1  0  0  0  0
  7 21  1  0  0  0  0
  8  9  2  0  0  0  0
  9 10  1  0  0  0  0
  9 20  1  0  0  0  0
 10 11  2  0  0  0  0
 10 15  1  0  0  0  0
 11 12  1  0  0  0  0
 11 19  1  0  0  0  0
 12 13  2  0  0  0  0
 12 18  1  0  0  0  0
 13 14  1  0  0  0  0
 13 17  1  0  0  0  0
 14 15  2  0  0  0  0
 14 16  1  0  0  0  0
 22 23  2  0  0  0  0
 22 24  1  0  0  0  0
 24 25  1  0  0  0  0
 24 41  1  0  0  0  0
 25 26  1  0  0  0  0
 25 44  1  0  0  0  0
 25 45  1  0  0  0  0
 26 27  1  0  0  0  0
 26 41  1  0  0  0  0
 27 28  2  0  0  0  0
 27 29  2  0  0  0  0
 27 30  1  0  0  0  0
 30 31  2  0  0  0  0
 30 35  1  0  0  0  0
 31 32  1  0  0  0  0
 31 40  1  0  0  0  0
 32 33  2  0  0  0  0
 32 39  1  0  0  0  0
 33 34  1  0  0  0  0
 33 38  1  0  0  0  0
 34 35  2  0  0  0  0
 34 37  1  0  0  0  0
 35 36  1  0  0  0  0
 41 42  1  0  0  0  0
 41 43  1  0  0  0  0
M  END
>  <MODEL>
       1

$$$$
