output/tmp_first_model_11_41.pdb
 OpenBabel07242618513D

 67 71  0  0  1  0  0  0  0  0999 V2000
   -7.5270    3.0690  -22.0610 C   0  0  0  0  0  0  0  0  0  0  0  0
   -8.6750    2.5150  -22.7740 N   0  0  0  0  0  0  0  0  0  0  0  0
   -8.4560    1.6980  -23.8510 C   0  0  0  0  0  0  0  0  0  0  0  0
   -7.3270    1.4020  -24.2200 O   0  0  0  0  0  0  0  0  0  0  0  0
   -9.6890    1.1550  -24.5930 C   0  0  0  0  0  0  0  0  0  0  0  0
  -10.1430   -0.0860  -23.9890 N   0  0  0  0  0  0  0  0  0  0  0  0
   -9.2440   -1.2280  -23.9300 C   0  0  0  0  0  0  0  0  0  0  0  0
   -9.3180   -1.9550  -22.5560 C   0  0  2  0  0  0  0  0  0  0  0  0
   -8.7180   -1.0050  -21.4770 C   0  0  0  0  0  0  0  0  0  0  0  0
   -9.2460   -0.0250  -20.9910 O   0  0  0  0  0  0  0  0  0  0  0  0
   -7.4360   -1.4320  -21.1800 N   0  0  0  0  0  0  0  0  0  0  0  0
   -6.6570   -0.8220  -20.1650 C   0  0  0  0  0  0  0  0  0  0  0  0
   -6.9680   -1.0390  -18.8440 C   0  0  0  0  0  0  0  0  0  0  0  0
   -6.2540   -0.5510  -17.8020 N   0  0  0  0  0  0  0  0  0  0  0  0
   -5.2040    0.1850  -18.0780 C   0  0  0  0  0  0  0  0  0  0  0  0
   -4.7680    0.4900  -19.3980 C   0  0  0  0  0  0  0  0  0  0  0  0
   -3.6410    1.3180  -19.6440 C   0  0  0  0  0  0  0  0  0  0  0  0
   -3.2720    1.6260  -20.9250 C   0  0  0  0  0  0  0  0  0  0  0  0
   -4.0170    1.1300  -22.0170 C   0  0  0  0  0  0  0  0  0  0  0  0
   -5.1220    0.3360  -21.8060 C   0  0  0  0  0  0  0  0  0  0  0  0
   -5.5180   -0.0170  -20.4860 C   0  0  0  0  0  0  0  0  0  0  0  0
   -5.7300    0.0270  -22.6510 H   0  0  0  0  0  0  0  0  0  0  0  0
   -3.7300    1.3900  -23.0320 H   0  0  0  0  0  0  0  0  0  0  0  0
   -2.4190    2.2750  -21.1080 H   0  0  0  0  0  0  0  0  0  0  0  0
   -3.1080    1.7260  -18.7910 H   0  0  0  0  0  0  0  0  0  0  0  0
   -4.6400    0.5890  -17.2350 H   0  0  0  0  0  0  0  0  0  0  0  0
   -7.8270   -1.6530  -18.5790 H   0  0  0  0  0  0  0  0  0  0  0  0
   -6.9960   -2.5610  -21.9740 C   0  0  0  0  0  0  0  0  0  0  0  0
   -8.3300   -3.1560  -22.4660 C   0  0  2  0  0  0  0  0  0  0  0  0
   -8.2270   -3.9630  -23.7570 C   0  0  0  0  0  0  0  0  0  0  0  0
   -7.2560   -5.4450  -23.5570 S   0  0  0  0  0  0  0  0  0  0  0  0
   -5.8590   -5.0500  -23.4530 O   0  0  0  0  0  0  0  0  0  0  0  0
   -7.9040   -6.2610  -22.5410 O   0  0  0  0  0  0  0  0  0  0  0  0
   -7.4240   -6.2350  -24.9990 N   0  0  0  0  0  0  0  0  0  0  0  0
   -8.6680   -6.9490  -25.2360 C   0  0  0  0  0  0  0  0  0  0  0  0
   -9.5030   -6.2950  -25.5250 H   0  0  0  0  0  0  0  0  0  0  0  0
   -8.5020   -7.6770  -26.0340 H   0  0  0  0  0  0  0  0  0  0  0  0
   -8.9460   -7.4910  -24.3310 H   0  0  0  0  0  0  0  0  0  0  0  0
   -6.7450   -5.6620  -26.1480 C   0  0  0  0  0  0  0  0  0  0  0  0
   -7.2790   -4.8080  -26.5890 H   0  0  0  0  0  0  0  0  0  0  0  0
   -6.6350   -6.4370  -26.9090 H   0  0  0  0  0  0  0  0  0  0  0  0
   -5.7490   -5.3360  -25.8470 H   0  0  0  0  0  0  0  0  0  0  0  0
   -9.2270   -4.2730  -24.0790 H   0  0  0  0  0  0  0  0  0  0  0  0
   -7.7390   -3.3700  -24.5400 H   0  0  0  0  0  0  0  0  0  0  0  0
   -8.6770   -3.8140  -21.6640 H   0  0  0  0  0  0  0  0  0  0  0  0
   -6.3540   -2.2430  -22.8090 H   0  0  0  0  0  0  0  0  0  0  0  0
   -6.4140   -3.2720  -21.3840 H   0  0  0  0  0  0  0  0  0  0  0  0
  -10.7950   -2.2800  -22.3240 C   0  0  0  0  0  0  0  0  0  0  0  0
  -11.2380   -3.3530  -21.5370 C   0  0  0  0  0  0  0  0  0  0  0  0
  -12.5550   -3.3720  -21.1010 C   0  0  0  0  0  0  0  0  0  0  0  0
  -12.9000   -4.1540  -20.0670 F   0  0  0  0  0  0  0  0  0  0  0  0
  -13.5380   -2.5440  -21.6140 C   0  0  0  0  0  0  0  0  0  0  0  0
  -13.1340   -1.5790  -22.5090 C   0  0  0  0  0  0  0  0  0  0  0  0
  -11.7830   -1.4000  -22.8000 C   0  0  0  0  0  0  0  0  0  0  0  0
  -11.4370   -0.1710  -23.5770 C   0  0  0  0  0  0  0  0  0  0  0  0
  -12.2650    0.7070  -23.8030 O   0  0  0  0  0  0  0  0  0  0  0  0
  -13.8480   -0.9080  -22.9670 H   0  0  0  0  0  0  0  0  0  0  0  0
  -14.5600   -2.6450  -21.2680 H   0  0  0  0  0  0  0  0  0  0  0  0
  -10.5650   -4.1090  -21.1520 H   0  0  0  0  0  0  0  0  0  0  0  0
   -9.4960   -1.9280  -24.7390 H   0  0  0  0  0  0  0  0  0  0  0  0
   -8.2380   -0.8440  -24.1060 H   0  0  0  0  0  0  0  0  0  0  0  0
   -9.4390    0.9930  -25.6550 H   0  0  0  0  0  0  0  0  0  0  0  0
  -10.5430    1.8370  -24.5540 H   0  0  0  0  0  0  0  0  0  0  0  0
   -9.5300    2.3840  -22.2540 H   0  0  0  0  0  0  0  0  0  0  0  0
   -7.8460    3.8840  -21.4030 H   0  0  0  0  0  0  0  0  0  0  0  0
   -6.9960    2.3030  -21.4750 H   0  0  0  0  0  0  0  0  0  0  0  0
   -6.8210    3.4750  -22.7920 H   0  0  0  0  0  0  0  0  0  0  0  0
  1  2  1  0  0  0  0
  1 65  1  0  0  0  0
  1 66  1  0  0  0  0
  1 67  1  0  0  0  0
  2  3  1  0  0  0  0
  2 64  1  0  0  0  0
  3  4  2  0  0  0  0
  3  5  1  0  0  0  0
  5  6  1  0  0  0  0
  5 62  1  0  0  0  0
  5 63  1  0  0  0  0
  6  7  1  0  0  0  0
  6 55  1  0  0  0  0
  7  8  1  0  0  0  0
  7 60  1  0  0  0  0
  7 61  1  0  0  0  0
  8  9  1  1  0  0  0
  8 29  1  0  0  0  0
  8 48  1  0  0  0  0
  9 10  2  0  0  0  0
  9 11  1  0  0  0  0
 11 12  1  0  0  0  0
 11 28  1  0  0  0  0
 12 13  2  0  0  0  0
 12 21  1  0  0  0  0
 13 14  1  0  0  0  0
 13 27  1  0  0  0  0
 14 15  2  0  0  0  0
 15 16  1  0  0  0  0
 15 26  1  0  0  0  0
 16 17  2  0  0  0  0
 16 21  1  0  0  0  0
 17 18  1  0  0  0  0
 17 25  1  0  0  0  0
 18 19  2  0  0  0  0
 18 24  1  0  0  0  0
 19 20  1  0  0  0  0
 19 23  1  0  0  0  0
 20 21  2  0  0  0  0
 20 22  1  0  0  0  0
 28 29  1  0  0  0  0
 28 46  1  0  0  0  0
 28 47  1  0  0  0  0
 29 30  1  0  0  0  0
 29 45  1  1  0  0  0
 30 31  1  0  0  0  0
 30 43  1  0  0  0  0
 30 44  1  0  0  0  0
 31 32  2  0  0  0  0
 31 33  2  0  0  0  0
 31 34  1  0  0  0  0
 34 35  1  0  0  0  0
 34 39  1  0  0  0  0
 35 36  1  0  0  0  0
 35 37  1  0  0  0  0
 35 38  1  0  0  0  0
 39 40  1  0  0  0  0
 39 41  1  0  0  0  0
 39 42  1  0  0  0  0
 48 49  2  0  0  0  0
 48 54  1  0  0  0  0
 49 50  1  0  0  0  0
 49 59  1  0  0  0  0
 50 51  1  0  0  0  0
 50 52  2  0  0  0  0
 52 53  1  0  0  0  0
 52 58  1  0  0  0  0
 53 54  2  0  0  0  0
 53 57  1  0  0  0  0
 54 55  1  0  0  0  0
 55 56  2  0  0  0  0
M  END
>  <MODEL>
       1

$$$$
