output/tmp_first_model_10_0.pdb
 OpenBabel07242618173D

 66 71  0  0  1  0  0  0  0  0999 V2000
   -7.8400   -6.0300  -26.6960 C   0  0  0  0  0  0  0  0  0  0  0  0
   -8.0240   -4.6120  -26.9540 N   0  0  0  0  0  0  0  0  0  0  0  0
   -7.0960   -3.7070  -26.5570 C   0  0  0  0  0  0  0  0  0  0  0  0
   -6.0550   -4.0240  -25.9930 O   0  0  0  0  0  0  0  0  0  0  0  0
   -7.4490   -2.2370  -26.8090 C   0  0  0  0  0  0  0  0  0  0  0  0
   -8.3550   -1.7240  -25.7880 N   0  0  0  0  0  0  0  0  0  0  0  0
   -7.8290   -1.2400  -24.5150 C   0  0  0  0  0  0  0  0  0  0  0  0
   -8.7280   -1.5430  -23.2770 C   0  0  2  0  0  0  0  0  0  0  0  0
   -8.2720   -0.5650  -22.1680 C   0  0  0  0  0  0  0  0  0  0  0  0
   -8.4830    0.6260  -22.1310 O   0  0  0  0  0  0  0  0  0  0  0  0
   -7.5070   -1.2610  -21.2470 N   0  0  0  0  0  0  0  0  0  0  0  0
   -6.7300   -0.6750  -20.2170 C   0  0  0  0  0  0  0  0  0  0  0  0
   -6.9320   -1.0850  -18.9220 C   0  0  0  0  0  0  0  0  0  0  0  0
   -6.2100   -0.6740  -17.8540 N   0  0  0  0  0  0  0  0  0  0  0  0
   -5.2280    0.1660  -18.0800 C   0  0  0  0  0  0  0  0  0  0  0  0
   -4.8970    0.6680  -19.3700 C   0  0  0  0  0  0  0  0  0  0  0  0
   -3.8170    1.5720  -19.5570 C   0  0  0  0  0  0  0  0  0  0  0  0
   -3.5310    2.0670  -20.7990 C   0  0  0  0  0  0  0  0  0  0  0  0
   -4.2990    1.6620  -21.9140 C   0  0  0  0  0  0  0  0  0  0  0  0
   -5.3330    0.7770  -21.7630 C   0  0  0  0  0  0  0  0  0  0  0  0
   -5.6710    0.2590  -20.4790 C   0  0  0  0  0  0  0  0  0  0  0  0
   -5.9270    0.4960  -22.6270 H   0  0  0  0  0  0  0  0  0  0  0  0
   -4.0790    2.0720  -22.8970 H   0  0  0  0  0  0  0  0  0  0  0  0
   -2.7380    2.7980  -20.9290 H   0  0  0  0  0  0  0  0  0  0  0  0
   -3.2310    1.8610  -18.6890 H   0  0  0  0  0  0  0  0  0  0  0  0
   -4.6450    0.4950  -17.2190 H   0  0  0  0  0  0  0  0  0  0  0  0
   -7.7460   -1.7750  -18.7020 H   0  0  0  0  0  0  0  0  0  0  0  0
   -7.3910   -2.6790  -21.5360 C   0  0  0  0  0  0  0  0  0  0  0  0
   -8.4790   -2.9160  -22.5840 C   0  0  2  0  0  0  0  0  0  0  0  0
   -8.1920   -4.0890  -23.5150 C   0  0  0  0  0  0  0  0  0  0  0  0
   -8.1240   -5.3480  -22.8030 N   0  0  0  0  0  0  0  0  0  0  0  0
   -6.9880   -5.9080  -22.3070 C   0  0  0  0  0  0  0  0  0  0  0  0
   -5.7220   -5.7000  -22.8800 C   0  0  0  0  0  0  0  0  0  0  0  0
   -4.6670   -6.3460  -22.2700 C   0  0  0  0  0  0  0  0  0  0  0  0
   -4.8140   -7.1090  -21.1820 N   0  0  0  0  0  0  0  0  0  0  0  0
   -6.0550   -7.2360  -20.7370 C   0  0  0  0  0  0  0  0  0  0  0  0
   -7.1570   -6.7010  -21.2390 N   0  0  0  0  0  0  0  0  0  0  0  0
   -6.1830   -7.8560  -19.8520 H   0  0  0  0  0  0  0  0  0  0  0  0
   -3.6470   -6.2610  -22.6490 H   0  0  0  0  0  0  0  0  0  0  0  0
   -5.6020   -5.0860  -23.7670 H   0  0  0  0  0  0  0  0  0  0  0  0
   -8.9170   -5.5170  -22.2000 H   0  0  0  0  0  0  0  0  0  0  0  0
   -9.0020   -4.1430  -24.2510 H   0  0  0  0  0  0  0  0  0  0  0  0
   -7.2540   -3.9180  -24.0430 H   0  0  0  0  0  0  0  0  0  0  0  0
   -9.4130   -3.1440  -22.0490 H   0  0  0  0  0  0  0  0  0  0  0  0
   -7.5500   -3.2670  -20.6300 H   0  0  0  0  0  0  0  0  0  0  0  0
   -6.3830   -2.9200  -21.9090 H   0  0  0  0  0  0  0  0  0  0  0  0
  -10.1880   -1.3690  -23.6500 C   0  0  0  0  0  0  0  0  0  0  0  0
  -11.1570   -1.2990  -22.6400 C   0  0  0  0  0  0  0  0  0  0  0  0
  -12.4960   -1.1830  -22.9680 C   0  0  0  0  0  0  0  0  0  0  0  0
  -13.7350   -1.1890  -21.7480 Cl  0  0  0  0  0  0  0  0  0  0  0  0
  -12.9070   -1.1120  -24.2990 C   0  0  0  0  0  0  0  0  0  0  0  0
  -11.9590   -1.2110  -25.3000 C   0  0  0  0  0  0  0  0  0  0  0  0
  -10.6170   -1.4000  -24.9790 C   0  0  0  0  0  0  0  0  0  0  0  0
   -9.6860   -1.8170  -26.0660 C   0  0  0  0  0  0  0  0  0  0  0  0
  -10.0930   -2.2770  -27.1300 O   0  0  0  0  0  0  0  0  0  0  0  0
  -12.2370   -1.1720  -26.3480 H   0  0  0  0  0  0  0  0  0  0  0  0
  -13.9660   -1.0580  -24.5190 H   0  0  0  0  0  0  0  0  0  0  0  0
  -10.8470   -1.3500  -21.6030 H   0  0  0  0  0  0  0  0  0  0  0  0
   -7.6990   -0.1490  -24.5600 H   0  0  0  0  0  0  0  0  0  0  0  0
   -6.8430   -1.7030  -24.3830 H   0  0  0  0  0  0  0  0  0  0  0  0
   -6.5210   -1.6600  -26.8210 H   0  0  0  0  0  0  0  0  0  0  0  0
   -7.9630   -2.1350  -27.7660 H   0  0  0  0  0  0  0  0  0  0  0  0
   -8.8940   -4.2760  -27.3360 H   0  0  0  0  0  0  0  0  0  0  0  0
   -7.5840   -6.1940  -25.6400 H   0  0  0  0  0  0  0  0  0  0  0  0
   -8.7700   -6.5560  -26.9220 H   0  0  0  0  0  0  0  0  0  0  0  0
   -7.0460   -6.4510  -27.3240 H   0  0  0  0  0  0  0  0  0  0  0  0
  1  2  1  0  0  0  0
  1 64  1  0  0  0  0
  1 65  1  0  0  0  0
  1 66  1  0  0  0  0
  2  3  1  0  0  0  0
  2 63  1  0  0  0  0
  3  4  2  0  0  0  0
  3  5  1  0  0  0  0
  5  6  1  0  0  0  0
  5 61  1  0  0  0  0
  5 62  1  0  0  0  0
  6  7  1  0  0  0  0
  6 54  1  0  0  0  0
  7  8  1  0  0  0  0
  7 59  1  0  0  0  0
  7 60  1  0  0  0  0
  8  9  1  1  0  0  0
  8 29  1  0  0  0  0
  8 47  1  0  0  0  0
  9 10  2  0  0  0  0
  9 11  1  0  0  0  0
 11 12  1  0  0  0  0
 11 28  1  0  0  0  0
 12 13  2  0  0  0  0
 12 21  1  0  0  0  0
 13 14  1  0  0  0  0
 13 27  1  0  0  0  0
 14 15  2  0  0  0  0
 15 16  1  0  0  0  0
 15 26  1  0  0  0  0
 16 17  2  0  0  0  0
 16 21  1  0  0  0  0
 17 18  1  0  0  0  0
 17 25  1  0  0  0  0
 18 19  2  0  0  0  0
 18 24  1  0  0  0  0
 19 20  1  0  0  0  0
 19 23  1  0  0  0  0
 20 21  2  0  0  0  0
 20 22  1  0  0  0  0
 28 29  1  0  0  0  0
 28 45  1  0  0  0  0
 28 46  1  0  0  0  0
 29 30  1  0  0  0  0
 29 44  1  1  0  0  0
 30 31  1  0  0  0  0
 30 42  1  0  0  0  0
 30 43  1  0  0  0  0
 31 32  1  0  0  0  0
 31 41  1  0  0  0  0
 32 33  2  0  0  0  0
 32 37  1  0  0  0  0
 33 34  1  0  0  0  0
 33 40  1  0  0  0  0
 34 35  2  0  0  0  0
 34 39  1  0  0  0  0
 35 36  1  0  0  0  0
 36 37  2  0  0  0  0
 36 38  1  0  0  0  0
 47 48  2  0  0  0  0
 47 53  1  0  0  0  0
 48 49  1  0  0  0  0
 48 58  1  0  0  0  0
 49 50  1  0  0  0  0
 49 51  2  0  0  0  0
 51 52  1  0  0  0  0
 51 57  1  0  0  0  0
 52 53  2  0  0  0  0
 52 56  1  0  0  0  0
 53 54  1  0  0  0  0
 54 55  2  0  0  0  0
M  END
>  <MODEL>
       1

$$$$
