output/tmp_first_model_8_60.pdb
 OpenBabel07242617113D

 62 67  0  0  1  0  0  0  0  0999 V2000
   -9.7810   -5.3460  -27.2100 C   0  0  0  0  0  0  0  0  0  0  0  0
   -8.7190   -4.7060  -28.0950 C   0  0  0  0  0  0  0  0  0  0  0  0
   -7.4660   -4.4620  -27.3930 N   0  0  0  0  0  0  0  0  0  0  0  0
   -6.6410   -5.5060  -27.1860 N   0  0  0  0  0  0  0  0  0  0  0  0
   -5.6070   -5.0040  -26.5260 C   0  0  0  0  0  0  0  0  0  0  0  0
   -5.7620   -3.6220  -26.2950 C   0  0  0  0  0  0  0  0  0  0  0  0
   -6.9840   -3.3030  -26.8580 C   0  0  0  0  0  0  0  0  0  0  0  0
   -7.7020   -1.9840  -26.8640 C   0  0  0  0  0  0  0  0  0  0  0  0
   -8.5780   -1.7700  -25.7140 N   0  0  0  0  0  0  0  0  0  0  0  0
   -7.9500   -1.2500  -24.5000 C   0  0  0  0  0  0  0  0  0  0  0  0
   -8.7330   -1.5420  -23.1970 C   0  0  2  0  0  0  0  0  0  0  0  0
   -8.1410   -0.6180  -22.1050 C   0  0  0  0  0  0  0  0  0  0  0  0
   -8.2470    0.5900  -22.0330 O   0  0  0  0  0  0  0  0  0  0  0  0
   -7.4200   -1.3790  -21.2090 N   0  0  0  0  0  0  0  0  0  0  0  0
   -6.6160   -0.8030  -20.1870 C   0  0  0  0  0  0  0  0  0  0  0  0
   -6.8980   -1.0590  -18.8700 C   0  0  0  0  0  0  0  0  0  0  0  0
   -6.2000   -0.5660  -17.8180 N   0  0  0  0  0  0  0  0  0  0  0  0
   -5.1720    0.2050  -18.0820 C   0  0  0  0  0  0  0  0  0  0  0  0
   -4.7400    0.5290  -19.3980 C   0  0  0  0  0  0  0  0  0  0  0  0
   -3.6070    1.3580  -19.6280 C   0  0  0  0  0  0  0  0  0  0  0  0
   -3.2100    1.6450  -20.9040 C   0  0  0  0  0  0  0  0  0  0  0  0
   -3.9320    1.1210  -21.9990 C   0  0  0  0  0  0  0  0  0  0  0  0
   -5.0090    0.3000  -21.8030 C   0  0  0  0  0  0  0  0  0  0  0  0
   -5.4710    0.0060  -20.4910 C   0  0  0  0  0  0  0  0  0  0  0  0
   -5.5160   -0.1360  -22.6580 H   0  0  0  0  0  0  0  0  0  0  0  0
   -3.5930    1.3300  -23.0100 H   0  0  0  0  0  0  0  0  0  0  0  0
   -2.3350    2.2630  -21.0890 H   0  0  0  0  0  0  0  0  0  0  0  0
   -3.0730    1.7600  -18.7690 H   0  0  0  0  0  0  0  0  0  0  0  0
   -4.6250    0.6140  -17.2310 H   0  0  0  0  0  0  0  0  0  0  0  0
   -7.7480   -1.6890  -18.6090 H   0  0  0  0  0  0  0  0  0  0  0  0
   -7.3840   -2.7920  -21.5350 C   0  0  0  0  0  0  0  0  0  0  0  0
   -8.5080   -2.9650  -22.5700 C   0  0  2  0  0  0  0  0  0  0  0  0
   -8.2550   -4.1090  -23.5500 C   0  0  0  0  0  0  0  0  0  0  0  0
   -9.0440   -4.1660  -24.3070 H   0  0  0  0  0  0  0  0  0  0  0  0
   -8.2250   -5.0680  -23.0230 H   0  0  0  0  0  0  0  0  0  0  0  0
   -7.3010   -3.9840  -24.0710 H   0  0  0  0  0  0  0  0  0  0  0  0
   -9.4330   -3.1740  -22.0160 H   0  0  0  0  0  0  0  0  0  0  0  0
   -7.5470   -3.3870  -20.6340 H   0  0  0  0  0  0  0  0  0  0  0  0
   -6.4050   -3.0820  -21.9450 H   0  0  0  0  0  0  0  0  0  0  0  0
  -10.2050   -1.2680  -23.4510 C   0  0  0  0  0  0  0  0  0  0  0  0
  -11.0470   -0.9890  -22.3670 C   0  0  0  0  0  0  0  0  0  0  0  0
  -12.3980   -0.8030  -22.5980 C   0  0  0  0  0  0  0  0  0  0  0  0
  -13.2450   -0.5000  -21.6040 F   0  0  0  0  0  0  0  0  0  0  0  0
  -12.9580   -0.9260  -23.8610 C   0  0  0  0  0  0  0  0  0  0  0  0
  -12.1360   -1.2350  -24.9250 C   0  0  0  0  0  0  0  0  0  0  0  0
  -10.7640   -1.3940  -24.7290 C   0  0  0  0  0  0  0  0  0  0  0  0
   -9.9310   -1.7430  -25.9170 C   0  0  0  0  0  0  0  0  0  0  0  0
  -10.4480   -2.0130  -26.9980 O   0  0  0  0  0  0  0  0  0  0  0  0
  -12.5280   -1.3640  -25.9270 H   0  0  0  0  0  0  0  0  0  0  0  0
  -14.0260   -0.7750  -23.9550 H   0  0  0  0  0  0  0  0  0  0  0  0
  -10.6300   -0.9150  -21.3690 H   0  0  0  0  0  0  0  0  0  0  0  0
   -6.9510   -1.6970  -24.4350 H   0  0  0  0  0  0  0  0  0  0  0  0
   -7.8350   -0.1570  -24.5600 H   0  0  0  0  0  0  0  0  0  0  0  0
   -6.9320   -1.2040  -26.8490 H   0  0  0  0  0  0  0  0  0  0  0  0
   -8.3040   -1.8450  -27.7650 H   0  0  0  0  0  0  0  0  0  0  0  0
   -5.0890   -2.9420  -25.7840 H   0  0  0  0  0  0  0  0  0  0  0  0
   -4.8090   -5.6720  -26.2250 H   0  0  0  0  0  0  0  0  0  0  0  0
   -8.4760   -5.3570  -28.9420 H   0  0  0  0  0  0  0  0  0  0  0  0
   -9.0790   -3.7490  -28.4820 H   0  0  0  0  0  0  0  0  0  0  0  0
   -9.4270   -6.2990  -26.8030 H   0  0  0  0  0  0  0  0  0  0  0  0
  -10.6800   -5.5320  -27.8060 H   0  0  0  0  0  0  0  0  0  0  0  0
  -10.0610   -4.6880  -26.3820 H   0  0  0  0  0  0  0  0  0  0  0  0
  1  2  1  0  0  0  0
  1 60  1  0  0  0  0
  1 61  1  0  0  0  0
  1 62  1  0  0  0  0
  2  3  1  0  0  0  0
  2 58  1  0  0  0  0
  2 59  1  0  0  0  0
  3  4  1  0  0  0  0
  3  7  1  0  0  0  0
  4  5  2  0  0  0  0
  5  6  1  0  0  0  0
  5 57  1  0  0  0  0
  6  7  2  0  0  0  0
  6 56  1  0  0  0  0
  7  8  1  0  0  0  0
  8  9  1  0  0  0  0
  8 54  1  0  0  0  0
  8 55  1  0  0  0  0
  9 10  1  0  0  0  0
  9 47  1  0  0  0  0
 10 11  1  0  0  0  0
 10 52  1  0  0  0  0
 10 53  1  0  0  0  0
 11 12  1  1  0  0  0
 11 32  1  0  0  0  0
 11 40  1  0  0  0  0
 12 13  2  0  0  0  0
 12 14  1  0  0  0  0
 14 15  1  0  0  0  0
 14 31  1  0  0  0  0
 15 16  2  0  0  0  0
 15 24  1  0  0  0  0
 16 17  1  0  0  0  0
 16 30  1  0  0  0  0
 17 18  2  0  0  0  0
 18 19  1  0  0  0  0
 18 29  1  0  0  0  0
 19 20  2  0  0  0  0
 19 24  1  0  0  0  0
 20 21  1  0  0  0  0
 20 28  1  0  0  0  0
 21 22  2  0  0  0  0
 21 27  1  0  0  0  0
 22 23  1  0  0  0  0
 22 26  1  0  0  0  0
 23 24  2  0  0  0  0
 23 25  1  0  0  0  0
 31 32  1  0  0  0  0
 31 38  1  0  0  0  0
 31 39  1  0  0  0  0
 32 33  1  0  0  0  0
 32 37  1  1  0  0  0
 33 34  1  0  0  0  0
 33 35  1  0  0  0  0
 33 36  1  0  0  0  0
 40 41  2  0  0  0  0
 40 46  1  0  0  0  0
 41 42  1  0  0  0  0
 41 51  1  0  0  0  0
 42 43  1  0  0  0  0
 42 44  2  0  0  0  0
 44 45  1  0  0  0  0
 44 50  1  0  0  0  0
 45 46  2  0  0  0  0
 45 49  1  0  0  0  0
 46 47  1  0  0  0  0
 47 48  2  0  0  0  0
M  END
>  <MODEL>
       1

$$$$
