output/tmp_first_model_4_17.pdb
 OpenBabel07242615033D

 38 41  0  0  1  0  0  0  0  0999 V2000
  -10.7680   -4.5900  -22.7850 C   0  0  0  0  0  0  0  0  0  0  0  0
  -10.5630   -3.3310  -23.6220 C   0  0  2  0  0  0  0  0  0  0  0  0
   -9.4470   -3.5410  -24.6560 C   0  0  0  0  0  0  0  0  0  0  0  0
   -8.1030   -3.7910  -23.9590 C   0  0  0  0  0  0  0  0  0  0  0  0
   -7.9150   -2.8200  -22.8830 C   0  0  0  0  0  0  0  0  0  0  0  0
   -6.7510   -2.5810  -22.0890 C   0  0  0  0  0  0  0  0  0  0  0  0
   -5.6560   -3.1010  -22.1080 O   0  5  0  0  0  0  0  0  0  0  0  0
   -7.1510   -1.5350  -21.2190 N   0  0  0  0  0  0  0  0  0  0  0  0
   -6.3460   -1.0300  -20.1800 C   0  0  0  0  0  0  0  0  0  0  0  0
   -6.6040   -1.3580  -18.8770 C   0  0  0  0  0  0  0  0  0  0  0  0
   -5.7170   -1.1680  -17.8750 N   0  0  0  0  0  0  0  0  0  0  0  0
   -4.5840   -0.5810  -18.1770 C   0  0  0  0  0  0  0  0  0  0  0  0
   -4.2730   -0.0490  -19.4610 C   0  0  0  0  0  0  0  0  0  0  0  0
   -3.0740    0.6560  -19.7480 C   0  0  0  0  0  0  0  0  0  0  0  0
   -2.8680    1.2150  -20.9790 C   0  0  0  0  0  0  0  0  0  0  0  0
   -3.8390    1.0790  -21.9990 C   0  0  0  0  0  0  0  0  0  0  0  0
   -4.9830    0.3540  -21.7700 C   0  0  0  0  0  0  0  0  0  0  0  0
   -5.2090   -0.2340  -20.4950 C   0  0  0  0  0  0  0  0  0  0  0  0
   -5.7120    0.2000  -22.5610 H   0  0  0  0  0  0  0  0  0  0  0  0
   -3.6860    1.5620  -22.9590 H   0  0  0  0  0  0  0  0  0  0  0  0
   -1.9450    1.7520  -21.1880 H   0  0  0  0  0  0  0  0  0  0  0  0
   -2.3570    0.7910  -18.9480 H   0  0  0  0  0  0  0  0  0  0  0  0
   -3.8490   -0.5060  -17.3790 H   0  0  0  0  0  0  0  0  0  0  0  0
   -7.5400   -1.8360  -18.6010 H   0  0  0  0  0  0  0  0  0  0  0  0
   -8.4640   -1.1410  -21.4480 C   0  0  0  0  0  0  0  0  0  0  0  0
   -9.0740   -0.2610  -20.8940 O   0  0  0  0  0  0  0  0  0  0  0  0
   -8.8990   -1.9950  -22.4450 N   0  0  0  0  0  0  0  0  0  0  0  0
  -10.2960   -2.0640  -22.8200 C   0  0  0  0  0  0  0  0  0  0  0  0
  -10.5570   -1.1830  -23.4210 H   0  0  0  0  0  0  0  0  0  0  0  0
  -10.8920   -2.0310  -21.9030 H   0  0  0  0  0  0  0  0  0  0  0  0
   -7.2850   -3.7320  -24.6800 H   0  0  0  0  0  0  0  0  0  0  0  0
   -8.0310   -4.8080  -23.5520 H   0  0  0  0  0  0  0  0  0  0  0  0
   -9.6990   -4.3770  -25.3210 H   0  0  0  0  0  0  0  0  0  0  0  0
   -9.3580   -2.6390  -25.2740 H   0  0  0  0  0  0  0  0  0  0  0  0
  -11.5110   -3.1020  -24.1020 H   0  0  0  0  0  0  0  0  0  0  0  0
  -10.8640   -5.4370  -23.4710 H   0  0  0  0  0  0  0  0  0  0  0  0
   -9.9180   -4.7940  -22.1270 H   0  0  0  0  0  0  0  0  0  0  0  0
  -11.6670   -4.5330  -22.1630 H   0  0  0  0  0  0  0  0  0  0  0  0
  1  2  1  0  0  0  0
  1 36  1  0  0  0  0
  1 37  1  0  0  0  0
  1 38  1  0  0  0  0
  2  3  1  0  0  0  0
  2 28  1  0  0  0  0
  2 35  1  6  0  0  0
  3  4  1  0  0  0  0
  3 33  1  0  0  0  0
  3 34  1  0  0  0  0
  4  5  1  0  0  0  0
  4 31  1  0  0  0  0
  4 32  1  0  0  0  0
  5  6  2  0  0  0  0
  5 27  1  0  0  0  0
  6  7  1  0  0  0  0
  6  8  1  0  0  0  0
  8  9  1  0  0  0  0
  8 25  1  0  0  0  0
  9 10  2  0  0  0  0
  9 18  1  0  0  0  0
 10 11  1  0  0  0  0
 10 24  1  0  0  0  0
 11 12  2  0  0  0  0
 12 13  1  0  0  0  0
 12 23  1  0  0  0  0
 13 14  2  0  0  0  0
 13 18  1  0  0  0  0
 14 15  1  0  0  0  0
 14 22  1  0  0  0  0
 15 16  2  0  0  0  0
 15 21  1  0  0  0  0
 16 17  1  0  0  0  0
 16 20  1  0  0  0  0
 17 18  2  0  0  0  0
 17 19  1  0  0  0  0
 25 26  2  0  0  0  0
 25 27  1  0  0  0  0
 27 28  1  0  0  0  0
 28 29  1  0  0  0  0
 28 30  1  0  0  0  0
M  CHG  1   7  -1
M  END
>  <MODEL>
       1

$$$$
