output/tmp_first_model_20_30.pdb
 OpenBabel07242623363D

 58 63  0  0  1  0  0  0  0  0999 V2000
   -7.2790   -3.4060  -23.8950 C   0  0  0  0  0  0  0  0  0  0  0  0
   -8.2480   -2.8900  -22.8190 C   0  0  1  0  0  0  0  0  0  0  0  0
   -7.5410   -2.7780  -21.4490 C   0  0  0  0  0  0  0  0  0  0  0  0
   -7.3620   -1.3600  -21.2420 N   0  0  0  0  0  0  0  0  0  0  0  0
   -6.5880   -0.8150  -20.1910 C   0  0  0  0  0  0  0  0  0  0  0  0
   -6.8950   -1.0600  -18.8770 C   0  0  0  0  0  0  0  0  0  0  0  0
   -6.2030   -0.5550  -17.8280 N   0  0  0  0  0  0  0  0  0  0  0  0
   -5.1680    0.2040  -18.0870 C   0  0  0  0  0  0  0  0  0  0  0  0
   -4.7230    0.5210  -19.4020 C   0  0  0  0  0  0  0  0  0  0  0  0
   -3.5830    1.3380  -19.6370 C   0  0  0  0  0  0  0  0  0  0  0  0
   -3.1720    1.6020  -20.9140 C   0  0  0  0  0  0  0  0  0  0  0  0
   -3.8800    1.0630  -22.0130 C   0  0  0  0  0  0  0  0  0  0  0  0
   -4.9810    0.2720  -21.8110 C   0  0  0  0  0  0  0  0  0  0  0  0
   -5.4440   -0.0080  -20.4940 C   0  0  0  0  0  0  0  0  0  0  0  0
   -5.5320   -0.1340  -22.6540 H   0  0  0  0  0  0  0  0  0  0  0  0
   -3.5580    1.3000  -23.0240 H   0  0  0  0  0  0  0  0  0  0  0  0
   -2.3190    2.2500  -21.0950 H   0  0  0  0  0  0  0  0  0  0  0  0
   -3.0620    1.7560  -18.7790 H   0  0  0  0  0  0  0  0  0  0  0  0
   -4.6270    0.6080  -17.2320 H   0  0  0  0  0  0  0  0  0  0  0  0
   -7.7480   -1.6790  -18.6070 H   0  0  0  0  0  0  0  0  0  0  0  0
   -8.1780   -0.5750  -22.0230 C   0  0  0  0  0  0  0  0  0  0  0  0
   -8.3220    0.6200  -21.8700 O   0  0  0  0  0  0  0  0  0  0  0  0
   -8.8870   -1.4780  -23.0680 C   0  0  1  0  0  0  0  0  0  0  0  0
   -8.6560   -0.9530  -24.5080 C   0  0  0  0  0  0  0  0  0  0  0  0
   -9.3550    0.2930  -24.7690 N   0  0  0  0  0  0  0  0  0  0  0  0
   -8.6880    1.3880  -25.4490 C   0  0  0  0  0  0  0  0  0  0  0  0
   -8.2540    2.4810  -24.5120 C   0  0  0  0  0  0  0  0  0  0  0  0
   -6.9600    2.5500  -24.0880 C   0  0  0  0  0  0  0  0  0  0  0  0
   -6.4930    3.6780  -23.3220 C   0  0  0  0  0  0  0  0  0  0  0  0
   -5.3380    4.0140  -23.1110 O   0  0  0  0  0  0  0  0  0  0  0  0
   -7.5780    4.4420  -22.8350 N   0  0  0  0  0  0  0  0  0  0  0  0
   -8.8400    4.3020  -23.3110 C   0  0  0  0  0  0  0  0  0  0  0  0
   -9.2040    3.4050  -24.1700 N   0  0  0  0  0  0  0  0  0  0  0  0
   -9.5540    5.0230  -22.9340 H   0  0  0  0  0  0  0  0  0  0  0  0
   -7.3660    5.1330  -22.1220 H   0  0  0  0  0  0  0  0  0  0  0  0
   -6.2410    1.7840  -24.3500 H   0  0  0  0  0  0  0  0  0  0  0  0
   -9.3740    1.7930  -26.1980 H   0  0  0  0  0  0  0  0  0  0  0  0
   -7.7920    0.9900  -25.9320 H   0  0  0  0  0  0  0  0  0  0  0  0
  -10.6700    0.4580  -24.4540 C   0  0  0  0  0  0  0  0  0  0  0  0
  -11.3530    1.3580  -24.9230 O   0  0  0  0  0  0  0  0  0  0  0  0
  -11.2190   -0.5210  -23.4730 C   0  0  0  0  0  0  0  0  0  0  0  0
  -12.5820   -0.4350  -23.1970 C   0  0  0  0  0  0  0  0  0  0  0  0
  -13.1440   -1.2730  -22.2590 C   0  0  0  0  0  0  0  0  0  0  0  0
  -12.3270   -2.1920  -21.6150 C   0  0  0  0  0  0  0  0  0  0  0  0
  -12.9070   -3.0000  -20.7120 F   0  0  0  0  0  0  0  0  0  0  0  0
  -10.9650   -2.2540  -21.8270 C   0  0  0  0  0  0  0  0  0  0  0  0
  -10.3950   -1.4410  -22.8130 C   0  0  0  0  0  0  0  0  0  0  0  0
  -10.3600   -2.8830  -21.1840 H   0  0  0  0  0  0  0  0  0  0  0  0
  -14.1810   -1.2020  -21.9650 H   0  0  0  0  0  0  0  0  0  0  0  0
  -13.1570    0.3200  -23.7250 H   0  0  0  0  0  0  0  0  0  0  0  0
   -8.9970   -1.7320  -25.2080 H   0  0  0  0  0  0  0  0  0  0  0  0
   -7.5890   -0.7710  -24.6640 H   0  0  0  0  0  0  0  0  0  0  0  0
   -6.5650   -3.2770  -21.4420 H   0  0  0  0  0  0  0  0  0  0  0  0
   -8.1560   -3.2070  -20.6510 H   0  0  0  0  0  0  0  0  0  0  0  0
   -9.0620   -3.6200  -22.7580 H   0  0  0  0  0  0  0  0  0  0  0  0
   -6.8920   -4.3880  -23.6010 H   0  0  0  0  0  0  0  0  0  0  0  0
   -6.4230   -2.7360  -24.0290 H   0  0  0  0  0  0  0  0  0  0  0  0
   -7.7730   -3.5310  -24.8620 H   0  0  0  0  0  0  0  0  0  0  0  0
  1  2  1  0  0  0  0
  1 56  1  0  0  0  0
  1 57  1  0  0  0  0
  1 58  1  0  0  0  0
  2  3  1  0  0  0  0
  2 23  1  0  0  0  0
  2 55  1  1  0  0  0
  3  4  1  0  0  0  0
  3 53  1  0  0  0  0
  3 54  1  0  0  0  0
  4  5  1  0  0  0  0
  4 21  1  0  0  0  0
  5  6  2  0  0  0  0
  5 14  1  0  0  0  0
  6  7  1  0  0  0  0
  6 20  1  0  0  0  0
  7  8  2  0  0  0  0
  8  9  1  0  0  0  0
  8 19  1  0  0  0  0
  9 10  2  0  0  0  0
  9 14  1  0  0  0  0
 10 11  1  0  0  0  0
 10 18  1  0  0  0  0
 11 12  2  0  0  0  0
 11 17  1  0  0  0  0
 12 13  1  0  0  0  0
 12 16  1  0  0  0  0
 13 14  2  0  0  0  0
 13 15  1  0  0  0  0
 21 22  2  0  0  0  0
 23 21  1  1  0  0  0
 23 24  1  0  0  0  0
 23 47  1  0  0  0  0
 24 25  1  0  0  0  0
 24 51  1  0  0  0  0
 24 52  1  0  0  0  0
 25 26  1  0  0  0  0
 25 39  1  0  0  0  0
 26 27  1  0  0  0  0
 26 37  1  0  0  0  0
 26 38  1  0  0  0  0
 27 28  2  0  0  0  0
 27 33  1  0  0  0  0
 28 29  1  0  0  0  0
 28 36  1  0  0  0  0
 29 30  2  0  0  0  0
 29 31  1  0  0  0  0
 31 32  1  0  0  0  0
 31 35  1  0  0  0  0
 32 33  2  0  0  0  0
 32 34  1  0  0  0  0
 39 40  2  0  0  0  0
 39 41  1  0  0  0  0
 41 42  2  0  0  0  0
 41 47  1  0  0  0  0
 42 43  1  0  0  0  0
 42 50  1  0  0  0  0
 43 44  2  0  0  0  0
 43 49  1  0  0  0  0
 44 45  1  0  0  0  0
 44 46  1  0  0  0  0
 46 47  2  0  0  0  0
 46 48  1  0  0  0  0
M  END
>  <MODEL>
       1

$$$$
