output/tmp_first_model_14_97.pdb
 OpenBabel07242620283D

 40 43  0  0  1  0  0  0  0  0999 V2000
  -12.7010   -3.6960  -21.0850 C   0  0  0  0  0  0  0  0  0  0  0  0
  -11.5580   -2.8480  -21.6870 C   0  0  2  0  0  0  0  0  0  0  0  0
  -12.0290   -2.2880  -23.0210 C   0  0  0  0  0  0  0  0  0  0  0  0
  -11.1190   -1.3410  -23.5300 O   0  0  0  0  0  0  0  0  0  0  0  0
   -9.8440   -1.8900  -23.7480 C   0  0  0  0  0  0  0  0  0  0  0  0
   -9.1780   -2.4240  -22.4730 C   0  0  1  0  0  0  0  0  0  0  0  0
  -10.1460   -3.4370  -21.8060 C   0  0  0  0  0  0  0  0  0  0  0  0
  -10.1510   -4.3410  -22.4270 H   0  0  0  0  0  0  0  0  0  0  0  0
   -9.7380   -3.7180  -20.8280 H   0  0  0  0  0  0  0  0  0  0  0  0
   -7.9000   -3.0230  -22.8020 N   0  0  0  0  0  0  0  0  0  0  0  0
   -6.8540   -2.5850  -22.0370 C   0  0  0  0  0  0  0  0  0  0  0  0
   -5.7140   -2.9850  -22.0190 O   0  0  0  0  0  0  0  0  0  0  0  0
   -7.3680   -1.5330  -21.2560 N   0  0  0  0  0  0  0  0  0  0  0  0
   -6.6150   -0.8690  -20.2430 C   0  0  0  0  0  0  0  0  0  0  0  0
   -6.9680   -1.0260  -18.9260 C   0  0  0  0  0  0  0  0  0  0  0  0
   -6.2980   -0.4890  -17.8790 N   0  0  0  0  0  0  0  0  0  0  0  0
   -5.2360    0.2250  -18.1490 C   0  0  0  0  0  0  0  0  0  0  0  0
   -4.7700    0.4880  -19.4630 C   0  0  0  0  0  0  0  0  0  0  0  0
   -3.6380    1.3160  -19.6690 C   0  0  0  0  0  0  0  0  0  0  0  0
   -3.2430    1.6320  -20.9390 C   0  0  0  0  0  0  0  0  0  0  0  0
   -3.9620    1.1280  -22.0460 C   0  0  0  0  0  0  0  0  0  0  0  0
   -5.0520    0.3080  -21.8710 C   0  0  0  0  0  0  0  0  0  0  0  0
   -5.4820   -0.0480  -20.5600 C   0  0  0  0  0  0  0  0  0  0  0  0
   -5.5970   -0.0560  -22.7370 H   0  0  0  0  0  0  0  0  0  0  0  0
   -3.6540    1.4110  -23.0490 H   0  0  0  0  0  0  0  0  0  0  0  0
   -2.3970    2.2920  -21.0990 H   0  0  0  0  0  0  0  0  0  0  0  0
   -3.1260    1.7120  -18.7950 H   0  0  0  0  0  0  0  0  0  0  0  0
   -4.6930    0.6520  -17.3060 H   0  0  0  0  0  0  0  0  0  0  0  0
   -7.8320   -1.6310  -18.6690 H   0  0  0  0  0  0  0  0  0  0  0  0
   -8.7190   -1.3050  -21.5250 C   0  0  0  0  0  0  0  0  0  0  0  0
   -9.3690   -0.3870  -21.0840 O   0  0  0  0  0  0  0  0  0  0  0  0
   -7.8400   -3.9020  -23.2930 H   0  0  0  0  0  0  0  0  0  0  0  0
   -9.2230   -1.1120  -24.1920 H   0  0  0  0  0  0  0  0  0  0  0  0
   -9.8960   -2.7380  -24.4480 H   0  0  0  0  0  0  0  0  0  0  0  0
  -12.9730   -1.7490  -22.8560 H   0  0  0  0  0  0  0  0  0  0  0  0
  -12.1860   -3.1300  -23.7280 H   0  0  0  0  0  0  0  0  0  0  0  0
  -11.3990   -1.9860  -21.0560 H   0  0  0  0  0  0  0  0  0  0  0  0
  -12.3980   -4.3440  -20.2520 H   0  0  0  0  0  0  0  0  0  0  0  0
  -13.1760   -4.3390  -21.8370 H   0  0  0  0  0  0  0  0  0  0  0  0
  -13.4730   -3.0120  -20.6970 H   0  0  0  0  0  0  0  0  0  0  0  0
  1  2  1  0  0  0  0
  1 38  1  0  0  0  0
  1 39  1  0  0  0  0
  1 40  1  0  0  0  0
  2  3  1  0  0  0  0
  2  7  1  0  0  0  0
  2 37  1  1  0  0  0
  3  4  1  0  0  0  0
  3 35  1  0  0  0  0
  3 36  1  0  0  0  0
  4  5  1  0  0  0  0
  5  6  1  0  0  0  0
  5 33  1  0  0  0  0
  5 34  1  0  0  0  0
  6  7  1  0  0  0  0
  6 10  1  0  0  0  0
  6 30  1  1  0  0  0
  7  8  1  0  0  0  0
  7  9  1  0  0  0  0
 10 11  1  0  0  0  0
 10 32  1  0  0  0  0
 11 12  2  0  0  0  0
 11 13  1  0  0  0  0
 13 14  1  0  0  0  0
 13 30  1  0  0  0  0
 14 15  2  0  0  0  0
 14 23  1  0  0  0  0
 15 16  1  0  0  0  0
 15 29  1  0  0  0  0
 16 17  2  0  0  0  0
 17 18  1  0  0  0  0
 17 28  1  0  0  0  0
 18 19  2  0  0  0  0
 18 23  1  0  0  0  0
 19 20  1  0  0  0  0
 19 27  1  0  0  0  0
 20 21  2  0  0  0  0
 20 26  1  0  0  0  0
 21 22  1  0  0  0  0
 21 25  1  0  0  0  0
 22 23  2  0  0  0  0
 22 24  1  0  0  0  0
 30 31  2  0  0  0  0
M  END
>  <MODEL>
       1

$$$$
