output/tmp_first_model_9_35.pdb
 OpenBabel07242617433D

 40 42  0  0  0  0  0  0  0  0999 V2000
   -9.1440   -1.8020  -22.6710 O   0  0  0  0  0  0  0  0  0  0  0  0
   -8.2370   -1.0330  -22.3700 C   0  0  0  0  0  0  0  0  0  0  0  0
   -6.8570   -1.5370  -21.9780 C   0  0  0  0  0  0  0  0  0  0  0  0
   -6.3040   -0.8770  -20.7290 C   0  0  0  0  0  0  0  0  0  0  0  0
   -6.9430   -1.0470  -19.5250 C   0  0  0  0  0  0  0  0  0  0  0  0
   -6.5700   -0.4710  -18.3540 N   0  0  0  0  0  0  0  0  0  0  0  0
   -5.5210    0.3150  -18.3720 C   0  0  0  0  0  0  0  0  0  0  0  0
   -4.7440    0.5720  -19.5350 C   0  0  0  0  0  0  0  0  0  0  0  0
   -3.6180    1.4350  -19.5320 C   0  0  0  0  0  0  0  0  0  0  0  0
   -2.9430    1.7110  -20.6910 C   0  0  0  0  0  0  0  0  0  0  0  0
   -3.3680    1.1400  -21.9050 C   0  0  0  0  0  0  0  0  0  0  0  0
   -4.4400    0.2810  -21.9290 C   0  0  0  0  0  0  0  0  0  0  0  0
   -5.1510   -0.0360  -20.7490 C   0  0  0  0  0  0  0  0  0  0  0  0
   -4.7490   -0.1360  -22.8830 H   0  0  0  0  0  0  0  0  0  0  0  0
   -2.8480    1.3770  -22.8270 H   0  0  0  0  0  0  0  0  0  0  0  0
   -2.0810    2.3680  -20.6820 H   0  0  0  0  0  0  0  0  0  0  0  0
   -3.3200    1.8820  -18.5880 H   0  0  0  0  0  0  0  0  0  0  0  0
   -5.2400    0.7950  -17.4340 H   0  0  0  0  0  0  0  0  0  0  0  0
   -7.8300   -1.6840  -19.4550 H   0  0  0  0  0  0  0  0  0  0  0  0
   -7.0040   -2.6080  -21.8370 H   0  0  0  0  0  0  0  0  0  0  0  0
   -6.1740   -1.4280  -22.8210 H   0  0  0  0  0  0  0  0  0  0  0  0
   -8.3220    0.3330  -22.3450 N   0  0  0  0  0  0  0  0  0  0  0  0
   -9.5300    0.9490  -21.7430 C   0  0  0  0  0  0  0  0  0  0  0  0
   -9.5150    1.1010  -21.9230 C   0  0  0  0  0  0  0  0  0  0  0  0
   -9.1960    2.8780  -23.6620 C   0  0  0  0  0  0  0  0  0  0  0  0
   -8.5410    5.5400  -22.8760 C   0  0  0  0  0  0  0  0  0  0  0  0
   -7.6820    6.2200  -23.6080 F   0  0  0  0  0  0  0  0  0  0  0  0
   -9.5950    6.2790  -22.5830 F   0  0  0  0  0  0  0  0  0  0  0  0
   -7.9560    5.0990  -21.7790 F   0  0  0  0  0  0  0  0  0  0  0  0
   -7.9300    2.4740  -23.6320 C   0  0  0  0  0  0  0  0  0  0  0  0
   -7.3490    1.2080  -23.0690 C   0  0  0  0  0  0  0  0  0  0  0  0
   -6.8700    0.6310  -23.8670 H   0  0  0  0  0  0  0  0  0  0  0  0
   -6.5630    1.5080  -22.3660 H   0  0  0  0  0  0  0  0  0  0  0  0
  -10.0290    2.2200  -23.5060 H   0  0  0  0  0  0  0  0  0  0  0  0
   -7.1560    3.1410  -24.0100 H   0  0  0  0  0  0  0  0  0  0  0  0
   -9.3510    3.9430  -23.8550 H   0  0  0  0  0  0  0  0  0  0  0  0
  -10.4490    1.8430  -21.6840 H   0  0  0  0  0  0  0  0  0  0  0  0
   -8.8310    1.9750  -21.4090 H   0  0  0  0  0  0  0  0  0  0  0  0
   -9.8220    0.1440  -20.4350 H   0  0  0  0  0  0  0  0  0  0  0  0
  -10.2780    0.5710  -22.7140 H   0  0  0  0  0  0  0  0  0  0  0  0
  1  2  2  0  0  0  0
  2  3  1  0  0  0  0
  2 22  1  0  0  0  0
  3  4  1  0  0  0  0
  3 20  1  0  0  0  0
  3 21  1  0  0  0  0
  4  5  2  0  0  0  0
  4 13  1  0  0  0  0
  5  6  1  0  0  0  0
  5 19  1  0  0  0  0
  6  7  2  0  0  0  0
  7  8  1  0  0  0  0
  7 18  1  0  0  0  0
  8  9  2  0  0  0  0
  8 13  1  0  0  0  0
  9 10  1  0  0  0  0
  9 17  1  0  0  0  0
 10 11  2  0  0  0  0
 10 16  1  0  0  0  0
 11 12  1  0  0  0  0
 11 15  1  0  0  0  0
 12 13  2  0  0  0  0
 12 14  1  0  0  0  0
 22 23  1  0  0  0  0
 22 31  1  0  0  0  0
 23 24  1  0  0  0  0
 23 39  1  0  0  0  0
 23 40  1  0  0  0  0
 24 25  1  0  0  0  0
 24 37  1  0  0  0  0
 24 38  1  0  0  0  0
 25 26  1  0  0  0  0
 25 30  1  0  0  0  0
 25 36  1  0  0  0  0
 26 27  1  0  0  0  0
 26 28  1  0  0  0  0
 26 29  1  0  0  0  0
 30 31  1  0  0  0  0
 30 34  1  0  0  0  0
 30 35  1  0  0  0  0
 31 32  1  0  0  0  0
 31 33  1  0  0  0  0
M  END
>  <MODEL>
       1

$$$$
