output/tmp_first_model_7_69.pdb
 OpenBabel07242616393D

 63 67  0  0  0  0  0  0  0  0999 V2000
   -7.4280   -4.3510  -28.0020 C   0  0  0  0  0  0  0  0  0  0  0  0
   -8.5570   -3.9960  -28.6110 C   0  0  0  0  0  0  0  0  0  0  0  0
   -9.0220   -2.5810  -28.6700 C   0  0  0  0  0  0  0  0  0  0  0  0
   -9.6870   -2.1660  -29.5950 O   0  0  0  0  0  0  0  0  0  0  0  0
   -8.5640   -1.7090  -27.6710 N   0  0  0  0  0  0  0  0  0  0  0  0
   -7.9380   -0.4750  -28.1510 C   0  0  0  0  0  0  0  0  0  0  0  0
   -6.7120   -0.2070  -27.2980 C   0  0  0  0  0  0  0  0  0  0  0  0
   -7.1910    0.0320  -25.8710 C   0  0  0  0  0  0  0  0  0  0  0  0
   -8.0380   -1.1220  -25.3600 C   0  0  0  0  0  0  0  0  0  0  0  0
   -8.6810   -1.9640  -26.2920 C   0  0  0  0  0  0  0  0  0  0  0  0
   -9.4480   -3.0470  -25.8230 C   0  0  0  0  0  0  0  0  0  0  0  0
   -9.4050   -3.4080  -24.4850 C   0  0  0  0  0  0  0  0  0  0  0  0
   -8.7550   -2.5960  -23.5550 C   0  0  0  0  0  0  0  0  0  0  0  0
   -8.2370   -1.3810  -23.9950 C   0  0  0  0  0  0  0  0  0  0  0  0
   -8.0580   -0.2220  -22.9760 N   0  3  0  0  0  0  0  0  0  0  0  0
   -8.9770    1.0590  -23.2740 C   0  0  0  0  0  0  0  0  0  0  0  0
  -10.4590    0.8770  -23.0290 C   0  0  0  0  0  0  0  0  0  0  0  0
  -11.2370    1.9250  -22.5390 C   0  0  0  0  0  0  0  0  0  0  0  0
  -12.6180    1.7850  -22.4190 C   0  0  0  0  0  0  0  0  0  0  0  0
  -13.2640    0.5970  -22.7380 C   0  0  0  0  0  0  0  0  0  0  0  0
  -12.4730   -0.4450  -23.1950 C   0  0  0  0  0  0  0  0  0  0  0  0
  -13.1640   -1.9890  -23.6180 Cl  0  0  0  0  0  0  0  0  0  0  0  0
  -11.1050   -0.3010  -23.3700 C   0  0  0  0  0  0  0  0  0  0  0  0
  -10.5460   -1.1100  -23.8180 H   0  0  0  0  0  0  0  0  0  0  0  0
  -14.3440    0.4800  -22.6670 H   0  0  0  0  0  0  0  0  0  0  0  0
  -13.2170    2.6300  -22.1070 H   0  0  0  0  0  0  0  0  0  0  0  0
  -10.7790    2.8720  -22.2650 H   0  0  0  0  0  0  0  0  0  0  0  0
   -8.5900    1.8800  -22.6710 H   0  0  0  0  0  0  0  0  0  0  0  0
   -8.7850    1.2930  -24.3180 H   0  0  0  0  0  0  0  0  0  0  0  0
   -8.0910   -0.5140  -21.4890 C   0  0  0  0  0  0  0  0  0  0  0  0
   -8.8480    0.1000  -20.7850 O   0  0  0  0  0  0  0  0  0  0  0  0
   -7.1240   -1.5720  -20.9350 C   0  0  0  0  0  0  0  0  0  0  0  0
   -6.2350   -0.9610  -19.8720 C   0  0  0  0  0  0  0  0  0  0  0  0
   -6.5280   -1.1070  -18.5410 C   0  0  0  0  0  0  0  0  0  0  0  0
   -5.8340   -0.5430  -17.5170 N   0  0  0  0  0  0  0  0  0  0  0  0
   -4.8300    0.2330  -17.8360 C   0  0  0  0  0  0  0  0  0  0  0  0
   -4.4240    0.5040  -19.1700 C   0  0  0  0  0  0  0  0  0  0  0  0
   -3.3680    1.4010  -19.4680 C   0  0  0  0  0  0  0  0  0  0  0  0
   -3.0690    1.7200  -20.7640 C   0  0  0  0  0  0  0  0  0  0  0  0
   -3.8110    1.1430  -21.8180 C   0  0  0  0  0  0  0  0  0  0  0  0
   -4.8160    0.2470  -21.5530 C   0  0  0  0  0  0  0  0  0  0  0  0
   -5.1560   -0.0970  -20.2210 C   0  0  0  0  0  0  0  0  0  0  0  0
   -5.4030   -0.1540  -22.3730 H   0  0  0  0  0  0  0  0  0  0  0  0
   -3.6100    1.4350  -22.8430 H   0  0  0  0  0  0  0  0  0  0  0  0
   -2.2850    2.4360  -20.9890 H   0  0  0  0  0  0  0  0  0  0  0  0
   -2.8480    1.8750  -18.6400 H   0  0  0  0  0  0  0  0  0  0  0  0
   -4.2980    0.7200  -17.0190 H   0  0  0  0  0  0  0  0  0  0  0  0
   -7.3790   -1.7140  -18.2320 H   0  0  0  0  0  0  0  0  0  0  0  0
   -7.7230   -2.3760  -20.4800 H   0  0  0  0  0  0  0  0  0  0  0  0
   -6.5590   -2.0250  -21.7550 H   0  0  0  0  0  0  0  0  0  0  0  0
   -7.0900    0.1080  -23.1710 H   0  0  0  0  0  0  0  0  0  0  0  0
   -8.7530   -2.8720  -22.5060 H   0  0  0  0  0  0  0  0  0  0  0  0
   -9.9400   -4.2970  -24.1550 H   0  0  0  0  0  0  0  0  0  0  0  0
  -10.0660   -3.6200  -26.5080 H   0  0  0  0  0  0  0  0  0  0  0  0
   -7.8050    0.9430  -25.9090 H   0  0  0  0  0  0  0  0  0  0  0  0
   -6.3460    0.2350  -25.1980 H   0  0  0  0  0  0  0  0  0  0  0  0
   -6.1610    0.6560  -27.6820 H   0  0  0  0  0  0  0  0  0  0  0  0
   -6.0460   -1.0780  -27.3470 H   0  0  0  0  0  0  0  0  0  0  0  0
   -8.6460    0.3660  -28.1100 H   0  0  0  0  0  0  0  0  0  0  0  0
   -7.6700   -0.6210  -29.2010 H   0  0  0  0  0  0  0  0  0  0  0  0
   -9.1400   -4.6850  -29.2130 H   0  0  0  0  0  0  0  0  0  0  0  0
   -7.0190   -5.3520  -28.0800 H   0  0  0  0  0  0  0  0  0  0  0  0
   -6.8750   -3.6340  -27.4010 H   0  0  0  0  0  0  0  0  0  0  0  0
  1  2  2  0  0  0  0
  1 62  1  0  0  0  0
  1 63  1  0  0  0  0
  2  3  1  0  0  0  0
  2 61  1  0  0  0  0
  3  4  2  0  0  0  0
  3  5  1  0  0  0  0
  5  6  1  0  0  0  0
  5 10  1  0  0  0  0
  6  7  1  0  0  0  0
  6 59  1  0  0  0  0
  6 60  1  0  0  0  0
  7  8  1  0  0  0  0
  7 57  1  0  0  0  0
  7 58  1  0  0  0  0
  8  9  1  0  0  0  0
  8 55  1  0  0  0  0
  8 56  1  0  0  0  0
  9 10  2  0  0  0  0
  9 14  1  0  0  0  0
 10 11  1  0  0  0  0
 11 12  2  0  0  0  0
 11 54  1  0  0  0  0
 12 13  1  0  0  0  0
 12 53  1  0  0  0  0
 13 14  2  0  0  0  0
 13 52  1  0  0  0  0
 14 15  1  0  0  0  0
 15 16  1  0  0  0  0
 15 30  1  0  0  0  0
 15 51  1  0  0  0  0
 16 17  1  0  0  0  0
 16 28  1  0  0  0  0
 16 29  1  0  0  0  0
 17 18  2  0  0  0  0
 17 23  1  0  0  0  0
 18 19  1  0  0  0  0
 18 27  1  0  0  0  0
 19 20  2  0  0  0  0
 19 26  1  0  0  0  0
 20 21  1  0  0  0  0
 20 25  1  0  0  0  0
 21 22  1  0  0  0  0
 21 23  2  0  0  0  0
 23 24  1  0  0  0  0
 30 31  2  0  0  0  0
 30 32  1  0  0  0  0
 32 33  1  0  0  0  0
 32 49  1  0  0  0  0
 32 50  1  0  0  0  0
 33 34  2  0  0  0  0
 33 42  1  0  0  0  0
 34 35  1  0  0  0  0
 34 48  1  0  0  0  0
 35 36  2  0  0  0  0
 36 37  1  0  0  0  0
 36 47  1  0  0  0  0
 37 38  2  0  0  0  0
 37 42  1  0  0  0  0
 38 39  1  0  0  0  0
 38 46  1  0  0  0  0
 39 40  2  0  0  0  0
 39 45  1  0  0  0  0
 40 41  1  0  0  0  0
 40 44  1  0  0  0  0
 41 42  2  0  0  0  0
 41 43  1  0  0  0  0
M  CHG  1  15   1
M  END
>  <MODEL>
       1

$$$$
