output/tmp_first_model_5_8.pdb
 OpenBabel07242615323D

 60 64  0  0  1  0  0  0  0  0999 V2000
  -14.7200   -1.7540  -23.3210 C   0  0  0  0  0  0  0  0  0  0  0  0
  -13.7830   -2.7610  -22.8940 N   0  0  0  0  0  0  0  0  0  0  0  0
  -13.3710   -2.9550  -21.6190 C   0  0  0  0  0  0  0  0  0  0  0  0
  -13.7810   -2.3350  -20.6500 O   0  0  0  0  0  0  0  0  0  0  0  0
  -12.3600   -4.1030  -21.5760 C   0  0  0  0  0  0  0  0  0  0  0  0
  -11.1520   -3.8860  -22.3530 N   0  0  0  0  0  0  0  0  0  0  0  0
  -10.0080   -3.3970  -21.6180 C   0  0  0  0  0  0  0  0  0  0  0  0
   -8.8470   -2.8890  -22.4960 C   0  0  2  0  0  0  0  0  0  0  0  0
   -7.6700   -2.7460  -21.5280 C   0  0  0  0  0  0  0  0  0  0  0  0
   -7.0150   -3.6500  -21.0440 O   0  0  0  0  0  0  0  0  0  0  0  0
   -7.4700   -1.4110  -21.2360 N   0  0  0  0  0  0  0  0  0  0  0  0
   -6.5200   -1.0640  -20.2430 C   0  0  0  0  0  0  0  0  0  0  0  0
   -6.6780   -1.4940  -18.9500 C   0  0  0  0  0  0  0  0  0  0  0  0
   -5.7410   -1.3660  -17.9780 N   0  0  0  0  0  0  0  0  0  0  0  0
   -4.6310   -0.7400  -18.2960 C   0  0  0  0  0  0  0  0  0  0  0  0
   -4.3860   -0.1500  -19.5650 C   0  0  0  0  0  0  0  0  0  0  0  0
   -3.2580    0.6770  -19.8130 C   0  0  0  0  0  0  0  0  0  0  0  0
   -3.1890    1.4240  -20.9560 C   0  0  0  0  0  0  0  0  0  0  0  0
   -4.1460    1.2420  -21.9840 C   0  0  0  0  0  0  0  0  0  0  0  0
   -5.2170    0.4110  -21.7910 C   0  0  0  0  0  0  0  0  0  0  0  0
   -5.3810   -0.2680  -20.5590 C   0  0  0  0  0  0  0  0  0  0  0  0
   -5.9360    0.2510  -22.5870 H   0  0  0  0  0  0  0  0  0  0  0  0
   -4.0330    1.7490  -22.9360 H   0  0  0  0  0  0  0  0  0  0  0  0
   -2.3470    2.0840  -21.1410 H   0  0  0  0  0  0  0  0  0  0  0  0
   -2.5390    0.8040  -19.0120 H   0  0  0  0  0  0  0  0  0  0  0  0
   -3.8670   -0.6350  -17.5290 H   0  0  0  0  0  0  0  0  0  0  0  0
   -7.6010   -1.9900  -18.6600 H   0  0  0  0  0  0  0  0  0  0  0  0
   -8.4580   -0.5330  -21.8620 C   0  0  0  0  0  0  0  0  0  0  0  0
   -9.0070   -1.4180  -22.9990 C   0  0  2  0  0  0  0  0  0  0  0  0
  -10.4210   -1.0810  -23.4280 C   0  0  0  0  0  0  0  0  0  0  0  0
  -10.4990    0.2220  -23.9480 O   0  0  0  0  0  0  0  0  0  0  0  0
  -11.8340    0.5010  -24.2820 C   0  0  0  0  0  0  0  0  0  0  0  0
  -12.4630    0.5740  -23.3820 H   0  0  0  0  0  0  0  0  0  0  0  0
  -12.2450   -0.3080  -24.9050 H   0  0  0  0  0  0  0  0  0  0  0  0
  -11.8810    1.4410  -24.8350 H   0  0  0  0  0  0  0  0  0  0  0  0
  -10.7360   -1.8040  -24.1950 H   0  0  0  0  0  0  0  0  0  0  0  0
  -11.1120   -1.1910  -22.5790 H   0  0  0  0  0  0  0  0  0  0  0  0
   -8.3490   -1.2960  -23.8680 H   0  0  0  0  0  0  0  0  0  0  0  0
   -9.2440   -0.2510  -21.1460 H   0  0  0  0  0  0  0  0  0  0  0  0
   -8.0100    0.3960  -22.2280 H   0  0  0  0  0  0  0  0  0  0  0  0
   -8.6020   -3.9210  -23.5770 C   0  0  0  0  0  0  0  0  0  0  0  0
   -7.3190   -4.1090  -24.1000 C   0  0  0  0  0  0  0  0  0  0  0  0
   -7.0840   -5.1170  -25.0180 C   0  0  0  0  0  0  0  0  0  0  0  0
   -5.4640   -5.3580  -25.6080 Cl  0  0  0  0  0  0  0  0  0  0  0  0
   -8.1150   -5.9340  -25.4830 C   0  0  0  0  0  0  0  0  0  0  0  0
   -9.4010   -5.6970  -25.0250 C   0  0  0  0  0  0  0  0  0  0  0  0
   -9.6500   -4.7050  -24.0770 C   0  0  0  0  0  0  0  0  0  0  0  0
  -11.0410   -4.5130  -23.5640 C   0  0  0  0  0  0  0  0  0  0  0  0
  -12.0410   -4.8840  -24.1770 O   0  0  0  0  0  0  0  0  0  0  0  0
  -10.2360   -6.2850  -25.3910 H   0  0  0  0  0  0  0  0  0  0  0  0
   -7.9040   -6.7280  -26.1940 H   0  0  0  0  0  0  0  0  0  0  0  0
   -6.5030   -3.4850  -23.7560 H   0  0  0  0  0  0  0  0  0  0  0  0
   -9.6020   -4.1970  -20.9910 H   0  0  0  0  0  0  0  0  0  0  0  0
  -10.3630   -2.5920  -20.9670 H   0  0  0  0  0  0  0  0  0  0  0  0
  -12.8650   -4.9180  -22.0870 H   0  0  0  0  0  0  0  0  0  0  0  0
  -12.1130   -4.3730  -20.5490 H   0  0  0  0  0  0  0  0  0  0  0  0
  -13.4870   -3.4550  -23.5700 H   0  0  0  0  0  0  0  0  0  0  0  0
  -15.1830   -1.2940  -22.4510 H   0  0  0  0  0  0  0  0  0  0  0  0
  -15.4920   -2.2000  -23.9470 H   0  0  0  0  0  0  0  0  0  0  0  0
  -14.1910   -0.9930  -23.9070 H   0  0  0  0  0  0  0  0  0  0  0  0
  1  2  1  0  0  0  0
  1 58  1  0  0  0  0
  1 59  1  0  0  0  0
  1 60  1  0  0  0  0
  2  3  1  0  0  0  0
  2 57  1  0  0  0  0
  3  4  2  0  0  0  0
  3  5  1  0  0  0  0
  5  6  1  0  0  0  0
  5 55  1  0  0  0  0
  5 56  1  0  0  0  0
  6  7  1  0  0  0  0
  6 48  1  0  0  0  0
  7  8  1  0  0  0  0
  7 53  1  0  0  0  0
  7 54  1  0  0  0  0
  8  9  1  1  0  0  0
  8 29  1  0  0  0  0
  8 41  1  0  0  0  0
  9 10  2  0  0  0  0
  9 11  1  0  0  0  0
 11 12  1  0  0  0  0
 11 28  1  0  0  0  0
 12 13  2  0  0  0  0
 12 21  1  0  0  0  0
 13 14  1  0  0  0  0
 13 27  1  0  0  0  0
 14 15  2  0  0  0  0
 15 16  1  0  0  0  0
 15 26  1  0  0  0  0
 16 17  2  0  0  0  0
 16 21  1  0  0  0  0
 17 18  1  0  0  0  0
 17 25  1  0  0  0  0
 18 19  2  0  0  0  0
 18 24  1  0  0  0  0
 19 20  1  0  0  0  0
 19 23  1  0  0  0  0
 20 21  2  0  0  0  0
 20 22  1  0  0  0  0
 28 29  1  0  0  0  0
 28 39  1  0  0  0  0
 28 40  1  0  0  0  0
 29 30  1  0  0  0  0
 29 38  1  6  0  0  0
 30 31  1  0  0  0  0
 30 36  1  0  0  0  0
 30 37  1  0  0  0  0
 31 32  1  0  0  0  0
 32 33  1  0  0  0  0
 32 34  1  0  0  0  0
 32 35  1  0  0  0  0
 41 42  2  0  0  0  0
 41 47  1  0  0  0  0
 42 43  1  0  0  0  0
 42 52  1  0  0  0  0
 43 44  1  0  0  0  0
 43 45  2  0  0  0  0
 45 46  1  0  0  0  0
 45 51  1  0  0  0  0
 46 47  2  0  0  0  0
 46 50  1  0  0  0  0
 47 48  1  0  0  0  0
 48 49  2  0  0  0  0
M  END
>  <MODEL>
       1

$$$$
