output/tmp_first_model_20_13.pdb
 OpenBabel07242623363D

 69 74  0  0  1  0  0  0  0  0999 V2000
   -7.7500    3.0140  -22.2870 C   0  0  0  0  0  0  0  0  0  0  0  0
   -8.7350    2.5530  -23.2380 N   0  0  0  0  0  0  0  0  0  0  0  0
   -8.2980    1.9570  -24.3740 C   0  0  0  0  0  0  0  0  0  0  0  0
   -7.1140    1.8910  -24.6900 O   0  0  0  0  0  0  0  0  0  0  0  0
   -9.3990    1.2860  -25.2010 C   0  0  0  0  0  0  0  0  0  0  0  0
   -9.9630    0.1530  -24.4810 N   0  0  0  0  0  0  0  0  0  0  0  0
   -9.0290   -0.9210  -24.1840 C   0  0  0  0  0  0  0  0  0  0  0  0
   -9.3030   -1.6660  -22.8400 C   0  0  2  0  0  0  0  0  0  0  0  0
   -8.7480   -0.7940  -21.6750 C   0  0  0  0  0  0  0  0  0  0  0  0
   -9.2910    0.1830  -21.1930 O   0  0  0  0  0  0  0  0  0  0  0  0
   -7.5190   -1.2890  -21.2970 N   0  0  0  0  0  0  0  0  0  0  0  0
   -6.7310   -0.7390  -20.2490 C   0  0  0  0  0  0  0  0  0  0  0  0
   -7.0250   -1.0150  -18.9370 C   0  0  0  0  0  0  0  0  0  0  0  0
   -6.2870   -0.5870  -17.8830 N   0  0  0  0  0  0  0  0  0  0  0  0
   -5.2230    0.1340  -18.1320 C   0  0  0  0  0  0  0  0  0  0  0  0
   -4.7920    0.4890  -19.4430 C   0  0  0  0  0  0  0  0  0  0  0  0
   -3.6330    1.2810  -19.6720 C   0  0  0  0  0  0  0  0  0  0  0  0
   -3.2550    1.6050  -20.9460 C   0  0  0  0  0  0  0  0  0  0  0  0
   -4.0180    1.1620  -22.0490 C   0  0  0  0  0  0  0  0  0  0  0  0
   -5.1460    0.4000  -21.8510 C   0  0  0  0  0  0  0  0  0  0  0  0
   -5.5630    0.0380  -20.5410 C   0  0  0  0  0  0  0  0  0  0  0  0
   -5.7650    0.1370  -22.7040 H   0  0  0  0  0  0  0  0  0  0  0  0
   -3.7300    1.4430  -23.0580 H   0  0  0  0  0  0  0  0  0  0  0  0
   -2.3770    2.2210  -21.1200 H   0  0  0  0  0  0  0  0  0  0  0  0
   -3.0660    1.6320  -18.8130 H   0  0  0  0  0  0  0  0  0  0  0  0
   -4.6380    0.4790  -17.2780 H   0  0  0  0  0  0  0  0  0  0  0  0
   -7.8930   -1.6260  -18.6940 H   0  0  0  0  0  0  0  0  0  0  0  0
   -7.0940   -2.4510  -22.0500 C   0  0  0  0  0  0  0  0  0  0  0  0
   -8.3960   -2.9310  -22.7100 C   0  0  2  0  0  0  0  0  0  0  0  0
   -8.1370   -3.7380  -23.9790 C   0  0  0  0  0  0  0  0  0  0  0  0
   -9.3770   -4.2340  -24.5200 N   0  0  0  0  0  0  0  0  0  0  0  0
   -9.4180   -4.8260  -25.7390 C   0  0  0  0  0  0  0  0  0  0  0  0
  -10.6260   -5.3070  -26.2700 C   0  0  0  0  0  0  0  0  0  0  0  0
  -10.5650   -5.8470  -27.5320 C   0  0  0  0  0  0  0  0  0  0  0  0
   -9.4250   -5.9590  -28.2300 N   0  0  0  0  0  0  0  0  0  0  0  0
   -8.3270   -5.5300  -27.6100 C   0  0  0  0  0  0  0  0  0  0  0  0
   -7.0160   -5.7420  -28.3130 C   0  0  0  0  0  0  0  0  0  0  0  0
   -7.1620   -5.6890  -29.3940 H   0  0  0  0  0  0  0  0  0  0  0  0
   -6.6270   -6.7400  -28.0710 H   0  0  0  0  0  0  0  0  0  0  0  0
   -6.2830   -5.0000  -27.9870 H   0  0  0  0  0  0  0  0  0  0  0  0
   -8.2640   -4.9460  -26.4060 N   0  0  0  0  0  0  0  0  0  0  0  0
  -11.4670   -6.2180  -28.0200 H   0  0  0  0  0  0  0  0  0  0  0  0
  -11.5450   -5.2800  -25.6950 H   0  0  0  0  0  0  0  0  0  0  0  0
  -10.2500   -3.9740  -24.0790 H   0  0  0  0  0  0  0  0  0  0  0  0
   -7.4700   -4.5880  -23.7900 H   0  0  0  0  0  0  0  0  0  0  0  0
   -7.6160   -3.1340  -24.7360 H   0  0  0  0  0  0  0  0  0  0  0  0
   -8.8870   -3.5890  -21.9880 H   0  0  0  0  0  0  0  0  0  0  0  0
   -6.3190   -2.1940  -22.7910 H   0  0  0  0  0  0  0  0  0  0  0  0
   -6.6640   -3.2030  -21.3790 H   0  0  0  0  0  0  0  0  0  0  0  0
  -10.8090   -1.8800  -22.6720 C   0  0  0  0  0  0  0  0  0  0  0  0
  -11.3690   -2.9240  -21.9160 C   0  0  0  0  0  0  0  0  0  0  0  0
  -12.7330   -2.9460  -21.6500 C   0  0  0  0  0  0  0  0  0  0  0  0
  -13.4400   -4.1950  -20.6660 Cl  0  0  0  0  0  0  0  0  0  0  0  0
  -13.5970   -1.9640  -22.1270 C   0  0  0  0  0  0  0  0  0  0  0  0
  -13.0630   -0.9340  -22.8670 C   0  0  0  0  0  0  0  0  0  0  0  0
  -11.6980   -0.8970  -23.1460 C   0  0  0  0  0  0  0  0  0  0  0  0
  -11.2130    0.2640  -23.9550 C   0  0  0  0  0  0  0  0  0  0  0  0
  -11.9000    1.2690  -24.1240 O   0  0  0  0  0  0  0  0  0  0  0  0
  -13.6870   -0.1230  -23.2290 H   0  0  0  0  0  0  0  0  0  0  0  0
  -14.6560   -2.0190  -21.9040 H   0  0  0  0  0  0  0  0  0  0  0  0
  -10.7620   -3.7170  -21.4920 H   0  0  0  0  0  0  0  0  0  0  0  0
   -8.0370   -0.4610  -24.1470 H   0  0  0  0  0  0  0  0  0  0  0  0
   -9.0260   -1.6110  -25.0360 H   0  0  0  0  0  0  0  0  0  0  0  0
   -8.9400    0.9770  -26.1440 H   0  0  0  0  0  0  0  0  0  0  0  0
  -10.2260    1.9730  -25.3880 H   0  0  0  0  0  0  0  0  0  0  0  0
   -9.6730    2.3750  -22.9060 H   0  0  0  0  0  0  0  0  0  0  0  0
   -7.0300    2.2180  -22.0790 H   0  0  0  0  0  0  0  0  0  0  0  0
   -7.1900    3.8700  -22.6780 H   0  0  0  0  0  0  0  0  0  0  0  0
   -8.2100    3.2850  -21.3380 H   0  0  0  0  0  0  0  0  0  0  0  0
  1  2  1  0  0  0  0
  1 67  1  0  0  0  0
  1 68  1  0  0  0  0
  1 69  1  0  0  0  0
  2  3  1  0  0  0  0
  2 66  1  0  0  0  0
  3  4  2  0  0  0  0
  3  5  1  0  0  0  0
  5  6  1  0  0  0  0
  5 64  1  0  0  0  0
  5 65  1  0  0  0  0
  6  7  1  0  0  0  0
  6 57  1  0  0  0  0
  7  8  1  0  0  0  0
  7 62  1  0  0  0  0
  7 63  1  0  0  0  0
  8  9  1  1  0  0  0
  8 29  1  0  0  0  0
  8 50  1  0  0  0  0
  9 10  2  0  0  0  0
  9 11  1  0  0  0  0
 11 12  1  0  0  0  0
 11 28  1  0  0  0  0
 12 13  2  0  0  0  0
 12 21  1  0  0  0  0
 13 14  1  0  0  0  0
 13 27  1  0  0  0  0
 14 15  2  0  0  0  0
 15 16  1  0  0  0  0
 15 26  1  0  0  0  0
 16 17  2  0  0  0  0
 16 21  1  0  0  0  0
 17 18  1  0  0  0  0
 17 25  1  0  0  0  0
 18 19  2  0  0  0  0
 18 24  1  0  0  0  0
 19 20  1  0  0  0  0
 19 23  1  0  0  0  0
 20 21  2  0  0  0  0
 20 22  1  0  0  0  0
 28 29  1  0  0  0  0
 28 48  1  0  0  0  0
 28 49  1  0  0  0  0
 29 30  1  0  0  0  0
 29 47  1  1  0  0  0
 30 31  1  0  0  0  0
 30 45  1  0  0  0  0
 30 46  1  0  0  0  0
 31 32  1  0  0  0  0
 31 44  1  0  0  0  0
 32 33  2  0  0  0  0
 32 41  1  0  0  0  0
 33 34  1  0  0  0  0
 33 43  1  0  0  0  0
 34 35  2  0  0  0  0
 34 42  1  0  0  0  0
 35 36  1  0  0  0  0
 36 37  1  0  0  0  0
 36 41  2  0  0  0  0
 37 38  1  0  0  0  0
 37 39  1  0  0  0  0
 37 40  1  0  0  0  0
 50 51  2  0  0  0  0
 50 56  1  0  0  0  0
 51 52  1  0  0  0  0
 51 61  1  0  0  0  0
 52 53  1  0  0  0  0
 52 54  2  0  0  0  0
 54 55  1  0  0  0  0
 54 60  1  0  0  0  0
 55 56  2  0  0  0  0
 55 59  1  0  0  0  0
 56 57  1  0  0  0  0
 57 58  2  0  0  0  0
M  END
>  <MODEL>
       1

$$$$
