output/tmp_first_model_8_35.pdb
 OpenBabel07242617113D

 40 42  0  0  0  0  0  0  0  0999 V2000
   -9.0930   -1.8460  -22.6810 O   0  0  0  0  0  0  0  0  0  0  0  0
   -8.2080   -1.0360  -22.4320 C   0  0  0  0  0  0  0  0  0  0  0  0
   -6.8040   -1.4880  -22.0410 C   0  0  0  0  0  0  0  0  0  0  0  0
   -6.3140   -0.8600  -20.7440 C   0  0  0  0  0  0  0  0  0  0  0  0
   -6.9490   -1.1630  -19.5640 C   0  0  0  0  0  0  0  0  0  0  0  0
   -6.6220   -0.6680  -18.3440 N   0  0  0  0  0  0  0  0  0  0  0  0
   -5.6340    0.1930  -18.2970 C   0  0  0  0  0  0  0  0  0  0  0  0
   -4.8850    0.6080  -19.4290 C   0  0  0  0  0  0  0  0  0  0  0  0
   -3.8530    1.5780  -19.3250 C   0  0  0  0  0  0  0  0  0  0  0  0
   -3.1960    2.0130  -20.4440 C   0  0  0  0  0  0  0  0  0  0  0  0
   -3.5130    1.4630  -21.7050 C   0  0  0  0  0  0  0  0  0  0  0  0
   -4.4650    0.4750  -21.8170 C   0  0  0  0  0  0  0  0  0  0  0  0
   -5.2120    0.0490  -20.6890 C   0  0  0  0  0  0  0  0  0  0  0  0
   -4.6490    0.0330  -22.7930 H   0  0  0  0  0  0  0  0  0  0  0  0
   -2.9820    1.8040  -22.5910 H   0  0  0  0  0  0  0  0  0  0  0  0
   -2.4280    2.7790  -20.3730 H   0  0  0  0  0  0  0  0  0  0  0  0
   -3.6110    1.9680  -18.3370 H   0  0  0  0  0  0  0  0  0  0  0  0
   -5.3880    0.6200  -17.3230 H   0  0  0  0  0  0  0  0  0  0  0  0
   -7.7840   -1.8640  -19.5680 H   0  0  0  0  0  0  0  0  0  0  0  0
   -6.8690   -2.5760  -21.9380 H   0  0  0  0  0  0  0  0  0  0  0  0
   -6.1000   -1.2940  -22.8560 H   0  0  0  0  0  0  0  0  0  0  0  0
   -8.3550    0.3300  -22.4310 N   0  0  0  0  0  0  0  0  0  0  0  0
   -7.3880    1.2340  -23.1240 C   0  0  0  0  0  0  0  0  0  0  0  0
   -7.9650    2.5300  -23.6430 C   0  0  0  0  0  0  0  0  0  0  0  0
   -9.2350    2.9130  -23.6440 C   0  0  0  0  0  0  0  0  0  0  0  0
   -8.6010    5.5130  -22.9760 C   0  0  0  0  0  0  0  0  0  0  0  0
   -8.1080    5.2220  -21.7930 F   0  0  0  0  0  0  0  0  0  0  0  0
   -9.6330    6.3200  -22.8660 F   0  0  0  0  0  0  0  0  0  0  0  0
   -7.6760    6.0180  -23.7650 F   0  0  0  0  0  0  0  0  0  0  0  0
   -9.5200    1.1010  -21.9450 C   0  0  0  0  0  0  0  0  0  0  0  0
   -9.5360    0.9410  -21.7730 C   0  0  0  0  0  0  0  0  0  0  0  0
  -10.3050    0.6220  -22.7440 H   0  0  0  0  0  0  0  0  0  0  0  0
   -9.8660    0.0310  -20.5500 H   0  0  0  0  0  0  0  0  0  0  0  0
  -10.4150    1.8760  -21.6480 H   0  0  0  0  0  0  0  0  0  0  0  0
   -8.7910    1.9220  -21.4000 H   0  0  0  0  0  0  0  0  0  0  0  0
   -9.4620    3.9590  -23.8160 H   0  0  0  0  0  0  0  0  0  0  0  0
   -7.1920    3.2020  -24.0240 H   0  0  0  0  0  0  0  0  0  0  0  0
  -10.0380    2.2150  -23.5440 H   0  0  0  0  0  0  0  0  0  0  0  0
   -6.9340    0.6980  -23.9610 H   0  0  0  0  0  0  0  0  0  0  0  0
   -6.5930    1.4920  -22.4130 H   0  0  0  0  0  0  0  0  0  0  0  0
  1  2  2  0  0  0  0
  2  3  1  0  0  0  0
  2 22  1  0  0  0  0
  3  4  1  0  0  0  0
  3 20  1  0  0  0  0
  3 21  1  0  0  0  0
  4  5  2  0  0  0  0
  4 13  1  0  0  0  0
  5  6  1  0  0  0  0
  5 19  1  0  0  0  0
  6  7  2  0  0  0  0
  7  8  1  0  0  0  0
  7 18  1  0  0  0  0
  8  9  2  0  0  0  0
  8 13  1  0  0  0  0
  9 10  1  0  0  0  0
  9 17  1  0  0  0  0
 10 11  2  0  0  0  0
 10 16  1  0  0  0  0
 11 12  1  0  0  0  0
 11 15  1  0  0  0  0
 12 13  2  0  0  0  0
 12 14  1  0  0  0  0
 22 23  1  0  0  0  0
 22 31  1  0  0  0  0
 23 24  1  0  0  0  0
 23 39  1  0  0  0  0
 23 40  1  0  0  0  0
 24 25  1  0  0  0  0
 24 37  1  0  0  0  0
 24 38  1  0  0  0  0
 25 26  1  0  0  0  0
 25 30  1  0  0  0  0
 25 36  1  0  0  0  0
 26 27  1  0  0  0  0
 26 28  1  0  0  0  0
 26 29  1  0  0  0  0
 30 31  1  0  0  0  0
 30 34  1  0  0  0  0
 30 35  1  0  0  0  0
 31 32  1  0  0  0  0
 31 33  1  0  0  0  0
M  END
>  <MODEL>
       1

$$$$
