output/tmp_first_model_13_57.pdb
 OpenBabel07242619583D

 59 63  0  0  1  0  0  0  0  0999 V2000
  -14.5160   -1.2720  -23.5990 C   0  0  0  0  0  0  0  0  0  0  0  0
  -13.7670   -2.4440  -23.1990 N   0  0  0  0  0  0  0  0  0  0  0  0
  -13.4780   -2.6610  -21.8880 C   0  0  0  0  0  0  0  0  0  0  0  0
  -13.9430   -1.9680  -21.0000 O   0  0  0  0  0  0  0  0  0  0  0  0
  -12.5390   -3.8420  -21.6050 C   0  0  0  0  0  0  0  0  0  0  0  0
  -11.2160   -3.7720  -22.2190 N   0  0  0  0  0  0  0  0  0  0  0  0
  -10.0670   -3.2870  -21.4540 C   0  0  0  0  0  0  0  0  0  0  0  0
   -8.8400   -2.9300  -22.3360 C   0  0  2  0  0  0  0  0  0  0  0  0
   -7.6060   -2.7070  -21.4410 C   0  0  0  0  0  0  0  0  0  0  0  0
   -6.8660   -3.5620  -20.9930 O   0  0  0  0  0  0  0  0  0  0  0  0
   -7.4070   -1.3550  -21.2630 N   0  0  0  0  0  0  0  0  0  0  0  0
   -6.5920   -0.8550  -20.2140 C   0  0  0  0  0  0  0  0  0  0  0  0
   -6.8960   -1.1040  -18.8990 C   0  0  0  0  0  0  0  0  0  0  0  0
   -6.2210   -0.5730  -17.8480 N   0  0  0  0  0  0  0  0  0  0  0  0
   -5.2060    0.2100  -18.1050 C   0  0  0  0  0  0  0  0  0  0  0  0
   -4.7590    0.5240  -19.4180 C   0  0  0  0  0  0  0  0  0  0  0  0
   -3.6280    1.3490  -19.6470 C   0  0  0  0  0  0  0  0  0  0  0  0
   -3.2190    1.6180  -20.9230 C   0  0  0  0  0  0  0  0  0  0  0  0
   -3.9190    1.0730  -22.0240 C   0  0  0  0  0  0  0  0  0  0  0  0
   -5.0180    0.2740  -21.8260 C   0  0  0  0  0  0  0  0  0  0  0  0
   -5.4700   -0.0180  -20.5140 C   0  0  0  0  0  0  0  0  0  0  0  0
   -5.5440   -0.1530  -22.6730 H   0  0  0  0  0  0  0  0  0  0  0  0
   -3.5840    1.2840  -23.0350 H   0  0  0  0  0  0  0  0  0  0  0  0
   -2.3580    2.2550  -21.1010 H   0  0  0  0  0  0  0  0  0  0  0  0
   -3.1020    1.7590  -18.7870 H   0  0  0  0  0  0  0  0  0  0  0  0
   -4.6710    0.6280  -17.2500 H   0  0  0  0  0  0  0  0  0  0  0  0
   -7.7320   -1.7500  -18.6410 H   0  0  0  0  0  0  0  0  0  0  0  0
   -8.4130   -0.5470  -21.9290 C   0  0  0  0  0  0  0  0  0  0  0  0
   -9.0120   -1.4850  -23.0080 C   0  0  0  0  0  0  0  0  0  0  0  0
  -10.4600   -1.0810  -23.3050 C   0  0  0  0  0  0  0  0  0  0  0  0
  -11.0740   -1.0700  -22.4000 H   0  0  0  0  0  0  0  0  0  0  0  0
  -10.9070   -1.7850  -24.0110 H   0  0  0  0  0  0  0  0  0  0  0  0
  -10.4990   -0.0820  -23.7490 H   0  0  0  0  0  0  0  0  0  0  0  0
   -8.2200   -1.4120  -24.3230 C   0  0  0  0  0  0  0  0  0  0  0  0
   -8.6250   -2.1360  -25.0370 H   0  0  0  0  0  0  0  0  0  0  0  0
   -8.3020   -0.4140  -24.7650 H   0  0  0  0  0  0  0  0  0  0  0  0
   -7.1610   -1.6560  -24.1850 H   0  0  0  0  0  0  0  0  0  0  0  0
   -7.9630    0.3560  -22.3560 H   0  0  0  0  0  0  0  0  0  0  0  0
   -9.1890   -0.2160  -21.2180 H   0  0  0  0  0  0  0  0  0  0  0  0
   -8.6010   -4.1000  -23.2660 C   0  0  0  0  0  0  0  0  0  0  0  0
   -7.3180   -4.4630  -23.7050 C   0  0  0  0  0  0  0  0  0  0  0  0
   -7.1610   -5.4700  -24.6420 C   0  0  0  0  0  0  0  0  0  0  0  0
   -5.5630   -5.8550  -25.2270 Cl  0  0  0  0  0  0  0  0  0  0  0  0
   -8.2500   -6.1830  -25.1420 C   0  0  0  0  0  0  0  0  0  0  0  0
   -9.5120   -5.8470  -24.6930 C   0  0  0  0  0  0  0  0  0  0  0  0
   -9.6880   -4.8160  -23.7760 C   0  0  0  0  0  0  0  0  0  0  0  0
  -11.0760   -4.4840  -23.3730 C   0  0  0  0  0  0  0  0  0  0  0  0
  -12.0560   -4.8490  -24.0230 O   0  0  0  0  0  0  0  0  0  0  0  0
  -10.3930   -6.3780  -25.0370 H   0  0  0  0  0  0  0  0  0  0  0  0
   -8.1040   -6.9810  -25.8620 H   0  0  0  0  0  0  0  0  0  0  0  0
   -6.4350   -3.9730  -23.3130 H   0  0  0  0  0  0  0  0  0  0  0  0
  -10.3520   -2.3800  -20.9180 H   0  0  0  0  0  0  0  0  0  0  0  0
   -9.7850   -4.0440  -20.7170 H   0  0  0  0  0  0  0  0  0  0  0  0
  -12.4720   -4.0220  -20.5290 H   0  0  0  0  0  0  0  0  0  0  0  0
  -13.0330   -4.6930  -22.0740 H   0  0  0  0  0  0  0  0  0  0  0  0
  -13.4600   -3.1130  -23.8950 H   0  0  0  0  0  0  0  0  0  0  0  0
  -13.9030   -0.3600  -23.5790 H   0  0  0  0  0  0  0  0  0  0  0  0
  -14.8970   -1.4440  -24.6080 H   0  0  0  0  0  0  0  0  0  0  0  0
  -15.3440   -1.0990  -22.9070 H   0  0  0  0  0  0  0  0  0  0  0  0
  1  2  1  0  0  0  0
  1 57  1  0  0  0  0
  1 58  1  0  0  0  0
  1 59  1  0  0  0  0
  2  3  1  0  0  0  0
  2 56  1  0  0  0  0
  3  4  2  0  0  0  0
  3  5  1  0  0  0  0
  5  6  1  0  0  0  0
  5 54  1  0  0  0  0
  5 55  1  0  0  0  0
  6  7  1  0  0  0  0
  6 47  1  0  0  0  0
  7  8  1  0  0  0  0
  7 52  1  0  0  0  0
  7 53  1  0  0  0  0
  8  9  1  1  0  0  0
  8 29  1  0  0  0  0
  8 40  1  0  0  0  0
  9 10  2  0  0  0  0
  9 11  1  0  0  0  0
 11 12  1  0  0  0  0
 11 28  1  0  0  0  0
 12 13  2  0  0  0  0
 12 21  1  0  0  0  0
 13 14  1  0  0  0  0
 13 27  1  0  0  0  0
 14 15  2  0  0  0  0
 15 16  1  0  0  0  0
 15 26  1  0  0  0  0
 16 17  2  0  0  0  0
 16 21  1  0  0  0  0
 17 18  1  0  0  0  0
 17 25  1  0  0  0  0
 18 19  2  0  0  0  0
 18 24  1  0  0  0  0
 19 20  1  0  0  0  0
 19 23  1  0  0  0  0
 20 21  2  0  0  0  0
 20 22  1  0  0  0  0
 28 29  1  0  0  0  0
 28 38  1  0  0  0  0
 28 39  1  0  0  0  0
 29 30  1  0  0  0  0
 29 34  1  0  0  0  0
 30 31  1  0  0  0  0
 30 32  1  0  0  0  0
 30 33  1  0  0  0  0
 34 35  1  0  0  0  0
 34 36  1  0  0  0  0
 34 37  1  0  0  0  0
 40 41  2  0  0  0  0
 40 46  1  0  0  0  0
 41 42  1  0  0  0  0
 41 51  1  0  0  0  0
 42 43  1  0  0  0  0
 42 44  2  0  0  0  0
 44 45  1  0  0  0  0
 44 50  1  0  0  0  0
 45 46  2  0  0  0  0
 45 49  1  0  0  0  0
 46 47  1  0  0  0  0
 47 48  2  0  0  0  0
M  END
>  <MODEL>
       1

$$$$
