output/tmp_first_model_12_41.pdb
 OpenBabel07242619253D

 67 71  0  0  1  0  0  0  0  0999 V2000
  -10.5340    1.5600  -26.3720 C   0  0  0  0  0  0  0  0  0  0  0  0
  -10.5230    0.1910  -25.9020 N   0  0  0  0  0  0  0  0  0  0  0  0
   -9.8450   -0.7790  -26.5590 C   0  0  0  0  0  0  0  0  0  0  0  0
   -9.3360   -0.6170  -27.6580 O   0  0  0  0  0  0  0  0  0  0  0  0
   -9.7400   -2.1390  -25.8680 C   0  0  0  0  0  0  0  0  0  0  0  0
  -10.0070   -2.1610  -24.4380 N   0  0  0  0  0  0  0  0  0  0  0  0
   -9.1260   -1.3570  -23.5740 C   0  0  0  0  0  0  0  0  0  0  0  0
   -8.7530   -1.9810  -22.1970 C   0  0  2  0  0  0  0  0  0  0  0  0
   -8.1170   -0.9390  -21.2990 C   0  0  0  0  0  0  0  0  0  0  0  0
   -8.7060   -0.0430  -20.7290 O   0  0  0  0  0  0  0  0  0  0  0  0
   -6.7750   -1.2110  -21.1860 N   0  0  0  0  0  0  0  0  0  0  0  0
   -6.0700   -0.6360  -20.1000 C   0  0  0  0  0  0  0  0  0  0  0  0
   -6.3620   -1.0050  -18.8090 C   0  0  0  0  0  0  0  0  0  0  0  0
   -5.7150   -0.5340  -17.7160 N   0  0  0  0  0  0  0  0  0  0  0  0
   -4.7580    0.3410  -17.9170 C   0  0  0  0  0  0  0  0  0  0  0  0
   -4.3690    0.8210  -19.2010 C   0  0  0  0  0  0  0  0  0  0  0  0
   -3.3240    1.7660  -19.3730 C   0  0  0  0  0  0  0  0  0  0  0  0
   -3.0200    2.2390  -20.6200 C   0  0  0  0  0  0  0  0  0  0  0  0
   -3.7540    1.8120  -21.7500 C   0  0  0  0  0  0  0  0  0  0  0  0
   -4.7700    0.8980  -21.6110 C   0  0  0  0  0  0  0  0  0  0  0  0
   -5.0700    0.3530  -20.3340 C   0  0  0  0  0  0  0  0  0  0  0  0
   -5.3490    0.5770  -22.4720 H   0  0  0  0  0  0  0  0  0  0  0  0
   -3.5120    2.2100  -22.7320 H   0  0  0  0  0  0  0  0  0  0  0  0
   -2.2200    2.9630  -20.7520 H   0  0  0  0  0  0  0  0  0  0  0  0
   -2.7910    2.1110  -18.4900 H   0  0  0  0  0  0  0  0  0  0  0  0
   -4.2370    0.7180  -17.0370 H   0  0  0  0  0  0  0  0  0  0  0  0
   -7.1560   -1.7220  -18.6060 H   0  0  0  0  0  0  0  0  0  0  0  0
   -6.3630   -2.3770  -21.9560 C   0  0  0  0  0  0  0  0  0  0  0  0
   -7.6920   -3.1150  -22.2050 C   0  0  2  0  0  0  0  0  0  0  0  0
   -7.7540   -4.0400  -23.4180 C   0  0  0  0  0  0  0  0  0  0  0  0
   -6.7020   -5.4760  -23.2330 S   0  0  0  0  0  0  0  0  0  0  0  0
   -7.3460   -6.3780  -22.2860 O   0  0  0  0  0  0  0  0  0  0  0  0
   -5.3400   -5.0170  -22.9880 O   0  0  0  0  0  0  0  0  0  0  0  0
   -6.7310   -6.1390  -24.7820 N   0  0  0  0  0  0  0  0  0  0  0  0
   -5.5920   -7.0210  -25.0580 C   0  0  0  0  0  0  0  0  0  0  0  0
   -4.6660   -6.4800  -24.8670 H   0  0  0  0  0  0  0  0  0  0  0  0
   -5.6040   -7.9400  -24.4550 H   0  0  0  0  0  0  0  0  0  0  0  0
   -5.6240   -7.2890  -26.1190 H   0  0  0  0  0  0  0  0  0  0  0  0
   -8.0170   -6.7070  -25.1810 C   0  0  0  0  0  0  0  0  0  0  0  0
   -7.8760   -7.2320  -26.1300 H   0  0  0  0  0  0  0  0  0  0  0  0
   -8.7370   -5.9050  -25.3680 H   0  0  0  0  0  0  0  0  0  0  0  0
   -8.4220   -7.4010  -24.4350 H   0  0  0  0  0  0  0  0  0  0  0  0
   -8.7780   -4.4170  -23.5180 H   0  0  0  0  0  0  0  0  0  0  0  0
   -7.4590   -3.5330  -24.3430 H   0  0  0  0  0  0  0  0  0  0  0  0
   -7.8910   -3.7370  -21.3270 H   0  0  0  0  0  0  0  0  0  0  0  0
   -5.6290   -2.9740  -21.4100 H   0  0  0  0  0  0  0  0  0  0  0  0
   -5.9120   -2.0750  -22.9120 H   0  0  0  0  0  0  0  0  0  0  0  0
  -10.0520   -2.3420  -21.5110 C   0  0  0  0  0  0  0  0  0  0  0  0
  -10.4130   -3.6330  -21.5190 C   0  0  0  0  0  0  0  0  0  0  0  0
  -13.1890   -3.6440  -20.9790 C   0  0  0  0  0  0  0  0  0  0  0  0
  -14.0530   -4.5030  -20.4380 F   0  0  0  0  0  0  0  0  0  0  0  0
  -13.1340   -3.5250  -21.0040 C   0  0  0  0  0  0  0  0  0  0  0  0
  -12.6200   -3.3790  -22.2390 C   0  0  0  0  0  0  0  0  0  0  0  0
  -11.1470   -3.1710  -22.5260 C   0  0  0  0  0  0  0  0  0  0  0  0
  -10.9790   -3.0350  -23.9770 C   0  0  0  0  0  0  0  0  0  0  0  0
  -11.7040   -3.6820  -24.7070 O   0  0  0  0  0  0  0  0  0  0  0  0
  -13.1570   -4.2370  -22.3710 H   0  0  0  0  0  0  0  0  0  0  0  0
  -12.8950   -2.9670  -19.9440 H   0  0  0  0  0  0  0  0  0  0  0  0
  -10.5260   -1.5430  -20.9190 H   0  0  0  0  0  0  0  0  0  0  0  0
   -8.2200   -1.1180  -24.1390 H   0  0  0  0  0  0  0  0  0  0  0  0
   -9.6110   -0.4050  -23.3240 H   0  0  0  0  0  0  0  0  0  0  0  0
  -10.4530   -2.8260  -26.3390 H   0  0  0  0  0  0  0  0  0  0  0  0
   -8.7270   -2.5080  -26.0870 H   0  0  0  0  0  0  0  0  0  0  0  0
  -10.9810   -0.0450  -25.0350 H   0  0  0  0  0  0  0  0  0  0  0  0
  -11.4240    2.0630  -25.9860 H   0  0  0  0  0  0  0  0  0  0  0  0
  -10.5550    1.5640  -27.4650 H   0  0  0  0  0  0  0  0  0  0  0  0
   -9.6430    2.1100  -26.0380 H   0  0  0  0  0  0  0  0  0  0  0  0
  1  2  1  0  0  0  0
  1 65  1  0  0  0  0
  1 66  1  0  0  0  0
  1 67  1  0  0  0  0
  2  3  1  0  0  0  0
  2 64  1  0  0  0  0
  3  4  2  0  0  0  0
  3  5  1  0  0  0  0
  5  6  1  0  0  0  0
  5 62  1  0  0  0  0
  5 63  1  0  0  0  0
  6  7  1  0  0  0  0
  6 55  1  0  0  0  0
  7  8  1  0  0  0  0
  7 60  1  0  0  0  0
  7 61  1  0  0  0  0
  8  9  1  1  0  0  0
  8 29  1  0  0  0  0
  8 48  1  0  0  0  0
  9 10  2  0  0  0  0
  9 11  1  0  0  0  0
 11 12  1  0  0  0  0
 11 28  1  0  0  0  0
 12 13  2  0  0  0  0
 12 21  1  0  0  0  0
 13 14  1  0  0  0  0
 13 27  1  0  0  0  0
 14 15  2  0  0  0  0
 15 16  1  0  0  0  0
 15 26  1  0  0  0  0
 16 17  2  0  0  0  0
 16 21  1  0  0  0  0
 17 18  1  0  0  0  0
 17 25  1  0  0  0  0
 18 19  2  0  0  0  0
 18 24  1  0  0  0  0
 19 20  1  0  0  0  0
 19 23  1  0  0  0  0
 20 21  2  0  0  0  0
 20 22  1  0  0  0  0
 28 29  1  0  0  0  0
 28 46  1  0  0  0  0
 28 47  1  0  0  0  0
 29 30  1  0  0  0  0
 29 45  1  1  0  0  0
 30 31  1  0  0  0  0
 30 43  1  0  0  0  0
 30 44  1  0  0  0  0
 31 32  2  0  0  0  0
 31 33  2  0  0  0  0
 31 34  1  0  0  0  0
 34 35  1  0  0  0  0
 34 39  1  0  0  0  0
 35 36  1  0  0  0  0
 35 37  1  0  0  0  0
 35 38  1  0  0  0  0
 39 40  1  0  0  0  0
 39 41  1  0  0  0  0
 39 42  1  0  0  0  0
 48 49  2  0  0  0  0
 48 54  1  0  0  0  0
 49 50  1  0  0  0  0
 49 59  1  0  0  0  0
 50 51  1  0  0  0  0
 50 52  2  0  0  0  0
 52 53  1  0  0  0  0
 52 58  1  0  0  0  0
 53 54  2  0  0  0  0
 53 57  1  0  0  0  0
 54 55  1  0  0  0  0
 55 56  2  0  0  0  0
M  END
>  <MODEL>
       1

$$$$
