output/tmp_first_model_20_21.pdb
 OpenBabel07242623363D

 63 68  0  0  1  0  0  0  0  0999 V2000
  -10.1960   -2.9820  -22.0660 C   0  0  0  0  0  0  0  0  0  0  0  0
   -9.1290   -2.0380  -22.6340 C   0  0  1  0  0  0  0  0  0  0  0  0
   -8.6680   -1.0370  -21.5620 C   0  0  0  0  0  0  0  0  0  0  0  0
   -7.3440   -1.4840  -21.1950 N   0  0  0  0  0  0  0  0  0  0  0  0
   -6.5720   -0.8610  -20.1950 C   0  0  0  0  0  0  0  0  0  0  0  0
   -6.9200   -1.0450  -18.8840 C   0  0  0  0  0  0  0  0  0  0  0  0
   -6.2380   -0.5370  -17.8350 N   0  0  0  0  0  0  0  0  0  0  0  0
   -5.1860    0.1930  -18.1090 C   0  0  0  0  0  0  0  0  0  0  0  0
   -4.7390    0.4920  -19.4280 C   0  0  0  0  0  0  0  0  0  0  0  0
   -3.6140    1.3270  -19.6490 C   0  0  0  0  0  0  0  0  0  0  0  0
   -3.2290    1.6480  -20.9180 C   0  0  0  0  0  0  0  0  0  0  0  0
   -3.9520    1.1510  -22.0270 C   0  0  0  0  0  0  0  0  0  0  0  0
   -5.0400    0.3340  -21.8470 C   0  0  0  0  0  0  0  0  0  0  0  0
   -5.4550   -0.0300  -20.5270 C   0  0  0  0  0  0  0  0  0  0  0  0
   -5.5890   -0.0230  -22.7200 H   0  0  0  0  0  0  0  0  0  0  0  0
   -3.6460    1.4380  -23.0300 H   0  0  0  0  0  0  0  0  0  0  0  0
   -2.3810    2.3060  -21.0830 H   0  0  0  0  0  0  0  0  0  0  0  0
   -3.0870    1.7110  -18.7800 H   0  0  0  0  0  0  0  0  0  0  0  0
   -4.6340    0.6070  -17.2650 H   0  0  0  0  0  0  0  0  0  0  0  0
   -7.7840   -1.6670  -18.6520 H   0  0  0  0  0  0  0  0  0  0  0  0
   -6.8010   -2.4360  -22.0180 C   0  0  0  0  0  0  0  0  0  0  0  0
   -5.7050   -2.9330  -21.8670 O   0  0  0  0  0  0  0  0  0  0  0  0
   -7.8170   -2.7110  -23.1440 C   0  0  1  0  0  0  0  0  0  0  0  0
   -7.9810   -4.2200  -23.3570 C   0  0  0  0  0  0  0  0  0  0  0  0
   -6.8040   -4.8030  -23.9680 N   0  0  0  0  0  0  0  0  0  0  0  0
   -6.4500   -6.1540  -23.5860 C   0  0  0  0  0  0  0  0  0  0  0  0
   -7.4870   -7.1210  -24.1670 C   0  0  0  0  0  0  0  0  0  0  0  0
   -8.4260   -7.5550  -23.5240 O   0  0  0  0  0  0  0  0  0  0  0  0
   -7.2810   -7.3630  -25.4920 N   0  0  0  0  0  0  0  0  0  0  0  0
   -8.3990   -7.7730  -26.3290 C   0  0  0  0  0  0  0  0  0  0  0  0
   -9.4290   -6.6780  -26.4760 C   0  0  0  0  0  0  0  0  0  0  0  0
   -9.0570   -5.4800  -27.2930 C   0  0  0  0  0  0  0  0  0  0  0  0
  -10.1070   -6.4420  -27.7860 C   0  0  0  0  0  0  0  0  0  0  0  0
  -11.1470   -6.1240  -27.7760 H   0  0  0  0  0  0  0  0  0  0  0  0
   -9.8420   -7.0940  -28.6170 H   0  0  0  0  0  0  0  0  0  0  0  0
   -8.0860   -5.5200  -27.7870 H   0  0  0  0  0  0  0  0  0  0  0  0
   -9.3570   -4.5010  -26.9260 H   0  0  0  0  0  0  0  0  0  0  0  0
  -10.0390   -6.5150  -25.5880 H   0  0  0  0  0  0  0  0  0  0  0  0
   -7.9900   -8.0460  -27.3070 H   0  0  0  0  0  0  0  0  0  0  0  0
   -8.8740   -8.6640  -25.9280 H   0  0  0  0  0  0  0  0  0  0  0  0
   -6.5450   -6.8200  -25.9360 H   0  0  0  0  0  0  0  0  0  0  0  0
   -5.4540   -6.3610  -23.9850 H   0  0  0  0  0  0  0  0  0  0  0  0
   -6.4430   -6.2090  -22.4940 H   0  0  0  0  0  0  0  0  0  0  0  0
   -6.2780   -4.2940  -25.1120 C   0  0  0  0  0  0  0  0  0  0  0  0
   -5.5800   -4.9680  -25.8670 O   0  0  0  0  0  0  0  0  0  0  0  0
   -6.5890   -2.8580  -25.3710 C   0  0  0  0  0  0  0  0  0  0  0  0
   -6.1200   -2.3020  -26.5590 C   0  0  0  0  0  0  0  0  0  0  0  0
   -6.3550   -0.9760  -26.8550 C   0  0  0  0  0  0  0  0  0  0  0  0
   -7.0570   -0.2250  -25.9220 C   0  0  0  0  0  0  0  0  0  0  0  0
   -7.2950    1.0660  -26.2000 F   0  0  0  0  0  0  0  0  0  0  0  0
   -7.5310   -0.7460  -24.7340 C   0  0  0  0  0  0  0  0  0  0  0  0
   -7.3150   -2.0980  -24.4470 C   0  0  0  0  0  0  0  0  0  0  0  0
   -8.0900   -0.0940  -24.0690 H   0  0  0  0  0  0  0  0  0  0  0  0
   -6.0090   -0.5170  -27.7750 H   0  0  0  0  0  0  0  0  0  0  0  0
   -5.5720   -2.9550  -27.2260 H   0  0  0  0  0  0  0  0  0  0  0  0
   -8.1450   -4.7230  -22.4060 H   0  0  0  0  0  0  0  0  0  0  0  0
   -8.8760   -4.3780  -23.9740 H   0  0  0  0  0  0  0  0  0  0  0  0
   -8.6540    0.0020  -21.9220 H   0  0  0  0  0  0  0  0  0  0  0  0
   -9.3240   -1.0610  -20.6960 H   0  0  0  0  0  0  0  0  0  0  0  0
   -9.5950   -1.5190  -23.4760 H   0  0  0  0  0  0  0  0  0  0  0  0
  -10.5760   -3.6670  -22.8280 H   0  0  0  0  0  0  0  0  0  0  0  0
   -9.8100   -3.5740  -21.2310 H   0  0  0  0  0  0  0  0  0  0  0  0
  -11.0450   -2.3980  -21.7010 H   0  0  0  0  0  0  0  0  0  0  0  0
  1  2  1  0  0  0  0
  1 61  1  0  0  0  0
  1 62  1  0  0  0  0
  1 63  1  0  0  0  0
  2  3  1  0  0  0  0
  2 23  1  0  0  0  0
  2 60  1  6  0  0  0
  3  4  1  0  0  0  0
  3 58  1  0  0  0  0
  3 59  1  0  0  0  0
  4  5  1  0  0  0  0
  4 21  1  0  0  0  0
  5  6  2  0  0  0  0
  5 14  1  0  0  0  0
  6  7  1  0  0  0  0
  6 20  1  0  0  0  0
  7  8  2  0  0  0  0
  8  9  1  0  0  0  0
  8 19  1  0  0  0  0
  9 10  2  0  0  0  0
  9 14  1  0  0  0  0
 10 11  1  0  0  0  0
 10 18  1  0  0  0  0
 11 12  2  0  0  0  0
 11 17  1  0  0  0  0
 12 13  1  0  0  0  0
 12 16  1  0  0  0  0
 13 14  2  0  0  0  0
 13 15  1  0  0  0  0
 21 22  2  0  0  0  0
 23 21  1  1  0  0  0
 23 24  1  0  0  0  0
 23 52  1  0  0  0  0
 24 25  1  0  0  0  0
 24 56  1  0  0  0  0
 24 57  1  0  0  0  0
 25 26  1  0  0  0  0
 25 44  1  0  0  0  0
 26 27  1  0  0  0  0
 26 42  1  0  0  0  0
 26 43  1  0  0  0  0
 27 28  2  0  0  0  0
 27 29  1  0  0  0  0
 29 30  1  0  0  0  0
 29 41  1  0  0  0  0
 30 31  1  0  0  0  0
 30 39  1  0  0  0  0
 30 40  1  0  0  0  0
 31 32  1  0  0  0  0
 31 33  1  0  0  0  0
 31 38  1  0  0  0  0
 32 33  1  0  0  0  0
 32 36  1  0  0  0  0
 32 37  1  0  0  0  0
 33 34  1  0  0  0  0
 33 35  1  0  0  0  0
 44 45  2  0  0  0  0
 44 46  1  0  0  0  0
 46 47  2  0  0  0  0
 46 52  1  0  0  0  0
 47 48  1  0  0  0  0
 47 55  1  0  0  0  0
 48 49  2  0  0  0  0
 48 54  1  0  0  0  0
 49 50  1  0  0  0  0
 49 51  1  0  0  0  0
 51 52  2  0  0  0  0
 51 53  1  0  0  0  0
M  END
>  <MODEL>
       1

$$$$
