output/tmp_first_model_12_16.pdb
 OpenBabel07242619253D

 61 66  0  0  1  0  0  0  0  0999 V2000
   -7.3880    3.4320  -21.8740 C   0  0  0  0  0  0  0  0  0  0  0  0
   -8.2360    2.9580  -22.9500 N   0  0  0  0  0  0  0  0  0  0  0  0
   -7.6730    2.2210  -23.9420 C   0  0  0  0  0  0  0  0  0  0  0  0
   -6.4640    2.0730  -24.0450 O   0  0  0  0  0  0  0  0  0  0  0  0
   -8.6300    1.6020  -24.9530 C   0  0  0  0  0  0  0  0  0  0  0  0
   -9.3430    0.4670  -24.4130 N   0  0  0  0  0  0  0  0  0  0  0  0
   -8.6210   -0.7770  -24.2270 C   0  0  0  0  0  0  0  0  0  0  0  0
   -9.0230   -1.4800  -22.9160 C   0  0  2  0  0  0  0  0  0  0  0  0
   -8.4800   -0.7040  -21.6990 C   0  0  0  0  0  0  0  0  0  0  0  0
   -8.9080    0.3300  -21.2250 O   0  0  0  0  0  0  0  0  0  0  0  0
   -7.3890   -1.3730  -21.2040 N   0  0  0  0  0  0  0  0  0  0  0  0
   -6.6080   -0.7920  -20.1740 C   0  0  0  0  0  0  0  0  0  0  0  0
   -6.9180   -1.0490  -18.8610 C   0  0  0  0  0  0  0  0  0  0  0  0
   -6.2180   -0.5690  -17.8070 N   0  0  0  0  0  0  0  0  0  0  0  0
   -5.1930    0.2110  -18.0650 C   0  0  0  0  0  0  0  0  0  0  0  0
   -4.7800    0.5750  -19.3800 C   0  0  0  0  0  0  0  0  0  0  0  0
   -3.6440    1.3970  -19.6140 C   0  0  0  0  0  0  0  0  0  0  0  0
   -3.2760    1.7290  -20.8930 C   0  0  0  0  0  0  0  0  0  0  0  0
   -4.0500    1.2940  -21.9920 C   0  0  0  0  0  0  0  0  0  0  0  0
   -5.1320    0.4640  -21.7940 C   0  0  0  0  0  0  0  0  0  0  0  0
   -5.5150    0.0750  -20.4780 C   0  0  0  0  0  0  0  0  0  0  0  0
   -5.6910    0.1000  -22.6500 H   0  0  0  0  0  0  0  0  0  0  0  0
   -3.7730    1.5800  -23.0060 H   0  0  0  0  0  0  0  0  0  0  0  0
   -2.3930    2.3410  -21.0680 H   0  0  0  0  0  0  0  0  0  0  0  0
   -3.0680    1.7340  -18.7570 H   0  0  0  0  0  0  0  0  0  0  0  0
   -4.6200    0.5880  -17.2180 H   0  0  0  0  0  0  0  0  0  0  0  0
   -7.7780   -1.6740  -18.6230 H   0  0  0  0  0  0  0  0  0  0  0  0
   -7.0680   -2.5950  -21.9070 C   0  0  0  0  0  0  0  0  0  0  0  0
   -8.3130   -2.8590  -22.7640 C   0  0  2  0  0  0  0  0  0  0  0  0
   -7.9710   -3.6240  -24.0530 C   0  0  0  0  0  0  0  0  0  0  0  0
   -7.4500   -4.9490  -23.7590 N   0  0  0  0  0  0  0  0  0  0  0  0
   -8.2180   -5.9880  -23.5020 N   0  0  0  0  0  0  0  0  0  0  0  0
   -7.3120   -6.9280  -23.2770 C   0  0  0  0  0  0  0  0  0  0  0  0
   -6.0490   -6.4670  -23.3740 N   0  0  0  0  0  0  0  0  0  0  0  0
   -6.1640   -5.2020  -23.6760 N   0  0  0  0  0  0  0  0  0  0  0  0
   -7.5650   -7.9460  -23.0300 H   0  0  0  0  0  0  0  0  0  0  0  0
   -8.8430   -3.7560  -24.6990 H   0  0  0  0  0  0  0  0  0  0  0  0
   -7.1940   -3.1030  -24.6130 H   0  0  0  0  0  0  0  0  0  0  0  0
   -8.9870   -3.5030  -22.2020 H   0  0  0  0  0  0  0  0  0  0  0  0
   -6.8630   -3.4150  -21.2140 H   0  0  0  0  0  0  0  0  0  0  0  0
   -6.1840   -2.4690  -22.5460 H   0  0  0  0  0  0  0  0  0  0  0  0
  -10.5360   -1.5150  -22.8510 C   0  0  0  0  0  0  0  0  0  0  0  0
  -11.1750   -2.3960  -21.9760 C   0  0  0  0  0  0  0  0  0  0  0  0
  -12.5550   -2.4020  -21.8830 C   0  0  0  0  0  0  0  0  0  0  0  0
  -13.2960   -3.4830  -20.7320 Cl  0  0  0  0  0  0  0  0  0  0  0  0
  -13.3450   -1.5360  -22.6430 C   0  0  0  0  0  0  0  0  0  0  0  0
  -12.7210   -0.6220  -23.4710 C   0  0  0  0  0  0  0  0  0  0  0  0
  -11.3300   -0.5940  -23.5490 C   0  0  0  0  0  0  0  0  0  0  0  0
  -10.7100    0.5120  -24.3410 C   0  0  0  0  0  0  0  0  0  0  0  0
  -11.3810    1.4030  -24.8470 O   0  0  0  0  0  0  0  0  0  0  0  0
  -13.2760    0.1040  -24.0600 H   0  0  0  0  0  0  0  0  0  0  0  0
  -14.4250   -1.5920  -22.5590 H   0  0  0  0  0  0  0  0  0  0  0  0
  -10.6040   -3.0700  -21.3480 H   0  0  0  0  0  0  0  0  0  0  0  0
   -7.5520   -0.5480  -24.2270 H   0  0  0  0  0  0  0  0  0  0  0  0
   -8.8410   -1.4540  -25.0620 H   0  0  0  0  0  0  0  0  0  0  0  0
   -8.0230    1.3060  -25.8140 H   0  0  0  0  0  0  0  0  0  0  0  0
   -9.4010    2.3180  -25.2420 H   0  0  0  0  0  0  0  0  0  0  0  0
   -9.2050    2.7950  -22.7300 H   0  0  0  0  0  0  0  0  0  0  0  0
   -6.6360    4.1120  -22.2680 H   0  0  0  0  0  0  0  0  0  0  0  0
   -7.9820    3.9570  -21.1270 H   0  0  0  0  0  0  0  0  0  0  0  0
   -6.8610    2.5990  -21.4040 H   0  0  0  0  0  0  0  0  0  0  0  0
  1  2  1  0  0  0  0
  1 59  1  0  0  0  0
  1 60  1  0  0  0  0
  1 61  1  0  0  0  0
  2  3  1  0  0  0  0
  2 58  1  0  0  0  0
  3  4  2  0  0  0  0
  3  5  1  0  0  0  0
  5  6  1  0  0  0  0
  5 56  1  0  0  0  0
  5 57  1  0  0  0  0
  6  7  1  0  0  0  0
  6 49  1  0  0  0  0
  7  8  1  0  0  0  0
  7 54  1  0  0  0  0
  7 55  1  0  0  0  0
  8  9  1  1  0  0  0
  8 29  1  0  0  0  0
  8 42  1  0  0  0  0
  9 10  2  0  0  0  0
  9 11  1  0  0  0  0
 11 12  1  0  0  0  0
 11 28  1  0  0  0  0
 12 13  2  0  0  0  0
 12 21  1  0  0  0  0
 13 14  1  0  0  0  0
 13 27  1  0  0  0  0
 14 15  2  0  0  0  0
 15 16  1  0  0  0  0
 15 26  1  0  0  0  0
 16 17  2  0  0  0  0
 16 21  1  0  0  0  0
 17 18  1  0  0  0  0
 17 25  1  0  0  0  0
 18 19  2  0  0  0  0
 18 24  1  0  0  0  0
 19 20  1  0  0  0  0
 19 23  1  0  0  0  0
 20 21  2  0  0  0  0
 20 22  1  0  0  0  0
 28 29  1  0  0  0  0
 28 40  1  0  0  0  0
 28 41  1  0  0  0  0
 29 30  1  0  0  0  0
 29 39  1  1  0  0  0
 30 31  1  0  0  0  0
 30 37  1  0  0  0  0
 30 38  1  0  0  0  0
 31 32  1  0  0  0  0
 31 35  1  0  0  0  0
 32 33  2  0  0  0  0
 33 34  1  0  0  0  0
 33 36  1  0  0  0  0
 34 35  2  0  0  0  0
 42 43  2  0  0  0  0
 42 48  1  0  0  0  0
 43 44  1  0  0  0  0
 43 53  1  0  0  0  0
 44 45  1  0  0  0  0
 44 46  2  0  0  0  0
 46 47  1  0  0  0  0
 46 52  1  0  0  0  0
 47 48  2  0  0  0  0
 47 51  1  0  0  0  0
 48 49  1  0  0  0  0
 49 50  2  0  0  0  0
M  END
>  <MODEL>
       1

$$$$
