output/tmp_first_model_8_46.pdb
 OpenBabel07242617113D

 50 54  0  0  1  0  0  0  0  0999 V2000
  -10.3880   -1.0210  -23.3560 C   0  0  0  0  0  0  0  0  0  0  0  0
   -8.9700   -1.4180  -22.9660 C   0  0  1  0  0  0  0  0  0  0  0  0
   -8.3670   -0.4980  -21.8950 C   0  0  0  0  0  0  0  0  0  0  0  0
   -7.3920   -1.3500  -21.2370 N   0  0  0  0  0  0  0  0  0  0  0  0
   -6.5840   -0.8670  -20.1840 C   0  0  0  0  0  0  0  0  0  0  0  0
   -6.8880   -1.1490  -18.8770 C   0  0  0  0  0  0  0  0  0  0  0  0
   -6.2250   -0.6210  -17.8190 N   0  0  0  0  0  0  0  0  0  0  0  0
   -5.2200    0.1840  -18.0660 C   0  0  0  0  0  0  0  0  0  0  0  0
   -4.7830    0.5360  -19.3750 C   0  0  0  0  0  0  0  0  0  0  0  0
   -3.6690    1.3860  -19.6070 C   0  0  0  0  0  0  0  0  0  0  0  0
   -3.3080    1.7110  -20.8850 C   0  0  0  0  0  0  0  0  0  0  0  0
   -4.0350    1.2040  -21.9870 C   0  0  0  0  0  0  0  0  0  0  0  0
   -5.0950    0.3560  -21.7890 C   0  0  0  0  0  0  0  0  0  0  0  0
   -5.4940    0.0090  -20.4740 C   0  0  0  0  0  0  0  0  0  0  0  0
   -5.6250   -0.0780  -22.6320 H   0  0  0  0  0  0  0  0  0  0  0  0
   -3.7310    1.4570  -22.9970 H   0  0  0  0  0  0  0  0  0  0  0  0
   -2.4550    2.3580  -21.0690 H   0  0  0  0  0  0  0  0  0  0  0  0
   -3.1200    1.7730  -18.7530 H   0  0  0  0  0  0  0  0  0  0  0  0
   -4.6920    0.5980  -17.2060 H   0  0  0  0  0  0  0  0  0  0  0  0
   -7.7140   -1.8140  -18.6320 H   0  0  0  0  0  0  0  0  0  0  0  0
   -7.6360   -2.6970  -21.4190 C   0  0  0  0  0  0  0  0  0  0  0  0
   -6.9930   -3.5850  -20.8980 O   0  0  0  0  0  0  0  0  0  0  0  0
   -8.8240   -2.8700  -22.3810 C   0  0  1  0  0  0  0  0  0  0  0  0
  -10.0690   -3.2870  -21.5590 C   0  0  0  0  0  0  0  0  0  0  0  0
  -11.1910   -3.6920  -22.4000 N   0  0  0  0  0  0  0  0  0  0  0  0
  -12.5720   -3.5280  -21.9720 C   0  0  0  0  0  0  0  0  0  0  0  0
  -13.3060   -2.5060  -22.7410 C   0  0  0  0  0  0  0  0  0  0  0  0
  -13.9410   -1.7070  -23.2930 N   0  0  0  0  0  0  0  0  0  0  0  0
  -12.6270   -3.2730  -20.9120 H   0  0  0  0  0  0  0  0  0  0  0  0
  -13.0880   -4.4870  -22.1190 H   0  0  0  0  0  0  0  0  0  0  0  0
  -10.9890   -4.5630  -23.4380 C   0  0  0  0  0  0  0  0  0  0  0  0
  -11.9170   -5.1390  -23.9820 O   0  0  0  0  0  0  0  0  0  0  0  0
   -9.5760   -4.7530  -23.8820 C   0  0  0  0  0  0  0  0  0  0  0  0
   -9.3340   -5.7460  -24.8270 C   0  0  0  0  0  0  0  0  0  0  0  0
   -8.0690   -5.9350  -25.3490 C   0  0  0  0  0  0  0  0  0  0  0  0
   -7.0520   -5.0870  -24.9210 C   0  0  0  0  0  0  0  0  0  0  0  0
   -5.8180   -5.2550  -25.4250 F   0  0  0  0  0  0  0  0  0  0  0  0
   -7.2580   -4.1090  -23.9660 C   0  0  0  0  0  0  0  0  0  0  0  0
   -8.5400   -3.9360  -23.4200 C   0  0  0  0  0  0  0  0  0  0  0  0
   -6.4020   -3.5410  -23.6080 H   0  0  0  0  0  0  0  0  0  0  0  0
   -7.8600   -6.7370  -26.0480 H   0  0  0  0  0  0  0  0  0  0  0  0
  -10.1730   -6.3600  -25.1360 H   0  0  0  0  0  0  0  0  0  0  0  0
   -9.7970   -4.1070  -20.8870 H   0  0  0  0  0  0  0  0  0  0  0  0
  -10.3480   -2.4290  -20.9440 H   0  0  0  0  0  0  0  0  0  0  0  0
   -9.1370   -0.1470  -21.1870 H   0  0  0  0  0  0  0  0  0  0  0  0
   -7.9050    0.4020  -22.3140 H   0  0  0  0  0  0  0  0  0  0  0  0
   -8.3200   -1.3900  -23.8520 H   0  0  0  0  0  0  0  0  0  0  0  0
  -10.4380   -0.0360  -23.8280 H   0  0  0  0  0  0  0  0  0  0  0  0
  -11.0290   -0.9970  -22.4680 H   0  0  0  0  0  0  0  0  0  0  0  0
  -10.8070   -1.7610  -24.0410 H   0  0  0  0  0  0  0  0  0  0  0  0
  1  2  1  0  0  0  0
  1 48  1  0  0  0  0
  1 49  1  0  0  0  0
  1 50  1  0  0  0  0
  2  3  1  0  0  0  0
  2 23  1  0  0  0  0
  2 47  1  6  0  0  0
  3  4  1  0  0  0  0
  3 45  1  0  0  0  0
  3 46  1  0  0  0  0
  4  5  1  0  0  0  0
  4 21  1  0  0  0  0
  5  6  2  0  0  0  0
  5 14  1  0  0  0  0
  6  7  1  0  0  0  0
  6 20  1  0  0  0  0
  7  8  2  0  0  0  0
  8  9  1  0  0  0  0
  8 19  1  0  0  0  0
  9 10  2  0  0  0  0
  9 14  1  0  0  0  0
 10 11  1  0  0  0  0
 10 18  1  0  0  0  0
 11 12  2  0  0  0  0
 11 17  1  0  0  0  0
 12 13  1  0  0  0  0
 12 16  1  0  0  0  0
 13 14  2  0  0  0  0
 13 15  1  0  0  0  0
 21 22  2  0  0  0  0
 23 21  1  1  0  0  0
 23 24  1  0  0  0  0
 23 39  1  0  0  0  0
 24 25  1  0  0  0  0
 24 43  1  0  0  0  0
 24 44  1  0  0  0  0
 25 26  1  0  0  0  0
 25 31  1  0  0  0  0
 26 27  1  0  0  0  0
 26 29  1  0  0  0  0
 26 30  1  0  0  0  0
 27 28  3  0  0  0  0
 31 32  2  0  0  0  0
 31 33  1  0  0  0  0
 33 34  2  0  0  0  0
 33 39  1  0  0  0  0
 34 35  1  0  0  0  0
 34 42  1  0  0  0  0
 35 36  2  0  0  0  0
 35 41  1  0  0  0  0
 36 37  1  0  0  0  0
 36 38  1  0  0  0  0
 38 39  2  0  0  0  0
 38 40  1  0  0  0  0
M  END
>  <MODEL>
       1

$$$$
