output/tmp_first_model_3_5.pdb
 OpenBabel07242614263D

 58 61  0  0  1  0  0  0  0  0999 V2000
   -7.6340   -3.8230  -20.3090 C   0  0  0  0  0  0  0  0  0  0  0  0
   -7.2950   -3.5180  -21.5590 C   0  0  0  0  0  0  0  0  0  0  0  0
   -6.6500   -2.2310  -22.0170 C   0  0  0  0  0  0  0  0  0  0  0  0
   -7.2870   -1.0290  -21.4560 N   0  0  0  0  0  0  0  0  0  0  0  0
   -8.6350   -0.7330  -21.6700 C   0  0  0  0  0  0  0  0  0  0  0  0
   -9.2690   -0.0600  -20.8790 O   0  0  0  0  0  0  0  0  0  0  0  0
   -9.2710   -1.1840  -22.9960 C   0  0  2  0  0  0  0  0  0  0  0  0
   -9.6610    0.1160  -23.7540 C   0  0  0  0  0  0  0  0  0  0  0  0
  -10.6720   -0.0770  -24.7800 N   0  0  0  0  0  0  0  0  0  0  0  0
  -10.3410    0.1820  -26.1740 C   0  0  0  0  0  0  0  0  0  0  0  0
   -9.3880   -0.8940  -26.7150 C   0  0  0  0  0  0  0  0  0  0  0  0
   -8.1800   -0.7180  -26.7700 O   0  0  0  0  0  0  0  0  0  0  0  0
   -9.9690   -2.0710  -27.0640 N   0  0  0  0  0  0  0  0  0  0  0  0
   -9.1390   -3.2070  -27.4230 C   0  0  0  0  0  0  0  0  0  0  0  0
   -8.4520   -3.4560  -26.6090 H   0  0  0  0  0  0  0  0  0  0  0  0
   -9.7780   -4.0670  -27.6280 H   0  0  0  0  0  0  0  0  0  0  0  0
   -8.5430   -2.9790  -28.3120 H   0  0  0  0  0  0  0  0  0  0  0  0
  -10.9660   -2.1890  -26.9690 H   0  0  0  0  0  0  0  0  0  0  0  0
  -11.2810    0.2140  -26.7310 H   0  0  0  0  0  0  0  0  0  0  0  0
   -9.8430    1.1510  -26.2690 H   0  0  0  0  0  0  0  0  0  0  0  0
  -11.8410   -0.7800  -24.5070 C   0  0  0  0  0  0  0  0  0  0  0  0
  -12.8260   -0.7180  -25.2280 O   0  0  0  0  0  0  0  0  0  0  0  0
  -11.7510   -1.6910  -23.3870 C   0  0  0  0  0  0  0  0  0  0  0  0
  -12.8540   -2.5760  -23.0670 C   0  0  0  0  0  0  0  0  0  0  0  0
  -12.5460   -3.7980  -22.4900 C   0  0  0  0  0  0  0  0  0  0  0  0
  -12.6190   -3.7870  -22.3230 C   0  0  0  0  0  0  0  0  0  0  0  0
  -13.1410   -3.8460  -20.2620 Cl  0  0  0  0  0  0  0  0  0  0  0  0
  -10.4960   -3.2510  -22.1570 C   0  0  0  0  0  0  0  0  0  0  0  0
  -10.5180   -2.0700  -22.7820 C   0  0  0  0  0  0  0  0  0  0  0  0
   -9.6200   -3.6990  -21.7170 H   0  0  0  0  0  0  0  0  0  0  0  0
  -11.7620   -4.6700  -22.1670 H   0  0  0  0  0  0  0  0  0  0  0  0
  -13.6610   -2.8560  -23.6090 H   0  0  0  0  0  0  0  0  0  0  0  0
  -10.0050    0.8330  -22.9980 H   0  0  0  0  0  0  0  0  0  0  0  0
   -8.7770    0.5350  -24.2440 H   0  0  0  0  0  0  0  0  0  0  0  0
   -8.5320   -1.7430  -23.5830 H   0  0  0  0  0  0  0  0  0  0  0  0
   -6.6430   -0.4360  -20.3370 C   0  0  0  0  0  0  0  0  0  0  0  0
   -7.1250   -0.5950  -19.0630 C   0  0  0  0  0  0  0  0  0  0  0  0
   -6.4560   -0.2220  -17.9420 N   0  0  0  0  0  0  0  0  0  0  0  0
   -5.2900    0.3630  -18.1000 C   0  0  0  0  0  0  0  0  0  0  0  0
   -4.7030    0.6460  -19.3670 C   0  0  0  0  0  0  0  0  0  0  0  0
   -3.4630    1.3270  -19.4960 C   0  0  0  0  0  0  0  0  0  0  0  0
   -2.9560    1.6160  -20.7330 C   0  0  0  0  0  0  0  0  0  0  0  0
   -3.6590    1.2370  -21.9000 C   0  0  0  0  0  0  0  0  0  0  0  0
   -4.8550    0.5680  -21.8010 C   0  0  0  0  0  0  0  0  0  0  0  0
   -5.4000    0.2500  -20.5280 C   0  0  0  0  0  0  0  0  0  0  0  0
   -5.4090    0.2930  -22.6940 H   0  0  0  0  0  0  0  0  0  0  0  0
   -3.2550    1.4870  -22.8760 H   0  0  0  0  0  0  0  0  0  0  0  0
   -2.0180    2.1570  -20.8290 H   0  0  0  0  0  0  0  0  0  0  0  0
   -2.9470    1.6360  -18.5910 H   0  0  0  0  0  0  0  0  0  0  0  0
   -4.7500    0.6510  -17.1980 H   0  0  0  0  0  0  0  0  0  0  0  0
   -8.0910   -1.0700  -18.9010 H   0  0  0  0  0  0  0  0  0  0  0  0
   -6.7280   -2.2400  -23.1060 H   0  0  0  0  0  0  0  0  0  0  0  0
   -5.5890   -2.1970  -21.7420 H   0  0  0  0  0  0  0  0  0  0  0  0
   -7.6620   -4.4410  -22.7360 C   0  0  0  0  0  0  0  0  0  0  0  0
   -7.9570   -5.6190  -22.4580 O   0  0  0  0  0  0  0  0  0  0  0  0
   -7.6090   -3.8950  -23.8630 O   0  5  0  0  0  0  0  0  0  0  0  0
   -8.2810   -4.6610  -20.0670 H   0  0  0  0  0  0  0  0  0  0  0  0
   -7.2590   -3.2390  -19.4710 H   0  0  0  0  0  0  0  0  0  0  0  0
  1  2  2  0  0  0  0
  1 57  1  0  0  0  0
  1 58  1  0  0  0  0
  2  3  1  0  0  0  0
  2 54  1  0  0  0  0
  3  4  1  0  0  0  0
  3 52  1  0  0  0  0
  3 53  1  0  0  0  0
  4  5  1  0  0  0  0
  4 36  1  0  0  0  0
  5  6  2  0  0  0  0
  5  7  1  0  0  0  0
  7  8  1  0  0  0  0
  7 29  1  0  0  0  0
  7 35  1  6  0  0  0
  8  9  1  0  0  0  0
  8 33  1  0  0  0  0
  8 34  1  0  0  0  0
  9 10  1  0  0  0  0
  9 21  1  0  0  0  0
 10 11  1  0  0  0  0
 10 19  1  0  0  0  0
 10 20  1  0  0  0  0
 11 12  2  0  0  0  0
 11 13  1  0  0  0  0
 13 14  1  0  0  0  0
 13 18  1  0  0  0  0
 14 15  1  0  0  0  0
 14 16  1  0  0  0  0
 14 17  1  0  0  0  0
 21 22  2  0  0  0  0
 21 23  1  0  0  0  0
 23 24  2  0  0  0  0
 23 29  1  0  0  0  0
 24 25  1  0  0  0  0
 24 32  1  0  0  0  0
 25 26  2  0  0  0  0
 25 31  1  0  0  0  0
 26 27  1  0  0  0  0
 26 28  1  0  0  0  0
 28 29  2  0  0  0  0
 28 30  1  0  0  0  0
 36 37  2  0  0  0  0
 36 45  1  0  0  0  0
 37 38  1  0  0  0  0
 37 51  1  0  0  0  0
 38 39  2  0  0  0  0
 39 40  1  0  0  0  0
 39 50  1  0  0  0  0
 40 41  2  0  0  0  0
 40 45  1  0  0  0  0
 41 42  1  0  0  0  0
 41 49  1  0  0  0  0
 42 43  2  0  0  0  0
 42 48  1  0  0  0  0
 43 44  1  0  0  0  0
 43 47  1  0  0  0  0
 44 45  2  0  0  0  0
 44 46  1  0  0  0  0
 54 55  2  0  0  0  0
 54 56  1  0  0  0  0
M  CHG  1  56  -1
M  END
>  <MODEL>
       1

$$$$
