output/tmp_first_model_16_11.pdb
 OpenBabel07242621343D

 48 52  0  0  0  0  0  0  0  0999 V2000
  -10.1230   -0.8480  -23.6430 C   0  0  0  0  0  0  0  0  0  0  0  0
   -9.1050   -1.3920  -22.7670 N   0  0  0  0  0  0  0  0  0  0  0  0
   -8.3430   -0.5640  -21.9840 C   0  0  0  0  0  0  0  0  0  0  0  0
   -8.3750    0.6470  -21.9520 O   0  0  0  0  0  0  0  0  0  0  0  0
   -7.5070   -1.3980  -21.2220 N   0  0  0  0  0  0  0  0  0  0  0  0
   -6.6120   -0.9440  -20.2170 C   0  0  0  0  0  0  0  0  0  0  0  0
   -6.8660   -1.3120  -18.9240 C   0  0  0  0  0  0  0  0  0  0  0  0
   -6.1170   -0.9420  -17.8620 N   0  0  0  0  0  0  0  0  0  0  0  0
   -5.0770   -0.1810  -18.0930 C   0  0  0  0  0  0  0  0  0  0  0  0
   -4.6910    0.2650  -19.3880 C   0  0  0  0  0  0  0  0  0  0  0  0
   -3.5630    1.1060  -19.5750 C   0  0  0  0  0  0  0  0  0  0  0  0
   -3.2070    1.5020  -20.8330 C   0  0  0  0  0  0  0  0  0  0  0  0
   -3.9500    1.0720  -21.9540 C   0  0  0  0  0  0  0  0  0  0  0  0
   -5.0480    0.2610  -21.8030 C   0  0  0  0  0  0  0  0  0  0  0  0
   -5.4630   -0.1410  -20.5020 C   0  0  0  0  0  0  0  0  0  0  0  0
   -5.6090   -0.0640  -22.6740 H   0  0  0  0  0  0  0  0  0  0  0  0
   -3.6490    1.3960  -22.9430 H   0  0  0  0  0  0  0  0  0  0  0  0
   -2.3450    2.1470  -20.9780 H   0  0  0  0  0  0  0  0  0  0  0  0
   -3.0040    1.4250  -18.7000 H   0  0  0  0  0  0  0  0  0  0  0  0
   -4.4800    0.1150  -17.2290 H   0  0  0  0  0  0  0  0  0  0  0  0
   -7.7300   -1.9350  -18.7050 H   0  0  0  0  0  0  0  0  0  0  0  0
   -7.8150   -2.7400  -21.4180 C   0  0  0  0  0  0  0  0  0  0  0  0
   -7.2480   -3.6790  -20.9110 O   0  0  0  0  0  0  0  0  0  0  0  0
   -8.9180   -2.7890  -22.4550 C   0  0  0  0  0  0  0  0  0  0  0  0
   -8.5970   -3.8080  -23.5740 C   0  0  0  0  0  0  0  0  0  0  0  0
   -9.8520   -4.5350  -23.3070 N   0  0  0  0  0  0  0  0  0  0  0  0
  -10.9480   -4.5780  -24.5960 S   0  0  0  0  0  0  0  0  0  0  0  0
  -12.1320   -5.2570  -24.1260 O   0  0  0  0  0  0  0  0  0  0  0  0
  -11.0410   -3.2480  -25.1780 O   0  0  0  0  0  0  0  0  0  0  0  0
  -10.0790   -5.5880  -25.7640 C   0  0  0  0  0  0  0  0  0  0  0  0
  -10.1660   -6.9650  -25.6400 C   0  0  0  0  0  0  0  0  0  0  0  0
   -9.4510   -7.7570  -26.5330 C   0  0  0  0  0  0  0  0  0  0  0  0
   -8.6910   -7.1690  -27.5440 C   0  0  0  0  0  0  0  0  0  0  0  0
   -8.6360   -5.7820  -27.6640 C   0  0  0  0  0  0  0  0  0  0  0  0
   -9.3330   -4.9790  -26.7690 C   0  0  0  0  0  0  0  0  0  0  0  0
   -9.3170   -3.8960  -26.8520 H   0  0  0  0  0  0  0  0  0  0  0  0
   -8.0550   -5.2910  -28.4380 H   0  0  0  0  0  0  0  0  0  0  0  0
   -8.1250   -7.7910  -28.2290 H   0  0  0  0  0  0  0  0  0  0  0  0
   -9.4950   -8.8330  -26.4260 H   0  0  0  0  0  0  0  0  0  0  0  0
  -10.8190   -7.4070  -24.8930 H   0  0  0  0  0  0  0  0  0  0  0  0
  -10.1620   -3.6670  -22.1280 C   0  0  0  0  0  0  0  0  0  0  0  0
  -10.0160   -4.2280  -21.2020 H   0  0  0  0  0  0  0  0  0  0  0  0
  -11.1470   -3.1920  -22.1460 H   0  0  0  0  0  0  0  0  0  0  0  0
   -8.4820   -3.4040  -24.5800 H   0  0  0  0  0  0  0  0  0  0  0  0
   -7.7370   -4.4400  -23.3330 H   0  0  0  0  0  0  0  0  0  0  0  0
   -9.9640    0.2320  -23.6680 H   0  0  0  0  0  0  0  0  0  0  0  0
  -11.1270   -1.0440  -23.2510 H   0  0  0  0  0  0  0  0  0  0  0  0
  -10.0310   -1.2820  -24.6400 H   0  0  0  0  0  0  0  0  0  0  0  0
  1  2  1  0  0  0  0
  1 46  1  0  0  0  0
  1 47  1  0  0  0  0
  1 48  1  0  0  0  0
  2  3  1  0  0  0  0
  2 24  1  0  0  0  0
  3  4  2  0  0  0  0
  3  5  1  0  0  0  0
  5  6  1  0  0  0  0
  5 22  1  0  0  0  0
  6  7  2  0  0  0  0
  6 15  1  0  0  0  0
  7  8  1  0  0  0  0
  7 21  1  0  0  0  0
  8  9  2  0  0  0  0
  9 10  1  0  0  0  0
  9 20  1  0  0  0  0
 10 11  2  0  0  0  0
 10 15  1  0  0  0  0
 11 12  1  0  0  0  0
 11 19  1  0  0  0  0
 12 13  2  0  0  0  0
 12 18  1  0  0  0  0
 13 14  1  0  0  0  0
 13 17  1  0  0  0  0
 14 15  2  0  0  0  0
 14 16  1  0  0  0  0
 22 23  2  0  0  0  0
 22 24  1  0  0  0  0
 24 25  1  0  0  0  0
 24 41  1  0  0  0  0
 25 26  1  0  0  0  0
 25 44  1  0  0  0  0
 25 45  1  0  0  0  0
 26 27  1  0  0  0  0
 26 41  1  0  0  0  0
 27 28  2  0  0  0  0
 27 29  2  0  0  0  0
 27 30  1  0  0  0  0
 30 31  2  0  0  0  0
 30 35  1  0  0  0  0
 31 32  1  0  0  0  0
 31 40  1  0  0  0  0
 32 33  2  0  0  0  0
 32 39  1  0  0  0  0
 33 34  1  0  0  0  0
 33 38  1  0  0  0  0
 34 35  2  0  0  0  0
 34 37  1  0  0  0  0
 35 36  1  0  0  0  0
 41 42  1  0  0  0  0
 41 43  1  0  0  0  0
M  END
>  <MODEL>
       1

$$$$
