output/tmp_first_model_11_64.pdb
 OpenBabel07242618513D

 55 60  0  0  1  0  0  0  0  0999 V2000
   -7.6230   -3.5490  -23.6720 C   0  0  0  0  0  0  0  0  0  0  0  0
   -8.4980   -2.9070  -22.5940 C   0  0  1  0  0  0  0  0  0  0  0  0
   -7.6820   -2.7760  -21.2890 C   0  0  0  0  0  0  0  0  0  0  0  0
   -7.3780   -1.3680  -21.2100 N   0  0  0  0  0  0  0  0  0  0  0  0
   -6.5700   -0.8350  -20.1860 C   0  0  0  0  0  0  0  0  0  0  0  0
   -6.8800   -1.0820  -18.8720 C   0  0  0  0  0  0  0  0  0  0  0  0
   -6.2130   -0.5670  -17.8120 N   0  0  0  0  0  0  0  0  0  0  0  0
   -5.1830    0.2030  -18.0750 C   0  0  0  0  0  0  0  0  0  0  0  0
   -4.7220    0.4970  -19.3900 C   0  0  0  0  0  0  0  0  0  0  0  0
   -3.5970    1.3330  -19.6110 C   0  0  0  0  0  0  0  0  0  0  0  0
   -3.1640    1.5960  -20.8820 C   0  0  0  0  0  0  0  0  0  0  0  0
   -3.8280    1.0210  -21.9870 C   0  0  0  0  0  0  0  0  0  0  0  0
   -4.9230    0.2120  -21.8020 C   0  0  0  0  0  0  0  0  0  0  0  0
   -5.4150   -0.0490  -20.4930 C   0  0  0  0  0  0  0  0  0  0  0  0
   -5.4320   -0.2050  -22.6660 H   0  0  0  0  0  0  0  0  0  0  0  0
   -3.4900    1.2510  -22.9940 H   0  0  0  0  0  0  0  0  0  0  0  0
   -2.3170    2.2550  -21.0460 H   0  0  0  0  0  0  0  0  0  0  0  0
   -3.1080    1.7730  -18.7470 H   0  0  0  0  0  0  0  0  0  0  0  0
   -4.6520    0.6310  -17.2270 H   0  0  0  0  0  0  0  0  0  0  0  0
   -7.7410   -1.7040  -18.6250 H   0  0  0  0  0  0  0  0  0  0  0  0
   -8.1660   -0.5670  -22.0050 C   0  0  0  0  0  0  0  0  0  0  0  0
   -8.1550    0.6410  -21.9840 O   0  0  0  0  0  0  0  0  0  0  0  0
   -9.0150   -1.4570  -22.9500 C   0  0  1  0  0  0  0  0  0  0  0  0
   -8.6310   -1.0310  -24.4300 C   0  0  0  0  0  0  0  0  0  0  0  0
   -9.2840    0.1890  -24.8770 N   0  0  0  0  0  0  0  0  0  0  0  0
   -8.4930    1.1860  -25.6000 C   0  0  0  0  0  0  0  0  0  0  0  0
   -7.8220    2.2090  -24.7090 C   0  0  0  0  0  0  0  0  0  0  0  0
   -6.5320    2.1100  -24.2450 N   0  0  0  0  0  0  0  0  0  0  0  0
   -6.3980    3.2100  -23.5270 C   0  0  0  0  0  0  0  0  0  0  0  0
   -7.5270    3.9390  -23.5770 N   0  0  0  0  0  0  0  0  0  0  0  0
   -8.4470    3.3060  -24.3370 N   0  0  0  0  0  0  0  0  0  0  0  0
   -7.7640    4.7820  -23.0750 H   0  0  0  0  0  0  0  0  0  0  0  0
   -5.5200    3.5380  -22.9820 H   0  0  0  0  0  0  0  0  0  0  0  0
   -7.7030    0.6920  -26.1910 H   0  0  0  0  0  0  0  0  0  0  0  0
   -9.1460    1.7260  -26.2950 H   0  0  0  0  0  0  0  0  0  0  0  0
  -10.6250    0.4280  -24.6370 C   0  0  0  0  0  0  0  0  0  0  0  0
  -11.1810    1.3940  -25.1320 O   0  0  0  0  0  0  0  0  0  0  0  0
  -11.3080   -0.5530  -23.6590 C   0  0  0  0  0  0  0  0  0  0  0  0
  -12.5640   -0.7460  -23.4270 C   0  0  0  0  0  0  0  0  0  0  0  0
  -12.6080   -1.5090  -22.0120 C   0  0  0  0  0  0  0  0  0  0  0  0
  -12.6080   -1.5100  -22.0110 C   0  0  0  0  0  0  0  0  0  0  0  0
  -12.6280   -3.6460  -21.2660 F   0  0  0  0  0  0  0  0  0  0  0  0
  -11.2600   -2.0280  -21.7710 C   0  0  0  0  0  0  0  0  0  0  0  0
  -10.4970   -1.3100  -22.7300 C   0  0  0  0  0  0  0  0  0  0  0  0
  -11.7580   -2.8590  -22.0480 H   0  0  0  0  0  0  0  0  0  0  0  0
  -13.4020   -0.7460  -21.6450 H   0  0  0  0  0  0  0  0  0  0  0  0
  -13.4830   -0.2470  -23.6700 H   0  0  0  0  0  0  0  0  0  0  0  0
   -8.8830   -1.8390  -25.1220 H   0  0  0  0  0  0  0  0  0  0  0  0
   -7.5620   -0.8700  -24.4610 H   0  0  0  0  0  0  0  0  0  0  0  0
   -8.2190   -3.1210  -20.3970 H   0  0  0  0  0  0  0  0  0  0  0  0
   -6.7510   -3.3480  -21.3290 H   0  0  0  0  0  0  0  0  0  0  0  0
   -9.3430   -3.5780  -22.4120 H   0  0  0  0  0  0  0  0  0  0  0  0
   -7.2980   -4.5390  -23.3500 H   0  0  0  0  0  0  0  0  0  0  0  0
   -6.7240   -2.9530  -23.8700 H   0  0  0  0  0  0  0  0  0  0  0  0
   -8.1650   -3.6730  -24.6120 H   0  0  0  0  0  0  0  0  0  0  0  0
  1  2  1  0  0  0  0
  1 53  1  0  0  0  0
  1 54  1  0  0  0  0
  1 55  1  0  0  0  0
  2  3  1  0  0  0  0
  2 23  1  0  0  0  0
  2 52  1  1  0  0  0
  3  4  1  0  0  0  0
  3 50  1  0  0  0  0
  3 51  1  0  0  0  0
  4  5  1  0  0  0  0
  4 21  1  0  0  0  0
  5  6  2  0  0  0  0
  5 14  1  0  0  0  0
  6  7  1  0  0  0  0
  6 20  1  0  0  0  0
  7  8  2  0  0  0  0
  8  9  1  0  0  0  0
  8 19  1  0  0  0  0
  9 10  2  0  0  0  0
  9 14  1  0  0  0  0
 10 11  1  0  0  0  0
 10 18  1  0  0  0  0
 11 12  2  0  0  0  0
 11 17  1  0  0  0  0
 12 13  1  0  0  0  0
 12 16  1  0  0  0  0
 13 14  2  0  0  0  0
 13 15  1  0  0  0  0
 21 22  2  0  0  0  0
 23 21  1  1  0  0  0
 23 24  1  0  0  0  0
 23 44  1  0  0  0  0
 24 25  1  0  0  0  0
 24 48  1  0  0  0  0
 24 49  1  0  0  0  0
 25 26  1  0  0  0  0
 25 36  1  0  0  0  0
 26 27  1  0  0  0  0
 26 34  1  0  0  0  0
 26 35  1  0  0  0  0
 27 28  1  0  0  0  0
 27 31  2  0  0  0  0
 28 29  2  0  0  0  0
 29 30  1  0  0  0  0
 29 33  1  0  0  0  0
 30 31  1  0  0  0  0
 30 32  1  0  0  0  0
 36 37  2  0  0  0  0
 36 38  1  0  0  0  0
 38 39  2  0  0  0  0
 38 44  1  0  0  0  0
 39 40  1  0  0  0  0
 39 47  1  0  0  0  0
 40 41  2  0  0  0  0
 40 46  1  0  0  0  0
 41 42  1  0  0  0  0
 41 43  1  0  0  0  0
 43 44  2  0  0  0  0
 43 45  1  0  0  0  0
M  END
>  <MODEL>
       1

$$$$
