output/tmp_first_model_11_56.pdb
 OpenBabel07242618513D

 57 62  0  0  1  0  0  0  0  0999 V2000
  -10.2860   -0.9400  -23.5210 C   0  0  0  0  0  0  0  0  0  0  0  0
   -8.9200   -1.4090  -23.0510 C   0  0  1  0  0  0  0  0  0  0  0  0
   -8.3620   -0.5050  -21.9450 C   0  0  0  0  0  0  0  0  0  0  0  0
   -7.3970   -1.3590  -21.2760 N   0  0  0  0  0  0  0  0  0  0  0  0
   -6.5920   -0.8920  -20.2130 C   0  0  0  0  0  0  0  0  0  0  0  0
   -6.9060   -1.1770  -18.9080 C   0  0  0  0  0  0  0  0  0  0  0  0
   -6.2670   -0.6360  -17.8400 N   0  0  0  0  0  0  0  0  0  0  0  0
   -5.2630    0.1740  -18.0850 C   0  0  0  0  0  0  0  0  0  0  0  0
   -4.7940    0.4980  -19.3900 C   0  0  0  0  0  0  0  0  0  0  0  0
   -3.6770    1.3460  -19.6050 C   0  0  0  0  0  0  0  0  0  0  0  0
   -3.2510    1.6230  -20.8740 C   0  0  0  0  0  0  0  0  0  0  0  0
   -3.9230    1.0700  -21.9880 C   0  0  0  0  0  0  0  0  0  0  0  0
   -5.0120    0.2530  -21.8070 C   0  0  0  0  0  0  0  0  0  0  0  0
   -5.4740   -0.0470  -20.4980 C   0  0  0  0  0  0  0  0  0  0  0  0
   -5.5280   -0.1770  -22.6590 H   0  0  0  0  0  0  0  0  0  0  0  0
   -3.5770    1.2990  -22.9920 H   0  0  0  0  0  0  0  0  0  0  0  0
   -2.3980    2.2750  -21.0350 H   0  0  0  0  0  0  0  0  0  0  0  0
   -3.1810    1.7740  -18.7380 H   0  0  0  0  0  0  0  0  0  0  0  0
   -4.7550    0.6110  -17.2250 H   0  0  0  0  0  0  0  0  0  0  0  0
   -7.7210   -1.8590  -18.6730 H   0  0  0  0  0  0  0  0  0  0  0  0
   -7.7100   -2.6940  -21.4070 C   0  0  0  0  0  0  0  0  0  0  0  0
   -7.1880   -3.5840  -20.7660 O   0  0  0  0  0  0  0  0  0  0  0  0
   -8.8210   -2.8610  -22.4600 C   0  0  1  0  0  0  0  0  0  0  0  0
  -10.0630   -3.3690  -21.6920 C   0  0  0  0  0  0  0  0  0  0  0  0
  -11.1110   -3.9140  -22.5400 N   0  0  0  0  0  0  0  0  0  0  0  0
  -12.4710   -3.9160  -22.0490 C   0  0  0  0  0  0  0  0  0  0  0  0
  -13.3220   -2.7870  -22.5330 C   0  0  0  0  0  0  0  0  0  0  0  0
  -13.2130   -2.4270  -23.8170 N   0  0  0  0  0  0  0  0  0  0  0  0
  -13.9640   -1.3920  -24.1810 C   0  0  0  0  0  0  0  0  0  0  0  0
  -14.8500   -0.7850  -23.3150 C   0  0  0  0  0  0  0  0  0  0  0  0
  -14.9270   -1.2910  -22.0320 C   0  0  0  0  0  0  0  0  0  0  0  0
  -14.1780   -2.3090  -21.6360 N   0  0  0  0  0  0  0  0  0  0  0  0
  -15.6120   -0.8740  -21.2940 H   0  0  0  0  0  0  0  0  0  0  0  0
  -15.4800    0.0380  -23.5830 H   0  0  0  0  0  0  0  0  0  0  0  0
  -13.8480   -1.0530  -25.2140 H   0  0  0  0  0  0  0  0  0  0  0  0
  -12.9520   -4.8210  -22.4170 H   0  0  0  0  0  0  0  0  0  0  0  0
  -12.4700   -3.9210  -20.9590 H   0  0  0  0  0  0  0  0  0  0  0  0
  -10.8560   -4.6460  -23.6640 C   0  0  0  0  0  0  0  0  0  0  0  0
  -11.7480   -5.1880  -24.3060 O   0  0  0  0  0  0  0  0  0  0  0  0
   -9.4200   -4.7560  -24.0380 C   0  0  0  0  0  0  0  0  0  0  0  0
   -9.0760   -5.7210  -24.9800 C   0  0  0  0  0  0  0  0  0  0  0  0
   -7.7710   -5.8560  -25.4090 C   0  0  0  0  0  0  0  0  0  0  0  0
   -6.8220   -4.9920  -24.8770 C   0  0  0  0  0  0  0  0  0  0  0  0
   -5.5500   -5.1050  -25.2900 F   0  0  0  0  0  0  0  0  0  0  0  0
   -7.1360   -4.0250  -23.9410 C   0  0  0  0  0  0  0  0  0  0  0  0
   -8.4530   -3.9080  -23.4870 C   0  0  0  0  0  0  0  0  0  0  0  0
   -6.3500   -3.3930  -23.5430 H   0  0  0  0  0  0  0  0  0  0  0  0
   -7.4760   -6.6080  -26.1330 H   0  0  0  0  0  0  0  0  0  0  0  0
   -9.8640   -6.3660  -25.3540 H   0  0  0  0  0  0  0  0  0  0  0  0
   -9.7100   -4.1390  -20.9940 H   0  0  0  0  0  0  0  0  0  0  0  0
  -10.4820   -2.5480  -21.1020 H   0  0  0  0  0  0  0  0  0  0  0  0
   -7.8880    0.4030  -22.3310 H   0  0  0  0  0  0  0  0  0  0  0  0
   -9.1650   -0.1980  -21.2520 H   0  0  0  0  0  0  0  0  0  0  0  0
   -8.2130   -1.3950  -23.8950 H   0  0  0  0  0  0  0  0  0  0  0  0
  -10.2450    0.0920  -23.8860 H   0  0  0  0  0  0  0  0  0  0  0  0
  -10.9930   -0.9680  -22.6880 H   0  0  0  0  0  0  0  0  0  0  0  0
  -10.6860   -1.5780  -24.3120 H   0  0  0  0  0  0  0  0  0  0  0  0
  1  2  1  0  0  0  0
  1 55  1  0  0  0  0
  1 56  1  0  0  0  0
  1 57  1  0  0  0  0
  2  3  1  0  0  0  0
  2 23  1  0  0  0  0
  2 54  1  6  0  0  0
  3  4  1  0  0  0  0
  3 52  1  0  0  0  0
  3 53  1  0  0  0  0
  4  5  1  0  0  0  0
  4 21  1  0  0  0  0
  5  6  2  0  0  0  0
  5 14  1  0  0  0  0
  6  7  1  0  0  0  0
  6 20  1  0  0  0  0
  7  8  2  0  0  0  0
  8  9  1  0  0  0  0
  8 19  1  0  0  0  0
  9 10  2  0  0  0  0
  9 14  1  0  0  0  0
 10 11  1  0  0  0  0
 10 18  1  0  0  0  0
 11 12  2  0  0  0  0
 11 17  1  0  0  0  0
 12 13  1  0  0  0  0
 12 16  1  0  0  0  0
 13 14  2  0  0  0  0
 13 15  1  0  0  0  0
 21 22  2  0  0  0  0
 23 21  1  1  0  0  0
 23 24  1  0  0  0  0
 23 46  1  0  0  0  0
 24 25  1  0  0  0  0
 24 50  1  0  0  0  0
 24 51  1  0  0  0  0
 25 26  1  0  0  0  0
 25 38  1  0  0  0  0
 26 27  1  0  0  0  0
 26 36  1  0  0  0  0
 26 37  1  0  0  0  0
 27 28  2  0  0  0  0
 27 32  1  0  0  0  0
 28 29  1  0  0  0  0
 29 30  2  0  0  0  0
 29 35  1  0  0  0  0
 30 31  1  0  0  0  0
 30 34  1  0  0  0  0
 31 32  2  0  0  0  0
 31 33  1  0  0  0  0
 38 39  2  0  0  0  0
 38 40  1  0  0  0  0
 40 41  2  0  0  0  0
 40 46  1  0  0  0  0
 41 42  1  0  0  0  0
 41 49  1  0  0  0  0
 42 43  2  0  0  0  0
 42 48  1  0  0  0  0
 43 44  1  0  0  0  0
 43 45  1  0  0  0  0
 45 46  2  0  0  0  0
 45 47  1  0  0  0  0
M  END
>  <MODEL>
       1

$$$$
