output/tmp_first_model_15_91.pdb
 OpenBabel07242621043D

 66 71  0  0  1  0  0  0  0  0999 V2000
   -7.5740    3.3130  -21.8510 C   0  0  0  0  0  0  0  0  0  0  0  0
   -8.6320    2.8660  -22.7420 N   0  0  0  0  0  0  0  0  0  0  0  0
   -8.2390    2.0600  -23.7700 C   0  0  0  0  0  0  0  0  0  0  0  0
   -7.0600    1.8140  -23.9880 O   0  0  0  0  0  0  0  0  0  0  0  0
   -9.3420    1.4840  -24.6500 C   0  0  0  0  0  0  0  0  0  0  0  0
   -9.9080    0.2960  -24.0550 N   0  0  0  0  0  0  0  0  0  0  0  0
   -9.1000   -0.9070  -24.0110 C   0  0  0  0  0  0  0  0  0  0  0  0
   -9.2790   -1.6620  -22.6780 C   0  0  2  0  0  0  0  0  0  0  0  0
   -8.6540   -0.8430  -21.5230 C   0  0  0  0  0  0  0  0  0  0  0  0
   -9.1280    0.1440  -20.9940 O   0  0  0  0  0  0  0  0  0  0  0  0
   -7.4320   -1.3910  -21.2040 N   0  0  0  0  0  0  0  0  0  0  0  0
   -6.6200   -0.8250  -20.1830 C   0  0  0  0  0  0  0  0  0  0  0  0
   -6.9280   -1.0540  -18.8630 C   0  0  0  0  0  0  0  0  0  0  0  0
   -6.2280   -0.5600  -17.8130 N   0  0  0  0  0  0  0  0  0  0  0  0
   -5.1910    0.1980  -18.0850 C   0  0  0  0  0  0  0  0  0  0  0  0
   -4.7570    0.5180  -19.4020 C   0  0  0  0  0  0  0  0  0  0  0  0
   -3.6350    1.3560  -19.6370 C   0  0  0  0  0  0  0  0  0  0  0  0
   -3.2470    1.6560  -20.9140 C   0  0  0  0  0  0  0  0  0  0  0  0
   -3.9670    1.1400  -22.0140 C   0  0  0  0  0  0  0  0  0  0  0  0
   -5.0660    0.3350  -21.8150 C   0  0  0  0  0  0  0  0  0  0  0  0
   -5.4860   -0.0070  -20.4990 C   0  0  0  0  0  0  0  0  0  0  0  0
   -5.6270   -0.0170  -22.6760 H   0  0  0  0  0  0  0  0  0  0  0  0
   -3.6530    1.3830  -23.0250 H   0  0  0  0  0  0  0  0  0  0  0  0
   -2.3900    2.3010  -21.0900 H   0  0  0  0  0  0  0  0  0  0  0  0
   -3.1050    1.7590  -18.7780 H   0  0  0  0  0  0  0  0  0  0  0  0
   -4.6220    0.5940  -17.2420 H   0  0  0  0  0  0  0  0  0  0  0  0
   -7.7930   -1.6660  -18.6090 H   0  0  0  0  0  0  0  0  0  0  0  0
   -7.1080   -2.5830  -21.9720 C   0  0  0  0  0  0  0  0  0  0  0  0
   -8.4450   -2.9700  -22.6280 C   0  0  2  0  0  0  0  0  0  0  0  0
   -8.2510   -3.7530  -23.9300 C   0  0  0  0  0  0  0  0  0  0  0  0
   -9.4920   -4.2340  -24.4870 N   0  0  0  0  0  0  0  0  0  0  0  0
   -9.5800   -4.8930  -25.6840 C   0  0  0  0  0  0  0  0  0  0  0  0
   -8.4450   -5.2100  -26.4770 C   0  0  0  0  0  0  0  0  0  0  0  0
   -8.5690   -5.8380  -27.6370 N   0  0  0  0  0  0  0  0  0  0  0  0
   -9.8040   -6.1730  -28.0330 C   0  0  0  0  0  0  0  0  0  0  0  0
  -10.9080   -5.8670  -27.2540 C   0  0  0  0  0  0  0  0  0  0  0  0
  -10.8070   -5.2340  -26.0860 N   0  0  0  0  0  0  0  0  0  0  0  0
  -11.9170   -6.1330  -27.5660 H   0  0  0  0  0  0  0  0  0  0  0  0
   -9.9140   -6.6920  -28.9850 H   0  0  0  0  0  0  0  0  0  0  0  0
   -7.4300   -4.9490  -26.1630 H   0  0  0  0  0  0  0  0  0  0  0  0
  -10.3810   -4.0410  -24.0440 H   0  0  0  0  0  0  0  0  0  0  0  0
   -7.5960   -4.6130  -23.7410 H   0  0  0  0  0  0  0  0  0  0  0  0
   -7.7230   -3.1320  -24.6680 H   0  0  0  0  0  0  0  0  0  0  0  0
   -8.9520   -3.6460  -21.9410 H   0  0  0  0  0  0  0  0  0  0  0  0
   -6.3440   -2.3670  -22.7340 H   0  0  0  0  0  0  0  0  0  0  0  0
   -6.7290   -3.3750  -21.3150 H   0  0  0  0  0  0  0  0  0  0  0  0
  -10.7690   -1.8430  -22.4740 C   0  0  0  0  0  0  0  0  0  0  0  0
  -11.2700   -2.8960  -21.7050 C   0  0  0  0  0  0  0  0  0  0  0  0
  -12.6230   -2.9740  -21.4320 C   0  0  0  0  0  0  0  0  0  0  0  0
  -13.1800   -4.2850  -20.4350 Cl  0  0  0  0  0  0  0  0  0  0  0  0
  -13.5330   -2.0240  -21.8910 C   0  0  0  0  0  0  0  0  0  0  0  0
  -13.0510   -0.9960  -22.6780 C   0  0  0  0  0  0  0  0  0  0  0  0
  -11.6890   -0.8990  -22.9610 C   0  0  0  0  0  0  0  0  0  0  0  0
  -11.2400    0.2740  -23.7720 C   0  0  0  0  0  0  0  0  0  0  0  0
  -12.0040    1.1600  -24.1380 O   0  0  0  0  0  0  0  0  0  0  0  0
  -13.7170   -0.2380  -23.0720 H   0  0  0  0  0  0  0  0  0  0  0  0
  -14.5700   -2.0850  -21.5770 H   0  0  0  0  0  0  0  0  0  0  0  0
  -10.6290   -3.6330  -21.2310 H   0  0  0  0  0  0  0  0  0  0  0  0
   -8.0610   -0.6130  -24.1590 H   0  0  0  0  0  0  0  0  0  0  0  0
   -9.3890   -1.5700  -24.8350 H   0  0  0  0  0  0  0  0  0  0  0  0
  -10.1650    2.1930  -24.7900 H   0  0  0  0  0  0  0  0  0  0  0  0
   -8.8730    1.2390  -25.6080 H   0  0  0  0  0  0  0  0  0  0  0  0
   -9.5450    2.7320  -22.3250 H   0  0  0  0  0  0  0  0  0  0  0  0
   -7.9580    3.9690  -21.0680 H   0  0  0  0  0  0  0  0  0  0  0  0
   -7.0540    2.4600  -21.3960 H   0  0  0  0  0  0  0  0  0  0  0  0
   -6.8380    3.8580  -22.4380 H   0  0  0  0  0  0  0  0  0  0  0  0
  1  2  1  0  0  0  0
  1 64  1  0  0  0  0
  1 65  1  0  0  0  0
  1 66  1  0  0  0  0
  2  3  1  0  0  0  0
  2 63  1  0  0  0  0
  3  4  2  0  0  0  0
  3  5  1  0  0  0  0
  5  6  1  0  0  0  0
  5 61  1  0  0  0  0
  5 62  1  0  0  0  0
  6  7  1  0  0  0  0
  6 54  1  0  0  0  0
  7  8  1  0  0  0  0
  7 59  1  0  0  0  0
  7 60  1  0  0  0  0
  8  9  1  1  0  0  0
  8 29  1  0  0  0  0
  8 47  1  0  0  0  0
  9 10  2  0  0  0  0
  9 11  1  0  0  0  0
 11 12  1  0  0  0  0
 11 28  1  0  0  0  0
 12 13  2  0  0  0  0
 12 21  1  0  0  0  0
 13 14  1  0  0  0  0
 13 27  1  0  0  0  0
 14 15  2  0  0  0  0
 15 16  1  0  0  0  0
 15 26  1  0  0  0  0
 16 17  2  0  0  0  0
 16 21  1  0  0  0  0
 17 18  1  0  0  0  0
 17 25  1  0  0  0  0
 18 19  2  0  0  0  0
 18 24  1  0  0  0  0
 19 20  1  0  0  0  0
 19 23  1  0  0  0  0
 20 21  2  0  0  0  0
 20 22  1  0  0  0  0
 28 29  1  0  0  0  0
 28 45  1  0  0  0  0
 28 46  1  0  0  0  0
 29 30  1  0  0  0  0
 29 44  1  1  0  0  0
 30 31  1  0  0  0  0
 30 42  1  0  0  0  0
 30 43  1  0  0  0  0
 31 32  1  0  0  0  0
 31 41  1  0  0  0  0
 32 33  2  0  0  0  0
 32 37  1  0  0  0  0
 33 34  1  0  0  0  0
 33 40  1  0  0  0  0
 34 35  2  0  0  0  0
 35 36  1  0  0  0  0
 35 39  1  0  0  0  0
 36 37  2  0  0  0  0
 36 38  1  0  0  0  0
 47 48  2  0  0  0  0
 47 53  1  0  0  0  0
 48 49  1  0  0  0  0
 48 58  1  0  0  0  0
 49 50  1  0  0  0  0
 49 51  2  0  0  0  0
 51 52  1  0  0  0  0
 51 57  1  0  0  0  0
 52 53  2  0  0  0  0
 52 56  1  0  0  0  0
 53 54  1  0  0  0  0
 54 55  2  0  0  0  0
M  END
>  <MODEL>
       1

$$$$
