output/tmp_first_model_12_64.pdb
 OpenBabel07242619253D

 55 60  0  0  1  0  0  0  0  0999 V2000
  -10.1930   -2.9780  -22.0560 C   0  0  0  0  0  0  0  0  0  0  0  0
   -9.1370   -2.0260  -22.6360 C   0  0  1  0  0  0  0  0  0  0  0  0
   -8.6830   -0.9960  -21.5820 C   0  0  0  0  0  0  0  0  0  0  0  0
   -7.3620   -1.4290  -21.1960 N   0  0  0  0  0  0  0  0  0  0  0  0
   -6.6070   -0.8100  -20.1740 C   0  0  0  0  0  0  0  0  0  0  0  0
   -6.9240   -1.0470  -18.8630 C   0  0  0  0  0  0  0  0  0  0  0  0
   -6.2370   -0.5520  -17.8050 N   0  0  0  0  0  0  0  0  0  0  0  0
   -5.2040    0.2130  -18.0680 C   0  0  0  0  0  0  0  0  0  0  0  0
   -4.7840    0.5610  -19.3840 C   0  0  0  0  0  0  0  0  0  0  0  0
   -3.6580    1.3950  -19.6080 C   0  0  0  0  0  0  0  0  0  0  0  0
   -3.3220    1.7760  -20.8780 C   0  0  0  0  0  0  0  0  0  0  0  0
   -4.1050    1.3580  -21.9780 C   0  0  0  0  0  0  0  0  0  0  0  0
   -5.1800    0.5210  -21.7950 C   0  0  0  0  0  0  0  0  0  0  0  0
   -5.5280    0.0780  -20.4840 C   0  0  0  0  0  0  0  0  0  0  0  0
   -5.7590    0.1790  -22.6550 H   0  0  0  0  0  0  0  0  0  0  0  0
   -3.8280    1.6780  -22.9790 H   0  0  0  0  0  0  0  0  0  0  0  0
   -2.4570    2.4120  -21.0480 H   0  0  0  0  0  0  0  0  0  0  0  0
   -3.0880    1.7330  -18.7460 H   0  0  0  0  0  0  0  0  0  0  0  0
   -4.6440    0.6050  -17.2180 H   0  0  0  0  0  0  0  0  0  0  0  0
   -7.7660   -1.6980  -18.6260 H   0  0  0  0  0  0  0  0  0  0  0  0
   -6.8220   -2.4090  -21.9930 C   0  0  0  0  0  0  0  0  0  0  0  0
   -5.7370   -2.9210  -21.8070 O   0  0  0  0  0  0  0  0  0  0  0  0
   -7.8220   -2.7100  -23.1300 C   0  0  1  0  0  0  0  0  0  0  0  0
   -7.9700   -4.2350  -23.3180 C   0  0  0  0  0  0  0  0  0  0  0  0
   -6.7620   -4.8280  -23.8720 N   0  0  0  0  0  0  0  0  0  0  0  0
   -6.2620   -6.0870  -23.3320 C   0  0  0  0  0  0  0  0  0  0  0  0
   -5.1060   -5.9460  -22.3620 C   0  0  0  0  0  0  0  0  0  0  0  0
   -5.1260   -6.1600  -20.8100 N   0  0  0  0  0  0  0  0  0  0  0  0
   -5.1250   -6.1600  -20.8100 C   0  0  0  0  0  0  0  0  0  0  0  0
   -2.9100   -5.7370  -22.5370 N   0  0  0  0  0  0  0  0  0  0  0  0
   -4.0530   -5.6200  -23.1070 N   0  0  0  0  0  0  0  0  0  0  0  0
   -2.2070   -5.5460  -23.2450 H   0  0  0  0  0  0  0  0  0  0  0  0
   -6.2420   -6.4970  -20.8210 H   0  0  0  0  0  0  0  0  0  0  0  0
   -5.8710   -6.6090  -24.2030 H   0  0  0  0  0  0  0  0  0  0  0  0
   -7.1210   -6.6360  -22.9420 H   0  0  0  0  0  0  0  0  0  0  0  0
   -6.2030   -4.3240  -25.0170 C   0  0  0  0  0  0  0  0  0  0  0  0
   -5.4290   -4.9700  -25.7140 O   0  0  0  0  0  0  0  0  0  0  0  0
   -6.5500   -2.8980  -25.3310 C   0  0  0  0  0  0  0  0  0  0  0  0
   -6.0640   -2.3530  -26.5220 C   0  0  0  0  0  0  0  0  0  0  0  0
   -6.2920   -1.0280  -26.8380 C   0  0  0  0  0  0  0  0  0  0  0  0
   -7.0070   -0.2570  -25.9320 C   0  0  0  0  0  0  0  0  0  0  0  0
   -7.2260    1.0370  -26.2250 F   0  0  0  0  0  0  0  0  0  0  0  0
   -7.5050   -0.7670  -24.7490 C   0  0  0  0  0  0  0  0  0  0  0  0
   -7.3000   -2.1190  -24.4390 C   0  0  0  0  0  0  0  0  0  0  0  0
   -8.0680   -0.0990  -24.1040 H   0  0  0  0  0  0  0  0  0  0  0  0
   -5.9250   -0.5790  -27.7550 H   0  0  0  0  0  0  0  0  0  0  0  0
   -5.5030   -3.0010  -27.1880 H   0  0  0  0  0  0  0  0  0  0  0  0
   -8.1690   -4.7010  -22.3540 H   0  0  0  0  0  0  0  0  0  0  0  0
   -8.8250   -4.4290  -23.9810 H   0  0  0  0  0  0  0  0  0  0  0  0
   -9.3460   -0.9940  -20.7210 H   0  0  0  0  0  0  0  0  0  0  0  0
   -8.6670    0.0300  -21.9720 H   0  0  0  0  0  0  0  0  0  0  0  0
   -9.6120   -1.5190  -23.4830 H   0  0  0  0  0  0  0  0  0  0  0  0
   -9.8020   -3.5550  -21.2120 H   0  0  0  0  0  0  0  0  0  0  0  0
  -11.0590   -2.4120  -21.7000 H   0  0  0  0  0  0  0  0  0  0  0  0
  -10.5560   -3.6790  -22.8120 H   0  0  0  0  0  0  0  0  0  0  0  0
  1  2  1  0  0  0  0
  1 53  1  0  0  0  0
  1 54  1  0  0  0  0
  1 55  1  0  0  0  0
  2  3  1  0  0  0  0
  2 23  1  0  0  0  0
  2 52  1  6  0  0  0
  3  4  1  0  0  0  0
  3 50  1  0  0  0  0
  3 51  1  0  0  0  0
  4  5  1  0  0  0  0
  4 21  1  0  0  0  0
  5  6  2  0  0  0  0
  5 14  1  0  0  0  0
  6  7  1  0  0  0  0
  6 20  1  0  0  0  0
  7  8  2  0  0  0  0
  8  9  1  0  0  0  0
  8 19  1  0  0  0  0
  9 10  2  0  0  0  0
  9 14  1  0  0  0  0
 10 11  1  0  0  0  0
 10 18  1  0  0  0  0
 11 12  2  0  0  0  0
 11 17  1  0  0  0  0
 12 13  1  0  0  0  0
 12 16  1  0  0  0  0
 13 14  2  0  0  0  0
 13 15  1  0  0  0  0
 21 22  2  0  0  0  0
 23 21  1  1  0  0  0
 23 24  1  0  0  0  0
 23 44  1  0  0  0  0
 24 25  1  0  0  0  0
 24 48  1  0  0  0  0
 24 49  1  0  0  0  0
 25 26  1  0  0  0  0
 25 36  1  0  0  0  0
 26 27  1  0  0  0  0
 26 34  1  0  0  0  0
 26 35  1  0  0  0  0
 27 28  1  0  0  0  0
 27 31  2  0  0  0  0
 28 29  2  0  0  0  0
 29 30  1  0  0  0  0
 29 33  1  0  0  0  0
 30 31  1  0  0  0  0
 30 32  1  0  0  0  0
 36 37  2  0  0  0  0
 36 38  1  0  0  0  0
 38 39  2  0  0  0  0
 38 44  1  0  0  0  0
 39 40  1  0  0  0  0
 39 47  1  0  0  0  0
 40 41  2  0  0  0  0
 40 46  1  0  0  0  0
 41 42  1  0  0  0  0
 41 43  1  0  0  0  0
 43 44  2  0  0  0  0
 43 45  1  0  0  0  0
M  END
>  <MODEL>
       1

$$$$
