output/tmp_first_model_17_41.pdb
 OpenBabel07242622053D

 67 71  0  0  1  0  0  0  0  0999 V2000
   -7.3900    3.3670  -21.7240 C   0  0  0  0  0  0  0  0  0  0  0  0
   -8.3490    2.9360  -22.7280 N   0  0  0  0  0  0  0  0  0  0  0  0
   -7.8440    2.2280  -23.7790 C   0  0  0  0  0  0  0  0  0  0  0  0
   -6.6400    2.0690  -23.9450 O   0  0  0  0  0  0  0  0  0  0  0  0
   -8.8500    1.6530  -24.7680 C   0  0  0  0  0  0  0  0  0  0  0  0
   -9.4940    0.4690  -24.2470 N   0  0  0  0  0  0  0  0  0  0  0  0
   -8.7310   -0.7610  -24.1480 C   0  0  0  0  0  0  0  0  0  0  0  0
   -9.0780   -1.5330  -22.8580 C   0  0  2  0  0  0  0  0  0  0  0  0
   -8.5450   -0.7660  -21.6260 C   0  0  0  0  0  0  0  0  0  0  0  0
   -9.0120    0.2320  -21.1170 O   0  0  0  0  0  0  0  0  0  0  0  0
   -7.3980   -1.3950  -21.2000 N   0  0  0  0  0  0  0  0  0  0  0  0
   -6.6010   -0.8220  -20.1790 C   0  0  0  0  0  0  0  0  0  0  0  0
   -6.9210   -1.0470  -18.8660 C   0  0  0  0  0  0  0  0  0  0  0  0
   -6.2200   -0.5540  -17.8190 N   0  0  0  0  0  0  0  0  0  0  0  0
   -5.1820    0.1990  -18.0830 C   0  0  0  0  0  0  0  0  0  0  0  0
   -4.7480    0.5270  -19.3990 C   0  0  0  0  0  0  0  0  0  0  0  0
   -3.6270    1.3650  -19.6410 C   0  0  0  0  0  0  0  0  0  0  0  0
   -3.2510    1.6710  -20.9180 C   0  0  0  0  0  0  0  0  0  0  0  0
   -3.9740    1.1590  -22.0180 C   0  0  0  0  0  0  0  0  0  0  0  0
   -5.0620    0.3430  -21.8120 C   0  0  0  0  0  0  0  0  0  0  0  0
   -5.4760    0.0010  -20.4950 C   0  0  0  0  0  0  0  0  0  0  0  0
   -5.6230   -0.0200  -22.6690 H   0  0  0  0  0  0  0  0  0  0  0  0
   -3.6710    1.4110  -23.0280 H   0  0  0  0  0  0  0  0  0  0  0  0
   -2.3890    2.3060  -21.0960 H   0  0  0  0  0  0  0  0  0  0  0  0
   -3.0860    1.7560  -18.7840 H   0  0  0  0  0  0  0  0  0  0  0  0
   -4.6170    0.5920  -17.2360 H   0  0  0  0  0  0  0  0  0  0  0  0
   -7.7870   -1.6580  -18.6230 H   0  0  0  0  0  0  0  0  0  0  0  0
   -7.0330   -2.5720  -21.9590 C   0  0  0  0  0  0  0  0  0  0  0  0
   -8.3100   -2.8860  -22.7630 C   0  0  2  0  0  0  0  0  0  0  0  0
   -8.0460   -3.6220  -24.0850 C   0  0  0  0  0  0  0  0  0  0  0  0
   -7.2980   -5.2270  -23.7740 S   0  0  0  0  0  0  0  0  0  0  0  0
   -8.2020   -6.0010  -22.9310 O   0  0  0  0  0  0  0  0  0  0  0  0
   -5.9250   -4.9920  -23.3350 O   0  0  0  0  0  0  0  0  0  0  0  0
   -7.2860   -6.0010  -25.2810 N   0  0  0  0  0  0  0  0  0  0  0  0
   -6.4950   -5.3610  -26.3280 C   0  0  0  0  0  0  0  0  0  0  0  0
   -5.4440   -5.2220  -26.0470 H   0  0  0  0  0  0  0  0  0  0  0  0
   -6.5400   -6.0030  -27.2120 H   0  0  0  0  0  0  0  0  0  0  0  0
   -6.9330   -4.4050  -26.6170 H   0  0  0  0  0  0  0  0  0  0  0  0
   -6.9190   -7.4160  -25.1260 C   0  0  0  0  0  0  0  0  0  0  0  0
   -5.8860   -7.5440  -24.7680 H   0  0  0  0  0  0  0  0  0  0  0  0
   -7.6100   -7.8820  -24.4230 H   0  0  0  0  0  0  0  0  0  0  0  0
   -7.0220   -7.9050  -26.0990 H   0  0  0  0  0  0  0  0  0  0  0  0
   -7.3480   -3.0560  -24.7070 H   0  0  0  0  0  0  0  0  0  0  0  0
   -8.9680   -3.7860  -24.6510 H   0  0  0  0  0  0  0  0  0  0  0  0
   -8.9150   -3.5620  -22.1620 H   0  0  0  0  0  0  0  0  0  0  0  0
   -6.1790   -2.3750  -22.6210 H   0  0  0  0  0  0  0  0  0  0  0  0
   -6.7570   -3.3910  -21.2900 H   0  0  0  0  0  0  0  0  0  0  0  0
  -10.5830   -1.6300  -22.7670 C   0  0  0  0  0  0  0  0  0  0  0  0
  -11.1640   -2.5670  -21.9130 C   0  0  0  0  0  0  0  0  0  0  0  0
  -12.5330   -2.5810  -21.7600 C   0  0  0  0  0  0  0  0  0  0  0  0
  -13.0530   -3.4360  -20.8670 F   0  0  0  0  0  0  0  0  0  0  0  0
  -13.3830   -1.7250  -22.4520 C   0  0  0  0  0  0  0  0  0  0  0  0
  -12.8090   -0.7750  -23.2700 C   0  0  0  0  0  0  0  0  0  0  0  0
  -11.4230   -0.6990  -23.3910 C   0  0  0  0  0  0  0  0  0  0  0  0
  -10.8530    0.4690  -24.1200 C   0  0  0  0  0  0  0  0  0  0  0  0
  -11.5500    1.3860  -24.5370 O   0  0  0  0  0  0  0  0  0  0  0  0
  -13.4060   -0.0450  -23.8050 H   0  0  0  0  0  0  0  0  0  0  0  0
  -14.4560   -1.7980  -22.3130 H   0  0  0  0  0  0  0  0  0  0  0  0
  -10.5680   -3.2700  -21.3420 H   0  0  0  0  0  0  0  0  0  0  0  0
   -7.6660   -0.5100  -24.1740 H   0  0  0  0  0  0  0  0  0  0  0  0
   -8.9550   -1.4030  -25.0090 H   0  0  0  0  0  0  0  0  0  0  0  0
   -9.6520    2.3610  -24.9920 H   0  0  0  0  0  0  0  0  0  0  0  0
   -8.2910    1.4130  -25.6770 H   0  0  0  0  0  0  0  0  0  0  0  0
   -9.3000    2.7760  -22.4050 H   0  0  0  0  0  0  0  0  0  0  0  0
   -7.9250    3.7530  -20.8550 H   0  0  0  0  0  0  0  0  0  0  0  0
   -6.7520    4.1640  -22.1200 H   0  0  0  0  0  0  0  0  0  0  0  0
   -6.7440    2.5230  -21.4440 H   0  0  0  0  0  0  0  0  0  0  0  0
  1  2  1  0  0  0  0
  1 65  1  0  0  0  0
  1 66  1  0  0  0  0
  1 67  1  0  0  0  0
  2  3  1  0  0  0  0
  2 64  1  0  0  0  0
  3  4  2  0  0  0  0
  3  5  1  0  0  0  0
  5  6  1  0  0  0  0
  5 62  1  0  0  0  0
  5 63  1  0  0  0  0
  6  7  1  0  0  0  0
  6 55  1  0  0  0  0
  7  8  1  0  0  0  0
  7 60  1  0  0  0  0
  7 61  1  0  0  0  0
  8  9  1  1  0  0  0
  8 29  1  0  0  0  0
  8 48  1  0  0  0  0
  9 10  2  0  0  0  0
  9 11  1  0  0  0  0
 11 12  1  0  0  0  0
 11 28  1  0  0  0  0
 12 13  2  0  0  0  0
 12 21  1  0  0  0  0
 13 14  1  0  0  0  0
 13 27  1  0  0  0  0
 14 15  2  0  0  0  0
 15 16  1  0  0  0  0
 15 26  1  0  0  0  0
 16 17  2  0  0  0  0
 16 21  1  0  0  0  0
 17 18  1  0  0  0  0
 17 25  1  0  0  0  0
 18 19  2  0  0  0  0
 18 24  1  0  0  0  0
 19 20  1  0  0  0  0
 19 23  1  0  0  0  0
 20 21  2  0  0  0  0
 20 22  1  0  0  0  0
 28 29  1  0  0  0  0
 28 46  1  0  0  0  0
 28 47  1  0  0  0  0
 29 30  1  0  0  0  0
 29 45  1  1  0  0  0
 30 31  1  0  0  0  0
 30 43  1  0  0  0  0
 30 44  1  0  0  0  0
 31 32  2  0  0  0  0
 31 33  2  0  0  0  0
 31 34  1  0  0  0  0
 34 35  1  0  0  0  0
 34 39  1  0  0  0  0
 35 36  1  0  0  0  0
 35 37  1  0  0  0  0
 35 38  1  0  0  0  0
 39 40  1  0  0  0  0
 39 41  1  0  0  0  0
 39 42  1  0  0  0  0
 48 49  2  0  0  0  0
 48 54  1  0  0  0  0
 49 50  1  0  0  0  0
 49 59  1  0  0  0  0
 50 51  1  0  0  0  0
 50 52  2  0  0  0  0
 52 53  1  0  0  0  0
 52 58  1  0  0  0  0
 53 54  2  0  0  0  0
 53 57  1  0  0  0  0
 54 55  1  0  0  0  0
 55 56  2  0  0  0  0
M  END
>  <MODEL>
       1

$$$$
