output/tmp_first_model_20_9.pdb
 OpenBabel07242623363D

 41 43  0  0  1  0  0  0  0  0999 V2000
  -13.1680   -2.9320  -22.7920 C   0  0  0  0  0  0  0  0  0  0  0  0
  -11.9720   -2.0510  -23.1920 C   0  0  1  0  0  0  0  0  0  0  0  0
  -12.1590   -0.6520  -22.6410 C   0  0  0  0  0  0  0  0  0  0  0  0
  -11.3110    0.3570  -22.8250 C   0  0  0  0  0  0  0  0  0  0  0  0
  -10.0070    0.2150  -23.5870 C   0  0  0  0  0  0  0  0  0  0  0  0
   -9.0780   -0.7840  -23.0500 N   0  0  0  0  0  0  0  0  0  0  0  0
   -8.3710   -0.3990  -21.9340 C   0  0  0  0  0  0  0  0  0  0  0  0
   -8.5050    0.7230  -21.4730 O   0  0  0  0  0  0  0  0  0  0  0  0
   -7.4280   -1.4280  -21.2800 C   0  0  0  0  0  0  0  0  0  0  0  0
   -6.5810   -0.8260  -20.1890 C   0  0  0  0  0  0  0  0  0  0  0  0
   -6.8830   -1.0370  -18.8710 C   0  0  0  0  0  0  0  0  0  0  0  0
   -6.1960   -0.5320  -17.8140 N   0  0  0  0  0  0  0  0  0  0  0  0
   -5.1590    0.2180  -18.0740 C   0  0  0  0  0  0  0  0  0  0  0  0
   -4.7230    0.5330  -19.3870 C   0  0  0  0  0  0  0  0  0  0  0  0
   -3.5980    1.3610  -19.6260 C   0  0  0  0  0  0  0  0  0  0  0  0
   -3.2090    1.6540  -20.9010 C   0  0  0  0  0  0  0  0  0  0  0  0
   -3.9340    1.1260  -21.9960 C   0  0  0  0  0  0  0  0  0  0  0  0
   -5.0270    0.3220  -21.7910 C   0  0  0  0  0  0  0  0  0  0  0  0
   -5.4550    0.0010  -20.4780 C   0  0  0  0  0  0  0  0  0  0  0  0
   -5.5870   -0.0650  -22.6380 H   0  0  0  0  0  0  0  0  0  0  0  0
   -3.6270    1.3730  -23.0060 H   0  0  0  0  0  0  0  0  0  0  0  0
   -2.3570    2.3020  -21.0860 H   0  0  0  0  0  0  0  0  0  0  0  0
   -3.0630    1.7620  -18.7680 H   0  0  0  0  0  0  0  0  0  0  0  0
   -4.6090    0.6180  -17.2190 H   0  0  0  0  0  0  0  0  0  0  0  0
   -7.7310   -1.6570  -18.5820 H   0  0  0  0  0  0  0  0  0  0  0  0
   -6.8080   -1.9010  -22.0530 H   0  0  0  0  0  0  0  0  0  0  0  0
   -8.0470   -2.2340  -20.8560 H   0  0  0  0  0  0  0  0  0  0  0  0
   -9.3830   -2.1660  -23.3900 C   0  0  0  0  0  0  0  0  0  0  0  0
  -10.6580   -2.7220  -22.7420 C   0  0  0  0  0  0  0  0  0  0  0  0
  -10.5930   -2.6480  -21.6490 H   0  0  0  0  0  0  0  0  0  0  0  0
  -10.7290   -3.7920  -22.9800 H   0  0  0  0  0  0  0  0  0  0  0  0
   -8.5170   -2.7860  -23.1410 H   0  0  0  0  0  0  0  0  0  0  0  0
   -9.5020   -2.1980  -24.4810 H   0  0  0  0  0  0  0  0  0  0  0  0
  -10.2130   -0.1020  -24.6160 H   0  0  0  0  0  0  0  0  0  0  0  0
   -9.4870    1.1740  -23.6200 H   0  0  0  0  0  0  0  0  0  0  0  0
  -11.5340    1.3350  -22.3980 H   0  0  0  0  0  0  0  0  0  0  0  0
  -13.0430   -0.4940  -22.0180 H   0  0  0  0  0  0  0  0  0  0  0  0
  -11.9130   -1.9570  -24.2910 H   0  0  0  0  0  0  0  0  0  0  0  0
  -13.0380   -3.9800  -23.0940 H   0  0  0  0  0  0  0  0  0  0  0  0
  -13.2860   -2.9440  -21.6970 H   0  0  0  0  0  0  0  0  0  0  0  0
  -14.0910   -2.5340  -23.2370 H   0  0  0  0  0  0  0  0  0  0  0  0
  1  2  1  0  0  0  0
  1 39  1  0  0  0  0
  1 40  1  0  0  0  0
  1 41  1  0  0  0  0
  2  3  1  0  0  0  0
  2 29  1  0  0  0  0
  2 38  1  6  0  0  0
  3  4  2  0  0  0  0
  3 37  1  0  0  0  0
  4  5  1  0  0  0  0
  4 36  1  0  0  0  0
  5  6  1  0  0  0  0
  5 34  1  0  0  0  0
  5 35  1  0  0  0  0
  6  7  1  0  0  0  0
  6 28  1  0  0  0  0
  7  8  2  0  0  0  0
  7  9  1  0  0  0  0
  9 10  1  0  0  0  0
  9 26  1  0  0  0  0
  9 27  1  0  0  0  0
 10 11  2  0  0  0  0
 10 19  1  0  0  0  0
 11 12  1  0  0  0  0
 11 25  1  0  0  0  0
 12 13  2  0  0  0  0
 13 14  1  0  0  0  0
 13 24  1  0  0  0  0
 14 15  2  0  0  0  0
 14 19  1  0  0  0  0
 15 16  1  0  0  0  0
 15 23  1  0  0  0  0
 16 17  2  0  0  0  0
 16 22  1  0  0  0  0
 17 18  1  0  0  0  0
 17 21  1  0  0  0  0
 18 19  2  0  0  0  0
 18 20  1  0  0  0  0
 28 29  1  0  0  0  0
 28 32  1  0  0  0  0
 28 33  1  0  0  0  0
 29 30  1  0  0  0  0
 29 31  1  0  0  0  0
M  END
>  <MODEL>
       1

$$$$
