output/tmp_first_model_17_15.pdb
 OpenBabel07242622053D

 63 68  0  0  1  0  0  0  0  0999 V2000
   -7.4880    3.3190  -21.6880 C   0  0  0  0  0  0  0  0  0  0  0  0
   -8.4210    2.8810  -22.7070 N   0  0  0  0  0  0  0  0  0  0  0  0
   -7.8840    2.2120  -23.7530 C   0  0  0  0  0  0  0  0  0  0  0  0
   -6.6730    2.1230  -23.9090 O   0  0  0  0  0  0  0  0  0  0  0  0
   -8.8410    1.5910  -24.7670 C   0  0  0  0  0  0  0  0  0  0  0  0
   -9.5130    0.4020  -24.2890 N   0  0  0  0  0  0  0  0  0  0  0  0
   -8.7500   -0.8300  -24.1790 C   0  0  0  0  0  0  0  0  0  0  0  0
   -9.0780   -1.5820  -22.8680 C   0  0  2  0  0  0  0  0  0  0  0  0
   -8.5420   -0.7870  -21.6470 C   0  0  0  0  0  0  0  0  0  0  0  0
   -9.0350    0.2060  -21.1430 O   0  0  0  0  0  0  0  0  0  0  0  0
   -7.3860   -1.3890  -21.2080 N   0  0  0  0  0  0  0  0  0  0  0  0
   -6.5990   -0.8140  -20.1750 C   0  0  0  0  0  0  0  0  0  0  0  0
   -6.9070   -1.0460  -18.8580 C   0  0  0  0  0  0  0  0  0  0  0  0
   -6.2020   -0.5490  -17.8140 N   0  0  0  0  0  0  0  0  0  0  0  0
   -5.1670    0.2070  -18.0790 C   0  0  0  0  0  0  0  0  0  0  0  0
   -4.7310    0.5320  -19.3950 C   0  0  0  0  0  0  0  0  0  0  0  0
   -3.6100    1.3740  -19.6390 C   0  0  0  0  0  0  0  0  0  0  0  0
   -3.2350    1.6750  -20.9190 C   0  0  0  0  0  0  0  0  0  0  0  0
   -3.9600    1.1490  -22.0130 C   0  0  0  0  0  0  0  0  0  0  0  0
   -5.0450    0.3330  -21.8030 C   0  0  0  0  0  0  0  0  0  0  0  0
   -5.4650    0.0040  -20.4850 C   0  0  0  0  0  0  0  0  0  0  0  0
   -5.6070   -0.0490  -22.6500 H   0  0  0  0  0  0  0  0  0  0  0  0
   -3.6610    1.3940  -23.0260 H   0  0  0  0  0  0  0  0  0  0  0  0
   -2.3780    2.3170  -21.1030 H   0  0  0  0  0  0  0  0  0  0  0  0
   -3.0710    1.7740  -18.7850 H   0  0  0  0  0  0  0  0  0  0  0  0
   -4.6160    0.6100  -17.2280 H   0  0  0  0  0  0  0  0  0  0  0  0
   -7.7590   -1.6700  -18.6010 H   0  0  0  0  0  0  0  0  0  0  0  0
   -7.0220   -2.5880  -21.9350 C   0  0  0  0  0  0  0  0  0  0  0  0
   -8.2900   -2.9220  -22.7410 C   0  0  2  0  0  0  0  0  0  0  0  0
   -7.9700   -3.6690  -24.0520 C   0  0  0  0  0  0  0  0  0  0  0  0
   -7.3930   -4.9850  -23.8160 N   0  0  0  0  0  0  0  0  0  0  0  0
   -8.0710   -6.1170  -23.5180 C   0  0  0  0  0  0  0  0  0  0  0  0
   -7.1340   -7.1010  -23.2880 C   0  0  0  0  0  0  0  0  0  0  0  0
   -5.8980   -6.4430  -23.4790 C   0  0  0  0  0  0  0  0  0  0  0  0
   -6.0630   -5.1630  -23.7920 N   0  0  0  0  0  0  0  0  0  0  0  0
   -4.8880   -6.8340  -23.4030 H   0  0  0  0  0  0  0  0  0  0  0  0
   -7.3160   -8.1350  -23.0200 H   0  0  0  0  0  0  0  0  0  0  0  0
   -9.1560   -6.1120  -23.5010 H   0  0  0  0  0  0  0  0  0  0  0  0
   -7.2340   -3.1210  -24.6490 H   0  0  0  0  0  0  0  0  0  0  0  0
   -8.8830   -3.8160  -24.6430 H   0  0  0  0  0  0  0  0  0  0  0  0
   -8.9110   -3.5920  -22.1420 H   0  0  0  0  0  0  0  0  0  0  0  0
   -6.1640   -2.4080  -22.6020 H   0  0  0  0  0  0  0  0  0  0  0  0
   -6.7380   -3.3880  -21.2430 H   0  0  0  0  0  0  0  0  0  0  0  0
  -10.5890   -1.6880  -22.7730 C   0  0  0  0  0  0  0  0  0  0  0  0
  -11.1640   -2.6060  -21.8920 C   0  0  0  0  0  0  0  0  0  0  0  0
  -12.5310   -2.6430  -21.7120 C   0  0  0  0  0  0  0  0  0  0  0  0
  -13.1450   -3.6690  -20.4490 Cl  0  0  0  0  0  0  0  0  0  0  0  0
  -13.3830   -1.8140  -22.4450 C   0  0  0  0  0  0  0  0  0  0  0  0
  -12.8240   -0.8660  -23.2790 C   0  0  0  0  0  0  0  0  0  0  0  0
  -11.4380   -0.7700  -23.4080 C   0  0  0  0  0  0  0  0  0  0  0  0
  -10.8780    0.4000  -24.1590 C   0  0  0  0  0  0  0  0  0  0  0  0
  -11.5890    1.2970  -24.5860 O   0  0  0  0  0  0  0  0  0  0  0  0
  -13.4350   -0.1440  -23.8120 H   0  0  0  0  0  0  0  0  0  0  0  0
  -14.4580   -1.8780  -22.3330 H   0  0  0  0  0  0  0  0  0  0  0  0
  -10.5570   -3.2710  -21.2890 H   0  0  0  0  0  0  0  0  0  0  0  0
   -8.9710   -1.4930  -25.0300 H   0  0  0  0  0  0  0  0  0  0  0  0
   -7.6900   -0.5560  -24.1950 H   0  0  0  0  0  0  0  0  0  0  0  0
   -9.6360    2.2880  -25.0240 H   0  0  0  0  0  0  0  0  0  0  0  0
   -8.2320    1.3650  -25.6520 H   0  0  0  0  0  0  0  0  0  0  0  0
   -9.4000    2.7610  -22.4920 H   0  0  0  0  0  0  0  0  0  0  0  0
   -6.8360    2.4810  -21.4170 H   0  0  0  0  0  0  0  0  0  0  0  0
   -8.0240    3.6790  -20.8150 H   0  0  0  0  0  0  0  0  0  0  0  0
   -6.8570    4.1210  -22.0760 H   0  0  0  0  0  0  0  0  0  0  0  0
  1  2  1  0  0  0  0
  1 61  1  0  0  0  0
  1 62  1  0  0  0  0
  1 63  1  0  0  0  0
  2  3  1  0  0  0  0
  2 60  1  0  0  0  0
  3  4  2  0  0  0  0
  3  5  1  0  0  0  0
  5  6  1  0  0  0  0
  5 58  1  0  0  0  0
  5 59  1  0  0  0  0
  6  7  1  0  0  0  0
  6 51  1  0  0  0  0
  7  8  1  0  0  0  0
  7 56  1  0  0  0  0
  7 57  1  0  0  0  0
  8  9  1  1  0  0  0
  8 29  1  0  0  0  0
  8 44  1  0  0  0  0
  9 10  2  0  0  0  0
  9 11  1  0  0  0  0
 11 12  1  0  0  0  0
 11 28  1  0  0  0  0
 12 13  2  0  0  0  0
 12 21  1  0  0  0  0
 13 14  1  0  0  0  0
 13 27  1  0  0  0  0
 14 15  2  0  0  0  0
 15 16  1  0  0  0  0
 15 26  1  0  0  0  0
 16 17  2  0  0  0  0
 16 21  1  0  0  0  0
 17 18  1  0  0  0  0
 17 25  1  0  0  0  0
 18 19  2  0  0  0  0
 18 24  1  0  0  0  0
 19 20  1  0  0  0  0
 19 23  1  0  0  0  0
 20 21  2  0  0  0  0
 20 22  1  0  0  0  0
 28 29  1  0  0  0  0
 28 42  1  0  0  0  0
 28 43  1  0  0  0  0
 29 30  1  0  0  0  0
 29 41  1  1  0  0  0
 30 31  1  0  0  0  0
 30 39  1  0  0  0  0
 30 40  1  0  0  0  0
 31 32  1  0  0  0  0
 31 35  1  0  0  0  0
 32 33  2  0  0  0  0
 32 38  1  0  0  0  0
 33 34  1  0  0  0  0
 33 37  1  0  0  0  0
 34 35  2  0  0  0  0
 34 36  1  0  0  0  0
 44 45  2  0  0  0  0
 44 50  1  0  0  0  0
 45 46  1  0  0  0  0
 45 55  1  0  0  0  0
 46 47  1  0  0  0  0
 46 48  2  0  0  0  0
 48 49  1  0  0  0  0
 48 54  1  0  0  0  0
 49 50  2  0  0  0  0
 49 53  1  0  0  0  0
 50 51  1  0  0  0  0
 51 52  2  0  0  0  0
M  END
>  <MODEL>
       1

$$$$
