output/tmp_first_model_10_67.pdb
 OpenBabel07242618173D

 58 63  0  0  1  0  0  0  0  0999 V2000
   -8.2760   -7.2390  -27.5040 C   0  0  0  0  0  0  0  0  0  0  0  0
   -7.7940   -5.8490  -27.2190 C   0  0  0  0  0  0  0  0  0  0  0  0
   -8.5170   -4.6280  -27.3600 C   0  0  0  0  0  0  0  0  0  0  0  0
   -7.6270   -3.6800  -26.9550 C   0  0  0  0  0  0  0  0  0  0  0  0
   -7.6980   -2.1910  -26.8120 C   0  0  0  0  0  0  0  0  0  0  0  0
   -8.5200   -1.7850  -25.6790 N   0  0  0  0  0  0  0  0  0  0  0  0
   -7.9080   -1.2720  -24.4560 C   0  0  0  0  0  0  0  0  0  0  0  0
   -8.7370   -1.5720  -23.1760 C   0  0  2  0  0  0  0  0  0  0  0  0
   -8.1830   -0.6380  -22.0890 C   0  0  0  0  0  0  0  0  0  0  0  0
   -8.3180    0.5720  -22.0400 O   0  0  0  0  0  0  0  0  0  0  0  0
   -7.4520   -1.3770  -21.1860 N   0  0  0  0  0  0  0  0  0  0  0  0
   -6.6640   -0.7830  -20.1760 C   0  0  0  0  0  0  0  0  0  0  0  0
   -6.9160   -1.0970  -18.8630 C   0  0  0  0  0  0  0  0  0  0  0  0
   -6.2260   -0.6120  -17.8070 N   0  0  0  0  0  0  0  0  0  0  0  0
   -5.2090    0.1720  -18.0730 C   0  0  0  0  0  0  0  0  0  0  0  0
   -4.8300    0.5720  -19.3870 C   0  0  0  0  0  0  0  0  0  0  0  0
   -3.7290    1.4450  -19.5980 C   0  0  0  0  0  0  0  0  0  0  0  0
   -3.4580    1.9180  -20.8510 C   0  0  0  0  0  0  0  0  0  0  0  0
   -4.2380    1.5020  -21.9540 C   0  0  0  0  0  0  0  0  0  0  0  0
   -5.2480    0.5880  -21.7880 C   0  0  0  0  0  0  0  0  0  0  0  0
   -5.5910    0.1170  -20.4830 C   0  0  0  0  0  0  0  0  0  0  0  0
   -5.8010    0.2550  -22.6570 H   0  0  0  0  0  0  0  0  0  0  0  0
   -4.0350    1.9180  -22.9370 H   0  0  0  0  0  0  0  0  0  0  0  0
   -2.6670    2.6440  -21.0020 H   0  0  0  0  0  0  0  0  0  0  0  0
   -3.1270    1.7310  -18.7380 H   0  0  0  0  0  0  0  0  0  0  0  0
   -4.6470    0.5590  -17.2240 H   0  0  0  0  0  0  0  0  0  0  0  0
   -7.7390   -1.7700  -18.6300 H   0  0  0  0  0  0  0  0  0  0  0  0
   -7.3880   -2.7940  -21.5000 C   0  0  0  0  0  0  0  0  0  0  0  0
   -8.5210   -2.9830  -22.5150 C   0  0  2  0  0  0  0  0  0  0  0  0
   -8.2620   -4.1330  -23.4720 C   0  0  0  0  0  0  0  0  0  0  0  0
   -7.2930   -3.9920  -23.9630 H   0  0  0  0  0  0  0  0  0  0  0  0
   -9.0360   -4.1740  -24.2440 H   0  0  0  0  0  0  0  0  0  0  0  0
   -8.2420   -5.0820  -22.9260 H   0  0  0  0  0  0  0  0  0  0  0  0
   -9.4390   -3.1840  -21.9410 H   0  0  0  0  0  0  0  0  0  0  0  0
   -7.5310   -3.3980  -20.5980 H   0  0  0  0  0  0  0  0  0  0  0  0
   -6.4090   -3.0660  -21.9260 H   0  0  0  0  0  0  0  0  0  0  0  0
  -10.1990   -1.3010  -23.4720 C   0  0  0  0  0  0  0  0  0  0  0  0
  -11.0830   -1.0290  -22.4240 C   0  0  0  0  0  0  0  0  0  0  0  0
  -12.4300   -0.8630  -22.6890 C   0  0  0  0  0  0  0  0  0  0  0  0
  -13.2760   -0.6260  -21.6780 F   0  0  0  0  0  0  0  0  0  0  0  0
  -12.9590   -0.9600  -23.9690 C   0  0  0  0  0  0  0  0  0  0  0  0
  -12.0910   -1.2530  -25.0010 C   0  0  0  0  0  0  0  0  0  0  0  0
  -10.7280   -1.4130  -24.7580 C   0  0  0  0  0  0  0  0  0  0  0  0
   -9.8690   -1.7600  -25.9160 C   0  0  0  0  0  0  0  0  0  0  0  0
  -10.3500   -2.0190  -27.0140 O   0  0  0  0  0  0  0  0  0  0  0  0
  -12.4420   -1.3790  -26.0180 H   0  0  0  0  0  0  0  0  0  0  0  0
  -14.0210   -0.8180  -24.1370 H   0  0  0  0  0  0  0  0  0  0  0  0
  -10.7080   -0.9510  -21.4130 H   0  0  0  0  0  0  0  0  0  0  0  0
   -6.8990   -1.7000  -24.3540 H   0  0  0  0  0  0  0  0  0  0  0  0
   -7.8000   -0.1770  -24.5260 H   0  0  0  0  0  0  0  0  0  0  0  0
   -8.1680   -1.7720  -27.7080 H   0  0  0  0  0  0  0  0  0  0  0  0
   -6.6980   -1.7690  -26.7090 H   0  0  0  0  0  0  0  0  0  0  0  0
   -6.4780   -4.2680  -26.6000 O   0  0  0  0  0  0  0  0  0  0  0  0
   -6.5800   -5.6370  -26.7710 N   0  0  0  0  0  0  0  0  0  0  0  0
   -9.5260   -4.5020  -27.7160 H   0  0  0  0  0  0  0  0  0  0  0  0
   -9.3350   -7.3390  -27.2440 H   0  0  0  0  0  0  0  0  0  0  0  0
   -7.6900   -7.9600  -26.9250 H   0  0  0  0  0  0  0  0  0  0  0  0
   -8.1770   -7.4790  -28.5690 H   0  0  0  0  0  0  0  0  0  0  0  0
  1  2  1  0  0  0  0
  1 56  1  0  0  0  0
  1 57  1  0  0  0  0
  1 58  1  0  0  0  0
  2  3  1  0  0  0  0
  2 54  2  0  0  0  0
  3  4  2  0  0  0  0
  3 55  1  0  0  0  0
  4  5  1  0  0  0  0
  4 53  1  0  0  0  0
  5  6  1  0  0  0  0
  5 51  1  0  0  0  0
  5 52  1  0  0  0  0
  6  7  1  0  0  0  0
  6 44  1  0  0  0  0
  7  8  1  0  0  0  0
  7 49  1  0  0  0  0
  7 50  1  0  0  0  0
  8  9  1  1  0  0  0
  8 29  1  0  0  0  0
  8 37  1  0  0  0  0
  9 10  2  0  0  0  0
  9 11  1  0  0  0  0
 11 12  1  0  0  0  0
 11 28  1  0  0  0  0
 12 13  2  0  0  0  0
 12 21  1  0  0  0  0
 13 14  1  0  0  0  0
 13 27  1  0  0  0  0
 14 15  2  0  0  0  0
 15 16  1  0  0  0  0
 15 26  1  0  0  0  0
 16 17  2  0  0  0  0
 16 21  1  0  0  0  0
 17 18  1  0  0  0  0
 17 25  1  0  0  0  0
 18 19  2  0  0  0  0
 18 24  1  0  0  0  0
 19 20  1  0  0  0  0
 19 23  1  0  0  0  0
 20 21  2  0  0  0  0
 20 22  1  0  0  0  0
 28 29  1  0  0  0  0
 28 35  1  0  0  0  0
 28 36  1  0  0  0  0
 29 30  1  0  0  0  0
 29 34  1  1  0  0  0
 30 31  1  0  0  0  0
 30 32  1  0  0  0  0
 30 33  1  0  0  0  0
 37 38  2  0  0  0  0
 37 43  1  0  0  0  0
 38 39  1  0  0  0  0
 38 48  1  0  0  0  0
 39 40  1  0  0  0  0
 39 41  2  0  0  0  0
 41 42  1  0  0  0  0
 41 47  1  0  0  0  0
 42 43  2  0  0  0  0
 42 46  1  0  0  0  0
 43 44  1  0  0  0  0
 44 45  2  0  0  0  0
 53 54  1  0  0  0  0
M  END
>  <MODEL>
       1

$$$$
