output/tmp_first_model_10_77.pdb
 OpenBabel07242618173D

 55 60  0  0  1  0  0  0  0  0999 V2000
   -8.0460   -4.0230  -23.8040 C   0  0  0  0  0  0  0  0  0  0  0  0
   -8.3780   -3.1280  -22.6190 C   0  0  1  0  0  0  0  0  0  0  0  0
   -7.1140   -2.5160  -22.0090 C   0  0  0  0  0  0  0  0  0  0  0  0
   -7.5910   -1.3290  -21.3370 N   0  0  0  0  0  0  0  0  0  0  0  0
   -6.8710   -0.7230  -20.2720 C   0  0  0  0  0  0  0  0  0  0  0  0
   -7.1170   -1.0920  -18.9730 C   0  0  0  0  0  0  0  0  0  0  0  0
   -6.3710   -0.7120  -17.9030 N   0  0  0  0  0  0  0  0  0  0  0  0
   -5.3550    0.0850  -18.1270 C   0  0  0  0  0  0  0  0  0  0  0  0
   -5.0050    0.5810  -19.4170 C   0  0  0  0  0  0  0  0  0  0  0  0
   -3.9150    1.4740  -19.6070 C   0  0  0  0  0  0  0  0  0  0  0  0
   -3.6220    1.9520  -20.8570 C   0  0  0  0  0  0  0  0  0  0  0  0
   -4.4020    1.5640  -21.9720 C   0  0  0  0  0  0  0  0  0  0  0  0
   -5.4570    0.6960  -21.8110 C   0  0  0  0  0  0  0  0  0  0  0  0
   -5.7850    0.1770  -20.5290 C   0  0  0  0  0  0  0  0  0  0  0  0
   -6.0860    0.4330  -22.6570 H   0  0  0  0  0  0  0  0  0  0  0  0
   -4.1580    1.9510  -22.9600 H   0  0  0  0  0  0  0  0  0  0  0  0
   -2.8150    2.6690  -20.9950 H   0  0  0  0  0  0  0  0  0  0  0  0
   -3.3280    1.7750  -18.7390 H   0  0  0  0  0  0  0  0  0  0  0  0
   -4.7440    0.3790  -17.2690 H   0  0  0  0  0  0  0  0  0  0  0  0
   -7.9570   -1.7440  -18.7510 H   0  0  0  0  0  0  0  0  0  0  0  0
   -8.8640   -0.9540  -21.7090 C   0  0  0  0  0  0  0  0  0  0  0  0
   -9.4630   -0.0200  -21.2150 O   0  0  0  0  0  0  0  0  0  0  0  0
   -9.3220   -1.8960  -22.8600 C   0  0  1  0  0  0  0  0  0  0  0  0
   -9.0840   -1.1930  -24.2110 C   0  0  0  0  0  0  0  0  0  0  0  0
   -9.5850   -1.9840  -25.3300 N   0  0  0  0  0  0  0  0  0  0  0  0
   -9.0810   -1.6280  -26.6620 C   0  0  0  0  0  0  0  0  0  0  0  0
   -9.6180   -0.3010  -27.1180 C   0  0  0  0  0  0  0  0  0  0  0  0
  -10.8620    0.0190  -27.5500 C   0  0  0  0  0  0  0  0  0  0  0  0
  -10.9370    1.3770  -27.6570 O   0  0  0  0  0  0  0  0  0  0  0  0
   -9.7130    1.8120  -27.2970 C   0  0  0  0  0  0  0  0  0  0  0  0
   -8.8850    0.8760  -26.9720 N   0  0  0  0  0  0  0  0  0  0  0  0
   -9.5290    2.8810  -27.3070 H   0  0  0  0  0  0  0  0  0  0  0  0
  -11.7430   -0.5540  -27.8100 H   0  0  0  0  0  0  0  0  0  0  0  0
   -7.9850   -1.5830  -26.6240 H   0  0  0  0  0  0  0  0  0  0  0  0
   -9.3840   -2.4330  -27.3400 H   0  0  0  0  0  0  0  0  0  0  0  0
  -10.8690   -2.4860  -25.3000 C   0  0  0  0  0  0  0  0  0  0  0  0
  -11.4570   -2.8160  -26.3170 O   0  0  0  0  0  0  0  0  0  0  0  0
  -11.5060   -2.5980  -23.9560 C   0  0  0  0  0  0  0  0  0  0  0  0
  -12.8390   -3.0100  -23.8830 C   0  0  0  0  0  0  0  0  0  0  0  0
  -13.4820   -3.0880  -22.6580 C   0  0  0  0  0  0  0  0  0  0  0  0
  -12.7610   -2.7440  -21.5180 C   0  0  0  0  0  0  0  0  0  0  0  0
  -13.3810   -2.8530  -20.3300 F   0  0  0  0  0  0  0  0  0  0  0  0
  -11.4520   -2.3050  -21.5810 C   0  0  0  0  0  0  0  0  0  0  0  0
  -10.7930   -2.2480  -22.8060 C   0  0  0  0  0  0  0  0  0  0  0  0
  -10.9340   -1.9550  -20.6990 H   0  0  0  0  0  0  0  0  0  0  0  0
  -14.5200   -3.3980  -22.5640 H   0  0  0  0  0  0  0  0  0  0  0  0
  -13.3370   -3.2880  -24.8090 H   0  0  0  0  0  0  0  0  0  0  0  0
   -8.0120   -1.0160  -24.3450 H   0  0  0  0  0  0  0  0  0  0  0  0
   -9.5760   -0.2130  -24.1980 H   0  0  0  0  0  0  0  0  0  0  0  0
   -6.6120   -3.1790  -21.2990 H   0  0  0  0  0  0  0  0  0  0  0  0
   -6.3930   -2.2680  -22.8010 H   0  0  0  0  0  0  0  0  0  0  0  0
   -8.8760   -3.7370  -21.8540 H   0  0  0  0  0  0  0  0  0  0  0  0
   -7.5410   -3.4570  -24.5890 H   0  0  0  0  0  0  0  0  0  0  0  0
   -8.9390   -4.4700  -24.2430 H   0  0  0  0  0  0  0  0  0  0  0  0
   -7.3780   -4.8300  -23.4930 H   0  0  0  0  0  0  0  0  0  0  0  0
  1  2  1  0  0  0  0
  1 53  1  0  0  0  0
  1 54  1  0  0  0  0
  1 55  1  0  0  0  0
  2  3  1  0  0  0  0
  2 23  1  0  0  0  0
  2 52  1  1  0  0  0
  3  4  1  0  0  0  0
  3 50  1  0  0  0  0
  3 51  1  0  0  0  0
  4  5  1  0  0  0  0
  4 21  1  0  0  0  0
  5  6  2  0  0  0  0
  5 14  1  0  0  0  0
  6  7  1  0  0  0  0
  6 20  1  0  0  0  0
  7  8  2  0  0  0  0
  8  9  1  0  0  0  0
  8 19  1  0  0  0  0
  9 10  2  0  0  0  0
  9 14  1  0  0  0  0
 10 11  1  0  0  0  0
 10 18  1  0  0  0  0
 11 12  2  0  0  0  0
 11 17  1  0  0  0  0
 12 13  1  0  0  0  0
 12 16  1  0  0  0  0
 13 14  2  0  0  0  0
 13 15  1  0  0  0  0
 21 22  2  0  0  0  0
 23 21  1  1  0  0  0
 23 24  1  0  0  0  0
 23 44  1  0  0  0  0
 24 25  1  0  0  0  0
 24 48  1  0  0  0  0
 24 49  1  0  0  0  0
 25 26  1  0  0  0  0
 25 36  1  0  0  0  0
 26 27  1  0  0  0  0
 26 34  1  0  0  0  0
 26 35  1  0  0  0  0
 27 28  2  0  0  0  0
 27 31  1  0  0  0  0
 28 29  1  0  0  0  0
 28 33  1  0  0  0  0
 29 30  1  0  0  0  0
 30 31  2  0  0  0  0
 30 32  1  0  0  0  0
 36 37  2  0  0  0  0
 36 38  1  0  0  0  0
 38 39  2  0  0  0  0
 38 44  1  0  0  0  0
 39 40  1  0  0  0  0
 39 47  1  0  0  0  0
 40 41  2  0  0  0  0
 40 46  1  0  0  0  0
 41 42  1  0  0  0  0
 41 43  1  0  0  0  0
 43 44  2  0  0  0  0
 43 45  1  0  0  0  0
M  END
>  <MODEL>
       1

$$$$
