output/tmp_first_model_17_32.pdb
 OpenBabel07242622053D

 57 62  0  0  1  0  0  0  0  0999 V2000
  -10.2320   -2.9750  -22.0720 C   0  0  0  0  0  0  0  0  0  0  0  0
   -9.1630   -2.0220  -22.6330 C   0  0  1  0  0  0  0  0  0  0  0  0
   -8.6870   -1.0460  -21.5360 C   0  0  0  0  0  0  0  0  0  0  0  0
   -7.3390   -1.4630  -21.2130 N   0  0  0  0  0  0  0  0  0  0  0  0
   -6.5640   -0.8630  -20.1890 C   0  0  0  0  0  0  0  0  0  0  0  0
   -6.8990   -1.0560  -18.8710 C   0  0  0  0  0  0  0  0  0  0  0  0
   -6.2140   -0.5380  -17.8260 N   0  0  0  0  0  0  0  0  0  0  0  0
   -5.1740    0.2110  -18.0900 C   0  0  0  0  0  0  0  0  0  0  0  0
   -4.7330    0.5220  -19.4080 C   0  0  0  0  0  0  0  0  0  0  0  0
   -3.6140    1.3640  -19.6380 C   0  0  0  0  0  0  0  0  0  0  0  0
   -3.2350    1.6750  -20.9120 C   0  0  0  0  0  0  0  0  0  0  0  0
   -3.9620    1.1650  -22.0140 C   0  0  0  0  0  0  0  0  0  0  0  0
   -5.0450    0.3440  -21.8200 C   0  0  0  0  0  0  0  0  0  0  0  0
   -5.4520   -0.0150  -20.5020 C   0  0  0  0  0  0  0  0  0  0  0  0
   -5.5960   -0.0430  -22.6780 H   0  0  0  0  0  0  0  0  0  0  0  0
   -3.6440    1.4140  -23.0210 H   0  0  0  0  0  0  0  0  0  0  0  0
   -2.3710    2.3090  -21.0920 H   0  0  0  0  0  0  0  0  0  0  0  0
   -3.0760    1.7560  -18.7770 H   0  0  0  0  0  0  0  0  0  0  0  0
   -4.6230    0.6140  -17.2400 H   0  0  0  0  0  0  0  0  0  0  0  0
   -7.7540   -1.6790  -18.6110 H   0  0  0  0  0  0  0  0  0  0  0  0
   -6.8180   -2.4060  -22.0680 C   0  0  0  0  0  0  0  0  0  0  0  0
   -5.7130   -2.8970  -21.9650 O   0  0  0  0  0  0  0  0  0  0  0  0
   -7.8570   -2.6920  -23.1750 C   0  0  1  0  0  0  0  0  0  0  0  0
   -7.9920   -4.2200  -23.3900 C   0  0  0  0  0  0  0  0  0  0  0  0
   -6.8010   -4.8000  -23.9890 N   0  0  0  0  0  0  0  0  0  0  0  0
   -6.1880   -5.9560  -23.3380 C   0  0  0  0  0  0  0  0  0  0  0  0
   -7.0990   -7.1390  -23.3710 C   0  0  0  0  0  0  0  0  0  0  0  0
   -7.5810   -7.8590  -22.3820 N   0  0  0  0  0  0  0  0  0  0  0  0
   -8.5300   -8.6500  -22.9400 N   0  0  0  0  0  0  0  0  0  0  0  0
   -8.6270   -8.4430  -24.1980 N   0  0  0  0  0  0  0  0  0  0  0  0
   -7.6910   -7.5310  -24.5090 N   0  0  0  0  0  0  0  0  0  0  0  0
   -7.2010   -7.3870  -25.8580 C   0  0  0  0  0  0  0  0  0  0  0  0
   -7.4430   -6.4150  -26.2850 H   0  0  0  0  0  0  0  0  0  0  0  0
   -6.1200   -7.5170  -25.8840 H   0  0  0  0  0  0  0  0  0  0  0  0
   -7.6710   -8.1850  -26.4180 H   0  0  0  0  0  0  0  0  0  0  0  0
   -5.9380   -5.7110  -22.2980 H   0  0  0  0  0  0  0  0  0  0  0  0
   -5.2830   -6.1620  -23.9160 H   0  0  0  0  0  0  0  0  0  0  0  0
   -6.2200   -4.2380  -25.0910 C   0  0  0  0  0  0  0  0  0  0  0  0
   -5.4030   -4.8250  -25.7940 O   0  0  0  0  0  0  0  0  0  0  0  0
   -6.6120   -2.8220  -25.3910 C   0  0  0  0  0  0  0  0  0  0  0  0
   -6.1300   -2.2530  -26.5720 C   0  0  0  0  0  0  0  0  0  0  0  0
   -6.3630   -0.9190  -26.8470 C   0  0  0  0  0  0  0  0  0  0  0  0
   -7.0680   -0.1650  -25.9170 C   0  0  0  0  0  0  0  0  0  0  0  0
   -7.2740    1.1400  -26.1710 F   0  0  0  0  0  0  0  0  0  0  0  0
   -7.5620   -0.7060  -24.7460 C   0  0  0  0  0  0  0  0  0  0  0  0
   -7.3630   -2.0680  -24.4790 C   0  0  0  0  0  0  0  0  0  0  0  0
   -8.0900   -0.0480  -24.0620 H   0  0  0  0  0  0  0  0  0  0  0  0
   -5.9950   -0.4400  -27.7460 H   0  0  0  0  0  0  0  0  0  0  0  0
   -5.5560   -2.8920  -27.2370 H   0  0  0  0  0  0  0  0  0  0  0  0
   -8.8650   -4.4030  -24.0380 H   0  0  0  0  0  0  0  0  0  0  0  0
   -8.1380   -4.7140  -22.4300 H   0  0  0  0  0  0  0  0  0  0  0  0
   -8.7040    0.0050  -21.8590 H   0  0  0  0  0  0  0  0  0  0  0  0
   -9.3300   -1.1250  -20.6640 H   0  0  0  0  0  0  0  0  0  0  0  0
   -9.6420   -1.4750  -23.4550 H   0  0  0  0  0  0  0  0  0  0  0  0
  -10.6180   -3.6520  -22.8390 H   0  0  0  0  0  0  0  0  0  0  0  0
  -11.0860   -2.4020  -21.6940 H   0  0  0  0  0  0  0  0  0  0  0  0
   -9.8480   -3.5790  -21.2430 H   0  0  0  0  0  0  0  0  0  0  0  0
  1  2  1  0  0  0  0
  1 55  1  0  0  0  0
  1 56  1  0  0  0  0
  1 57  1  0  0  0  0
  2  3  1  0  0  0  0
  2 23  1  0  0  0  0
  2 54  1  6  0  0  0
  3  4  1  0  0  0  0
  3 52  1  0  0  0  0
  3 53  1  0  0  0  0
  4  5  1  0  0  0  0
  4 21  1  0  0  0  0
  5  6  2  0  0  0  0
  5 14  1  0  0  0  0
  6  7  1  0  0  0  0
  6 20  1  0  0  0  0
  7  8  2  0  0  0  0
  8  9  1  0  0  0  0
  8 19  1  0  0  0  0
  9 10  2  0  0  0  0
  9 14  1  0  0  0  0
 10 11  1  0  0  0  0
 10 18  1  0  0  0  0
 11 12  2  0  0  0  0
 11 17  1  0  0  0  0
 12 13  1  0  0  0  0
 12 16  1  0  0  0  0
 13 14  2  0  0  0  0
 13 15  1  0  0  0  0
 21 22  2  0  0  0  0
 23 21  1  1  0  0  0
 23 24  1  0  0  0  0
 23 46  1  0  0  0  0
 24 25  1  0  0  0  0
 24 50  1  0  0  0  0
 24 51  1  0  0  0  0
 25 26  1  0  0  0  0
 25 38  1  0  0  0  0
 26 27  1  0  0  0  0
 26 36  1  0  0  0  0
 26 37  1  0  0  0  0
 27 28  2  0  0  0  0
 27 31  1  0  0  0  0
 28 29  1  0  0  0  0
 29 30  2  0  0  0  0
 30 31  1  0  0  0  0
 31 32  1  0  0  0  0
 32 33  1  0  0  0  0
 32 34  1  0  0  0  0
 32 35  1  0  0  0  0
 38 39  2  0  0  0  0
 38 40  1  0  0  0  0
 40 41  2  0  0  0  0
 40 46  1  0  0  0  0
 41 42  1  0  0  0  0
 41 49  1  0  0  0  0
 42 43  2  0  0  0  0
 42 48  1  0  0  0  0
 43 44  1  0  0  0  0
 43 45  1  0  0  0  0
 45 46  2  0  0  0  0
 45 47  1  0  0  0  0
M  END
>  <MODEL>
       1

$$$$
