output/tmp_first_model_17_27.pdb
 OpenBabel07242622053D

 58 62  0  0  1  0  0  0  0  0999 V2000
   -3.7620   -5.3560  -22.7070 C   0  0  0  0  0  0  0  0  0  0  0  0
   -4.5000   -6.5310  -22.1640 N   0  3  0  0  0  0  0  0  0  0  0  0
   -5.6250   -6.2230  -21.2080 C   0  0  0  0  0  0  0  0  0  0  0  0
   -7.0000   -6.4900  -21.8330 C   0  0  0  0  0  0  0  0  0  0  0  0
   -7.3470   -5.4590  -22.7980 N   0  0  0  0  0  0  0  0  0  0  0  0
   -8.3160   -4.4370  -22.4400 C   0  0  0  0  0  0  0  0  0  0  0  0
   -7.9100   -3.0180  -22.9140 C   0  0  2  0  0  0  0  0  0  0  0  0
   -6.7880   -2.4780  -21.9860 C   0  0  0  0  0  0  0  0  0  0  0  0
   -5.6420   -2.8880  -21.9130 O   0  0  0  0  0  0  0  0  0  0  0  0
   -7.3070   -1.4540  -21.2250 N   0  0  0  0  0  0  0  0  0  0  0  0
   -6.5660   -0.8460  -20.1910 C   0  0  0  0  0  0  0  0  0  0  0  0
   -6.9100   -1.0480  -18.8810 C   0  0  0  0  0  0  0  0  0  0  0  0
   -6.2320   -0.5370  -17.8270 N   0  0  0  0  0  0  0  0  0  0  0  0
   -5.1920    0.2110  -18.0890 C   0  0  0  0  0  0  0  0  0  0  0  0
   -4.7450    0.5210  -19.4030 C   0  0  0  0  0  0  0  0  0  0  0  0
   -3.6210    1.3590  -19.6280 C   0  0  0  0  0  0  0  0  0  0  0  0
   -3.2420    1.6700  -20.9020 C   0  0  0  0  0  0  0  0  0  0  0  0
   -3.9610    1.1690  -22.0080 C   0  0  0  0  0  0  0  0  0  0  0  0
   -5.0420    0.3470  -21.8180 C   0  0  0  0  0  0  0  0  0  0  0  0
   -5.4550   -0.0050  -20.5020 C   0  0  0  0  0  0  0  0  0  0  0  0
   -5.5860   -0.0450  -22.6700 H   0  0  0  0  0  0  0  0  0  0  0  0
   -3.6470    1.4350  -23.0120 H   0  0  0  0  0  0  0  0  0  0  0  0
   -2.3860    2.3160  -21.0730 H   0  0  0  0  0  0  0  0  0  0  0  0
   -3.0850    1.7470  -18.7660 H   0  0  0  0  0  0  0  0  0  0  0  0
   -4.6400    0.6120  -17.2380 H   0  0  0  0  0  0  0  0  0  0  0  0
   -7.7630   -1.6770  -18.6390 H   0  0  0  0  0  0  0  0  0  0  0  0
   -8.7540   -1.3720  -21.2990 C   0  0  0  0  0  0  0  0  0  0  0  0
   -9.0760   -2.0040  -22.6580 C   0  0  2  0  0  0  0  0  0  0  0  0
  -10.4920   -2.5660  -22.6940 C   0  0  0  0  0  0  0  0  0  0  0  0
  -10.7000   -3.0810  -23.6370 H   0  0  0  0  0  0  0  0  0  0  0  0
  -10.6510   -3.2780  -21.8750 H   0  0  0  0  0  0  0  0  0  0  0  0
  -11.2160   -1.7560  -22.5760 H   0  0  0  0  0  0  0  0  0  0  0  0
   -9.0030   -1.2150  -23.4090 H   0  0  0  0  0  0  0  0  0  0  0  0
   -9.2470   -1.9350  -20.4910 H   0  0  0  0  0  0  0  0  0  0  0  0
   -9.0850   -0.3320  -21.2390 H   0  0  0  0  0  0  0  0  0  0  0  0
   -7.4110   -3.0940  -24.3430 C   0  0  0  0  0  0  0  0  0  0  0  0
   -7.3360   -1.9350  -25.1230 C   0  0  0  0  0  0  0  0  0  0  0  0
   -6.9020   -2.0180  -26.4280 C   0  0  0  0  0  0  0  0  0  0  0  0
   -6.8290   -0.8940  -27.1580 F   0  0  0  0  0  0  0  0  0  0  0  0
   -6.5340   -3.2180  -27.0210 C   0  0  0  0  0  0  0  0  0  0  0  0
   -6.5480   -4.3540  -26.2340 C   0  0  0  0  0  0  0  0  0  0  0  0
   -6.9270   -4.2910  -24.8900 C   0  0  0  0  0  0  0  0  0  0  0  0
   -6.7330   -5.4870  -24.0050 C   0  0  0  0  0  0  0  0  0  0  0  0
   -5.9910   -6.4250  -24.3410 O   0  0  0  0  0  0  0  0  0  0  0  0
   -6.2570   -5.3100  -26.6550 H   0  0  0  0  0  0  0  0  0  0  0  0
   -6.2170   -3.2390  -28.0580 H   0  0  0  0  0  0  0  0  0  0  0  0
   -7.5980   -0.9630  -24.7240 H   0  0  0  0  0  0  0  0  0  0  0  0
   -8.3900   -4.4130  -21.3510 H   0  0  0  0  0  0  0  0  0  0  0  0
   -9.2980   -4.6950  -22.8580 H   0  0  0  0  0  0  0  0  0  0  0  0
   -7.7770   -6.5140  -21.0660 H   0  0  0  0  0  0  0  0  0  0  0  0
   -7.0060   -7.4610  -22.3420 H   0  0  0  0  0  0  0  0  0  0  0  0
   -5.5120   -6.8450  -20.3180 H   0  0  0  0  0  0  0  0  0  0  0  0
   -5.5610   -5.1670  -20.9290 H   0  0  0  0  0  0  0  0  0  0  0  0
   -4.9130   -7.0100  -22.9980 H   0  0  0  0  0  0  0  0  0  0  0  0
   -3.8280   -7.1780  -21.6950 H   0  0  0  0  0  0  0  0  0  0  0  0
   -2.8560   -5.6980  -23.2130 H   0  0  0  0  0  0  0  0  0  0  0  0
   -4.3810   -4.8210  -23.4330 H   0  0  0  0  0  0  0  0  0  0  0  0
   -3.5070   -4.6600  -21.9080 H   0  0  0  0  0  0  0  0  0  0  0  0
  1  2  1  0  0  0  0
  1 56  1  0  0  0  0
  1 57  1  0  0  0  0
  1 58  1  0  0  0  0
  2  3  1  0  0  0  0
  2 54  1  0  0  0  0
  2 55  1  0  0  0  0
  3  4  1  0  0  0  0
  3 52  1  0  0  0  0
  3 53  1  0  0  0  0
  4  5  1  0  0  0  0
  4 50  1  0  0  0  0
  4 51  1  0  0  0  0
  5  6  1  0  0  0  0
  5 43  1  0  0  0  0
  6  7  1  0  0  0  0
  6 48  1  0  0  0  0
  6 49  1  0  0  0  0
  7  8  1  1  0  0  0
  7 28  1  0  0  0  0
  7 36  1  0  0  0  0
  8  9  2  0  0  0  0
  8 10  1  0  0  0  0
 10 11  1  0  0  0  0
 10 27  1  0  0  0  0
 11 12  2  0  0  0  0
 11 20  1  0  0  0  0
 12 13  1  0  0  0  0
 12 26  1  0  0  0  0
 13 14  2  0  0  0  0
 14 15  1  0  0  0  0
 14 25  1  0  0  0  0
 15 16  2  0  0  0  0
 15 20  1  0  0  0  0
 16 17  1  0  0  0  0
 16 24  1  0  0  0  0
 17 18  2  0  0  0  0
 17 23  1  0  0  0  0
 18 19  1  0  0  0  0
 18 22  1  0  0  0  0
 19 20  2  0  0  0  0
 19 21  1  0  0  0  0
 27 28  1  0  0  0  0
 27 34  1  0  0  0  0
 27 35  1  0  0  0  0
 28 29  1  0  0  0  0
 28 33  1  6  0  0  0
 29 30  1  0  0  0  0
 29 31  1  0  0  0  0
 29 32  1  0  0  0  0
 36 37  2  0  0  0  0
 36 42  1  0  0  0  0
 37 38  1  0  0  0  0
 37 47  1  0  0  0  0
 38 39  1  0  0  0  0
 38 40  2  0  0  0  0
 40 41  1  0  0  0  0
 40 46  1  0  0  0  0
 41 42  2  0  0  0  0
 41 45  1  0  0  0  0
 42 43  1  0  0  0  0
 43 44  2  0  0  0  0
M  CHG  1   2   1
M  END
>  <MODEL>
       1

$$$$
