output/tmp_first_model_20_34.pdb
 OpenBabel07242623363D

 66 70  0  0  1  0  0  0  0  0999 V2000
   -7.7390    2.8760  -22.3100 C   0  0  0  0  0  0  0  0  0  0  0  0
   -8.6700    2.3760  -23.2920 N   0  0  0  0  0  0  0  0  0  0  0  0
   -8.2150    1.8450  -24.4490 C   0  0  0  0  0  0  0  0  0  0  0  0
   -7.0400    1.8240  -24.7850 O   0  0  0  0  0  0  0  0  0  0  0  0
   -9.3230    1.1740  -25.2580 C   0  0  0  0  0  0  0  0  0  0  0  0
   -9.8560    0.0550  -24.4940 N   0  0  0  0  0  0  0  0  0  0  0  0
   -8.9160   -1.0040  -24.1710 C   0  0  0  0  0  0  0  0  0  0  0  0
   -9.2100   -1.7370  -22.8260 C   0  0  2  0  0  0  0  0  0  0  0  0
   -8.6920   -0.8730  -21.6390 C   0  0  0  0  0  0  0  0  0  0  0  0
   -9.2630    0.0760  -21.1340 O   0  0  0  0  0  0  0  0  0  0  0  0
   -7.4540   -1.3450  -21.2600 N   0  0  0  0  0  0  0  0  0  0  0  0
   -6.6790   -0.7610  -20.2210 C   0  0  0  0  0  0  0  0  0  0  0  0
   -6.9900   -0.9980  -18.9060 C   0  0  0  0  0  0  0  0  0  0  0  0
   -6.2640   -0.5430  -17.8550 N   0  0  0  0  0  0  0  0  0  0  0  0
   -5.1950    0.1670  -18.1090 C   0  0  0  0  0  0  0  0  0  0  0  0
   -4.7570    0.4970  -19.4240 C   0  0  0  0  0  0  0  0  0  0  0  0
   -3.6020    1.2910  -19.6570 C   0  0  0  0  0  0  0  0  0  0  0  0
   -3.2230    1.6070  -20.9320 C   0  0  0  0  0  0  0  0  0  0  0  0
   -3.9840    1.1550  -22.0320 C   0  0  0  0  0  0  0  0  0  0  0  0
   -5.1070    0.3860  -21.8310 C   0  0  0  0  0  0  0  0  0  0  0  0
   -5.5200    0.0260  -20.5190 C   0  0  0  0  0  0  0  0  0  0  0  0
   -5.7240    0.1200  -22.6850 H   0  0  0  0  0  0  0  0  0  0  0  0
   -3.6960    1.4340  -23.0410 H   0  0  0  0  0  0  0  0  0  0  0  0
   -2.3490    2.2260  -21.1120 H   0  0  0  0  0  0  0  0  0  0  0  0
   -3.0320    1.6480  -18.8030 H   0  0  0  0  0  0  0  0  0  0  0  0
   -4.6160    0.5270  -17.2560 H   0  0  0  0  0  0  0  0  0  0  0  0
   -7.8630   -1.5970  -18.6610 H   0  0  0  0  0  0  0  0  0  0  0  0
   -7.0010   -2.4930  -22.0220 C   0  0  0  0  0  0  0  0  0  0  0  0
   -8.2910   -2.9890  -22.7040 C   0  0  2  0  0  0  0  0  0  0  0  0
   -8.0090   -3.7200  -24.0090 C   0  0  0  0  0  0  0  0  0  0  0  0
   -7.2680   -4.8880  -23.7460 O   0  0  0  0  0  0  0  0  0  0  0  0
   -7.0710   -5.6820  -24.9100 C   0  0  0  0  0  0  0  0  0  0  0  0
   -5.6980   -6.3240  -24.7990 C   0  0  0  0  0  0  0  0  0  0  0  0
   -5.4830   -6.9380  -25.6800 H   0  0  0  0  0  0  0  0  0  0  0  0
   -4.9180   -5.5620  -24.7090 H   0  0  0  0  0  0  0  0  0  0  0  0
   -5.6670   -6.9610  -23.9100 H   0  0  0  0  0  0  0  0  0  0  0  0
   -8.1830   -6.7190  -25.0090 C   0  0  0  0  0  0  0  0  0  0  0  0
   -8.1640   -7.3500  -24.1160 H   0  0  0  0  0  0  0  0  0  0  0  0
   -9.1700   -6.2480  -25.0700 H   0  0  0  0  0  0  0  0  0  0  0  0
   -8.0500   -7.3510  -25.8940 H   0  0  0  0  0  0  0  0  0  0  0  0
   -7.0930   -5.0320  -25.8010 H   0  0  0  0  0  0  0  0  0  0  0  0
   -8.9580   -3.9540  -24.5200 H   0  0  0  0  0  0  0  0  0  0  0  0
   -7.4150   -3.0760  -24.6800 H   0  0  0  0  0  0  0  0  0  0  0  0
   -8.7660   -3.7030  -22.0280 H   0  0  0  0  0  0  0  0  0  0  0  0
   -6.2240   -2.2200  -22.7570 H   0  0  0  0  0  0  0  0  0  0  0  0
   -6.5690   -3.2470  -21.3590 H   0  0  0  0  0  0  0  0  0  0  0  0
  -10.7110   -1.9780  -22.7080 C   0  0  0  0  0  0  0  0  0  0  0  0
  -11.2460   -2.9570  -21.8550 C   0  0  0  0  0  0  0  0  0  0  0  0
  -12.6160   -3.0390  -21.6500 C   0  0  0  0  0  0  0  0  0  0  0  0
  -13.2660   -4.1840  -20.5140 Cl  0  0  0  0  0  0  0  0  0  0  0  0
  -13.5170   -2.2030  -22.3030 C   0  0  0  0  0  0  0  0  0  0  0  0
  -13.0040   -1.2430  -23.1430 C   0  0  0  0  0  0  0  0  0  0  0  0
  -11.6280   -1.1170  -23.3300 C   0  0  0  0  0  0  0  0  0  0  0  0
  -11.1810    0.0320  -24.1780 C   0  0  0  0  0  0  0  0  0  0  0  0
  -11.9580    0.9080  -24.5360 O   0  0  0  0  0  0  0  0  0  0  0  0
  -13.6520   -0.5390  -23.6510 H   0  0  0  0  0  0  0  0  0  0  0  0
  -14.5830   -2.3000  -22.1230 H   0  0  0  0  0  0  0  0  0  0  0  0
  -10.6100   -3.6510  -21.3170 H   0  0  0  0  0  0  0  0  0  0  0  0
   -8.9100   -1.7220  -24.9970 H   0  0  0  0  0  0  0  0  0  0  0  0
   -7.9210   -0.5500  -24.1260 H   0  0  0  0  0  0  0  0  0  0  0  0
   -8.9090    0.8610  -26.2200 H   0  0  0  0  0  0  0  0  0  0  0  0
  -10.1520    1.8620  -25.4300 H   0  0  0  0  0  0  0  0  0  0  0  0
   -9.5780    2.0830  -22.9660 H   0  0  0  0  0  0  0  0  0  0  0  0
   -7.4410    3.9100  -22.5120 H   0  0  0  0  0  0  0  0  0  0  0  0
   -8.2080    2.8340  -21.3320 H   0  0  0  0  0  0  0  0  0  0  0  0
   -6.8520    2.2390  -22.2920 H   0  0  0  0  0  0  0  0  0  0  0  0
  1  2  1  0  0  0  0
  1 64  1  0  0  0  0
  1 65  1  0  0  0  0
  1 66  1  0  0  0  0
  2  3  1  0  0  0  0
  2 63  1  0  0  0  0
  3  4  2  0  0  0  0
  3  5  1  0  0  0  0
  5  6  1  0  0  0  0
  5 61  1  0  0  0  0
  5 62  1  0  0  0  0
  6  7  1  0  0  0  0
  6 54  1  0  0  0  0
  7  8  1  0  0  0  0
  7 59  1  0  0  0  0
  7 60  1  0  0  0  0
  8  9  1  1  0  0  0
  8 29  1  0  0  0  0
  8 47  1  0  0  0  0
  9 10  2  0  0  0  0
  9 11  1  0  0  0  0
 11 12  1  0  0  0  0
 11 28  1  0  0  0  0
 12 13  2  0  0  0  0
 12 21  1  0  0  0  0
 13 14  1  0  0  0  0
 13 27  1  0  0  0  0
 14 15  2  0  0  0  0
 15 16  1  0  0  0  0
 15 26  1  0  0  0  0
 16 17  2  0  0  0  0
 16 21  1  0  0  0  0
 17 18  1  0  0  0  0
 17 25  1  0  0  0  0
 18 19  2  0  0  0  0
 18 24  1  0  0  0  0
 19 20  1  0  0  0  0
 19 23  1  0  0  0  0
 20 21  2  0  0  0  0
 20 22  1  0  0  0  0
 28 29  1  0  0  0  0
 28 45  1  0  0  0  0
 28 46  1  0  0  0  0
 29 30  1  0  0  0  0
 29 44  1  1  0  0  0
 30 31  1  0  0  0  0
 30 42  1  0  0  0  0
 30 43  1  0  0  0  0
 31 32  1  0  0  0  0
 32 33  1  0  0  0  0
 32 37  1  0  0  0  0
 32 41  1  0  0  0  0
 33 34  1  0  0  0  0
 33 35  1  0  0  0  0
 33 36  1  0  0  0  0
 37 38  1  0  0  0  0
 37 39  1  0  0  0  0
 37 40  1  0  0  0  0
 47 48  2  0  0  0  0
 47 53  1  0  0  0  0
 48 49  1  0  0  0  0
 48 58  1  0  0  0  0
 49 50  1  0  0  0  0
 49 51  2  0  0  0  0
 51 52  1  0  0  0  0
 51 57  1  0  0  0  0
 52 53  2  0  0  0  0
 52 56  1  0  0  0  0
 53 54  1  0  0  0  0
 54 55  2  0  0  0  0
M  END
>  <MODEL>
       1

$$$$
