output/tmp_first_model_4_91.pdb
 OpenBabel07242615033D

 66 71  0  0  1  0  0  0  0  0999 V2000
   -7.1440    3.3360  -21.9350 C   0  0  0  0  0  0  0  0  0  0  0  0
   -8.0790    2.8270  -22.9180 N   0  0  0  0  0  0  0  0  0  0  0  0
   -7.6250    2.2740  -24.0700 C   0  0  0  0  0  0  0  0  0  0  0  0
   -6.4410    2.2060  -24.3680 O   0  0  0  0  0  0  0  0  0  0  0  0
   -8.7410    1.7110  -24.9550 C   0  0  0  0  0  0  0  0  0  0  0  0
   -9.4710    0.6930  -24.2160 N   0  0  0  0  0  0  0  0  0  0  0  0
   -8.7540   -0.5550  -24.0390 C   0  0  0  0  0  0  0  0  0  0  0  0
   -9.1670   -1.3220  -22.7650 C   0  0  2  0  0  0  0  0  0  0  0  0
   -8.5850   -0.6240  -21.5050 C   0  0  0  0  0  0  0  0  0  0  0  0
   -9.0050    0.3770  -20.9630 O   0  0  0  0  0  0  0  0  0  0  0  0
   -7.4700   -1.3270  -21.1070 N   0  0  0  0  0  0  0  0  0  0  0  0
   -6.5380   -0.9100  -20.1230 C   0  0  0  0  0  0  0  0  0  0  0  0
   -6.6780   -1.3400  -18.8280 C   0  0  0  0  0  0  0  0  0  0  0  0
   -5.7730   -1.1080  -17.8470 N   0  0  0  0  0  0  0  0  0  0  0  0
   -4.6850   -0.4520  -18.1660 C   0  0  0  0  0  0  0  0  0  0  0  0
   -4.3950    0.0230  -19.4770 C   0  0  0  0  0  0  0  0  0  0  0  0
   -3.1820    0.6920  -19.7860 C   0  0  0  0  0  0  0  0  0  0  0  0
   -2.9510    1.1640  -21.0480 C   0  0  0  0  0  0  0  0  0  0  0  0
   -3.9140    0.9790  -22.0640 C   0  0  0  0  0  0  0  0  0  0  0  0
   -5.0910    0.3220  -21.7940 C   0  0  0  0  0  0  0  0  0  0  0  0
   -5.3540   -0.1940  -20.4920 C   0  0  0  0  0  0  0  0  0  0  0  0
   -5.8430    0.2440  -22.5750 H   0  0  0  0  0  0  0  0  0  0  0  0
   -3.7380    1.3740  -23.0600 H   0  0  0  0  0  0  0  0  0  0  0  0
   -2.0280    1.6860  -21.2730 H   0  0  0  0  0  0  0  0  0  0  0  0
   -2.4840    0.8760  -18.9760 H   0  0  0  0  0  0  0  0  0  0  0  0
   -3.9750   -0.2540  -17.3650 H   0  0  0  0  0  0  0  0  0  0  0  0
   -7.5700   -1.8990  -18.5430 H   0  0  0  0  0  0  0  0  0  0  0  0
   -7.1400   -2.4470  -21.9550 C   0  0  0  0  0  0  0  0  0  0  0  0
   -8.4420   -2.7020  -22.7230 C   0  0  2  0  0  0  0  0  0  0  0  0
   -8.1910   -3.3810  -24.0690 C   0  0  0  0  0  0  0  0  0  0  0  0
   -7.4540   -4.6030  -23.8680 N   0  0  0  0  0  0  0  0  0  0  0  0
   -6.9960   -5.3670  -24.8860 C   0  0  0  0  0  0  0  0  0  0  0  0
   -5.8790   -7.2280  -25.5470 C   0  0  0  0  0  0  0  0  0  0  0  0
   -6.3250   -6.4870  -24.5450 N   0  0  0  0  0  0  0  0  0  0  0  0
   -6.1170   -6.9190  -26.8900 C   0  0  0  0  0  0  0  0  0  0  0  0
   -6.8190   -5.7360  -27.1180 C   0  0  0  0  0  0  0  0  0  0  0  0
   -7.2520   -4.9470  -26.1360 N   0  0  0  0  0  0  0  0  0  0  0  0
   -7.0430   -5.3830  -28.1310 H   0  0  0  0  0  0  0  0  0  0  0  0
   -5.8140   -7.6030  -27.6850 H   0  0  0  0  0  0  0  0  0  0  0  0
   -5.3320   -8.1340  -25.2610 H   0  0  0  0  0  0  0  0  0  0  0  0
   -7.2870   -4.9320  -22.9350 H   0  0  0  0  0  0  0  0  0  0  0  0
   -9.1410   -3.5740  -24.5840 H   0  0  0  0  0  0  0  0  0  0  0  0
   -7.5980   -2.7350  -24.7280 H   0  0  0  0  0  0  0  0  0  0  0  0
   -9.0550   -3.3780  -22.1200 H   0  0  0  0  0  0  0  0  0  0  0  0
   -6.8340   -3.2980  -21.3370 H   0  0  0  0  0  0  0  0  0  0  0  0
   -6.3000   -2.2130  -22.6330 H   0  0  0  0  0  0  0  0  0  0  0  0
  -10.6840   -1.3620  -22.7290 C   0  0  0  0  0  0  0  0  0  0  0  0
  -11.3500   -2.3220  -21.9580 C   0  0  0  0  0  0  0  0  0  0  0  0
  -12.7320   -2.3410  -21.9060 C   0  0  0  0  0  0  0  0  0  0  0  0
  -13.5220   -3.5460  -20.9260 Cl  0  0  0  0  0  0  0  0  0  0  0  0
  -13.5060   -1.4160  -22.6050 C   0  0  0  0  0  0  0  0  0  0  0  0
  -12.8590   -0.4540  -23.3560 C   0  0  0  0  0  0  0  0  0  0  0  0
  -11.4650   -0.4120  -23.4110 C   0  0  0  0  0  0  0  0  0  0  0  0
  -10.8430    0.7000  -24.2070 C   0  0  0  0  0  0  0  0  0  0  0  0
  -11.5120    1.5550  -24.7760 O   0  0  0  0  0  0  0  0  0  0  0  0
  -13.4120    0.2980  -23.9100 H   0  0  0  0  0  0  0  0  0  0  0  0
  -14.5890   -1.4480  -22.5400 H   0  0  0  0  0  0  0  0  0  0  0  0
  -10.8050   -3.0560  -21.3780 H   0  0  0  0  0  0  0  0  0  0  0  0
   -7.6830   -0.3290  -24.0050 H   0  0  0  0  0  0  0  0  0  0  0  0
   -8.9500   -1.1980  -24.9070 H   0  0  0  0  0  0  0  0  0  0  0  0
   -8.2820    1.2980  -25.8610 H   0  0  0  0  0  0  0  0  0  0  0  0
   -9.4650    2.4810  -25.2370 H   0  0  0  0  0  0  0  0  0  0  0  0
   -8.9960    2.5430  -22.5940 H   0  0  0  0  0  0  0  0  0  0  0  0
   -6.4150    3.9840  -22.4310 H   0  0  0  0  0  0  0  0  0  0  0  0
   -6.5990    2.5180  -21.4360 H   0  0  0  0  0  0  0  0  0  0  0  0
   -7.6990    3.9260  -21.1990 H   0  0  0  0  0  0  0  0  0  0  0  0
  1  2  1  0  0  0  0
  1 64  1  0  0  0  0
  1 65  1  0  0  0  0
  1 66  1  0  0  0  0
  2  3  1  0  0  0  0
  2 63  1  0  0  0  0
  3  4  2  0  0  0  0
  3  5  1  0  0  0  0
  5  6  1  0  0  0  0
  5 61  1  0  0  0  0
  5 62  1  0  0  0  0
  6  7  1  0  0  0  0
  6 54  1  0  0  0  0
  7  8  1  0  0  0  0
  7 59  1  0  0  0  0
  7 60  1  0  0  0  0
  8  9  1  1  0  0  0
  8 29  1  0  0  0  0
  8 47  1  0  0  0  0
  9 10  2  0  0  0  0
  9 11  1  0  0  0  0
 11 12  1  0  0  0  0
 11 28  1  0  0  0  0
 12 13  2  0  0  0  0
 12 21  1  0  0  0  0
 13 14  1  0  0  0  0
 13 27  1  0  0  0  0
 14 15  2  0  0  0  0
 15 16  1  0  0  0  0
 15 26  1  0  0  0  0
 16 17  2  0  0  0  0
 16 21  1  0  0  0  0
 17 18  1  0  0  0  0
 17 25  1  0  0  0  0
 18 19  2  0  0  0  0
 18 24  1  0  0  0  0
 19 20  1  0  0  0  0
 19 23  1  0  0  0  0
 20 21  2  0  0  0  0
 20 22  1  0  0  0  0
 28 29  1  0  0  0  0
 28 45  1  0  0  0  0
 28 46  1  0  0  0  0
 29 30  1  0  0  0  0
 29 44  1  1  0  0  0
 30 31  1  0  0  0  0
 30 42  1  0  0  0  0
 30 43  1  0  0  0  0
 31 32  1  0  0  0  0
 31 41  1  0  0  0  0
 32 33  2  0  0  0  0
 32 37  1  0  0  0  0
 33 34  1  0  0  0  0
 33 40  1  0  0  0  0
 34 35  2  0  0  0  0
 35 36  1  0  0  0  0
 35 39  1  0  0  0  0
 36 37  2  0  0  0  0
 36 38  1  0  0  0  0
 47 48  2  0  0  0  0
 47 53  1  0  0  0  0
 48 49  1  0  0  0  0
 48 58  1  0  0  0  0
 49 50  1  0  0  0  0
 49 51  2  0  0  0  0
 51 52  1  0  0  0  0
 51 57  1  0  0  0  0
 52 53  2  0  0  0  0
 52 56  1  0  0  0  0
 53 54  1  0  0  0  0
 54 55  2  0  0  0  0
M  END
>  <MODEL>
       1

$$$$
