
     RDKit          3D

 63 68  0  0  0  0  0  0  0  0999 V2000
    7.1768    4.6008   22.5242 C   0  0  0  0  0  0  0  0  0  0  0  0
    7.9473    3.6274   23.2715 N   0  0  0  0  0  0  0  0  0  0  0  0
    7.6528    3.4289   24.5727 C   0  0  0  0  0  0  0  0  0  0  0  0
    6.8014    4.0762   25.1715 O   0  0  0  0  0  0  0  0  0  0  0  0
    8.4451    2.3535   25.3252 C   0  0  0  0  0  0  0  0  0  0  0  0
    9.2920    1.5116   24.5103 N   0  0  0  0  0  0  0  0  0  0  0  0
    8.8549    0.1685   24.2052 C   0  0  0  0  0  0  0  0  0  0  0  0
    9.4086   -0.3487   22.8522 C   0  0  2  0  0  0  0  0  0  0  0  0
    8.7963    0.4806   21.6966 C   0  0  0  0  0  0  0  0  0  0  0  0
    9.0900    1.6083   21.3472 O   0  0  0  0  0  0  0  0  0  0  0  0
    7.7861   -0.2541   21.1304 N   0  0  0  0  0  0  0  0  0  0  0  0
    6.9528    0.2887   20.1199 C   0  0  0  0  0  0  0  0  0  0  0  0
    7.2327    0.0137   18.8074 C   0  0  0  0  0  0  0  0  0  0  0  0
    6.5066    0.4610   17.7530 N   0  0  0  0  0  0  0  0  0  0  0  0
    5.4647    1.2123   18.0254 C   0  0  0  0  0  0  0  0  0  0  0  0
    5.0540    1.5717   19.3431 C   0  0  0  0  0  0  0  0  0  0  0  0
    3.9165    2.3918   19.5814 C   0  0  0  0  0  0  0  0  0  0  0  0
    3.5424    2.6967   20.8622 C   0  0  0  0  0  0  0  0  0  0  0  0
    4.2771    2.2002   21.9650 C   0  0  0  0  0  0  0  0  0  0  0  0
    5.3870    1.4157   21.7598 C   0  0  0  0  0  0  0  0  0  0  0  0
    5.8124    1.0905   20.4379 C   0  0  0  0  0  0  0  0  0  0  0  0
    7.5224   -1.5142   21.7871 C   0  0  0  0  0  0  0  0  0  0  0  0
    8.8221   -1.7659   22.5668 C   0  0  2  0  0  0  0  0  0  0  0  0
    8.5790   -2.6295   23.8165 C   0  0  0  0  0  0  0  0  0  0  0  0
    8.2357   -4.0048   23.4924 N   0  0  0  0  0  0  0  0  0  0  0  0
    7.0518   -4.5267   23.0775 C   0  0  0  0  0  0  0  0  0  0  0  0
    7.2999   -5.8249   22.6863 C   0  0  0  0  0  0  0  0  0  0  0  0
    8.6875   -5.9847   22.8819 C   0  0  0  0  0  0  0  0  0  0  0  0
    9.2346   -4.8778   23.3565 N   0  0  0  0  0  0  0  0  0  0  0  0
   10.9190   -0.1781   22.8983 C   0  0  0  0  0  0  0  0  0  0  0  0
   11.8158   -1.0446   22.2572 C   0  0  0  0  0  0  0  0  0  0  0  0
   13.1733   -0.7562   22.2548 C   0  0  0  0  0  0  0  0  0  0  0  0
   14.2790   -1.8417   21.4569 Cl  0  0  0  0  0  0  0  0  0  0  0  0
   13.6860    0.3900   22.8648 C   0  0  0  0  0  0  0  0  0  0  0  0
   12.8108    1.2410   23.5075 C   0  0  0  0  0  0  0  0  0  0  0  0
   11.4485    0.9564   23.5428 C   0  0  0  0  0  0  0  0  0  0  0  0
   10.5883    1.8984   24.3307 C   0  0  0  0  0  0  0  0  0  0  0  0
   11.0094    2.9519   24.7922 O   0  0  0  0  0  0  0  0  0  0  0  0
    6.1318    4.2788   22.4325 H   0  0  0  0  0  0  0  0  0  0  0  0
    7.6089    4.6973   21.5255 H   0  0  0  0  0  0  0  0  0  0  0  0
    7.1906    5.5780   23.0208 H   0  0  0  0  0  0  0  0  0  0  0  0
    8.5200    2.9662   22.7498 H   0  0  0  0  0  0  0  0  0  0  0  0
    7.7148    1.7330   25.8523 H   0  0  0  0  0  0  0  0  0  0  0  0
    9.0566    2.8535   26.0860 H   0  0  0  0  0  0  0  0  0  0  0  0
    7.7601    0.1811   24.1762 H   0  0  0  0  0  0  0  0  0  0  0  0
    9.1822   -0.5159   24.9995 H   0  0  0  0  0  0  0  0  0  0  0  0
    8.0953   -0.6046   18.5674 H   0  0  0  0  0  0  0  0  0  0  0  0
    4.8867    1.5787   17.1765 H   0  0  0  0  0  0  0  0  0  0  0  0
    3.3614    2.7697   18.7249 H   0  0  0  0  0  0  0  0  0  0  0  0
    2.6763    3.3264   21.0440 H   0  0  0  0  0  0  0  0  0  0  0  0
    3.9828    2.4671   22.9791 H   0  0  0  0  0  0  0  0  0  0  0  0
    5.9458    1.0421   22.6148 H   0  0  0  0  0  0  0  0  0  0  0  0
    6.6467   -1.4665   22.4592 H   0  0  0  0  0  0  0  0  0  0  0  0
    7.3119   -2.2876   21.0478 H   0  0  0  0  0  0  0  0  0  0  0  0
    9.4994   -2.3004   21.8948 H   0  0  0  0  0  0  0  0  0  0  0  0
    9.4948   -2.6639   24.4109 H   0  0  0  0  0  0  0  0  0  0  0  0
    7.7801   -2.2046   24.4348 H   0  0  0  0  0  0  0  0  0  0  0  0
    6.1216   -3.9652   23.1177 H   0  0  0  0  0  0  0  0  0  0  0  0
    6.6148   -6.5708   22.3044 H   0  0  0  0  0  0  0  0  0  0  0  0
    9.3483   -6.8262   22.6955 H   0  0  0  0  0  0  0  0  0  0  0  0
   11.4688   -1.9460   21.7608 H   0  0  0  0  0  0  0  0  0  0  0  0
   14.7494    0.6068   22.8347 H   0  0  0  0  0  0  0  0  0  0  0  0
   13.1500    2.1465   24.0012 H   0  0  0  0  0  0  0  0  0  0  0  0
  1  2  1  0
  2  3  1  0
  3  4  2  0
  3  5  1  0
  5  6  1  0
  6  7  1  0
  8  7  1  1
  8  9  1  0
  9 10  2  0
  9 11  1  0
 11 12  1  0
 12 13  2  0
 13 14  1  0
 14 15  2  0
 15 16  1  0
 16 17  2  0
 17 18  1  0
 18 19  2  0
 19 20  1  0
 20 21  2  0
 11 22  1  0
 22 23  1  0
 23 24  1  0
 24 25  1  0
 25 26  1  0
 26 27  2  0
 27 28  1  0
 28 29  2  0
  8 30  1  0
 30 31  2  0
 31 32  1  0
 32 33  1  0
 32 34  2  0
 34 35  1  0
 35 36  2  0
 36 37  1  0
 37 38  2  0
 37  6  1  0
 23  8  1  0
 29 25  1  0
 36 30  1  0
 21 12  1  0
 21 16  1  0
  1 39  1  0
  1 40  1  0
  1 41  1  0
  2 42  1  0
  5 43  1  0
  5 44  1  0
  7 45  1  0
  7 46  1  0
 13 47  1  0
 15 48  1  0
 17 49  1  0
 18 50  1  0
 19 51  1  0
 20 52  1  0
 22 53  1  0
 22 54  1  0
 23 55  1  6
 24 56  1  0
 24 57  1  0
 26 58  1  0
 27 59  1  0
 28 60  1  0
 31 61  1  0
 34 62  1  0
 35 63  1  0
M  END
$$$$
