complex-mers-lig.pdb


 28 32  0  0  0  0  0  0  0  0999 V2000
    8.6610    0.3587   22.3511 N   0  0  0  0  0  0  0  0  0  0  0  0
    7.7899    1.7884   20.7767 O   0  0  0  0  0  0  0  0  0  0  0  0
    6.9034   -0.3211   21.2136 N   0  0  0  0  0  0  0  0  0  0  0  0
    6.3964   -2.2827   22.3713 O   0  0  0  0  0  0  0  0  0  0  0  0
   10.1083   -1.2988   23.9014 C   0  0  0  0  0  0  0  0  0  0  0  0
    8.6421   -1.1823   24.3906 C   0  0  0  0  0  0  0  0  0  0  0  0
    8.4194   -0.9875   22.8685 C   0  0  0  0  0  0  0  0  0  0  0  0
    9.5669   -2.0006   22.6297 C   0  0  0  0  0  0  0  0  0  0  0  0
    7.8122    0.7242   21.3724 C   0  0  0  0  0  0  0  0  0  0  0  0
    7.1227   -1.3315   22.1510 C   0  0  0  0  0  0  0  0  0  0  0  0
    9.3781    0.9435   22.6873 H   0  0  0  0  0  0  0  0  0  0  0  0
    5.6419    0.0842   17.8519 N   0  0  0  0  0  0  0  0  0  0  0  0
    5.8339   -0.3211   20.2517 C   0  0  0  0  0  0  0  0  0  0  0  0
    6.1837   -0.5114   18.9164 C   0  0  0  0  0  0  0  0  0  0  0  0
    4.6535    0.9266   18.0721 C   0  0  0  0  0  0  0  0  0  0  0  0
    4.1275    1.2029   19.3543 C   0  0  0  0  0  0  0  0  0  0  0  0
    3.0331    2.0781   19.5652 C   0  0  0  0  0  0  0  0  0  0  0  0
    2.5423    2.2851   20.8217 C   0  0  0  0  0  0  0  0  0  0  0  0
    3.1071    1.6489   21.9154 C   0  0  0  0  0  0  0  0  0  0  0  0
    4.1691    0.8047   21.7594 C   0  0  0  0  0  0  0  0  0  0  0  0
    4.7191    0.5505   20.4763 C   0  0  0  0  0  0  0  0  0  0  0  0
   12.5346   -1.4926   24.6877 C   0  0  0  0  0  0  0  0  0  0  0  0
   13.0327   -0.3266   23.4924 Cl  0  0  0  0  0  0  0  0  0  0  0  0
   13.5099   -1.9986   25.5322 C   0  0  0  0  0  0  0  0  0  0  0  0
   13.1682   -2.9768   26.4527 C   0  0  0  0  0  0  0  0  0  0  0  0
   11.8720   -3.4342   26.5225 C   0  0  0  0  0  0  0  0  0  0  0  0
   10.8972   -2.9063   25.6887 C   0  0  0  0  0  0  0  0  0  0  0  0
   11.2060   -1.9191   24.7537 C   0  0  0  0  0  0  0  0  0  0  0  0
  1  7  1  0
  1  9  1  0
  1 11  1  0
 22 23  1  0
 22 24  2  0
 22 28  1  0
  2  9  2  0
 24 25  1  0
  3  9  1  0
  3 10  1  0
  3 13  1  0
  4 10  2  0
 25 26  2  0
 12 14  2  0
 12 15  1  0
 26 27  1  0
 27 28  2  0
 28  5  1  0
  5  6  1  0
  5  8  1  0
  6  7  1  0
  7  8  1  0
  7 10  1  0
 13 14  1  0
 13 21  2  0
 15 16  2  0
 16 17  1  0
 16 21  1  0
 17 18  2  0
 18 19  1  0
 19 20  2  0
 20 21  1  0
M  END
> <minimizedAffinity>
-8.86326

> <CNNscore>
0.9640083909

> <CNNaffinity>
6.7172060013

> <CNN_VS>
6.4754428864

> <CNNaffinity_variance>
0.1326109469

$$$$
complex-mers-lig.pdb


 28 32  0  0  0  0  0  0  0  0999 V2000
    8.8872    0.3689   22.4996 N   0  0  0  0  0  0  0  0  0  0  0  0
    8.0282    1.7830   20.9047 O   0  0  0  0  0  0  0  0  0  0  0  0
    7.1930   -0.3562   21.2958 N   0  0  0  0  0  0  0  0  0  0  0  0
    6.7069   -2.3414   22.4218 O   0  0  0  0  0  0  0  0  0  0  0  0
   10.3298   -1.2549   24.0895 C   0  0  0  0  0  0  0  0  0  0  0  0
    8.8443   -1.1876   24.5269 C   0  0  0  0  0  0  0  0  0  0  0  0
    8.6696   -0.9880   22.9992 C   0  0  0  0  0  0  0  0  0  0  0  0
    9.8558   -1.9633   22.7947 C   0  0  0  0  0  0  0  0  0  0  0  0
    8.0625    0.7155   21.4938 C   0  0  0  0  0  0  0  0  0  0  0  0
    7.4104   -1.3665   22.2338 C   0  0  0  0  0  0  0  0  0  0  0  0
    9.5733    0.9730   22.8650 H   0  0  0  0  0  0  0  0  0  0  0  0
    6.0407    0.0279   17.8927 N   0  0  0  0  0  0  0  0  0  0  0  0
    6.1587   -0.3819   20.2966 C   0  0  0  0  0  0  0  0  0  0  0  0
    6.5609   -0.5570   18.9740 C   0  0  0  0  0  0  0  0  0  0  0  0
    5.0221    0.8416   18.0803 C   0  0  0  0  0  0  0  0  0  0  0  0
    4.4434    1.0979   19.3438 C   0  0  0  0  0  0  0  0  0  0  0  0
    3.3183    1.9416   19.5183 C   0  0  0  0  0  0  0  0  0  0  0  0
    2.7777    2.1298   20.7572 C   0  0  0  0  0  0  0  0  0  0  0  0
    3.3208    1.5050   21.8683 C   0  0  0  0  0  0  0  0  0  0  0  0
    4.4107    0.6911   21.7475 C   0  0  0  0  0  0  0  0  0  0  0  0
    5.0128    0.4576   20.4840 C   0  0  0  0  0  0  0  0  0  0  0  0
   11.2051   -2.9887   25.7541 C   0  0  0  0  0  0  0  0  0  0  0  0
    9.6191   -3.7008   25.8719 Cl  0  0  0  0  0  0  0  0  0  0  0  0
   12.2249   -3.5748   26.4868 C   0  0  0  0  0  0  0  0  0  0  0  0
   13.4860   -2.9999   26.4729 C   0  0  0  0  0  0  0  0  0  0  0  0
   13.7156   -1.8607   25.7357 C   0  0  0  0  0  0  0  0  0  0  0  0
   12.6949   -1.2932   24.9873 C   0  0  0  0  0  0  0  0  0  0  0  0
   11.4154   -1.8475   24.9762 C   0  0  0  0  0  0  0  0  0  0  0  0
  1  7  1  0
  1  9  1  0
  1 11  1  0
 22 23  1  0
 22 24  2  0
 22 28  1  0
  2  9  2  0
 24 25  1  0
  3  9  1  0
  3 10  1  0
  3 13  1  0
  4 10  2  0
 25 26  2  0
 12 14  2  0
 12 15  1  0
 26 27  1  0
 27 28  2  0
 28  5  1  0
  5  6  1  0
  5  8  1  0
  6  7  1  0
  7  8  1  0
  7 10  1  0
 13 14  1  0
 13 21  2  0
 15 16  2  0
 16 17  1  0
 16 21  1  0
 17 18  2  0
 18 19  1  0
 19 20  2  0
 20 21  1  0
M  END
> <minimizedAffinity>
-8.69601

> <CNNscore>
0.9086973667

> <CNNaffinity>
6.5310811996

> <CNN_VS>
5.9347763062

> <CNNaffinity_variance>
0.1975498199

$$$$
complex-mers-lig.pdb


 28 32  0  0  0  0  0  0  0  0999 V2000
    9.4056   -1.2658   21.4830 N   0  0  0  0  0  0  0  0  0  0  0  0
   11.5705   -1.8652   21.9680 O   0  0  0  0  0  0  0  0  0  0  0  0
   10.0690   -1.0975   23.5751 N   0  0  0  0  0  0  0  0  0  0  0  0
    8.0364   -0.6151   24.6147 O   0  0  0  0  0  0  0  0  0  0  0  0
    7.0901   -0.2053   20.6117 C   0  0  0  0  0  0  0  0  0  0  0  0
    6.8587   -1.2846   21.6999 C   0  0  0  0  0  0  0  0  0  0  0  0
    8.2299   -0.7361   22.1724 C   0  0  0  0  0  0  0  0  0  0  0  0
    7.7662    0.6652   21.7017 C   0  0  0  0  0  0  0  0  0  0  0  0
   10.4736   -1.4358   22.2845 C   0  0  0  0  0  0  0  0  0  0  0  0
    8.7098   -0.7834   23.6153 C   0  0  0  0  0  0  0  0  0  0  0  0
    9.4152   -1.4784   20.5218 H   0  0  0  0  0  0  0  0  0  0  0  0
   13.3163   -0.8277   25.1367 N   0  0  0  0  0  0  0  0  0  0  0  0
   10.9296   -1.1377   24.7269 C   0  0  0  0  0  0  0  0  0  0  0  0
   12.1374   -0.4484   24.6388 C   0  0  0  0  0  0  0  0  0  0  0  0
   13.3499   -1.9617   25.8058 C   0  0  0  0  0  0  0  0  0  0  0  0
   12.2136   -2.7672   26.0445 C   0  0  0  0  0  0  0  0  0  0  0  0
   12.2625   -3.9611   26.8063 C   0  0  0  0  0  0  0  0  0  0  0  0
   11.1287   -4.6854   27.0348 C   0  0  0  0  0  0  0  0  0  0  0  0
    9.9096   -4.2715   26.5223 C   0  0  0  0  0  0  0  0  0  0  0  0
    9.8181   -3.1323   25.7747 C   0  0  0  0  0  0  0  0  0  0  0  0
   10.9637   -2.3389   25.5071 C   0  0  0  0  0  0  0  0  0  0  0  0
    4.8321    0.9502   20.2816 C   0  0  0  0  0  0  0  0  0  0  0  0
    4.5815    0.9900   22.0056 Cl  0  0  0  0  0  0  0  0  0  0  0  0
    3.8543    1.5179   19.4804 C   0  0  0  0  0  0  0  0  0  0  0  0
    3.9829    1.4485   18.1021 C   0  0  0  0  0  0  0  0  0  0  0  0
    5.0736    0.8225   17.5428 C   0  0  0  0  0  0  0  0  0  0  0  0
    6.0589    0.2765   18.3521 C   0  0  0  0  0  0  0  0  0  0  0  0
    5.9624    0.3315   19.7421 C   0  0  0  0  0  0  0  0  0  0  0  0
  1  7  1  0
  1  9  1  0
  1 11  1  0
 22 23  1  0
 22 24  2  0
 22 28  1  0
  2  9  2  0
 24 25  1  0
  3  9  1  0
  3 10  1  0
  3 13  1  0
  4 10  2  0
 25 26  2  0
 12 14  2  0
 12 15  1  0
 26 27  1  0
 27 28  2  0
 28  5  1  0
  5  6  1  0
  5  8  1  0
  6  7  1  0
  7  8  1  0
  7 10  1  0
 13 14  1  0
 13 21  2  0
 15 16  2  0
 16 17  1  0
 16 21  1  0
 17 18  2  0
 18 19  1  0
 19 20  2  0
 20 21  1  0
M  END
> <minimizedAffinity>
-9.01180

> <CNNscore>
0.7446225882

> <CNNaffinity>
6.4913496971

> <CNN_VS>
4.8336057663

> <CNNaffinity_variance>
0.1255700886

$$$$
complex-mers-lig.pdb


 28 32  0  0  0  0  0  0  0  0999 V2000
    7.9493   -1.7374   22.7513 N   0  0  0  0  0  0  0  0  0  0  0  0
    5.7710   -1.7552   22.0192 O   0  0  0  0  0  0  0  0  0  0  0  0
    7.0846    0.1680   22.0677 N   0  0  0  0  0  0  0  0  0  0  0  0
    8.9908    1.5139   22.0801 O   0  0  0  0  0  0  0  0  0  0  0  0
   10.2976   -1.8713   24.0599 C   0  0  0  0  0  0  0  0  0  0  0  0
   10.4632   -1.2893   22.6329 C   0  0  0  0  0  0  0  0  0  0  0  0
    9.0346   -0.7783   22.9526 C   0  0  0  0  0  0  0  0  0  0  0  0
    9.4904   -0.5986   24.4223 C   0  0  0  0  0  0  0  0  0  0  0  0
    6.8168   -1.1838   22.2791 C   0  0  0  0  0  0  0  0  0  0  0  0
    8.4218    0.4681   22.3316 C   0  0  0  0  0  0  0  0  0  0  0  0
    8.0386   -2.6988   22.9432 H   0  0  0  0  0  0  0  0  0  0  0  0
    3.8553    1.7846   22.1878 N   0  0  0  0  0  0  0  0  0  0  0  0
    6.1205    1.1135   21.5723 C   0  0  0  0  0  0  0  0  0  0  0  0
    5.1385    1.5417   22.4634 C   0  0  0  0  0  0  0  0  0  0  0  0
    3.4687    1.6297   20.9382 C   0  0  0  0  0  0  0  0  0  0  0  0
    4.3366    1.2552   19.8877 C   0  0  0  0  0  0  0  0  0  0  0  0
    3.9103    1.1385   18.5414 C   0  0  0  0  0  0  0  0  0  0  0  0
    4.7971    0.8052   17.5591 C   0  0  0  0  0  0  0  0  0  0  0  0
    6.1292    0.5691   17.8591 C   0  0  0  0  0  0  0  0  0  0  0  0
    6.5814    0.6611   19.1444 C   0  0  0  0  0  0  0  0  0  0  0  0
    5.7047    1.0060   20.2054 C   0  0  0  0  0  0  0  0  0  0  0  0
   12.7264   -1.6995   24.8438 C   0  0  0  0  0  0  0  0  0  0  0  0
   13.0285   -0.4339   23.6847 Cl  0  0  0  0  0  0  0  0  0  0  0  0
   13.7725   -2.0686   25.6743 C   0  0  0  0  0  0  0  0  0  0  0  0
   13.5940   -3.1157   26.5646 C   0  0  0  0  0  0  0  0  0  0  0  0
   12.3874   -3.7756   26.6187 C   0  0  0  0  0  0  0  0  0  0  0  0
   11.3383   -3.3852   25.7996 C   0  0  0  0  0  0  0  0  0  0  0  0
   11.4829   -2.3340   24.8950 C   0  0  0  0  0  0  0  0  0  0  0  0
  1  7  1  0
  1  9  1  0
  1 11  1  0
 22 23  1  0
 22 24  2  0
 22 28  1  0
  2  9  2  0
 24 25  1  0
  3  9  1  0
  3 10  1  0
  3 13  1  0
  4 10  2  0
 25 26  2  0
 12 14  2  0
 12 15  1  0
 26 27  1  0
 27 28  2  0
 28  5  1  0
  5  6  1  0
  5  8  1  0
  6  7  1  0
  7  8  1  0
  7 10  1  0
 13 14  1  0
 13 21  2  0
 15 16  2  0
 16 17  1  0
 16 21  1  0
 17 18  2  0
 18 19  1  0
 19 20  2  0
 20 21  1  0
M  END
> <minimizedAffinity>
-8.40335

> <CNNscore>
0.7193151116

> <CNNaffinity>
6.5073127747

> <CNN_VS>
4.6808085442

> <CNNaffinity_variance>
0.3993919790

$$$$
complex-mers-lig.pdb


 28 32  0  0  0  0  0  0  0  0999 V2000
    9.5607    0.6610   22.6075 N   0  0  0  0  0  0  0  0  0  0  0  0
    8.3500    2.1394   21.3308 O   0  0  0  0  0  0  0  0  0  0  0  0
    9.9752    2.8081   22.8600 N   0  0  0  0  0  0  0  0  0  0  0  0
   11.8590    2.7057   24.2334 O   0  0  0  0  0  0  0  0  0  0  0  0
   10.5168   -1.2035   24.2971 C   0  0  0  0  0  0  0  0  0  0  0  0
   11.6556   -0.4348   23.5796 C   0  0  0  0  0  0  0  0  0  0  0  0
   10.5905    0.6902   23.6453 C   0  0  0  0  0  0  0  0  0  0  0  0
   10.1573    0.1203   25.0192 C   0  0  0  0  0  0  0  0  0  0  0  0
    9.1810    1.8816   22.1857 C   0  0  0  0  0  0  0  0  0  0  0  0
   10.9254    2.1741   23.6619 C   0  0  0  0  0  0  0  0  0  0  0  0
    9.1804   -0.1738   22.2505 H   0  0  0  0  0  0  0  0  0  0  0  0
   11.4462    6.0847   22.4646 N   0  0  0  0  0  0  0  0  0  0  0  0
    9.8716    4.2329   22.6922 C   0  0  0  0  0  0  0  0  0  0  0  0
   10.9668    4.8850   22.1292 C   0  0  0  0  0  0  0  0  0  0  0  0
   10.8105    6.7432   23.4117 C   0  0  0  0  0  0  0  0  0  0  0  0
    9.6484    6.2641   24.0576 C   0  0  0  0  0  0  0  0  0  0  0  0
    8.9526    7.0086   25.0423 C   0  0  0  0  0  0  0  0  0  0  0  0
    7.8156    6.5133   25.6120 C   0  0  0  0  0  0  0  0  0  0  0  0
    7.3229    5.2718   25.2434 C   0  0  0  0  0  0  0  0  0  0  0  0
    7.9666    4.5163   24.3055 C   0  0  0  0  0  0  0  0  0  0  0  0
    9.1515    4.9819   23.6788 C   0  0  0  0  0  0  0  0  0  0  0  0
   11.9177   -2.7083   25.8189 C   0  0  0  0  0  0  0  0  0  0  0  0
   13.2247   -1.5564   25.7829 Cl  0  0  0  0  0  0  0  0  0  0  0  0
   12.0910   -3.8478   26.5884 C   0  0  0  0  0  0  0  0  0  0  0  0
   11.1032   -4.8200   26.5916 C   0  0  0  0  0  0  0  0  0  0  0  0
    9.9647   -4.6476   25.8379 C   0  0  0  0  0  0  0  0  0  0  0  0
    9.7892   -3.4939   25.0881 C   0  0  0  0  0  0  0  0  0  0  0  0
   10.7614   -2.4947   25.0647 C   0  0  0  0  0  0  0  0  0  0  0  0
  1  7  1  0
  1  9  1  0
  1 11  1  0
 22 23  1  0
 22 24  2  0
 22 28  1  0
  2  9  2  0
 24 25  1  0
  3  9  1  0
  3 10  1  0
  3 13  1  0
  4 10  2  0
 25 26  2  0
 12 14  2  0
 12 15  1  0
 26 27  1  0
 27 28  2  0
 28  5  1  0
  5  6  1  0
  5  8  1  0
  6  7  1  0
  7  8  1  0
  7 10  1  0
 13 14  1  0
 13 21  2  0
 15 16  2  0
 16 17  1  0
 16 21  1  0
 17 18  2  0
 18 19  1  0
 19 20  2  0
 20 21  1  0
M  END
> <minimizedAffinity>
-7.18029

> <CNNscore>
0.7170112133

> <CNNaffinity>
6.4537749290

> <CNN_VS>
4.6274290085

> <CNNaffinity_variance>
0.4413003922

$$$$
complex-mers-lig.pdb


 28 32  0  0  0  0  0  0  0  0999 V2000
    7.9430   -1.7793   22.5508 N   0  0  0  0  0  0  0  0  0  0  0  0
    5.8937   -2.0558   21.5484 O   0  0  0  0  0  0  0  0  0  0  0  0
    6.6252   -0.0214   22.4159 N   0  0  0  0  0  0  0  0  0  0  0  0
    8.0859    1.6460   23.1450 O   0  0  0  0  0  0  0  0  0  0  0  0
   10.1677   -1.8044   24.0658 C   0  0  0  0  0  0  0  0  0  0  0  0
   10.2403   -0.7314   22.9496 C   0  0  0  0  0  0  0  0  0  0  0  0
    8.7118   -0.7249   23.2107 C   0  0  0  0  0  0  0  0  0  0  0  0
    9.0249   -0.9763   24.7070 C   0  0  0  0  0  0  0  0  0  0  0  0
    6.7279   -1.3820   22.1296 C   0  0  0  0  0  0  0  0  0  0  0  0
    7.8134    0.4756   22.9534 C   0  0  0  0  0  0  0  0  0  0  0  0
    8.2827   -2.6949   22.4262 H   0  0  0  0  0  0  0  0  0  0  0  0
    4.9738    2.6853   20.6828 N   0  0  0  0  0  0  0  0  0  0  0  0
    5.4654    0.7787   22.1262 C   0  0  0  0  0  0  0  0  0  0  0  0
    5.4550    1.4615   20.9116 C   0  0  0  0  0  0  0  0  0  0  0  0
    4.4260    3.3163   21.7009 C   0  0  0  0  0  0  0  0  0  0  0  0
    4.2972    2.7594   22.9934 C   0  0  0  0  0  0  0  0  0  0  0  0
    3.6631    3.4373   24.0641 C   0  0  0  0  0  0  0  0  0  0  0  0
    3.5361    2.8407   25.2849 C   0  0  0  0  0  0  0  0  0  0  0  0
    4.0290    1.5643   25.5031 C   0  0  0  0  0  0  0  0  0  0  0  0
    4.6556    0.8782   24.5024 C   0  0  0  0  0  0  0  0  0  0  0  0
    4.8141    1.4482   23.2127 C   0  0  0  0  0  0  0  0  0  0  0  0
   12.6024   -1.5445   24.8059 C   0  0  0  0  0  0  0  0  0  0  0  0
   12.8229   -0.2345   23.6783 Cl  0  0  0  0  0  0  0  0  0  0  0  0
   13.6815   -1.8890   25.6043 C   0  0  0  0  0  0  0  0  0  0  0  0
   13.5689   -2.9678   26.4672 C   0  0  0  0  0  0  0  0  0  0  0  0
   12.3946   -3.6831   26.5261 C   0  0  0  0  0  0  0  0  0  0  0  0
   11.3119   -3.3177   25.7397 C   0  0  0  0  0  0  0  0  0  0  0  0
   11.3900   -2.2360   24.8634 C   0  0  0  0  0  0  0  0  0  0  0  0
  1  7  1  0
  1  9  1  0
  1 11  1  0
 22 23  1  0
 22 24  2  0
 22 28  1  0
  2  9  2  0
 24 25  1  0
  3  9  1  0
  3 10  1  0
  3 13  1  0
  4 10  2  0
 25 26  2  0
 12 14  2  0
 12 15  1  0
 26 27  1  0
 27 28  2  0
 28  5  1  0
  5  6  1  0
  5  8  1  0
  6  7  1  0
  7  8  1  0
  7 10  1  0
 13 14  1  0
 13 21  2  0
 15 16  2  0
 16 17  1  0
 16 21  1  0
 17 18  2  0
 18 19  1  0
 19 20  2  0
 20 21  1  0
M  END
> <minimizedAffinity>
-7.19476

> <CNNscore>
0.6349185705

> <CNNaffinity>
6.3697643280

> <CNN_VS>
4.0442814827

> <CNNaffinity_variance>
0.4982082248

$$$$
complex-mers-lig.pdb


 28 32  0  0  0  0  0  0  0  0999 V2000
    8.3374    3.3774   22.7635 N   0  0  0  0  0  0  0  0  0  0  0  0
    8.3740    1.8765   21.0236 O   0  0  0  0  0  0  0  0  0  0  0  0
    8.8571    1.2889   23.2254 N   0  0  0  0  0  0  0  0  0  0  0  0
    8.8765    1.3750   25.5573 O   0  0  0  0  0  0  0  0  0  0  0  0
    8.6701    5.3752   24.5364 C   0  0  0  0  0  0  0  0  0  0  0  0
    7.6677    4.3093   25.0476 C   0  0  0  0  0  0  0  0  0  0  0  0
    8.5971    3.4006   24.2023 C   0  0  0  0  0  0  0  0  0  0  0  0
    9.7800    4.2984   24.6436 C   0  0  0  0  0  0  0  0  0  0  0  0
    8.5255    2.1706   22.1976 C   0  0  0  0  0  0  0  0  0  0  0  0
    8.8045    1.9175   24.4704 C   0  0  0  0  0  0  0  0  0  0  0  0
    8.0514    4.1708   22.2557 H   0  0  0  0  0  0  0  0  0  0  0  0
    8.2396   -2.2130   23.8669 N   0  0  0  0  0  0  0  0  0  0  0  0
    9.1460   -0.1065   23.0295 C   0  0  0  0  0  0  0  0  0  0  0  0
    8.1203   -1.0094   23.3024 C   0  0  0  0  0  0  0  0  0  0  0  0
    9.4546   -2.6116   24.1827 C   0  0  0  0  0  0  0  0  0  0  0  0
   10.6206   -1.8542   23.9301 C   0  0  0  0  0  0  0  0  0  0  0  0
   11.9231   -2.3209   24.2360 C   0  0  0  0  0  0  0  0  0  0  0  0
   13.0189   -1.5628   23.9412 C   0  0  0  0  0  0  0  0  0  0  0  0
   12.8796   -0.3208   23.3428 C   0  0  0  0  0  0  0  0  0  0  0  0
   11.6428    0.1722   23.0393 C   0  0  0  0  0  0  0  0  0  0  0  0
   10.4688   -0.5732   23.3212 C   0  0  0  0  0  0  0  0  0  0  0  0
    8.2797    7.9017   24.6238 C   0  0  0  0  0  0  0  0  0  0  0  0
    7.5588    7.8620   23.0379 Cl  0  0  0  0  0  0  0  0  0  0  0  0
    8.3339    9.1259   25.2708 C   0  0  0  0  0  0  0  0  0  0  0  0
    8.9585    9.2131   26.5050 C   0  0  0  0  0  0  0  0  0  0  0  0
    9.5149    8.0913   27.0761 C   0  0  0  0  0  0  0  0  0  0  0  0
    9.4366    6.8653   26.4320 C   0  0  0  0  0  0  0  0  0  0  0  0
    8.8128    6.7417   25.1911 C   0  0  0  0  0  0  0  0  0  0  0  0
  1  7  1  0
  1  9  1  0
  1 11  1  0
 22 23  1  0
 22 24  2  0
 22 28  1  0
  2  9  2  0
 24 25  1  0
  3  9  1  0
  3 10  1  0
  3 13  1  0
  4 10  2  0
 25 26  2  0
 12 14  2  0
 12 15  1  0
 26 27  1  0
 27 28  2  0
 28  5  1  0
  5  6  1  0
  5  8  1  0
  6  7  1  0
  7  8  1  0
  7 10  1  0
 13 14  1  0
 13 21  2  0
 15 16  2  0
 16 17  1  0
 16 21  1  0
 17 18  2  0
 18 19  1  0
 19 20  2  0
 20 21  1  0
M  END
> <minimizedAffinity>
-6.76413

> <CNNscore>
0.6016032100

> <CNNaffinity>
6.0414590836

> <CNN_VS>
3.6345610619

> <CNNaffinity_variance>
0.3760520518

$$$$
complex-mers-lig.pdb


 28 32  0  0  0  0  0  0  0  0999 V2000
    9.3134    0.9916   22.5345 N   0  0  0  0  0  0  0  0  0  0  0  0
    9.6440   -0.9648   21.3749 O   0  0  0  0  0  0  0  0  0  0  0  0
    9.8482   -0.8040   23.6899 N   0  0  0  0  0  0  0  0  0  0  0  0
    9.5491   -0.0018   25.8606 O   0  0  0  0  0  0  0  0  0  0  0  0
    9.3244    3.4587   23.6109 C   0  0  0  0  0  0  0  0  0  0  0  0
    8.3051    2.5258   24.3132 C   0  0  0  0  0  0  0  0  0  0  0  0
    9.3754    1.4780   23.9121 C   0  0  0  0  0  0  0  0  0  0  0  0
   10.4514    2.5598   24.1808 C   0  0  0  0  0  0  0  0  0  0  0  0
    9.6239   -0.3118   22.4049 C   0  0  0  0  0  0  0  0  0  0  0  0
    9.6031    0.1715   24.6574 C   0  0  0  0  0  0  0  0  0  0  0  0
    9.0675    1.5642   21.7724 H   0  0  0  0  0  0  0  0  0  0  0  0
    9.1157   -4.0935   24.9934 N   0  0  0  0  0  0  0  0  0  0  0  0
   10.2159   -2.1641   23.9800 C   0  0  0  0  0  0  0  0  0  0  0  0
    9.1784   -3.0831   24.1234 C   0  0  0  0  0  0  0  0  0  0  0  0
   10.1494   -4.2654   25.7912 C   0  0  0  0  0  0  0  0  0  0  0  0
   11.3141   -3.4659   25.7517 C   0  0  0  0  0  0  0  0  0  0  0  0
   12.4347   -3.6961   26.5880 C   0  0  0  0  0  0  0  0  0  0  0  0
   13.5485   -2.9140   26.4866 C   0  0  0  0  0  0  0  0  0  0  0  0
   13.6036   -1.8772   25.5691 C   0  0  0  0  0  0  0  0  0  0  0  0
   12.5432   -1.6137   24.7500 C   0  0  0  0  0  0  0  0  0  0  0  0
   11.3605   -2.3955   24.8102 C   0  0  0  0  0  0  0  0  0  0  0  0
   10.2329    5.8082   23.1663 C   0  0  0  0  0  0  0  0  0  0  0  0
   11.5328    5.1436   22.2150 Cl  0  0  0  0  0  0  0  0  0  0  0  0
   10.1665    7.1875   23.2828 C   0  0  0  0  0  0  0  0  0  0  0  0
    9.1876    7.7534   24.0844 C   0  0  0  0  0  0  0  0  0  0  0  0
    8.2939    6.9480   24.7527 C   0  0  0  0  0  0  0  0  0  0  0  0
    8.3534    5.5692   24.6128 C   0  0  0  0  0  0  0  0  0  0  0  0
    9.3232    4.9672   23.8120 C   0  0  0  0  0  0  0  0  0  0  0  0
  1  7  1  0
  1  9  1  0
  1 11  1  0
 22 23  1  0
 22 24  2  0
 22 28  1  0
  2  9  2  0
 24 25  1  0
  3  9  1  0
  3 10  1  0
  3 13  1  0
  4 10  2  0
 25 26  2  0
 12 14  2  0
 12 15  1  0
 26 27  1  0
 27 28  2  0
 28  5  1  0
  5  6  1  0
  5  8  1  0
  6  7  1  0
  7  8  1  0
  7 10  1  0
 13 14  1  0
 13 21  2  0
 15 16  2  0
 16 17  1  0
 16 21  1  0
 17 18  2  0
 18 19  1  0
 19 20  2  0
 20 21  1  0
M  END
> <minimizedAffinity>
-8.48681

> <CNNscore>
0.5814452171

> <CNNaffinity>
6.3041296005

> <CNN_VS>
3.6655058861

> <CNNaffinity_variance>
0.3344710767

$$$$
complex-mers-lig.pdb


 28 32  0  0  0  0  0  0  0  0999 V2000
    8.8667   -0.9794   21.8450 N   0  0  0  0  0  0  0  0  0  0  0  0
   11.0463   -1.6854   22.0244 O   0  0  0  0  0  0  0  0  0  0  0  0
    9.8057   -0.9033   23.8344 N   0  0  0  0  0  0  0  0  0  0  0  0
    7.9515   -0.3663   25.1453 O   0  0  0  0  0  0  0  0  0  0  0  0
    6.5087    0.2051   21.3141 C   0  0  0  0  0  0  0  0  0  0  0  0
    6.3721   -0.8959   22.3965 C   0  0  0  0  0  0  0  0  0  0  0  0
    7.8173   -0.4211   22.6967 C   0  0  0  0  0  0  0  0  0  0  0  0
    7.3615    1.0124   22.3260 C   0  0  0  0  0  0  0  0  0  0  0  0
   10.0215   -1.2192   22.4937 C   0  0  0  0  0  0  0  0  0  0  0  0
    8.4795   -0.5328   24.0618 C   0  0  0  0  0  0  0  0  0  0  0  0
    8.7403   -1.1630   20.8861 H   0  0  0  0  0  0  0  0  0  0  0  0
   13.2400   -0.8353   24.9558 N   0  0  0  0  0  0  0  0  0  0  0  0
   10.8071   -1.0154   24.8609 C   0  0  0  0  0  0  0  0  0  0  0  0
   12.0275   -0.3852   24.6258 C   0  0  0  0  0  0  0  0  0  0  0  0
   13.3015   -1.9860   25.5937 C   0  0  0  0  0  0  0  0  0  0  0  0
   12.1655   -2.7395   25.9664 C   0  0  0  0  0  0  0  0  0  0  0  0
   12.2512   -3.9531   26.6930 C   0  0  0  0  0  0  0  0  0  0  0  0
   11.1206   -4.6254   27.0567 C   0  0  0  0  0  0  0  0  0  0  0  0
    9.8683   -4.1384   26.7182 C   0  0  0  0  0  0  0  0  0  0  0  0
    9.7394   -2.9777   26.0103 C   0  0  0  0  0  0  0  0  0  0  0  0
   10.8801   -2.2360   25.6076 C   0  0  0  0  0  0  0  0  0  0  0  0
    5.1750    0.8333   19.2237 C   0  0  0  0  0  0  0  0  0  0  0  0
    6.4839    0.2957   18.2067 Cl  0  0  0  0  0  0  0  0  0  0  0  0
    4.0331    1.3079   18.5983 C   0  0  0  0  0  0  0  0  0  0  0  0
    2.9954    1.8067   19.3699 C   0  0  0  0  0  0  0  0  0  0  0  0
    3.1045    1.8254   20.7417 C   0  0  0  0  0  0  0  0  0  0  0  0
    4.2418    1.3278   21.3606 C   0  0  0  0  0  0  0  0  0  0  0  0
    5.3029    0.8159   20.6147 C   0  0  0  0  0  0  0  0  0  0  0  0
  1  7  1  0
  1  9  1  0
  1 11  1  0
 22 23  1  0
 22 24  2  0
 22 28  1  0
  2  9  2  0
 24 25  1  0
  3  9  1  0
  3 10  1  0
  3 13  1  0
  4 10  2  0
 25 26  2  0
 12 14  2  0
 12 15  1  0
 26 27  1  0
 27 28  2  0
 28  5  1  0
  5  6  1  0
  5  8  1  0
  6  7  1  0
  7  8  1  0
  7 10  1  0
 13 14  1  0
 13 21  2  0
 15 16  2  0
 16 17  1  0
 16 21  1  0
 17 18  2  0
 18 19  1  0
 19 20  2  0
 20 21  1  0
M  END
> <minimizedAffinity>
-8.41205

> <CNNscore>
0.5667921305

> <CNNaffinity>
6.4040107727

> <CNN_VS>
3.6297428608

> <CNNaffinity_variance>
0.2170247585

$$$$
complex-mers-lig.pdb


 28 32  0  0  0  0  0  0  0  0999 V2000
   11.9873    1.6528   23.4289 N   0  0  0  0  0  0  0  0  0  0  0  0
   13.1083   -0.3424   23.2194 O   0  0  0  0  0  0  0  0  0  0  0  0
   10.7859   -0.1882   23.3161 N   0  0  0  0  0  0  0  0  0  0  0  0
    8.6462    0.7259   23.1393 O   0  0  0  0  0  0  0  0  0  0  0  0
   10.9292    4.0281   24.1241 C   0  0  0  0  0  0  0  0  0  0  0  0
   10.2922    3.4688   22.8263 C   0  0  0  0  0  0  0  0  0  0  0  0
   10.6120    2.1347   23.5490 C   0  0  0  0  0  0  0  0  0  0  0  0
   10.2774    2.8451   24.8846 C   0  0  0  0  0  0  0  0  0  0  0  0
   12.0865    0.3137   23.3343 C   0  0  0  0  0  0  0  0  0  0  0  0
    9.8440    0.8416   23.3196 C   0  0  0  0  0  0  0  0  0  0  0  0
   12.7683    2.2520   23.4181 H   0  0  0  0  0  0  0  0  0  0  0  0
    8.5051   -2.8918   22.5780 N   0  0  0  0  0  0  0  0  0  0  0  0
   10.4622   -1.5872   23.2321 C   0  0  0  0  0  0  0  0  0  0  0  0
    9.4248   -1.9462   22.3739 C   0  0  0  0  0  0  0  0  0  0  0  0
    8.5907   -3.5830   23.6959 C   0  0  0  0  0  0  0  0  0  0  0  0
    9.6082   -3.3969   24.6589 C   0  0  0  0  0  0  0  0  0  0  0  0
    9.7090   -4.1824   25.8339 C   0  0  0  0  0  0  0  0  0  0  0  0
   10.7311   -3.9833   26.7161 C   0  0  0  0  0  0  0  0  0  0  0  0
   11.6859   -3.0065   26.4836 C   0  0  0  0  0  0  0  0  0  0  0  0
   11.6221   -2.2202   25.3689 C   0  0  0  0  0  0  0  0  0  0  0  0
   10.5830   -2.3842   24.4166 C   0  0  0  0  0  0  0  0  0  0  0  0
   10.8482    6.5471   23.6869 C   0  0  0  0  0  0  0  0  0  0  0  0
   11.3760    6.2961   22.0453 Cl  0  0  0  0  0  0  0  0  0  0  0  0
   10.5830    7.8490   24.0810 C   0  0  0  0  0  0  0  0  0  0  0  0
   10.2250    8.0992   25.3964 C   0  0  0  0  0  0  0  0  0  0  0  0
   10.1342    7.0606   26.2950 C   0  0  0  0  0  0  0  0  0  0  0  0
   10.3796    5.7579   25.8868 C   0  0  0  0  0  0  0  0  0  0  0  0
   10.7388    5.4706   24.5705 C   0  0  0  0  0  0  0  0  0  0  0  0
  1  7  1  0
  1  9  1  0
  1 11  1  0
 22 23  1  0
 22 24  2  0
 22 28  1  0
  2  9  2  0
 24 25  1  0
  3  9  1  0
  3 10  1  0
  3 13  1  0
  4 10  2  0
 25 26  2  0
 12 14  2  0
 12 15  1  0
 26 27  1  0
 27 28  2  0
 28  5  1  0
  5  6  1  0
  5  8  1  0
  6  7  1  0
  7  8  1  0
  7 10  1  0
 13 14  1  0
 13 21  2  0
 15 16  2  0
 16 17  1  0
 16 21  1  0
 17 18  2  0
 18 19  1  0
 19 20  2  0
 20 21  1  0
M  END
> <minimizedAffinity>
-8.41866

> <CNNscore>
0.5628795028

> <CNNaffinity>
6.1524448395

> <CNN_VS>
3.4630851746

> <CNNaffinity_variance>
0.1324375570

$$$$
complex-mers-lig.pdb


 28 32  0  0  0  0  0  0  0  0999 V2000
    7.4982   -0.8480   24.1974 N   0  0  0  0  0  0  0  0  0  0  0  0
    8.1463   -1.7541   26.2074 O   0  0  0  0  0  0  0  0  0  0  0  0
    9.1141   -2.3424   24.1718 N   0  0  0  0  0  0  0  0  0  0  0  0
    9.7912   -2.1795   21.9447 O   0  0  0  0  0  0  0  0  0  0  0  0
    6.2791    0.0004   21.9525 C   0  0  0  0  0  0  0  0  0  0  0  0
    7.7921    0.3373   21.9517 C   0  0  0  0  0  0  0  0  0  0  0  0
    7.8234   -0.9748   22.7774 C   0  0  0  0  0  0  0  0  0  0  0  0
    6.6721   -1.4974   21.8821 C   0  0  0  0  0  0  0  0  0  0  0  0
    8.2147   -1.6639   24.9929 C   0  0  0  0  0  0  0  0  0  0  0  0
    9.0280   -1.9012   22.8506 C   0  0  0  0  0  0  0  0  0  0  0  0
    6.8182   -0.2238   24.5398 H   0  0  0  0  0  0  0  0  0  0  0  0
   10.0778   -5.0309   26.3854 N   0  0  0  0  0  0  0  0  0  0  0  0
   10.0577   -3.3203   24.6437 C   0  0  0  0  0  0  0  0  0  0  0  0
    9.5414   -4.4194   25.3271 C   0  0  0  0  0  0  0  0  0  0  0  0
   11.2306   -4.5705   26.8258 C   0  0  0  0  0  0  0  0  0  0  0  0
   11.9301   -3.4994   26.2253 C   0  0  0  0  0  0  0  0  0  0  0  0
   13.1918   -3.0488   26.6871 C   0  0  0  0  0  0  0  0  0  0  0  0
   13.8406   -2.0309   26.0504 C   0  0  0  0  0  0  0  0  0  0  0  0
   13.2768   -1.4149   24.9447 C   0  0  0  0  0  0  0  0  0  0  0  0
   12.0585   -1.8107   24.4714 C   0  0  0  0  0  0  0  0  0  0  0  0
   11.3399   -2.8649   25.0924 C   0  0  0  0  0  0  0  0  0  0  0  0
    5.4716    0.5101   19.5796 C   0  0  0  0  0  0  0  0  0  0  0  0
    6.9111   -0.2139   18.9162 Cl  0  0  0  0  0  0  0  0  0  0  0  0
    4.5317    0.9983   18.6859 C   0  0  0  0  0  0  0  0  0  0  0  0
    3.4040    1.6409   19.1722 C   0  0  0  0  0  0  0  0  0  0  0  0
    3.2258    1.7870   20.5291 C   0  0  0  0  0  0  0  0  0  0  0  0
    4.1605    1.2756   21.4172 C   0  0  0  0  0  0  0  0  0  0  0  0
    5.3044    0.6210   20.9621 C   0  0  0  0  0  0  0  0  0  0  0  0
  1  7  1  0
  1  9  1  0
  1 11  1  0
 22 23  1  0
 22 24  2  0
 22 28  1  0
  2  9  2  0
 24 25  1  0
  3  9  1  0
  3 10  1  0
  3 13  1  0
  4 10  2  0
 25 26  2  0
 12 14  2  0
 12 15  1  0
 26 27  1  0
 27 28  2  0
 28  5  1  0
  5  6  1  0
  5  8  1  0
  6  7  1  0
  7  8  1  0
  7 10  1  0
 13 14  1  0
 13 21  2  0
 15 16  2  0
 16 17  1  0
 16 21  1  0
 17 18  2  0
 18 19  1  0
 19 20  2  0
 20 21  1  0
M  END
> <minimizedAffinity>
-9.08001

> <CNNscore>
0.4904720783

> <CNNaffinity>
6.1489448547

> <CNN_VS>
3.0158858299

> <CNNaffinity_variance>
0.0516010597

$$$$
complex-mers-lig.pdb


 28 32  0  0  0  0  0  0  0  0999 V2000
    9.6842    1.3574   22.4632 N   0  0  0  0  0  0  0  0  0  0  0  0
    9.6395   -0.7370   21.5183 O   0  0  0  0  0  0  0  0  0  0  0  0
    9.7952   -0.3766   23.8146 N   0  0  0  0  0  0  0  0  0  0  0  0
    9.5969    0.6952   25.8778 O   0  0  0  0  0  0  0  0  0  0  0  0
   10.1718    3.8707   23.2946 C   0  0  0  0  0  0  0  0  0  0  0  0
    8.9579    3.2444   24.0272 C   0  0  0  0  0  0  0  0  0  0  0  0
    9.7998    1.9644   23.7885 C   0  0  0  0  0  0  0  0  0  0  0  0
   11.0676    2.8270   24.0095 C   0  0  0  0  0  0  0  0  0  0  0  0
    9.7211    0.0120   22.4776 C   0  0  0  0  0  0  0  0  0  0  0  0
    9.7260    0.7253   24.6682 C   0  0  0  0  0  0  0  0  0  0  0  0
    9.5882    1.8840   21.6369 H   0  0  0  0  0  0  0  0  0  0  0  0
    8.5051   -3.1905   25.6783 N   0  0  0  0  0  0  0  0  0  0  0  0
    9.8622   -1.7444   24.2546 C   0  0  0  0  0  0  0  0  0  0  0  0
    8.6696   -2.3357   24.6665 C   0  0  0  0  0  0  0  0  0  0  0  0
    9.5815   -3.5388   26.3527 C   0  0  0  0  0  0  0  0  0  0  0  0
   10.8835   -3.0840   26.0442 C   0  0  0  0  0  0  0  0  0  0  0  0
   12.0350   -3.5067   26.7537 C   0  0  0  0  0  0  0  0  0  0  0  0
   13.2740   -3.0620   26.3937 C   0  0  0  0  0  0  0  0  0  0  0  0
   13.4299   -2.1851   25.3323 C   0  0  0  0  0  0  0  0  0  0  0  0
   12.3469   -1.7445   24.6268 C   0  0  0  0  0  0  0  0  0  0  0  0
   11.0354   -2.1752   24.9553 C   0  0  0  0  0  0  0  0  0  0  0  0
   10.3247    6.1134   24.5151 C   0  0  0  0  0  0  0  0  0  0  0  0
    9.6120    5.4060   25.9392 Cl  0  0  0  0  0  0  0  0  0  0  0  0
   10.6922    7.4480   24.5799 C   0  0  0  0  0  0  0  0  0  0  0  0
   11.2012    8.0664   23.4488 C   0  0  0  0  0  0  0  0  0  0  0  0
   11.3388    7.3558   22.2782 C   0  0  0  0  0  0  0  0  0  0  0  0
   10.9894    6.0144   22.2281 C   0  0  0  0  0  0  0  0  0  0  0  0
   10.4774    5.3606   23.3482 C   0  0  0  0  0  0  0  0  0  0  0  0
  1  7  1  0
  1  9  1  0
  1 11  1  0
 22 23  1  0
 22 24  2  0
 22 28  1  0
  2  9  2  0
 24 25  1  0
  3  9  1  0
  3 10  1  0
  3 13  1  0
  4 10  2  0
 25 26  2  0
 12 14  2  0
 12 15  1  0
 26 27  1  0
 27 28  2  0
 28  5  1  0
  5  6  1  0
  5  8  1  0
  6  7  1  0
  7  8  1  0
  7 10  1  0
 13 14  1  0
 13 21  2  0
 15 16  2  0
 16 17  1  0
 16 21  1  0
 17 18  2  0
 18 19  1  0
 19 20  2  0
 20 21  1  0
M  END
> <minimizedAffinity>
-8.21147

> <CNNscore>
0.4668515623

> <CNNaffinity>
6.1276254654

> <CNN_VS>
2.8606915474

> <CNNaffinity_variance>
0.1702045202

$$$$
complex-mers-lig.pdb


 28 32  0  0  0  0  0  0  0  0999 V2000
    9.2070    2.2449   22.2783 N   0  0  0  0  0  0  0  0  0  0  0  0
    8.9698    0.1282   21.4153 O   0  0  0  0  0  0  0  0  0  0  0  0
    9.2947    0.5522   23.6828 N   0  0  0  0  0  0  0  0  0  0  0  0
    9.2972    1.7012   25.7137 O   0  0  0  0  0  0  0  0  0  0  0  0
    9.9046    4.7466   22.9854 C   0  0  0  0  0  0  0  0  0  0  0  0
    8.7030    4.2251   23.8142 C   0  0  0  0  0  0  0  0  0  0  0  0
    9.4455    2.8857   23.5709 C   0  0  0  0  0  0  0  0  0  0  0  0
   10.7767    3.6705   23.6813 C   0  0  0  0  0  0  0  0  0  0  0  0
    9.1598    0.9010   22.3397 C   0  0  0  0  0  0  0  0  0  0  0  0
    9.3501    1.6835   24.4982 C   0  0  0  0  0  0  0  0  0  0  0  0
    9.0918    2.7494   21.4409 H   0  0  0  0  0  0  0  0  0  0  0  0
    8.0885   -2.0546   25.8751 N   0  0  0  0  0  0  0  0  0  0  0  0
    9.3034   -0.8020   24.1676 C   0  0  0  0  0  0  0  0  0  0  0  0
    8.1519   -1.2511   24.8111 C   0  0  0  0  0  0  0  0  0  0  0  0
    9.2289   -2.4965   26.3639 C   0  0  0  0  0  0  0  0  0  0  0  0
   10.4924   -2.1919   25.8090 C   0  0  0  0  0  0  0  0  0  0  0  0
   11.7052   -2.7148   26.3227 C   0  0  0  0  0  0  0  0  0  0  0  0
   12.8968   -2.4151   25.7288 C   0  0  0  0  0  0  0  0  0  0  0  0
   12.9450   -1.5900   24.6166 C   0  0  0  0  0  0  0  0  0  0  0  0
   11.8017   -1.0565   24.0940 C   0  0  0  0  0  0  0  0  0  0  0  0
   10.5349   -1.3356   24.6691 C   0  0  0  0  0  0  0  0  0  0  0  0
    9.6709    7.1742   23.7569 C   0  0  0  0  0  0  0  0  0  0  0  0
    8.2620    6.7582   24.6942 Cl  0  0  0  0  0  0  0  0  0  0  0  0
   10.1026    8.4902   23.8018 C   0  0  0  0  0  0  0  0  0  0  0  0
   11.1792    8.8772   23.0193 C   0  0  0  0  0  0  0  0  0  0  0  0
   11.8085    7.9584   22.2106 C   0  0  0  0  0  0  0  0  0  0  0  0
   11.3840    6.6381   22.1886 C   0  0  0  0  0  0  0  0  0  0  0  0
   10.3065    6.2143   22.9655 C   0  0  0  0  0  0  0  0  0  0  0  0
  1  7  1  0
  1  9  1  0
  1 11  1  0
 22 23  1  0
 22 24  2  0
 22 28  1  0
  2  9  2  0
 24 25  1  0
  3  9  1  0
  3 10  1  0
  3 13  1  0
  4 10  2  0
 25 26  2  0
 12 14  2  0
 12 15  1  0
 26 27  1  0
 27 28  2  0
 28  5  1  0
  5  6  1  0
  5  8  1  0
  6  7  1  0
  7  8  1  0
  7 10  1  0
 13 14  1  0
 13 21  2  0
 15 16  2  0
 16 17  1  0
 16 21  1  0
 17 18  2  0
 18 19  1  0
 19 20  2  0
 20 21  1  0
M  END
> <minimizedAffinity>
-7.69448

> <CNNscore>
0.4591584802

> <CNNaffinity>
6.0977954865

> <CNN_VS>
2.7998545170

> <CNNaffinity_variance>
0.4386263490

$$$$
complex-mers-lig.pdb


 28 32  0  0  0  0  0  0  0  0999 V2000
    8.0440   -1.5136   22.9222 N   0  0  0  0  0  0  0  0  0  0  0  0
    5.8734   -1.4631   22.1693 O   0  0  0  0  0  0  0  0  0  0  0  0
    7.2775    0.3954   22.1391 N   0  0  0  0  0  0  0  0  0  0  0  0
    9.2461    1.6480   22.1068 O   0  0  0  0  0  0  0  0  0  0  0  0
   10.3726   -1.6958   24.2601 C   0  0  0  0  0  0  0  0  0  0  0  0
   10.5774   -1.1921   22.8086 C   0  0  0  0  0  0  0  0  0  0  0  0
    9.1725   -0.5987   23.0886 C   0  0  0  0  0  0  0  0  0  0  0  0
    9.6246   -0.3700   24.5526 C   0  0  0  0  0  0  0  0  0  0  0  0
    6.9433   -0.9302   22.4123 C   0  0  0  0  0  0  0  0  0  0  0  0
    8.6254    0.6439   22.4022 C   0  0  0  0  0  0  0  0  0  0  0  0
    8.0855   -2.4678   23.1609 H   0  0  0  0  0  0  0  0  0  0  0  0
    4.2075    2.2980   22.2456 N   0  0  0  0  0  0  0  0  0  0  0  0
    6.3640    1.3608   21.5889 C   0  0  0  0  0  0  0  0  0  0  0  0
    5.4817    1.9742   22.4760 C   0  0  0  0  0  0  0  0  0  0  0  0
    3.7277    2.0366   21.0471 C   0  0  0  0  0  0  0  0  0  0  0  0
    4.4905    1.4683   20.0020 C   0  0  0  0  0  0  0  0  0  0  0  0
    3.9679    1.2372   18.7053 C   0  0  0  0  0  0  0  0  0  0  0  0
    4.7574    0.7157   17.7218 C   0  0  0  0  0  0  0  0  0  0  0  0
    6.0824    0.3970   17.9729 C   0  0  0  0  0  0  0  0  0  0  0  0
    6.6246    0.5944   19.2106 C   0  0  0  0  0  0  0  0  0  0  0  0
    5.8513    1.1354   20.2702 C   0  0  0  0  0  0  0  0  0  0  0  0
   11.4663   -3.3563   25.8693 C   0  0  0  0  0  0  0  0  0  0  0  0
    9.9841   -4.2679   25.9624 Cl  0  0  0  0  0  0  0  0  0  0  0  0
   12.5545   -3.8309   26.5840 C   0  0  0  0  0  0  0  0  0  0  0  0
   13.7322   -3.1001   26.5901 C   0  0  0  0  0  0  0  0  0  0  0  0
   13.8128   -1.9179   25.8900 C   0  0  0  0  0  0  0  0  0  0  0  0
   12.7259   -1.4614   25.1590 C   0  0  0  0  0  0  0  0  0  0  0  0
   11.5274   -2.1734   25.1287 C   0  0  0  0  0  0  0  0  0  0  0  0
  1  7  1  0
  1  9  1  0
  1 11  1  0
 22 23  1  0
 22 24  2  0
 22 28  1  0
  2  9  2  0
 24 25  1  0
  3  9  1  0
  3 10  1  0
  3 13  1  0
  4 10  2  0
 25 26  2  0
 12 14  2  0
 12 15  1  0
 26 27  1  0
 27 28  2  0
 28  5  1  0
  5  6  1  0
  5  8  1  0
  6  7  1  0
  7  8  1  0
  7 10  1  0
 13 14  1  0
 13 21  2  0
 15 16  2  0
 16 17  1  0
 16 21  1  0
 17 18  2  0
 18 19  1  0
 19 20  2  0
 20 21  1  0
M  END
> <minimizedAffinity>
-8.23342

> <CNNscore>
0.4366252720

> <CNNaffinity>
6.2165284157

> <CNN_VS>
2.7142934799

> <CNNaffinity_variance>
0.4103770256

$$$$
complex-mers-lig.pdb


 28 32  0  0  0  0  0  0  0  0999 V2000
    6.7213    2.1992   21.4635 N   0  0  0  0  0  0  0  0  0  0  0  0
    4.6245    2.7135   20.6759 O   0  0  0  0  0  0  0  0  0  0  0  0
    5.7347    3.9911   22.2765 N   0  0  0  0  0  0  0  0  0  0  0  0
    7.4921    4.9058   23.5095 O   0  0  0  0  0  0  0  0  0  0  0  0
    8.9531    1.1595   22.5513 C   0  0  0  0  0  0  0  0  0  0  0  0
    9.1802    2.6028   22.0337 C   0  0  0  0  0  0  0  0  0  0  0  0
    7.6866    2.7084   22.4366 C   0  0  0  0  0  0  0  0  0  0  0  0
    7.9975    1.7544   23.6171 C   0  0  0  0  0  0  0  0  0  0  0  0
    5.5838    2.9162   21.4016 C   0  0  0  0  0  0  0  0  0  0  0  0
    7.0092    4.0079   22.8452 C   0  0  0  0  0  0  0  0  0  0  0  0
    6.8879    1.4056   20.9053 H   0  0  0  0  0  0  0  0  0  0  0  0
    2.3095    4.9939   22.8407 N   0  0  0  0  0  0  0  0  0  0  0  0
    4.7277    4.9923   22.5057 C   0  0  0  0  0  0  0  0  0  0  0  0
    3.5464    4.5738   23.1148 C   0  0  0  0  0  0  0  0  0  0  0  0
    2.1805    5.9206   21.9137 C   0  0  0  0  0  0  0  0  0  0  0  0
    3.2702    6.5038   21.2285 C   0  0  0  0  0  0  0  0  0  0  0  0
    3.1133    7.5326   20.2667 C   0  0  0  0  0  0  0  0  0  0  0  0
    4.2024    8.0847   19.6573 C   0  0  0  0  0  0  0  0  0  0  0  0
    5.4813    7.6471   19.9623 C   0  0  0  0  0  0  0  0  0  0  0  0
    5.6782    6.6515   20.8760 C   0  0  0  0  0  0  0  0  0  0  0  0
    4.5831    6.0426   21.5419 C   0  0  0  0  0  0  0  0  0  0  0  0
   11.2650    0.7083   23.5485 C   0  0  0  0  0  0  0  0  0  0  0  0
   11.5226    2.4177   23.7674 Cl  0  0  0  0  0  0  0  0  0  0  0  0
   12.2675   -0.1488   23.9738 C   0  0  0  0  0  0  0  0  0  0  0  0
   12.1312   -1.5110   23.7579 C   0  0  0  0  0  0  0  0  0  0  0  0
   11.0089   -1.9998   23.1288 C   0  0  0  0  0  0  0  0  0  0  0  0
   10.0000   -1.1371   22.7263 C   0  0  0  0  0  0  0  0  0  0  0  0
   10.1035    0.2382   22.9309 C   0  0  0  0  0  0  0  0  0  0  0  0
  1  7  1  0
  1  9  1  0
  1 11  1  0
 22 23  1  0
 22 24  2  0
 22 28  1  0
  2  9  2  0
 24 25  1  0
  3  9  1  0
  3 10  1  0
  3 13  1  0
  4 10  2  0
 25 26  2  0
 12 14  2  0
 12 15  1  0
 26 27  1  0
 27 28  2  0
 28  5  1  0
  5  6  1  0
  5  8  1  0
  6  7  1  0
  7  8  1  0
  7 10  1  0
 13 14  1  0
 13 21  2  0
 15 16  2  0
 16 17  1  0
 16 21  1  0
 17 18  2  0
 18 19  1  0
 19 20  2  0
 20 21  1  0
M  END
> <minimizedAffinity>
-6.73851

> <CNNscore>
0.4247804582

> <CNNaffinity>
5.9724059105

> <CNN_VS>
2.5369613171

> <CNNaffinity_variance>
0.4771438539

$$$$
complex-mers-lig.pdb


 28 32  0  0  0  0  0  0  0  0999 V2000
    8.3082   -1.1683   21.9708 N   0  0  0  0  0  0  0  0  0  0  0  0
   10.4415   -1.9976   21.7640 O   0  0  0  0  0  0  0  0  0  0  0  0
    9.0394   -2.5150   23.5509 N   0  0  0  0  0  0  0  0  0  0  0  0
    7.0729   -2.8300   24.7669 O   0  0  0  0  0  0  0  0  0  0  0  0
    6.0444    0.2651   22.2273 C   0  0  0  0  0  0  0  0  0  0  0  0
    5.7726   -1.2599   22.2818 C   0  0  0  0  0  0  0  0  0  0  0  0
    7.1897   -1.2307   22.9106 C   0  0  0  0  0  0  0  0  0  0  0  0
    6.8067    0.1183   23.5691 C   0  0  0  0  0  0  0  0  0  0  0  0
    9.3846   -1.8763   22.3607 C   0  0  0  0  0  0  0  0  0  0  0  0
    7.7055   -2.2780   23.8861 C   0  0  0  0  0  0  0  0  0  0  0  0
    8.2770   -0.6559   21.1307 H   0  0  0  0  0  0  0  0  0  0  0  0
    9.7293   -4.8096   26.2556 N   0  0  0  0  0  0  0  0  0  0  0  0
    9.9273   -3.3664   24.2965 C   0  0  0  0  0  0  0  0  0  0  0  0
    9.3444   -4.3826   25.0510 C   0  0  0  0  0  0  0  0  0  0  0  0
   10.7866   -4.2328   26.7888 C   0  0  0  0  0  0  0  0  0  0  0  0
   11.5386   -3.2232   26.1467 C   0  0  0  0  0  0  0  0  0  0  0  0
   12.7005   -2.6475   26.7182 C   0  0  0  0  0  0  0  0  0  0  0  0
   13.4095   -1.6982   26.0410 C   0  0  0  0  0  0  0  0  0  0  0  0
   13.0048   -1.2748   24.7852 C   0  0  0  0  0  0  0  0  0  0  0  0
   11.8859   -1.7958   24.2008 C   0  0  0  0  0  0  0  0  0  0  0  0
   11.1114   -2.7868   24.8577 C   0  0  0  0  0  0  0  0  0  0  0  0
    4.9142    2.5041   22.7299 C   0  0  0  0  0  0  0  0  0  0  0  0
    6.0981    2.8440   23.9625 Cl  0  0  0  0  0  0  0  0  0  0  0  0
    3.9467    3.4668   22.4901 C   0  0  0  0  0  0  0  0  0  0  0  0
    2.9478    3.2079   21.5648 C   0  0  0  0  0  0  0  0  0  0  0  0
    2.9248    2.0063   20.8942 C   0  0  0  0  0  0  0  0  0  0  0  0
    3.9099    1.0571   21.1238 C   0  0  0  0  0  0  0  0  0  0  0  0
    4.9309    1.2864   22.0454 C   0  0  0  0  0  0  0  0  0  0  0  0
  1  7  1  0
  1  9  1  0
  1 11  1  0
 22 23  1  0
 22 24  2  0
 22 28  1  0
  2  9  2  0
 24 25  1  0
  3  9  1  0
  3 10  1  0
  3 13  1  0
  4 10  2  0
 25 26  2  0
 12 14  2  0
 12 15  1  0
 26 27  1  0
 27 28  2  0
 28  5  1  0
  5  6  1  0
  5  8  1  0
  6  7  1  0
  7  8  1  0
  7 10  1  0
 13 14  1  0
 13 21  2  0
 15 16  2  0
 16 17  1  0
 16 21  1  0
 17 18  2  0
 18 19  1  0
 19 20  2  0
 20 21  1  0
M  END
> <minimizedAffinity>
-6.77606

> <CNNscore>
0.4043304026

> <CNNaffinity>
6.1609239578

> <CNN_VS>
2.4910488129

> <CNNaffinity_variance>
0.4570304453

$$$$
complex-mers-lig.pdb


 28 32  0  0  0  0  0  0  0  0999 V2000
   10.0189    0.8611   22.8447 N   0  0  0  0  0  0  0  0  0  0  0  0
   11.8751    1.3994   24.0881 O   0  0  0  0  0  0  0  0  0  0  0  0
   10.7911   -0.6570   24.2392 N   0  0  0  0  0  0  0  0  0  0  0  0
    9.4751   -2.4848   23.6288 O   0  0  0  0  0  0  0  0  0  0  0  0
    7.6247    0.6288   21.6368 C   0  0  0  0  0  0  0  0  0  0  0  0
    8.5850   -0.5227   21.2437 C   0  0  0  0  0  0  0  0  0  0  0  0
    9.0862   -0.2539   22.6862 C   0  0  0  0  0  0  0  0  0  0  0  0
    7.6190    0.0544   23.0765 C   0  0  0  0  0  0  0  0  0  0  0  0
   10.9751    0.6416   23.7664 C   0  0  0  0  0  0  0  0  0  0  0  0
    9.7578   -1.3033   23.5592 C   0  0  0  0  0  0  0  0  0  0  0  0
    9.9537    1.6949   22.3254 H   0  0  0  0  0  0  0  0  0  0  0  0
   13.6672   -2.5868   25.2686 N   0  0  0  0  0  0  0  0  0  0  0  0
   11.6106   -1.2716   25.2490 C   0  0  0  0  0  0  0  0  0  0  0  0
   12.9403   -1.5238   24.9176 C   0  0  0  0  0  0  0  0  0  0  0  0
   13.0839   -3.4899   26.0295 C   0  0  0  0  0  0  0  0  0  0  0  0
   11.7595   -3.3761   26.5094 C   0  0  0  0  0  0  0  0  0  0  0  0
   11.1655   -4.3370   27.3649 C   0  0  0  0  0  0  0  0  0  0  0  0
    9.8931   -4.1626   27.8267 C   0  0  0  0  0  0  0  0  0  0  0  0
    9.1558   -3.0468   27.4641 C   0  0  0  0  0  0  0  0  0  0  0  0
    9.6854   -2.1006   26.6341 C   0  0  0  0  0  0  0  0  0  0  0  0
   11.0039   -2.2289   26.1255 C   0  0  0  0  0  0  0  0  0  0  0  0
    6.0873    0.3925   19.6061 C   0  0  0  0  0  0  0  0  0  0  0  0
    7.3299   -0.4744   18.7453 Cl  0  0  0  0  0  0  0  0  0  0  0  0
    4.8736    0.5762   18.9630 C   0  0  0  0  0  0  0  0  0  0  0  0
    3.8819    1.3172   19.5862 C   0  0  0  0  0  0  0  0  0  0  0  0
    4.1068    1.8599   20.8308 C   0  0  0  0  0  0  0  0  0  0  0  0
    5.3164    1.6523   21.4771 C   0  0  0  0  0  0  0  0  0  0  0  0
    6.3343    0.9093   20.8803 C   0  0  0  0  0  0  0  0  0  0  0  0
  1  7  1  0
  1  9  1  0
  1 11  1  0
 22 23  1  0
 22 24  2  0
 22 28  1  0
  2  9  2  0
 24 25  1  0
  3  9  1  0
  3 10  1  0
  3 13  1  0
  4 10  2  0
 25 26  2  0
 12 14  2  0
 12 15  1  0
 26 27  1  0
 27 28  2  0
 28  5  1  0
  5  6  1  0
  5  8  1  0
  6  7  1  0
  7  8  1  0
  7 10  1  0
 13 14  1  0
 13 21  2  0
 15 16  2  0
 16 17  1  0
 16 21  1  0
 17 18  2  0
 18 19  1  0
 19 20  2  0
 20 21  1  0
M  END
> <minimizedAffinity>
-8.98166

> <CNNscore>
0.3930144906

> <CNNaffinity>
6.1110420227

> <CNN_VS>
2.4017281532

> <CNNaffinity_variance>
0.1525208503

$$$$
complex-mers-lig.pdb


 28 32  0  0  0  0  0  0  0  0999 V2000
    9.2816    0.6688   22.4634 N   0  0  0  0  0  0  0  0  0  0  0  0
    7.8084    1.3464   20.8349 O   0  0  0  0  0  0  0  0  0  0  0  0
    7.9618    2.3698   22.9219 N   0  0  0  0  0  0  0  0  0  0  0  0
    8.8720    3.0611   24.9564 O   0  0  0  0  0  0  0  0  0  0  0  0
   10.7467   -0.5726   24.3494 C   0  0  0  0  0  0  0  0  0  0  0  0
   11.1438    0.9179   24.1967 C   0  0  0  0  0  0  0  0  0  0  0  0
    9.6385    1.0169   23.8380 C   0  0  0  0  0  0  0  0  0  0  0  0
    9.3749   -0.0917   24.8877 C   0  0  0  0  0  0  0  0  0  0  0  0
    8.2903    1.4229   21.9528 C   0  0  0  0  0  0  0  0  0  0  0  0
    8.8020    2.2728   24.0321 C   0  0  0  0  0  0  0  0  0  0  0  0
    9.7251   -0.0503   21.9581 H   0  0  0  0  0  0  0  0  0  0  0  0
    6.7149    5.7447   23.2559 N   0  0  0  0  0  0  0  0  0  0  0  0
    6.9342    3.3637   22.7631 C   0  0  0  0  0  0  0  0  0  0  0  0
    7.3428    4.6952   22.7212 C   0  0  0  0  0  0  0  0  0  0  0  0
    5.5735    5.5134   23.8712 C   0  0  0  0  0  0  0  0  0  0  0  0
    4.9762    4.2361   23.9651 C   0  0  0  0  0  0  0  0  0  0  0  0
    3.7245    4.0157   24.5920 C   0  0  0  0  0  0  0  0  0  0  0  0
    3.1762    2.7665   24.6265 C   0  0  0  0  0  0  0  0  0  0  0  0
    3.8341    1.6892   24.0552 C   0  0  0  0  0  0  0  0  0  0  0  0
    5.0466    1.8542   23.4491 C   0  0  0  0  0  0  0  0  0  0  0  0
    5.6631    3.1305   23.3816 C   0  0  0  0  0  0  0  0  0  0  0  0
   11.1284   -2.8298   25.4906 C   0  0  0  0  0  0  0  0  0  0  0  0
    9.4581   -3.2581   25.2393 Cl  0  0  0  0  0  0  0  0  0  0  0  0
   11.9429   -3.7671   26.1058 C   0  0  0  0  0  0  0  0  0  0  0  0
   13.2610   -3.4409   26.3840 C   0  0  0  0  0  0  0  0  0  0  0  0
   13.7487   -2.1985   26.0483 C   0  0  0  0  0  0  0  0  0  0  0  0
   12.9328   -1.2743   25.4125 C   0  0  0  0  0  0  0  0  0  0  0  0
   11.6032   -1.5708   25.1151 C   0  0  0  0  0  0  0  0  0  0  0  0
  1  7  1  0
  1  9  1  0
  1 11  1  0
 22 23  1  0
 22 24  2  0
 22 28  1  0
  2  9  2  0
 24 25  1  0
  3  9  1  0
  3 10  1  0
  3 13  1  0
  4 10  2  0
 25 26  2  0
 12 14  2  0
 12 15  1  0
 26 27  1  0
 27 28  2  0
 28  5  1  0
  5  6  1  0
  5  8  1  0
  6  7  1  0
  7  8  1  0
  7 10  1  0
 13 14  1  0
 13 21  2  0
 15 16  2  0
 16 17  1  0
 16 21  1  0
 17 18  2  0
 18 19  1  0
 19 20  2  0
 20 21  1  0
M  END
> <minimizedAffinity>
-6.62229

> <CNNscore>
0.3627665341

> <CNNaffinity>
6.0467634201

> <CNN_VS>
2.1935634613

> <CNNaffinity_variance>
0.4545648694

$$$$
complex-mers-lig.pdb


 28 32  0  0  0  0  0  0  0  0999 V2000
    8.2601   -4.0981   27.4648 N   0  0  0  0  0  0  0  0  0  0  0  0
   10.0820   -5.4791   27.2303 O   0  0  0  0  0  0  0  0  0  0  0  0
   10.0257   -3.2939   26.4249 N   0  0  0  0  0  0  0  0  0  0  0  0
    9.3976   -1.0562   26.2162 O   0  0  0  0  0  0  0  0  0  0  0  0
    5.8808   -2.8395   27.4569 C   0  0  0  0  0  0  0  0  0  0  0  0
    6.9856   -1.9837   28.1276 C   0  0  0  0  0  0  0  0  0  0  0  0
    7.8487   -2.7461   27.0892 C   0  0  0  0  0  0  0  0  0  0  0  0
    6.6438   -2.6702   26.1182 C   0  0  0  0  0  0  0  0  0  0  0  0
    9.4977   -4.4241   27.0476 C   0  0  0  0  0  0  0  0  0  0  0  0
    9.1506   -2.2103   26.5126 C   0  0  0  0  0  0  0  0  0  0  0  0
    7.6853   -4.7130   27.9755 H   0  0  0  0  0  0  0  0  0  0  0  0
   13.5618   -2.5659   26.5748 N   0  0  0  0  0  0  0  0  0  0  0  0
   11.3351   -3.2370   25.8322 C   0  0  0  0  0  0  0  0  0  0  0  0
   12.4242   -3.2526   26.7011 C   0  0  0  0  0  0  0  0  0  0  0  0
   13.6906   -1.8067   25.5062 C   0  0  0  0  0  0  0  0  0  0  0  0
   12.7139   -1.7086   24.4895 C   0  0  0  0  0  0  0  0  0  0  0  0
   12.8915   -0.9212   23.3248 C   0  0  0  0  0  0  0  0  0  0  0  0
   11.9298   -0.8871   22.3571 C   0  0  0  0  0  0  0  0  0  0  0  0
   10.7598   -1.6162   22.4965 C   0  0  0  0  0  0  0  0  0  0  0  0
   10.5429   -2.3810   23.6069 C   0  0  0  0  0  0  0  0  0  0  0  0
   11.5087   -2.4558   24.6438 C   0  0  0  0  0  0  0  0  0  0  0  0
    3.5729   -3.1295   28.5210 C   0  0  0  0  0  0  0  0  0  0  0  0
    4.1671   -4.4503   29.4898 Cl  0  0  0  0  0  0  0  0  0  0  0  0
    2.2495   -2.7557   28.6926 C   0  0  0  0  0  0  0  0  0  0  0  0
    1.7193   -1.7541   27.8947 C   0  0  0  0  0  0  0  0  0  0  0  0
    2.5053   -1.1408   26.9458 C   0  0  0  0  0  0  0  0  0  0  0  0
    3.8351   -1.5055   26.7959 C   0  0  0  0  0  0  0  0  0  0  0  0
    4.4012   -2.5069   27.5840 C   0  0  0  0  0  0  0  0  0  0  0  0
  1  7  1  0
  1  9  1  0
  1 11  1  0
 22 23  1  0
 22 24  2  0
 22 28  1  0
  2  9  2  0
 24 25  1  0
  3  9  1  0
  3 10  1  0
  3 13  1  0
  4 10  2  0
 25 26  2  0
 12 14  2  0
 12 15  1  0
 26 27  1  0
 27 28  2  0
 28  5  1  0
  5  6  1  0
  5  8  1  0
  6  7  1  0
  7  8  1  0
  7 10  1  0
 13 14  1  0
 13 21  2  0
 15 16  2  0
 16 17  1  0
 16 21  1  0
 17 18  2  0
 18 19  1  0
 19 20  2  0
 20 21  1  0
M  END
> <minimizedAffinity>
-6.95234

> <CNNscore>
0.3441857100

> <CNNaffinity>
5.8405733109

> <CNN_VS>
2.0102419853

> <CNNaffinity_variance>
0.1169361845

$$$$
complex-mers-lig.pdb


 28 32  0  0  0  0  0  0  0  0999 V2000
    9.0537    0.9686   22.4217 N   0  0  0  0  0  0  0  0  0  0  0  0
    9.4494   -0.9648   21.2441 O   0  0  0  0  0  0  0  0  0  0  0  0
    9.7897   -0.7781   23.5410 N   0  0  0  0  0  0  0  0  0  0  0  0
    9.5735    0.0115   25.7262 O   0  0  0  0  0  0  0  0  0  0  0  0
    8.9559    3.4355   23.4942 C   0  0  0  0  0  0  0  0  0  0  0  0
    8.0536    2.4352   24.2610 C   0  0  0  0  0  0  0  0  0  0  0  0
    9.1688    1.4651   23.7923 C   0  0  0  0  0  0  0  0  0  0  0  0
   10.1790    2.6228   23.9907 C   0  0  0  0  0  0  0  0  0  0  0  0
    9.4483   -0.3097   22.2730 C   0  0  0  0  0  0  0  0  0  0  0  0
    9.5375    0.1821   24.5219 C   0  0  0  0  0  0  0  0  0  0  0  0
    8.7187    1.5182   21.6768 H   0  0  0  0  0  0  0  0  0  0  0  0
    9.3203   -4.1616   24.7191 N   0  0  0  0  0  0  0  0  0  0  0  0
   10.2723   -2.1067   23.8074 C   0  0  0  0  0  0  0  0  0  0  0  0
    9.3212   -3.1223   23.8815 C   0  0  0  0  0  0  0  0  0  0  0  0
   10.3342   -4.2622   25.5540 C   0  0  0  0  0  0  0  0  0  0  0  0
   11.4190   -3.3571   25.5854 C   0  0  0  0  0  0  0  0  0  0  0  0
   12.5232   -3.5089   26.4606 C   0  0  0  0  0  0  0  0  0  0  0  0
   13.5614   -2.6238   26.4277 C   0  0  0  0  0  0  0  0  0  0  0  0
   13.5540   -1.5573   25.5431 C   0  0  0  0  0  0  0  0  0  0  0  0
   12.5059   -1.3674   24.6885 C   0  0  0  0  0  0  0  0  0  0  0  0
   11.4007   -2.2572   24.6774 C   0  0  0  0  0  0  0  0  0  0  0  0
    7.8187    5.7013   23.1543 C   0  0  0  0  0  0  0  0  0  0  0  0
    6.6582    4.9759   22.0756 Cl  0  0  0  0  0  0  0  0  0  0  0  0
    7.6871    7.0555   23.4176 C   0  0  0  0  0  0  0  0  0  0  0  0
    8.6280    7.6849   24.2174 C   0  0  0  0  0  0  0  0  0  0  0  0
    9.6776    6.9657   24.7421 C   0  0  0  0  0  0  0  0  0  0  0  0
    9.7894    5.6060   24.4918 C   0  0  0  0  0  0  0  0  0  0  0  0
    8.8588    4.9410   23.6943 C   0  0  0  0  0  0  0  0  0  0  0  0
  1  7  1  0
  1  9  1  0
  1 11  1  0
 22 23  1  0
 22 24  2  0
 22 28  1  0
  2  9  2  0
 24 25  1  0
  3  9  1  0
  3 10  1  0
  3 13  1  0
  4 10  2  0
 25 26  2  0
 12 14  2  0
 12 15  1  0
 26 27  1  0
 27 28  2  0
 28  5  1  0
  5  6  1  0
  5  8  1  0
  6  7  1  0
  7  8  1  0
  7 10  1  0
 13 14  1  0
 13 21  2  0
 15 16  2  0
 16 17  1  0
 16 21  1  0
 17 18  2  0
 18 19  1  0
 19 20  2  0
 20 21  1  0
M  END
> <minimizedAffinity>
-8.01151

> <CNNscore>
0.3402746916

> <CNNaffinity>
6.0190176964

> <CNN_VS>
2.0481193066

> <CNNaffinity_variance>
0.2811706960

$$$$
complex-mers-lig.pdb


 28 32  0  0  0  0  0  0  0  0999 V2000
    8.7206   -3.8509   28.3043 N   0  0  0  0  0  0  0  0  0  0  0  0
   10.8702   -4.5566   27.9015 O   0  0  0  0  0  0  0  0  0  0  0  0
    9.7818   -2.9693   26.5891 N   0  0  0  0  0  0  0  0  0  0  0  0
    8.2698   -1.2984   25.9833 O   0  0  0  0  0  0  0  0  0  0  0  0
    6.0777   -3.5206   28.6932 C   0  0  0  0  0  0  0  0  0  0  0  0
    6.8402   -2.1715   28.7265 C   0  0  0  0  0  0  0  0  0  0  0  0
    7.7327   -2.9441   27.7211 C   0  0  0  0  0  0  0  0  0  0  0  0
    6.4459   -3.6249   27.1911 C   0  0  0  0  0  0  0  0  0  0  0  0
    9.8841   -3.8926   27.6287 C   0  0  0  0  0  0  0  0  0  0  0  0
    8.5734   -2.2733   26.6451 C   0  0  0  0  0  0  0  0  0  0  0  0
    8.5505   -4.3816   29.1158 H   0  0  0  0  0  0  0  0  0  0  0  0
   13.2583   -2.5855   25.6822 N   0  0  0  0  0  0  0  0  0  0  0  0
   10.8213   -2.7195   25.6268 C   0  0  0  0  0  0  0  0  0  0  0  0
   12.0958   -3.1905   25.9356 C   0  0  0  0  0  0  0  0  0  0  0  0
   13.2103   -1.4300   25.0519 C   0  0  0  0  0  0  0  0  0  0  0  0
   12.0118   -0.8244   24.6113 C   0  0  0  0  0  0  0  0  0  0  0  0
   11.9851    0.3975   23.8940 C   0  0  0  0  0  0  0  0  0  0  0  0
   10.8019    0.9230   23.4626 C   0  0  0  0  0  0  0  0  0  0  0  0
    9.6042    0.2762   23.7219 C   0  0  0  0  0  0  0  0  0  0  0  0
    9.5825   -0.8985   24.4178 C   0  0  0  0  0  0  0  0  0  0  0  0
   10.7823   -1.4921   24.8888 C   0  0  0  0  0  0  0  0  0  0  0  0
    4.0032   -4.8966   29.2814 C   0  0  0  0  0  0  0  0  0  0  0  0
    4.7773   -6.3443   28.6969 Cl  0  0  0  0  0  0  0  0  0  0  0  0
    2.7286   -5.0224   29.8104 C   0  0  0  0  0  0  0  0  0  0  0  0
    2.0519   -3.8862   30.2253 C   0  0  0  0  0  0  0  0  0  0  0  0
    2.6467   -2.6503   30.1116 C   0  0  0  0  0  0  0  0  0  0  0  0
    3.9316   -2.5357   29.6018 C   0  0  0  0  0  0  0  0  0  0  0  0
    4.6417   -3.6584   29.1781 C   0  0  0  0  0  0  0  0  0  0  0  0
  1  7  1  0
  1  9  1  0
  1 11  1  0
 22 23  1  0
 22 24  2  0
 22 28  1  0
  2  9  2  0
 24 25  1  0
  3  9  1  0
  3 10  1  0
  3 13  1  0
  4 10  2  0
 25 26  2  0
 12 14  2  0
 12 15  1  0
 26 27  1  0
 27 28  2  0
 28  5  1  0
  5  6  1  0
  5  8  1  0
  6  7  1  0
  7  8  1  0
  7 10  1  0
 13 14  1  0
 13 21  2  0
 15 16  2  0
 16 17  1  0
 16 21  1  0
 17 18  2  0
 18 19  1  0
 19 20  2  0
 20 21  1  0
M  END
> <minimizedAffinity>
-7.35153

> <CNNscore>
0.3396647274

> <CNNaffinity>
5.5845842361

> <CNN_VS>
1.8968862295

> <CNNaffinity_variance>
0.1214185953

$$$$
complex-mers-lig.pdb


 28 32  0  0  0  0  0  0  0  0999 V2000
    7.3652   -0.0967   24.4329 N   0  0  0  0  0  0  0  0  0  0  0  0
    5.1781    0.6009   24.5392 O   0  0  0  0  0  0  0  0  0  0  0  0
    6.8737    1.8642   23.5618 N   0  0  0  0  0  0  0  0  0  0  0  0
    8.8981    2.3705   22.5173 O   0  0  0  0  0  0  0  0  0  0  0  0
    9.9013   -0.9083   24.8261 C   0  0  0  0  0  0  0  0  0  0  0  0
    9.5994   -0.6603   23.3261 C   0  0  0  0  0  0  0  0  0  0  0  0
    8.6556    0.3974   23.9545 C   0  0  0  0  0  0  0  0  0  0  0  0
    9.7259    0.6151   25.0533 C   0  0  0  0  0  0  0  0  0  0  0  0
    6.3493    0.7653   24.2409 C   0  0  0  0  0  0  0  0  0  0  0  0
    8.2194    1.6712   23.2461 C   0  0  0  0  0  0  0  0  0  0  0  0
    7.2500   -0.9780   24.8561 H   0  0  0  0  0  0  0  0  0  0  0  0
    5.4672    4.0646   21.0645 N   0  0  0  0  0  0  0  0  0  0  0  0
    6.1040    3.0163   23.1754 C   0  0  0  0  0  0  0  0  0  0  0  0
    5.5721    3.0189   21.8875 C   0  0  0  0  0  0  0  0  0  0  0  0
    5.8858    5.2292   21.5153 C   0  0  0  0  0  0  0  0  0  0  0  0
    6.4033    5.4288   22.8151 C   0  0  0  0  0  0  0  0  0  0  0  0
    6.8059    6.6993   23.2967 C   0  0  0  0  0  0  0  0  0  0  0  0
    7.2686    6.8429   24.5726 C   0  0  0  0  0  0  0  0  0  0  0  0
    7.3591    5.7499   25.4194 C   0  0  0  0  0  0  0  0  0  0  0  0
    6.9910    4.5057   24.9938 C   0  0  0  0  0  0  0  0  0  0  0  0
    6.5010    4.2977   23.6785 C   0  0  0  0  0  0  0  0  0  0  0  0
   12.4323   -1.2666   24.9191 C   0  0  0  0  0  0  0  0  0  0  0  0
   12.6714   -0.0010   23.7455 Cl  0  0  0  0  0  0  0  0  0  0  0  0
   13.5614   -1.8910   25.4248 C   0  0  0  0  0  0  0  0  0  0  0  0
   13.4127   -2.9469   26.3102 C   0  0  0  0  0  0  0  0  0  0  0  0
   12.1542   -3.3638   26.6798 C   0  0  0  0  0  0  0  0  0  0  0  0
   11.0297   -2.7188   26.1862 C   0  0  0  0  0  0  0  0  0  0  0  0
   11.1434   -1.6513   25.2965 C   0  0  0  0  0  0  0  0  0  0  0  0
  1  7  1  0
  1  9  1  0
  1 11  1  0
 22 23  1  0
 22 24  2  0
 22 28  1  0
  2  9  2  0
 24 25  1  0
  3  9  1  0
  3 10  1  0
  3 13  1  0
  4 10  2  0
 25 26  2  0
 12 14  2  0
 12 15  1  0
 26 27  1  0
 27 28  2  0
 28  5  1  0
  5  6  1  0
  5  8  1  0
  6  7  1  0
  7  8  1  0
  7 10  1  0
 13 14  1  0
 13 21  2  0
 15 16  2  0
 16 17  1  0
 16 21  1  0
 17 18  2  0
 18 19  1  0
 19 20  2  0
 20 21  1  0
M  END
> <minimizedAffinity>
-7.01364

> <CNNscore>
0.3346740603

> <CNNaffinity>
5.9962744713

> <CNN_VS>
2.0067975521

> <CNNaffinity_variance>
0.4029617310

$$$$
complex-mers-lig.pdb


 28 32  0  0  0  0  0  0  0  0999 V2000
    9.3975    2.1724   24.5616 N   0  0  0  0  0  0  0  0  0  0  0  0
    8.1336    0.3399   25.1326 O   0  0  0  0  0  0  0  0  0  0  0  0
   10.0528    0.2066   23.8189 N   0  0  0  0  0  0  0  0  0  0  0  0
   12.1250    0.7785   22.9112 O   0  0  0  0  0  0  0  0  0  0  0  0
   10.4453    4.4810   23.6575 C   0  0  0  0  0  0  0  0  0  0  0  0
   11.5130    3.5905   24.3428 C   0  0  0  0  0  0  0  0  0  0  0  0
   10.5875    2.4853   23.7715 C   0  0  0  0  0  0  0  0  0  0  0  0
   10.3430    3.4035   22.5479 C   0  0  0  0  0  0  0  0  0  0  0  0
    9.0700    0.8668   24.5550 C   0  0  0  0  0  0  0  0  0  0  0  0
   11.0609    1.0838   23.4164 C   0  0  0  0  0  0  0  0  0  0  0  0
    8.8835    2.8534   25.0527 H   0  0  0  0  0  0  0  0  0  0  0  0
    8.3763   -2.9001   23.0483 N   0  0  0  0  0  0  0  0  0  0  0  0
   10.0591   -1.2101   23.5700 C   0  0  0  0  0  0  0  0  0  0  0  0
    8.9870   -1.7304   22.8477 C   0  0  0  0  0  0  0  0  0  0  0  0
    8.8428   -3.6645   24.0142 C   0  0  0  0  0  0  0  0  0  0  0  0
    9.9575   -3.3269   24.8146 C   0  0  0  0  0  0  0  0  0  0  0  0
   10.4722   -4.1841   25.8188 C   0  0  0  0  0  0  0  0  0  0  0  0
   11.5721   -3.8238   26.5418 C   0  0  0  0  0  0  0  0  0  0  0  0
   12.2033   -2.6117   26.3126 C   0  0  0  0  0  0  0  0  0  0  0  0
   11.7356   -1.7508   25.3613 C   0  0  0  0  0  0  0  0  0  0  0  0
   10.5972   -2.0741   24.5783 C   0  0  0  0  0  0  0  0  0  0  0  0
   10.2158    6.9829   24.1380 C   0  0  0  0  0  0  0  0  0  0  0  0
    9.1626    6.6448   25.4844 Cl  0  0  0  0  0  0  0  0  0  0  0  0
   10.5233    8.3102   23.8846 C   0  0  0  0  0  0  0  0  0  0  0  0
   11.3036    8.6269   22.7838 C   0  0  0  0  0  0  0  0  0  0  0  0
   11.7659    7.6284   21.9571 C   0  0  0  0  0  0  0  0  0  0  0  0
   11.4722    6.3006   22.2306 C   0  0  0  0  0  0  0  0  0  0  0  0
   10.6926    5.9469   23.3313 C   0  0  0  0  0  0  0  0  0  0  0  0
  1  7  1  0
  1  9  1  0
  1 11  1  0
 22 23  1  0
 22 24  2  0
 22 28  1  0
  2  9  2  0
 24 25  1  0
  3  9  1  0
  3 10  1  0
  3 13  1  0
  4 10  2  0
 25 26  2  0
 12 14  2  0
 12 15  1  0
 26 27  1  0
 27 28  2  0
 28  5  1  0
  5  6  1  0
  5  8  1  0
  6  7  1  0
  7  8  1  0
  7 10  1  0
 13 14  1  0
 13 21  2  0
 15 16  2  0
 16 17  1  0
 16 21  1  0
 17 18  2  0
 18 19  1  0
 19 20  2  0
 20 21  1  0
M  END
> <minimizedAffinity>
-8.11732

> <CNNscore>
0.3162749112

> <CNNaffinity>
5.9171233177

> <CNN_VS>
1.8714376688

> <CNNaffinity_variance>
0.1147496104

$$$$
complex-mers-lig.pdb


 28 32  0  0  0  0  0  0  0  0999 V2000
    9.0889    0.7403   22.9672 N   0  0  0  0  0  0  0  0  0  0  0  0
    8.4072    2.0528   21.2081 O   0  0  0  0  0  0  0  0  0  0  0  0
    7.4856    2.2012   23.3424 N   0  0  0  0  0  0  0  0  0  0  0  0
    7.3037    2.0269   25.6623 O   0  0  0  0  0  0  0  0  0  0  0  0
    9.7261   -1.1905   24.7310 C   0  0  0  0  0  0  0  0  0  0  0  0
    9.9442    0.2264   25.3206 C   0  0  0  0  0  0  0  0  0  0  0  0
    8.7529    0.5247   24.3739 C   0  0  0  0  0  0  0  0  0  0  0  0
    8.2065   -0.8850   24.7119 C   0  0  0  0  0  0  0  0  0  0  0  0
    8.3321    1.6775   22.3663 C   0  0  0  0  0  0  0  0  0  0  0  0
    7.7553    1.6515   24.5966 C   0  0  0  0  0  0  0  0  0  0  0  0
    9.8023    0.2460   22.5026 H   0  0  0  0  0  0  0  0  0  0  0  0
    4.9035    3.7257   21.3263 N   0  0  0  0  0  0  0  0  0  0  0  0
    6.5093    3.2285   23.0968 C   0  0  0  0  0  0  0  0  0  0  0  0
    5.4679    2.9163   22.2251 C   0  0  0  0  0  0  0  0  0  0  0  0
    5.3542    4.9617   21.2631 C   0  0  0  0  0  0  0  0  0  0  0  0
    6.3668    5.4730   22.1058 C   0  0  0  0  0  0  0  0  0  0  0  0
    6.8057    6.8194   22.0527 C   0  0  0  0  0  0  0  0  0  0  0  0
    7.7648    7.2710   22.9121 C   0  0  0  0  0  0  0  0  0  0  0  0
    8.3317    6.4218   23.8488 C   0  0  0  0  0  0  0  0  0  0  0  0
    7.9456    5.1144   23.9289 C   0  0  0  0  0  0  0  0  0  0  0  0
    6.9514    4.5909   23.0622 C   0  0  0  0  0  0  0  0  0  0  0  0
   11.6365   -2.5803   25.7116 C   0  0  0  0  0  0  0  0  0  0  0  0
   12.7913   -1.3729   25.2165 Cl  0  0  0  0  0  0  0  0  0  0  0  0
   12.1199   -3.6850   26.3946 C   0  0  0  0  0  0  0  0  0  0  0  0
   11.2444   -4.6997   26.7479 C   0  0  0  0  0  0  0  0  0  0  0  0
    9.9107   -4.6033   26.4220 C   0  0  0  0  0  0  0  0  0  0  0  0
    9.4312   -3.4839   25.7579 C   0  0  0  0  0  0  0  0  0  0  0  0
   10.2838   -2.4435   25.3906 C   0  0  0  0  0  0  0  0  0  0  0  0
  1  7  1  0
  1  9  1  0
  1 11  1  0
 22 23  1  0
 22 24  2  0
 22 28  1  0
  2  9  2  0
 24 25  1  0
  3  9  1  0
  3 10  1  0
  3 13  1  0
  4 10  2  0
 25 26  2  0
 12 14  2  0
 12 15  1  0
 26 27  1  0
 27 28  2  0
 28  5  1  0
  5  6  1  0
  5  8  1  0
  6  7  1  0
  7  8  1  0
  7 10  1  0
 13 14  1  0
 13 21  2  0
 15 16  2  0
 16 17  1  0
 16 21  1  0
 17 18  2  0
 18 19  1  0
 19 20  2  0
 20 21  1  0
M  END
> <minimizedAffinity>
-6.88968

> <CNNscore>
0.2771722078

> <CNNaffinity>
5.8334536552

> <CNN_VS>
1.6168712378

> <CNNaffinity_variance>
0.4483966231

$$$$
complex-mers-lig.pdb


 28 32  0  0  0  0  0  0  0  0999 V2000
   10.1058    0.6862   22.7696 N   0  0  0  0  0  0  0  0  0  0  0  0
   11.7854    1.3285   24.2007 O   0  0  0  0  0  0  0  0  0  0  0  0
   10.8523   -0.8060   24.2054 N   0  0  0  0  0  0  0  0  0  0  0  0
    9.7459   -2.7102   23.4339 O   0  0  0  0  0  0  0  0  0  0  0  0
    7.8655    0.3080   21.3263 C   0  0  0  0  0  0  0  0  0  0  0  0
    8.9448   -0.7583   21.0090 C   0  0  0  0  0  0  0  0  0  0  0  0
    9.2810   -0.4905   22.4988 C   0  0  0  0  0  0  0  0  0  0  0  0
    7.7635   -0.3025   22.7475 C   0  0  0  0  0  0  0  0  0  0  0  0
   10.9816    0.5145   23.7774 C   0  0  0  0  0  0  0  0  0  0  0  0
    9.9427   -1.5095   23.4145 C   0  0  0  0  0  0  0  0  0  0  0  0
   10.0279    1.5261   22.2620 H   0  0  0  0  0  0  0  0  0  0  0  0
   13.6543   -2.7131   25.4577 N   0  0  0  0  0  0  0  0  0  0  0  0
   11.6142   -1.3840   25.2799 C   0  0  0  0  0  0  0  0  0  0  0  0
   12.9563   -1.6602   25.0268 C   0  0  0  0  0  0  0  0  0  0  0  0
   13.0247   -3.5790   26.2250 C   0  0  0  0  0  0  0  0  0  0  0  0
   11.6792   -3.4350   26.6324 C   0  0  0  0  0  0  0  0  0  0  0  0
   11.0337   -4.3546   27.4960 C   0  0  0  0  0  0  0  0  0  0  0  0
    9.7416   -4.1511   27.8853 C   0  0  0  0  0  0  0  0  0  0  0  0
    9.0343   -3.0459   27.4401 C   0  0  0  0  0  0  0  0  0  0  0  0
    9.6140   -2.1394   26.5993 C   0  0  0  0  0  0  0  0  0  0  0  0
   10.9550   -2.2990   26.1636 C   0  0  0  0  0  0  0  0  0  0  0  0
    5.5761    1.3364   20.8319 C   0  0  0  0  0  0  0  0  0  0  0  0
    5.5357    2.0513   22.4205 Cl  0  0  0  0  0  0  0  0  0  0  0  0
    4.5047    1.5886   19.9900 C   0  0  0  0  0  0  0  0  0  0  0  0
    4.4663    0.9853   18.7428 C   0  0  0  0  0  0  0  0  0  0  0  0
    5.4856    0.1476   18.3512 C   0  0  0  0  0  0  0  0  0  0  0  0
    6.5653   -0.0818   19.1912 C   0  0  0  0  0  0  0  0  0  0  0  0
    6.6372    0.5114   20.4510 C   0  0  0  0  0  0  0  0  0  0  0  0
  1  7  1  0
  1  9  1  0
  1 11  1  0
 22 23  1  0
 22 24  2  0
 22 28  1  0
  2  9  2  0
 24 25  1  0
  3  9  1  0
  3 10  1  0
  3 13  1  0
  4 10  2  0
 25 26  2  0
 12 14  2  0
 12 15  1  0
 26 27  1  0
 27 28  2  0
 28  5  1  0
  5  6  1  0
  5  8  1  0
  6  7  1  0
  7  8  1  0
  7 10  1  0
 13 14  1  0
 13 21  2  0
 15 16  2  0
 16 17  1  0
 16 21  1  0
 17 18  2  0
 18 19  1  0
 19 20  2  0
 20 21  1  0
M  END
> <minimizedAffinity>
-9.01827

> <CNNscore>
0.2725577652

> <CNNaffinity>
5.9771065712

> <CNN_VS>
1.6291067600

> <CNNaffinity_variance>
0.1126622558

$$$$
complex-mers-lig.pdb


 28 32  0  0  0  0  0  0  0  0999 V2000
    8.4390   -1.0464   22.1014 N   0  0  0  0  0  0  0  0  0  0  0  0
   10.5630   -1.9222   22.1553 O   0  0  0  0  0  0  0  0  0  0  0  0
    9.6307   -0.7272   23.9244 N   0  0  0  0  0  0  0  0  0  0  0  0
    8.0084    0.2033   25.3199 O   0  0  0  0  0  0  0  0  0  0  0  0
    6.1299    0.2569   21.6382 C   0  0  0  0  0  0  0  0  0  0  0  0
    6.0506   -0.6263   22.9095 C   0  0  0  0  0  0  0  0  0  0  0  0
    7.5546   -0.2517   22.9526 C   0  0  0  0  0  0  0  0  0  0  0  0
    7.1658    1.1361   22.3843 C   0  0  0  0  0  0  0  0  0  0  0  0
    9.6463   -1.2851   22.6467 C   0  0  0  0  0  0  0  0  0  0  0  0
    8.3774   -0.1952   24.2310 C   0  0  0  0  0  0  0  0  0  0  0  0
    8.1759   -1.3762   21.2119 H   0  0  0  0  0  0  0  0  0  0  0  0
   13.1734   -0.6170   24.6271 N   0  0  0  0  0  0  0  0  0  0  0  0
   10.7451   -0.7617   24.8333 C   0  0  0  0  0  0  0  0  0  0  0  0
   11.9336   -0.1779   24.3996 C   0  0  0  0  0  0  0  0  0  0  0  0
   13.3014   -1.7047   25.3589 C   0  0  0  0  0  0  0  0  0  0  0  0
   12.2120   -2.4001   25.9304 C   0  0  0  0  0  0  0  0  0  0  0  0
   12.3741   -3.5426   26.7530 C   0  0  0  0  0  0  0  0  0  0  0  0
   11.2894   -4.1580   27.3073 C   0  0  0  0  0  0  0  0  0  0  0  0
   10.0094   -3.6821   27.0725 C   0  0  0  0  0  0  0  0  0  0  0  0
    9.8063   -2.5898   26.2785 C   0  0  0  0  0  0  0  0  0  0  0  0
   10.8968   -1.9091   25.6779 C   0  0  0  0  0  0  0  0  0  0  0  0
    3.9006    1.5088   21.7161 C   0  0  0  0  0  0  0  0  0  0  0  0
    3.9513    1.5247   23.4578 Cl  0  0  0  0  0  0  0  0  0  0  0  0
    2.8254    2.1313   21.1023 C   0  0  0  0  0  0  0  0  0  0  0  0
    2.7127    2.0840   19.7217 C   0  0  0  0  0  0  0  0  0  0  0  0
    3.6633    1.4257   18.9753 C   0  0  0  0  0  0  0  0  0  0  0  0
    4.7483    0.8244   19.5960 C   0  0  0  0  0  0  0  0  0  0  0  0
    4.8940    0.8559   20.9824 C   0  0  0  0  0  0  0  0  0  0  0  0
  1  7  1  0
  1  9  1  0
  1 11  1  0
 22 23  1  0
 22 24  2  0
 22 28  1  0
  2  9  2  0
 24 25  1  0
  3  9  1  0
  3 10  1  0
  3 13  1  0
  4 10  2  0
 25 26  2  0
 12 14  2  0
 12 15  1  0
 26 27  1  0
 27 28  2  0
 28  5  1  0
  5  6  1  0
  5  8  1  0
  6  7  1  0
  7  8  1  0
  7 10  1  0
 13 14  1  0
 13 21  2  0
 15 16  2  0
 16 17  1  0
 16 21  1  0
 17 18  2  0
 18 19  1  0
 19 20  2  0
 20 21  1  0
M  END
> <minimizedAffinity>
-7.94988

> <CNNscore>
0.2618111074

> <CNNaffinity>
6.0384268761

> <CNN_VS>
1.5809272528

> <CNNaffinity_variance>
0.4041782320

$$$$
complex-mers-lig.pdb


 28 32  0  0  0  0  0  0  0  0999 V2000
    8.6783   -0.2685   22.4175 N   0  0  0  0  0  0  0  0  0  0  0  0
    6.7592    0.0053   21.1833 O   0  0  0  0  0  0  0  0  0  0  0  0
    7.8157    1.7535   22.3032 N   0  0  0  0  0  0  0  0  0  0  0  0
    9.5118    2.9840   23.3300 O   0  0  0  0  0  0  0  0  0  0  0  0
   10.6359   -0.9083   24.1506 C   0  0  0  0  0  0  0  0  0  0  0  0
   11.0848    0.1867   23.1497 C   0  0  0  0  0  0  0  0  0  0  0  0
    9.5766    0.5333   23.2473 C   0  0  0  0  0  0  0  0  0  0  0  0
    9.6379    0.1212   24.7395 C   0  0  0  0  0  0  0  0  0  0  0  0
    7.6450    0.4275   21.9078 C   0  0  0  0  0  0  0  0  0  0  0  0
    9.0094    1.9242   23.0059 C   0  0  0  0  0  0  0  0  0  0  0  0
    8.8165   -1.2282   22.2473 H   0  0  0  0  0  0  0  0  0  0  0  0
    5.8486    4.6573   23.1716 N   0  0  0  0  0  0  0  0  0  0  0  0
    6.9101    2.8189   21.9660 C   0  0  0  0  0  0  0  0  0  0  0  0
    6.9078    3.9352   22.8000 C   0  0  0  0  0  0  0  0  0  0  0  0
    4.6773    4.3013   22.6857 C   0  0  0  0  0  0  0  0  0  0  0  0
    4.4941    3.2302   21.7822 C   0  0  0  0  0  0  0  0  0  0  0  0
    3.2314    2.8919   21.2350 C   0  0  0  0  0  0  0  0  0  0  0  0
    3.1147    1.8679   20.3405 C   0  0  0  0  0  0  0  0  0  0  0  0
    4.2260    1.1359   19.9542 C   0  0  0  0  0  0  0  0  0  0  0  0
    5.4605    1.4213   20.4635 C   0  0  0  0  0  0  0  0  0  0  0  0
    5.6414    2.4761   21.3953 C   0  0  0  0  0  0  0  0  0  0  0  0
   11.2621   -2.8098   25.7428 C   0  0  0  0  0  0  0  0  0  0  0  0
    9.6035   -3.3422   25.7861 Cl  0  0  0  0  0  0  0  0  0  0  0  0
   12.1879   -3.5431   26.4678 C   0  0  0  0  0  0  0  0  0  0  0  0
   13.5054   -3.1152   26.5135 C   0  0  0  0  0  0  0  0  0  0  0  0
   13.8828   -1.9746   25.8422 C   0  0  0  0  0  0  0  0  0  0  0  0
   12.9545   -1.2589   25.1006 C   0  0  0  0  0  0  0  0  0  0  0  0
   11.6218   -1.6631   25.0306 C   0  0  0  0  0  0  0  0  0  0  0  0
  1  7  1  0
  1  9  1  0
  1 11  1  0
 22 23  1  0
 22 24  2  0
 22 28  1  0
  2  9  2  0
 24 25  1  0
  3  9  1  0
  3 10  1  0
  3 13  1  0
  4 10  2  0
 25 26  2  0
 12 14  2  0
 12 15  1  0
 26 27  1  0
 27 28  2  0
 28  5  1  0
  5  6  1  0
  5  8  1  0
  6  7  1  0
  7  8  1  0
  7 10  1  0
 13 14  1  0
 13 21  2  0
 15 16  2  0
 16 17  1  0
 16 21  1  0
 17 18  2  0
 18 19  1  0
 19 20  2  0
 20 21  1  0
M  END
> <minimizedAffinity>
-7.74282

> <CNNscore>
0.2125143409

> <CNNaffinity>
5.8903622627

> <CNN_VS>
1.2517864704

> <CNNaffinity_variance>
0.2701292634

$$$$
complex-mers-lig.pdb


 28 32  0  0  0  0  0  0  0  0999 V2000
    6.6253    0.1945   23.8580 N   0  0  0  0  0  0  0  0  0  0  0  0
    7.7074   -0.8278   25.6087 O   0  0  0  0  0  0  0  0  0  0  0  0
    8.1698   -1.2975   23.3744 N   0  0  0  0  0  0  0  0  0  0  0  0
    8.3159   -1.0057   21.0638 O   0  0  0  0  0  0  0  0  0  0  0  0
    4.9326    1.1735   22.0082 C   0  0  0  0  0  0  0  0  0  0  0  0
    6.4091    1.5084   21.6759 C   0  0  0  0  0  0  0  0  0  0  0  0
    6.6116    0.1504   22.3964 C   0  0  0  0  0  0  0  0  0  0  0  0
    5.2770   -0.3181   21.7642 C   0  0  0  0  0  0  0  0  0  0  0  0
    7.4944   -0.6671   24.4185 C   0  0  0  0  0  0  0  0  0  0  0  0
    7.7868   -0.7799   22.1361 C   0  0  0  0  0  0  0  0  0  0  0  0
    6.0521    0.7983   24.3833 H   0  0  0  0  0  0  0  0  0  0  0  0
    9.4149   -4.3217   24.9106 N   0  0  0  0  0  0  0  0  0  0  0  0
    9.1826   -2.3021   23.5588 C   0  0  0  0  0  0  0  0  0  0  0  0
    8.7655   -3.5391   24.0461 C   0  0  0  0  0  0  0  0  0  0  0  0
   10.5879   -3.9021   25.3381 C   0  0  0  0  0  0  0  0  0  0  0  0
   11.1959   -2.7000   24.9109 C   0  0  0  0  0  0  0  0  0  0  0  0
   12.4796   -2.2888   25.3482 C   0  0  0  0  0  0  0  0  0  0  0  0
   13.0354   -1.1340   24.8791 C   0  0  0  0  0  0  0  0  0  0  0  0
   12.3543   -0.3389   23.9714 C   0  0  0  0  0  0  0  0  0  0  0  0
   11.1111   -0.6921   23.5305 C   0  0  0  0  0  0  0  0  0  0  0  0
   10.4854   -1.8827   23.9827 C   0  0  0  0  0  0  0  0  0  0  0  0
    3.4959    1.6629   19.9493 C   0  0  0  0  0  0  0  0  0  0  0  0
    4.5968    0.7591   18.9455 Cl  0  0  0  0  0  0  0  0  0  0  0  0
    2.3780    2.2101   19.3400 C   0  0  0  0  0  0  0  0  0  0  0  0
    1.5122    2.9915   20.0889 C   0  0  0  0  0  0  0  0  0  0  0  0
    1.7658    3.2154   21.4230 C   0  0  0  0  0  0  0  0  0  0  0  0
    2.8750    2.6455   22.0303 C   0  0  0  0  0  0  0  0  0  0  0  0
    3.7644    1.8517   21.3071 C   0  0  0  0  0  0  0  0  0  0  0  0
  1  7  1  0
  1  9  1  0
  1 11  1  0
 22 23  1  0
 22 24  2  0
 22 28  1  0
  2  9  2  0
 24 25  1  0
  3  9  1  0
  3 10  1  0
  3 13  1  0
  4 10  2  0
 25 26  2  0
 12 14  2  0
 12 15  1  0
 26 27  1  0
 27 28  2  0
 28  5  1  0
  5  6  1  0
  5  8  1  0
  6  7  1  0
  7  8  1  0
  7 10  1  0
 13 14  1  0
 13 21  2  0
 15 16  2  0
 16 17  1  0
 16 21  1  0
 17 18  2  0
 18 19  1  0
 19 20  2  0
 20 21  1  0
M  END
> <minimizedAffinity>
-7.06792

> <CNNscore>
0.2110443711

> <CNNaffinity>
5.7945699692

> <CNN_VS>
1.2229113579

> <CNNaffinity_variance>
0.2875704765

$$$$
complex-mers-lig.pdb


 28 32  0  0  0  0  0  0  0  0999 V2000
    7.6824   -1.1142   23.0133 N   0  0  0  0  0  0  0  0  0  0  0  0
    8.1503   -3.3277   22.6099 O   0  0  0  0  0  0  0  0  0  0  0  0
    9.0476   -2.1403   24.4020 N   0  0  0  0  0  0  0  0  0  0  0  0
    9.2634   -0.5045   26.0522 O   0  0  0  0  0  0  0  0  0  0  0  0
    7.3519    1.5572   23.0219 C   0  0  0  0  0  0  0  0  0  0  0  0
    6.9243    0.9172   24.3673 C   0  0  0  0  0  0  0  0  0  0  0  0
    8.0528   -0.0668   23.9641 C   0  0  0  0  0  0  0  0  0  0  0  0
    8.8077    1.1403   23.3531 C   0  0  0  0  0  0  0  0  0  0  0  0
    8.2861   -2.2948   23.2445 C   0  0  0  0  0  0  0  0  0  0  0  0
    8.8693   -0.8744   24.9619 C   0  0  0  0  0  0  0  0  0  0  0  0
    7.0500   -0.9693   22.2728 H   0  0  0  0  0  0  0  0  0  0  0  0
    9.7450   -4.5690   26.9849 N   0  0  0  0  0  0  0  0  0  0  0  0
    9.8562   -3.1798   24.9805 C   0  0  0  0  0  0  0  0  0  0  0  0
    9.2278   -4.0495   25.8695 C   0  0  0  0  0  0  0  0  0  0  0  0
   10.9901   -4.2521   27.2751 C   0  0  0  0  0  0  0  0  0  0  0  0
   11.8012   -3.4284   26.4622 C   0  0  0  0  0  0  0  0  0  0  0  0
   13.1535   -3.1366   26.7688 C   0  0  0  0  0  0  0  0  0  0  0  0
   13.9030   -2.3614   25.9322 C   0  0  0  0  0  0  0  0  0  0  0  0
   13.3557   -1.8403   24.7708 C   0  0  0  0  0  0  0  0  0  0  0  0
   12.0539   -2.0882   24.4411 C   0  0  0  0  0  0  0  0  0  0  0  0
   11.2285   -2.8890   25.2723 C   0  0  0  0  0  0  0  0  0  0  0  0
    6.0084    3.2898   21.7044 C   0  0  0  0  0  0  0  0  0  0  0  0
    5.2498    2.0227   20.7793 Cl  0  0  0  0  0  0  0  0  0  0  0  0
    5.6235    4.5940   21.4375 C   0  0  0  0  0  0  0  0  0  0  0  0
    6.2500    5.6353   22.1040 C   0  0  0  0  0  0  0  0  0  0  0  0
    7.2413    5.3688   23.0207 C   0  0  0  0  0  0  0  0  0  0  0  0
    7.6049    4.0593   23.2983 C   0  0  0  0  0  0  0  0  0  0  0  0
    6.9930    2.9882   22.6484 C   0  0  0  0  0  0  0  0  0  0  0  0
  1  7  1  0
  1  9  1  0
  1 11  1  0
 22 23  1  0
 22 24  2  0
 22 28  1  0
  2  9  2  0
 24 25  1  0
  3  9  1  0
  3 10  1  0
  3 13  1  0
  4 10  2  0
 25 26  2  0
 12 14  2  0
 12 15  1  0
 26 27  1  0
 27 28  2  0
 28  5  1  0
  5  6  1  0
  5  8  1  0
  6  7  1  0
  7  8  1  0
  7 10  1  0
 13 14  1  0
 13 21  2  0
 15 16  2  0
 16 17  1  0
 16 21  1  0
 17 18  2  0
 18 19  1  0
 19 20  2  0
 20 21  1  0
M  END
> <minimizedAffinity>
-7.68629

> <CNNscore>
0.2005897909

> <CNNaffinity>
5.8412265778

> <CNN_VS>
1.1716904640

> <CNNaffinity_variance>
0.2181607187

$$$$
complex-mers-lig.pdb


 28 32  0  0  0  0  0  0  0  0999 V2000
    8.5704    1.5654   25.0273 N   0  0  0  0  0  0  0  0  0  0  0  0
    7.5475    3.5812   24.6132 O   0  0  0  0  0  0  0  0  0  0  0  0
    6.9676    1.6080   23.5192 N   0  0  0  0  0  0  0  0  0  0  0  0
    6.7190   -0.6771   23.1171 O   0  0  0  0  0  0  0  0  0  0  0  0
   10.1972   -0.5551   25.3474 C   0  0  0  0  0  0  0  0  0  0  0  0
    8.7154   -0.9158   25.6248 C   0  0  0  0  0  0  0  0  0  0  0  0
    8.5134    0.1842   24.5507 C   0  0  0  0  0  0  0  0  0  0  0  0
    9.8041   -0.3297   23.8650 C   0  0  0  0  0  0  0  0  0  0  0  0
    7.7075    2.3900   24.4050 C   0  0  0  0  0  0  0  0  0  0  0  0
    7.3040    0.2581   23.6307 C   0  0  0  0  0  0  0  0  0  0  0  0
    9.1831    1.8645   25.7375 H   0  0  0  0  0  0  0  0  0  0  0  0
    5.6737    4.0898   21.2339 N   0  0  0  0  0  0  0  0  0  0  0  0
    5.9397    2.1220   22.6542 C   0  0  0  0  0  0  0  0  0  0  0  0
    6.3372    3.0124   21.6588 C   0  0  0  0  0  0  0  0  0  0  0  0
    4.5055    4.3352   21.7907 C   0  0  0  0  0  0  0  0  0  0  0  0
    3.9164    3.5117   22.7766 C   0  0  0  0  0  0  0  0  0  0  0  0
    2.6374    3.7683   23.3302 C   0  0  0  0  0  0  0  0  0  0  0  0
    2.0999    2.9225   24.2565 C   0  0  0  0  0  0  0  0  0  0  0  0
    2.7955    1.8005   24.6777 C   0  0  0  0  0  0  0  0  0  0  0  0
    4.0349    1.5199   24.1778 C   0  0  0  0  0  0  0  0  0  0  0  0
    4.6417    2.3630   23.2111 C   0  0  0  0  0  0  0  0  0  0  0  0
   11.1469   -2.6669   26.4343 C   0  0  0  0  0  0  0  0  0  0  0  0
    9.5653   -3.0916   27.0300 Cl  0  0  0  0  0  0  0  0  0  0  0  0
   12.1885   -3.5388   26.7084 C   0  0  0  0  0  0  0  0  0  0  0  0
   13.4736   -3.2058   26.3101 C   0  0  0  0  0  0  0  0  0  0  0  0
   13.7044   -2.0213   25.6484 C   0  0  0  0  0  0  0  0  0  0  0  0
   12.6527   -1.1647   25.3583 C   0  0  0  0  0  0  0  0  0  0  0  0
   11.3474   -1.4704   25.7417 C   0  0  0  0  0  0  0  0  0  0  0  0
  1  7  1  0
  1  9  1  0
  1 11  1  0
 22 23  1  0
 22 24  2  0
 22 28  1  0
  2  9  2  0
 24 25  1  0
  3  9  1  0
  3 10  1  0
  3 13  1  0
  4 10  2  0
 25 26  2  0
 12 14  2  0
 12 15  1  0
 26 27  1  0
 27 28  2  0
 28  5  1  0
  5  6  1  0
  5  8  1  0
  6  7  1  0
  7  8  1  0
  7 10  1  0
 13 14  1  0
 13 21  2  0
 15 16  2  0
 16 17  1  0
 16 21  1  0
 17 18  2  0
 18 19  1  0
 19 20  2  0
 20 21  1  0
M  END
> <minimizedAffinity>
-6.73995

> <CNNscore>
0.1936785430

> <CNNaffinity>
5.7376184464

> <CNN_VS>
1.1112536192

> <CNNaffinity_variance>
0.6325580478

$$$$
complex-mers-lig.pdb


 28 32  0  0  0  0  0  0  0  0999 V2000
    8.9110    1.6375   24.4894 N   0  0  0  0  0  0  0  0  0  0  0  0
    8.1325    3.6706   23.7534 O   0  0  0  0  0  0  0  0  0  0  0  0
    7.0462    1.6560   23.3200 N   0  0  0  0  0  0  0  0  0  0  0  0
    6.3820   -0.5672   23.5677 O   0  0  0  0  0  0  0  0  0  0  0  0
   10.2367   -0.6348   25.0590 C   0  0  0  0  0  0  0  0  0  0  0  0
    8.8123   -0.6274   25.6704 C   0  0  0  0  0  0  0  0  0  0  0  0
    8.5494    0.2234   24.4010 C   0  0  0  0  0  0  0  0  0  0  0  0
    9.5724   -0.6727   23.6590 C   0  0  0  0  0  0  0  0  0  0  0  0
    8.0663    2.4554   23.8341 C   0  0  0  0  0  0  0  0  0  0  0  0
    7.1953    0.3258   23.7152 C   0  0  0  0  0  0  0  0  0  0  0  0
    9.6990    1.9614   24.9826 H   0  0  0  0  0  0  0  0  0  0  0  0
    3.5409    2.4167   22.8831 N   0  0  0  0  0  0  0  0  0  0  0  0
    5.9442    2.1555   22.5421 C   0  0  0  0  0  0  0  0  0  0  0  0
    4.8162    2.5792   23.2420 C   0  0  0  0  0  0  0  0  0  0  0  0
    3.3113    1.8139   21.7347 C   0  0  0  0  0  0  0  0  0  0  0  0
    4.3309    1.3659   20.8647 C   0  0  0  0  0  0  0  0  0  0  0  0
    4.0628    0.7605   19.6118 C   0  0  0  0  0  0  0  0  0  0  0  0
    5.0855    0.3752   18.7944 C   0  0  0  0  0  0  0  0  0  0  0  0
    6.4045    0.5628   19.1753 C   0  0  0  0  0  0  0  0  0  0  0  0
    6.7086    1.1335   20.3781 C   0  0  0  0  0  0  0  0  0  0  0  0
    5.6862    1.5551   21.2671 C   0  0  0  0  0  0  0  0  0  0  0  0
   12.6111   -1.5845   25.0029 C   0  0  0  0  0  0  0  0  0  0  0  0
   13.0630   -0.4274   23.7809 Cl  0  0  0  0  0  0  0  0  0  0  0  0
   13.5918   -2.4534   25.4543 C   0  0  0  0  0  0  0  0  0  0  0  0
   13.2576   -3.4320   26.3771 C   0  0  0  0  0  0  0  0  0  0  0  0
   11.9642   -3.5324   26.8368 C   0  0  0  0  0  0  0  0  0  0  0  0
   10.9937   -2.6444   26.3967 C   0  0  0  0  0  0  0  0  0  0  0  0
   11.2964   -1.6462   25.4714 C   0  0  0  0  0  0  0  0  0  0  0  0
  1  7  1  0
  1  9  1  0
  1 11  1  0
 22 23  1  0
 22 24  2  0
 22 28  1  0
  2  9  2  0
 24 25  1  0
  3  9  1  0
  3 10  1  0
  3 13  1  0
  4 10  2  0
 25 26  2  0
 12 14  2  0
 12 15  1  0
 26 27  1  0
 27 28  2  0
 28  5  1  0
  5  6  1  0
  5  8  1  0
  6  7  1  0
  7  8  1  0
  7 10  1  0
 13 14  1  0
 13 21  2  0
 15 16  2  0
 16 17  1  0
 16 21  1  0
 17 18  2  0
 18 19  1  0
 19 20  2  0
 20 21  1  0
M  END
> <minimizedAffinity>
-7.55518

> <CNNscore>
0.1897733659

> <CNNaffinity>
5.8293881416

> <CNN_VS>
1.1062625647

> <CNNaffinity_variance>
0.2692672610

$$$$
complex-mers-lig.pdb


 28 32  0  0  0  0  0  0  0  0999 V2000
    9.3003    1.1902   22.7886 N   0  0  0  0  0  0  0  0  0  0  0  0
    7.8711    2.2619   21.3428 O   0  0  0  0  0  0  0  0  0  0  0  0
    8.7211    3.2587   23.2691 N   0  0  0  0  0  0  0  0  0  0  0  0
   10.1533    3.6820   25.0621 O   0  0  0  0  0  0  0  0  0  0  0  0
   10.5810   -0.3968   24.5454 C   0  0  0  0  0  0  0  0  0  0  0  0
   11.4154    0.8589   24.1854 C   0  0  0  0  0  0  0  0  0  0  0  0
    9.9894    1.4530   24.0512 C   0  0  0  0  0  0  0  0  0  0  0  0
    9.5638    0.5482   25.2346 C   0  0  0  0  0  0  0  0  0  0  0  0
    8.5409    2.2161   22.3612 C   0  0  0  0  0  0  0  0  0  0  0  0
    9.6641    2.9268   24.2430 C   0  0  0  0  0  0  0  0  0  0  0  0
    9.3841    0.3416   22.2966 H   0  0  0  0  0  0  0  0  0  0  0  0
    8.7152    6.8616   23.5433 N   0  0  0  0  0  0  0  0  0  0  0  0
    8.0695    4.5372   23.1692 C   0  0  0  0  0  0  0  0  0  0  0  0
    8.8874    5.6531   23.0036 C   0  0  0  0  0  0  0  0  0  0  0  0
    7.6486    7.0380   24.2957 C   0  0  0  0  0  0  0  0  0  0  0  0
    6.6787    6.0375   24.5310 C   0  0  0  0  0  0  0  0  0  0  0  0
    5.5141    6.2614   25.3067 C   0  0  0  0  0  0  0  0  0  0  0  0
    4.5919    5.2698   25.4759 C   0  0  0  0  0  0  0  0  0  0  0  0
    4.7783    4.0243   24.8981 C   0  0  0  0  0  0  0  0  0  0  0  0
    5.8906    3.7618   24.1506 C   0  0  0  0  0  0  0  0  0  0  0  0
    6.8814    4.7554   23.9396 C   0  0  0  0  0  0  0  0  0  0  0  0
   10.5372   -2.8339   25.3211 C   0  0  0  0  0  0  0  0  0  0  0  0
    8.9230   -3.0224   24.6925 Cl  0  0  0  0  0  0  0  0  0  0  0  0
   11.1306   -3.9435   25.9017 C   0  0  0  0  0  0  0  0  0  0  0  0
   12.3873   -3.8188   26.4729 C   0  0  0  0  0  0  0  0  0  0  0  0
   13.0331   -2.6036   26.4581 C   0  0  0  0  0  0  0  0  0  0  0  0
   12.4415   -1.5034   25.8551 C   0  0  0  0  0  0  0  0  0  0  0  0
   11.1799   -1.5947   25.2684 C   0  0  0  0  0  0  0  0  0  0  0  0
  1  7  1  0
  1  9  1  0
  1 11  1  0
 22 23  1  0
 22 24  2  0
 22 28  1  0
  2  9  2  0
 24 25  1  0
  3  9  1  0
  3 10  1  0
  3 13  1  0
  4 10  2  0
 25 26  2  0
 12 14  2  0
 12 15  1  0
 26 27  1  0
 27 28  2  0
 28  5  1  0
  5  6  1  0
  5  8  1  0
  6  7  1  0
  7  8  1  0
  7 10  1  0
 13 14  1  0
 13 21  2  0
 15 16  2  0
 16 17  1  0
 16 21  1  0
 17 18  2  0
 18 19  1  0
 19 20  2  0
 20 21  1  0
M  END
> <minimizedAffinity>
-6.86213

> <CNNscore>
0.1856341660

> <CNNaffinity>
5.9335441589

> <CNN_VS>
1.1014685631

> <CNNaffinity_variance>
0.6342002153

$$$$
complex-mers-lig.pdb


 28 32  0  0  0  0  0  0  0  0999 V2000
    8.2828    2.6724   23.1744 N   0  0  0  0  0  0  0  0  0  0  0  0
    7.0158    4.5638   22.8601 O   0  0  0  0  0  0  0  0  0  0  0  0
    9.2325    4.6176   23.5740 N   0  0  0  0  0  0  0  0  0  0  0  0
   11.4407    3.9385   23.9026 O   0  0  0  0  0  0  0  0  0  0  0  0
    9.4099    0.3381   23.8994 C   0  0  0  0  0  0  0  0  0  0  0  0
   10.2891    1.1149   22.8865 C   0  0  0  0  0  0  0  0  0  0  0  0
    9.6278    2.3105   23.6196 C   0  0  0  0  0  0  0  0  0  0  0  0
    9.6874    1.4711   24.9203 C   0  0  0  0  0  0  0  0  0  0  0  0
    8.0455    3.9974   23.1865 C   0  0  0  0  0  0  0  0  0  0  0  0
   10.2615    3.6887   23.7357 C   0  0  0  0  0  0  0  0  0  0  0  0
    7.6128    2.0087   22.8921 H   0  0  0  0  0  0  0  0  0  0  0  0
   10.9088    7.7295   22.8238 N   0  0  0  0  0  0  0  0  0  0  0  0
    9.3899    6.0401   23.7178 C   0  0  0  0  0  0  0  0  0  0  0  0
   10.0575    6.7096   22.6943 C   0  0  0  0  0  0  0  0  0  0  0  0
   11.1317    8.1758   24.0428 C   0  0  0  0  0  0  0  0  0  0  0  0
   10.5020    7.6573   25.1969 C   0  0  0  0  0  0  0  0  0  0  0  0
   10.7210    8.1821   26.4949 C   0  0  0  0  0  0  0  0  0  0  0  0
   10.0619    7.6655   27.5725 C   0  0  0  0  0  0  0  0  0  0  0  0
    9.1710    6.6153   27.4199 C   0  0  0  0  0  0  0  0  0  0  0  0
    8.9368    6.0727   26.1888 C   0  0  0  0  0  0  0  0  0  0  0  0
    9.5922    6.5711   25.0331 C   0  0  0  0  0  0  0  0  0  0  0  0
   10.8940   -1.5909   24.6865 C   0  0  0  0  0  0  0  0  0  0  0  0
   12.2787   -0.5336   24.7209 Cl  0  0  0  0  0  0  0  0  0  0  0  0
   11.0837   -2.9057   25.0811 C   0  0  0  0  0  0  0  0  0  0  0  0
   10.0239   -3.7956   25.0054 C   0  0  0  0  0  0  0  0  0  0  0  0
    8.7989   -3.3703   24.5442 C   0  0  0  0  0  0  0  0  0  0  0  0
    8.6115   -2.0471   24.1724 C   0  0  0  0  0  0  0  0  0  0  0  0
    9.6553   -1.1250   24.2390 C   0  0  0  0  0  0  0  0  0  0  0  0
  1  7  1  0
  1  9  1  0
  1 11  1  0
 22 23  1  0
 22 24  2  0
 22 28  1  0
  2  9  2  0
 24 25  1  0
  3  9  1  0
  3 10  1  0
  3 13  1  0
  4 10  2  0
 25 26  2  0
 12 14  2  0
 12 15  1  0
 26 27  1  0
 27 28  2  0
 28  5  1  0
  5  6  1  0
  5  8  1  0
  6  7  1  0
  7  8  1  0
  7 10  1  0
 13 14  1  0
 13 21  2  0
 15 16  2  0
 16 17  1  0
 16 21  1  0
 17 18  2  0
 18 19  1  0
 19 20  2  0
 20 21  1  0
M  END
> <minimizedAffinity>
-7.02880

> <CNNscore>
0.1844623983

> <CNNaffinity>
5.8496127129

> <CNN_VS>
1.0790336132

> <CNNaffinity_variance>
0.4528737962

$$$$
complex-mers-lig.pdb


 28 32  0  0  0  0  0  0  0  0999 V2000
    6.8775    0.5696   22.9413 N   0  0  0  0  0  0  0  0  0  0  0  0
    6.9165   -1.7045   22.6126 O   0  0  0  0  0  0  0  0  0  0  0  0
    8.4577   -0.5826   23.9516 N   0  0  0  0  0  0  0  0  0  0  0  0
    9.3689    1.0762   25.3166 O   0  0  0  0  0  0  0  0  0  0  0  0
    6.9068    3.2581   22.8138 C   0  0  0  0  0  0  0  0  0  0  0  0
    6.8294    2.7493   24.2759 C   0  0  0  0  0  0  0  0  0  0  0  0
    7.6483    1.5928   23.6463 C   0  0  0  0  0  0  0  0  0  0  0  0
    8.3293    2.6470   22.7379 C   0  0  0  0  0  0  0  0  0  0  0  0
    7.3680   -0.6754   23.0868 C   0  0  0  0  0  0  0  0  0  0  0  0
    8.6195    0.7197   24.4267 C   0  0  0  0  0  0  0  0  0  0  0  0
    6.0743    0.7725   22.4095 H   0  0  0  0  0  0  0  0  0  0  0  0
    9.9698   -2.6724   26.4820 N   0  0  0  0  0  0  0  0  0  0  0  0
    9.2649   -1.7026   24.3553 C   0  0  0  0  0  0  0  0  0  0  0  0
    9.0477   -2.2108   25.6344 C   0  0  0  0  0  0  0  0  0  0  0  0
   11.2200   -2.6753   26.0676 C   0  0  0  0  0  0  0  0  0  0  0  0
   11.6226   -2.2499   24.7815 C   0  0  0  0  0  0  0  0  0  0  0  0
   12.9676   -2.3041   24.3386 C   0  0  0  0  0  0  0  0  0  0  0  0
   13.2982   -1.9112   23.0742 C   0  0  0  0  0  0  0  0  0  0  0  0
   12.3274   -1.4468   22.2013 C   0  0  0  0  0  0  0  0  0  0  0  0
   11.0204   -1.3689   22.5893 C   0  0  0  0  0  0  0  0  0  0  0  0
   10.6189   -1.7657   23.8911 C   0  0  0  0  0  0  0  0  0  0  0  0
    7.3448    5.7711   23.0041 C   0  0  0  0  0  0  0  0  0  0  0  0
    8.4742    5.4928   24.3016 Cl  0  0  0  0  0  0  0  0  0  0  0  0
    7.1563    7.0802   22.5906 C   0  0  0  0  0  0  0  0  0  0  0  0
    6.2182    7.3517   21.6071 C   0  0  0  0  0  0  0  0  0  0  0  0
    5.4872    6.3269   21.0508 C   0  0  0  0  0  0  0  0  0  0  0  0
    5.6981    5.0168   21.4546 C   0  0  0  0  0  0  0  0  0  0  0  0
    6.6360    4.7081   22.4391 C   0  0  0  0  0  0  0  0  0  0  0  0
  1  7  1  0
  1  9  1  0
  1 11  1  0
 22 23  1  0
 22 24  2  0
 22 28  1  0
  2  9  2  0
 24 25  1  0
  3  9  1  0
  3 10  1  0
  3 13  1  0
  4 10  2  0
 25 26  2  0
 12 14  2  0
 12 15  1  0
 26 27  1  0
 27 28  2  0
 28  5  1  0
  5  6  1  0
  5  8  1  0
  6  7  1  0
  7  8  1  0
  7 10  1  0
 13 14  1  0
 13 21  2  0
 15 16  2  0
 16 17  1  0
 16 21  1  0
 17 18  2  0
 18 19  1  0
 19 20  2  0
 20 21  1  0
M  END
> <minimizedAffinity>
-6.96590

> <CNNscore>
0.1659402251

> <CNNaffinity>
5.7114448547

> <CNN_VS>
0.9477584362

> <CNNaffinity_variance>
0.2968333066

$$$$
complex-mers-lig.pdb


 28 32  0  0  0  0  0  0  0  0999 V2000
    6.3128   -0.4653   22.6266 N   0  0  0  0  0  0  0  0  0  0  0  0
    6.7813   -2.6971   22.3424 O   0  0  0  0  0  0  0  0  0  0  0  0
    8.1001   -1.2705   23.6278 N   0  0  0  0  0  0  0  0  0  0  0  0
    8.6984    0.5632   24.9411 O   0  0  0  0  0  0  0  0  0  0  0  0
    5.8247    2.1756   22.4453 C   0  0  0  0  0  0  0  0  0  0  0  0
    5.8694    1.6955   23.9184 C   0  0  0  0  0  0  0  0  0  0  0  0
    6.8845    0.7025   23.2957 C   0  0  0  0  0  0  0  0  0  0  0  0
    7.3365    1.8459   22.3530 C   0  0  0  0  0  0  0  0  0  0  0  0
    7.0348   -1.5899   22.7870 C   0  0  0  0  0  0  0  0  0  0  0  0
    8.0171    0.0494   24.0736 C   0  0  0  0  0  0  0  0  0  0  0  0
    5.4772   -0.4321   22.1071 H   0  0  0  0  0  0  0  0  0  0  0  0
    9.9551   -3.0482   26.1685 N   0  0  0  0  0  0  0  0  0  0  0  0
    9.1132   -2.2059   24.0373 C   0  0  0  0  0  0  0  0  0  0  0  0
    8.9770   -2.7722   25.3032 C   0  0  0  0  0  0  0  0  0  0  0  0
   11.1878   -2.7837   25.7874 C   0  0  0  0  0  0  0  0  0  0  0  0
   11.5227   -2.2597   24.5183 C   0  0  0  0  0  0  0  0  0  0  0  0
   12.8594   -2.0250   24.1106 C   0  0  0  0  0  0  0  0  0  0  0  0
   13.1301   -1.5482   22.8609 C   0  0  0  0  0  0  0  0  0  0  0  0
   12.1044   -1.2791   21.9690 C   0  0  0  0  0  0  0  0  0  0  0  0
   10.8012   -1.4816   22.3232 C   0  0  0  0  0  0  0  0  0  0  0  0
   10.4610   -1.9777   23.6084 C   0  0  0  0  0  0  0  0  0  0  0  0
    3.9073    3.8207   22.0448 C   0  0  0  0  0  0  0  0  0  0  0  0
    2.7415    2.5605   22.3437 Cl  0  0  0  0  0  0  0  0  0  0  0  0
    3.4213    5.0891   21.7705 C   0  0  0  0  0  0  0  0  0  0  0  0
    4.3129    6.1044   21.4620 C   0  0  0  0  0  0  0  0  0  0  0  0
    5.6648    5.8483   21.4321 C   0  0  0  0  0  0  0  0  0  0  0  0
    6.1443    4.5812   21.7298 C   0  0  0  0  0  0  0  0  0  0  0  0
    5.2754    3.5380   22.0474 C   0  0  0  0  0  0  0  0  0  0  0  0
  1  7  1  0
  1  9  1  0
  1 11  1  0
 22 23  1  0
 22 24  2  0
 22 28  1  0
  2  9  2  0
 24 25  1  0
  3  9  1  0
  3 10  1  0
  3 13  1  0
  4 10  2  0
 25 26  2  0
 12 14  2  0
 12 15  1  0
 26 27  1  0
 27 28  2  0
 28  5  1  0
  5  6  1  0
  5  8  1  0
  6  7  1  0
  7  8  1  0
  7 10  1  0
 13 14  1  0
 13 21  2  0
 15 16  2  0
 16 17  1  0
 16 21  1  0
 17 18  2  0
 18 19  1  0
 19 20  2  0
 20 21  1  0
M  END
> <minimizedAffinity>
-6.75954

> <CNNscore>
0.1659093648

> <CNNaffinity>
5.7225818634

> <CNN_VS>
0.9494299293

> <CNNaffinity_variance>
0.3546147645

$$$$
complex-mers-lig.pdb


 28 32  0  0  0  0  0  0  0  0999 V2000
    8.6776    2.6638   22.8988 N   0  0  0  0  0  0  0  0  0  0  0  0
   10.7299    2.1137   23.7744 O   0  0  0  0  0  0  0  0  0  0  0  0
    8.9739    0.5944   23.5882 N   0  0  0  0  0  0  0  0  0  0  0  0
    7.0031   -0.3849   22.8120 O   0  0  0  0  0  0  0  0  0  0  0  0
    6.2510    3.6432   22.2682 C   0  0  0  0  0  0  0  0  0  0  0  0
    6.6518    2.4577   21.3535 C   0  0  0  0  0  0  0  0  0  0  0  0
    7.3808    2.0337   22.6547 C   0  0  0  0  0  0  0  0  0  0  0  0
    6.1951    2.6385   23.4474 C   0  0  0  0  0  0  0  0  0  0  0  0
    9.5794    1.8448   23.4715 C   0  0  0  0  0  0  0  0  0  0  0  0
    7.7016    0.5907   23.0144 C   0  0  0  0  0  0  0  0  0  0  0  0
    8.8731    3.6001   22.6659 H   0  0  0  0  0  0  0  0  0  0  0  0
   10.4458   -1.1756   26.3732 N   0  0  0  0  0  0  0  0  0  0  0  0
    9.6109   -0.5600   24.1633 C   0  0  0  0  0  0  0  0  0  0  0  0
    9.5052   -0.7190   25.5435 C   0  0  0  0  0  0  0  0  0  0  0  0
   11.5932   -1.5407   25.8393 C   0  0  0  0  0  0  0  0  0  0  0  0
   11.8622   -1.5023   24.4525 C   0  0  0  0  0  0  0  0  0  0  0  0
   13.0875   -1.9430   23.8934 C   0  0  0  0  0  0  0  0  0  0  0  0
   13.2839   -1.9151   22.5432 C   0  0  0  0  0  0  0  0  0  0  0  0
   12.2926   -1.4507   21.6936 C   0  0  0  0  0  0  0  0  0  0  0  0
   11.1001   -1.0076   22.1899 C   0  0  0  0  0  0  0  0  0  0  0  0
   10.8400   -1.0156   23.5849 C   0  0  0  0  0  0  0  0  0  0  0  0
    5.2636    5.9135   21.6251 C   0  0  0  0  0  0  0  0  0  0  0  0
    6.8382    6.6506   21.7436 Cl  0  0  0  0  0  0  0  0  0  0  0  0
    4.2061    6.7231   21.2422 C   0  0  0  0  0  0  0  0  0  0  0  0
    2.9267    6.1918   21.1999 C   0  0  0  0  0  0  0  0  0  0  0  0
    2.7171    4.8733   21.5342 C   0  0  0  0  0  0  0  0  0  0  0  0
    3.7843    4.0640   21.8948 C   0  0  0  0  0  0  0  0  0  0  0  0
    5.0844    4.5654   21.9446 C   0  0  0  0  0  0  0  0  0  0  0  0
  1  7  1  0
  1  9  1  0
  1 11  1  0
 22 23  1  0
 22 24  2  0
 22 28  1  0
  2  9  2  0
 24 25  1  0
  3  9  1  0
  3 10  1  0
  3 13  1  0
  4 10  2  0
 25 26  2  0
 12 14  2  0
 12 15  1  0
 26 27  1  0
 27 28  2  0
 28  5  1  0
  5  6  1  0
  5  8  1  0
  6  7  1  0
  7  8  1  0
  7 10  1  0
 13 14  1  0
 13 21  2  0
 15 16  2  0
 16 17  1  0
 16 21  1  0
 17 18  2  0
 18 19  1  0
 19 20  2  0
 20 21  1  0
M  END
> <minimizedAffinity>
-6.60938

> <CNNscore>
0.1565854549

> <CNNaffinity>
5.5783548355

> <CNN_VS>
0.8734892011

> <CNNaffinity_variance>
0.1806060374

$$$$
complex-mers-lig.pdb


 28 32  0  0  0  0  0  0  0  0999 V2000
    8.2999    1.0234   24.9792 N   0  0  0  0  0  0  0  0  0  0  0  0
    8.1999   -0.8772   26.2673 O   0  0  0  0  0  0  0  0  0  0  0  0
    9.4884   -0.7132   24.3335 N   0  0  0  0  0  0  0  0  0  0  0  0
   10.7216    0.2514   22.6033 O   0  0  0  0  0  0  0  0  0  0  0  0
    7.9083    3.1718   23.4056 C   0  0  0  0  0  0  0  0  0  0  0  0
    9.4087    2.9596   23.7318 C   0  0  0  0  0  0  0  0  0  0  0  0
    8.9337    1.4836   23.7444 C   0  0  0  0  0  0  0  0  0  0  0  0
    7.9565    1.8489   22.5991 C   0  0  0  0  0  0  0  0  0  0  0  0
    8.5896   -0.2528   25.2947 C   0  0  0  0  0  0  0  0  0  0  0  0
    9.8390    0.2995   23.4395 C   0  0  0  0  0  0  0  0  0  0  0  0
    7.7154    1.5939   25.5288 H   0  0  0  0  0  0  0  0  0  0  0  0
    9.2156   -4.2797   24.8456 N   0  0  0  0  0  0  0  0  0  0  0  0
   10.0364   -2.0430   24.3129 C   0  0  0  0  0  0  0  0  0  0  0  0
    9.1313   -3.0991   24.2286 C   0  0  0  0  0  0  0  0  0  0  0  0
   10.2753   -4.4904   25.5989 C   0  0  0  0  0  0  0  0  0  0  0  0
   11.3239   -3.5565   25.7591 C   0  0  0  0  0  0  0  0  0  0  0  0
   12.4779   -3.8208   26.5379 C   0  0  0  0  0  0  0  0  0  0  0  0
   13.4773   -2.8964   26.6332 C   0  0  0  0  0  0  0  0  0  0  0  0
   13.3811   -1.6804   25.9758 C   0  0  0  0  0  0  0  0  0  0  0  0
   12.2827   -1.3801   25.2221 C   0  0  0  0  0  0  0  0  0  0  0  0
   11.2142   -2.3039   25.0858 C   0  0  0  0  0  0  0  0  0  0  0  0
    6.2215    4.5031   22.0181 C   0  0  0  0  0  0  0  0  0  0  0  0
    5.4069    3.0307   21.5651 Cl  0  0  0  0  0  0  0  0  0  0  0  0
    5.6970    5.6953   21.5450 C   0  0  0  0  0  0  0  0  0  0  0  0
    6.3526    6.8834   21.8271 C   0  0  0  0  0  0  0  0  0  0  0  0
    7.5104    6.8713   22.5711 C   0  0  0  0  0  0  0  0  0  0  0  0
    8.0164    5.6758   23.0597 C   0  0  0  0  0  0  0  0  0  0  0  0
    7.3803    4.4630   22.7973 C   0  0  0  0  0  0  0  0  0  0  0  0
  1  7  1  0
  1  9  1  0
  1 11  1  0
 22 23  1  0
 22 24  2  0
 22 28  1  0
  2  9  2  0
 24 25  1  0
  3  9  1  0
  3 10  1  0
  3 13  1  0
  4 10  2  0
 25 26  2  0
 12 14  2  0
 12 15  1  0
 26 27  1  0
 27 28  2  0
 28  5  1  0
  5  6  1  0
  5  8  1  0
  6  7  1  0
  7  8  1  0
  7 10  1  0
 13 14  1  0
 13 21  2  0
 15 16  2  0
 16 17  1  0
 16 21  1  0
 17 18  2  0
 18 19  1  0
 19 20  2  0
 20 21  1  0
M  END
> <minimizedAffinity>
-7.72808

> <CNNscore>
0.1518236101

> <CNNaffinity>
5.5881013870

> <CNN_VS>
0.8484057188

> <CNNaffinity_variance>
0.1798018515

$$$$
complex-mers-lig.pdb


 28 32  0  0  0  0  0  0  0  0999 V2000
    9.0269    0.4690   22.8041 N   0  0  0  0  0  0  0  0  0  0  0  0
   10.5540   -1.2277   22.5387 O   0  0  0  0  0  0  0  0  0  0  0  0
   10.1428   -0.1900   24.5833 N   0  0  0  0  0  0  0  0  0  0  0  0
    9.0156    1.0027   26.2422 O   0  0  0  0  0  0  0  0  0  0  0  0
    7.5399    2.7125   22.7802 C   0  0  0  0  0  0  0  0  0  0  0  0
    7.0193    1.6847   23.8171 C   0  0  0  0  0  0  0  0  0  0  0  0
    8.5324    1.3487   23.8623 C   0  0  0  0  0  0  0  0  0  0  0  0
    8.8146    2.8572   23.6502 C   0  0  0  0  0  0  0  0  0  0  0  0
    9.9808   -0.3883   23.2129 C   0  0  0  0  0  0  0  0  0  0  0  0
    9.2308    0.7464   25.0723 C   0  0  0  0  0  0  0  0  0  0  0  0
    8.6931    0.5007   21.8785 H   0  0  0  0  0  0  0  0  0  0  0  0
   13.3709   -1.7202   25.1259 N   0  0  0  0  0  0  0  0  0  0  0  0
   11.0830   -0.9127   25.3974 C   0  0  0  0  0  0  0  0  0  0  0  0
   12.4328   -0.7717   25.0818 C   0  0  0  0  0  0  0  0  0  0  0  0
   12.9983   -2.9163   25.5327 C   0  0  0  0  0  0  0  0  0  0  0  0
   11.6843   -3.2316   25.9465 C   0  0  0  0  0  0  0  0  0  0  0  0
   11.3143   -4.5133   26.4244 C   0  0  0  0  0  0  0  0  0  0  0  0
   10.0382   -4.7561   26.8428 C   0  0  0  0  0  0  0  0  0  0  0  0
    9.0788   -3.7571   26.8034 C   0  0  0  0  0  0  0  0  0  0  0  0
    9.3891   -2.5101   26.3415 C   0  0  0  0  0  0  0  0  0  0  0  0
   10.7001   -2.2004   25.8956 C   0  0  0  0  0  0  0  0  0  0  0  0
    5.5930    3.8079   21.5341 C   0  0  0  0  0  0  0  0  0  0  0  0
    5.1573    2.2737   20.8321 Cl  0  0  0  0  0  0  0  0  0  0  0  0
    4.8017    4.9017   21.2213 C   0  0  0  0  0  0  0  0  0  0  0  0
    5.1522    6.1523   21.7054 C   0  0  0  0  0  0  0  0  0  0  0  0
    6.2742    6.2978   22.4890 C   0  0  0  0  0  0  0  0  0  0  0  0
    7.0482    5.1941   22.8157 C   0  0  0  0  0  0  0  0  0  0  0  0
    6.7224    3.9215   22.3484 C   0  0  0  0  0  0  0  0  0  0  0  0
  1  7  1  0
  1  9  1  0
  1 11  1  0
 22 23  1  0
 22 24  2  0
 22 28  1  0
  2  9  2  0
 24 25  1  0
  3  9  1  0
  3 10  1  0
  3 13  1  0
  4 10  2  0
 25 26  2  0
 12 14  2  0
 12 15  1  0
 26 27  1  0
 27 28  2  0
 28  5  1  0
  5  6  1  0
  5  8  1  0
  6  7  1  0
  7  8  1  0
  7 10  1  0
 13 14  1  0
 13 21  2  0
 15 16  2  0
 16 17  1  0
 16 21  1  0
 17 18  2  0
 18 19  1  0
 19 20  2  0
 20 21  1  0
M  END
> <minimizedAffinity>
-6.81864

> <CNNscore>
0.1407864541

> <CNNaffinity>
5.7573065758

> <CNN_VS>
0.8105507493

> <CNNaffinity_variance>
0.3716351390

$$$$
complex-mers-lig.pdb


 28 32  0  0  0  0  0  0  0  0999 V2000
    7.9518    0.7341   22.3865 N   0  0  0  0  0  0  0  0  0  0  0  0
    9.5417   -0.8755   21.9834 O   0  0  0  0  0  0  0  0  0  0  0  0
    9.6544    0.6079   23.7759 N   0  0  0  0  0  0  0  0  0  0  0  0
    8.9515    2.1005   25.4261 O   0  0  0  0  0  0  0  0  0  0  0  0
    6.2304    2.8034   22.3948 C   0  0  0  0  0  0  0  0  0  0  0  0
    6.2158    2.0335   23.7400 C   0  0  0  0  0  0  0  0  0  0  0  0
    7.6972    1.8154   23.3374 C   0  0  0  0  0  0  0  0  0  0  0  0
    7.6805    3.2391   22.7268 C   0  0  0  0  0  0  0  0  0  0  0  0
    9.0977    0.0667   22.6180 C   0  0  0  0  0  0  0  0  0  0  0  0
    8.8202    1.5767   24.3357 C   0  0  0  0  0  0  0  0  0  0  0  0
    7.3418    0.5146   21.6457 H   0  0  0  0  0  0  0  0  0  0  0  0
   13.1227   -0.3706   23.5116 N   0  0  0  0  0  0  0  0  0  0  0  0
   10.8963    0.1700   24.3548 C   0  0  0  0  0  0  0  0  0  0  0  0
   12.0577    0.4255   23.6286 C   0  0  0  0  0  0  0  0  0  0  0  0
   13.0950   -1.5125   24.1674 C   0  0  0  0  0  0  0  0  0  0  0  0
   12.0255   -1.9157   24.9984 C   0  0  0  0  0  0  0  0  0  0  0  0
   12.0353   -3.1282   25.7319 C   0  0  0  0  0  0  0  0  0  0  0  0
   10.9900   -3.4550   26.5462 C   0  0  0  0  0  0  0  0  0  0  0  0
    9.8973   -2.6116   26.6675 C   0  0  0  0  0  0  0  0  0  0  0  0
    9.8417   -1.4379   25.9718 C   0  0  0  0  0  0  0  0  0  0  0  0
   10.9006   -1.0462   25.1121 C   0  0  0  0  0  0  0  0  0  0  0  0
    3.8069    3.4650   21.9136 C   0  0  0  0  0  0  0  0  0  0  0  0
    3.3089    1.8002   22.0442 Cl  0  0  0  0  0  0  0  0  0  0  0  0
    2.8232    4.4086   21.6635 C   0  0  0  0  0  0  0  0  0  0  0  0
    3.1856    5.7346   21.4867 C   0  0  0  0  0  0  0  0  0  0  0  0
    4.5096    6.1028   21.5619 C   0  0  0  0  0  0  0  0  0  0  0  0
    5.4854    5.1556   21.8348 C   0  0  0  0  0  0  0  0  0  0  0  0
    5.1553    3.8137   22.0211 C   0  0  0  0  0  0  0  0  0  0  0  0
  1  7  1  0
  1  9  1  0
  1 11  1  0
 22 23  1  0
 22 24  2  0
 22 28  1  0
  2  9  2  0
 24 25  1  0
  3  9  1  0
  3 10  1  0
  3 13  1  0
  4 10  2  0
 25 26  2  0
 12 14  2  0
 12 15  1  0
 26 27  1  0
 27 28  2  0
 28  5  1  0
  5  6  1  0
  5  8  1  0
  6  7  1  0
  7  8  1  0
  7 10  1  0
 13 14  1  0
 13 21  2  0
 15 16  2  0
 16 17  1  0
 16 21  1  0
 17 18  2  0
 18 19  1  0
 19 20  2  0
 20 21  1  0
M  END
> <minimizedAffinity>
-7.38902

> <CNNscore>
0.1402276307

> <CNNaffinity>
5.6304097176

> <CNN_VS>
0.7895390391

> <CNNaffinity_variance>
0.2964624166

$$$$
complex-mers-lig.pdb


 28 32  0  0  0  0  0  0  0  0999 V2000
    7.3572   -0.0441   24.5373 N   0  0  0  0  0  0  0  0  0  0  0  0
    5.1598    0.6286   24.5532 O   0  0  0  0  0  0  0  0  0  0  0  0
    6.8849    1.9268   23.6782 N   0  0  0  0  0  0  0  0  0  0  0  0
    8.9499    2.4727   22.7387 O   0  0  0  0  0  0  0  0  0  0  0  0
    9.8812   -0.8360   25.0348 C   0  0  0  0  0  0  0  0  0  0  0  0
    9.6469   -0.5645   23.5268 C   0  0  0  0  0  0  0  0  0  0  0  0
    8.6629    0.4719   24.1285 C   0  0  0  0  0  0  0  0  0  0  0  0
    9.6783    0.6811   25.2799 C   0  0  0  0  0  0  0  0  0  0  0  0
    6.3417    0.8106   24.3129 C   0  0  0  0  0  0  0  0  0  0  0  0
    8.2459    1.7535   23.4227 C   0  0  0  0  0  0  0  0  0  0  0  0
    7.2324   -0.9340   24.9394 H   0  0  0  0  0  0  0  0  0  0  0  0
    5.4213    4.0550   21.1514 N   0  0  0  0  0  0  0  0  0  0  0  0
    6.1211    3.0775   23.2762 C   0  0  0  0  0  0  0  0  0  0  0  0
    5.5397    3.0403   22.0104 C   0  0  0  0  0  0  0  0  0  0  0  0
    5.8776    5.2281   21.5395 C   0  0  0  0  0  0  0  0  0  0  0  0
    6.4486    5.4681   22.8097 C   0  0  0  0  0  0  0  0  0  0  0  0
    6.8919    6.7483   23.2251 C   0  0  0  0  0  0  0  0  0  0  0  0
    7.4062    6.9326   24.4757 C   0  0  0  0  0  0  0  0  0  0  0  0
    7.5103    5.8717   25.3610 C   0  0  0  0  0  0  0  0  0  0  0  0
    7.1041    4.6191   24.9993 C   0  0  0  0  0  0  0  0  0  0  0  0
    6.5598    4.3696   23.7128 C   0  0  0  0  0  0  0  0  0  0  0  0
   11.0131   -2.7308   26.3277 C   0  0  0  0  0  0  0  0  0  0  0  0
    9.4632   -3.2965   26.8884 Cl  0  0  0  0  0  0  0  0  0  0  0  0
   12.1337   -3.4482   26.7151 C   0  0  0  0  0  0  0  0  0  0  0  0
   13.3900   -2.9941   26.3458 C   0  0  0  0  0  0  0  0  0  0  0  0
   13.5151   -1.8435   25.6010 C   0  0  0  0  0  0  0  0  0  0  0  0
   12.3871   -1.1438   25.1985 C   0  0  0  0  0  0  0  0  0  0  0  0
   11.1083   -1.5743   25.5499 C   0  0  0  0  0  0  0  0  0  0  0  0
  1  7  1  0
  1  9  1  0
  1 11  1  0
 22 23  1  0
 22 24  2  0
 22 28  1  0
  2  9  2  0
 24 25  1  0
  3  9  1  0
  3 10  1  0
  3 13  1  0
  4 10  2  0
 25 26  2  0
 12 14  2  0
 12 15  1  0
 26 27  1  0
 27 28  2  0
 28  5  1  0
  5  6  1  0
  5  8  1  0
  6  7  1  0
  7  8  1  0
  7 10  1  0
 13 14  1  0
 13 21  2  0
 15 16  2  0
 16 17  1  0
 16 21  1  0
 17 18  2  0
 18 19  1  0
 19 20  2  0
 20 21  1  0
M  END
> <minimizedAffinity>
-6.94971

> <CNNscore>
0.1368631423

> <CNNaffinity>
5.6418504715

> <CNN_VS>
0.7721613646

> <CNNaffinity_variance>
0.4503707290

$$$$
