complex-mers-lig-h_gnina_dock_complex-mers-lig-h_24
     RDKit          3D

 27 31  0  0  0  0  0  0  0  0999 V2000
   10.1058    0.6862   22.7696 N   0  0  0  0  0  0  0  0  0  0  0  0
   11.7854    1.3285   24.2007 O   0  0  0  0  0  0  0  0  0  0  0  0
   10.8523   -0.8060   24.2054 N   0  0  0  0  0  0  0  0  0  0  0  0
    9.7459   -2.7102   23.4339 O   0  0  0  0  0  0  0  0  0  0  0  0
    7.8655    0.3080   21.3263 C   0  0  2  0  0  0  0  0  0  0  0  0
    8.9448   -0.7583   21.0090 C   0  0  0  0  0  0  0  0  0  0  0  0
    9.2810   -0.4905   22.4988 C   0  0  2  0  0  0  0  0  0  0  0  0
    7.7635   -0.3025   22.7475 C   0  0  0  0  0  0  0  0  0  0  0  0
   10.9816    0.5145   23.7774 C   0  0  0  0  0  0  0  0  0  0  0  0
    9.9427   -1.5095   23.4145 C   0  0  0  0  0  0  0  0  0  0  0  0
   13.6543   -2.7131   25.4577 N   0  0  0  0  0  0  0  0  0  0  0  0
   11.6142   -1.3840   25.2799 C   0  0  0  0  0  0  0  0  0  0  0  0
   12.9563   -1.6602   25.0268 C   0  0  0  0  0  0  0  0  0  0  0  0
   13.0247   -3.5790   26.2250 C   0  0  0  0  0  0  0  0  0  0  0  0
   11.6792   -3.4350   26.6324 C   0  0  0  0  0  0  0  0  0  0  0  0
   11.0337   -4.3546   27.4960 C   0  0  0  0  0  0  0  0  0  0  0  0
    9.7416   -4.1511   27.8853 C   0  0  0  0  0  0  0  0  0  0  0  0
    9.0343   -3.0459   27.4401 C   0  0  0  0  0  0  0  0  0  0  0  0
    9.6140   -2.1394   26.5993 C   0  0  0  0  0  0  0  0  0  0  0  0
   10.9550   -2.2990   26.1636 C   0  0  0  0  0  0  0  0  0  0  0  0
    5.5761    1.3364   20.8319 C   0  0  0  0  0  0  0  0  0  0  0  0
    5.5357    2.0513   22.4205 Cl  0  0  0  0  0  0  0  0  0  0  0  0
    4.5047    1.5886   19.9900 C   0  0  0  0  0  0  0  0  0  0  0  0
    4.4663    0.9853   18.7428 C   0  0  0  0  0  0  0  0  0  0  0  0
    5.4856    0.1476   18.3512 C   0  0  0  0  0  0  0  0  0  0  0  0
    6.5653   -0.0818   19.1912 C   0  0  0  0  0  0  0  0  0  0  0  0
    6.6372    0.5114   20.4510 C   0  0  0  0  0  0  0  0  0  0  0  0
  1  7  1  0
  1  9  1  0
 21 22  1  0
 21 23  2  0
 21 27  1  0
  2  9  2  0
 23 24  1  0
  3  9  1  0
  3 10  1  0
  3 12  1  0
  4 10  2  0
 24 25  2  0
 11 13  2  0
 11 14  1  0
 25 26  1  0
 26 27  2  0
  5 27  1  6
  5  6  1  0
  5  8  1  0
  7  6  1  6
  7  8  1  0
  7 10  1  0
 12 13  1  0
 12 20  2  0
 14 15  2  0
 15 16  1  0
 15 20  1  0
 16 17  2  0
 17 18  1  0
 18 19  2  0
 19 20  1  0
M  END
>  <minimizedAffinity>  (1) 
-9.01827

>  <CNNscore>  (1) 
0.2725577652

>  <CNNaffinity>  (1) 
5.9771065712

>  <CNN_VS>  (1) 
1.6291067600

>  <CNNaffinity_variance>  (1) 
0.1126622558

$$$$
complex-mers-lig-h_gnina_dock_complex-mers-lig-h_24
     RDKit          3D

 27 31  0  0  0  0  0  0  0  0999 V2000
   10.1058    0.6862   22.7696 N   0  0  0  0  0  0  0  0  0  0  0  0
   11.7854    1.3285   24.2007 O   0  0  0  0  0  0  0  0  0  0  0  0
   10.8523   -0.8060   24.2054 N   0  0  0  0  0  0  0  0  0  0  0  0
    9.7459   -2.7102   23.4339 O   0  0  0  0  0  0  0  0  0  0  0  0
    7.8655    0.3080   21.3263 C   0  0  2  0  0  0  0  0  0  0  0  0
    8.9448   -0.7583   21.0090 C   0  0  0  0  0  0  0  0  0  0  0  0
    9.2810   -0.4905   22.4988 C   0  0  2  0  0  0  0  0  0  0  0  0
    7.7635   -0.3025   22.7475 C   0  0  0  0  0  0  0  0  0  0  0  0
   10.9816    0.5145   23.7774 C   0  0  0  0  0  0  0  0  0  0  0  0
    9.9427   -1.5095   23.4145 C   0  0  0  0  0  0  0  0  0  0  0  0
   13.6543   -2.7131   25.4577 N   0  0  0  0  0  0  0  0  0  0  0  0
   11.6142   -1.3840   25.2799 C   0  0  0  0  0  0  0  0  0  0  0  0
   12.9563   -1.6602   25.0268 C   0  0  0  0  0  0  0  0  0  0  0  0
   13.0247   -3.5790   26.2250 C   0  0  0  0  0  0  0  0  0  0  0  0
   11.6792   -3.4350   26.6324 C   0  0  0  0  0  0  0  0  0  0  0  0
   11.0337   -4.3546   27.4960 C   0  0  0  0  0  0  0  0  0  0  0  0
    9.7416   -4.1511   27.8853 C   0  0  0  0  0  0  0  0  0  0  0  0
    9.0343   -3.0459   27.4401 C   0  0  0  0  0  0  0  0  0  0  0  0
    9.6140   -2.1394   26.5993 C   0  0  0  0  0  0  0  0  0  0  0  0
   10.9550   -2.2990   26.1636 C   0  0  0  0  0  0  0  0  0  0  0  0
    5.5761    1.3364   20.8319 C   0  0  0  0  0  0  0  0  0  0  0  0
    5.5357    2.0513   22.4205 Cl  0  0  0  0  0  0  0  0  0  0  0  0
    4.5047    1.5886   19.9900 C   0  0  0  0  0  0  0  0  0  0  0  0
    4.4663    0.9853   18.7428 C   0  0  0  0  0  0  0  0  0  0  0  0
    5.4856    0.1476   18.3512 C   0  0  0  0  0  0  0  0  0  0  0  0
    6.5653   -0.0818   19.1912 C   0  0  0  0  0  0  0  0  0  0  0  0
    6.6372    0.5114   20.4510 C   0  0  0  0  0  0  0  0  0  0  0  0
  1  7  1  0
  1  9  1  0
 21 22  1  0
 21 23  2  0
 21 27  1  0
  2  9  2  0
 23 24  1  0
  3  9  1  0
  3 10  1  0
  3 12  1  0
  4 10  2  0
 24 25  2  0
 11 13  2  0
 11 14  1  0
 25 26  1  0
 26 27  2  0
  5 27  1  6
  5  6  1  0
  5  8  1  0
  7  6  1  6
  7  8  1  0
  7 10  1  0
 12 13  1  0
 12 20  2  0
 14 15  2  0
 15 16  1  0
 15 20  1  0
 16 17  2  0
 17 18  1  0
 18 19  2  0
 19 20  1  0
M  END
>  <minimizedAffinity>  (2) 
-9.01827

>  <CNNscore>  (2) 
0.2725577652

>  <CNNaffinity>  (2) 
5.9771065712

>  <CNN_VS>  (2) 
1.6291067600

>  <CNNaffinity_variance>  (2) 
0.1126622558

$$$$
complex-mers-lig-h_gnina_dock_complex-mers-lig-h_24
     RDKit          3D

 27 31  0  0  0  0  0  0  0  0999 V2000
   10.1058    0.6862   22.7696 N   0  0  0  0  0  0  0  0  0  0  0  0
   11.7854    1.3285   24.2007 O   0  0  0  0  0  0  0  0  0  0  0  0
   10.8523   -0.8060   24.2054 N   0  0  0  0  0  0  0  0  0  0  0  0
    9.7459   -2.7102   23.4339 O   0  0  0  0  0  0  0  0  0  0  0  0
    7.8655    0.3080   21.3263 C   0  0  2  0  0  0  0  0  0  0  0  0
    8.9448   -0.7583   21.0090 C   0  0  0  0  0  0  0  0  0  0  0  0
    9.2810   -0.4905   22.4988 C   0  0  2  0  0  0  0  0  0  0  0  0
    7.7635   -0.3025   22.7475 C   0  0  0  0  0  0  0  0  0  0  0  0
   10.9816    0.5145   23.7774 C   0  0  0  0  0  0  0  0  0  0  0  0
    9.9427   -1.5095   23.4145 C   0  0  0  0  0  0  0  0  0  0  0  0
   13.6543   -2.7131   25.4577 N   0  0  0  0  0  0  0  0  0  0  0  0
   11.6142   -1.3840   25.2799 C   0  0  0  0  0  0  0  0  0  0  0  0
   12.9563   -1.6602   25.0268 C   0  0  0  0  0  0  0  0  0  0  0  0
   13.0247   -3.5790   26.2250 C   0  0  0  0  0  0  0  0  0  0  0  0
   11.6792   -3.4350   26.6324 C   0  0  0  0  0  0  0  0  0  0  0  0
   11.0337   -4.3546   27.4960 C   0  0  0  0  0  0  0  0  0  0  0  0
    9.7416   -4.1511   27.8853 C   0  0  0  0  0  0  0  0  0  0  0  0
    9.0343   -3.0459   27.4401 C   0  0  0  0  0  0  0  0  0  0  0  0
    9.6140   -2.1394   26.5993 C   0  0  0  0  0  0  0  0  0  0  0  0
   10.9550   -2.2990   26.1636 C   0  0  0  0  0  0  0  0  0  0  0  0
    5.5761    1.3364   20.8319 C   0  0  0  0  0  0  0  0  0  0  0  0
    5.5357    2.0513   22.4205 Cl  0  0  0  0  0  0  0  0  0  0  0  0
    4.5047    1.5886   19.9900 C   0  0  0  0  0  0  0  0  0  0  0  0
    4.4663    0.9853   18.7428 C   0  0  0  0  0  0  0  0  0  0  0  0
    5.4856    0.1476   18.3512 C   0  0  0  0  0  0  0  0  0  0  0  0
    6.5653   -0.0818   19.1912 C   0  0  0  0  0  0  0  0  0  0  0  0
    6.6372    0.5114   20.4510 C   0  0  0  0  0  0  0  0  0  0  0  0
  1  7  1  0
  1  9  1  0
 21 22  1  0
 21 23  2  0
 21 27  1  0
  2  9  2  0
 23 24  1  0
  3  9  1  0
  3 10  1  0
  3 12  1  0
  4 10  2  0
 24 25  2  0
 11 13  2  0
 11 14  1  0
 25 26  1  0
 26 27  2  0
  5 27  1  6
  5  6  1  0
  5  8  1  0
  7  6  1  6
  7  8  1  0
  7 10  1  0
 12 13  1  0
 12 20  2  0
 14 15  2  0
 15 16  1  0
 15 20  1  0
 16 17  2  0
 17 18  1  0
 18 19  2  0
 19 20  1  0
M  END
>  <minimizedAffinity>  (3) 
-9.01827

>  <CNNscore>  (3) 
0.2725577652

>  <CNNaffinity>  (3) 
5.9771065712

>  <CNN_VS>  (3) 
1.6291067600

>  <CNNaffinity_variance>  (3) 
0.1126622558

$$$$
complex-mers-lig-h_gnina_dock_complex-mers-lig-h_24
     RDKit          3D

 27 31  0  0  0  0  0  0  0  0999 V2000
   10.1058    0.6862   22.7696 N   0  0  0  0  0  0  0  0  0  0  0  0
   11.7854    1.3285   24.2007 O   0  0  0  0  0  0  0  0  0  0  0  0
   10.8523   -0.8060   24.2054 N   0  0  0  0  0  0  0  0  0  0  0  0
    9.7459   -2.7102   23.4339 O   0  0  0  0  0  0  0  0  0  0  0  0
    7.8655    0.3080   21.3263 C   0  0  2  0  0  0  0  0  0  0  0  0
    8.9448   -0.7583   21.0090 C   0  0  0  0  0  0  0  0  0  0  0  0
    9.2810   -0.4905   22.4988 C   0  0  2  0  0  0  0  0  0  0  0  0
    7.7635   -0.3025   22.7475 C   0  0  0  0  0  0  0  0  0  0  0  0
   10.9816    0.5145   23.7774 C   0  0  0  0  0  0  0  0  0  0  0  0
    9.9427   -1.5095   23.4145 C   0  0  0  0  0  0  0  0  0  0  0  0
   13.6543   -2.7131   25.4577 N   0  0  0  0  0  0  0  0  0  0  0  0
   11.6142   -1.3840   25.2799 C   0  0  0  0  0  0  0  0  0  0  0  0
   12.9563   -1.6602   25.0268 C   0  0  0  0  0  0  0  0  0  0  0  0
   13.0247   -3.5790   26.2250 C   0  0  0  0  0  0  0  0  0  0  0  0
   11.6792   -3.4350   26.6324 C   0  0  0  0  0  0  0  0  0  0  0  0
   11.0337   -4.3546   27.4960 C   0  0  0  0  0  0  0  0  0  0  0  0
    9.7416   -4.1511   27.8853 C   0  0  0  0  0  0  0  0  0  0  0  0
    9.0343   -3.0459   27.4401 C   0  0  0  0  0  0  0  0  0  0  0  0
    9.6140   -2.1394   26.5993 C   0  0  0  0  0  0  0  0  0  0  0  0
   10.9550   -2.2990   26.1636 C   0  0  0  0  0  0  0  0  0  0  0  0
    5.5761    1.3364   20.8319 C   0  0  0  0  0  0  0  0  0  0  0  0
    5.5357    2.0513   22.4205 Cl  0  0  0  0  0  0  0  0  0  0  0  0
    4.5047    1.5886   19.9900 C   0  0  0  0  0  0  0  0  0  0  0  0
    4.4663    0.9853   18.7428 C   0  0  0  0  0  0  0  0  0  0  0  0
    5.4856    0.1476   18.3512 C   0  0  0  0  0  0  0  0  0  0  0  0
    6.5653   -0.0818   19.1912 C   0  0  0  0  0  0  0  0  0  0  0  0
    6.6372    0.5114   20.4510 C   0  0  0  0  0  0  0  0  0  0  0  0
  1  7  1  0
  1  9  1  0
 21 22  1  0
 21 23  2  0
 21 27  1  0
  2  9  2  0
 23 24  1  0
  3  9  1  0
  3 10  1  0
  3 12  1  0
  4 10  2  0
 24 25  2  0
 11 13  2  0
 11 14  1  0
 25 26  1  0
 26 27  2  0
  5 27  1  6
  5  6  1  0
  5  8  1  0
  7  6  1  6
  7  8  1  0
  7 10  1  0
 12 13  1  0
 12 20  2  0
 14 15  2  0
 15 16  1  0
 15 20  1  0
 16 17  2  0
 17 18  1  0
 18 19  2  0
 19 20  1  0
M  END
>  <minimizedAffinity>  (4) 
-9.01827

>  <CNNscore>  (4) 
0.2725577652

>  <CNNaffinity>  (4) 
5.9771065712

>  <CNN_VS>  (4) 
1.6291067600

>  <CNNaffinity_variance>  (4) 
0.1126622558

$$$$
complex-mers-lig-h_gnina_dock_complex-mers-lig-h_16
     RDKit          3D

 27 31  0  0  0  0  0  0  0  0999 V2000
   10.0189    0.8611   22.8447 N   0  0  0  0  0  0  0  0  0  0  0  0
   11.8751    1.3994   24.0881 O   0  0  0  0  0  0  0  0  0  0  0  0
   10.7911   -0.6570   24.2392 N   0  0  0  0  0  0  0  0  0  0  0  0
    9.4751   -2.4848   23.6288 O   0  0  0  0  0  0  0  0  0  0  0  0
    7.6247    0.6288   21.6368 C   0  0  2  0  0  0  0  0  0  0  0  0
    8.5850   -0.5227   21.2437 C   0  0  0  0  0  0  0  0  0  0  0  0
    9.0862   -0.2539   22.6862 C   0  0  2  0  0  0  0  0  0  0  0  0
    7.6190    0.0544   23.0765 C   0  0  0  0  0  0  0  0  0  0  0  0
   10.9751    0.6416   23.7664 C   0  0  0  0  0  0  0  0  0  0  0  0
    9.7578   -1.3033   23.5592 C   0  0  0  0  0  0  0  0  0  0  0  0
   13.6672   -2.5868   25.2686 N   0  0  0  0  0  0  0  0  0  0  0  0
   11.6106   -1.2716   25.2490 C   0  0  0  0  0  0  0  0  0  0  0  0
   12.9403   -1.5238   24.9176 C   0  0  0  0  0  0  0  0  0  0  0  0
   13.0839   -3.4899   26.0295 C   0  0  0  0  0  0  0  0  0  0  0  0
   11.7595   -3.3761   26.5094 C   0  0  0  0  0  0  0  0  0  0  0  0
   11.1655   -4.3370   27.3649 C   0  0  0  0  0  0  0  0  0  0  0  0
    9.8931   -4.1626   27.8267 C   0  0  0  0  0  0  0  0  0  0  0  0
    9.1558   -3.0468   27.4641 C   0  0  0  0  0  0  0  0  0  0  0  0
    9.6854   -2.1006   26.6341 C   0  0  0  0  0  0  0  0  0  0  0  0
   11.0039   -2.2289   26.1255 C   0  0  0  0  0  0  0  0  0  0  0  0
    6.0873    0.3925   19.6061 C   0  0  0  0  0  0  0  0  0  0  0  0
    7.3299   -0.4744   18.7453 Cl  0  0  0  0  0  0  0  0  0  0  0  0
    4.8736    0.5762   18.9630 C   0  0  0  0  0  0  0  0  0  0  0  0
    3.8819    1.3172   19.5862 C   0  0  0  0  0  0  0  0  0  0  0  0
    4.1068    1.8599   20.8308 C   0  0  0  0  0  0  0  0  0  0  0  0
    5.3164    1.6523   21.4771 C   0  0  0  0  0  0  0  0  0  0  0  0
    6.3343    0.9093   20.8803 C   0  0  0  0  0  0  0  0  0  0  0  0
  1  7  1  0
  1  9  1  0
 21 22  1  0
 21 23  2  0
 21 27  1  0
  2  9  2  0
 23 24  1  0
  3  9  1  0
  3 10  1  0
  3 12  1  0
  4 10  2  0
 24 25  2  0
 11 13  2  0
 11 14  1  0
 25 26  1  0
 26 27  2  0
  5 27  1  6
  5  6  1  0
  5  8  1  0
  7  6  1  6
  7  8  1  0
  7 10  1  0
 12 13  1  0
 12 20  2  0
 14 15  2  0
 15 16  1  0
 15 20  1  0
 16 17  2  0
 17 18  1  0
 18 19  2  0
 19 20  1  0
M  END
>  <minimizedAffinity>  (5) 
-8.98166

>  <CNNscore>  (5) 
0.3930144906

>  <CNNaffinity>  (5) 
6.1110420227

>  <CNN_VS>  (5) 
2.4017281532

>  <CNNaffinity_variance>  (5) 
0.1525208503

$$$$
complex-mers-lig-h_gnina_dock_complex-mers-lig-h_16
     RDKit          3D

 27 31  0  0  0  0  0  0  0  0999 V2000
   10.0189    0.8611   22.8447 N   0  0  0  0  0  0  0  0  0  0  0  0
   11.8751    1.3994   24.0881 O   0  0  0  0  0  0  0  0  0  0  0  0
   10.7911   -0.6570   24.2392 N   0  0  0  0  0  0  0  0  0  0  0  0
    9.4751   -2.4848   23.6288 O   0  0  0  0  0  0  0  0  0  0  0  0
    7.6247    0.6288   21.6368 C   0  0  2  0  0  0  0  0  0  0  0  0
    8.5850   -0.5227   21.2437 C   0  0  0  0  0  0  0  0  0  0  0  0
    9.0862   -0.2539   22.6862 C   0  0  2  0  0  0  0  0  0  0  0  0
    7.6190    0.0544   23.0765 C   0  0  0  0  0  0  0  0  0  0  0  0
   10.9751    0.6416   23.7664 C   0  0  0  0  0  0  0  0  0  0  0  0
    9.7578   -1.3033   23.5592 C   0  0  0  0  0  0  0  0  0  0  0  0
   13.6672   -2.5868   25.2686 N   0  0  0  0  0  0  0  0  0  0  0  0
   11.6106   -1.2716   25.2490 C   0  0  0  0  0  0  0  0  0  0  0  0
   12.9403   -1.5238   24.9176 C   0  0  0  0  0  0  0  0  0  0  0  0
   13.0839   -3.4899   26.0295 C   0  0  0  0  0  0  0  0  0  0  0  0
   11.7595   -3.3761   26.5094 C   0  0  0  0  0  0  0  0  0  0  0  0
   11.1655   -4.3370   27.3649 C   0  0  0  0  0  0  0  0  0  0  0  0
    9.8931   -4.1626   27.8267 C   0  0  0  0  0  0  0  0  0  0  0  0
    9.1558   -3.0468   27.4641 C   0  0  0  0  0  0  0  0  0  0  0  0
    9.6854   -2.1006   26.6341 C   0  0  0  0  0  0  0  0  0  0  0  0
   11.0039   -2.2289   26.1255 C   0  0  0  0  0  0  0  0  0  0  0  0
    6.0873    0.3925   19.6061 C   0  0  0  0  0  0  0  0  0  0  0  0
    7.3299   -0.4744   18.7453 Cl  0  0  0  0  0  0  0  0  0  0  0  0
    4.8736    0.5762   18.9630 C   0  0  0  0  0  0  0  0  0  0  0  0
    3.8819    1.3172   19.5862 C   0  0  0  0  0  0  0  0  0  0  0  0
    4.1068    1.8599   20.8308 C   0  0  0  0  0  0  0  0  0  0  0  0
    5.3164    1.6523   21.4771 C   0  0  0  0  0  0  0  0  0  0  0  0
    6.3343    0.9093   20.8803 C   0  0  0  0  0  0  0  0  0  0  0  0
  1  7  1  0
  1  9  1  0
 21 22  1  0
 21 23  2  0
 21 27  1  0
  2  9  2  0
 23 24  1  0
  3  9  1  0
  3 10  1  0
  3 12  1  0
  4 10  2  0
 24 25  2  0
 11 13  2  0
 11 14  1  0
 25 26  1  0
 26 27  2  0
  5 27  1  6
  5  6  1  0
  5  8  1  0
  7  6  1  6
  7  8  1  0
  7 10  1  0
 12 13  1  0
 12 20  2  0
 14 15  2  0
 15 16  1  0
 15 20  1  0
 16 17  2  0
 17 18  1  0
 18 19  2  0
 19 20  1  0
M  END
>  <minimizedAffinity>  (6) 
-8.98166

>  <CNNscore>  (6) 
0.3930144906

>  <CNNaffinity>  (6) 
6.1110420227

>  <CNN_VS>  (6) 
2.4017281532

>  <CNNaffinity_variance>  (6) 
0.1525208503

$$$$
complex-mers-lig-h_gnina_dock_complex-mers-lig-h_24
     RDKit          3D

 27 31  0  0  0  0  0  0  0  0999 V2000
   10.1058    0.6862   22.7696 N   0  0  0  0  0  0  0  0  0  0  0  0
   11.7854    1.3285   24.2007 O   0  0  0  0  0  0  0  0  0  0  0  0
   10.8523   -0.8060   24.2054 N   0  0  0  0  0  0  0  0  0  0  0  0
    9.7459   -2.7102   23.4339 O   0  0  0  0  0  0  0  0  0  0  0  0
    7.8655    0.3080   21.3263 C   0  0  2  0  0  0  0  0  0  0  0  0
    8.9448   -0.7583   21.0090 C   0  0  0  0  0  0  0  0  0  0  0  0
    9.2810   -0.4905   22.4988 C   0  0  2  0  0  0  0  0  0  0  0  0
    7.7635   -0.3025   22.7475 C   0  0  0  0  0  0  0  0  0  0  0  0
   10.9816    0.5145   23.7774 C   0  0  0  0  0  0  0  0  0  0  0  0
    9.9427   -1.5095   23.4145 C   0  0  0  0  0  0  0  0  0  0  0  0
   13.6543   -2.7131   25.4577 N   0  0  0  0  0  0  0  0  0  0  0  0
   11.6142   -1.3840   25.2799 C   0  0  0  0  0  0  0  0  0  0  0  0
   12.9563   -1.6602   25.0268 C   0  0  0  0  0  0  0  0  0  0  0  0
   13.0247   -3.5790   26.2250 C   0  0  0  0  0  0  0  0  0  0  0  0
   11.6792   -3.4350   26.6324 C   0  0  0  0  0  0  0  0  0  0  0  0
   11.0337   -4.3546   27.4960 C   0  0  0  0  0  0  0  0  0  0  0  0
    9.7416   -4.1511   27.8853 C   0  0  0  0  0  0  0  0  0  0  0  0
    9.0343   -3.0459   27.4401 C   0  0  0  0  0  0  0  0  0  0  0  0
    9.6140   -2.1394   26.5993 C   0  0  0  0  0  0  0  0  0  0  0  0
   10.9550   -2.2990   26.1636 C   0  0  0  0  0  0  0  0  0  0  0  0
    5.5761    1.3364   20.8319 C   0  0  0  0  0  0  0  0  0  0  0  0
    5.5357    2.0513   22.4205 Cl  0  0  0  0  0  0  0  0  0  0  0  0
    4.5047    1.5886   19.9900 C   0  0  0  0  0  0  0  0  0  0  0  0
    4.4663    0.9853   18.7428 C   0  0  0  0  0  0  0  0  0  0  0  0
    5.4856    0.1476   18.3512 C   0  0  0  0  0  0  0  0  0  0  0  0
    6.5653   -0.0818   19.1912 C   0  0  0  0  0  0  0  0  0  0  0  0
    6.6372    0.5114   20.4510 C   0  0  0  0  0  0  0  0  0  0  0  0
  1  7  1  0
  1  9  1  0
 21 22  1  0
 21 23  2  0
 21 27  1  0
  2  9  2  0
 23 24  1  0
  3  9  1  0
  3 10  1  0
  3 12  1  0
  4 10  2  0
 24 25  2  0
 11 13  2  0
 11 14  1  0
 25 26  1  0
 26 27  2  0
  5 27  1  6
  5  6  1  0
  5  8  1  0
  7  6  1  6
  7  8  1  0
  7 10  1  0
 12 13  1  0
 12 20  2  0
 14 15  2  0
 15 16  1  0
 15 20  1  0
 16 17  2  0
 17 18  1  0
 18 19  2  0
 19 20  1  0
M  END
>  <minimizedAffinity>  (7) 
-9.01827

>  <CNNscore>  (7) 
0.2725577652

>  <CNNaffinity>  (7) 
5.9771065712

>  <CNN_VS>  (7) 
1.6291067600

>  <CNNaffinity_variance>  (7) 
0.1126622558

$$$$
complex-mers-lig-h_gnina_dock_complex-mers-lig-h_16
     RDKit          3D

 27 31  0  0  0  0  0  0  0  0999 V2000
   10.0189    0.8611   22.8447 N   0  0  0  0  0  0  0  0  0  0  0  0
   11.8751    1.3994   24.0881 O   0  0  0  0  0  0  0  0  0  0  0  0
   10.7911   -0.6570   24.2392 N   0  0  0  0  0  0  0  0  0  0  0  0
    9.4751   -2.4848   23.6288 O   0  0  0  0  0  0  0  0  0  0  0  0
    7.6247    0.6288   21.6368 C   0  0  2  0  0  0  0  0  0  0  0  0
    8.5850   -0.5227   21.2437 C   0  0  0  0  0  0  0  0  0  0  0  0
    9.0862   -0.2539   22.6862 C   0  0  2  0  0  0  0  0  0  0  0  0
    7.6190    0.0544   23.0765 C   0  0  0  0  0  0  0  0  0  0  0  0
   10.9751    0.6416   23.7664 C   0  0  0  0  0  0  0  0  0  0  0  0
    9.7578   -1.3033   23.5592 C   0  0  0  0  0  0  0  0  0  0  0  0
   13.6672   -2.5868   25.2686 N   0  0  0  0  0  0  0  0  0  0  0  0
   11.6106   -1.2716   25.2490 C   0  0  0  0  0  0  0  0  0  0  0  0
   12.9403   -1.5238   24.9176 C   0  0  0  0  0  0  0  0  0  0  0  0
   13.0839   -3.4899   26.0295 C   0  0  0  0  0  0  0  0  0  0  0  0
   11.7595   -3.3761   26.5094 C   0  0  0  0  0  0  0  0  0  0  0  0
   11.1655   -4.3370   27.3649 C   0  0  0  0  0  0  0  0  0  0  0  0
    9.8931   -4.1626   27.8267 C   0  0  0  0  0  0  0  0  0  0  0  0
    9.1558   -3.0468   27.4641 C   0  0  0  0  0  0  0  0  0  0  0  0
    9.6854   -2.1006   26.6341 C   0  0  0  0  0  0  0  0  0  0  0  0
   11.0039   -2.2289   26.1255 C   0  0  0  0  0  0  0  0  0  0  0  0
    6.0873    0.3925   19.6061 C   0  0  0  0  0  0  0  0  0  0  0  0
    7.3299   -0.4744   18.7453 Cl  0  0  0  0  0  0  0  0  0  0  0  0
    4.8736    0.5762   18.9630 C   0  0  0  0  0  0  0  0  0  0  0  0
    3.8819    1.3172   19.5862 C   0  0  0  0  0  0  0  0  0  0  0  0
    4.1068    1.8599   20.8308 C   0  0  0  0  0  0  0  0  0  0  0  0
    5.3164    1.6523   21.4771 C   0  0  0  0  0  0  0  0  0  0  0  0
    6.3343    0.9093   20.8803 C   0  0  0  0  0  0  0  0  0  0  0  0
  1  7  1  0
  1  9  1  0
 21 22  1  0
 21 23  2  0
 21 27  1  0
  2  9  2  0
 23 24  1  0
  3  9  1  0
  3 10  1  0
  3 12  1  0
  4 10  2  0
 24 25  2  0
 11 13  2  0
 11 14  1  0
 25 26  1  0
 26 27  2  0
  5 27  1  6
  5  6  1  0
  5  8  1  0
  7  6  1  6
  7  8  1  0
  7 10  1  0
 12 13  1  0
 12 20  2  0
 14 15  2  0
 15 16  1  0
 15 20  1  0
 16 17  2  0
 17 18  1  0
 18 19  2  0
 19 20  1  0
M  END
>  <minimizedAffinity>  (8) 
-8.98166

>  <CNNscore>  (8) 
0.3930144906

>  <CNNaffinity>  (8) 
6.1110420227

>  <CNN_VS>  (8) 
2.4017281532

>  <CNNaffinity_variance>  (8) 
0.1525208503

$$$$
complex-mers-lig-h_gnina_dock_complex-mers-lig-h_16
     RDKit          3D

 27 31  0  0  0  0  0  0  0  0999 V2000
   10.0189    0.8611   22.8447 N   0  0  0  0  0  0  0  0  0  0  0  0
   11.8751    1.3994   24.0881 O   0  0  0  0  0  0  0  0  0  0  0  0
   10.7911   -0.6570   24.2392 N   0  0  0  0  0  0  0  0  0  0  0  0
    9.4751   -2.4848   23.6288 O   0  0  0  0  0  0  0  0  0  0  0  0
    7.6247    0.6288   21.6368 C   0  0  2  0  0  0  0  0  0  0  0  0
    8.5850   -0.5227   21.2437 C   0  0  0  0  0  0  0  0  0  0  0  0
    9.0862   -0.2539   22.6862 C   0  0  2  0  0  0  0  0  0  0  0  0
    7.6190    0.0544   23.0765 C   0  0  0  0  0  0  0  0  0  0  0  0
   10.9751    0.6416   23.7664 C   0  0  0  0  0  0  0  0  0  0  0  0
    9.7578   -1.3033   23.5592 C   0  0  0  0  0  0  0  0  0  0  0  0
   13.6672   -2.5868   25.2686 N   0  0  0  0  0  0  0  0  0  0  0  0
   11.6106   -1.2716   25.2490 C   0  0  0  0  0  0  0  0  0  0  0  0
   12.9403   -1.5238   24.9176 C   0  0  0  0  0  0  0  0  0  0  0  0
   13.0839   -3.4899   26.0295 C   0  0  0  0  0  0  0  0  0  0  0  0
   11.7595   -3.3761   26.5094 C   0  0  0  0  0  0  0  0  0  0  0  0
   11.1655   -4.3370   27.3649 C   0  0  0  0  0  0  0  0  0  0  0  0
    9.8931   -4.1626   27.8267 C   0  0  0  0  0  0  0  0  0  0  0  0
    9.1558   -3.0468   27.4641 C   0  0  0  0  0  0  0  0  0  0  0  0
    9.6854   -2.1006   26.6341 C   0  0  0  0  0  0  0  0  0  0  0  0
   11.0039   -2.2289   26.1255 C   0  0  0  0  0  0  0  0  0  0  0  0
    6.0873    0.3925   19.6061 C   0  0  0  0  0  0  0  0  0  0  0  0
    7.3299   -0.4744   18.7453 Cl  0  0  0  0  0  0  0  0  0  0  0  0
    4.8736    0.5762   18.9630 C   0  0  0  0  0  0  0  0  0  0  0  0
    3.8819    1.3172   19.5862 C   0  0  0  0  0  0  0  0  0  0  0  0
    4.1068    1.8599   20.8308 C   0  0  0  0  0  0  0  0  0  0  0  0
    5.3164    1.6523   21.4771 C   0  0  0  0  0  0  0  0  0  0  0  0
    6.3343    0.9093   20.8803 C   0  0  0  0  0  0  0  0  0  0  0  0
  1  7  1  0
  1  9  1  0
 21 22  1  0
 21 23  2  0
 21 27  1  0
  2  9  2  0
 23 24  1  0
  3  9  1  0
  3 10  1  0
  3 12  1  0
  4 10  2  0
 24 25  2  0
 11 13  2  0
 11 14  1  0
 25 26  1  0
 26 27  2  0
  5 27  1  6
  5  6  1  0
  5  8  1  0
  7  6  1  6
  7  8  1  0
  7 10  1  0
 12 13  1  0
 12 20  2  0
 14 15  2  0
 15 16  1  0
 15 20  1  0
 16 17  2  0
 17 18  1  0
 18 19  2  0
 19 20  1  0
M  END
>  <minimizedAffinity>  (9) 
-8.98166

>  <CNNscore>  (9) 
0.3930144906

>  <CNNaffinity>  (9) 
6.1110420227

>  <CNN_VS>  (9) 
2.4017281532

>  <CNNaffinity_variance>  (9) 
0.1525208503

$$$$
complex-mers-lig-h_gnina_dock_complex-mers-lig-h_24
     RDKit          3D

 27 31  0  0  0  0  0  0  0  0999 V2000
   10.1058    0.6862   22.7696 N   0  0  0  0  0  0  0  0  0  0  0  0
   11.7854    1.3285   24.2007 O   0  0  0  0  0  0  0  0  0  0  0  0
   10.8523   -0.8060   24.2054 N   0  0  0  0  0  0  0  0  0  0  0  0
    9.7459   -2.7102   23.4339 O   0  0  0  0  0  0  0  0  0  0  0  0
    7.8655    0.3080   21.3263 C   0  0  2  0  0  0  0  0  0  0  0  0
    8.9448   -0.7583   21.0090 C   0  0  0  0  0  0  0  0  0  0  0  0
    9.2810   -0.4905   22.4988 C   0  0  2  0  0  0  0  0  0  0  0  0
    7.7635   -0.3025   22.7475 C   0  0  0  0  0  0  0  0  0  0  0  0
   10.9816    0.5145   23.7774 C   0  0  0  0  0  0  0  0  0  0  0  0
    9.9427   -1.5095   23.4145 C   0  0  0  0  0  0  0  0  0  0  0  0
   13.6543   -2.7131   25.4577 N   0  0  0  0  0  0  0  0  0  0  0  0
   11.6142   -1.3840   25.2799 C   0  0  0  0  0  0  0  0  0  0  0  0
   12.9563   -1.6602   25.0268 C   0  0  0  0  0  0  0  0  0  0  0  0
   13.0247   -3.5790   26.2250 C   0  0  0  0  0  0  0  0  0  0  0  0
   11.6792   -3.4350   26.6324 C   0  0  0  0  0  0  0  0  0  0  0  0
   11.0337   -4.3546   27.4960 C   0  0  0  0  0  0  0  0  0  0  0  0
    9.7416   -4.1511   27.8853 C   0  0  0  0  0  0  0  0  0  0  0  0
    9.0343   -3.0459   27.4401 C   0  0  0  0  0  0  0  0  0  0  0  0
    9.6140   -2.1394   26.5993 C   0  0  0  0  0  0  0  0  0  0  0  0
   10.9550   -2.2990   26.1636 C   0  0  0  0  0  0  0  0  0  0  0  0
    5.5761    1.3364   20.8319 C   0  0  0  0  0  0  0  0  0  0  0  0
    5.5357    2.0513   22.4205 Cl  0  0  0  0  0  0  0  0  0  0  0  0
    4.5047    1.5886   19.9900 C   0  0  0  0  0  0  0  0  0  0  0  0
    4.4663    0.9853   18.7428 C   0  0  0  0  0  0  0  0  0  0  0  0
    5.4856    0.1476   18.3512 C   0  0  0  0  0  0  0  0  0  0  0  0
    6.5653   -0.0818   19.1912 C   0  0  0  0  0  0  0  0  0  0  0  0
    6.6372    0.5114   20.4510 C   0  0  0  0  0  0  0  0  0  0  0  0
  1  7  1  0
  1  9  1  0
 21 22  1  0
 21 23  2  0
 21 27  1  0
  2  9  2  0
 23 24  1  0
  3  9  1  0
  3 10  1  0
  3 12  1  0
  4 10  2  0
 24 25  2  0
 11 13  2  0
 11 14  1  0
 25 26  1  0
 26 27  2  0
  5 27  1  6
  5  6  1  0
  5  8  1  0
  7  6  1  6
  7  8  1  0
  7 10  1  0
 12 13  1  0
 12 20  2  0
 14 15  2  0
 15 16  1  0
 15 20  1  0
 16 17  2  0
 17 18  1  0
 18 19  2  0
 19 20  1  0
M  END
>  <minimizedAffinity>  (10) 
-9.01827

>  <CNNscore>  (10) 
0.2725577652

>  <CNNaffinity>  (10) 
5.9771065712

>  <CNN_VS>  (10) 
1.6291067600

>  <CNNaffinity_variance>  (10) 
0.1126622558

$$$$
complex-mers-lig-h_gnina_dock_complex-mers-lig-h_24
     RDKit          3D

 27 31  0  0  0  0  0  0  0  0999 V2000
   10.1058    0.6862   22.7696 N   0  0  0  0  0  0  0  0  0  0  0  0
   11.7854    1.3285   24.2007 O   0  0  0  0  0  0  0  0  0  0  0  0
   10.8523   -0.8060   24.2054 N   0  0  0  0  0  0  0  0  0  0  0  0
    9.7459   -2.7102   23.4339 O   0  0  0  0  0  0  0  0  0  0  0  0
    7.8655    0.3080   21.3263 C   0  0  2  0  0  0  0  0  0  0  0  0
    8.9448   -0.7583   21.0090 C   0  0  0  0  0  0  0  0  0  0  0  0
    9.2810   -0.4905   22.4988 C   0  0  2  0  0  0  0  0  0  0  0  0
    7.7635   -0.3025   22.7475 C   0  0  0  0  0  0  0  0  0  0  0  0
   10.9816    0.5145   23.7774 C   0  0  0  0  0  0  0  0  0  0  0  0
    9.9427   -1.5095   23.4145 C   0  0  0  0  0  0  0  0  0  0  0  0
   13.6543   -2.7131   25.4577 N   0  0  0  0  0  0  0  0  0  0  0  0
   11.6142   -1.3840   25.2799 C   0  0  0  0  0  0  0  0  0  0  0  0
   12.9563   -1.6602   25.0268 C   0  0  0  0  0  0  0  0  0  0  0  0
   13.0247   -3.5790   26.2250 C   0  0  0  0  0  0  0  0  0  0  0  0
   11.6792   -3.4350   26.6324 C   0  0  0  0  0  0  0  0  0  0  0  0
   11.0337   -4.3546   27.4960 C   0  0  0  0  0  0  0  0  0  0  0  0
    9.7416   -4.1511   27.8853 C   0  0  0  0  0  0  0  0  0  0  0  0
    9.0343   -3.0459   27.4401 C   0  0  0  0  0  0  0  0  0  0  0  0
    9.6140   -2.1394   26.5993 C   0  0  0  0  0  0  0  0  0  0  0  0
   10.9550   -2.2990   26.1636 C   0  0  0  0  0  0  0  0  0  0  0  0
    5.5761    1.3364   20.8319 C   0  0  0  0  0  0  0  0  0  0  0  0
    5.5357    2.0513   22.4205 Cl  0  0  0  0  0  0  0  0  0  0  0  0
    4.5047    1.5886   19.9900 C   0  0  0  0  0  0  0  0  0  0  0  0
    4.4663    0.9853   18.7428 C   0  0  0  0  0  0  0  0  0  0  0  0
    5.4856    0.1476   18.3512 C   0  0  0  0  0  0  0  0  0  0  0  0
    6.5653   -0.0818   19.1912 C   0  0  0  0  0  0  0  0  0  0  0  0
    6.6372    0.5114   20.4510 C   0  0  0  0  0  0  0  0  0  0  0  0
  1  7  1  0
  1  9  1  0
 21 22  1  0
 21 23  2  0
 21 27  1  0
  2  9  2  0
 23 24  1  0
  3  9  1  0
  3 10  1  0
  3 12  1  0
  4 10  2  0
 24 25  2  0
 11 13  2  0
 11 14  1  0
 25 26  1  0
 26 27  2  0
  5 27  1  6
  5  6  1  0
  5  8  1  0
  7  6  1  6
  7  8  1  0
  7 10  1  0
 12 13  1  0
 12 20  2  0
 14 15  2  0
 15 16  1  0
 15 20  1  0
 16 17  2  0
 17 18  1  0
 18 19  2  0
 19 20  1  0
M  END
>  <minimizedAffinity>  (11) 
-9.01827

>  <CNNscore>  (11) 
0.2725577652

>  <CNNaffinity>  (11) 
5.9771065712

>  <CNN_VS>  (11) 
1.6291067600

>  <CNNaffinity_variance>  (11) 
0.1126622558

$$$$
complex-mers-lig-h_gnina_dock_complex-mers-lig-h_24
     RDKit          3D

 27 31  0  0  0  0  0  0  0  0999 V2000
   10.1058    0.6862   22.7696 N   0  0  0  0  0  0  0  0  0  0  0  0
   11.7854    1.3285   24.2007 O   0  0  0  0  0  0  0  0  0  0  0  0
   10.8523   -0.8060   24.2054 N   0  0  0  0  0  0  0  0  0  0  0  0
    9.7459   -2.7102   23.4339 O   0  0  0  0  0  0  0  0  0  0  0  0
    7.8655    0.3080   21.3263 C   0  0  2  0  0  0  0  0  0  0  0  0
    8.9448   -0.7583   21.0090 C   0  0  0  0  0  0  0  0  0  0  0  0
    9.2810   -0.4905   22.4988 C   0  0  2  0  0  0  0  0  0  0  0  0
    7.7635   -0.3025   22.7475 C   0  0  0  0  0  0  0  0  0  0  0  0
   10.9816    0.5145   23.7774 C   0  0  0  0  0  0  0  0  0  0  0  0
    9.9427   -1.5095   23.4145 C   0  0  0  0  0  0  0  0  0  0  0  0
   13.6543   -2.7131   25.4577 N   0  0  0  0  0  0  0  0  0  0  0  0
   11.6142   -1.3840   25.2799 C   0  0  0  0  0  0  0  0  0  0  0  0
   12.9563   -1.6602   25.0268 C   0  0  0  0  0  0  0  0  0  0  0  0
   13.0247   -3.5790   26.2250 C   0  0  0  0  0  0  0  0  0  0  0  0
   11.6792   -3.4350   26.6324 C   0  0  0  0  0  0  0  0  0  0  0  0
   11.0337   -4.3546   27.4960 C   0  0  0  0  0  0  0  0  0  0  0  0
    9.7416   -4.1511   27.8853 C   0  0  0  0  0  0  0  0  0  0  0  0
    9.0343   -3.0459   27.4401 C   0  0  0  0  0  0  0  0  0  0  0  0
    9.6140   -2.1394   26.5993 C   0  0  0  0  0  0  0  0  0  0  0  0
   10.9550   -2.2990   26.1636 C   0  0  0  0  0  0  0  0  0  0  0  0
    5.5761    1.3364   20.8319 C   0  0  0  0  0  0  0  0  0  0  0  0
    5.5357    2.0513   22.4205 Cl  0  0  0  0  0  0  0  0  0  0  0  0
    4.5047    1.5886   19.9900 C   0  0  0  0  0  0  0  0  0  0  0  0
    4.4663    0.9853   18.7428 C   0  0  0  0  0  0  0  0  0  0  0  0
    5.4856    0.1476   18.3512 C   0  0  0  0  0  0  0  0  0  0  0  0
    6.5653   -0.0818   19.1912 C   0  0  0  0  0  0  0  0  0  0  0  0
    6.6372    0.5114   20.4510 C   0  0  0  0  0  0  0  0  0  0  0  0
  1  7  1  0
  1  9  1  0
 21 22  1  0
 21 23  2  0
 21 27  1  0
  2  9  2  0
 23 24  1  0
  3  9  1  0
  3 10  1  0
  3 12  1  0
  4 10  2  0
 24 25  2  0
 11 13  2  0
 11 14  1  0
 25 26  1  0
 26 27  2  0
  5 27  1  6
  5  6  1  0
  5  8  1  0
  7  6  1  6
  7  8  1  0
  7 10  1  0
 12 13  1  0
 12 20  2  0
 14 15  2  0
 15 16  1  0
 15 20  1  0
 16 17  2  0
 17 18  1  0
 18 19  2  0
 19 20  1  0
M  END
>  <minimizedAffinity>  (12) 
-9.01827

>  <CNNscore>  (12) 
0.2725577652

>  <CNNaffinity>  (12) 
5.9771065712

>  <CNN_VS>  (12) 
1.6291067600

>  <CNNaffinity_variance>  (12) 
0.1126622558

$$$$
complex-mers-lig-h_gnina_dock_complex-mers-lig-h_24
     RDKit          3D

 27 31  0  0  0  0  0  0  0  0999 V2000
   10.1058    0.6862   22.7696 N   0  0  0  0  0  0  0  0  0  0  0  0
   11.7854    1.3285   24.2007 O   0  0  0  0  0  0  0  0  0  0  0  0
   10.8523   -0.8060   24.2054 N   0  0  0  0  0  0  0  0  0  0  0  0
    9.7459   -2.7102   23.4339 O   0  0  0  0  0  0  0  0  0  0  0  0
    7.8655    0.3080   21.3263 C   0  0  2  0  0  0  0  0  0  0  0  0
    8.9448   -0.7583   21.0090 C   0  0  0  0  0  0  0  0  0  0  0  0
    9.2810   -0.4905   22.4988 C   0  0  2  0  0  0  0  0  0  0  0  0
    7.7635   -0.3025   22.7475 C   0  0  0  0  0  0  0  0  0  0  0  0
   10.9816    0.5145   23.7774 C   0  0  0  0  0  0  0  0  0  0  0  0
    9.9427   -1.5095   23.4145 C   0  0  0  0  0  0  0  0  0  0  0  0
   13.6543   -2.7131   25.4577 N   0  0  0  0  0  0  0  0  0  0  0  0
   11.6142   -1.3840   25.2799 C   0  0  0  0  0  0  0  0  0  0  0  0
   12.9563   -1.6602   25.0268 C   0  0  0  0  0  0  0  0  0  0  0  0
   13.0247   -3.5790   26.2250 C   0  0  0  0  0  0  0  0  0  0  0  0
   11.6792   -3.4350   26.6324 C   0  0  0  0  0  0  0  0  0  0  0  0
   11.0337   -4.3546   27.4960 C   0  0  0  0  0  0  0  0  0  0  0  0
    9.7416   -4.1511   27.8853 C   0  0  0  0  0  0  0  0  0  0  0  0
    9.0343   -3.0459   27.4401 C   0  0  0  0  0  0  0  0  0  0  0  0
    9.6140   -2.1394   26.5993 C   0  0  0  0  0  0  0  0  0  0  0  0
   10.9550   -2.2990   26.1636 C   0  0  0  0  0  0  0  0  0  0  0  0
    5.5761    1.3364   20.8319 C   0  0  0  0  0  0  0  0  0  0  0  0
    5.5357    2.0513   22.4205 Cl  0  0  0  0  0  0  0  0  0  0  0  0
    4.5047    1.5886   19.9900 C   0  0  0  0  0  0  0  0  0  0  0  0
    4.4663    0.9853   18.7428 C   0  0  0  0  0  0  0  0  0  0  0  0
    5.4856    0.1476   18.3512 C   0  0  0  0  0  0  0  0  0  0  0  0
    6.5653   -0.0818   19.1912 C   0  0  0  0  0  0  0  0  0  0  0  0
    6.6372    0.5114   20.4510 C   0  0  0  0  0  0  0  0  0  0  0  0
  1  7  1  0
  1  9  1  0
 21 22  1  0
 21 23  2  0
 21 27  1  0
  2  9  2  0
 23 24  1  0
  3  9  1  0
  3 10  1  0
  3 12  1  0
  4 10  2  0
 24 25  2  0
 11 13  2  0
 11 14  1  0
 25 26  1  0
 26 27  2  0
  5 27  1  6
  5  6  1  0
  5  8  1  0
  7  6  1  6
  7  8  1  0
  7 10  1  0
 12 13  1  0
 12 20  2  0
 14 15  2  0
 15 16  1  0
 15 20  1  0
 16 17  2  0
 17 18  1  0
 18 19  2  0
 19 20  1  0
M  END
>  <minimizedAffinity>  (13) 
-9.01827

>  <CNNscore>  (13) 
0.2725577652

>  <CNNaffinity>  (13) 
5.9771065712

>  <CNN_VS>  (13) 
1.6291067600

>  <CNNaffinity_variance>  (13) 
0.1126622558

$$$$
complex-mers-lig-h_gnina_dock_complex-mers-lig-h_9
     RDKit          3D

 27 31  0  0  0  0  0  0  0  0999 V2000
   11.9873    1.6528   23.4289 N   0  0  0  0  0  0  0  0  0  0  0  0
   13.1083   -0.3424   23.2194 O   0  0  0  0  0  0  0  0  0  0  0  0
   10.7859   -0.1882   23.3161 N   0  0  0  0  0  0  0  0  0  0  0  0
    8.6462    0.7259   23.1393 O   0  0  0  0  0  0  0  0  0  0  0  0
   10.9292    4.0281   24.1241 C   0  0  2  0  0  0  0  0  0  0  0  0
   10.2922    3.4688   22.8263 C   0  0  0  0  0  0  0  0  0  0  0  0
   10.6120    2.1347   23.5490 C   0  0  2  0  0  0  0  0  0  0  0  0
   10.2774    2.8451   24.8846 C   0  0  0  0  0  0  0  0  0  0  0  0
   12.0865    0.3137   23.3343 C   0  0  0  0  0  0  0  0  0  0  0  0
    9.8440    0.8416   23.3196 C   0  0  0  0  0  0  0  0  0  0  0  0
    8.5051   -2.8918   22.5780 N   0  0  0  0  0  0  0  0  0  0  0  0
   10.4622   -1.5872   23.2321 C   0  0  0  0  0  0  0  0  0  0  0  0
    9.4248   -1.9462   22.3739 C   0  0  0  0  0  0  0  0  0  0  0  0
    8.5907   -3.5830   23.6959 C   0  0  0  0  0  0  0  0  0  0  0  0
    9.6082   -3.3969   24.6589 C   0  0  0  0  0  0  0  0  0  0  0  0
    9.7090   -4.1824   25.8339 C   0  0  0  0  0  0  0  0  0  0  0  0
   10.7311   -3.9833   26.7161 C   0  0  0  0  0  0  0  0  0  0  0  0
   11.6859   -3.0065   26.4836 C   0  0  0  0  0  0  0  0  0  0  0  0
   11.6221   -2.2202   25.3689 C   0  0  0  0  0  0  0  0  0  0  0  0
   10.5830   -2.3842   24.4166 C   0  0  0  0  0  0  0  0  0  0  0  0
   10.8482    6.5471   23.6869 C   0  0  0  0  0  0  0  0  0  0  0  0
   11.3760    6.2961   22.0453 Cl  0  0  0  0  0  0  0  0  0  0  0  0
   10.5830    7.8490   24.0810 C   0  0  0  0  0  0  0  0  0  0  0  0
   10.2250    8.0992   25.3964 C   0  0  0  0  0  0  0  0  0  0  0  0
   10.1342    7.0606   26.2950 C   0  0  0  0  0  0  0  0  0  0  0  0
   10.3796    5.7579   25.8868 C   0  0  0  0  0  0  0  0  0  0  0  0
   10.7388    5.4706   24.5705 C   0  0  0  0  0  0  0  0  0  0  0  0
  1  7  1  0
  1  9  1  0
 21 22  1  0
 21 23  2  0
 21 27  1  0
  2  9  2  0
 23 24  1  0
  3  9  1  0
  3 10  1  0
  3 12  1  0
  4 10  2  0
 24 25  2  0
 11 13  2  0
 11 14  1  0
 25 26  1  0
 26 27  2  0
  5 27  1  1
  5  6  1  0
  5  8  1  0
  7  6  1  6
  7  8  1  0
  7 10  1  0
 12 13  1  0
 12 20  2  0
 14 15  2  0
 15 16  1  0
 15 20  1  0
 16 17  2  0
 17 18  1  0
 18 19  2  0
 19 20  1  0
M  END
>  <minimizedAffinity>  (14) 
-8.41866

>  <CNNscore>  (14) 
0.5628795028

>  <CNNaffinity>  (14) 
6.1524448395

>  <CNN_VS>  (14) 
3.4630851746

>  <CNNaffinity_variance>  (14) 
0.1324375570

$$$$
complex-mers-lig-h_gnina_dock_complex-mers-lig-h_24
     RDKit          3D

 27 31  0  0  0  0  0  0  0  0999 V2000
   10.1058    0.6862   22.7696 N   0  0  0  0  0  0  0  0  0  0  0  0
   11.7854    1.3285   24.2007 O   0  0  0  0  0  0  0  0  0  0  0  0
   10.8523   -0.8060   24.2054 N   0  0  0  0  0  0  0  0  0  0  0  0
    9.7459   -2.7102   23.4339 O   0  0  0  0  0  0  0  0  0  0  0  0
    7.8655    0.3080   21.3263 C   0  0  2  0  0  0  0  0  0  0  0  0
    8.9448   -0.7583   21.0090 C   0  0  0  0  0  0  0  0  0  0  0  0
    9.2810   -0.4905   22.4988 C   0  0  2  0  0  0  0  0  0  0  0  0
    7.7635   -0.3025   22.7475 C   0  0  0  0  0  0  0  0  0  0  0  0
   10.9816    0.5145   23.7774 C   0  0  0  0  0  0  0  0  0  0  0  0
    9.9427   -1.5095   23.4145 C   0  0  0  0  0  0  0  0  0  0  0  0
   13.6543   -2.7131   25.4577 N   0  0  0  0  0  0  0  0  0  0  0  0
   11.6142   -1.3840   25.2799 C   0  0  0  0  0  0  0  0  0  0  0  0
   12.9563   -1.6602   25.0268 C   0  0  0  0  0  0  0  0  0  0  0  0
   13.0247   -3.5790   26.2250 C   0  0  0  0  0  0  0  0  0  0  0  0
   11.6792   -3.4350   26.6324 C   0  0  0  0  0  0  0  0  0  0  0  0
   11.0337   -4.3546   27.4960 C   0  0  0  0  0  0  0  0  0  0  0  0
    9.7416   -4.1511   27.8853 C   0  0  0  0  0  0  0  0  0  0  0  0
    9.0343   -3.0459   27.4401 C   0  0  0  0  0  0  0  0  0  0  0  0
    9.6140   -2.1394   26.5993 C   0  0  0  0  0  0  0  0  0  0  0  0
   10.9550   -2.2990   26.1636 C   0  0  0  0  0  0  0  0  0  0  0  0
    5.5761    1.3364   20.8319 C   0  0  0  0  0  0  0  0  0  0  0  0
    5.5357    2.0513   22.4205 Cl  0  0  0  0  0  0  0  0  0  0  0  0
    4.5047    1.5886   19.9900 C   0  0  0  0  0  0  0  0  0  0  0  0
    4.4663    0.9853   18.7428 C   0  0  0  0  0  0  0  0  0  0  0  0
    5.4856    0.1476   18.3512 C   0  0  0  0  0  0  0  0  0  0  0  0
    6.5653   -0.0818   19.1912 C   0  0  0  0  0  0  0  0  0  0  0  0
    6.6372    0.5114   20.4510 C   0  0  0  0  0  0  0  0  0  0  0  0
  1  7  1  0
  1  9  1  0
 21 22  1  0
 21 23  2  0
 21 27  1  0
  2  9  2  0
 23 24  1  0
  3  9  1  0
  3 10  1  0
  3 12  1  0
  4 10  2  0
 24 25  2  0
 11 13  2  0
 11 14  1  0
 25 26  1  0
 26 27  2  0
  5 27  1  6
  5  6  1  0
  5  8  1  0
  7  6  1  6
  7  8  1  0
  7 10  1  0
 12 13  1  0
 12 20  2  0
 14 15  2  0
 15 16  1  0
 15 20  1  0
 16 17  2  0
 17 18  1  0
 18 19  2  0
 19 20  1  0
M  END
>  <minimizedAffinity>  (15) 
-9.01827

>  <CNNscore>  (15) 
0.2725577652

>  <CNNaffinity>  (15) 
5.9771065712

>  <CNN_VS>  (15) 
1.6291067600

>  <CNNaffinity_variance>  (15) 
0.1126622558

$$$$
complex-mers-lig-h_gnina_dock_complex-mers-lig-h_16
     RDKit          3D

 27 31  0  0  0  0  0  0  0  0999 V2000
   10.0189    0.8611   22.8447 N   0  0  0  0  0  0  0  0  0  0  0  0
   11.8751    1.3994   24.0881 O   0  0  0  0  0  0  0  0  0  0  0  0
   10.7911   -0.6570   24.2392 N   0  0  0  0  0  0  0  0  0  0  0  0
    9.4751   -2.4848   23.6288 O   0  0  0  0  0  0  0  0  0  0  0  0
    7.6247    0.6288   21.6368 C   0  0  2  0  0  0  0  0  0  0  0  0
    8.5850   -0.5227   21.2437 C   0  0  0  0  0  0  0  0  0  0  0  0
    9.0862   -0.2539   22.6862 C   0  0  2  0  0  0  0  0  0  0  0  0
    7.6190    0.0544   23.0765 C   0  0  0  0  0  0  0  0  0  0  0  0
   10.9751    0.6416   23.7664 C   0  0  0  0  0  0  0  0  0  0  0  0
    9.7578   -1.3033   23.5592 C   0  0  0  0  0  0  0  0  0  0  0  0
   13.6672   -2.5868   25.2686 N   0  0  0  0  0  0  0  0  0  0  0  0
   11.6106   -1.2716   25.2490 C   0  0  0  0  0  0  0  0  0  0  0  0
   12.9403   -1.5238   24.9176 C   0  0  0  0  0  0  0  0  0  0  0  0
   13.0839   -3.4899   26.0295 C   0  0  0  0  0  0  0  0  0  0  0  0
   11.7595   -3.3761   26.5094 C   0  0  0  0  0  0  0  0  0  0  0  0
   11.1655   -4.3370   27.3649 C   0  0  0  0  0  0  0  0  0  0  0  0
    9.8931   -4.1626   27.8267 C   0  0  0  0  0  0  0  0  0  0  0  0
    9.1558   -3.0468   27.4641 C   0  0  0  0  0  0  0  0  0  0  0  0
    9.6854   -2.1006   26.6341 C   0  0  0  0  0  0  0  0  0  0  0  0
   11.0039   -2.2289   26.1255 C   0  0  0  0  0  0  0  0  0  0  0  0
    6.0873    0.3925   19.6061 C   0  0  0  0  0  0  0  0  0  0  0  0
    7.3299   -0.4744   18.7453 Cl  0  0  0  0  0  0  0  0  0  0  0  0
    4.8736    0.5762   18.9630 C   0  0  0  0  0  0  0  0  0  0  0  0
    3.8819    1.3172   19.5862 C   0  0  0  0  0  0  0  0  0  0  0  0
    4.1068    1.8599   20.8308 C   0  0  0  0  0  0  0  0  0  0  0  0
    5.3164    1.6523   21.4771 C   0  0  0  0  0  0  0  0  0  0  0  0
    6.3343    0.9093   20.8803 C   0  0  0  0  0  0  0  0  0  0  0  0
  1  7  1  0
  1  9  1  0
 21 22  1  0
 21 23  2  0
 21 27  1  0
  2  9  2  0
 23 24  1  0
  3  9  1  0
  3 10  1  0
  3 12  1  0
  4 10  2  0
 24 25  2  0
 11 13  2  0
 11 14  1  0
 25 26  1  0
 26 27  2  0
  5 27  1  6
  5  6  1  0
  5  8  1  0
  7  6  1  6
  7  8  1  0
  7 10  1  0
 12 13  1  0
 12 20  2  0
 14 15  2  0
 15 16  1  0
 15 20  1  0
 16 17  2  0
 17 18  1  0
 18 19  2  0
 19 20  1  0
M  END
>  <minimizedAffinity>  (16) 
-8.98166

>  <CNNscore>  (16) 
0.3930144906

>  <CNNaffinity>  (16) 
6.1110420227

>  <CNN_VS>  (16) 
2.4017281532

>  <CNNaffinity_variance>  (16) 
0.1525208503

$$$$
complex-mers-lig-h_gnina_dock_complex-mers-lig-h_24
     RDKit          3D

 27 31  0  0  0  0  0  0  0  0999 V2000
   10.1058    0.6862   22.7696 N   0  0  0  0  0  0  0  0  0  0  0  0
   11.7854    1.3285   24.2007 O   0  0  0  0  0  0  0  0  0  0  0  0
   10.8523   -0.8060   24.2054 N   0  0  0  0  0  0  0  0  0  0  0  0
    9.7459   -2.7102   23.4339 O   0  0  0  0  0  0  0  0  0  0  0  0
    7.8655    0.3080   21.3263 C   0  0  2  0  0  0  0  0  0  0  0  0
    8.9448   -0.7583   21.0090 C   0  0  0  0  0  0  0  0  0  0  0  0
    9.2810   -0.4905   22.4988 C   0  0  2  0  0  0  0  0  0  0  0  0
    7.7635   -0.3025   22.7475 C   0  0  0  0  0  0  0  0  0  0  0  0
   10.9816    0.5145   23.7774 C   0  0  0  0  0  0  0  0  0  0  0  0
    9.9427   -1.5095   23.4145 C   0  0  0  0  0  0  0  0  0  0  0  0
   13.6543   -2.7131   25.4577 N   0  0  0  0  0  0  0  0  0  0  0  0
   11.6142   -1.3840   25.2799 C   0  0  0  0  0  0  0  0  0  0  0  0
   12.9563   -1.6602   25.0268 C   0  0  0  0  0  0  0  0  0  0  0  0
   13.0247   -3.5790   26.2250 C   0  0  0  0  0  0  0  0  0  0  0  0
   11.6792   -3.4350   26.6324 C   0  0  0  0  0  0  0  0  0  0  0  0
   11.0337   -4.3546   27.4960 C   0  0  0  0  0  0  0  0  0  0  0  0
    9.7416   -4.1511   27.8853 C   0  0  0  0  0  0  0  0  0  0  0  0
    9.0343   -3.0459   27.4401 C   0  0  0  0  0  0  0  0  0  0  0  0
    9.6140   -2.1394   26.5993 C   0  0  0  0  0  0  0  0  0  0  0  0
   10.9550   -2.2990   26.1636 C   0  0  0  0  0  0  0  0  0  0  0  0
    5.5761    1.3364   20.8319 C   0  0  0  0  0  0  0  0  0  0  0  0
    5.5357    2.0513   22.4205 Cl  0  0  0  0  0  0  0  0  0  0  0  0
    4.5047    1.5886   19.9900 C   0  0  0  0  0  0  0  0  0  0  0  0
    4.4663    0.9853   18.7428 C   0  0  0  0  0  0  0  0  0  0  0  0
    5.4856    0.1476   18.3512 C   0  0  0  0  0  0  0  0  0  0  0  0
    6.5653   -0.0818   19.1912 C   0  0  0  0  0  0  0  0  0  0  0  0
    6.6372    0.5114   20.4510 C   0  0  0  0  0  0  0  0  0  0  0  0
  1  7  1  0
  1  9  1  0
 21 22  1  0
 21 23  2  0
 21 27  1  0
  2  9  2  0
 23 24  1  0
  3  9  1  0
  3 10  1  0
  3 12  1  0
  4 10  2  0
 24 25  2  0
 11 13  2  0
 11 14  1  0
 25 26  1  0
 26 27  2  0
  5 27  1  6
  5  6  1  0
  5  8  1  0
  7  6  1  6
  7  8  1  0
  7 10  1  0
 12 13  1  0
 12 20  2  0
 14 15  2  0
 15 16  1  0
 15 20  1  0
 16 17  2  0
 17 18  1  0
 18 19  2  0
 19 20  1  0
M  END
>  <minimizedAffinity>  (17) 
-9.01827

>  <CNNscore>  (17) 
0.2725577652

>  <CNNaffinity>  (17) 
5.9771065712

>  <CNN_VS>  (17) 
1.6291067600

>  <CNNaffinity_variance>  (17) 
0.1126622558

$$$$
complex-mers-lig-h_gnina_dock_complex-mers-lig-h_9
     RDKit          3D

 27 31  0  0  0  0  0  0  0  0999 V2000
   11.9873    1.6528   23.4289 N   0  0  0  0  0  0  0  0  0  0  0  0
   13.1083   -0.3424   23.2194 O   0  0  0  0  0  0  0  0  0  0  0  0
   10.7859   -0.1882   23.3161 N   0  0  0  0  0  0  0  0  0  0  0  0
    8.6462    0.7259   23.1393 O   0  0  0  0  0  0  0  0  0  0  0  0
   10.9292    4.0281   24.1241 C   0  0  2  0  0  0  0  0  0  0  0  0
   10.2922    3.4688   22.8263 C   0  0  0  0  0  0  0  0  0  0  0  0
   10.6120    2.1347   23.5490 C   0  0  2  0  0  0  0  0  0  0  0  0
   10.2774    2.8451   24.8846 C   0  0  0  0  0  0  0  0  0  0  0  0
   12.0865    0.3137   23.3343 C   0  0  0  0  0  0  0  0  0  0  0  0
    9.8440    0.8416   23.3196 C   0  0  0  0  0  0  0  0  0  0  0  0
    8.5051   -2.8918   22.5780 N   0  0  0  0  0  0  0  0  0  0  0  0
   10.4622   -1.5872   23.2321 C   0  0  0  0  0  0  0  0  0  0  0  0
    9.4248   -1.9462   22.3739 C   0  0  0  0  0  0  0  0  0  0  0  0
    8.5907   -3.5830   23.6959 C   0  0  0  0  0  0  0  0  0  0  0  0
    9.6082   -3.3969   24.6589 C   0  0  0  0  0  0  0  0  0  0  0  0
    9.7090   -4.1824   25.8339 C   0  0  0  0  0  0  0  0  0  0  0  0
   10.7311   -3.9833   26.7161 C   0  0  0  0  0  0  0  0  0  0  0  0
   11.6859   -3.0065   26.4836 C   0  0  0  0  0  0  0  0  0  0  0  0
   11.6221   -2.2202   25.3689 C   0  0  0  0  0  0  0  0  0  0  0  0
   10.5830   -2.3842   24.4166 C   0  0  0  0  0  0  0  0  0  0  0  0
   10.8482    6.5471   23.6869 C   0  0  0  0  0  0  0  0  0  0  0  0
   11.3760    6.2961   22.0453 Cl  0  0  0  0  0  0  0  0  0  0  0  0
   10.5830    7.8490   24.0810 C   0  0  0  0  0  0  0  0  0  0  0  0
   10.2250    8.0992   25.3964 C   0  0  0  0  0  0  0  0  0  0  0  0
   10.1342    7.0606   26.2950 C   0  0  0  0  0  0  0  0  0  0  0  0
   10.3796    5.7579   25.8868 C   0  0  0  0  0  0  0  0  0  0  0  0
   10.7388    5.4706   24.5705 C   0  0  0  0  0  0  0  0  0  0  0  0
  1  7  1  0
  1  9  1  0
 21 22  1  0
 21 23  2  0
 21 27  1  0
  2  9  2  0
 23 24  1  0
  3  9  1  0
  3 10  1  0
  3 12  1  0
  4 10  2  0
 24 25  2  0
 11 13  2  0
 11 14  1  0
 25 26  1  0
 26 27  2  0
  5 27  1  1
  5  6  1  0
  5  8  1  0
  7  6  1  6
  7  8  1  0
  7 10  1  0
 12 13  1  0
 12 20  2  0
 14 15  2  0
 15 16  1  0
 15 20  1  0
 16 17  2  0
 17 18  1  0
 18 19  2  0
 19 20  1  0
M  END
>  <minimizedAffinity>  (18) 
-8.41866

>  <CNNscore>  (18) 
0.5628795028

>  <CNNaffinity>  (18) 
6.1524448395

>  <CNN_VS>  (18) 
3.4630851746

>  <CNNaffinity_variance>  (18) 
0.1324375570

$$$$
complex-mers-lig-h_gnina_dock_complex-mers-lig-h_9
     RDKit          3D

 27 31  0  0  0  0  0  0  0  0999 V2000
   11.9873    1.6528   23.4289 N   0  0  0  0  0  0  0  0  0  0  0  0
   13.1083   -0.3424   23.2194 O   0  0  0  0  0  0  0  0  0  0  0  0
   10.7859   -0.1882   23.3161 N   0  0  0  0  0  0  0  0  0  0  0  0
    8.6462    0.7259   23.1393 O   0  0  0  0  0  0  0  0  0  0  0  0
   10.9292    4.0281   24.1241 C   0  0  2  0  0  0  0  0  0  0  0  0
   10.2922    3.4688   22.8263 C   0  0  0  0  0  0  0  0  0  0  0  0
   10.6120    2.1347   23.5490 C   0  0  2  0  0  0  0  0  0  0  0  0
   10.2774    2.8451   24.8846 C   0  0  0  0  0  0  0  0  0  0  0  0
   12.0865    0.3137   23.3343 C   0  0  0  0  0  0  0  0  0  0  0  0
    9.8440    0.8416   23.3196 C   0  0  0  0  0  0  0  0  0  0  0  0
    8.5051   -2.8918   22.5780 N   0  0  0  0  0  0  0  0  0  0  0  0
   10.4622   -1.5872   23.2321 C   0  0  0  0  0  0  0  0  0  0  0  0
    9.4248   -1.9462   22.3739 C   0  0  0  0  0  0  0  0  0  0  0  0
    8.5907   -3.5830   23.6959 C   0  0  0  0  0  0  0  0  0  0  0  0
    9.6082   -3.3969   24.6589 C   0  0  0  0  0  0  0  0  0  0  0  0
    9.7090   -4.1824   25.8339 C   0  0  0  0  0  0  0  0  0  0  0  0
   10.7311   -3.9833   26.7161 C   0  0  0  0  0  0  0  0  0  0  0  0
   11.6859   -3.0065   26.4836 C   0  0  0  0  0  0  0  0  0  0  0  0
   11.6221   -2.2202   25.3689 C   0  0  0  0  0  0  0  0  0  0  0  0
   10.5830   -2.3842   24.4166 C   0  0  0  0  0  0  0  0  0  0  0  0
   10.8482    6.5471   23.6869 C   0  0  0  0  0  0  0  0  0  0  0  0
   11.3760    6.2961   22.0453 Cl  0  0  0  0  0  0  0  0  0  0  0  0
   10.5830    7.8490   24.0810 C   0  0  0  0  0  0  0  0  0  0  0  0
   10.2250    8.0992   25.3964 C   0  0  0  0  0  0  0  0  0  0  0  0
   10.1342    7.0606   26.2950 C   0  0  0  0  0  0  0  0  0  0  0  0
   10.3796    5.7579   25.8868 C   0  0  0  0  0  0  0  0  0  0  0  0
   10.7388    5.4706   24.5705 C   0  0  0  0  0  0  0  0  0  0  0  0
  1  7  1  0
  1  9  1  0
 21 22  1  0
 21 23  2  0
 21 27  1  0
  2  9  2  0
 23 24  1  0
  3  9  1  0
  3 10  1  0
  3 12  1  0
  4 10  2  0
 24 25  2  0
 11 13  2  0
 11 14  1  0
 25 26  1  0
 26 27  2  0
  5 27  1  1
  5  6  1  0
  5  8  1  0
  7  6  1  6
  7  8  1  0
  7 10  1  0
 12 13  1  0
 12 20  2  0
 14 15  2  0
 15 16  1  0
 15 20  1  0
 16 17  2  0
 17 18  1  0
 18 19  2  0
 19 20  1  0
M  END
>  <minimizedAffinity>  (19) 
-8.41866

>  <CNNscore>  (19) 
0.5628795028

>  <CNNaffinity>  (19) 
6.1524448395

>  <CNN_VS>  (19) 
3.4630851746

>  <CNNaffinity_variance>  (19) 
0.1324375570

$$$$
complex-mers-lig-h_gnina_dock_complex-mers-lig-h_24
     RDKit          3D

 27 31  0  0  0  0  0  0  0  0999 V2000
   10.1058    0.6862   22.7696 N   0  0  0  0  0  0  0  0  0  0  0  0
   11.7854    1.3285   24.2007 O   0  0  0  0  0  0  0  0  0  0  0  0
   10.8523   -0.8060   24.2054 N   0  0  0  0  0  0  0  0  0  0  0  0
    9.7459   -2.7102   23.4339 O   0  0  0  0  0  0  0  0  0  0  0  0
    7.8655    0.3080   21.3263 C   0  0  2  0  0  0  0  0  0  0  0  0
    8.9448   -0.7583   21.0090 C   0  0  0  0  0  0  0  0  0  0  0  0
    9.2810   -0.4905   22.4988 C   0  0  2  0  0  0  0  0  0  0  0  0
    7.7635   -0.3025   22.7475 C   0  0  0  0  0  0  0  0  0  0  0  0
   10.9816    0.5145   23.7774 C   0  0  0  0  0  0  0  0  0  0  0  0
    9.9427   -1.5095   23.4145 C   0  0  0  0  0  0  0  0  0  0  0  0
   13.6543   -2.7131   25.4577 N   0  0  0  0  0  0  0  0  0  0  0  0
   11.6142   -1.3840   25.2799 C   0  0  0  0  0  0  0  0  0  0  0  0
   12.9563   -1.6602   25.0268 C   0  0  0  0  0  0  0  0  0  0  0  0
   13.0247   -3.5790   26.2250 C   0  0  0  0  0  0  0  0  0  0  0  0
   11.6792   -3.4350   26.6324 C   0  0  0  0  0  0  0  0  0  0  0  0
   11.0337   -4.3546   27.4960 C   0  0  0  0  0  0  0  0  0  0  0  0
    9.7416   -4.1511   27.8853 C   0  0  0  0  0  0  0  0  0  0  0  0
    9.0343   -3.0459   27.4401 C   0  0  0  0  0  0  0  0  0  0  0  0
    9.6140   -2.1394   26.5993 C   0  0  0  0  0  0  0  0  0  0  0  0
   10.9550   -2.2990   26.1636 C   0  0  0  0  0  0  0  0  0  0  0  0
    5.5761    1.3364   20.8319 C   0  0  0  0  0  0  0  0  0  0  0  0
    5.5357    2.0513   22.4205 Cl  0  0  0  0  0  0  0  0  0  0  0  0
    4.5047    1.5886   19.9900 C   0  0  0  0  0  0  0  0  0  0  0  0
    4.4663    0.9853   18.7428 C   0  0  0  0  0  0  0  0  0  0  0  0
    5.4856    0.1476   18.3512 C   0  0  0  0  0  0  0  0  0  0  0  0
    6.5653   -0.0818   19.1912 C   0  0  0  0  0  0  0  0  0  0  0  0
    6.6372    0.5114   20.4510 C   0  0  0  0  0  0  0  0  0  0  0  0
  1  7  1  0
  1  9  1  0
 21 22  1  0
 21 23  2  0
 21 27  1  0
  2  9  2  0
 23 24  1  0
  3  9  1  0
  3 10  1  0
  3 12  1  0
  4 10  2  0
 24 25  2  0
 11 13  2  0
 11 14  1  0
 25 26  1  0
 26 27  2  0
  5 27  1  6
  5  6  1  0
  5  8  1  0
  7  6  1  6
  7  8  1  0
  7 10  1  0
 12 13  1  0
 12 20  2  0
 14 15  2  0
 15 16  1  0
 15 20  1  0
 16 17  2  0
 17 18  1  0
 18 19  2  0
 19 20  1  0
M  END
>  <minimizedAffinity>  (20) 
-9.01827

>  <CNNscore>  (20) 
0.2725577652

>  <CNNaffinity>  (20) 
5.9771065712

>  <CNN_VS>  (20) 
1.6291067600

>  <CNNaffinity_variance>  (20) 
0.1126622558

$$$$
complex-mers-lig-h_gnina_dock_complex-mers-lig-h_16
     RDKit          3D

 27 31  0  0  0  0  0  0  0  0999 V2000
   10.0189    0.8611   22.8447 N   0  0  0  0  0  0  0  0  0  0  0  0
   11.8751    1.3994   24.0881 O   0  0  0  0  0  0  0  0  0  0  0  0
   10.7911   -0.6570   24.2392 N   0  0  0  0  0  0  0  0  0  0  0  0
    9.4751   -2.4848   23.6288 O   0  0  0  0  0  0  0  0  0  0  0  0
    7.6247    0.6288   21.6368 C   0  0  2  0  0  0  0  0  0  0  0  0
    8.5850   -0.5227   21.2437 C   0  0  0  0  0  0  0  0  0  0  0  0
    9.0862   -0.2539   22.6862 C   0  0  2  0  0  0  0  0  0  0  0  0
    7.6190    0.0544   23.0765 C   0  0  0  0  0  0  0  0  0  0  0  0
   10.9751    0.6416   23.7664 C   0  0  0  0  0  0  0  0  0  0  0  0
    9.7578   -1.3033   23.5592 C   0  0  0  0  0  0  0  0  0  0  0  0
   13.6672   -2.5868   25.2686 N   0  0  0  0  0  0  0  0  0  0  0  0
   11.6106   -1.2716   25.2490 C   0  0  0  0  0  0  0  0  0  0  0  0
   12.9403   -1.5238   24.9176 C   0  0  0  0  0  0  0  0  0  0  0  0
   13.0839   -3.4899   26.0295 C   0  0  0  0  0  0  0  0  0  0  0  0
   11.7595   -3.3761   26.5094 C   0  0  0  0  0  0  0  0  0  0  0  0
   11.1655   -4.3370   27.3649 C   0  0  0  0  0  0  0  0  0  0  0  0
    9.8931   -4.1626   27.8267 C   0  0  0  0  0  0  0  0  0  0  0  0
    9.1558   -3.0468   27.4641 C   0  0  0  0  0  0  0  0  0  0  0  0
    9.6854   -2.1006   26.6341 C   0  0  0  0  0  0  0  0  0  0  0  0
   11.0039   -2.2289   26.1255 C   0  0  0  0  0  0  0  0  0  0  0  0
    6.0873    0.3925   19.6061 C   0  0  0  0  0  0  0  0  0  0  0  0
    7.3299   -0.4744   18.7453 Cl  0  0  0  0  0  0  0  0  0  0  0  0
    4.8736    0.5762   18.9630 C   0  0  0  0  0  0  0  0  0  0  0  0
    3.8819    1.3172   19.5862 C   0  0  0  0  0  0  0  0  0  0  0  0
    4.1068    1.8599   20.8308 C   0  0  0  0  0  0  0  0  0  0  0  0
    5.3164    1.6523   21.4771 C   0  0  0  0  0  0  0  0  0  0  0  0
    6.3343    0.9093   20.8803 C   0  0  0  0  0  0  0  0  0  0  0  0
  1  7  1  0
  1  9  1  0
 21 22  1  0
 21 23  2  0
 21 27  1  0
  2  9  2  0
 23 24  1  0
  3  9  1  0
  3 10  1  0
  3 12  1  0
  4 10  2  0
 24 25  2  0
 11 13  2  0
 11 14  1  0
 25 26  1  0
 26 27  2  0
  5 27  1  6
  5  6  1  0
  5  8  1  0
  7  6  1  6
  7  8  1  0
  7 10  1  0
 12 13  1  0
 12 20  2  0
 14 15  2  0
 15 16  1  0
 15 20  1  0
 16 17  2  0
 17 18  1  0
 18 19  2  0
 19 20  1  0
M  END
>  <minimizedAffinity>  (21) 
-8.98166

>  <CNNscore>  (21) 
0.3930144906

>  <CNNaffinity>  (21) 
6.1110420227

>  <CNN_VS>  (21) 
2.4017281532

>  <CNNaffinity_variance>  (21) 
0.1525208503

$$$$
complex-mers-lig-h_gnina_dock_complex-mers-lig-h_9
     RDKit          3D

 27 31  0  0  0  0  0  0  0  0999 V2000
   11.9873    1.6528   23.4289 N   0  0  0  0  0  0  0  0  0  0  0  0
   13.1083   -0.3424   23.2194 O   0  0  0  0  0  0  0  0  0  0  0  0
   10.7859   -0.1882   23.3161 N   0  0  0  0  0  0  0  0  0  0  0  0
    8.6462    0.7259   23.1393 O   0  0  0  0  0  0  0  0  0  0  0  0
   10.9292    4.0281   24.1241 C   0  0  2  0  0  0  0  0  0  0  0  0
   10.2922    3.4688   22.8263 C   0  0  0  0  0  0  0  0  0  0  0  0
   10.6120    2.1347   23.5490 C   0  0  2  0  0  0  0  0  0  0  0  0
   10.2774    2.8451   24.8846 C   0  0  0  0  0  0  0  0  0  0  0  0
   12.0865    0.3137   23.3343 C   0  0  0  0  0  0  0  0  0  0  0  0
    9.8440    0.8416   23.3196 C   0  0  0  0  0  0  0  0  0  0  0  0
    8.5051   -2.8918   22.5780 N   0  0  0  0  0  0  0  0  0  0  0  0
   10.4622   -1.5872   23.2321 C   0  0  0  0  0  0  0  0  0  0  0  0
    9.4248   -1.9462   22.3739 C   0  0  0  0  0  0  0  0  0  0  0  0
    8.5907   -3.5830   23.6959 C   0  0  0  0  0  0  0  0  0  0  0  0
    9.6082   -3.3969   24.6589 C   0  0  0  0  0  0  0  0  0  0  0  0
    9.7090   -4.1824   25.8339 C   0  0  0  0  0  0  0  0  0  0  0  0
   10.7311   -3.9833   26.7161 C   0  0  0  0  0  0  0  0  0  0  0  0
   11.6859   -3.0065   26.4836 C   0  0  0  0  0  0  0  0  0  0  0  0
   11.6221   -2.2202   25.3689 C   0  0  0  0  0  0  0  0  0  0  0  0
   10.5830   -2.3842   24.4166 C   0  0  0  0  0  0  0  0  0  0  0  0
   10.8482    6.5471   23.6869 C   0  0  0  0  0  0  0  0  0  0  0  0
   11.3760    6.2961   22.0453 Cl  0  0  0  0  0  0  0  0  0  0  0  0
   10.5830    7.8490   24.0810 C   0  0  0  0  0  0  0  0  0  0  0  0
   10.2250    8.0992   25.3964 C   0  0  0  0  0  0  0  0  0  0  0  0
   10.1342    7.0606   26.2950 C   0  0  0  0  0  0  0  0  0  0  0  0
   10.3796    5.7579   25.8868 C   0  0  0  0  0  0  0  0  0  0  0  0
   10.7388    5.4706   24.5705 C   0  0  0  0  0  0  0  0  0  0  0  0
  1  7  1  0
  1  9  1  0
 21 22  1  0
 21 23  2  0
 21 27  1  0
  2  9  2  0
 23 24  1  0
  3  9  1  0
  3 10  1  0
  3 12  1  0
  4 10  2  0
 24 25  2  0
 11 13  2  0
 11 14  1  0
 25 26  1  0
 26 27  2  0
  5 27  1  1
  5  6  1  0
  5  8  1  0
  7  6  1  6
  7  8  1  0
  7 10  1  0
 12 13  1  0
 12 20  2  0
 14 15  2  0
 15 16  1  0
 15 20  1  0
 16 17  2  0
 17 18  1  0
 18 19  2  0
 19 20  1  0
M  END
>  <minimizedAffinity>  (22) 
-8.41866

>  <CNNscore>  (22) 
0.5628795028

>  <CNNaffinity>  (22) 
6.1524448395

>  <CNN_VS>  (22) 
3.4630851746

>  <CNNaffinity_variance>  (22) 
0.1324375570

$$$$
complex-mers-lig-h_gnina_dock_complex-mers-lig-h_24
     RDKit          3D

 27 31  0  0  0  0  0  0  0  0999 V2000
   10.1058    0.6862   22.7696 N   0  0  0  0  0  0  0  0  0  0  0  0
   11.7854    1.3285   24.2007 O   0  0  0  0  0  0  0  0  0  0  0  0
   10.8523   -0.8060   24.2054 N   0  0  0  0  0  0  0  0  0  0  0  0
    9.7459   -2.7102   23.4339 O   0  0  0  0  0  0  0  0  0  0  0  0
    7.8655    0.3080   21.3263 C   0  0  2  0  0  0  0  0  0  0  0  0
    8.9448   -0.7583   21.0090 C   0  0  0  0  0  0  0  0  0  0  0  0
    9.2810   -0.4905   22.4988 C   0  0  2  0  0  0  0  0  0  0  0  0
    7.7635   -0.3025   22.7475 C   0  0  0  0  0  0  0  0  0  0  0  0
   10.9816    0.5145   23.7774 C   0  0  0  0  0  0  0  0  0  0  0  0
    9.9427   -1.5095   23.4145 C   0  0  0  0  0  0  0  0  0  0  0  0
   13.6543   -2.7131   25.4577 N   0  0  0  0  0  0  0  0  0  0  0  0
   11.6142   -1.3840   25.2799 C   0  0  0  0  0  0  0  0  0  0  0  0
   12.9563   -1.6602   25.0268 C   0  0  0  0  0  0  0  0  0  0  0  0
   13.0247   -3.5790   26.2250 C   0  0  0  0  0  0  0  0  0  0  0  0
   11.6792   -3.4350   26.6324 C   0  0  0  0  0  0  0  0  0  0  0  0
   11.0337   -4.3546   27.4960 C   0  0  0  0  0  0  0  0  0  0  0  0
    9.7416   -4.1511   27.8853 C   0  0  0  0  0  0  0  0  0  0  0  0
    9.0343   -3.0459   27.4401 C   0  0  0  0  0  0  0  0  0  0  0  0
    9.6140   -2.1394   26.5993 C   0  0  0  0  0  0  0  0  0  0  0  0
   10.9550   -2.2990   26.1636 C   0  0  0  0  0  0  0  0  0  0  0  0
    5.5761    1.3364   20.8319 C   0  0  0  0  0  0  0  0  0  0  0  0
    5.5357    2.0513   22.4205 Cl  0  0  0  0  0  0  0  0  0  0  0  0
    4.5047    1.5886   19.9900 C   0  0  0  0  0  0  0  0  0  0  0  0
    4.4663    0.9853   18.7428 C   0  0  0  0  0  0  0  0  0  0  0  0
    5.4856    0.1476   18.3512 C   0  0  0  0  0  0  0  0  0  0  0  0
    6.5653   -0.0818   19.1912 C   0  0  0  0  0  0  0  0  0  0  0  0
    6.6372    0.5114   20.4510 C   0  0  0  0  0  0  0  0  0  0  0  0
  1  7  1  0
  1  9  1  0
 21 22  1  0
 21 23  2  0
 21 27  1  0
  2  9  2  0
 23 24  1  0
  3  9  1  0
  3 10  1  0
  3 12  1  0
  4 10  2  0
 24 25  2  0
 11 13  2  0
 11 14  1  0
 25 26  1  0
 26 27  2  0
  5 27  1  6
  5  6  1  0
  5  8  1  0
  7  6  1  6
  7  8  1  0
  7 10  1  0
 12 13  1  0
 12 20  2  0
 14 15  2  0
 15 16  1  0
 15 20  1  0
 16 17  2  0
 17 18  1  0
 18 19  2  0
 19 20  1  0
M  END
>  <minimizedAffinity>  (23) 
-9.01827

>  <CNNscore>  (23) 
0.2725577652

>  <CNNaffinity>  (23) 
5.9771065712

>  <CNN_VS>  (23) 
1.6291067600

>  <CNNaffinity_variance>  (23) 
0.1126622558

$$$$
complex-mers-lig-h_gnina_dock_complex-mers-lig-h_24
     RDKit          3D

 27 31  0  0  0  0  0  0  0  0999 V2000
   10.1058    0.6862   22.7696 N   0  0  0  0  0  0  0  0  0  0  0  0
   11.7854    1.3285   24.2007 O   0  0  0  0  0  0  0  0  0  0  0  0
   10.8523   -0.8060   24.2054 N   0  0  0  0  0  0  0  0  0  0  0  0
    9.7459   -2.7102   23.4339 O   0  0  0  0  0  0  0  0  0  0  0  0
    7.8655    0.3080   21.3263 C   0  0  2  0  0  0  0  0  0  0  0  0
    8.9448   -0.7583   21.0090 C   0  0  0  0  0  0  0  0  0  0  0  0
    9.2810   -0.4905   22.4988 C   0  0  2  0  0  0  0  0  0  0  0  0
    7.7635   -0.3025   22.7475 C   0  0  0  0  0  0  0  0  0  0  0  0
   10.9816    0.5145   23.7774 C   0  0  0  0  0  0  0  0  0  0  0  0
    9.9427   -1.5095   23.4145 C   0  0  0  0  0  0  0  0  0  0  0  0
   13.6543   -2.7131   25.4577 N   0  0  0  0  0  0  0  0  0  0  0  0
   11.6142   -1.3840   25.2799 C   0  0  0  0  0  0  0  0  0  0  0  0
   12.9563   -1.6602   25.0268 C   0  0  0  0  0  0  0  0  0  0  0  0
   13.0247   -3.5790   26.2250 C   0  0  0  0  0  0  0  0  0  0  0  0
   11.6792   -3.4350   26.6324 C   0  0  0  0  0  0  0  0  0  0  0  0
   11.0337   -4.3546   27.4960 C   0  0  0  0  0  0  0  0  0  0  0  0
    9.7416   -4.1511   27.8853 C   0  0  0  0  0  0  0  0  0  0  0  0
    9.0343   -3.0459   27.4401 C   0  0  0  0  0  0  0  0  0  0  0  0
    9.6140   -2.1394   26.5993 C   0  0  0  0  0  0  0  0  0  0  0  0
   10.9550   -2.2990   26.1636 C   0  0  0  0  0  0  0  0  0  0  0  0
    5.5761    1.3364   20.8319 C   0  0  0  0  0  0  0  0  0  0  0  0
    5.5357    2.0513   22.4205 Cl  0  0  0  0  0  0  0  0  0  0  0  0
    4.5047    1.5886   19.9900 C   0  0  0  0  0  0  0  0  0  0  0  0
    4.4663    0.9853   18.7428 C   0  0  0  0  0  0  0  0  0  0  0  0
    5.4856    0.1476   18.3512 C   0  0  0  0  0  0  0  0  0  0  0  0
    6.5653   -0.0818   19.1912 C   0  0  0  0  0  0  0  0  0  0  0  0
    6.6372    0.5114   20.4510 C   0  0  0  0  0  0  0  0  0  0  0  0
  1  7  1  0
  1  9  1  0
 21 22  1  0
 21 23  2  0
 21 27  1  0
  2  9  2  0
 23 24  1  0
  3  9  1  0
  3 10  1  0
  3 12  1  0
  4 10  2  0
 24 25  2  0
 11 13  2  0
 11 14  1  0
 25 26  1  0
 26 27  2  0
  5 27  1  6
  5  6  1  0
  5  8  1  0
  7  6  1  6
  7  8  1  0
  7 10  1  0
 12 13  1  0
 12 20  2  0
 14 15  2  0
 15 16  1  0
 15 20  1  0
 16 17  2  0
 17 18  1  0
 18 19  2  0
 19 20  1  0
M  END
>  <minimizedAffinity>  (24) 
-9.01827

>  <CNNscore>  (24) 
0.2725577652

>  <CNNaffinity>  (24) 
5.9771065712

>  <CNN_VS>  (24) 
1.6291067600

>  <CNNaffinity_variance>  (24) 
0.1126622558

$$$$
complex-mers-lig-h_gnina_dock_complex-mers-lig-h_24
     RDKit          3D

 27 31  0  0  0  0  0  0  0  0999 V2000
   10.1058    0.6862   22.7696 N   0  0  0  0  0  0  0  0  0  0  0  0
   11.7854    1.3285   24.2007 O   0  0  0  0  0  0  0  0  0  0  0  0
   10.8523   -0.8060   24.2054 N   0  0  0  0  0  0  0  0  0  0  0  0
    9.7459   -2.7102   23.4339 O   0  0  0  0  0  0  0  0  0  0  0  0
    7.8655    0.3080   21.3263 C   0  0  2  0  0  0  0  0  0  0  0  0
    8.9448   -0.7583   21.0090 C   0  0  0  0  0  0  0  0  0  0  0  0
    9.2810   -0.4905   22.4988 C   0  0  2  0  0  0  0  0  0  0  0  0
    7.7635   -0.3025   22.7475 C   0  0  0  0  0  0  0  0  0  0  0  0
   10.9816    0.5145   23.7774 C   0  0  0  0  0  0  0  0  0  0  0  0
    9.9427   -1.5095   23.4145 C   0  0  0  0  0  0  0  0  0  0  0  0
   13.6543   -2.7131   25.4577 N   0  0  0  0  0  0  0  0  0  0  0  0
   11.6142   -1.3840   25.2799 C   0  0  0  0  0  0  0  0  0  0  0  0
   12.9563   -1.6602   25.0268 C   0  0  0  0  0  0  0  0  0  0  0  0
   13.0247   -3.5790   26.2250 C   0  0  0  0  0  0  0  0  0  0  0  0
   11.6792   -3.4350   26.6324 C   0  0  0  0  0  0  0  0  0  0  0  0
   11.0337   -4.3546   27.4960 C   0  0  0  0  0  0  0  0  0  0  0  0
    9.7416   -4.1511   27.8853 C   0  0  0  0  0  0  0  0  0  0  0  0
    9.0343   -3.0459   27.4401 C   0  0  0  0  0  0  0  0  0  0  0  0
    9.6140   -2.1394   26.5993 C   0  0  0  0  0  0  0  0  0  0  0  0
   10.9550   -2.2990   26.1636 C   0  0  0  0  0  0  0  0  0  0  0  0
    5.5761    1.3364   20.8319 C   0  0  0  0  0  0  0  0  0  0  0  0
    5.5357    2.0513   22.4205 Cl  0  0  0  0  0  0  0  0  0  0  0  0
    4.5047    1.5886   19.9900 C   0  0  0  0  0  0  0  0  0  0  0  0
    4.4663    0.9853   18.7428 C   0  0  0  0  0  0  0  0  0  0  0  0
    5.4856    0.1476   18.3512 C   0  0  0  0  0  0  0  0  0  0  0  0
    6.5653   -0.0818   19.1912 C   0  0  0  0  0  0  0  0  0  0  0  0
    6.6372    0.5114   20.4510 C   0  0  0  0  0  0  0  0  0  0  0  0
  1  7  1  0
  1  9  1  0
 21 22  1  0
 21 23  2  0
 21 27  1  0
  2  9  2  0
 23 24  1  0
  3  9  1  0
  3 10  1  0
  3 12  1  0
  4 10  2  0
 24 25  2  0
 11 13  2  0
 11 14  1  0
 25 26  1  0
 26 27  2  0
  5 27  1  6
  5  6  1  0
  5  8  1  0
  7  6  1  6
  7  8  1  0
  7 10  1  0
 12 13  1  0
 12 20  2  0
 14 15  2  0
 15 16  1  0
 15 20  1  0
 16 17  2  0
 17 18  1  0
 18 19  2  0
 19 20  1  0
M  END
>  <minimizedAffinity>  (25) 
-9.01827

>  <CNNscore>  (25) 
0.2725577652

>  <CNNaffinity>  (25) 
5.9771065712

>  <CNN_VS>  (25) 
1.6291067600

>  <CNNaffinity_variance>  (25) 
0.1126622558

$$$$
complex-mers-lig-h_gnina_dock_complex-mers-lig-h_16
     RDKit          3D

 27 31  0  0  0  0  0  0  0  0999 V2000
   10.0189    0.8611   22.8447 N   0  0  0  0  0  0  0  0  0  0  0  0
   11.8751    1.3994   24.0881 O   0  0  0  0  0  0  0  0  0  0  0  0
   10.7911   -0.6570   24.2392 N   0  0  0  0  0  0  0  0  0  0  0  0
    9.4751   -2.4848   23.6288 O   0  0  0  0  0  0  0  0  0  0  0  0
    7.6247    0.6288   21.6368 C   0  0  2  0  0  0  0  0  0  0  0  0
    8.5850   -0.5227   21.2437 C   0  0  0  0  0  0  0  0  0  0  0  0
    9.0862   -0.2539   22.6862 C   0  0  2  0  0  0  0  0  0  0  0  0
    7.6190    0.0544   23.0765 C   0  0  0  0  0  0  0  0  0  0  0  0
   10.9751    0.6416   23.7664 C   0  0  0  0  0  0  0  0  0  0  0  0
    9.7578   -1.3033   23.5592 C   0  0  0  0  0  0  0  0  0  0  0  0
   13.6672   -2.5868   25.2686 N   0  0  0  0  0  0  0  0  0  0  0  0
   11.6106   -1.2716   25.2490 C   0  0  0  0  0  0  0  0  0  0  0  0
   12.9403   -1.5238   24.9176 C   0  0  0  0  0  0  0  0  0  0  0  0
   13.0839   -3.4899   26.0295 C   0  0  0  0  0  0  0  0  0  0  0  0
   11.7595   -3.3761   26.5094 C   0  0  0  0  0  0  0  0  0  0  0  0
   11.1655   -4.3370   27.3649 C   0  0  0  0  0  0  0  0  0  0  0  0
    9.8931   -4.1626   27.8267 C   0  0  0  0  0  0  0  0  0  0  0  0
    9.1558   -3.0468   27.4641 C   0  0  0  0  0  0  0  0  0  0  0  0
    9.6854   -2.1006   26.6341 C   0  0  0  0  0  0  0  0  0  0  0  0
   11.0039   -2.2289   26.1255 C   0  0  0  0  0  0  0  0  0  0  0  0
    6.0873    0.3925   19.6061 C   0  0  0  0  0  0  0  0  0  0  0  0
    7.3299   -0.4744   18.7453 Cl  0  0  0  0  0  0  0  0  0  0  0  0
    4.8736    0.5762   18.9630 C   0  0  0  0  0  0  0  0  0  0  0  0
    3.8819    1.3172   19.5862 C   0  0  0  0  0  0  0  0  0  0  0  0
    4.1068    1.8599   20.8308 C   0  0  0  0  0  0  0  0  0  0  0  0
    5.3164    1.6523   21.4771 C   0  0  0  0  0  0  0  0  0  0  0  0
    6.3343    0.9093   20.8803 C   0  0  0  0  0  0  0  0  0  0  0  0
  1  7  1  0
  1  9  1  0
 21 22  1  0
 21 23  2  0
 21 27  1  0
  2  9  2  0
 23 24  1  0
  3  9  1  0
  3 10  1  0
  3 12  1  0
  4 10  2  0
 24 25  2  0
 11 13  2  0
 11 14  1  0
 25 26  1  0
 26 27  2  0
  5 27  1  6
  5  6  1  0
  5  8  1  0
  7  6  1  6
  7  8  1  0
  7 10  1  0
 12 13  1  0
 12 20  2  0
 14 15  2  0
 15 16  1  0
 15 20  1  0
 16 17  2  0
 17 18  1  0
 18 19  2  0
 19 20  1  0
M  END
>  <minimizedAffinity>  (26) 
-8.98166

>  <CNNscore>  (26) 
0.3930144906

>  <CNNaffinity>  (26) 
6.1110420227

>  <CNN_VS>  (26) 
2.4017281532

>  <CNNaffinity_variance>  (26) 
0.1525208503

$$$$
complex-mers-lig-h_gnina_dock_complex-mers-lig-h_16
     RDKit          3D

 27 31  0  0  0  0  0  0  0  0999 V2000
   10.0189    0.8611   22.8447 N   0  0  0  0  0  0  0  0  0  0  0  0
   11.8751    1.3994   24.0881 O   0  0  0  0  0  0  0  0  0  0  0  0
   10.7911   -0.6570   24.2392 N   0  0  0  0  0  0  0  0  0  0  0  0
    9.4751   -2.4848   23.6288 O   0  0  0  0  0  0  0  0  0  0  0  0
    7.6247    0.6288   21.6368 C   0  0  2  0  0  0  0  0  0  0  0  0
    8.5850   -0.5227   21.2437 C   0  0  0  0  0  0  0  0  0  0  0  0
    9.0862   -0.2539   22.6862 C   0  0  2  0  0  0  0  0  0  0  0  0
    7.6190    0.0544   23.0765 C   0  0  0  0  0  0  0  0  0  0  0  0
   10.9751    0.6416   23.7664 C   0  0  0  0  0  0  0  0  0  0  0  0
    9.7578   -1.3033   23.5592 C   0  0  0  0  0  0  0  0  0  0  0  0
   13.6672   -2.5868   25.2686 N   0  0  0  0  0  0  0  0  0  0  0  0
   11.6106   -1.2716   25.2490 C   0  0  0  0  0  0  0  0  0  0  0  0
   12.9403   -1.5238   24.9176 C   0  0  0  0  0  0  0  0  0  0  0  0
   13.0839   -3.4899   26.0295 C   0  0  0  0  0  0  0  0  0  0  0  0
   11.7595   -3.3761   26.5094 C   0  0  0  0  0  0  0  0  0  0  0  0
   11.1655   -4.3370   27.3649 C   0  0  0  0  0  0  0  0  0  0  0  0
    9.8931   -4.1626   27.8267 C   0  0  0  0  0  0  0  0  0  0  0  0
    9.1558   -3.0468   27.4641 C   0  0  0  0  0  0  0  0  0  0  0  0
    9.6854   -2.1006   26.6341 C   0  0  0  0  0  0  0  0  0  0  0  0
   11.0039   -2.2289   26.1255 C   0  0  0  0  0  0  0  0  0  0  0  0
    6.0873    0.3925   19.6061 C   0  0  0  0  0  0  0  0  0  0  0  0
    7.3299   -0.4744   18.7453 Cl  0  0  0  0  0  0  0  0  0  0  0  0
    4.8736    0.5762   18.9630 C   0  0  0  0  0  0  0  0  0  0  0  0
    3.8819    1.3172   19.5862 C   0  0  0  0  0  0  0  0  0  0  0  0
    4.1068    1.8599   20.8308 C   0  0  0  0  0  0  0  0  0  0  0  0
    5.3164    1.6523   21.4771 C   0  0  0  0  0  0  0  0  0  0  0  0
    6.3343    0.9093   20.8803 C   0  0  0  0  0  0  0  0  0  0  0  0
  1  7  1  0
  1  9  1  0
 21 22  1  0
 21 23  2  0
 21 27  1  0
  2  9  2  0
 23 24  1  0
  3  9  1  0
  3 10  1  0
  3 12  1  0
  4 10  2  0
 24 25  2  0
 11 13  2  0
 11 14  1  0
 25 26  1  0
 26 27  2  0
  5 27  1  6
  5  6  1  0
  5  8  1  0
  7  6  1  6
  7  8  1  0
  7 10  1  0
 12 13  1  0
 12 20  2  0
 14 15  2  0
 15 16  1  0
 15 20  1  0
 16 17  2  0
 17 18  1  0
 18 19  2  0
 19 20  1  0
M  END
>  <minimizedAffinity>  (27) 
-8.98166

>  <CNNscore>  (27) 
0.3930144906

>  <CNNaffinity>  (27) 
6.1110420227

>  <CNN_VS>  (27) 
2.4017281532

>  <CNNaffinity_variance>  (27) 
0.1525208503

$$$$
complex-mers-lig-h_gnina_dock_complex-mers-lig-h_9
     RDKit          3D

 27 31  0  0  0  0  0  0  0  0999 V2000
   11.9873    1.6528   23.4289 N   0  0  0  0  0  0  0  0  0  0  0  0
   13.1083   -0.3424   23.2194 O   0  0  0  0  0  0  0  0  0  0  0  0
   10.7859   -0.1882   23.3161 N   0  0  0  0  0  0  0  0  0  0  0  0
    8.6462    0.7259   23.1393 O   0  0  0  0  0  0  0  0  0  0  0  0
   10.9292    4.0281   24.1241 C   0  0  2  0  0  0  0  0  0  0  0  0
   10.2922    3.4688   22.8263 C   0  0  0  0  0  0  0  0  0  0  0  0
   10.6120    2.1347   23.5490 C   0  0  2  0  0  0  0  0  0  0  0  0
   10.2774    2.8451   24.8846 C   0  0  0  0  0  0  0  0  0  0  0  0
   12.0865    0.3137   23.3343 C   0  0  0  0  0  0  0  0  0  0  0  0
    9.8440    0.8416   23.3196 C   0  0  0  0  0  0  0  0  0  0  0  0
    8.5051   -2.8918   22.5780 N   0  0  0  0  0  0  0  0  0  0  0  0
   10.4622   -1.5872   23.2321 C   0  0  0  0  0  0  0  0  0  0  0  0
    9.4248   -1.9462   22.3739 C   0  0  0  0  0  0  0  0  0  0  0  0
    8.5907   -3.5830   23.6959 C   0  0  0  0  0  0  0  0  0  0  0  0
    9.6082   -3.3969   24.6589 C   0  0  0  0  0  0  0  0  0  0  0  0
    9.7090   -4.1824   25.8339 C   0  0  0  0  0  0  0  0  0  0  0  0
   10.7311   -3.9833   26.7161 C   0  0  0  0  0  0  0  0  0  0  0  0
   11.6859   -3.0065   26.4836 C   0  0  0  0  0  0  0  0  0  0  0  0
   11.6221   -2.2202   25.3689 C   0  0  0  0  0  0  0  0  0  0  0  0
   10.5830   -2.3842   24.4166 C   0  0  0  0  0  0  0  0  0  0  0  0
   10.8482    6.5471   23.6869 C   0  0  0  0  0  0  0  0  0  0  0  0
   11.3760    6.2961   22.0453 Cl  0  0  0  0  0  0  0  0  0  0  0  0
   10.5830    7.8490   24.0810 C   0  0  0  0  0  0  0  0  0  0  0  0
   10.2250    8.0992   25.3964 C   0  0  0  0  0  0  0  0  0  0  0  0
   10.1342    7.0606   26.2950 C   0  0  0  0  0  0  0  0  0  0  0  0
   10.3796    5.7579   25.8868 C   0  0  0  0  0  0  0  0  0  0  0  0
   10.7388    5.4706   24.5705 C   0  0  0  0  0  0  0  0  0  0  0  0
  1  7  1  0
  1  9  1  0
 21 22  1  0
 21 23  2  0
 21 27  1  0
  2  9  2  0
 23 24  1  0
  3  9  1  0
  3 10  1  0
  3 12  1  0
  4 10  2  0
 24 25  2  0
 11 13  2  0
 11 14  1  0
 25 26  1  0
 26 27  2  0
  5 27  1  1
  5  6  1  0
  5  8  1  0
  7  6  1  6
  7  8  1  0
  7 10  1  0
 12 13  1  0
 12 20  2  0
 14 15  2  0
 15 16  1  0
 15 20  1  0
 16 17  2  0
 17 18  1  0
 18 19  2  0
 19 20  1  0
M  END
>  <minimizedAffinity>  (28) 
-8.41866

>  <CNNscore>  (28) 
0.5628795028

>  <CNNaffinity>  (28) 
6.1524448395

>  <CNN_VS>  (28) 
3.4630851746

>  <CNNaffinity_variance>  (28) 
0.1324375570

$$$$
complex-mers-lig-h_gnina_dock_complex-mers-lig-h_16
     RDKit          3D

 27 31  0  0  0  0  0  0  0  0999 V2000
   10.0189    0.8611   22.8447 N   0  0  0  0  0  0  0  0  0  0  0  0
   11.8751    1.3994   24.0881 O   0  0  0  0  0  0  0  0  0  0  0  0
   10.7911   -0.6570   24.2392 N   0  0  0  0  0  0  0  0  0  0  0  0
    9.4751   -2.4848   23.6288 O   0  0  0  0  0  0  0  0  0  0  0  0
    7.6247    0.6288   21.6368 C   0  0  2  0  0  0  0  0  0  0  0  0
    8.5850   -0.5227   21.2437 C   0  0  0  0  0  0  0  0  0  0  0  0
    9.0862   -0.2539   22.6862 C   0  0  2  0  0  0  0  0  0  0  0  0
    7.6190    0.0544   23.0765 C   0  0  0  0  0  0  0  0  0  0  0  0
   10.9751    0.6416   23.7664 C   0  0  0  0  0  0  0  0  0  0  0  0
    9.7578   -1.3033   23.5592 C   0  0  0  0  0  0  0  0  0  0  0  0
   13.6672   -2.5868   25.2686 N   0  0  0  0  0  0  0  0  0  0  0  0
   11.6106   -1.2716   25.2490 C   0  0  0  0  0  0  0  0  0  0  0  0
   12.9403   -1.5238   24.9176 C   0  0  0  0  0  0  0  0  0  0  0  0
   13.0839   -3.4899   26.0295 C   0  0  0  0  0  0  0  0  0  0  0  0
   11.7595   -3.3761   26.5094 C   0  0  0  0  0  0  0  0  0  0  0  0
   11.1655   -4.3370   27.3649 C   0  0  0  0  0  0  0  0  0  0  0  0
    9.8931   -4.1626   27.8267 C   0  0  0  0  0  0  0  0  0  0  0  0
    9.1558   -3.0468   27.4641 C   0  0  0  0  0  0  0  0  0  0  0  0
    9.6854   -2.1006   26.6341 C   0  0  0  0  0  0  0  0  0  0  0  0
   11.0039   -2.2289   26.1255 C   0  0  0  0  0  0  0  0  0  0  0  0
    6.0873    0.3925   19.6061 C   0  0  0  0  0  0  0  0  0  0  0  0
    7.3299   -0.4744   18.7453 Cl  0  0  0  0  0  0  0  0  0  0  0  0
    4.8736    0.5762   18.9630 C   0  0  0  0  0  0  0  0  0  0  0  0
    3.8819    1.3172   19.5862 C   0  0  0  0  0  0  0  0  0  0  0  0
    4.1068    1.8599   20.8308 C   0  0  0  0  0  0  0  0  0  0  0  0
    5.3164    1.6523   21.4771 C   0  0  0  0  0  0  0  0  0  0  0  0
    6.3343    0.9093   20.8803 C   0  0  0  0  0  0  0  0  0  0  0  0
  1  7  1  0
  1  9  1  0
 21 22  1  0
 21 23  2  0
 21 27  1  0
  2  9  2  0
 23 24  1  0
  3  9  1  0
  3 10  1  0
  3 12  1  0
  4 10  2  0
 24 25  2  0
 11 13  2  0
 11 14  1  0
 25 26  1  0
 26 27  2  0
  5 27  1  6
  5  6  1  0
  5  8  1  0
  7  6  1  6
  7  8  1  0
  7 10  1  0
 12 13  1  0
 12 20  2  0
 14 15  2  0
 15 16  1  0
 15 20  1  0
 16 17  2  0
 17 18  1  0
 18 19  2  0
 19 20  1  0
M  END
>  <minimizedAffinity>  (29) 
-8.98166

>  <CNNscore>  (29) 
0.3930144906

>  <CNNaffinity>  (29) 
6.1110420227

>  <CNN_VS>  (29) 
2.4017281532

>  <CNNaffinity_variance>  (29) 
0.1525208503

$$$$
complex-mers-lig-h_gnina_dock_complex-mers-lig-h_16
     RDKit          3D

 27 31  0  0  0  0  0  0  0  0999 V2000
   10.0189    0.8611   22.8447 N   0  0  0  0  0  0  0  0  0  0  0  0
   11.8751    1.3994   24.0881 O   0  0  0  0  0  0  0  0  0  0  0  0
   10.7911   -0.6570   24.2392 N   0  0  0  0  0  0  0  0  0  0  0  0
    9.4751   -2.4848   23.6288 O   0  0  0  0  0  0  0  0  0  0  0  0
    7.6247    0.6288   21.6368 C   0  0  2  0  0  0  0  0  0  0  0  0
    8.5850   -0.5227   21.2437 C   0  0  0  0  0  0  0  0  0  0  0  0
    9.0862   -0.2539   22.6862 C   0  0  2  0  0  0  0  0  0  0  0  0
    7.6190    0.0544   23.0765 C   0  0  0  0  0  0  0  0  0  0  0  0
   10.9751    0.6416   23.7664 C   0  0  0  0  0  0  0  0  0  0  0  0
    9.7578   -1.3033   23.5592 C   0  0  0  0  0  0  0  0  0  0  0  0
   13.6672   -2.5868   25.2686 N   0  0  0  0  0  0  0  0  0  0  0  0
   11.6106   -1.2716   25.2490 C   0  0  0  0  0  0  0  0  0  0  0  0
   12.9403   -1.5238   24.9176 C   0  0  0  0  0  0  0  0  0  0  0  0
   13.0839   -3.4899   26.0295 C   0  0  0  0  0  0  0  0  0  0  0  0
   11.7595   -3.3761   26.5094 C   0  0  0  0  0  0  0  0  0  0  0  0
   11.1655   -4.3370   27.3649 C   0  0  0  0  0  0  0  0  0  0  0  0
    9.8931   -4.1626   27.8267 C   0  0  0  0  0  0  0  0  0  0  0  0
    9.1558   -3.0468   27.4641 C   0  0  0  0  0  0  0  0  0  0  0  0
    9.6854   -2.1006   26.6341 C   0  0  0  0  0  0  0  0  0  0  0  0
   11.0039   -2.2289   26.1255 C   0  0  0  0  0  0  0  0  0  0  0  0
    6.0873    0.3925   19.6061 C   0  0  0  0  0  0  0  0  0  0  0  0
    7.3299   -0.4744   18.7453 Cl  0  0  0  0  0  0  0  0  0  0  0  0
    4.8736    0.5762   18.9630 C   0  0  0  0  0  0  0  0  0  0  0  0
    3.8819    1.3172   19.5862 C   0  0  0  0  0  0  0  0  0  0  0  0
    4.1068    1.8599   20.8308 C   0  0  0  0  0  0  0  0  0  0  0  0
    5.3164    1.6523   21.4771 C   0  0  0  0  0  0  0  0  0  0  0  0
    6.3343    0.9093   20.8803 C   0  0  0  0  0  0  0  0  0  0  0  0
  1  7  1  0
  1  9  1  0
 21 22  1  0
 21 23  2  0
 21 27  1  0
  2  9  2  0
 23 24  1  0
  3  9  1  0
  3 10  1  0
  3 12  1  0
  4 10  2  0
 24 25  2  0
 11 13  2  0
 11 14  1  0
 25 26  1  0
 26 27  2  0
  5 27  1  6
  5  6  1  0
  5  8  1  0
  7  6  1  6
  7  8  1  0
  7 10  1  0
 12 13  1  0
 12 20  2  0
 14 15  2  0
 15 16  1  0
 15 20  1  0
 16 17  2  0
 17 18  1  0
 18 19  2  0
 19 20  1  0
M  END
>  <minimizedAffinity>  (30) 
-8.98166

>  <CNNscore>  (30) 
0.3930144906

>  <CNNaffinity>  (30) 
6.1110420227

>  <CNN_VS>  (30) 
2.4017281532

>  <CNNaffinity_variance>  (30) 
0.1525208503

$$$$
complex-mers-lig-h_gnina_dock_complex-mers-lig-h_16
     RDKit          3D

 27 31  0  0  0  0  0  0  0  0999 V2000
   10.0189    0.8611   22.8447 N   0  0  0  0  0  0  0  0  0  0  0  0
   11.8751    1.3994   24.0881 O   0  0  0  0  0  0  0  0  0  0  0  0
   10.7911   -0.6570   24.2392 N   0  0  0  0  0  0  0  0  0  0  0  0
    9.4751   -2.4848   23.6288 O   0  0  0  0  0  0  0  0  0  0  0  0
    7.6247    0.6288   21.6368 C   0  0  2  0  0  0  0  0  0  0  0  0
    8.5850   -0.5227   21.2437 C   0  0  0  0  0  0  0  0  0  0  0  0
    9.0862   -0.2539   22.6862 C   0  0  2  0  0  0  0  0  0  0  0  0
    7.6190    0.0544   23.0765 C   0  0  0  0  0  0  0  0  0  0  0  0
   10.9751    0.6416   23.7664 C   0  0  0  0  0  0  0  0  0  0  0  0
    9.7578   -1.3033   23.5592 C   0  0  0  0  0  0  0  0  0  0  0  0
   13.6672   -2.5868   25.2686 N   0  0  0  0  0  0  0  0  0  0  0  0
   11.6106   -1.2716   25.2490 C   0  0  0  0  0  0  0  0  0  0  0  0
   12.9403   -1.5238   24.9176 C   0  0  0  0  0  0  0  0  0  0  0  0
   13.0839   -3.4899   26.0295 C   0  0  0  0  0  0  0  0  0  0  0  0
   11.7595   -3.3761   26.5094 C   0  0  0  0  0  0  0  0  0  0  0  0
   11.1655   -4.3370   27.3649 C   0  0  0  0  0  0  0  0  0  0  0  0
    9.8931   -4.1626   27.8267 C   0  0  0  0  0  0  0  0  0  0  0  0
    9.1558   -3.0468   27.4641 C   0  0  0  0  0  0  0  0  0  0  0  0
    9.6854   -2.1006   26.6341 C   0  0  0  0  0  0  0  0  0  0  0  0
   11.0039   -2.2289   26.1255 C   0  0  0  0  0  0  0  0  0  0  0  0
    6.0873    0.3925   19.6061 C   0  0  0  0  0  0  0  0  0  0  0  0
    7.3299   -0.4744   18.7453 Cl  0  0  0  0  0  0  0  0  0  0  0  0
    4.8736    0.5762   18.9630 C   0  0  0  0  0  0  0  0  0  0  0  0
    3.8819    1.3172   19.5862 C   0  0  0  0  0  0  0  0  0  0  0  0
    4.1068    1.8599   20.8308 C   0  0  0  0  0  0  0  0  0  0  0  0
    5.3164    1.6523   21.4771 C   0  0  0  0  0  0  0  0  0  0  0  0
    6.3343    0.9093   20.8803 C   0  0  0  0  0  0  0  0  0  0  0  0
  1  7  1  0
  1  9  1  0
 21 22  1  0
 21 23  2  0
 21 27  1  0
  2  9  2  0
 23 24  1  0
  3  9  1  0
  3 10  1  0
  3 12  1  0
  4 10  2  0
 24 25  2  0
 11 13  2  0
 11 14  1  0
 25 26  1  0
 26 27  2  0
  5 27  1  6
  5  6  1  0
  5  8  1  0
  7  6  1  6
  7  8  1  0
  7 10  1  0
 12 13  1  0
 12 20  2  0
 14 15  2  0
 15 16  1  0
 15 20  1  0
 16 17  2  0
 17 18  1  0
 18 19  2  0
 19 20  1  0
M  END
>  <minimizedAffinity>  (31) 
-8.98166

>  <CNNscore>  (31) 
0.3930144906

>  <CNNaffinity>  (31) 
6.1110420227

>  <CNN_VS>  (31) 
2.4017281532

>  <CNNaffinity_variance>  (31) 
0.1525208503

$$$$
complex-mers-lig-h_gnina_dock_complex-mers-lig-h_16
     RDKit          3D

 27 31  0  0  0  0  0  0  0  0999 V2000
   10.0189    0.8611   22.8447 N   0  0  0  0  0  0  0  0  0  0  0  0
   11.8751    1.3994   24.0881 O   0  0  0  0  0  0  0  0  0  0  0  0
   10.7911   -0.6570   24.2392 N   0  0  0  0  0  0  0  0  0  0  0  0
    9.4751   -2.4848   23.6288 O   0  0  0  0  0  0  0  0  0  0  0  0
    7.6247    0.6288   21.6368 C   0  0  2  0  0  0  0  0  0  0  0  0
    8.5850   -0.5227   21.2437 C   0  0  0  0  0  0  0  0  0  0  0  0
    9.0862   -0.2539   22.6862 C   0  0  2  0  0  0  0  0  0  0  0  0
    7.6190    0.0544   23.0765 C   0  0  0  0  0  0  0  0  0  0  0  0
   10.9751    0.6416   23.7664 C   0  0  0  0  0  0  0  0  0  0  0  0
    9.7578   -1.3033   23.5592 C   0  0  0  0  0  0  0  0  0  0  0  0
   13.6672   -2.5868   25.2686 N   0  0  0  0  0  0  0  0  0  0  0  0
   11.6106   -1.2716   25.2490 C   0  0  0  0  0  0  0  0  0  0  0  0
   12.9403   -1.5238   24.9176 C   0  0  0  0  0  0  0  0  0  0  0  0
   13.0839   -3.4899   26.0295 C   0  0  0  0  0  0  0  0  0  0  0  0
   11.7595   -3.3761   26.5094 C   0  0  0  0  0  0  0  0  0  0  0  0
   11.1655   -4.3370   27.3649 C   0  0  0  0  0  0  0  0  0  0  0  0
    9.8931   -4.1626   27.8267 C   0  0  0  0  0  0  0  0  0  0  0  0
    9.1558   -3.0468   27.4641 C   0  0  0  0  0  0  0  0  0  0  0  0
    9.6854   -2.1006   26.6341 C   0  0  0  0  0  0  0  0  0  0  0  0
   11.0039   -2.2289   26.1255 C   0  0  0  0  0  0  0  0  0  0  0  0
    6.0873    0.3925   19.6061 C   0  0  0  0  0  0  0  0  0  0  0  0
    7.3299   -0.4744   18.7453 Cl  0  0  0  0  0  0  0  0  0  0  0  0
    4.8736    0.5762   18.9630 C   0  0  0  0  0  0  0  0  0  0  0  0
    3.8819    1.3172   19.5862 C   0  0  0  0  0  0  0  0  0  0  0  0
    4.1068    1.8599   20.8308 C   0  0  0  0  0  0  0  0  0  0  0  0
    5.3164    1.6523   21.4771 C   0  0  0  0  0  0  0  0  0  0  0  0
    6.3343    0.9093   20.8803 C   0  0  0  0  0  0  0  0  0  0  0  0
  1  7  1  0
  1  9  1  0
 21 22  1  0
 21 23  2  0
 21 27  1  0
  2  9  2  0
 23 24  1  0
  3  9  1  0
  3 10  1  0
  3 12  1  0
  4 10  2  0
 24 25  2  0
 11 13  2  0
 11 14  1  0
 25 26  1  0
 26 27  2  0
  5 27  1  6
  5  6  1  0
  5  8  1  0
  7  6  1  6
  7  8  1  0
  7 10  1  0
 12 13  1  0
 12 20  2  0
 14 15  2  0
 15 16  1  0
 15 20  1  0
 16 17  2  0
 17 18  1  0
 18 19  2  0
 19 20  1  0
M  END
>  <minimizedAffinity>  (32) 
-8.98166

>  <CNNscore>  (32) 
0.3930144906

>  <CNNaffinity>  (32) 
6.1110420227

>  <CNN_VS>  (32) 
2.4017281532

>  <CNNaffinity_variance>  (32) 
0.1525208503

$$$$
complex-mers-lig-h_gnina_dock_complex-mers-lig-h_16
     RDKit          3D

 27 31  0  0  0  0  0  0  0  0999 V2000
   10.0189    0.8611   22.8447 N   0  0  0  0  0  0  0  0  0  0  0  0
   11.8751    1.3994   24.0881 O   0  0  0  0  0  0  0  0  0  0  0  0
   10.7911   -0.6570   24.2392 N   0  0  0  0  0  0  0  0  0  0  0  0
    9.4751   -2.4848   23.6288 O   0  0  0  0  0  0  0  0  0  0  0  0
    7.6247    0.6288   21.6368 C   0  0  2  0  0  0  0  0  0  0  0  0
    8.5850   -0.5227   21.2437 C   0  0  0  0  0  0  0  0  0  0  0  0
    9.0862   -0.2539   22.6862 C   0  0  2  0  0  0  0  0  0  0  0  0
    7.6190    0.0544   23.0765 C   0  0  0  0  0  0  0  0  0  0  0  0
   10.9751    0.6416   23.7664 C   0  0  0  0  0  0  0  0  0  0  0  0
    9.7578   -1.3033   23.5592 C   0  0  0  0  0  0  0  0  0  0  0  0
   13.6672   -2.5868   25.2686 N   0  0  0  0  0  0  0  0  0  0  0  0
   11.6106   -1.2716   25.2490 C   0  0  0  0  0  0  0  0  0  0  0  0
   12.9403   -1.5238   24.9176 C   0  0  0  0  0  0  0  0  0  0  0  0
   13.0839   -3.4899   26.0295 C   0  0  0  0  0  0  0  0  0  0  0  0
   11.7595   -3.3761   26.5094 C   0  0  0  0  0  0  0  0  0  0  0  0
   11.1655   -4.3370   27.3649 C   0  0  0  0  0  0  0  0  0  0  0  0
    9.8931   -4.1626   27.8267 C   0  0  0  0  0  0  0  0  0  0  0  0
    9.1558   -3.0468   27.4641 C   0  0  0  0  0  0  0  0  0  0  0  0
    9.6854   -2.1006   26.6341 C   0  0  0  0  0  0  0  0  0  0  0  0
   11.0039   -2.2289   26.1255 C   0  0  0  0  0  0  0  0  0  0  0  0
    6.0873    0.3925   19.6061 C   0  0  0  0  0  0  0  0  0  0  0  0
    7.3299   -0.4744   18.7453 Cl  0  0  0  0  0  0  0  0  0  0  0  0
    4.8736    0.5762   18.9630 C   0  0  0  0  0  0  0  0  0  0  0  0
    3.8819    1.3172   19.5862 C   0  0  0  0  0  0  0  0  0  0  0  0
    4.1068    1.8599   20.8308 C   0  0  0  0  0  0  0  0  0  0  0  0
    5.3164    1.6523   21.4771 C   0  0  0  0  0  0  0  0  0  0  0  0
    6.3343    0.9093   20.8803 C   0  0  0  0  0  0  0  0  0  0  0  0
  1  7  1  0
  1  9  1  0
 21 22  1  0
 21 23  2  0
 21 27  1  0
  2  9  2  0
 23 24  1  0
  3  9  1  0
  3 10  1  0
  3 12  1  0
  4 10  2  0
 24 25  2  0
 11 13  2  0
 11 14  1  0
 25 26  1  0
 26 27  2  0
  5 27  1  6
  5  6  1  0
  5  8  1  0
  7  6  1  6
  7  8  1  0
  7 10  1  0
 12 13  1  0
 12 20  2  0
 14 15  2  0
 15 16  1  0
 15 20  1  0
 16 17  2  0
 17 18  1  0
 18 19  2  0
 19 20  1  0
M  END
>  <minimizedAffinity>  (33) 
-8.98166

>  <CNNscore>  (33) 
0.3930144906

>  <CNNaffinity>  (33) 
6.1110420227

>  <CNN_VS>  (33) 
2.4017281532

>  <CNNaffinity_variance>  (33) 
0.1525208503

$$$$
complex-mers-lig-h_gnina_dock_complex-mers-lig-h_16
     RDKit          3D

 27 31  0  0  0  0  0  0  0  0999 V2000
   10.0189    0.8611   22.8447 N   0  0  0  0  0  0  0  0  0  0  0  0
   11.8751    1.3994   24.0881 O   0  0  0  0  0  0  0  0  0  0  0  0
   10.7911   -0.6570   24.2392 N   0  0  0  0  0  0  0  0  0  0  0  0
    9.4751   -2.4848   23.6288 O   0  0  0  0  0  0  0  0  0  0  0  0
    7.6247    0.6288   21.6368 C   0  0  2  0  0  0  0  0  0  0  0  0
    8.5850   -0.5227   21.2437 C   0  0  0  0  0  0  0  0  0  0  0  0
    9.0862   -0.2539   22.6862 C   0  0  2  0  0  0  0  0  0  0  0  0
    7.6190    0.0544   23.0765 C   0  0  0  0  0  0  0  0  0  0  0  0
   10.9751    0.6416   23.7664 C   0  0  0  0  0  0  0  0  0  0  0  0
    9.7578   -1.3033   23.5592 C   0  0  0  0  0  0  0  0  0  0  0  0
   13.6672   -2.5868   25.2686 N   0  0  0  0  0  0  0  0  0  0  0  0
   11.6106   -1.2716   25.2490 C   0  0  0  0  0  0  0  0  0  0  0  0
   12.9403   -1.5238   24.9176 C   0  0  0  0  0  0  0  0  0  0  0  0
   13.0839   -3.4899   26.0295 C   0  0  0  0  0  0  0  0  0  0  0  0
   11.7595   -3.3761   26.5094 C   0  0  0  0  0  0  0  0  0  0  0  0
   11.1655   -4.3370   27.3649 C   0  0  0  0  0  0  0  0  0  0  0  0
    9.8931   -4.1626   27.8267 C   0  0  0  0  0  0  0  0  0  0  0  0
    9.1558   -3.0468   27.4641 C   0  0  0  0  0  0  0  0  0  0  0  0
    9.6854   -2.1006   26.6341 C   0  0  0  0  0  0  0  0  0  0  0  0
   11.0039   -2.2289   26.1255 C   0  0  0  0  0  0  0  0  0  0  0  0
    6.0873    0.3925   19.6061 C   0  0  0  0  0  0  0  0  0  0  0  0
    7.3299   -0.4744   18.7453 Cl  0  0  0  0  0  0  0  0  0  0  0  0
    4.8736    0.5762   18.9630 C   0  0  0  0  0  0  0  0  0  0  0  0
    3.8819    1.3172   19.5862 C   0  0  0  0  0  0  0  0  0  0  0  0
    4.1068    1.8599   20.8308 C   0  0  0  0  0  0  0  0  0  0  0  0
    5.3164    1.6523   21.4771 C   0  0  0  0  0  0  0  0  0  0  0  0
    6.3343    0.9093   20.8803 C   0  0  0  0  0  0  0  0  0  0  0  0
  1  7  1  0
  1  9  1  0
 21 22  1  0
 21 23  2  0
 21 27  1  0
  2  9  2  0
 23 24  1  0
  3  9  1  0
  3 10  1  0
  3 12  1  0
  4 10  2  0
 24 25  2  0
 11 13  2  0
 11 14  1  0
 25 26  1  0
 26 27  2  0
  5 27  1  6
  5  6  1  0
  5  8  1  0
  7  6  1  6
  7  8  1  0
  7 10  1  0
 12 13  1  0
 12 20  2  0
 14 15  2  0
 15 16  1  0
 15 20  1  0
 16 17  2  0
 17 18  1  0
 18 19  2  0
 19 20  1  0
M  END
>  <minimizedAffinity>  (34) 
-8.98166

>  <CNNscore>  (34) 
0.3930144906

>  <CNNaffinity>  (34) 
6.1110420227

>  <CNN_VS>  (34) 
2.4017281532

>  <CNNaffinity_variance>  (34) 
0.1525208503

$$$$
complex-mers-lig-h_gnina_dock_complex-mers-lig-h_9
     RDKit          3D

 27 31  0  0  0  0  0  0  0  0999 V2000
   11.9873    1.6528   23.4289 N   0  0  0  0  0  0  0  0  0  0  0  0
   13.1083   -0.3424   23.2194 O   0  0  0  0  0  0  0  0  0  0  0  0
   10.7859   -0.1882   23.3161 N   0  0  0  0  0  0  0  0  0  0  0  0
    8.6462    0.7259   23.1393 O   0  0  0  0  0  0  0  0  0  0  0  0
   10.9292    4.0281   24.1241 C   0  0  2  0  0  0  0  0  0  0  0  0
   10.2922    3.4688   22.8263 C   0  0  0  0  0  0  0  0  0  0  0  0
   10.6120    2.1347   23.5490 C   0  0  2  0  0  0  0  0  0  0  0  0
   10.2774    2.8451   24.8846 C   0  0  0  0  0  0  0  0  0  0  0  0
   12.0865    0.3137   23.3343 C   0  0  0  0  0  0  0  0  0  0  0  0
    9.8440    0.8416   23.3196 C   0  0  0  0  0  0  0  0  0  0  0  0
    8.5051   -2.8918   22.5780 N   0  0  0  0  0  0  0  0  0  0  0  0
   10.4622   -1.5872   23.2321 C   0  0  0  0  0  0  0  0  0  0  0  0
    9.4248   -1.9462   22.3739 C   0  0  0  0  0  0  0  0  0  0  0  0
    8.5907   -3.5830   23.6959 C   0  0  0  0  0  0  0  0  0  0  0  0
    9.6082   -3.3969   24.6589 C   0  0  0  0  0  0  0  0  0  0  0  0
    9.7090   -4.1824   25.8339 C   0  0  0  0  0  0  0  0  0  0  0  0
   10.7311   -3.9833   26.7161 C   0  0  0  0  0  0  0  0  0  0  0  0
   11.6859   -3.0065   26.4836 C   0  0  0  0  0  0  0  0  0  0  0  0
   11.6221   -2.2202   25.3689 C   0  0  0  0  0  0  0  0  0  0  0  0
   10.5830   -2.3842   24.4166 C   0  0  0  0  0  0  0  0  0  0  0  0
   10.8482    6.5471   23.6869 C   0  0  0  0  0  0  0  0  0  0  0  0
   11.3760    6.2961   22.0453 Cl  0  0  0  0  0  0  0  0  0  0  0  0
   10.5830    7.8490   24.0810 C   0  0  0  0  0  0  0  0  0  0  0  0
   10.2250    8.0992   25.3964 C   0  0  0  0  0  0  0  0  0  0  0  0
   10.1342    7.0606   26.2950 C   0  0  0  0  0  0  0  0  0  0  0  0
   10.3796    5.7579   25.8868 C   0  0  0  0  0  0  0  0  0  0  0  0
   10.7388    5.4706   24.5705 C   0  0  0  0  0  0  0  0  0  0  0  0
  1  7  1  0
  1  9  1  0
 21 22  1  0
 21 23  2  0
 21 27  1  0
  2  9  2  0
 23 24  1  0
  3  9  1  0
  3 10  1  0
  3 12  1  0
  4 10  2  0
 24 25  2  0
 11 13  2  0
 11 14  1  0
 25 26  1  0
 26 27  2  0
  5 27  1  1
  5  6  1  0
  5  8  1  0
  7  6  1  6
  7  8  1  0
  7 10  1  0
 12 13  1  0
 12 20  2  0
 14 15  2  0
 15 16  1  0
 15 20  1  0
 16 17  2  0
 17 18  1  0
 18 19  2  0
 19 20  1  0
M  END
>  <minimizedAffinity>  (35) 
-8.41866

>  <CNNscore>  (35) 
0.5628795028

>  <CNNaffinity>  (35) 
6.1524448395

>  <CNN_VS>  (35) 
3.4630851746

>  <CNNaffinity_variance>  (35) 
0.1324375570

$$$$
complex-mers-lig-h_gnina_dock_complex-mers-lig-h_16
     RDKit          3D

 27 31  0  0  0  0  0  0  0  0999 V2000
   10.0189    0.8611   22.8447 N   0  0  0  0  0  0  0  0  0  0  0  0
   11.8751    1.3994   24.0881 O   0  0  0  0  0  0  0  0  0  0  0  0
   10.7911   -0.6570   24.2392 N   0  0  0  0  0  0  0  0  0  0  0  0
    9.4751   -2.4848   23.6288 O   0  0  0  0  0  0  0  0  0  0  0  0
    7.6247    0.6288   21.6368 C   0  0  2  0  0  0  0  0  0  0  0  0
    8.5850   -0.5227   21.2437 C   0  0  0  0  0  0  0  0  0  0  0  0
    9.0862   -0.2539   22.6862 C   0  0  2  0  0  0  0  0  0  0  0  0
    7.6190    0.0544   23.0765 C   0  0  0  0  0  0  0  0  0  0  0  0
   10.9751    0.6416   23.7664 C   0  0  0  0  0  0  0  0  0  0  0  0
    9.7578   -1.3033   23.5592 C   0  0  0  0  0  0  0  0  0  0  0  0
   13.6672   -2.5868   25.2686 N   0  0  0  0  0  0  0  0  0  0  0  0
   11.6106   -1.2716   25.2490 C   0  0  0  0  0  0  0  0  0  0  0  0
   12.9403   -1.5238   24.9176 C   0  0  0  0  0  0  0  0  0  0  0  0
   13.0839   -3.4899   26.0295 C   0  0  0  0  0  0  0  0  0  0  0  0
   11.7595   -3.3761   26.5094 C   0  0  0  0  0  0  0  0  0  0  0  0
   11.1655   -4.3370   27.3649 C   0  0  0  0  0  0  0  0  0  0  0  0
    9.8931   -4.1626   27.8267 C   0  0  0  0  0  0  0  0  0  0  0  0
    9.1558   -3.0468   27.4641 C   0  0  0  0  0  0  0  0  0  0  0  0
    9.6854   -2.1006   26.6341 C   0  0  0  0  0  0  0  0  0  0  0  0
   11.0039   -2.2289   26.1255 C   0  0  0  0  0  0  0  0  0  0  0  0
    6.0873    0.3925   19.6061 C   0  0  0  0  0  0  0  0  0  0  0  0
    7.3299   -0.4744   18.7453 Cl  0  0  0  0  0  0  0  0  0  0  0  0
    4.8736    0.5762   18.9630 C   0  0  0  0  0  0  0  0  0  0  0  0
    3.8819    1.3172   19.5862 C   0  0  0  0  0  0  0  0  0  0  0  0
    4.1068    1.8599   20.8308 C   0  0  0  0  0  0  0  0  0  0  0  0
    5.3164    1.6523   21.4771 C   0  0  0  0  0  0  0  0  0  0  0  0
    6.3343    0.9093   20.8803 C   0  0  0  0  0  0  0  0  0  0  0  0
  1  7  1  0
  1  9  1  0
 21 22  1  0
 21 23  2  0
 21 27  1  0
  2  9  2  0
 23 24  1  0
  3  9  1  0
  3 10  1  0
  3 12  1  0
  4 10  2  0
 24 25  2  0
 11 13  2  0
 11 14  1  0
 25 26  1  0
 26 27  2  0
  5 27  1  6
  5  6  1  0
  5  8  1  0
  7  6  1  6
  7  8  1  0
  7 10  1  0
 12 13  1  0
 12 20  2  0
 14 15  2  0
 15 16  1  0
 15 20  1  0
 16 17  2  0
 17 18  1  0
 18 19  2  0
 19 20  1  0
M  END
>  <minimizedAffinity>  (36) 
-8.98166

>  <CNNscore>  (36) 
0.3930144906

>  <CNNaffinity>  (36) 
6.1110420227

>  <CNN_VS>  (36) 
2.4017281532

>  <CNNaffinity_variance>  (36) 
0.1525208503

$$$$
complex-mers-lig-h_gnina_dock_complex-mers-lig-h_24
     RDKit          3D

 27 31  0  0  0  0  0  0  0  0999 V2000
   10.1058    0.6862   22.7696 N   0  0  0  0  0  0  0  0  0  0  0  0
   11.7854    1.3285   24.2007 O   0  0  0  0  0  0  0  0  0  0  0  0
   10.8523   -0.8060   24.2054 N   0  0  0  0  0  0  0  0  0  0  0  0
    9.7459   -2.7102   23.4339 O   0  0  0  0  0  0  0  0  0  0  0  0
    7.8655    0.3080   21.3263 C   0  0  2  0  0  0  0  0  0  0  0  0
    8.9448   -0.7583   21.0090 C   0  0  0  0  0  0  0  0  0  0  0  0
    9.2810   -0.4905   22.4988 C   0  0  2  0  0  0  0  0  0  0  0  0
    7.7635   -0.3025   22.7475 C   0  0  0  0  0  0  0  0  0  0  0  0
   10.9816    0.5145   23.7774 C   0  0  0  0  0  0  0  0  0  0  0  0
    9.9427   -1.5095   23.4145 C   0  0  0  0  0  0  0  0  0  0  0  0
   13.6543   -2.7131   25.4577 N   0  0  0  0  0  0  0  0  0  0  0  0
   11.6142   -1.3840   25.2799 C   0  0  0  0  0  0  0  0  0  0  0  0
   12.9563   -1.6602   25.0268 C   0  0  0  0  0  0  0  0  0  0  0  0
   13.0247   -3.5790   26.2250 C   0  0  0  0  0  0  0  0  0  0  0  0
   11.6792   -3.4350   26.6324 C   0  0  0  0  0  0  0  0  0  0  0  0
   11.0337   -4.3546   27.4960 C   0  0  0  0  0  0  0  0  0  0  0  0
    9.7416   -4.1511   27.8853 C   0  0  0  0  0  0  0  0  0  0  0  0
    9.0343   -3.0459   27.4401 C   0  0  0  0  0  0  0  0  0  0  0  0
    9.6140   -2.1394   26.5993 C   0  0  0  0  0  0  0  0  0  0  0  0
   10.9550   -2.2990   26.1636 C   0  0  0  0  0  0  0  0  0  0  0  0
    5.5761    1.3364   20.8319 C   0  0  0  0  0  0  0  0  0  0  0  0
    5.5357    2.0513   22.4205 Cl  0  0  0  0  0  0  0  0  0  0  0  0
    4.5047    1.5886   19.9900 C   0  0  0  0  0  0  0  0  0  0  0  0
    4.4663    0.9853   18.7428 C   0  0  0  0  0  0  0  0  0  0  0  0
    5.4856    0.1476   18.3512 C   0  0  0  0  0  0  0  0  0  0  0  0
    6.5653   -0.0818   19.1912 C   0  0  0  0  0  0  0  0  0  0  0  0
    6.6372    0.5114   20.4510 C   0  0  0  0  0  0  0  0  0  0  0  0
  1  7  1  0
  1  9  1  0
 21 22  1  0
 21 23  2  0
 21 27  1  0
  2  9  2  0
 23 24  1  0
  3  9  1  0
  3 10  1  0
  3 12  1  0
  4 10  2  0
 24 25  2  0
 11 13  2  0
 11 14  1  0
 25 26  1  0
 26 27  2  0
  5 27  1  6
  5  6  1  0
  5  8  1  0
  7  6  1  6
  7  8  1  0
  7 10  1  0
 12 13  1  0
 12 20  2  0
 14 15  2  0
 15 16  1  0
 15 20  1  0
 16 17  2  0
 17 18  1  0
 18 19  2  0
 19 20  1  0
M  END
>  <minimizedAffinity>  (37) 
-9.01827

>  <CNNscore>  (37) 
0.2725577652

>  <CNNaffinity>  (37) 
5.9771065712

>  <CNN_VS>  (37) 
1.6291067600

>  <CNNaffinity_variance>  (37) 
0.1126622558

$$$$
complex-mers-lig-h_gnina_dock_complex-mers-lig-h_22
     RDKit          3D

 27 31  0  0  0  0  0  0  0  0999 V2000
    9.3975    2.1724   24.5616 N   0  0  0  0  0  0  0  0  0  0  0  0
    8.1336    0.3399   25.1326 O   0  0  0  0  0  0  0  0  0  0  0  0
   10.0528    0.2066   23.8189 N   0  0  0  0  0  0  0  0  0  0  0  0
   12.1250    0.7785   22.9112 O   0  0  0  0  0  0  0  0  0  0  0  0
   10.4453    4.4810   23.6575 C   0  0  2  0  0  0  0  0  0  0  0  0
   11.5130    3.5905   24.3428 C   0  0  0  0  0  0  0  0  0  0  0  0
   10.5875    2.4853   23.7715 C   0  0  2  0  0  0  0  0  0  0  0  0
   10.3430    3.4035   22.5479 C   0  0  0  0  0  0  0  0  0  0  0  0
    9.0700    0.8668   24.5550 C   0  0  0  0  0  0  0  0  0  0  0  0
   11.0609    1.0838   23.4164 C   0  0  0  0  0  0  0  0  0  0  0  0
    8.3763   -2.9001   23.0483 N   0  0  0  0  0  0  0  0  0  0  0  0
   10.0591   -1.2101   23.5700 C   0  0  0  0  0  0  0  0  0  0  0  0
    8.9870   -1.7304   22.8477 C   0  0  0  0  0  0  0  0  0  0  0  0
    8.8428   -3.6645   24.0142 C   0  0  0  0  0  0  0  0  0  0  0  0
    9.9575   -3.3269   24.8146 C   0  0  0  0  0  0  0  0  0  0  0  0
   10.4722   -4.1841   25.8188 C   0  0  0  0  0  0  0  0  0  0  0  0
   11.5721   -3.8238   26.5418 C   0  0  0  0  0  0  0  0  0  0  0  0
   12.2033   -2.6117   26.3126 C   0  0  0  0  0  0  0  0  0  0  0  0
   11.7356   -1.7508   25.3613 C   0  0  0  0  0  0  0  0  0  0  0  0
   10.5972   -2.0741   24.5783 C   0  0  0  0  0  0  0  0  0  0  0  0
   10.2158    6.9829   24.1380 C   0  0  0  0  0  0  0  0  0  0  0  0
    9.1626    6.6448   25.4844 Cl  0  0  0  0  0  0  0  0  0  0  0  0
   10.5233    8.3102   23.8846 C   0  0  0  0  0  0  0  0  0  0  0  0
   11.3036    8.6269   22.7838 C   0  0  0  0  0  0  0  0  0  0  0  0
   11.7659    7.6284   21.9571 C   0  0  0  0  0  0  0  0  0  0  0  0
   11.4722    6.3006   22.2306 C   0  0  0  0  0  0  0  0  0  0  0  0
   10.6926    5.9469   23.3313 C   0  0  0  0  0  0  0  0  0  0  0  0
  1  7  1  0
  1  9  1  0
 21 22  1  0
 21 23  2  0
 21 27  1  0
  2  9  2  0
 23 24  1  0
  3  9  1  0
  3 10  1  0
  3 12  1  0
  4 10  2  0
 24 25  2  0
 11 13  2  0
 11 14  1  0
 25 26  1  0
 26 27  2  0
  5 27  1  6
  5  6  1  0
  5  8  1  0
  7  6  1  1
  7  8  1  0
  7 10  1  0
 12 13  1  0
 12 20  2  0
 14 15  2  0
 15 16  1  0
 15 20  1  0
 16 17  2  0
 17 18  1  0
 18 19  2  0
 19 20  1  0
M  END
>  <minimizedAffinity>  (38) 
-8.11732

>  <CNNscore>  (38) 
0.3162749112

>  <CNNaffinity>  (38) 
5.9171233177

>  <CNN_VS>  (38) 
1.8714376688

>  <CNNaffinity_variance>  (38) 
0.1147496104

$$$$
complex-mers-lig-h_gnina_dock_complex-mers-lig-h_24
     RDKit          3D

 27 31  0  0  0  0  0  0  0  0999 V2000
   10.1058    0.6862   22.7696 N   0  0  0  0  0  0  0  0  0  0  0  0
   11.7854    1.3285   24.2007 O   0  0  0  0  0  0  0  0  0  0  0  0
   10.8523   -0.8060   24.2054 N   0  0  0  0  0  0  0  0  0  0  0  0
    9.7459   -2.7102   23.4339 O   0  0  0  0  0  0  0  0  0  0  0  0
    7.8655    0.3080   21.3263 C   0  0  2  0  0  0  0  0  0  0  0  0
    8.9448   -0.7583   21.0090 C   0  0  0  0  0  0  0  0  0  0  0  0
    9.2810   -0.4905   22.4988 C   0  0  2  0  0  0  0  0  0  0  0  0
    7.7635   -0.3025   22.7475 C   0  0  0  0  0  0  0  0  0  0  0  0
   10.9816    0.5145   23.7774 C   0  0  0  0  0  0  0  0  0  0  0  0
    9.9427   -1.5095   23.4145 C   0  0  0  0  0  0  0  0  0  0  0  0
   13.6543   -2.7131   25.4577 N   0  0  0  0  0  0  0  0  0  0  0  0
   11.6142   -1.3840   25.2799 C   0  0  0  0  0  0  0  0  0  0  0  0
   12.9563   -1.6602   25.0268 C   0  0  0  0  0  0  0  0  0  0  0  0
   13.0247   -3.5790   26.2250 C   0  0  0  0  0  0  0  0  0  0  0  0
   11.6792   -3.4350   26.6324 C   0  0  0  0  0  0  0  0  0  0  0  0
   11.0337   -4.3546   27.4960 C   0  0  0  0  0  0  0  0  0  0  0  0
    9.7416   -4.1511   27.8853 C   0  0  0  0  0  0  0  0  0  0  0  0
    9.0343   -3.0459   27.4401 C   0  0  0  0  0  0  0  0  0  0  0  0
    9.6140   -2.1394   26.5993 C   0  0  0  0  0  0  0  0  0  0  0  0
   10.9550   -2.2990   26.1636 C   0  0  0  0  0  0  0  0  0  0  0  0
    5.5761    1.3364   20.8319 C   0  0  0  0  0  0  0  0  0  0  0  0
    5.5357    2.0513   22.4205 Cl  0  0  0  0  0  0  0  0  0  0  0  0
    4.5047    1.5886   19.9900 C   0  0  0  0  0  0  0  0  0  0  0  0
    4.4663    0.9853   18.7428 C   0  0  0  0  0  0  0  0  0  0  0  0
    5.4856    0.1476   18.3512 C   0  0  0  0  0  0  0  0  0  0  0  0
    6.5653   -0.0818   19.1912 C   0  0  0  0  0  0  0  0  0  0  0  0
    6.6372    0.5114   20.4510 C   0  0  0  0  0  0  0  0  0  0  0  0
  1  7  1  0
  1  9  1  0
 21 22  1  0
 21 23  2  0
 21 27  1  0
  2  9  2  0
 23 24  1  0
  3  9  1  0
  3 10  1  0
  3 12  1  0
  4 10  2  0
 24 25  2  0
 11 13  2  0
 11 14  1  0
 25 26  1  0
 26 27  2  0
  5 27  1  6
  5  6  1  0
  5  8  1  0
  7  6  1  6
  7  8  1  0
  7 10  1  0
 12 13  1  0
 12 20  2  0
 14 15  2  0
 15 16  1  0
 15 20  1  0
 16 17  2  0
 17 18  1  0
 18 19  2  0
 19 20  1  0
M  END
>  <minimizedAffinity>  (39) 
-9.01827

>  <CNNscore>  (39) 
0.2725577652

>  <CNNaffinity>  (39) 
5.9771065712

>  <CNN_VS>  (39) 
1.6291067600

>  <CNNaffinity_variance>  (39) 
0.1126622558

$$$$
complex-mers-lig-h_gnina_dock_complex-mers-lig-h_24
     RDKit          3D

 27 31  0  0  0  0  0  0  0  0999 V2000
   10.1058    0.6862   22.7696 N   0  0  0  0  0  0  0  0  0  0  0  0
   11.7854    1.3285   24.2007 O   0  0  0  0  0  0  0  0  0  0  0  0
   10.8523   -0.8060   24.2054 N   0  0  0  0  0  0  0  0  0  0  0  0
    9.7459   -2.7102   23.4339 O   0  0  0  0  0  0  0  0  0  0  0  0
    7.8655    0.3080   21.3263 C   0  0  2  0  0  0  0  0  0  0  0  0
    8.9448   -0.7583   21.0090 C   0  0  0  0  0  0  0  0  0  0  0  0
    9.2810   -0.4905   22.4988 C   0  0  2  0  0  0  0  0  0  0  0  0
    7.7635   -0.3025   22.7475 C   0  0  0  0  0  0  0  0  0  0  0  0
   10.9816    0.5145   23.7774 C   0  0  0  0  0  0  0  0  0  0  0  0
    9.9427   -1.5095   23.4145 C   0  0  0  0  0  0  0  0  0  0  0  0
   13.6543   -2.7131   25.4577 N   0  0  0  0  0  0  0  0  0  0  0  0
   11.6142   -1.3840   25.2799 C   0  0  0  0  0  0  0  0  0  0  0  0
   12.9563   -1.6602   25.0268 C   0  0  0  0  0  0  0  0  0  0  0  0
   13.0247   -3.5790   26.2250 C   0  0  0  0  0  0  0  0  0  0  0  0
   11.6792   -3.4350   26.6324 C   0  0  0  0  0  0  0  0  0  0  0  0
   11.0337   -4.3546   27.4960 C   0  0  0  0  0  0  0  0  0  0  0  0
    9.7416   -4.1511   27.8853 C   0  0  0  0  0  0  0  0  0  0  0  0
    9.0343   -3.0459   27.4401 C   0  0  0  0  0  0  0  0  0  0  0  0
    9.6140   -2.1394   26.5993 C   0  0  0  0  0  0  0  0  0  0  0  0
   10.9550   -2.2990   26.1636 C   0  0  0  0  0  0  0  0  0  0  0  0
    5.5761    1.3364   20.8319 C   0  0  0  0  0  0  0  0  0  0  0  0
    5.5357    2.0513   22.4205 Cl  0  0  0  0  0  0  0  0  0  0  0  0
    4.5047    1.5886   19.9900 C   0  0  0  0  0  0  0  0  0  0  0  0
    4.4663    0.9853   18.7428 C   0  0  0  0  0  0  0  0  0  0  0  0
    5.4856    0.1476   18.3512 C   0  0  0  0  0  0  0  0  0  0  0  0
    6.5653   -0.0818   19.1912 C   0  0  0  0  0  0  0  0  0  0  0  0
    6.6372    0.5114   20.4510 C   0  0  0  0  0  0  0  0  0  0  0  0
  1  7  1  0
  1  9  1  0
 21 22  1  0
 21 23  2  0
 21 27  1  0
  2  9  2  0
 23 24  1  0
  3  9  1  0
  3 10  1  0
  3 12  1  0
  4 10  2  0
 24 25  2  0
 11 13  2  0
 11 14  1  0
 25 26  1  0
 26 27  2  0
  5 27  1  6
  5  6  1  0
  5  8  1  0
  7  6  1  6
  7  8  1  0
  7 10  1  0
 12 13  1  0
 12 20  2  0
 14 15  2  0
 15 16  1  0
 15 20  1  0
 16 17  2  0
 17 18  1  0
 18 19  2  0
 19 20  1  0
M  END
>  <minimizedAffinity>  (40) 
-9.01827

>  <CNNscore>  (40) 
0.2725577652

>  <CNNaffinity>  (40) 
5.9771065712

>  <CNN_VS>  (40) 
1.6291067600

>  <CNNaffinity_variance>  (40) 
0.1126622558

$$$$
