
     RDKit          3D

 54 57  0  0  0  0  0  0  0  0999 V2000
    5.9163   -3.3046   25.2965 C   0  0  0  0  0  0  0  0  0  0  0  0
    6.3909   -2.3477   24.3594 O   0  0  0  0  0  0  0  0  0  0  0  0
    6.0672   -1.0340   24.5773 C   0  0  0  0  0  0  0  0  0  0  0  0
    4.8151   -0.6854   25.0788 C   0  0  0  0  0  0  0  0  0  0  0  0
    4.4727    0.6496   25.2389 C   0  0  0  0  0  0  0  0  0  0  0  0
    5.3802    1.6414   24.8851 C   0  0  0  0  0  0  0  0  0  0  0  0
    6.6432    1.2814   24.4134 C   0  0  0  0  0  0  0  0  0  0  0  0
    7.0319   -0.0519   24.2766 C   0  0  0  0  0  0  0  0  0  0  0  0
    8.4982   -0.4695   24.0828 C   0  0  2  0  0  0  0  0  0  0  0  0
    9.4013    0.4057   24.9760 C   0  0  0  0  0  0  0  0  0  0  0  0
   10.0552    1.5294   24.1670 C   0  0  1  0  0  0  0  0  0  0  0  0
   10.6525    2.5393   25.1187 C   0  0  0  0  0  0  0  0  0  0  0  0
   11.1077    0.8486   23.2856 C   0  0  0  0  0  0  0  0  0  0  0  0
   10.5633   -0.5048   22.8090 C   0  0  0  0  0  0  0  0  0  0  0  0
    9.0975   -0.4691   22.7298 N   0  0  0  0  0  0  0  0  0  0  0  0
    8.5796   -0.1343   21.4873 C   0  0  0  0  0  0  0  0  0  0  0  0
    9.2294    0.5350   20.7040 O   0  0  0  0  0  0  0  0  0  0  0  0
    7.2703   -0.7914   21.0365 C   0  0  0  0  0  0  0  0  0  0  0  0
    6.5611   -0.0081   19.9677 C   0  0  0  0  0  0  0  0  0  0  0  0
    7.0251   -0.0493   18.6753 C   0  0  0  0  0  0  0  0  0  0  0  0
    6.4578    0.5799   17.6127 N   0  0  0  0  0  0  0  0  0  0  0  0
    5.3982    1.3190   17.8599 C   0  0  0  0  0  0  0  0  0  0  0  0
    4.8322    1.4912   19.1559 C   0  0  0  0  0  0  0  0  0  0  0  0
    3.6977    2.3107   19.3948 C   0  0  0  0  0  0  0  0  0  0  0  0
    3.1812    2.4438   20.6545 C   0  0  0  0  0  0  0  0  0  0  0  0
    3.7668    1.7519   21.7386 C   0  0  0  0  0  0  0  0  0  0  0  0
    4.8544    0.9445   21.5339 C   0  0  0  0  0  0  0  0  0  0  0  0
    5.4220    0.7979   20.2411 C   0  0  0  0  0  0  0  0  0  0  0  0
    6.5721   -4.1709   25.1938 H   0  0  0  0  0  0  0  0  0  0  0  0
    6.0111   -2.9410   26.3273 H   0  0  0  0  0  0  0  0  0  0  0  0
    4.8717   -3.6064   25.1130 H   0  0  0  0  0  0  0  0  0  0  0  0
    4.1165   -1.4680   25.3534 H   0  0  0  0  0  0  0  0  0  0  0  0
    3.4991    0.9020   25.6494 H   0  0  0  0  0  0  0  0  0  0  0  0
    5.1192    2.6911   24.9981 H   0  0  0  0  0  0  0  0  0  0  0  0
    7.3502    2.0811   24.2024 H   0  0  0  0  0  0  0  0  0  0  0  0
    8.5609   -1.4956   24.4580 H   0  0  0  0  0  0  0  0  0  0  0  0
   10.1970   -0.2107   25.4223 H   0  0  0  0  0  0  0  0  0  0  0  0
    8.8321    0.8123   25.8151 H   0  0  0  0  0  0  0  0  0  0  0  0
    9.3091    2.0121   23.5240 H   0  0  0  0  0  0  0  0  0  0  0  0
   11.2553    3.3190   24.6307 H   0  0  0  0  0  0  0  0  0  0  0  0
    9.8847    3.0381   25.7272 H   0  0  0  0  0  0  0  0  0  0  0  0
   11.2559    1.8974   25.7670 H   0  0  0  0  0  0  0  0  0  0  0  0
   12.0436    0.7025   23.8468 H   0  0  0  0  0  0  0  0  0  0  0  0
   11.3358    1.4838   22.4286 H   0  0  0  0  0  0  0  0  0  0  0  0
   10.8313   -1.3085   23.5101 H   0  0  0  0  0  0  0  0  0  0  0  0
   10.9671   -0.7686   21.8306 H   0  0  0  0  0  0  0  0  0  0  0  0
    6.6533   -1.0411   21.9020 H   0  0  0  0  0  0  0  0  0  0  0  0
    7.5769   -1.7545   20.5905 H   0  0  0  0  0  0  0  0  0  0  0  0
    7.9315   -0.6087   18.4443 H   0  0  0  0  0  0  0  0  0  0  0  0
    4.9317    1.8175   17.0080 H   0  0  0  0  0  0  0  0  0  0  0  0
    3.2410    2.8206   18.5497 H   0  0  0  0  0  0  0  0  0  0  0  0
    2.3260    3.0898   20.8346 H   0  0  0  0  0  0  0  0  0  0  0  0
    3.3815    1.8695   22.7496 H   0  0  0  0  0  0  0  0  0  0  0  0
    5.3051    0.4492   22.3847 H   0  0  0  0  0  0  0  0  0  0  0  0
  1  2  1  0
  2  3  1  0
  3  4  2  0
  4  5  1  0
  5  6  2  0
  6  7  1  0
  7  8  2  0
  8  9  1  0
  9 10  1  0
 10 11  1  0
 11 12  1  0
 11 13  1  0
 13 14  1  0
 14 15  1  0
 15 16  1  0
 16 17  2  0
 16 18  1  0
 18 19  1  0
 19 20  2  0
 20 21  1  0
 21 22  2  0
 22 23  1  0
 23 24  2  0
 24 25  1  0
 25 26  2  0
 26 27  1  0
 27 28  2  0
  8  3  1  0
 15  9  1  0
 28 19  1  0
 28 23  1  0
  1 29  1  0
  1 30  1  0
  1 31  1  0
  4 32  1  0
  5 33  1  0
  6 34  1  0
  7 35  1  0
  9 36  1  1
 10 37  1  0
 10 38  1  0
 11 39  1  1
 12 40  1  0
 12 41  1  0
 12 42  1  0
 13 43  1  0
 13 44  1  0
 14 45  1  0
 14 46  1  0
 18 47  1  0
 18 48  1  0
 20 49  1  0
 22 50  1  0
 24 51  1  0
 25 52  1  0
 26 53  1  0
 27 54  1  0
M  END
$$$$
