LIG(A-306)
     RDKit          3D

 32 36  0  0  1  0  0  0  0  0999 V2000
    9.0632    1.2368   21.3350 O   0  0  0  0  0  0  0  0  0  0  0  0
    8.6161    0.1548   21.7129 C   0  0  0  0  0  0  0  0  0  0  0  0
    7.5367   -0.4330   21.1504 N   0  0  0  0  0  0  0  0  0  0  0  0
    6.7524    0.0586   20.0887 C   0  0  0  0  0  0  0  0  0  0  0  0
    5.5907    0.8327   20.4038 C   0  0  0  0  0  0  0  0  0  0  0  0
    5.1010    1.0210   21.7236 C   0  0  0  0  0  0  0  0  0  0  0  0
    3.9971    1.7933   21.9592 C   0  0  0  0  0  0  0  0  0  0  0  0
    3.3341    2.4179   20.9111 C   0  0  0  0  0  0  0  0  0  0  0  0
    3.7604    2.2594   19.6227 C   0  0  0  0  0  0  0  0  0  0  0  0
    4.8910    1.4541   19.3314 C   0  0  0  0  0  0  0  0  0  0  0  0
    5.3708    1.2364   18.0145 C   0  0  0  0  0  0  0  0  0  0  0  0
    6.4320    0.4977   17.7213 N   0  0  0  0  0  0  0  0  0  0  0  0
    7.0970   -0.0647   18.7413 C   0  0  0  0  0  0  0  0  0  0  0  0
    9.2138   -0.6085   22.8961 C   0  0  1  0  0  0  0  0  0  0  0  0
   10.6921   -0.2956   22.9753 C   0  0  0  0  0  0  0  0  0  0  0  0
   11.1440    0.8230   23.6860 C   0  0  0  0  0  0  0  0  0  0  0  0
   12.5024    1.1499   23.6835 C   0  0  0  0  0  0  0  0  0  0  0  0
   13.4084    0.3641   22.9943 C   0  0  0  0  0  0  0  0  0  0  0  0
   11.6175   -1.0989   22.3129 C   0  0  0  0  0  0  0  0  0  0  0  0
   12.9550   -0.7540   22.3277 C   0  0  0  0  0  0  0  0  0  0  0  0
   14.0908   -1.7386   21.4472 Cl  0  0  0  0  0  0  0  0  0  0  0  0
    8.5299   -0.1884   24.1963 C   0  0  0  0  0  0  0  0  0  0  0  0
    8.9119    1.1739   24.5818 N   0  0  0  0  0  0  0  0  0  0  0  0
   10.2094    1.6288   24.4913 C   0  0  0  0  0  0  0  0  0  0  0  0
   10.5553    2.6834   24.9930 O   0  0  0  0  0  0  0  0  0  0  0  0
    8.0028    1.7903   25.5319 C   0  0  0  0  0  0  0  0  0  0  0  0
    7.4384    3.1511   25.1511 C   0  0  0  0  0  0  0  0  0  0  0  0
    6.7246    3.7699   25.9389 O   0  0  0  0  0  0  0  0  0  0  0  0
    7.7871    3.6378   23.9521 N   0  0  0  0  0  0  0  0  0  0  0  0
    6.8201    4.0018   22.9160 C   0  0  0  0  0  0  0  0  0  0  0  0
    7.0613    5.2295   22.1220 C   0  0  0  0  0  0  0  0  0  0  0  0
    5.9666    5.1955   23.1256 C   0  0  0  0  0  0  0  0  0  0  0  0
  1  2  2  0
  2  3  1  0
 14  2  1  6
  3  4  1  0
  4  5  1  0
  4 13  2  0
  5  6  2  0
  5 10  1  0
  6  7  1  0
  7  8  2  0
  8  9  1  0
  9 10  2  0
 10 11  1  0
 11 12  2  0
 12 13  1  0
 14 15  1  0
 14 22  1  0
 15 16  1  0
 15 19  2  0
 16 17  2  0
 16 24  1  0
 17 18  1  0
 18 20  2  0
 19 20  1  0
 20 21  1  0
 22 23  1  0
 23 24  1  0
 23 26  1  0
 24 25  2  0
 26 27  1  0
 27 28  2  0
 27 29  1  0
 29 30  1  0
 30 31  1  0
 30 32  1  0
 31 32  1  0
M  END
$$$$
