output/tmp_first_model_5_67.pdb
 OpenBabel07222620423D

 69 74  0  0  1  0  0  0  0  0999 V2000
    6.6420   -7.7300   22.2930 C   0  0  0  0  0  0  0  0  0  0  0  0
    6.1440   -7.3880   23.6400 N   0  3  0  0  0  0  0  0  0  0  0  0
    6.4520   -5.9810   24.0410 C   0  0  0  0  0  0  0  0  0  0  0  0
    5.6180   -4.9360   23.2920 C   0  0  0  0  0  0  0  0  0  0  0  0
    6.0050   -3.5920   23.6750 N   0  0  0  0  0  0  0  0  0  0  0  0
    7.2240   -3.0290   23.1260 C   0  0  0  0  0  0  0  0  0  0  0  0
    7.0390   -1.5410   22.7630 C   0  0  2  0  0  0  0  0  0  0  0  0
    6.1180   -1.3960   21.5290 C   0  0  0  0  0  0  0  0  0  0  0  0
    5.0650   -1.9610   21.3240 O   0  0  0  0  0  0  0  0  0  0  0  0
    6.7070   -0.5130   20.6380 N   0  0  0  0  0  0  0  0  0  0  0  0
    5.9540    0.0690   19.5830 C   0  0  0  0  0  0  0  0  0  0  0  0
    6.2970   -0.1830   18.2800 C   0  0  0  0  0  0  0  0  0  0  0  0
    5.6440    0.3210   17.2040 N   0  0  0  0  0  0  0  0  0  0  0  0
    4.6310    1.1210   17.4350 C   0  0  0  0  0  0  0  0  0  0  0  0
    4.1820    1.4800   18.7380 C   0  0  0  0  0  0  0  0  0  0  0  0
    3.0910    2.3680   18.9280 C   0  0  0  0  0  0  0  0  0  0  0  0
    2.7070    2.7320   20.1880 C   0  0  0  0  0  0  0  0  0  0  0  0
    3.3910    2.2200   21.3150 C   0  0  0  0  0  0  0  0  0  0  0  0
    4.4390    1.3470   21.1620 C   0  0  0  0  0  0  0  0  0  0  0  0
    4.8590    0.9510   19.8570 C   0  0  0  0  0  0  0  0  0  0  0  0
    4.9480    0.9560   22.0440 H   0  0  0  0  0  0  0  0  0  0  0  0
    3.0840    2.5260   22.3090 H   0  0  0  0  0  0  0  0  0  0  0  0
    1.8820    3.4240   20.3330 H   0  0  0  0  0  0  0  0  0  0  0  0
    2.5860    2.7570   18.0480 H   0  0  0  0  0  0  0  0  0  0  0  0
    4.1070    1.5320   16.5700 H   0  0  0  0  0  0  0  0  0  0  0  0
    7.1360   -0.8390   18.0540 H   0  0  0  0  0  0  0  0  0  0  0  0
    7.8750    0.1460   21.1920 C   0  0  0  0  0  0  0  0  0  0  0  0
    8.3420   -0.8570   22.2600 C   0  0  2  0  0  0  0  0  0  0  0  0
    9.4120   -1.7580   21.6360 C   0  0  0  0  0  0  0  0  0  0  0  0
   10.6110   -1.0080   21.6370 O   0  0  0  0  0  0  0  0  0  0  0  0
   11.8160   -1.7430   21.7680 C   0  0  0  0  0  0  0  0  0  0  0  0
   12.3190   -1.5310   23.1520 C   0  0  0  0  0  0  0  0  0  0  0  0
   12.6480   -0.1740   23.3180 F   0  0  0  0  0  0  0  0  0  0  0  0
   13.2870   -2.4620   23.8120 C   0  0  0  0  0  0  0  0  0  0  0  0
   13.0130   -2.3920   23.9150 C   0  0  0  0  0  0  0  0  0  0  0  0
   11.5800   -1.7180   23.8700 H   0  0  0  0  0  0  0  0  0  0  0  0
   13.1060   -2.7270   25.0640 H   0  0  0  0  0  0  0  0  0  0  0  0
   14.8280   -2.3430   23.6230 H   0  0  0  0  0  0  0  0  0  0  0  0
   13.5040   -3.4600   23.1480 H   0  0  0  0  0  0  0  0  0  0  0  0
   11.6280   -2.7870   21.4140 H   0  0  0  0  0  0  0  0  0  0  0  0
   12.4740   -1.2800   21.0100 H   0  0  0  0  0  0  0  0  0  0  0  0
    9.1300   -2.0250   20.6070 H   0  0  0  0  0  0  0  0  0  0  0  0
    9.5250   -2.7020   22.1790 H   0  0  0  0  0  0  0  0  0  0  0  0
    8.8270   -0.3610   23.0980 H   0  0  0  0  0  0  0  0  0  0  0  0
    8.6350    0.3160   20.4290 H   0  0  0  0  0  0  0  0  0  0  0  0
    7.6290    1.1270   21.6210 H   0  0  0  0  0  0  0  0  0  0  0  0
    6.4820   -0.8560   24.0230 C   0  0  0  0  0  0  0  0  0  0  0  0
    6.7050    0.5050   24.2790 C   0  0  0  0  0  0  0  0  0  0  0  0
    6.3100    1.0710   25.4810 C   0  0  0  0  0  0  0  0  0  0  0  0
    6.6410    2.7540   25.7810 Cl  0  0  0  0  0  0  0  0  0  0  0  0
    5.6710    0.3250   26.4670 C   0  0  0  0  0  0  0  0  0  0  0  0
    5.3970   -1.0020   26.2020 C   0  0  0  0  0  0  0  0  0  0  0  0
    5.7820   -1.5860   24.9960 C   0  0  0  0  0  0  0  0  0  0  0  0
    5.4230   -3.0260   24.7710 C   0  0  0  0  0  0  0  0  0  0  0  0
    4.6550   -3.6340   25.5050 O   0  0  0  0  0  0  0  0  0  0  0  0
    4.8790   -1.6270   26.9220 H   0  0  0  0  0  0  0  0  0  0  0  0
    5.3960    0.7850   27.4090 H   0  0  0  0  0  0  0  0  0  0  0  0
    7.2160    1.1490   23.5720 H   0  0  0  0  0  0  0  0  0  0  0  0
    7.4930   -3.6110   22.2420 H   0  0  0  0  0  0  0  0  0  0  0  0
    8.0440   -3.0950   23.8620 H   0  0  0  0  0  0  0  0  0  0  0  0
    4.5530   -5.0410   23.5190 H   0  0  0  0  0  0  0  0  0  0  0  0
    5.7460   -5.0030   22.2010 H   0  0  0  0  0  0  0  0  0  0  0  0
    6.2820   -5.8850   25.1090 H   0  0  0  0  0  0  0  0  0  0  0  0
    7.5130   -5.7980   23.8490 H   0  0  0  0  0  0  0  0  0  0  0  0
    5.1040   -7.4990   23.6490 H   0  0  0  0  0  0  0  0  0  0  0  0
    6.5750   -8.0380   24.3280 H   0  0  0  0  0  0  0  0  0  0  0  0
    5.9380   -7.4250   21.5180 H   0  0  0  0  0  0  0  0  0  0  0  0
    7.5850   -7.2160   22.1080 H   0  0  0  0  0  0  0  0  0  0  0  0
    6.8040   -8.8030   22.2170 H   0  0  0  0  0  0  0  0  0  0  0  0
  1  2  1  0  0  0  0
  1 67  1  0  0  0  0
  1 68  1  0  0  0  0
  1 69  1  0  0  0  0
  2  3  1  0  0  0  0
  2 65  1  0  0  0  0
  2 66  1  0  0  0  0
  3  4  1  0  0  0  0
  3 63  1  0  0  0  0
  3 64  1  0  0  0  0
  4  5  1  0  0  0  0
  4 61  1  0  0  0  0
  4 62  1  0  0  0  0
  5  6  1  0  0  0  0
  5 54  1  0  0  0  0
  6  7  1  0  0  0  0
  6 59  1  0  0  0  0
  6 60  1  0  0  0  0
  7  8  1  6  0  0  0
  7 28  1  0  0  0  0
  7 47  1  0  0  0  0
  8  9  2  0  0  0  0
  8 10  1  0  0  0  0
 10 11  1  0  0  0  0
 10 27  1  0  0  0  0
 11 12  2  0  0  0  0
 11 20  1  0  0  0  0
 12 13  1  0  0  0  0
 12 26  1  0  0  0  0
 13 14  2  0  0  0  0
 14 15  1  0  0  0  0
 14 25  1  0  0  0  0
 15 16  2  0  0  0  0
 15 20  1  0  0  0  0
 16 17  1  0  0  0  0
 16 24  1  0  0  0  0
 17 18  2  0  0  0  0
 17 23  1  0  0  0  0
 18 19  1  0  0  0  0
 18 22  1  0  0  0  0
 19 20  2  0  0  0  0
 19 21  1  0  0  0  0
 27 28  1  0  0  0  0
 27 45  1  0  0  0  0
 27 46  1  0  0  0  0
 28 29  1  0  0  0  0
 28 44  1  1  0  0  0
 29 30  1  0  0  0  0
 29 42  1  0  0  0  0
 29 43  1  0  0  0  0
 30 31  1  0  0  0  0
 31 32  1  0  0  0  0
 31 40  1  0  0  0  0
 31 41  1  0  0  0  0
 32 33  1  0  0  0  0
 32 34  1  0  0  0  0
 32 35  1  0  0  0  0
 34 35  1  0  0  0  0
 34 38  1  0  0  0  0
 34 39  1  0  0  0  0
 35 36  1  0  0  0  0
 35 37  1  0  0  0  0
 47 48  2  0  0  0  0
 47 53  1  0  0  0  0
 48 49  1  0  0  0  0
 48 58  1  0  0  0  0
 49 50  1  0  0  0  0
 49 51  2  0  0  0  0
 51 52  1  0  0  0  0
 51 57  1  0  0  0  0
 52 53  2  0  0  0  0
 52 56  1  0  0  0  0
 53 54  1  0  0  0  0
 54 55  2  0  0  0  0
M  CHG  1   2   1
M  END
>  <MODEL>
       1

$$$$
