output/tmp_first_model_15_51.pdb
 OpenBabel07232601353D

 67 73  0  0  1  0  0  0  0  0999 V2000
    7.9130   -9.4590   23.4550 C   0  0  0  0  0  0  0  0  0  0  0  0
    7.5160   -8.1670   22.8240 C   0  0  0  0  0  0  0  0  0  0  0  0
    8.2090   -7.6360   21.8900 N   0  0  0  0  0  0  0  0  0  0  0  0
    7.6420   -6.4190   21.5790 N   0  0  0  0  0  0  0  0  0  0  0  0
    6.6260   -6.2970   22.3500 C   0  0  0  0  0  0  0  0  0  0  0  0
    5.7370   -5.1010   22.4040 C   0  0  0  0  0  0  0  0  0  0  0  0
    6.2940   -4.0230   23.2030 N   0  0  0  0  0  0  0  0  0  0  0  0
    7.4870   -3.3150   22.7530 C   0  0  0  0  0  0  0  0  0  0  0  0
    7.2860   -1.7800   22.8380 C   0  0  2  0  0  0  0  0  0  0  0  0
    6.2620   -1.4060   21.7460 C   0  0  0  0  0  0  0  0  0  0  0  0
    5.1480   -1.8750   21.6080 O   0  0  0  0  0  0  0  0  0  0  0  0
    6.8300   -0.4780   20.9030 N   0  0  0  0  0  0  0  0  0  0  0  0
    6.1170    0.0670   19.8230 C   0  0  0  0  0  0  0  0  0  0  0  0
    6.4910   -0.2130   18.5330 C   0  0  0  0  0  0  0  0  0  0  0  0
    5.8350    0.2300   17.4400 N   0  0  0  0  0  0  0  0  0  0  0  0
    4.7880    0.9930   17.6330 C   0  0  0  0  0  0  0  0  0  0  0  0
    4.3180    1.3920   18.9160 C   0  0  0  0  0  0  0  0  0  0  0  0
    3.1920    2.2390   19.0640 C   0  0  0  0  0  0  0  0  0  0  0  0
    2.7930    2.6480   20.3060 C   0  0  0  0  0  0  0  0  0  0  0  0
    3.4980    2.2260   21.4560 C   0  0  0  0  0  0  0  0  0  0  0  0
    4.5840    1.3930   21.3410 C   0  0  0  0  0  0  0  0  0  0  0  0
    5.0070    0.9380   20.0580 C   0  0  0  0  0  0  0  0  0  0  0  0
    5.1260    1.0660   22.2270 H   0  0  0  0  0  0  0  0  0  0  0  0
    3.1740    2.5590   22.4360 H   0  0  0  0  0  0  0  0  0  0  0  0
    1.9380    3.3100   20.4120 H   0  0  0  0  0  0  0  0  0  0  0  0
    2.6830    2.5710   18.1640 H   0  0  0  0  0  0  0  0  0  0  0  0
    4.2600    1.3360   16.7450 H   0  0  0  0  0  0  0  0  0  0  0  0
    7.3480   -0.8570   18.3390 H   0  0  0  0  0  0  0  0  0  0  0  0
    8.2750   -0.4630   20.9900 C   0  0  0  0  0  0  0  0  0  0  0  0
    8.5380   -0.9510   22.4200 C   0  0  2  0  0  0  0  0  0  0  0  0
    9.9050   -1.6210   22.5130 C   0  0  0  0  0  0  0  0  0  0  0  0
   10.1560   -2.1280   23.8370 N   0  0  0  0  0  0  0  0  0  0  0  0
   11.3320   -2.6920   24.2050 C   0  0  0  0  0  0  0  0  0  0  0  0
   12.4930   -2.5520   23.4220 C   0  0  0  0  0  0  0  0  0  0  0  0
   13.6670   -2.9540   24.0120 C   0  0  0  0  0  0  0  0  0  0  0  0
   13.7250   -3.5910   25.1910 N   0  0  0  0  0  0  0  0  0  0  0  0
   12.5480   -3.7920   25.7750 C   0  0  0  0  0  0  0  0  0  0  0  0
   11.3560   -3.3550   25.3740 N   0  0  0  0  0  0  0  0  0  0  0  0
   12.5530   -4.3990   26.6820 H   0  0  0  0  0  0  0  0  0  0  0  0
   14.6190   -2.8020   23.4990 H   0  0  0  0  0  0  0  0  0  0  0  0
   12.4880   -2.0990   22.4350 H   0  0  0  0  0  0  0  0  0  0  0  0
    9.4200   -2.1430   24.5250 H   0  0  0  0  0  0  0  0  0  0  0  0
   10.6780   -0.8860   22.2530 H   0  0  0  0  0  0  0  0  0  0  0  0
    9.9780   -2.4170   21.7540 H   0  0  0  0  0  0  0  0  0  0  0  0
    8.5520   -0.0770   23.0730 H   0  0  0  0  0  0  0  0  0  0  0  0
    8.7300   -1.1430   20.2520 H   0  0  0  0  0  0  0  0  0  0  0  0
    8.6560    0.5490   20.8080 H   0  0  0  0  0  0  0  0  0  0  0  0
    6.7490   -1.4340   24.2260 C   0  0  0  0  0  0  0  0  0  0  0  0
    6.7870   -0.1250   24.7330 C   0  0  0  0  0  0  0  0  0  0  0  0
    6.3150    0.1360   26.0090 C   0  0  0  0  0  0  0  0  0  0  0  0
    6.3730    1.7660   26.6250 Cl  0  0  0  0  0  0  0  0  0  0  0  0
    5.8080   -0.8730   26.8280 C   0  0  0  0  0  0  0  0  0  0  0  0
    5.6650   -2.1390   26.2960 C   0  0  0  0  0  0  0  0  0  0  0  0
    6.0820   -2.3990   24.9890 C   0  0  0  0  0  0  0  0  0  0  0  0
    5.6680   -3.6970   24.3760 C   0  0  0  0  0  0  0  0  0  0  0  0
    4.8000   -4.3990   24.8750 O   0  0  0  0  0  0  0  0  0  0  0  0
    5.2080   -2.9390   26.8690 H   0  0  0  0  0  0  0  0  0  0  0  0
    5.5140   -0.6520   27.8490 H   0  0  0  0  0  0  0  0  0  0  0  0
    7.1650    0.7040   24.1430 H   0  0  0  0  0  0  0  0  0  0  0  0
    7.6780   -3.6000   21.7160 H   0  0  0  0  0  0  0  0  0  0  0  0
    8.3620   -3.6180   23.3390 H   0  0  0  0  0  0  0  0  0  0  0  0
    4.7800   -5.3740   22.8480 H   0  0  0  0  0  0  0  0  0  0  0  0
    5.5920   -4.7410   21.3750 H   0  0  0  0  0  0  0  0  0  0  0  0
    6.4480   -7.3820   23.1520 O   0  0  0  0  0  0  0  0  0  0  0  0
    8.7130   -9.3000   24.1860 H   0  0  0  0  0  0  0  0  0  0  0  0
    7.0970   -9.9900   23.9240 H   0  0  0  0  0  0  0  0  0  0  0  0
    8.3490  -10.0640   22.6610 H   0  0  0  0  0  0  0  0  0  0  0  0
  1  2  1  0  0  0  0
  1 65  1  0  0  0  0
  1 66  1  0  0  0  0
  1 67  1  0  0  0  0
  2  3  2  0  0  0  0
  2 64  1  0  0  0  0
  3  4  1  0  0  0  0
  4  5  2  0  0  0  0
  5  6  1  0  0  0  0
  5 64  1  0  0  0  0
  6  7  1  0  0  0  0
  6 62  1  0  0  0  0
  6 63  1  0  0  0  0
  7  8  1  0  0  0  0
  7 55  1  0  0  0  0
  8  9  1  0  0  0  0
  8 60  1  0  0  0  0
  8 61  1  0  0  0  0
  9 10  1  6  0  0  0
  9 30  1  0  0  0  0
  9 48  1  0  0  0  0
 10 11  2  0  0  0  0
 10 12  1  0  0  0  0
 12 13  1  0  0  0  0
 12 29  1  0  0  0  0
 13 14  2  0  0  0  0
 13 22  1  0  0  0  0
 14 15  1  0  0  0  0
 14 28  1  0  0  0  0
 15 16  2  0  0  0  0
 16 17  1  0  0  0  0
 16 27  1  0  0  0  0
 17 18  2  0  0  0  0
 17 22  1  0  0  0  0
 18 19  1  0  0  0  0
 18 26  1  0  0  0  0
 19 20  2  0  0  0  0
 19 25  1  0  0  0  0
 20 21  1  0  0  0  0
 20 24  1  0  0  0  0
 21 22  2  0  0  0  0
 21 23  1  0  0  0  0
 29 30  1  0  0  0  0
 29 46  1  0  0  0  0
 29 47  1  0  0  0  0
 30 31  1  0  0  0  0
 30 45  1  1  0  0  0
 31 32  1  0  0  0  0
 31 43  1  0  0  0  0
 31 44  1  0  0  0  0
 32 33  1  0  0  0  0
 32 42  1  0  0  0  0
 33 34  2  0  0  0  0
 33 38  1  0  0  0  0
 34 35  1  0  0  0  0
 34 41  1  0  0  0  0
 35 36  2  0  0  0  0
 35 40  1  0  0  0  0
 36 37  1  0  0  0  0
 37 38  2  0  0  0  0
 37 39  1  0  0  0  0
 48 49  2  0  0  0  0
 48 54  1  0  0  0  0
 49 50  1  0  0  0  0
 49 59  1  0  0  0  0
 50 51  1  0  0  0  0
 50 52  2  0  0  0  0
 52 53  1  0  0  0  0
 52 58  1  0  0  0  0
 53 54  2  0  0  0  0
 53 57  1  0  0  0  0
 54 55  1  0  0  0  0
 55 56  2  0  0  0  0
M  END
>  <MODEL>
       1

$$$$
