output/tmp_first_model_6_62.pdb
 OpenBabel07222621163D

 70 76  0  0  1  0  0  0  0  0999 V2000
    8.0190   -3.2160   22.9320 C   0  0  0  0  0  0  0  0  0  0  0  0
    8.0080   -2.0670   21.9380 C   0  0  1  0  0  0  0  0  0  0  0  0
    6.6630   -1.8010   21.2540 C   0  0  0  0  0  0  0  0  0  0  0  0
    6.9030   -0.5010   20.6530 N   0  0  0  0  0  0  0  0  0  0  0  0
    6.1550    0.0540   19.5870 C   0  0  0  0  0  0  0  0  0  0  0  0
    6.4910   -0.2390   18.2900 C   0  0  0  0  0  0  0  0  0  0  0  0
    5.8420    0.2440   17.2010 N   0  0  0  0  0  0  0  0  0  0  0  0
    4.8290    1.0490   17.4130 C   0  0  0  0  0  0  0  0  0  0  0  0
    4.3610    1.4200   18.7080 C   0  0  0  0  0  0  0  0  0  0  0  0
    3.2500    2.2830   18.8850 C   0  0  0  0  0  0  0  0  0  0  0  0
    2.8310    2.6280   20.1390 C   0  0  0  0  0  0  0  0  0  0  0  0
    3.5080    2.1330   21.2770 C   0  0  0  0  0  0  0  0  0  0  0  0
    4.5870    1.2960   21.1320 C   0  0  0  0  0  0  0  0  0  0  0  0
    5.0410    0.9180   19.8390 C   0  0  0  0  0  0  0  0  0  0  0  0
    5.1060    0.9210   22.0090 H   0  0  0  0  0  0  0  0  0  0  0  0
    3.1780    2.4230   22.2690 H   0  0  0  0  0  0  0  0  0  0  0  0
    1.9850    3.2960   20.2750 H   0  0  0  0  0  0  0  0  0  0  0  0
    2.7500    2.6700   18.0010 H   0  0  0  0  0  0  0  0  0  0  0  0
    4.3170    1.4480   16.5380 H   0  0  0  0  0  0  0  0  0  0  0  0
    7.3360   -0.8970   18.0940 H   0  0  0  0  0  0  0  0  0  0  0  0
    7.9810    0.1700   21.2070 C   0  0  0  0  0  0  0  0  0  0  0  0
    8.4200    1.2140   20.7730 O   0  0  0  0  0  0  0  0  0  0  0  0
    8.4300   -0.6470   22.4390 C   0  0  1  0  0  0  0  0  0  0  0  0
    7.6120   -0.1340   23.6430 C   0  0  0  0  0  0  0  0  0  0  0  0
    7.9890   -0.8100   24.8750 N   0  0  0  0  0  0  0  0  0  0  0  0
    6.9570   -0.7720   25.9120 C   0  0  0  0  0  0  0  0  0  0  0  0
    7.0080   -1.8450   27.0100 C   0  0  0  0  0  0  0  0  0  0  0  0
    7.2520   -3.2380   26.4970 N   0  3  2  0  0  0  0  0  0  0  0  0
    6.3450   -4.2940   27.0920 C   0  0  0  0  0  0  0  0  0  0  0  0
    7.2040   -5.0470   28.0950 C   0  0  0  0  0  0  0  0  0  0  0  0
    8.5940   -5.1000   27.4700 C   0  0  0  0  0  0  0  0  0  0  0  0
    9.7870   -5.4100   28.3820 C   0  0  0  0  0  0  0  0  0  0  0  0
   10.5170   -5.9400   27.2650 O   0  0  0  0  0  0  0  0  0  0  0  0
    9.2530   -6.2510   26.6680 C   0  0  0  0  0  0  0  0  0  0  0  0
    8.9490   -7.2430   27.0040 H   0  0  0  0  0  0  0  0  0  0  0  0
    9.2750   -6.1840   25.5770 H   0  0  0  0  0  0  0  0  0  0  0  0
    9.5400   -6.2280   29.0810 H   0  0  0  0  0  0  0  0  0  0  0  0
   10.3160   -4.6220   28.9180 H   0  0  0  0  0  0  0  0  0  0  0  0
    8.6680   -3.8070   26.6300 C   0  0  0  0  0  0  0  0  0  0  0  0
    8.9960   -4.0550   25.6150 H   0  0  0  0  0  0  0  0  0  0  0  0
    9.3420   -3.0400   27.0030 H   0  0  0  0  0  0  0  0  0  0  0  0
    7.2550   -4.4470   29.0100 H   0  0  0  0  0  0  0  0  0  0  0  0
    6.7750   -6.0110   28.3580 H   0  0  0  0  0  0  0  0  0  0  0  0
    6.0000   -4.9280   26.2780 H   0  0  0  0  0  0  0  0  0  0  0  0
    5.4770   -3.8110   27.5450 H   0  0  0  0  0  0  0  0  0  0  0  0
    7.0630   -3.1570   25.4920 H   0  0  0  0  0  0  0  0  0  0  0  0
    6.0220   -1.8330   27.4800 H   0  0  0  0  0  0  0  0  0  0  0  0
    7.7240   -1.5780   27.7770 H   0  0  0  0  0  0  0  0  0  0  0  0
    6.0050   -0.8960   25.3780 H   0  0  0  0  0  0  0  0  0  0  0  0
    6.9310    0.2200   26.3890 H   0  0  0  0  0  0  0  0  0  0  0  0
    9.3180   -0.7690   25.2280 C   0  0  0  0  0  0  0  0  0  0  0  0
    9.7140   -0.8930   26.3750 O   0  0  0  0  0  0  0  0  0  0  0  0
   10.3060   -0.5730   24.1240 C   0  0  0  0  0  0  0  0  0  0  0  0
   11.6510   -0.4390   24.4680 C   0  0  0  0  0  0  0  0  0  0  0  0
   12.5950   -0.2200   23.4880 C   0  0  0  0  0  0  0  0  0  0  0  0
   12.1790   -0.1790   22.1590 C   0  0  0  0  0  0  0  0  0  0  0  0
   13.4250    0.1410   20.9990 Cl  0  0  0  0  0  0  0  0  0  0  0  0
   10.8600   -0.3640   21.7920 C   0  0  0  0  0  0  0  0  0  0  0  0
    9.8920   -0.5230   22.7880 C   0  0  0  0  0  0  0  0  0  0  0  0
   10.5590   -0.3610   20.7490 H   0  0  0  0  0  0  0  0  0  0  0  0
   13.6450   -0.0810   23.7140 H   0  0  0  0  0  0  0  0  0  0  0  0
   11.9440   -0.4950   25.5100 H   0  0  0  0  0  0  0  0  0  0  0  0
    6.5400   -0.2890   23.4720 H   0  0  0  0  0  0  0  0  0  0  0  0
    7.7740    0.9520   23.7180 H   0  0  0  0  0  0  0  0  0  0  0  0
    6.3980   -2.5440   20.4970 H   0  0  0  0  0  0  0  0  0  0  0  0
    5.8420   -1.7690   21.9920 H   0  0  0  0  0  0  0  0  0  0  0  0
    8.7320   -2.2960   21.1440 H   0  0  0  0  0  0  0  0  0  0  0  0
    7.8350   -4.1680   22.4210 H   0  0  0  0  0  0  0  0  0  0  0  0
    8.9880   -3.2780   23.4440 H   0  0  0  0  0  0  0  0  0  0  0  0
    7.2430   -3.0850   23.6930 H   0  0  0  0  0  0  0  0  0  0  0  0
  1  2  1  0  0  0  0
  1 68  1  0  0  0  0
  1 69  1  0  0  0  0
  1 70  1  0  0  0  0
  2  3  1  0  0  0  0
  2 23  1  0  0  0  0
  2 67  1  6  0  0  0
  3  4  1  0  0  0  0
  3 65  1  0  0  0  0
  3 66  1  0  0  0  0
  4  5  1  0  0  0  0
  4 21  1  0  0  0  0
  5  6  2  0  0  0  0
  5 14  1  0  0  0  0
  6  7  1  0  0  0  0
  6 20  1  0  0  0  0
  7  8  2  0  0  0  0
  8  9  1  0  0  0  0
  8 19  1  0  0  0  0
  9 10  2  0  0  0  0
  9 14  1  0  0  0  0
 10 11  1  0  0  0  0
 10 18  1  0  0  0  0
 11 12  2  0  0  0  0
 11 17  1  0  0  0  0
 12 13  1  0  0  0  0
 12 16  1  0  0  0  0
 13 14  2  0  0  0  0
 13 15  1  0  0  0  0
 21 22  2  0  0  0  0
 23 21  1  6  0  0  0
 23 24  1  0  0  0  0
 23 59  1  0  0  0  0
 24 25  1  0  0  0  0
 24 63  1  0  0  0  0
 24 64  1  0  0  0  0
 25 26  1  0  0  0  0
 25 51  1  0  0  0  0
 26 27  1  0  0  0  0
 26 49  1  0  0  0  0
 26 50  1  0  0  0  0
 27 28  1  0  0  0  0
 27 47  1  0  0  0  0
 27 48  1  0  0  0  0
 28 29  1  0  0  0  0
 28 39  1  0  0  0  0
 28 46  1  6  0  0  0
 29 30  1  0  0  0  0
 29 44  1  0  0  0  0
 29 45  1  0  0  0  0
 30 31  1  0  0  0  0
 30 42  1  0  0  0  0
 30 43  1  0  0  0  0
 31 32  1  0  0  0  0
 31 34  1  0  0  0  0
 31 39  1  0  0  0  0
 32 33  1  0  0  0  0
 32 37  1  0  0  0  0
 32 38  1  0  0  0  0
 33 34  1  0  0  0  0
 34 35  1  0  0  0  0
 34 36  1  0  0  0  0
 39 40  1  0  0  0  0
 39 41  1  0  0  0  0
 51 52  2  0  0  0  0
 51 53  1  0  0  0  0
 53 54  2  0  0  0  0
 53 59  1  0  0  0  0
 54 55  1  0  0  0  0
 54 62  1  0  0  0  0
 55 56  2  0  0  0  0
 55 61  1  0  0  0  0
 56 57  1  0  0  0  0
 56 58  1  0  0  0  0
 58 59  2  0  0  0  0
 58 60  1  0  0  0  0
M  CHG  1  28   1
M  END
>  <MODEL>
       1

$$$$
