output/tmp_first_model_14_28.pdb
 OpenBabel07232601073D

 70 75  0  0  1  0  0  0  0  0999 V2000
   12.0720    4.8790   24.5600 C   0  0  0  0  0  0  0  0  0  0  0  0
   11.0150    4.0620   25.1890 N   0  3  0  0  0  0  0  0  0  0  0  0
   10.9090    2.6790   24.6360 C   0  0  0  0  0  0  0  0  0  0  0  0
    9.9450    2.5050   23.4560 C   0  0  0  0  0  0  0  0  0  0  0  0
    9.9110    1.1040   23.0780 N   0  0  0  0  0  0  0  0  0  0  0  0
    8.8380    0.2260   23.4990 C   0  0  0  0  0  0  0  0  0  0  0  0
    8.4580   -0.7840   22.3800 C   0  0  2  0  0  0  0  0  0  0  0  0
    7.9110   -0.0340   21.1480 C   0  0  0  0  0  0  0  0  0  0  0  0
    8.4440    0.8740   20.5440 O   0  0  0  0  0  0  0  0  0  0  0  0
    6.6810   -0.5570   20.8260 N   0  0  0  0  0  0  0  0  0  0  0  0
    5.9610   -0.0050   19.7340 C   0  0  0  0  0  0  0  0  0  0  0  0
    6.3610   -0.2530   18.4450 C   0  0  0  0  0  0  0  0  0  0  0  0
    5.7280    0.2220   17.3420 N   0  0  0  0  0  0  0  0  0  0  0  0
    4.6950    1.0080   17.5310 C   0  0  0  0  0  0  0  0  0  0  0  0
    4.2020    1.3820   18.8140 C   0  0  0  0  0  0  0  0  0  0  0  0
    3.1070    2.2720   18.9670 C   0  0  0  0  0  0  0  0  0  0  0  0
    2.6970    2.6530   20.2150 C   0  0  0  0  0  0  0  0  0  0  0  0
    3.3610    2.1690   21.3640 C   0  0  0  0  0  0  0  0  0  0  0  0
    4.4160    1.2990   21.2430 C   0  0  0  0  0  0  0  0  0  0  0  0
    4.8550    0.8760   19.9580 C   0  0  0  0  0  0  0  0  0  0  0  0
    4.9370    0.9460   22.1280 H   0  0  0  0  0  0  0  0  0  0  0  0
    3.0400    2.4980   22.3470 H   0  0  0  0  0  0  0  0  0  0  0  0
    1.8670    3.3440   20.3310 H   0  0  0  0  0  0  0  0  0  0  0  0
    2.6240    2.6540   18.0730 H   0  0  0  0  0  0  0  0  0  0  0  0
    4.1930    1.3990   16.6460 H   0  0  0  0  0  0  0  0  0  0  0  0
    7.2410   -0.8640   18.2530 H   0  0  0  0  0  0  0  0  0  0  0  0
    6.3030   -1.7240   21.6010 C   0  0  0  0  0  0  0  0  0  0  0  0
    7.3260   -1.7670   22.7640 C   0  0  2  0  0  0  0  0  0  0  0  0
    6.6420   -1.4800   24.1110 C   0  0  0  0  0  0  0  0  0  0  0  0
    5.6170   -2.4110   24.3760 O   0  0  0  0  0  0  0  0  0  0  0  0
    6.0570   -3.5730   25.0410 C   0  0  0  0  0  0  0  0  0  0  0  0
    4.8620   -4.4890   25.1550 C   0  0  0  0  0  0  0  0  0  0  0  0
    4.5430   -4.9970   23.9130 F   0  0  0  0  0  0  0  0  0  0  0  0
    3.7080   -3.8820   25.9520 C   0  0  0  0  0  0  0  0  0  0  0  0
    3.9960   -4.7440   27.0650 O   0  0  0  0  0  0  0  0  0  0  0  0
    4.9120   -5.5190   26.2800 C   0  0  0  0  0  0  0  0  0  0  0  0
    5.8740   -5.6500   26.7880 H   0  0  0  0  0  0  0  0  0  0  0  0
    4.4900   -6.4880   25.9860 H   0  0  0  0  0  0  0  0  0  0  0  0
    3.8220   -2.8240   26.2060 H   0  0  0  0  0  0  0  0  0  0  0  0
    2.7290   -4.0790   25.4990 H   0  0  0  0  0  0  0  0  0  0  0  0
    6.4290   -3.3220   26.0490 H   0  0  0  0  0  0  0  0  0  0  0  0
    6.8710   -4.0810   24.4980 H   0  0  0  0  0  0  0  0  0  0  0  0
    6.1660   -0.4940   24.0870 H   0  0  0  0  0  0  0  0  0  0  0  0
    7.3670   -1.4890   24.9390 H   0  0  0  0  0  0  0  0  0  0  0  0
    7.7650   -2.7670   22.8700 H   0  0  0  0  0  0  0  0  0  0  0  0
    5.2770   -1.6310   21.9750 H   0  0  0  0  0  0  0  0  0  0  0  0
    6.3430   -2.6340   20.9880 H   0  0  0  0  0  0  0  0  0  0  0  0
    9.7220   -1.4960   21.9460 C   0  0  0  0  0  0  0  0  0  0  0  0
    9.6720   -2.7250   21.2720 C   0  0  0  0  0  0  0  0  0  0  0  0
   10.8080   -3.1870   20.6330 C   0  0  0  0  0  0  0  0  0  0  0  0
   10.6810   -4.2540   19.2070 Cl  0  0  0  0  0  0  0  0  0  0  0  0
   12.0380   -2.5650   20.8280 C   0  0  0  0  0  0  0  0  0  0  0  0
   12.0830   -1.3510   21.4770 C   0  0  0  0  0  0  0  0  0  0  0  0
   10.9220   -0.7900   21.9780 C   0  0  0  0  0  0  0  0  0  0  0  0
   11.0070    0.6250   22.4420 C   0  0  0  0  0  0  0  0  0  0  0  0
   11.9980    1.3160   22.2160 O   0  0  0  0  0  0  0  0  0  0  0  0
   12.9720   -0.7340   21.5290 H   0  0  0  0  0  0  0  0  0  0  0  0
   12.9130   -3.0220   20.3870 H   0  0  0  0  0  0  0  0  0  0  0  0
    8.7560   -3.2970   21.1860 H   0  0  0  0  0  0  0  0  0  0  0  0
    7.9830    0.8510   23.7600 H   0  0  0  0  0  0  0  0  0  0  0  0
    9.1390   -0.3460   24.3920 H   0  0  0  0  0  0  0  0  0  0  0  0
    8.9150    2.8070   23.6870 H   0  0  0  0  0  0  0  0  0  0  0  0
   10.2820    3.0720   22.5790 H   0  0  0  0  0  0  0  0  0  0  0  0
   10.5980    2.0170   25.4380 H   0  0  0  0  0  0  0  0  0  0  0  0
   11.8980    2.3630   24.3150 H   0  0  0  0  0  0  0  0  0  0  0  0
   10.0810    4.5160   25.0440 H   0  0  0  0  0  0  0  0  0  0  0  0
   11.1950    4.0120   26.2110 H   0  0  0  0  0  0  0  0  0  0  0  0
   11.7890    5.1790   23.5510 H   0  0  0  0  0  0  0  0  0  0  0  0
   12.2540    5.7680   25.1570 H   0  0  0  0  0  0  0  0  0  0  0  0
   13.0000    4.3070   24.4870 H   0  0  0  0  0  0  0  0  0  0  0  0
  1  2  1  0  0  0  0
  1 68  1  0  0  0  0
  1 69  1  0  0  0  0
  1 70  1  0  0  0  0
  2  3  1  0  0  0  0
  2 66  1  0  0  0  0
  2 67  1  0  0  0  0
  3  4  1  0  0  0  0
  3 64  1  0  0  0  0
  3 65  1  0  0  0  0
  4  5  1  0  0  0  0
  4 62  1  0  0  0  0
  4 63  1  0  0  0  0
  5  6  1  0  0  0  0
  5 55  1  0  0  0  0
  6  7  1  0  0  0  0
  6 60  1  0  0  0  0
  6 61  1  0  0  0  0
  7  8  1  6  0  0  0
  7 28  1  0  0  0  0
  7 48  1  0  0  0  0
  8  9  2  0  0  0  0
  8 10  1  0  0  0  0
 10 11  1  0  0  0  0
 10 27  1  0  0  0  0
 11 12  2  0  0  0  0
 11 20  1  0  0  0  0
 12 13  1  0  0  0  0
 12 26  1  0  0  0  0
 13 14  2  0  0  0  0
 14 15  1  0  0  0  0
 14 25  1  0  0  0  0
 15 16  2  0  0  0  0
 15 20  1  0  0  0  0
 16 17  1  0  0  0  0
 16 24  1  0  0  0  0
 17 18  2  0  0  0  0
 17 23  1  0  0  0  0
 18 19  1  0  0  0  0
 18 22  1  0  0  0  0
 19 20  2  0  0  0  0
 19 21  1  0  0  0  0
 27 28  1  0  0  0  0
 27 46  1  0  0  0  0
 27 47  1  0  0  0  0
 28 29  1  0  0  0  0
 28 45  1  1  0  0  0
 29 30  1  0  0  0  0
 29 43  1  0  0  0  0
 29 44  1  0  0  0  0
 30 31  1  0  0  0  0
 31 32  1  0  0  0  0
 31 41  1  0  0  0  0
 31 42  1  0  0  0  0
 32 33  1  0  0  0  0
 32 34  1  0  0  0  0
 32 36  1  0  0  0  0
 34 35  1  0  0  0  0
 34 39  1  0  0  0  0
 34 40  1  0  0  0  0
 35 36  1  0  0  0  0
 36 37  1  0  0  0  0
 36 38  1  0  0  0  0
 48 49  2  0  0  0  0
 48 54  1  0  0  0  0
 49 50  1  0  0  0  0
 49 59  1  0  0  0  0
 50 51  1  0  0  0  0
 50 52  2  0  0  0  0
 52 53  1  0  0  0  0
 52 58  1  0  0  0  0
 53 54  2  0  0  0  0
 53 57  1  0  0  0  0
 54 55  1  0  0  0  0
 55 56  2  0  0  0  0
M  CHG  1   2   1
M  END
>  <MODEL>
       1

$$$$
