output/tmp_first_model_12_38.pdb
 OpenBabel07232600143D

 72 77  0  0  1  0  0  0  0  0999 V2000
    4.8650   -7.5650   20.1360 C   0  0  0  0  0  0  0  0  0  0  0  0
    5.4710   -6.3180   19.6200 N   0  3  0  0  0  0  0  0  0  0  0  0
    5.6720   -5.2650   20.6670 C   0  0  0  0  0  0  0  0  0  0  0  0
    6.8470   -5.5560   21.6100 C   0  0  0  0  0  0  0  0  0  0  0  0
    7.0090   -4.4780   22.5670 N   0  0  0  0  0  0  0  0  0  0  0  0
    7.9570   -3.4200   22.3130 C   0  0  0  0  0  0  0  0  0  0  0  0
    7.4020   -2.0110   22.6530 C   0  0  2  0  0  0  0  0  0  0  0  0
    6.2710   -1.6350   21.6610 C   0  0  0  0  0  0  0  0  0  0  0  0
    5.1660   -2.1410   21.5980 O   0  0  0  0  0  0  0  0  0  0  0  0
    6.7230   -0.6310   20.8310 N   0  0  0  0  0  0  0  0  0  0  0  0
    5.9680   -0.0620   19.7810 C   0  0  0  0  0  0  0  0  0  0  0  0
    6.3550   -0.2740   18.4820 C   0  0  0  0  0  0  0  0  0  0  0  0
    5.7240    0.2290   17.3970 N   0  0  0  0  0  0  0  0  0  0  0  0
    4.6880    1.0030   17.6030 C   0  0  0  0  0  0  0  0  0  0  0  0
    4.1970    1.3360   18.8980 C   0  0  0  0  0  0  0  0  0  0  0  0
    3.0870    2.2050   19.0670 C   0  0  0  0  0  0  0  0  0  0  0  0
    2.6810    2.5730   20.3190 C   0  0  0  0  0  0  0  0  0  0  0  0
    3.3570    2.0820   21.4590 C   0  0  0  0  0  0  0  0  0  0  0  0
    4.4170    1.2170   21.3230 C   0  0  0  0  0  0  0  0  0  0  0  0
    4.8600    0.8130   20.0320 C   0  0  0  0  0  0  0  0  0  0  0  0
    4.9340    0.8420   22.2010 H   0  0  0  0  0  0  0  0  0  0  0  0
    3.0370    2.3990   22.4470 H   0  0  0  0  0  0  0  0  0  0  0  0
    1.8450    3.2570   20.4440 H   0  0  0  0  0  0  0  0  0  0  0  0
    2.5890    2.5840   18.1770 H   0  0  0  0  0  0  0  0  0  0  0  0
    4.1880    1.4160   16.7260 H   0  0  0  0  0  0  0  0  0  0  0  0
    7.2190   -0.9040   18.2750 H   0  0  0  0  0  0  0  0  0  0  0  0
    8.1480   -0.4020   20.9420 C   0  0  0  0  0  0  0  0  0  0  0  0
    8.4760   -0.9260   22.3530 C   0  0  2  0  0  0  0  0  0  0  0  0
    9.9300   -1.3800   22.4680 C   0  0  0  0  0  0  0  0  0  0  0  0
   10.7920   -0.2790   22.4470 O   0  0  0  0  0  0  0  0  0  0  0  0
   11.3850   -0.0840   23.7080 C   0  0  0  0  0  0  0  0  0  0  0  0
   11.9280    1.2790   23.5830 C   0  0  0  0  0  0  0  0  0  0  0  0
   10.8810    2.1840   23.5310 C   0  0  0  0  0  0  0  0  0  0  0  0
   10.8580    3.9570   23.8930 S   0  0  0  0  0  0  0  0  0  0  0  0
   12.1490    4.5770   24.1550 O   0  0  0  0  0  0  0  0  0  0  0  0
    9.6420    4.3220   24.6100 O   0  0  0  0  0  0  0  0  0  0  0  0
   12.0990    1.2640   23.8870 C   0  0  0  0  0  0  0  0  0  0  0  0
   13.1840    1.0370   24.5880 H   0  0  0  0  0  0  0  0  0  0  0  0
   12.1100    1.3350   25.0990 H   0  0  0  0  0  0  0  0  0  0  0  0
   10.8200    2.0980   22.4480 H   0  0  0  0  0  0  0  0  0  0  0  0
    9.9470    1.7680   23.8870 H   0  0  0  0  0  0  0  0  0  0  0  0
   12.9600    1.7480   22.7910 H   0  0  0  0  0  0  0  0  0  0  0  0
   10.6000   -0.1400   24.4630 H   0  0  0  0  0  0  0  0  0  0  0  0
   12.0920   -0.9040   23.8680 H   0  0  0  0  0  0  0  0  0  0  0  0
   10.1770   -2.0400   21.6260 H   0  0  0  0  0  0  0  0  0  0  0  0
   10.0810   -1.9600   23.3900 H   0  0  0  0  0  0  0  0  0  0  0  0
    8.3320   -0.0960   23.0480 H   0  0  0  0  0  0  0  0  0  0  0  0
    8.3590    0.6630   20.8100 H   0  0  0  0  0  0  0  0  0  0  0  0
    8.7180   -0.9520   20.1800 H   0  0  0  0  0  0  0  0  0  0  0  0
    6.8780   -2.0770   24.0800 C   0  0  0  0  0  0  0  0  0  0  0  0
    6.8080   -0.9480   24.9090 C   0  0  0  0  0  0  0  0  0  0  0  0
    6.2660   -1.0580   26.1790 C   0  0  0  0  0  0  0  0  0  0  0  0
    6.1040    0.3630   27.1740 Cl  0  0  0  0  0  0  0  0  0  0  0  0
    5.8100   -2.2730   26.6840 C   0  0  0  0  0  0  0  0  0  0  0  0
    5.8500   -3.3820   25.8640 C   0  0  0  0  0  0  0  0  0  0  0  0
    6.3540   -3.2840   24.5710 C   0  0  0  0  0  0  0  0  0  0  0  0
    6.2740   -4.5100   23.7110 C   0  0  0  0  0  0  0  0  0  0  0  0
    5.5750   -5.4710   24.0140 O   0  0  0  0  0  0  0  0  0  0  0  0
    5.4820   -4.3460   26.1950 H   0  0  0  0  0  0  0  0  0  0  0  0
    5.4240   -2.3260   27.6960 H   0  0  0  0  0  0  0  0  0  0  0  0
    7.1640    0.0220   24.5810 H   0  0  0  0  0  0  0  0  0  0  0  0
    8.8630   -3.5880   22.9090 H   0  0  0  0  0  0  0  0  0  0  0  0
    8.2350   -3.4410   21.2610 H   0  0  0  0  0  0  0  0  0  0  0  0
    7.7880   -5.6500   21.0530 H   0  0  0  0  0  0  0  0  0  0  0  0
    6.6850   -6.4740   22.1830 H   0  0  0  0  0  0  0  0  0  0  0  0
    4.7640   -5.1920   21.2660 H   0  0  0  0  0  0  0  0  0  0  0  0
    5.8180   -4.3110   20.1670 H   0  0  0  0  0  0  0  0  0  0  0  0
    6.4100   -6.5390   19.2130 H   0  0  0  0  0  0  0  0  0  0  0  0
    4.8540   -5.9630   18.8660 H   0  0  0  0  0  0  0  0  0  0  0  0
    4.0830   -7.3270   20.8580 H   0  0  0  0  0  0  0  0  0  0  0  0
    4.4230   -8.1180   19.3090 H   0  0  0  0  0  0  0  0  0  0  0  0
    5.5910   -8.1920   20.6530 H   0  0  0  0  0  0  0  0  0  0  0  0
  1  2  1  0  0  0  0
  1 70  1  0  0  0  0
  1 71  1  0  0  0  0
  1 72  1  0  0  0  0
  2  3  1  0  0  0  0
  2 68  1  0  0  0  0
  2 69  1  0  0  0  0
  3  4  1  0  0  0  0
  3 66  1  0  0  0  0
  3 67  1  0  0  0  0
  4  5  1  0  0  0  0
  4 64  1  0  0  0  0
  4 65  1  0  0  0  0
  5  6  1  0  0  0  0
  5 57  1  0  0  0  0
  6  7  1  0  0  0  0
  6 62  1  0  0  0  0
  6 63  1  0  0  0  0
  7  8  1  6  0  0  0
  7 28  1  0  0  0  0
  7 50  1  0  0  0  0
  8  9  2  0  0  0  0
  8 10  1  0  0  0  0
 10 11  1  0  0  0  0
 10 27  1  0  0  0  0
 11 12  2  0  0  0  0
 11 20  1  0  0  0  0
 12 13  1  0  0  0  0
 12 26  1  0  0  0  0
 13 14  2  0  0  0  0
 14 15  1  0  0  0  0
 14 25  1  0  0  0  0
 15 16  2  0  0  0  0
 15 20  1  0  0  0  0
 16 17  1  0  0  0  0
 16 24  1  0  0  0  0
 17 18  2  0  0  0  0
 17 23  1  0  0  0  0
 18 19  1  0  0  0  0
 18 22  1  0  0  0  0
 19 20  2  0  0  0  0
 19 21  1  0  0  0  0
 27 28  1  0  0  0  0
 27 48  1  0  0  0  0
 27 49  1  0  0  0  0
 28 29  1  0  0  0  0
 28 47  1  1  0  0  0
 29 30  1  0  0  0  0
 29 45  1  0  0  0  0
 29 46  1  0  0  0  0
 30 31  1  0  0  0  0
 31 32  1  0  0  0  0
 31 43  1  0  0  0  0
 31 44  1  0  0  0  0
 32 33  1  0  0  0  0
 32 37  1  0  0  0  0
 32 42  1  0  0  0  0
 33 34  1  0  0  0  0
 33 40  1  0  0  0  0
 33 41  1  0  0  0  0
 34 35  2  0  0  0  0
 34 36  2  0  0  0  0
 34 37  1  0  0  0  0
 37 38  1  0  0  0  0
 37 39  1  0  0  0  0
 50 51  2  0  0  0  0
 50 56  1  0  0  0  0
 51 52  1  0  0  0  0
 51 61  1  0  0  0  0
 52 53  1  0  0  0  0
 52 54  2  0  0  0  0
 54 55  1  0  0  0  0
 54 60  1  0  0  0  0
 55 56  2  0  0  0  0
 55 59  1  0  0  0  0
 56 57  1  0  0  0  0
 57 58  2  0  0  0  0
M  CHG  1   2   1
M  END
>  <MODEL>
       1

$$$$
