output/tmp_first_model_7_2.pdb
 OpenBabel07222621533D

 56 60  0  0  1  0  0  0  0  0999 V2000
    7.5160   -4.7290   26.7720 C   0  0  0  0  0  0  0  0  0  0  0  0
    7.8030   -3.3060   26.7840 N   0  0  0  0  0  0  0  0  0  0  0  0
    6.8580   -2.4300   26.3620 C   0  0  0  0  0  0  0  0  0  0  0  0
    5.8120   -2.8020   25.8420 O   0  0  0  0  0  0  0  0  0  0  0  0
    7.2480   -0.9550   26.4020 C   0  0  0  0  0  0  0  0  0  0  0  0
    8.1060   -0.6910   25.2550 N   0  0  0  0  0  0  0  0  0  0  0  0
    7.5100   -0.1220   24.0510 C   0  0  0  0  0  0  0  0  0  0  0  0
    8.3230   -0.4550   22.7700 C   0  0  2  0  0  0  0  0  0  0  0  0
    7.6750    0.4000   21.6640 C   0  0  0  0  0  0  0  0  0  0  0  0
    7.7780    1.5980   21.5150 O   0  0  0  0  0  0  0  0  0  0  0  0
    6.8570   -0.4200   20.9090 N   0  0  0  0  0  0  0  0  0  0  0  0
    6.0260    0.0450   19.8590 C   0  0  0  0  0  0  0  0  0  0  0  0
    6.4130   -0.1700   18.5600 C   0  0  0  0  0  0  0  0  0  0  0  0
    5.7450    0.2820   17.4740 N   0  0  0  0  0  0  0  0  0  0  0  0
    4.6450    0.9590   17.6880 C   0  0  0  0  0  0  0  0  0  0  0  0
    4.0820    1.1780   18.9770 C   0  0  0  0  0  0  0  0  0  0  0  0
    2.8510    1.8660   19.1340 C   0  0  0  0  0  0  0  0  0  0  0  0
    2.2700    1.9710   20.3670 C   0  0  0  0  0  0  0  0  0  0  0  0
    2.8970    1.4020   21.5000 C   0  0  0  0  0  0  0  0  0  0  0  0
    4.1100    0.7660   21.3780 C   0  0  0  0  0  0  0  0  0  0  0  0
    4.7560    0.6670   20.1090 C   0  0  0  0  0  0  0  0  0  0  0  0
    4.5990    0.3420   22.2510 H   0  0  0  0  0  0  0  0  0  0  0  0
    2.4300    1.5090   22.4790 H   0  0  0  0  0  0  0  0  0  0  0  0
    1.3350    2.5150   20.4780 H   0  0  0  0  0  0  0  0  0  0  0  0
    2.3770    2.2560   18.2380 H   0  0  0  0  0  0  0  0  0  0  0  0
    4.1380    1.3680   16.8150 H   0  0  0  0  0  0  0  0  0  0  0  0
    7.3530   -0.6810   18.3580 H   0  0  0  0  0  0  0  0  0  0  0  0
    6.8740   -1.8160   21.2700 C   0  0  0  0  0  0  0  0  0  0  0  0
    8.0660   -1.9060   22.2280 C   0  0  2  0  0  0  0  0  0  0  0  0
    7.8440   -2.9230   23.2970 N   0  3  0  0  0  0  0  0  0  0  0  0
    8.6000   -2.8380   23.9990 H   0  0  0  0  0  0  0  0  0  0  0  0
    7.8860   -3.8710   22.8740 H   0  0  0  0  0  0  0  0  0  0  0  0
    6.9180   -2.7860   23.7540 H   0  0  0  0  0  0  0  0  0  0  0  0
    8.9480   -2.2100   21.6620 H   0  0  0  0  0  0  0  0  0  0  0  0
    6.9880   -2.4260   20.3710 H   0  0  0  0  0  0  0  0  0  0  0  0
    5.9330   -2.1250   21.7570 H   0  0  0  0  0  0  0  0  0  0  0  0
    9.8010   -0.1630   23.0480 C   0  0  0  0  0  0  0  0  0  0  0  0
   10.7330    0.1150   22.0340 C   0  0  0  0  0  0  0  0  0  0  0  0
   12.0780    0.3050   22.3430 C   0  0  0  0  0  0  0  0  0  0  0  0
   13.2700    0.6330   21.1170 Cl  0  0  0  0  0  0  0  0  0  0  0  0
   12.5580    0.2190   23.6470 C   0  0  0  0  0  0  0  0  0  0  0  0
   11.6570   -0.0730   24.6420 C   0  0  0  0  0  0  0  0  0  0  0  0
   10.3070   -0.2490   24.3490 C   0  0  0  0  0  0  0  0  0  0  0  0
    9.4420   -0.5670   25.5080 C   0  0  0  0  0  0  0  0  0  0  0  0
    9.9270   -0.7250   26.6220 O   0  0  0  0  0  0  0  0  0  0  0  0
   11.9650   -0.1840   25.6750 H   0  0  0  0  0  0  0  0  0  0  0  0
   13.6110    0.3710   23.8630 H   0  0  0  0  0  0  0  0  0  0  0  0
   10.4100    0.1770   21.0050 H   0  0  0  0  0  0  0  0  0  0  0  0
    6.4810   -0.4990   23.9530 H   0  0  0  0  0  0  0  0  0  0  0  0
    7.4480    0.9720   24.1460 H   0  0  0  0  0  0  0  0  0  0  0  0
    7.8090   -0.7150   27.3060 H   0  0  0  0  0  0  0  0  0  0  0  0
    6.3630   -0.3150   26.3490 H   0  0  0  0  0  0  0  0  0  0  0  0
    8.6820   -2.9690   27.1500 H   0  0  0  0  0  0  0  0  0  0  0  0
    6.7120   -4.9680   27.4770 H   0  0  0  0  0  0  0  0  0  0  0  0
    8.4110   -5.2900   27.0520 H   0  0  0  0  0  0  0  0  0  0  0  0
    7.1970   -5.0390   25.7710 H   0  0  0  0  0  0  0  0  0  0  0  0
  1  2  1  0  0  0  0
  1 54  1  0  0  0  0
  1 55  1  0  0  0  0
  1 56  1  0  0  0  0
  2  3  1  0  0  0  0
  2 53  1  0  0  0  0
  3  4  2  0  0  0  0
  3  5  1  0  0  0  0
  5  6  1  0  0  0  0
  5 51  1  0  0  0  0
  5 52  1  0  0  0  0
  6  7  1  0  0  0  0
  6 44  1  0  0  0  0
  7  8  1  0  0  0  0
  7 49  1  0  0  0  0
  7 50  1  0  0  0  0
  8  9  1  6  0  0  0
  8 29  1  0  0  0  0
  8 37  1  0  0  0  0
  9 10  2  0  0  0  0
  9 11  1  0  0  0  0
 11 12  1  0  0  0  0
 11 28  1  0  0  0  0
 12 13  2  0  0  0  0
 12 21  1  0  0  0  0
 13 14  1  0  0  0  0
 13 27  1  0  0  0  0
 14 15  2  0  0  0  0
 15 16  1  0  0  0  0
 15 26  1  0  0  0  0
 16 17  2  0  0  0  0
 16 21  1  0  0  0  0
 17 18  1  0  0  0  0
 17 25  1  0  0  0  0
 18 19  2  0  0  0  0
 18 24  1  0  0  0  0
 19 20  1  0  0  0  0
 19 23  1  0  0  0  0
 20 21  2  0  0  0  0
 20 22  1  0  0  0  0
 28 29  1  0  0  0  0
 28 35  1  0  0  0  0
 28 36  1  0  0  0  0
 29 30  1  0  0  0  0
 29 34  1  6  0  0  0
 30 31  1  0  0  0  0
 30 32  1  0  0  0  0
 30 33  1  0  0  0  0
 37 38  2  0  0  0  0
 37 43  1  0  0  0  0
 38 39  1  0  0  0  0
 38 48  1  0  0  0  0
 39 40  1  0  0  0  0
 39 41  2  0  0  0  0
 41 42  1  0  0  0  0
 41 47  1  0  0  0  0
 42 43  2  0  0  0  0
 42 46  1  0  0  0  0
 43 44  1  0  0  0  0
 44 45  2  0  0  0  0
M  CHG  1  30   1
M  END
>  <MODEL>
       1

$$$$
