output/tmp_first_model_7_30.pdb
 OpenBabel07222621533D

 66 71  0  0  1  0  0  0  0  0999 V2000
    7.7850   -8.4720   23.1700 C   0  0  0  0  0  0  0  0  0  0  0  0
    6.8440   -7.4440   22.7860 N   0  0  0  0  0  0  0  0  0  0  0  0
    7.1400   -6.6410   21.7280 C   0  0  0  0  0  0  0  0  0  0  0  0
    8.0180   -6.8820   20.9180 O   0  0  0  0  0  0  0  0  0  0  0  0
    6.2720   -5.3780   21.6590 C   0  0  0  0  0  0  0  0  0  0  0  0
    6.6800   -4.3840   22.6360 N   0  0  0  0  0  0  0  0  0  0  0  0
    7.7680   -3.4720   22.3330 C   0  0  0  0  0  0  0  0  0  0  0  0
    7.3910   -2.0180   22.7220 C   0  0  2  0  0  0  0  0  0  0  0  0
    6.2980   -1.5820   21.7240 C   0  0  0  0  0  0  0  0  0  0  0  0
    5.2040   -2.0970   21.6070 O   0  0  0  0  0  0  0  0  0  0  0  0
    6.7920   -0.5670   20.9250 N   0  0  0  0  0  0  0  0  0  0  0  0
    6.0180   -0.0080   19.8790 C   0  0  0  0  0  0  0  0  0  0  0  0
    6.4770   -0.0680   18.5860 C   0  0  0  0  0  0  0  0  0  0  0  0
    5.8230    0.4240   17.5090 N   0  0  0  0  0  0  0  0  0  0  0  0
    4.6490    0.9720   17.7100 C   0  0  0  0  0  0  0  0  0  0  0  0
    4.0400    1.0920   18.9860 C   0  0  0  0  0  0  0  0  0  0  0  0
    2.7740    1.7270   19.1280 C   0  0  0  0  0  0  0  0  0  0  0  0
    2.1920    1.8320   20.3590 C   0  0  0  0  0  0  0  0  0  0  0  0
    2.8500    1.3050   21.4940 C   0  0  0  0  0  0  0  0  0  0  0  0
    4.0730    0.6870   21.3810 C   0  0  0  0  0  0  0  0  0  0  0  0
    4.7220    0.5810   20.1130 C   0  0  0  0  0  0  0  0  0  0  0  0
    4.5260    0.2650   22.2710 H   0  0  0  0  0  0  0  0  0  0  0  0
    2.3780    1.3930   22.4680 H   0  0  0  0  0  0  0  0  0  0  0  0
    1.2360    2.3350   20.4820 H   0  0  0  0  0  0  0  0  0  0  0  0
    2.2890    2.1300   18.2410 H   0  0  0  0  0  0  0  0  0  0  0  0
    4.1080    1.3250   16.8340 H   0  0  0  0  0  0  0  0  0  0  0  0
    7.4100   -0.5900   18.3730 H   0  0  0  0  0  0  0  0  0  0  0  0
    8.2600   -0.5050   21.0000 C   0  0  0  0  0  0  0  0  0  0  0  0
    8.5330   -0.9990   22.4370 C   0  0  2  0  0  0  0  0  0  0  0  0
    9.9310   -1.5590   22.7830 C   0  0  0  0  0  0  0  0  0  0  0  0
   11.0950   -0.5960   22.7570 C   0  0  0  0  0  0  0  0  0  0  0  0
   12.0800   -0.6500   21.7710 C   0  0  0  0  0  0  0  0  0  0  0  0
   13.0980    0.2960   21.7160 C   0  0  0  0  0  0  0  0  0  0  0  0
   13.1670    1.3090   22.6620 C   0  0  0  0  0  0  0  0  0  0  0  0
   12.2220    1.3400   23.6790 C   0  0  0  0  0  0  0  0  0  0  0  0
   11.2270    0.3720   23.7530 C   0  0  0  0  0  0  0  0  0  0  0  0
   10.5130    0.3780   24.5730 H   0  0  0  0  0  0  0  0  0  0  0  0
   12.2420    2.1500   24.3920 H   0  0  0  0  0  0  0  0  0  0  0  0
   13.9440    2.0660   22.5780 H   0  0  0  0  0  0  0  0  0  0  0  0
   13.8350    0.2400   20.9210 H   0  0  0  0  0  0  0  0  0  0  0  0
   12.0660   -1.4530   21.0390 H   0  0  0  0  0  0  0  0  0  0  0  0
    9.8590   -1.9640   23.8040 H   0  0  0  0  0  0  0  0  0  0  0  0
   10.1590   -2.4070   22.1290 H   0  0  0  0  0  0  0  0  0  0  0  0
    8.3480   -0.1320   23.0740 H   0  0  0  0  0  0  0  0  0  0  0  0
    8.5740    0.5260   20.8260 H   0  0  0  0  0  0  0  0  0  0  0  0
    8.7410   -1.1500   20.2450 H   0  0  0  0  0  0  0  0  0  0  0  0
    6.8890   -2.0350   24.1550 C   0  0  0  0  0  0  0  0  0  0  0  0
    6.8670   -0.8660   24.9300 C   0  0  0  0  0  0  0  0  0  0  0  0
    6.4250   -0.9130   26.2380 C   0  0  0  0  0  0  0  0  0  0  0  0
    6.4150    0.5500   27.1860 Cl  0  0  0  0  0  0  0  0  0  0  0  0
    5.9710   -2.0950   26.8200 C   0  0  0  0  0  0  0  0  0  0  0  0
    5.9360   -3.2390   26.0470 C   0  0  0  0  0  0  0  0  0  0  0  0
    6.3620   -3.2070   24.7190 C   0  0  0  0  0  0  0  0  0  0  0  0
    6.1610   -4.4350   23.8900 C   0  0  0  0  0  0  0  0  0  0  0  0
    5.5380   -5.4170   24.3060 O   0  0  0  0  0  0  0  0  0  0  0  0
    5.5540   -4.1720   26.4460 H   0  0  0  0  0  0  0  0  0  0  0  0
    5.6350   -2.0960   27.8520 H   0  0  0  0  0  0  0  0  0  0  0  0
    7.1560    0.0940   24.5160 H   0  0  0  0  0  0  0  0  0  0  0  0
    7.9410   -3.5030   21.2610 H   0  0  0  0  0  0  0  0  0  0  0  0
    8.6820   -3.8090   22.8430 H   0  0  0  0  0  0  0  0  0  0  0  0
    6.3620   -4.9460   20.6590 H   0  0  0  0  0  0  0  0  0  0  0  0
    5.2190   -5.6070   21.8580 H   0  0  0  0  0  0  0  0  0  0  0  0
    6.2640   -7.0300   23.5080 H   0  0  0  0  0  0  0  0  0  0  0  0
    8.7100   -8.0480   23.5830 H   0  0  0  0  0  0  0  0  0  0  0  0
    7.3130   -9.1280   23.9040 H   0  0  0  0  0  0  0  0  0  0  0  0
    8.0600   -9.0680   22.3010 H   0  0  0  0  0  0  0  0  0  0  0  0
  1  2  1  0  0  0  0
  1 64  1  0  0  0  0
  1 65  1  0  0  0  0
  1 66  1  0  0  0  0
  2  3  1  0  0  0  0
  2 63  1  0  0  0  0
  3  4  2  0  0  0  0
  3  5  1  0  0  0  0
  5  6  1  0  0  0  0
  5 61  1  0  0  0  0
  5 62  1  0  0  0  0
  6  7  1  0  0  0  0
  6 54  1  0  0  0  0
  7  8  1  0  0  0  0
  7 59  1  0  0  0  0
  7 60  1  0  0  0  0
  8  9  1  6  0  0  0
  8 29  1  0  0  0  0
  8 47  1  0  0  0  0
  9 10  2  0  0  0  0
  9 11  1  0  0  0  0
 11 12  1  0  0  0  0
 11 28  1  0  0  0  0
 12 13  2  0  0  0  0
 12 21  1  0  0  0  0
 13 14  1  0  0  0  0
 13 27  1  0  0  0  0
 14 15  2  0  0  0  0
 15 16  1  0  0  0  0
 15 26  1  0  0  0  0
 16 17  2  0  0  0  0
 16 21  1  0  0  0  0
 17 18  1  0  0  0  0
 17 25  1  0  0  0  0
 18 19  2  0  0  0  0
 18 24  1  0  0  0  0
 19 20  1  0  0  0  0
 19 23  1  0  0  0  0
 20 21  2  0  0  0  0
 20 22  1  0  0  0  0
 28 29  1  0  0  0  0
 28 45  1  0  0  0  0
 28 46  1  0  0  0  0
 29 30  1  0  0  0  0
 29 44  1  1  0  0  0
 30 31  1  0  0  0  0
 30 42  1  0  0  0  0
 30 43  1  0  0  0  0
 31 32  2  0  0  0  0
 31 36  1  0  0  0  0
 32 33  1  0  0  0  0
 32 41  1  0  0  0  0
 33 34  2  0  0  0  0
 33 40  1  0  0  0  0
 34 35  1  0  0  0  0
 34 39  1  0  0  0  0
 35 36  2  0  0  0  0
 35 38  1  0  0  0  0
 36 37  1  0  0  0  0
 47 48  2  0  0  0  0
 47 53  1  0  0  0  0
 48 49  1  0  0  0  0
 48 58  1  0  0  0  0
 49 50  1  0  0  0  0
 49 51  2  0  0  0  0
 51 52  1  0  0  0  0
 51 57  1  0  0  0  0
 52 53  2  0  0  0  0
 52 56  1  0  0  0  0
 53 54  1  0  0  0  0
 54 55  2  0  0  0  0
M  END
>  <MODEL>
       1

$$$$
