output/tmp_first_model_19_6.pdb
 OpenBabel07232603163D

 65 69  0  0  0  0  0  0  0  0999 V2000
    8.7880   -4.9940   27.4950 C   0  0  0  0  0  0  0  0  0  0  0  0
    9.5410   -5.4170   26.2240 C   0  0  0  0  0  0  0  0  0  0  0  0
    9.0370   -4.6360   25.0400 C   0  0  0  0  0  0  0  0  0  0  0  0
    8.3240   -5.0310   24.1510 O   0  0  0  0  0  0  0  0  0  0  0  0
    9.5840   -3.2970   24.9000 N   0  3  0  0  0  0  0  0  0  0  0  0
   10.6850   -3.3630   23.8140 C   0  0  0  0  0  0  0  0  0  0  0  0
   11.1720   -1.9560   23.6250 C   0  0  0  0  0  0  0  0  0  0  0  0
   10.0480   -1.1100   23.0320 C   0  0  0  0  0  0  0  0  0  0  0  0
    8.7550   -1.1770   23.8230 C   0  0  0  0  0  0  0  0  0  0  0  0
    7.7400   -0.2100   23.6930 C   0  0  0  0  0  0  0  0  0  0  0  0
    7.9310    0.8620   22.7730 N   0  0  0  0  0  0  0  0  0  0  0  0
    8.2850    2.1720   23.3150 C   0  0  0  0  0  0  0  0  0  0  0  0
    7.1100    3.1250   23.2840 C   0  0  0  0  0  0  0  0  0  0  0  0
    6.2780    3.2860   24.3920 C   0  0  0  0  0  0  0  0  0  0  0  0
    5.1870    4.1470   24.3320 C   0  0  0  0  0  0  0  0  0  0  0  0
    4.9180    4.8600   23.1700 C   0  0  0  0  0  0  0  0  0  0  0  0
    5.7440    4.6750   22.0640 C   0  0  0  0  0  0  0  0  0  0  0  0
    5.4170    5.5610   20.5980 Cl  0  0  0  0  0  0  0  0  0  0  0  0
    6.8240    3.8070   22.1040 C   0  0  0  0  0  0  0  0  0  0  0  0
    7.4340    3.6400   21.2190 H   0  0  0  0  0  0  0  0  0  0  0  0
    4.0660    5.5300   23.1040 H   0  0  0  0  0  0  0  0  0  0  0  0
    4.5420    4.2630   25.1990 H   0  0  0  0  0  0  0  0  0  0  0  0
    6.4810    2.7320   25.3070 H   0  0  0  0  0  0  0  0  0  0  0  0
    8.6310    2.0110   24.3410 H   0  0  0  0  0  0  0  0  0  0  0  0
    9.1080    2.5710   22.7110 H   0  0  0  0  0  0  0  0  0  0  0  0
    7.8720    0.7180   21.4030 C   0  0  0  0  0  0  0  0  0  0  0  0
    8.4750    1.4630   20.6490 O   0  0  0  0  0  0  0  0  0  0  0  0
    7.0060   -0.4180   20.8460 C   0  0  0  0  0  0  0  0  0  0  0  0
    6.1420    0.0660   19.7170 C   0  0  0  0  0  0  0  0  0  0  0  0
    6.4640   -0.2180   18.4180 C   0  0  0  0  0  0  0  0  0  0  0  0
    5.7880    0.2250   17.3250 N   0  0  0  0  0  0  0  0  0  0  0  0
    4.7490    0.9940   17.5480 C   0  0  0  0  0  0  0  0  0  0  0  0
    4.2990    1.3740   18.8420 C   0  0  0  0  0  0  0  0  0  0  0  0
    3.1740    2.2190   19.0280 C   0  0  0  0  0  0  0  0  0  0  0  0
    2.7700    2.5730   20.2850 C   0  0  0  0  0  0  0  0  0  0  0  0
    3.4660    2.0870   21.4160 C   0  0  0  0  0  0  0  0  0  0  0  0
    4.5610    1.2710   21.2630 C   0  0  0  0  0  0  0  0  0  0  0  0
    5.0100    0.8990   19.9660 C   0  0  0  0  0  0  0  0  0  0  0  0
    5.0880    0.9170   22.1460 H   0  0  0  0  0  0  0  0  0  0  0  0
    3.1300    2.3650   22.4120 H   0  0  0  0  0  0  0  0  0  0  0  0
    1.9200    3.2400   20.4150 H   0  0  0  0  0  0  0  0  0  0  0  0
    2.6570    2.5950   18.1500 H   0  0  0  0  0  0  0  0  0  0  0  0
    4.2110    1.3620   16.6740 H   0  0  0  0  0  0  0  0  0  0  0  0
    7.3250   -0.8480   18.1930 H   0  0  0  0  0  0  0  0  0  0  0  0
    7.6930   -1.1900   20.4770 H   0  0  0  0  0  0  0  0  0  0  0  0
    6.4180   -0.8620   21.6540 H   0  0  0  0  0  0  0  0  0  0  0  0
    6.5980   -0.2470   24.4840 C   0  0  0  0  0  0  0  0  0  0  0  0
    6.3930   -1.3020   25.3740 C   0  0  0  0  0  0  0  0  0  0  0  0
    7.3500   -2.3070   25.4590 C   0  0  0  0  0  0  0  0  0  0  0  0
    8.5170   -2.2210   24.7000 C   0  0  0  0  0  0  0  0  0  0  0  0
    7.2180   -3.1620   26.1150 H   0  0  0  0  0  0  0  0  0  0  0  0
    5.5050   -1.3420   25.9990 H   0  0  0  0  0  0  0  0  0  0  0  0
    5.8620    0.5450   24.3890 H   0  0  0  0  0  0  0  0  0  0  0  0
    9.8500   -1.4730   22.0130 H   0  0  0  0  0  0  0  0  0  0  0  0
   10.3750   -0.0730   22.9250 H   0  0  0  0  0  0  0  0  0  0  0  0
   12.0480   -1.9600   22.9710 H   0  0  0  0  0  0  0  0  0  0  0  0
   11.4950   -1.5570   24.5960 H   0  0  0  0  0  0  0  0  0  0  0  0
   11.4690   -4.0600   24.1390 H   0  0  0  0  0  0  0  0  0  0  0  0
   10.2140   -3.7750   22.9180 H   0  0  0  0  0  0  0  0  0  0  0  0
   10.0900   -3.0360   25.7750 H   0  0  0  0  0  0  0  0  0  0  0  0
    9.3960   -6.4680   25.9930 H   0  0  0  0  0  0  0  0  0  0  0  0
   10.6220   -5.2300   26.3100 H   0  0  0  0  0  0  0  0  0  0  0  0
    8.9250   -3.9190   27.6630 H   0  0  0  0  0  0  0  0  0  0  0  0
    7.7180   -5.1950   27.3700 H   0  0  0  0  0  0  0  0  0  0  0  0
    9.1400   -5.5290   28.3830 H   0  0  0  0  0  0  0  0  0  0  0  0
  1  2  1  0  0  0  0
  1 63  1  0  0  0  0
  1 64  1  0  0  0  0
  1 65  1  0  0  0  0
  2  3  1  0  0  0  0
  2 61  1  0  0  0  0
  2 62  1  0  0  0  0
  3  4  2  0  0  0  0
  3  5  1  0  0  0  0
  5  6  1  0  0  0  0
  5 50  1  0  0  0  0
  5 60  1  0  0  0  0
  6  7  1  0  0  0  0
  6 58  1  0  0  0  0
  6 59  1  0  0  0  0
  7  8  1  0  0  0  0
  7 56  1  0  0  0  0
  7 57  1  0  0  0  0
  8  9  1  0  0  0  0
  8 54  1  0  0  0  0
  8 55  1  0  0  0  0
  9 10  2  0  0  0  0
  9 50  1  0  0  0  0
 10 11  1  0  0  0  0
 10 47  1  0  0  0  0
 11 12  1  0  0  0  0
 11 26  1  0  0  0  0
 12 13  1  0  0  0  0
 12 24  1  0  0  0  0
 12 25  1  0  0  0  0
 13 14  2  0  0  0  0
 13 19  1  0  0  0  0
 14 15  1  0  0  0  0
 14 23  1  0  0  0  0
 15 16  2  0  0  0  0
 15 22  1  0  0  0  0
 16 17  1  0  0  0  0
 16 21  1  0  0  0  0
 17 18  1  0  0  0  0
 17 19  2  0  0  0  0
 19 20  1  0  0  0  0
 26 27  2  0  0  0  0
 26 28  1  0  0  0  0
 28 29  1  0  0  0  0
 28 45  1  0  0  0  0
 28 46  1  0  0  0  0
 29 30  2  0  0  0  0
 29 38  1  0  0  0  0
 30 31  1  0  0  0  0
 30 44  1  0  0  0  0
 31 32  2  0  0  0  0
 32 33  1  0  0  0  0
 32 43  1  0  0  0  0
 33 34  2  0  0  0  0
 33 38  1  0  0  0  0
 34 35  1  0  0  0  0
 34 42  1  0  0  0  0
 35 36  2  0  0  0  0
 35 41  1  0  0  0  0
 36 37  1  0  0  0  0
 36 40  1  0  0  0  0
 37 38  2  0  0  0  0
 37 39  1  0  0  0  0
 47 48  2  0  0  0  0
 47 53  1  0  0  0  0
 48 49  1  0  0  0  0
 48 52  1  0  0  0  0
 49 50  2  0  0  0  0
 49 51  1  0  0  0  0
M  CHG  1   5   1
M  END
>  <MODEL>
       1

$$$$
