output/tmp_first_model_2_67.pdb
 OpenBabel07222619223D

 69 74  0  0  1  0  0  0  0  0999 V2000
   10.3240    5.0910   23.9630 C   0  0  0  0  0  0  0  0  0  0  0  0
    9.1440    4.4070   23.3910 N   0  3  0  0  0  0  0  0  0  0  0  0
    9.4490    3.0300   22.8610 C   0  0  0  0  0  0  0  0  0  0  0  0
    9.6180    1.9910   23.9630 C   0  0  0  0  0  0  0  0  0  0  0  0
    9.9020    0.6790   23.4200 N   0  0  0  0  0  0  0  0  0  0  0  0
    8.8960   -0.3710   23.4430 C   0  0  0  0  0  0  0  0  0  0  0  0
    8.7950   -1.1570   22.0880 C   0  0  2  0  0  0  0  0  0  0  0  0
    8.2190   -0.2020   21.0190 C   0  0  0  0  0  0  0  0  0  0  0  0
    8.8530    0.6920   20.4680 O   0  0  0  0  0  0  0  0  0  0  0  0
    6.8800   -0.4690   20.8360 N   0  0  0  0  0  0  0  0  0  0  0  0
    6.1280    0.0900   19.7650 C   0  0  0  0  0  0  0  0  0  0  0  0
    6.4350   -0.2160   18.4630 C   0  0  0  0  0  0  0  0  0  0  0  0
    5.7570    0.2400   17.3770 N   0  0  0  0  0  0  0  0  0  0  0  0
    4.7320    1.0310   17.5770 C   0  0  0  0  0  0  0  0  0  0  0  0
    4.2850    1.4250   18.8730 C   0  0  0  0  0  0  0  0  0  0  0  0
    3.1680    2.2890   19.0500 C   0  0  0  0  0  0  0  0  0  0  0  0
    2.7810    2.6540   20.3110 C   0  0  0  0  0  0  0  0  0  0  0  0
    3.4880    2.1860   21.4400 C   0  0  0  0  0  0  0  0  0  0  0  0
    4.5690    1.3510   21.2910 C   0  0  0  0  0  0  0  0  0  0  0  0
    4.9940    0.9420   20.0000 C   0  0  0  0  0  0  0  0  0  0  0  0
    5.1220    1.0100   22.1580 H   0  0  0  0  0  0  0  0  0  0  0  0
    3.1780    2.4910   22.4320 H   0  0  0  0  0  0  0  0  0  0  0  0
    1.9340    3.3140   20.4550 H   0  0  0  0  0  0  0  0  0  0  0  0
    2.6360    2.6560   18.1760 H   0  0  0  0  0  0  0  0  0  0  0  0
    4.1950    1.4030   16.7010 H   0  0  0  0  0  0  0  0  0  0  0  0
    7.2760   -0.8730   18.2600 H   0  0  0  0  0  0  0  0  0  0  0  0
    6.4160   -1.5930   21.6310 C   0  0  0  0  0  0  0  0  0  0  0  0
    7.7150   -2.2410   22.0980 C   0  0  2  0  0  0  0  0  0  0  0  0
    7.5200   -2.8310   23.3350 C   0  0  0  0  0  0  0  0  0  0  0  0
    6.5960   -3.8670   23.0450 O   0  0  0  0  0  0  0  0  0  0  0  0
    7.9190   -5.5470   25.0960 C   0  0  0  0  0  0  0  0  0  0  0  0
    7.9990   -5.5560   25.0820 C   0  0  0  0  0  0  0  0  0  0  0  0
    7.8530   -6.8890   22.9000 F   0  0  0  0  0  0  0  0  0  0  0  0
    7.9200   -5.5470   25.0950 C   0  0  0  0  0  0  0  0  0  0  0  0
    7.9190   -5.5470   25.0960 C   0  0  0  0  0  0  0  0  0  0  0  0
    7.3590   -5.7330   26.3700 H   0  0  0  0  0  0  0  0  0  0  0  0
    7.8960   -5.3240   25.7860 H   0  0  0  0  0  0  0  0  0  0  0  0
    9.3740   -6.0430   25.0860 H   0  0  0  0  0  0  0  0  0  0  0  0
    8.5390   -4.8400   26.0760 H   0  0  0  0  0  0  0  0  0  0  0  0
    5.4320   -5.3350   24.2840 H   0  0  0  0  0  0  0  0  0  0  0  0
    7.2750   -4.8240   25.9570 H   0  0  0  0  0  0  0  0  0  0  0  0
    8.5940   -3.0740   23.6050 H   0  0  0  0  0  0  0  0  0  0  0  0
    7.1160   -2.2130   24.1970 H   0  0  0  0  0  0  0  0  0  0  0  0
    7.9630   -3.0280   21.3880 H   0  0  0  0  0  0  0  0  0  0  0  0
    5.7970   -1.2580   22.4760 H   0  0  0  0  0  0  0  0  0  0  0  0
    5.8270   -2.2890   21.0280 H   0  0  0  0  0  0  0  0  0  0  0  0
   10.1720   -1.5760   21.7060 C   0  0  0  0  0  0  0  0  0  0  0  0
   10.3450   -2.7070   20.8710 C   0  0  0  0  0  0  0  0  0  0  0  0
   11.4500   -3.2320   20.3430 C   0  0  0  0  0  0  0  0  0  0  0  0
   11.9120   -4.3050   19.1180 Cl  0  0  0  0  0  0  0  0  0  0  0  0
   12.6790   -2.1840   20.5880 C   0  0  0  0  0  0  0  0  0  0  0  0
   12.5290   -1.1920   21.6080 C   0  0  0  0  0  0  0  0  0  0  0  0
   11.2350   -0.8430   22.1480 C   0  0  0  0  0  0  0  0  0  0  0  0
   11.1600    0.3900   22.9890 C   0  0  0  0  0  0  0  0  0  0  0  0
   12.1530    1.0880   23.2230 O   0  0  0  0  0  0  0  0  0  0  0  0
   13.3540   -0.6170   22.1050 H   0  0  0  0  0  0  0  0  0  0  0  0
   13.4140   -2.8630   19.8740 H   0  0  0  0  0  0  0  0  0  0  0  0
    9.6140   -3.0620   20.2610 H   0  0  0  0  0  0  0  0  0  0  0  0
    7.9110    0.0600   23.6710 H   0  0  0  0  0  0  0  0  0  0  0  0
    9.1520   -1.0390   24.2480 H   0  0  0  0  0  0  0  0  0  0  0  0
   10.4520    2.2860   24.5820 H   0  0  0  0  0  0  0  0  0  0  0  0
    8.7070    1.9650   24.5780 H   0  0  0  0  0  0  0  0  0  0  0  0
   10.3600    3.0870   22.2700 H   0  0  0  0  0  0  0  0  0  0  0  0
    8.6380    2.7350   22.2140 H   0  0  0  0  0  0  0  0  0  0  0  0
    8.4040    4.3240   24.1320 H   0  0  0  0  0  0  0  0  0  0  0  0
    8.7720    4.9900   22.6090 H   0  0  0  0  0  0  0  0  0  0  0  0
   10.6850    4.5700   24.8460 H   0  0  0  0  0  0  0  0  0  0  0  0
   11.1260    5.1150   23.2280 H   0  0  0  0  0  0  0  0  0  0  0  0
   10.0610    6.1040   24.2340 H   0  0  0  0  0  0  0  0  0  0  0  0
  1  2  1  0  0  0  0
  1 67  1  0  0  0  0
  1 68  1  0  0  0  0
  1 69  1  0  0  0  0
  2  3  1  0  0  0  0
  2 65  1  0  0  0  0
  2 66  1  0  0  0  0
  3  4  1  0  0  0  0
  3 63  1  0  0  0  0
  3 64  1  0  0  0  0
  4  5  1  0  0  0  0
  4 61  1  0  0  0  0
  4 62  1  0  0  0  0
  5  6  1  0  0  0  0
  5 54  1  0  0  0  0
  6  7  1  0  0  0  0
  6 59  1  0  0  0  0
  6 60  1  0  0  0  0
  7  8  1  6  0  0  0
  7 28  1  0  0  0  0
  7 47  1  0  0  0  0
  8  9  2  0  0  0  0
  8 10  1  0  0  0  0
 10 11  1  0  0  0  0
 10 27  1  0  0  0  0
 11 12  2  0  0  0  0
 11 20  1  0  0  0  0
 12 13  1  0  0  0  0
 12 26  1  0  0  0  0
 13 14  2  0  0  0  0
 14 15  1  0  0  0  0
 14 25  1  0  0  0  0
 15 16  2  0  0  0  0
 15 20  1  0  0  0  0
 16 17  1  0  0  0  0
 16 24  1  0  0  0  0
 17 18  2  0  0  0  0
 17 23  1  0  0  0  0
 18 19  1  0  0  0  0
 18 22  1  0  0  0  0
 19 20  2  0  0  0  0
 19 21  1  0  0  0  0
 27 28  1  0  0  0  0
 27 45  1  0  0  0  0
 27 46  1  0  0  0  0
 28 29  1  0  0  0  0
 28 44  1  6  0  0  0
 29 30  1  0  0  0  0
 29 42  1  0  0  0  0
 29 43  1  0  0  0  0
 30 31  1  0  0  0  0
 31 32  1  0  0  0  0
 31 40  1  0  0  0  0
 31 41  1  0  0  0  0
 32 33  1  0  0  0  0
 32 34  1  0  0  0  0
 32 35  1  0  0  0  0
 34 35  1  0  0  0  0
 34 38  1  0  0  0  0
 34 39  1  0  0  0  0
 35 36  1  0  0  0  0
 35 37  1  0  0  0  0
 47 48  2  0  0  0  0
 47 53  1  0  0  0  0
 48 49  1  0  0  0  0
 48 58  1  0  0  0  0
 49 50  1  0  0  0  0
 49 51  2  0  0  0  0
 51 52  1  0  0  0  0
 51 57  1  0  0  0  0
 52 53  2  0  0  0  0
 52 56  1  0  0  0  0
 53 54  1  0  0  0  0
 54 55  2  0  0  0  0
M  CHG  1   2   1
M  END
>  <MODEL>
       1

$$$$
