output/tmp_first_model_19_73.pdb
 OpenBabel07232603163D

 56 61  0  0  1  0  0  0  0  0999 V2000
    7.8680   -3.1240   23.2150 C   0  0  0  0  0  0  0  0  0  0  0  0
    7.9920   -1.9650   22.2390 C   0  0  1  0  0  0  0  0  0  0  0  0
    6.7870   -1.7570   21.3220 C   0  0  0  0  0  0  0  0  0  0  0  0
    6.9670   -0.3840   20.8850 N   0  0  0  0  0  0  0  0  0  0  0  0
    6.1990    0.1520   19.8190 C   0  0  0  0  0  0  0  0  0  0  0  0
    6.5020   -0.2190   18.5340 C   0  0  0  0  0  0  0  0  0  0  0  0
    5.8320    0.1890   17.4290 N   0  0  0  0  0  0  0  0  0  0  0  0
    4.7990    0.9760   17.6130 C   0  0  0  0  0  0  0  0  0  0  0  0
    4.3370    1.3960   18.8910 C   0  0  0  0  0  0  0  0  0  0  0  0
    3.1890    2.2210   19.0310 C   0  0  0  0  0  0  0  0  0  0  0  0
    2.7360    2.5690   20.2740 C   0  0  0  0  0  0  0  0  0  0  0  0
    3.3980    2.1040   21.4310 C   0  0  0  0  0  0  0  0  0  0  0  0
    4.5190    1.3190   21.3200 C   0  0  0  0  0  0  0  0  0  0  0  0
    5.0330    0.9590   20.0420 C   0  0  0  0  0  0  0  0  0  0  0  0
    5.0160    0.9600   22.2150 H   0  0  0  0  0  0  0  0  0  0  0  0
    3.0180    2.3720   22.4120 H   0  0  0  0  0  0  0  0  0  0  0  0
    1.8640    3.2070   20.3770 H   0  0  0  0  0  0  0  0  0  0  0  0
    2.6920    2.5790   18.1330 H   0  0  0  0  0  0  0  0  0  0  0  0
    4.2620    1.3040   16.7230 H   0  0  0  0  0  0  0  0  0  0  0  0
    7.3460   -0.8860   18.3600 H   0  0  0  0  0  0  0  0  0  0  0  0
    7.7830    0.3640   21.7170 C   0  0  0  0  0  0  0  0  0  0  0  0
    8.0640    1.5290   21.5470 O   0  0  0  0  0  0  0  0  0  0  0  0
    8.2470   -0.5540   22.8720 C   0  0  1  0  0  0  0  0  0  0  0  0
    7.3740   -0.2100   24.1030 C   0  0  0  0  0  0  0  0  0  0  0  0
    7.8900   -0.7620   25.3530 N   0  0  0  0  0  0  0  0  0  0  0  0
    6.9490   -1.4280   26.2690 C   0  0  0  0  0  0  0  0  0  0  0  0
    7.4050   -2.7960   26.8440 C   0  0  0  0  0  0  0  0  0  0  0  0
    7.7800   -2.1220   28.1350 N   0  3  0  0  0  0  0  0  0  0  0  0
    6.9360   -0.9350   27.7390 C   0  0  0  0  0  0  0  0  0  0  0  0
    7.4270    0.0140   27.9440 H   0  0  0  0  0  0  0  0  0  0  0  0
    5.9420   -0.9670   28.1880 H   0  0  0  0  0  0  0  0  0  0  0  0
    8.7630   -1.7930   27.9930 H   0  0  0  0  0  0  0  0  0  0  0  0
    7.7100   -2.5810   29.0540 H   0  0  0  0  0  0  0  0  0  0  0  0
    8.2580   -3.2700   26.3540 H   0  0  0  0  0  0  0  0  0  0  0  0
    6.5860   -3.5070   26.9600 H   0  0  0  0  0  0  0  0  0  0  0  0
    5.9780   -1.4250   25.7570 H   0  0  0  0  0  0  0  0  0  0  0  0
    9.2140   -0.6530   25.6780 C   0  0  0  0  0  0  0  0  0  0  0  0
    9.6570   -0.8980   26.8050 O   0  0  0  0  0  0  0  0  0  0  0  0
   10.1430   -0.3140   24.5580 C   0  0  0  0  0  0  0  0  0  0  0  0
   11.4990   -0.1430   24.8420 C   0  0  0  0  0  0  0  0  0  0  0  0
   12.4310   -0.1630   23.8290 C   0  0  0  0  0  0  0  0  0  0  0  0
   11.9910   -0.3650   22.5220 C   0  0  0  0  0  0  0  0  0  0  0  0
   13.1970   -0.6350   21.3080 Cl  0  0  0  0  0  0  0  0  0  0  0  0
   10.6510   -0.4850   22.2130 C   0  0  0  0  0  0  0  0  0  0  0  0
    9.7020   -0.3850   23.2330 C   0  0  0  0  0  0  0  0  0  0  0  0
   10.3240   -0.6810   21.1930 H   0  0  0  0  0  0  0  0  0  0  0  0
   13.4970   -0.0880   24.0150 H   0  0  0  0  0  0  0  0  0  0  0  0
   11.8260   -0.0920   25.8700 H   0  0  0  0  0  0  0  0  0  0  0  0
    6.3540   -0.5790   23.9500 H   0  0  0  0  0  0  0  0  0  0  0  0
    7.3210    0.8850   24.1670 H   0  0  0  0  0  0  0  0  0  0  0  0
    6.7820   -2.4240   20.4550 H   0  0  0  0  0  0  0  0  0  0  0  0
    5.8310   -1.9020   21.8600 H   0  0  0  0  0  0  0  0  0  0  0  0
    8.8590   -2.1430   21.5860 H   0  0  0  0  0  0  0  0  0  0  0  0
    8.7630   -3.1800   23.8450 H   0  0  0  0  0  0  0  0  0  0  0  0
    7.7620   -4.0730   22.6780 H   0  0  0  0  0  0  0  0  0  0  0  0
    6.9910   -2.9930   23.8620 H   0  0  0  0  0  0  0  0  0  0  0  0
  1  2  1  0  0  0  0
  1 54  1  0  0  0  0
  1 55  1  0  0  0  0
  1 56  1  0  0  0  0
  2  3  1  0  0  0  0
  2 23  1  0  0  0  0
  2 53  1  6  0  0  0
  3  4  1  0  0  0  0
  3 51  1  0  0  0  0
  3 52  1  0  0  0  0
  4  5  1  0  0  0  0
  4 21  1  0  0  0  0
  5  6  2  0  0  0  0
  5 14  1  0  0  0  0
  6  7  1  0  0  0  0
  6 20  1  0  0  0  0
  7  8  2  0  0  0  0
  8  9  1  0  0  0  0
  8 19  1  0  0  0  0
  9 10  2  0  0  0  0
  9 14  1  0  0  0  0
 10 11  1  0  0  0  0
 10 18  1  0  0  0  0
 11 12  2  0  0  0  0
 11 17  1  0  0  0  0
 12 13  1  0  0  0  0
 12 16  1  0  0  0  0
 13 14  2  0  0  0  0
 13 15  1  0  0  0  0
 21 22  2  0  0  0  0
 23 21  1  6  0  0  0
 23 24  1  0  0  0  0
 23 45  1  0  0  0  0
 24 25  1  0  0  0  0
 24 49  1  0  0  0  0
 24 50  1  0  0  0  0
 25 26  1  0  0  0  0
 25 37  1  0  0  0  0
 26 27  1  0  0  0  0
 26 29  1  0  0  0  0
 26 36  1  0  0  0  0
 27 28  1  0  0  0  0
 27 34  1  0  0  0  0
 27 35  1  0  0  0  0
 28 29  1  0  0  0  0
 28 32  1  0  0  0  0
 28 33  1  0  0  0  0
 29 30  1  0  0  0  0
 29 31  1  0  0  0  0
 37 38  2  0  0  0  0
 37 39  1  0  0  0  0
 39 40  2  0  0  0  0
 39 45  1  0  0  0  0
 40 41  1  0  0  0  0
 40 48  1  0  0  0  0
 41 42  2  0  0  0  0
 41 47  1  0  0  0  0
 42 43  1  0  0  0  0
 42 44  1  0  0  0  0
 44 45  2  0  0  0  0
 44 46  1  0  0  0  0
M  CHG  1  28   1
M  END
>  <MODEL>
       1

$$$$
