output/tmp_first_model_7_66.pdb
 OpenBabel07222621533D

 47 50  0  0  1  0  0  0  0  0999 V2000
    7.9500    1.6260   20.8690 O   0  0  0  0  0  0  0  0  0  0  0  0
    7.9930    0.5060   21.3510 C   0  0  0  0  0  0  0  0  0  0  0  0
    6.9170   -0.5400   21.0000 C   0  0  0  0  0  0  0  0  0  0  0  0
    5.9900   -0.0700   19.9020 C   0  0  0  0  0  0  0  0  0  0  0  0
    6.4040   -0.1740   18.5970 C   0  0  0  0  0  0  0  0  0  0  0  0
    5.7540    0.3150   17.5090 N   0  0  0  0  0  0  0  0  0  0  0  0
    4.6310    0.9480   17.7220 C   0  0  0  0  0  0  0  0  0  0  0  0
    4.0460    1.1060   19.0050 C   0  0  0  0  0  0  0  0  0  0  0  0
    2.7990    1.7660   19.1710 C   0  0  0  0  0  0  0  0  0  0  0  0
    2.2140    1.8440   20.4020 C   0  0  0  0  0  0  0  0  0  0  0  0
    2.8560    1.2590   21.5160 C   0  0  0  0  0  0  0  0  0  0  0  0
    4.0810    0.6500   21.3860 C   0  0  0  0  0  0  0  0  0  0  0  0
    4.7230    0.5590   20.1260 C   0  0  0  0  0  0  0  0  0  0  0  0
    4.5620    0.2210   22.2560 H   0  0  0  0  0  0  0  0  0  0  0  0
    2.3750    1.3040   22.4850 H   0  0  0  0  0  0  0  0  0  0  0  0
    1.2610    2.3550   20.5320 H   0  0  0  0  0  0  0  0  0  0  0  0
    2.3130    2.1850   18.2920 H   0  0  0  0  0  0  0  0  0  0  0  0
    4.1340    1.3830   16.8530 H   0  0  0  0  0  0  0  0  0  0  0  0
    7.3660   -0.6300   18.3690 H   0  0  0  0  0  0  0  0  0  0  0  0
    6.3760   -0.8480   21.9030 H   0  0  0  0  0  0  0  0  0  0  0  0
    7.4620   -1.4270   20.6450 H   0  0  0  0  0  0  0  0  0  0  0  0
    9.0250    0.1290   22.2000 N   0  0  0  0  0  0  0  0  0  0  0  0
    9.2670   -1.2580   22.6080 C   0  0  0  0  0  0  0  0  0  0  0  0
   10.0840   -1.2910   23.9000 C   0  0  0  0  0  0  0  0  0  0  0  0
   11.4330   -0.5760   23.7520 C   0  0  1  0  0  0  0  0  0  0  0  0
   12.4410   -1.3530   22.8910 C   0  0  0  0  0  0  0  0  0  0  0  0
   13.7790   -0.6180   22.8120 C   0  0  0  0  0  0  0  0  0  0  0  0
   13.5960    0.7670   22.2180 C   0  0  0  0  0  0  0  0  0  0  0  0
   14.7780    1.4580   22.2780 F   0  0  0  0  0  0  0  0  0  0  0  0
   13.3240    0.6270   20.8800 F   0  0  0  0  0  0  0  0  0  0  0  0
   12.5070    1.6010   22.8860 C   0  0  0  0  0  0  0  0  0  0  0  0
   11.1970    0.8470   23.2060 C   0  0  1  0  0  0  0  0  0  0  0  0
   10.2900    0.8260   21.9770 C   0  0  0  0  0  0  0  0  0  0  0  0
   10.8170    0.3180   21.1600 H   0  0  0  0  0  0  0  0  0  0  0  0
   10.0600    1.8470   21.6630 H   0  0  0  0  0  0  0  0  0  0  0  0
   10.6750    1.4120   23.9860 H   0  0  0  0  0  0  0  0  0  0  0  0
   12.2830    2.4540   22.2330 H   0  0  0  0  0  0  0  0  0  0  0  0
   12.9450    2.0070   23.8020 H   0  0  0  0  0  0  0  0  0  0  0  0
   14.4860   -1.1720   22.1900 H   0  0  0  0  0  0  0  0  0  0  0  0
   14.2170   -0.5040   23.8100 H   0  0  0  0  0  0  0  0  0  0  0  0
   12.0530   -1.4920   21.8760 H   0  0  0  0  0  0  0  0  0  0  0  0
   12.5920   -2.3570   23.3060 H   0  0  0  0  0  0  0  0  0  0  0  0
   11.8760   -0.4870   24.7530 H   0  0  0  0  0  0  0  0  0  0  0  0
    9.5020   -0.8150   24.6980 H   0  0  0  0  0  0  0  0  0  0  0  0
   10.2420   -2.3290   24.2190 H   0  0  0  0  0  0  0  0  0  0  0  0
    8.3260   -1.7850   22.7690 H   0  0  0  0  0  0  0  0  0  0  0  0
    9.8120   -1.7980   21.8100 H   0  0  0  0  0  0  0  0  0  0  0  0
  1  2  2  0  0  0  0
  2  3  1  0  0  0  0
  2 22  1  0  0  0  0
  3  4  1  0  0  0  0
  3 20  1  0  0  0  0
  3 21  1  0  0  0  0
  4  5  2  0  0  0  0
  4 13  1  0  0  0  0
  5  6  1  0  0  0  0
  5 19  1  0  0  0  0
  6  7  2  0  0  0  0
  7  8  1  0  0  0  0
  7 18  1  0  0  0  0
  8  9  2  0  0  0  0
  8 13  1  0  0  0  0
  9 10  1  0  0  0  0
  9 17  1  0  0  0  0
 10 11  2  0  0  0  0
 10 16  1  0  0  0  0
 11 12  1  0  0  0  0
 11 15  1  0  0  0  0
 12 13  2  0  0  0  0
 12 14  1  0  0  0  0
 22 23  1  0  0  0  0
 22 33  1  0  0  0  0
 23 24  1  0  0  0  0
 23 46  1  0  0  0  0
 23 47  1  0  0  0  0
 24 25  1  0  0  0  0
 24 44  1  0  0  0  0
 24 45  1  0  0  0  0
 25 26  1  0  0  0  0
 25 32  1  0  0  0  0
 25 43  1  1  0  0  0
 26 27  1  0  0  0  0
 26 41  1  0  0  0  0
 26 42  1  0  0  0  0
 27 28  1  0  0  0  0
 27 39  1  0  0  0  0
 27 40  1  0  0  0  0
 28 29  1  0  0  0  0
 28 30  1  0  0  0  0
 28 31  1  0  0  0  0
 31 32  1  0  0  0  0
 31 37  1  0  0  0  0
 31 38  1  0  0  0  0
 32 33  1  0  0  0  0
 32 36  1  1  0  0  0
 33 34  1  0  0  0  0
 33 35  1  0  0  0  0
M  END
>  <MODEL>
       1

$$$$
