output/tmp_first_model_7_95.pdb
 OpenBabel07222621533D

 67 71  0  0  1  0  0  0  0  0999 V2000
    5.0040   -3.1430   18.7730 C   0  0  0  0  0  0  0  0  0  0  0  0
    5.4940   -3.7680   19.9880 N   0  0  0  0  0  0  0  0  0  0  0  0
    5.9580   -5.0360   20.0810 C   0  0  0  0  0  0  0  0  0  0  0  0
    5.7450   -5.9110   19.2560 O   0  0  0  0  0  0  0  0  0  0  0  0
    6.8590   -5.3480   21.2960 C   0  0  0  0  0  0  0  0  0  0  0  0
    6.9620   -4.3390   22.3370 N   0  0  0  0  0  0  0  0  0  0  0  0
    7.8690   -3.2100   22.1570 C   0  0  0  0  0  0  0  0  0  0  0  0
    7.3320   -1.9320   22.8430 C   0  0  2  0  0  0  0  0  0  0  0  0
    6.1630   -1.3860   21.9950 C   0  0  0  0  0  0  0  0  0  0  0  0
    5.0330   -1.8460   21.9960 O   0  0  0  0  0  0  0  0  0  0  0  0
    6.6200   -0.3800   21.1640 N   0  0  0  0  0  0  0  0  0  0  0  0
    5.9140    0.1730   20.0770 C   0  0  0  0  0  0  0  0  0  0  0  0
    6.5450    0.3260   18.8600 C   0  0  0  0  0  0  0  0  0  0  0  0
    5.9290    0.7220   17.7260 N   0  0  0  0  0  0  0  0  0  0  0  0
    4.6580    1.0320   17.8010 C   0  0  0  0  0  0  0  0  0  0  0  0
    3.9170    1.0170   19.0120 C   0  0  0  0  0  0  0  0  0  0  0  0
    2.5710    1.4630   19.0430 C   0  0  0  0  0  0  0  0  0  0  0  0
    1.8780    1.5060   20.2200 C   0  0  0  0  0  0  0  0  0  0  0  0
    2.5110    1.1180   21.4210 C   0  0  0  0  0  0  0  0  0  0  0  0
    3.8180    0.6920   21.4240 C   0  0  0  0  0  0  0  0  0  0  0  0
    4.5480    0.6000   20.2020 C   0  0  0  0  0  0  0  0  0  0  0  0
    4.2770    0.3970   22.3610 H   0  0  0  0  0  0  0  0  0  0  0  0
    1.9570    1.1290   22.3540 H   0  0  0  0  0  0  0  0  0  0  0  0
    0.8430    1.8400   20.2430 H   0  0  0  0  0  0  0  0  0  0  0  0
    2.1290    1.7890   18.1070 H   0  0  0  0  0  0  0  0  0  0  0  0
    4.1560    1.3390   16.8830 H   0  0  0  0  0  0  0  0  0  0  0  0
    7.6060    0.0990   18.7490 H   0  0  0  0  0  0  0  0  0  0  0  0
    8.0700   -0.2440   21.2710 C   0  0  0  0  0  0  0  0  0  0  0  0
    8.3200   -0.7380   22.7010 C   0  0  2  0  0  0  0  0  0  0  0  0
    9.7960   -0.9540   23.0310 C   0  0  0  0  0  0  0  0  0  0  0  0
   10.5300    0.6530   23.3900 S   0  0  0  0  0  0  0  0  0  0  0  0
   10.0880    1.0400   24.7240 O   0  0  0  0  0  0  0  0  0  0  0  0
   10.2630    1.5360   22.2620 O   0  0  0  0  0  0  0  0  0  0  0  0
   12.1850    0.3600   23.3940 N   0  0  0  0  0  0  0  0  0  0  0  0
   12.6830   -0.2280   24.6330 C   0  0  0  0  0  0  0  0  0  0  0  0
   12.3810   -1.2780   24.6980 H   0  0  0  0  0  0  0  0  0  0  0  0
   12.3340    0.3200   25.5150 H   0  0  0  0  0  0  0  0  0  0  0  0
   13.7750   -0.2080   24.6000 H   0  0  0  0  0  0  0  0  0  0  0  0
   12.9690    1.5000   22.8930 C   0  0  0  0  0  0  0  0  0  0  0  0
   12.8830    2.3900   23.5310 H   0  0  0  0  0  0  0  0  0  0  0  0
   14.0200    1.2030   22.8480 H   0  0  0  0  0  0  0  0  0  0  0  0
   12.6190    1.7330   21.8870 H   0  0  0  0  0  0  0  0  0  0  0  0
   10.3420   -1.3950   22.1880 H   0  0  0  0  0  0  0  0  0  0  0  0
    9.9260   -1.5920   23.9130 H   0  0  0  0  0  0  0  0  0  0  0  0
    7.9570    0.0490   23.3620 H   0  0  0  0  0  0  0  0  0  0  0  0
    8.3810    0.7820   21.0970 H   0  0  0  0  0  0  0  0  0  0  0  0
    8.5940   -0.8940   20.5480 H   0  0  0  0  0  0  0  0  0  0  0  0
    6.8710   -2.2740   24.2420 C   0  0  0  0  0  0  0  0  0  0  0  0
    6.5890   -1.2530   25.1600 C   0  0  0  0  0  0  0  0  0  0  0  0
    6.1090   -1.5760   26.4130 C   0  0  0  0  0  0  0  0  0  0  0  0
    5.8340   -0.5850   27.2770 F   0  0  0  0  0  0  0  0  0  0  0  0
    5.8900   -2.8870   26.8180 C   0  0  0  0  0  0  0  0  0  0  0  0
    6.1320   -3.8910   25.9030 C   0  0  0  0  0  0  0  0  0  0  0  0
    6.5810   -3.5930   24.6140 C   0  0  0  0  0  0  0  0  0  0  0  0
    6.6450   -4.7170   23.6230 C   0  0  0  0  0  0  0  0  0  0  0  0
    6.3790   -5.8670   23.9390 O   0  0  0  0  0  0  0  0  0  0  0  0
    5.9510   -4.9310   26.1480 H   0  0  0  0  0  0  0  0  0  0  0  0
    5.5120   -3.0850   27.8160 H   0  0  0  0  0  0  0  0  0  0  0  0
    6.7080   -0.2080   24.9040 H   0  0  0  0  0  0  0  0  0  0  0  0
    8.8660   -3.4520   22.5540 H   0  0  0  0  0  0  0  0  0  0  0  0
    7.9740   -3.0110   21.0950 H   0  0  0  0  0  0  0  0  0  0  0  0
    7.8590   -5.6260   20.9280 H   0  0  0  0  0  0  0  0  0  0  0  0
    6.4540   -6.2450   21.7620 H   0  0  0  0  0  0  0  0  0  0  0  0
    5.3500   -3.2590   20.8510 H   0  0  0  0  0  0  0  0  0  0  0  0
    5.3920   -3.6420   17.8850 H   0  0  0  0  0  0  0  0  0  0  0  0
    3.9160   -3.1430   18.7160 H   0  0  0  0  0  0  0  0  0  0  0  0
    5.3300   -2.0990   18.7430 H   0  0  0  0  0  0  0  0  0  0  0  0
  1  2  1  0  0  0  0
  1 65  1  0  0  0  0
  1 66  1  0  0  0  0
  1 67  1  0  0  0  0
  2  3  1  0  0  0  0
  2 64  1  0  0  0  0
  3  4  2  0  0  0  0
  3  5  1  0  0  0  0
  5  6  1  0  0  0  0
  5 62  1  0  0  0  0
  5 63  1  0  0  0  0
  6  7  1  0  0  0  0
  6 55  1  0  0  0  0
  7  8  1  0  0  0  0
  7 60  1  0  0  0  0
  7 61  1  0  0  0  0
  8  9  1  6  0  0  0
  8 29  1  0  0  0  0
  8 48  1  0  0  0  0
  9 10  2  0  0  0  0
  9 11  1  0  0  0  0
 11 12  1  0  0  0  0
 11 28  1  0  0  0  0
 12 13  2  0  0  0  0
 12 21  1  0  0  0  0
 13 14  1  0  0  0  0
 13 27  1  0  0  0  0
 14 15  2  0  0  0  0
 15 16  1  0  0  0  0
 15 26  1  0  0  0  0
 16 17  2  0  0  0  0
 16 21  1  0  0  0  0
 17 18  1  0  0  0  0
 17 25  1  0  0  0  0
 18 19  2  0  0  0  0
 18 24  1  0  0  0  0
 19 20  1  0  0  0  0
 19 23  1  0  0  0  0
 20 21  2  0  0  0  0
 20 22  1  0  0  0  0
 28 29  1  0  0  0  0
 28 46  1  0  0  0  0
 28 47  1  0  0  0  0
 29 30  1  0  0  0  0
 29 45  1  1  0  0  0
 30 31  1  0  0  0  0
 30 43  1  0  0  0  0
 30 44  1  0  0  0  0
 31 32  2  0  0  0  0
 31 33  2  0  0  0  0
 31 34  1  0  0  0  0
 34 35  1  0  0  0  0
 34 39  1  0  0  0  0
 35 36  1  0  0  0  0
 35 37  1  0  0  0  0
 35 38  1  0  0  0  0
 39 40  1  0  0  0  0
 39 41  1  0  0  0  0
 39 42  1  0  0  0  0
 48 49  2  0  0  0  0
 48 54  1  0  0  0  0
 49 50  1  0  0  0  0
 49 59  1  0  0  0  0
 50 51  1  0  0  0  0
 50 52  2  0  0  0  0
 52 53  1  0  0  0  0
 52 58  1  0  0  0  0
 53 54  2  0  0  0  0
 53 57  1  0  0  0  0
 54 55  1  0  0  0  0
 55 56  2  0  0  0  0
M  END
>  <MODEL>
       1

$$$$
