output/tmp_first_model_12_7.pdb
 OpenBabel07232600143D

 37 39  0  0  0  0  0  0  0  0999 V2000
    5.0740   -2.2320   20.7840 O   0  0  0  0  0  0  0  0  0  0  0  0
    5.8470   -1.6430   21.5180 C   0  0  0  0  0  0  0  0  0  0  0  0
    6.7740   -0.5440   21.0000 C   0  0  0  0  0  0  0  0  0  0  0  0
    6.1080    0.1140   19.8380 C   0  0  0  0  0  0  0  0  0  0  0  0
    6.4810   -0.1790   18.5550 C   0  0  0  0  0  0  0  0  0  0  0  0
    5.8500    0.2670   17.4410 N   0  0  0  0  0  0  0  0  0  0  0  0
    4.7950    1.0260   17.6150 C   0  0  0  0  0  0  0  0  0  0  0  0
    4.2880    1.3980   18.8900 C   0  0  0  0  0  0  0  0  0  0  0  0
    3.1300    2.2020   19.0350 C   0  0  0  0  0  0  0  0  0  0  0  0
    2.6890    2.5800   20.2750 C   0  0  0  0  0  0  0  0  0  0  0  0
    3.3820    2.1510   21.4300 C   0  0  0  0  0  0  0  0  0  0  0  0
    4.4910    1.3490   21.3150 C   0  0  0  0  0  0  0  0  0  0  0  0
    4.9730    0.9480   20.0390 C   0  0  0  0  0  0  0  0  0  0  0  0
    5.0020    1.0210   22.2120 H   0  0  0  0  0  0  0  0  0  0  0  0
    3.0380    2.4610   22.4130 H   0  0  0  0  0  0  0  0  0  0  0  0
    1.8140    3.2160   20.3790 H   0  0  0  0  0  0  0  0  0  0  0  0
    2.6160    2.5290   18.1350 H   0  0  0  0  0  0  0  0  0  0  0  0
    4.2860    1.3870   16.7190 H   0  0  0  0  0  0  0  0  0  0  0  0
    7.3380   -0.8280   18.3750 H   0  0  0  0  0  0  0  0  0  0  0  0
    7.7120   -1.0200   20.6810 H   0  0  0  0  0  0  0  0  0  0  0  0
    7.0240    0.1740   21.7850 H   0  0  0  0  0  0  0  0  0  0  0  0
    5.9310   -2.0220   22.8720 N   0  0  0  0  0  0  0  0  0  0  0  0
    5.1710   -3.0450   23.1660 C   0  0  0  0  0  0  0  0  0  0  0  0
    4.4210   -1.7600   25.2380 C   0  0  0  0  0  0  0  0  0  0  0  0
    4.3900   -1.6630   25.4910 C   0  0  0  0  0  0  0  0  0  0  0  0
    5.9720    0.0240   24.3570 C   0  0  0  0  0  0  0  0  0  0  0  0
    6.6430   -1.2910   23.9720 C   0  0  0  0  0  0  0  0  0  0  0  0
    6.6840   -1.9800   24.8120 H   0  0  0  0  0  0  0  0  0  0  0  0
    7.6620   -1.1090   23.6410 H   0  0  0  0  0  0  0  0  0  0  0  0
    6.4150    0.8500   23.7840 H   0  0  0  0  0  0  0  0  0  0  0  0
    6.1670    0.2890   25.3990 H   0  0  0  0  0  0  0  0  0  0  0  0
    4.5190   -2.7930   25.9630 H   0  0  0  0  0  0  0  0  0  0  0  0
    4.4300   -1.0500   26.4490 H   0  0  0  0  0  0  0  0  0  0  0  0
    3.1540   -1.6090   25.2310 H   0  0  0  0  0  0  0  0  0  0  0  0
    4.9150    0.0300   24.1360 H   0  0  0  0  0  0  0  0  0  0  0  0
    4.1260   -2.9950   22.9040 H   0  0  0  0  0  0  0  0  0  0  0  0
    5.4130   -3.6730   23.9980 H   0  0  0  0  0  0  0  0  0  0  0  0
  1  2  2  0  0  0  0
  2  3  1  0  0  0  0
  2 22  1  0  0  0  0
  3  4  1  0  0  0  0
  3 20  1  0  0  0  0
  3 21  1  0  0  0  0
  4  5  2  0  0  0  0
  4 13  1  0  0  0  0
  5  6  1  0  0  0  0
  5 19  1  0  0  0  0
  6  7  2  0  0  0  0
  7  8  1  0  0  0  0
  7 18  1  0  0  0  0
  8  9  2  0  0  0  0
  8 13  1  0  0  0  0
  9 10  1  0  0  0  0
  9 17  1  0  0  0  0
 10 11  2  0  0  0  0
 10 16  1  0  0  0  0
 11 12  1  0  0  0  0
 11 15  1  0  0  0  0
 12 13  2  0  0  0  0
 12 14  1  0  0  0  0
 22 23  1  0  0  0  0
 22 27  1  0  0  0  0
 23 24  1  0  0  0  0
 23 36  1  0  0  0  0
 23 37  1  0  0  0  0
 24 25  1  0  0  0  0
 24 34  1  0  0  0  0
 24 35  1  0  0  0  0
 25 26  1  0  0  0  0
 25 32  1  0  0  0  0
 25 33  1  0  0  0  0
 26 27  1  0  0  0  0
 26 30  1  0  0  0  0
 26 31  1  0  0  0  0
 27 28  1  0  0  0  0
 27 29  1  0  0  0  0
M  END
>  <MODEL>
       1

$$$$
