output/tmp_first_model_12_67.pdb
 OpenBabel07232600143D

 69 74  0  0  1  0  0  0  0  0999 V2000
    5.0090    4.7220   23.4180 C   0  0  0  0  0  0  0  0  0  0  0  0
    6.4670    4.9600   23.4570 N   0  3  0  0  0  0  0  0  0  0  0  0
    7.2700    3.7270   23.1870 C   0  0  0  0  0  0  0  0  0  0  0  0
    7.5740    2.8990   24.4430 C   0  0  0  0  0  0  0  0  0  0  0  0
    8.3810    1.7440   24.0920 N   0  0  0  0  0  0  0  0  0  0  0  0
    7.7410    0.4650   23.8800 C   0  0  0  0  0  0  0  0  0  0  0  0
    8.2570   -0.2850   22.6240 C   0  0  2  0  0  0  0  0  0  0  0  0
    7.7760    0.3940   21.3240 C   0  0  0  0  0  0  0  0  0  0  0  0
    8.1910    1.4270   20.8430 O   0  0  0  0  0  0  0  0  0  0  0  0
    6.7910   -0.3800   20.7590 N   0  0  0  0  0  0  0  0  0  0  0  0
    6.0100    0.1390   19.7000 C   0  0  0  0  0  0  0  0  0  0  0  0
    6.3380   -0.1490   18.4030 C   0  0  0  0  0  0  0  0  0  0  0  0
    5.6450    0.3010   17.3310 N   0  0  0  0  0  0  0  0  0  0  0  0
    4.6080    1.0690   17.5560 C   0  0  0  0  0  0  0  0  0  0  0  0
    4.1580    1.4370   18.8570 C   0  0  0  0  0  0  0  0  0  0  0  0
    3.0190    2.2600   19.0560 C   0  0  0  0  0  0  0  0  0  0  0  0
    2.6250    2.6060   20.3180 C   0  0  0  0  0  0  0  0  0  0  0  0
    3.3470    2.1430   21.4410 C   0  0  0  0  0  0  0  0  0  0  0  0
    4.4570    1.3530   21.2790 C   0  0  0  0  0  0  0  0  0  0  0  0
    4.8840    0.9700   19.9740 C   0  0  0  0  0  0  0  0  0  0  0  0
    5.0060    1.0160   22.1520 H   0  0  0  0  0  0  0  0  0  0  0  0
    3.0350    2.4350   22.4410 H   0  0  0  0  0  0  0  0  0  0  0  0
    1.7600    3.2450   20.4660 H   0  0  0  0  0  0  0  0  0  0  0  0
    2.4860    2.6150   18.1790 H   0  0  0  0  0  0  0  0  0  0  0  0
    4.0650    1.4370   16.6860 H   0  0  0  0  0  0  0  0  0  0  0  0
    7.2040   -0.7720   18.1910 H   0  0  0  0  0  0  0  0  0  0  0  0
    6.4030   -1.5240   21.5560 C   0  0  0  0  0  0  0  0  0  0  0  0
    7.5950   -1.6910   22.5110 C   0  0  2  0  0  0  0  0  0  0  0  0
    7.1700   -2.3560   23.8180 C   0  0  0  0  0  0  0  0  0  0  0  0
    6.4640   -3.5270   23.4780 O   0  0  0  0  0  0  0  0  0  0  0  0
    6.4290   -4.5510   24.4360 C   0  0  0  0  0  0  0  0  0  0  0  0
    7.5870   -5.3960   24.1090 C   0  0  0  0  0  0  0  0  0  0  0  0
    8.7240   -4.6850   23.9200 F   0  0  0  0  0  0  0  0  0  0  0  0
    7.6290   -6.8820   24.1800 C   0  0  0  0  0  0  0  0  0  0  0  0
    7.4290   -6.7590   24.0430 C   0  0  0  0  0  0  0  0  0  0  0  0
    8.8920   -7.2280   25.0480 H   0  0  0  0  0  0  0  0  0  0  0  0
    6.5230   -6.9860   24.8260 H   0  0  0  0  0  0  0  0  0  0  0  0
    7.5790   -7.7660   23.2910 H   0  0  0  0  0  0  0  0  0  0  0  0
    6.4710   -6.6430   22.8710 H   0  0  0  0  0  0  0  0  0  0  0  0
    6.5040   -4.1430   25.4640 H   0  0  0  0  0  0  0  0  0  0  0  0
    5.4320   -5.0250   24.3440 H   0  0  0  0  0  0  0  0  0  0  0  0
    6.5010   -1.7050   24.4000 H   0  0  0  0  0  0  0  0  0  0  0  0
    8.0550   -2.5660   24.4290 H   0  0  0  0  0  0  0  0  0  0  0  0
    8.3200   -2.3490   22.0220 H   0  0  0  0  0  0  0  0  0  0  0  0
    6.2520   -2.4000   20.9210 H   0  0  0  0  0  0  0  0  0  0  0  0
    5.4620   -1.3440   22.0990 H   0  0  0  0  0  0  0  0  0  0  0  0
    9.7710   -0.2310   22.6110 C   0  0  0  0  0  0  0  0  0  0  0  0
   10.4940   -1.0600   21.7460 C   0  0  0  0  0  0  0  0  0  0  0  0
   11.8750   -0.9920   21.7190 C   0  0  0  0  0  0  0  0  0  0  0  0
   12.7310   -2.0060   20.5930 Cl  0  0  0  0  0  0  0  0  0  0  0  0
   12.5770   -0.0840   22.5130 C   0  0  0  0  0  0  0  0  0  0  0  0
   11.8580    0.8150   23.2780 C   0  0  0  0  0  0  0  0  0  0  0  0
   10.4630    0.7790   23.2930 C   0  0  0  0  0  0  0  0  0  0  0  0
    9.7230    1.9170   23.9380 C   0  0  0  0  0  0  0  0  0  0  0  0
   10.2890    2.9590   24.2640 O   0  0  0  0  0  0  0  0  0  0  0  0
   12.3620    1.5810   23.8560 H   0  0  0  0  0  0  0  0  0  0  0  0
   13.6620   -0.0740   22.4900 H   0  0  0  0  0  0  0  0  0  0  0  0
    9.9950   -1.7340   21.0570 H   0  0  0  0  0  0  0  0  0  0  0  0
    7.9090   -0.1670   24.7610 H   0  0  0  0  0  0  0  0  0  0  0  0
    6.6620    0.6340   23.7790 H   0  0  0  0  0  0  0  0  0  0  0  0
    8.1370    3.4820   25.1780 H   0  0  0  0  0  0  0  0  0  0  0  0
    6.6540    2.5390   24.9230 H   0  0  0  0  0  0  0  0  0  0  0  0
    8.2060    4.0230   22.7270 H   0  0  0  0  0  0  0  0  0  0  0  0
    6.7290    3.1070   22.4700 H   0  0  0  0  0  0  0  0  0  0  0  0
    6.7030    5.6890   22.7530 H   0  0  0  0  0  0  0  0  0  0  0  0
    6.7250    5.2910   24.4150 H   0  0  0  0  0  0  0  0  0  0  0  0
    4.6950    4.0570   24.2260 H   0  0  0  0  0  0  0  0  0  0  0  0
    4.7330    4.2400   22.4780 H   0  0  0  0  0  0  0  0  0  0  0  0
    4.4680    5.6610   23.5050 H   0  0  0  0  0  0  0  0  0  0  0  0
  1  2  1  0  0  0  0
  1 67  1  0  0  0  0
  1 68  1  0  0  0  0
  1 69  1  0  0  0  0
  2  3  1  0  0  0  0
  2 65  1  0  0  0  0
  2 66  1  0  0  0  0
  3  4  1  0  0  0  0
  3 63  1  0  0  0  0
  3 64  1  0  0  0  0
  4  5  1  0  0  0  0
  4 61  1  0  0  0  0
  4 62  1  0  0  0  0
  5  6  1  0  0  0  0
  5 54  1  0  0  0  0
  6  7  1  0  0  0  0
  6 59  1  0  0  0  0
  6 60  1  0  0  0  0
  7  8  1  6  0  0  0
  7 28  1  0  0  0  0
  7 47  1  0  0  0  0
  8  9  2  0  0  0  0
  8 10  1  0  0  0  0
 10 11  1  0  0  0  0
 10 27  1  0  0  0  0
 11 12  2  0  0  0  0
 11 20  1  0  0  0  0
 12 13  1  0  0  0  0
 12 26  1  0  0  0  0
 13 14  2  0  0  0  0
 14 15  1  0  0  0  0
 14 25  1  0  0  0  0
 15 16  2  0  0  0  0
 15 20  1  0  0  0  0
 16 17  1  0  0  0  0
 16 24  1  0  0  0  0
 17 18  2  0  0  0  0
 17 23  1  0  0  0  0
 18 19  1  0  0  0  0
 18 22  1  0  0  0  0
 19 20  2  0  0  0  0
 19 21  1  0  0  0  0
 27 28  1  0  0  0  0
 27 45  1  0  0  0  0
 27 46  1  0  0  0  0
 28 29  1  0  0  0  0
 28 44  1  6  0  0  0
 29 30  1  0  0  0  0
 29 42  1  0  0  0  0
 29 43  1  0  0  0  0
 30 31  1  0  0  0  0
 31 32  1  0  0  0  0
 31 40  1  0  0  0  0
 31 41  1  0  0  0  0
 32 33  1  0  0  0  0
 32 34  1  0  0  0  0
 32 35  1  0  0  0  0
 34 35  1  0  0  0  0
 34 38  1  0  0  0  0
 34 39  1  0  0  0  0
 35 36  1  0  0  0  0
 35 37  1  0  0  0  0
 47 48  2  0  0  0  0
 47 53  1  0  0  0  0
 48 49  1  0  0  0  0
 48 58  1  0  0  0  0
 49 50  1  0  0  0  0
 49 51  2  0  0  0  0
 51 52  1  0  0  0  0
 51 57  1  0  0  0  0
 52 53  2  0  0  0  0
 52 56  1  0  0  0  0
 53 54  1  0  0  0  0
 54 55  2  0  0  0  0
M  CHG  1   2   1
M  END
>  <MODEL>
       1

$$$$
