output/tmp_first_model_18_34.pdb
 OpenBabel07232602473D

 58 63  0  0  1  0  0  0  0  0999 V2000
    7.9550   -3.0860   23.1530 C   0  0  0  0  0  0  0  0  0  0  0  0
    7.9970   -1.9670   22.1230 C   0  0  1  0  0  0  0  0  0  0  0  0
    6.7970   -1.8870   21.1610 C   0  0  0  0  0  0  0  0  0  0  0  0
    6.8150   -0.4950   20.7620 N   0  0  0  0  0  0  0  0  0  0  0  0
    6.0690    0.0550   19.7070 C   0  0  0  0  0  0  0  0  0  0  0  0
    6.3960   -0.2460   18.4100 C   0  0  0  0  0  0  0  0  0  0  0  0
    5.7400    0.2390   17.3340 N   0  0  0  0  0  0  0  0  0  0  0  0
    4.7330    1.0470   17.5530 C   0  0  0  0  0  0  0  0  0  0  0  0
    4.2840    1.4300   18.8470 C   0  0  0  0  0  0  0  0  0  0  0  0
    3.1750    2.2970   19.0260 C   0  0  0  0  0  0  0  0  0  0  0  0
    2.7320    2.6120   20.2810 C   0  0  0  0  0  0  0  0  0  0  0  0
    3.3920    2.0880   21.4160 C   0  0  0  0  0  0  0  0  0  0  0  0
    4.4840    1.2640   21.2710 C   0  0  0  0  0  0  0  0  0  0  0  0
    4.9620    0.9190   19.9730 C   0  0  0  0  0  0  0  0  0  0  0  0
    4.9970    0.8850   22.1520 H   0  0  0  0  0  0  0  0  0  0  0  0
    3.0260    2.3480   22.4050 H   0  0  0  0  0  0  0  0  0  0  0  0
    1.8760    3.2700   20.4090 H   0  0  0  0  0  0  0  0  0  0  0  0
    2.6930    2.6930   18.1380 H   0  0  0  0  0  0  0  0  0  0  0  0
    4.2070    1.4360   16.6820 H   0  0  0  0  0  0  0  0  0  0  0  0
    7.2470   -0.8970   18.2060 H   0  0  0  0  0  0  0  0  0  0  0  0
    7.6520    0.2970   21.5130 C   0  0  0  0  0  0  0  0  0  0  0  0
    7.9550    1.4310   21.2330 O   0  0  0  0  0  0  0  0  0  0  0  0
    8.1000   -0.5420   22.7240 C   0  0  1  0  0  0  0  0  0  0  0  0
    7.0990   -0.3720   23.9130 C   0  0  0  0  0  0  0  0  0  0  0  0
    7.0820    0.9800   24.4140 N   0  0  0  0  0  0  0  0  0  0  0  0
    5.8720    1.5740   24.9780 C   0  0  0  0  0  0  0  0  0  0  0  0
    5.5310    2.8770   24.3140 C   0  0  0  0  0  0  0  0  0  0  0  0
    4.8310    3.9810   24.8080 C   0  0  0  0  0  0  0  0  0  0  0  0
    4.8510    4.9540   23.8950 N   0  0  0  0  0  0  0  0  0  0  0  0
    5.5300    4.4210   22.9030 N   0  0  0  0  0  0  0  0  0  0  0  0
    5.7350    5.0590   21.6170 C   0  0  0  0  0  0  0  0  0  0  0  0
    5.5810    6.1290   21.7410 H   0  0  0  0  0  0  0  0  0  0  0  0
    5.0390    4.6430   20.8810 H   0  0  0  0  0  0  0  0  0  0  0  0
    6.7580    4.8580   21.3010 H   0  0  0  0  0  0  0  0  0  0  0  0
    5.9470    3.1780   23.0900 N   0  0  0  0  0  0  0  0  0  0  0  0
    4.3050    4.0950   25.7430 H   0  0  0  0  0  0  0  0  0  0  0  0
    6.0020    1.7600   26.0500 H   0  0  0  0  0  0  0  0  0  0  0  0
    5.0410    0.8590   24.8770 H   0  0  0  0  0  0  0  0  0  0  0  0
    8.2340    1.6980   24.5080 C   0  0  0  0  0  0  0  0  0  0  0  0
    8.2050    2.8480   24.9170 O   0  0  0  0  0  0  0  0  0  0  0  0
    9.4970    1.0160   24.0630 C   0  0  0  0  0  0  0  0  0  0  0  0
   10.7220    1.5160   24.4920 C   0  0  0  0  0  0  0  0  0  0  0  0
   11.9130    0.9460   24.0910 C   0  0  0  0  0  0  0  0  0  0  0  0
   11.8630   -0.1120   23.1910 C   0  0  0  0  0  0  0  0  0  0  0  0
   13.0040   -0.6550   22.7300 F   0  0  0  0  0  0  0  0  0  0  0  0
   10.6660   -0.6060   22.7170 C   0  0  0  0  0  0  0  0  0  0  0  0
    9.4570   -0.0770   23.1850 C   0  0  0  0  0  0  0  0  0  0  0  0
   10.7140   -1.3970   21.9780 H   0  0  0  0  0  0  0  0  0  0  0  0
   12.8680    1.2960   24.4600 H   0  0  0  0  0  0  0  0  0  0  0  0
   10.7300    2.3710   25.1500 H   0  0  0  0  0  0  0  0  0  0  0  0
    7.3890   -1.0570   24.7210 H   0  0  0  0  0  0  0  0  0  0  0  0
    6.0860   -0.6390   23.5960 H   0  0  0  0  0  0  0  0  0  0  0  0
    5.8530   -2.1470   21.6570 H   0  0  0  0  0  0  0  0  0  0  0  0
    6.8830   -2.5310   20.2860 H   0  0  0  0  0  0  0  0  0  0  0  0
    8.8700   -2.1080   21.4780 H   0  0  0  0  0  0  0  0  0  0  0  0
    8.0400   -4.0770   22.6990 H   0  0  0  0  0  0  0  0  0  0  0  0
    8.7740   -2.9600   23.8720 H   0  0  0  0  0  0  0  0  0  0  0  0
    7.0180   -3.0520   23.7180 H   0  0  0  0  0  0  0  0  0  0  0  0
  1  2  1  0  0  0  0
  1 56  1  0  0  0  0
  1 57  1  0  0  0  0
  1 58  1  0  0  0  0
  2  3  1  0  0  0  0
  2 23  1  0  0  0  0
  2 55  1  6  0  0  0
  3  4  1  0  0  0  0
  3 53  1  0  0  0  0
  3 54  1  0  0  0  0
  4  5  1  0  0  0  0
  4 21  1  0  0  0  0
  5  6  2  0  0  0  0
  5 14  1  0  0  0  0
  6  7  1  0  0  0  0
  6 20  1  0  0  0  0
  7  8  2  0  0  0  0
  8  9  1  0  0  0  0
  8 19  1  0  0  0  0
  9 10  2  0  0  0  0
  9 14  1  0  0  0  0
 10 11  1  0  0  0  0
 10 18  1  0  0  0  0
 11 12  2  0  0  0  0
 11 17  1  0  0  0  0
 12 13  1  0  0  0  0
 12 16  1  0  0  0  0
 13 14  2  0  0  0  0
 13 15  1  0  0  0  0
 21 22  2  0  0  0  0
 23 21  1  6  0  0  0
 23 24  1  0  0  0  0
 23 47  1  0  0  0  0
 24 25  1  0  0  0  0
 24 51  1  0  0  0  0
 24 52  1  0  0  0  0
 25 26  1  0  0  0  0
 25 39  1  0  0  0  0
 26 27  1  0  0  0  0
 26 37  1  0  0  0  0
 26 38  1  0  0  0  0
 27 28  1  0  0  0  0
 27 35  2  0  0  0  0
 28 29  2  0  0  0  0
 28 36  1  0  0  0  0
 29 30  1  0  0  0  0
 30 31  1  0  0  0  0
 30 35  1  0  0  0  0
 31 32  1  0  0  0  0
 31 33  1  0  0  0  0
 31 34  1  0  0  0  0
 39 40  2  0  0  0  0
 39 41  1  0  0  0  0
 41 42  2  0  0  0  0
 41 47  1  0  0  0  0
 42 43  1  0  0  0  0
 42 50  1  0  0  0  0
 43 44  2  0  0  0  0
 43 49  1  0  0  0  0
 44 45  1  0  0  0  0
 44 46  1  0  0  0  0
 46 47  2  0  0  0  0
 46 48  1  0  0  0  0
M  END
>  <MODEL>
       1

$$$$
