output/tmp_first_model_15_45.pdb
 OpenBabel07232601353D

 60 64  0  0  1  0  0  0  0  0999 V2000
    6.5980    4.3640   21.3410 C   0  0  0  0  0  0  0  0  0  0  0  0
    7.5920    3.9780   22.3320 N   0  0  0  0  0  0  0  0  0  0  0  0
    7.1340    3.3180   23.4390 C   0  0  0  0  0  0  0  0  0  0  0  0
    5.9400    3.1270   23.6300 O   0  0  0  0  0  0  0  0  0  0  0  0
    8.1670    2.8210   24.4500 C   0  0  0  0  0  0  0  0  0  0  0  0
    8.8440    1.6300   23.9780 N   0  0  0  0  0  0  0  0  0  0  0  0
    8.0700    0.3960   23.8740 C   0  0  0  0  0  0  0  0  0  0  0  0
    8.4580   -0.3990   22.6070 C   0  0  2  0  0  0  0  0  0  0  0  0
    7.9700    0.2980   21.3180 C   0  0  0  0  0  0  0  0  0  0  0  0
    8.4560    1.2720   20.7730 O   0  0  0  0  0  0  0  0  0  0  0  0
    6.9010   -0.4090   20.8260 N   0  0  0  0  0  0  0  0  0  0  0  0
    6.1290    0.1020   19.7610 C   0  0  0  0  0  0  0  0  0  0  0  0
    6.4740   -0.1960   18.4680 C   0  0  0  0  0  0  0  0  0  0  0  0
    5.7890    0.2350   17.3870 N   0  0  0  0  0  0  0  0  0  0  0  0
    4.7510    1.0040   17.6010 C   0  0  0  0  0  0  0  0  0  0  0  0
    4.2940    1.3980   18.8910 C   0  0  0  0  0  0  0  0  0  0  0  0
    3.1760    2.2510   19.0690 C   0  0  0  0  0  0  0  0  0  0  0  0
    2.7770    2.6240   20.3230 C   0  0  0  0  0  0  0  0  0  0  0  0
    3.4770    2.1620   21.4610 C   0  0  0  0  0  0  0  0  0  0  0  0
    4.5620    1.3310   21.3160 C   0  0  0  0  0  0  0  0  0  0  0  0
    4.9990    0.9300   20.0220 C   0  0  0  0  0  0  0  0  0  0  0  0
    5.1180    1.0210   22.1970 H   0  0  0  0  0  0  0  0  0  0  0  0
    3.1750    2.4870   22.4510 H   0  0  0  0  0  0  0  0  0  0  0  0
    1.9240    3.2830   20.4470 H   0  0  0  0  0  0  0  0  0  0  0  0
    2.6670    2.6140   18.1810 H   0  0  0  0  0  0  0  0  0  0  0  0
    4.2120    1.3610   16.7250 H   0  0  0  0  0  0  0  0  0  0  0  0
    7.3420   -0.8230   18.2810 H   0  0  0  0  0  0  0  0  0  0  0  0
    6.5140   -1.5520   21.6240 C   0  0  0  0  0  0  0  0  0  0  0  0
    7.7400   -1.7780   22.5130 C   0  0  2  0  0  0  0  0  0  0  0  0
    7.3860   -2.4890   23.8040 C   0  0  0  0  0  0  0  0  0  0  0  0
    8.5620   -2.7190   24.5380 O   0  0  0  0  0  0  0  0  0  0  0  0
    8.3000   -3.3200   25.7820 C   0  0  0  0  0  0  0  0  0  0  0  0
    7.7400   -4.2580   25.6600 H   0  0  0  0  0  0  0  0  0  0  0  0
    7.7160   -2.6550   26.4370 H   0  0  0  0  0  0  0  0  0  0  0  0
    9.2600   -3.5410   26.2560 H   0  0  0  0  0  0  0  0  0  0  0  0
    6.8920   -3.4450   23.5620 H   0  0  0  0  0  0  0  0  0  0  0  0
    6.6700   -1.8860   24.3850 H   0  0  0  0  0  0  0  0  0  0  0  0
    8.4170   -2.4520   21.9880 H   0  0  0  0  0  0  0  0  0  0  0  0
    5.6140   -1.3440   22.2260 H   0  0  0  0  0  0  0  0  0  0  0  0
    6.3040   -2.4190   20.9890 H   0  0  0  0  0  0  0  0  0  0  0  0
    9.9630   -0.4710   22.5350 C   0  0  0  0  0  0  0  0  0  0  0  0
   10.5310   -1.3600   21.6260 C   0  0  0  0  0  0  0  0  0  0  0  0
   11.8900   -1.3950   21.4430 C   0  0  0  0  0  0  0  0  0  0  0  0
   12.4490   -2.4770   20.2090 Cl  0  0  0  0  0  0  0  0  0  0  0  0
   12.7450   -0.5860   22.1900 C   0  0  0  0  0  0  0  0  0  0  0  0
   12.1900    0.3280   23.0690 C   0  0  0  0  0  0  0  0  0  0  0  0
   10.8020    0.4360   23.1900 C   0  0  0  0  0  0  0  0  0  0  0  0
   10.2190    1.6060   23.9310 C   0  0  0  0  0  0  0  0  0  0  0  0
   10.9210    2.4800   24.4150 O   0  0  0  0  0  0  0  0  0  0  0  0
   12.8160    0.9980   23.6500 H   0  0  0  0  0  0  0  0  0  0  0  0
   13.8130   -0.6500   22.0380 H   0  0  0  0  0  0  0  0  0  0  0  0
    9.9490   -2.0320   21.0080 H   0  0  0  0  0  0  0  0  0  0  0  0
    7.0020    0.6470   23.8380 H   0  0  0  0  0  0  0  0  0  0  0  0
    8.2590   -0.2390   24.7520 H   0  0  0  0  0  0  0  0  0  0  0  0
    7.6250    2.6100   25.3770 H   0  0  0  0  0  0  0  0  0  0  0  0
    8.9380    3.5590   24.6790 H   0  0  0  0  0  0  0  0  0  0  0  0
    8.5060    3.7580   21.9660 H   0  0  0  0  0  0  0  0  0  0  0  0
    7.0670    4.9730   20.5600 H   0  0  0  0  0  0  0  0  0  0  0  0
    6.1220    3.4730   20.9050 H   0  0  0  0  0  0  0  0  0  0  0  0
    5.8240    4.9620   21.8240 H   0  0  0  0  0  0  0  0  0  0  0  0
  1  2  1  0  0  0  0
  1 58  1  0  0  0  0
  1 59  1  0  0  0  0
  1 60  1  0  0  0  0
  2  3  1  0  0  0  0
  2 57  1  0  0  0  0
  3  4  2  0  0  0  0
  3  5  1  0  0  0  0
  5  6  1  0  0  0  0
  5 55  1  0  0  0  0
  5 56  1  0  0  0  0
  6  7  1  0  0  0  0
  6 48  1  0  0  0  0
  7  8  1  0  0  0  0
  7 53  1  0  0  0  0
  7 54  1  0  0  0  0
  8  9  1  6  0  0  0
  8 29  1  0  0  0  0
  8 41  1  0  0  0  0
  9 10  2  0  0  0  0
  9 11  1  0  0  0  0
 11 12  1  0  0  0  0
 11 28  1  0  0  0  0
 12 13  2  0  0  0  0
 12 21  1  0  0  0  0
 13 14  1  0  0  0  0
 13 27  1  0  0  0  0
 14 15  2  0  0  0  0
 15 16  1  0  0  0  0
 15 26  1  0  0  0  0
 16 17  2  0  0  0  0
 16 21  1  0  0  0  0
 17 18  1  0  0  0  0
 17 25  1  0  0  0  0
 18 19  2  0  0  0  0
 18 24  1  0  0  0  0
 19 20  1  0  0  0  0
 19 23  1  0  0  0  0
 20 21  2  0  0  0  0
 20 22  1  0  0  0  0
 28 29  1  0  0  0  0
 28 39  1  0  0  0  0
 28 40  1  0  0  0  0
 29 30  1  0  0  0  0
 29 38  1  6  0  0  0
 30 31  1  0  0  0  0
 30 36  1  0  0  0  0
 30 37  1  0  0  0  0
 31 32  1  0  0  0  0
 32 33  1  0  0  0  0
 32 34  1  0  0  0  0
 32 35  1  0  0  0  0
 41 42  2  0  0  0  0
 41 47  1  0  0  0  0
 42 43  1  0  0  0  0
 42 52  1  0  0  0  0
 43 44  1  0  0  0  0
 43 45  2  0  0  0  0
 45 46  1  0  0  0  0
 45 51  1  0  0  0  0
 46 47  2  0  0  0  0
 46 50  1  0  0  0  0
 47 48  1  0  0  0  0
 48 49  2  0  0  0  0
M  END
>  <MODEL>
       1

$$$$
