output/tmp_first_model_16_31.pdb
 OpenBabel07232602073D

 64 70  0  0  1  0  0  0  0  0999 V2000
   10.5150    2.4730   24.7150 O   0  0  0  0  0  0  0  0  0  0  0  0
    9.8700    1.6010   24.1530 C   0  0  0  0  0  0  0  0  0  0  0  0
   10.5310    0.4860   23.3780 C   0  0  0  0  0  0  0  0  0  0  0  0
   11.9220    0.4760   23.2770 C   0  0  0  0  0  0  0  0  0  0  0  0
   12.5670   -0.3530   22.3800 C   0  0  0  0  0  0  0  0  0  0  0  0
   11.7960   -1.1870   21.5650 C   0  0  0  0  0  0  0  0  0  0  0  0
   12.5150   -2.0920   20.2580 Cl  0  0  0  0  0  0  0  0  0  0  0  0
   10.4280   -1.2550   21.7230 C   0  0  0  0  0  0  0  0  0  0  0  0
    9.7750   -0.4410   22.6590 C   0  0  0  0  0  0  0  0  0  0  0  0
    8.2620   -0.4160   22.6930 C   0  0  1  0  0  0  0  0  0  0  0  0
    7.7760    0.3430   23.9560 C   0  0  0  0  0  0  0  0  0  0  0  0
    8.4930    1.5980   24.1350 N   0  0  0  0  0  0  0  0  0  0  0  0
    7.7860    2.8300   24.4500 C   0  0  0  0  0  0  0  0  0  0  0  0
    7.5480    3.7240   23.2710 C   0  0  0  0  0  0  0  0  0  0  0  0
    7.9750    4.9180   23.0260 N   0  0  0  0  0  0  0  0  0  0  0  0
    7.3280    5.3340   21.8660 N   0  0  0  0  0  0  0  0  0  0  0  0
    6.5570    4.3640   21.5210 C   0  0  0  0  0  0  0  0  0  0  0  0
    6.6380    3.3050   22.3620 O   0  0  0  0  0  0  0  0  0  0  0  0
    5.8740    4.3110   20.6850 H   0  0  0  0  0  0  0  0  0  0  0  0
    8.3620    3.3780   25.2000 H   0  0  0  0  0  0  0  0  0  0  0  0
    6.7990    2.5870   24.8650 H   0  0  0  0  0  0  0  0  0  0  0  0
    7.9280   -0.2860   24.8450 H   0  0  0  0  0  0  0  0  0  0  0  0
    6.7080    0.5720   23.8610 H   0  0  0  0  0  0  0  0  0  0  0  0
    7.7810    0.3170   21.4250 C   0  0  0  0  0  0  0  0  0  0  0  0
    8.1950    1.3600   20.9720 O   0  0  0  0  0  0  0  0  0  0  0  0
    6.7940   -0.4440   20.8410 N   0  0  0  0  0  0  0  0  0  0  0  0
    6.0610    0.0800   19.7550 C   0  0  0  0  0  0  0  0  0  0  0  0
    6.4410   -0.1980   18.4710 C   0  0  0  0  0  0  0  0  0  0  0  0
    5.7810    0.2620   17.3830 N   0  0  0  0  0  0  0  0  0  0  0  0
    4.7430    1.0360   17.5820 C   0  0  0  0  0  0  0  0  0  0  0  0
    4.2720    1.4270   18.8700 C   0  0  0  0  0  0  0  0  0  0  0  0
    3.1630    2.2960   19.0520 C   0  0  0  0  0  0  0  0  0  0  0  0
    2.7410    2.6270   20.3100 C   0  0  0  0  0  0  0  0  0  0  0  0
    3.4010    2.1130   21.4480 C   0  0  0  0  0  0  0  0  0  0  0  0
    4.4890    1.2880   21.3010 C   0  0  0  0  0  0  0  0  0  0  0  0
    4.9450    0.9270   20.0010 C   0  0  0  0  0  0  0  0  0  0  0  0
    5.0190    0.9280   22.1780 H   0  0  0  0  0  0  0  0  0  0  0  0
    3.0650    2.3930   22.4430 H   0  0  0  0  0  0  0  0  0  0  0  0
    1.8970    3.2990   20.4430 H   0  0  0  0  0  0  0  0  0  0  0  0
    2.6690    2.6850   18.1670 H   0  0  0  0  0  0  0  0  0  0  0  0
    4.2150    1.3950   16.6990 H   0  0  0  0  0  0  0  0  0  0  0  0
    7.3180   -0.8150   18.2840 H   0  0  0  0  0  0  0  0  0  0  0  0
    6.3940   -1.6110   21.5950 C   0  0  0  0  0  0  0  0  0  0  0  0
    7.6040   -1.8110   22.5160 C   0  0  2  0  0  0  0  0  0  0  0  0
    7.3460   -2.6290   23.7840 C   0  0  0  0  0  0  0  0  0  0  0  0
    7.0800   -4.0260   23.5170 N   0  0  0  0  0  0  0  0  0  0  0  0
    5.8810   -4.5510   23.1510 C   0  0  0  0  0  0  0  0  0  0  0  0
    4.6500   -3.9820   23.5190 C   0  0  0  0  0  0  0  0  0  0  0  0
    3.5200   -4.6830   23.1440 C   0  0  0  0  0  0  0  0  0  0  0  0
    3.5440   -5.8170   22.4370 N   0  0  0  0  0  0  0  0  0  0  0  0
    4.7610   -6.2470   22.1330 C   0  0  0  0  0  0  0  0  0  0  0  0
    5.9280   -5.6980   22.4500 N   0  0  0  0  0  0  0  0  0  0  0  0
    4.8080   -7.1650   21.5490 H   0  0  0  0  0  0  0  0  0  0  0  0
    2.5250   -4.3290   23.4050 H   0  0  0  0  0  0  0  0  0  0  0  0
    4.5880   -3.0540   24.0840 H   0  0  0  0  0  0  0  0  0  0  0  0
    7.8620   -4.5730   23.1940 H   0  0  0  0  0  0  0  0  0  0  0  0
    6.5170   -2.2060   24.3560 H   0  0  0  0  0  0  0  0  0  0  0  0
    8.2330   -2.5830   24.4260 H   0  0  0  0  0  0  0  0  0  0  0  0
    8.3240   -2.3850   21.9340 H   0  0  0  0  0  0  0  0  0  0  0  0
    6.2290   -2.4520   20.9160 H   0  0  0  0  0  0  0  0  0  0  0  0
    5.4540   -1.4490   22.1510 H   0  0  0  0  0  0  0  0  0  0  0  0
    9.8720   -1.9120   21.0670 H   0  0  0  0  0  0  0  0  0  0  0  0
   13.6460   -0.3310   22.2930 H   0  0  0  0  0  0  0  0  0  0  0  0
   12.4840    1.1640   23.8940 H   0  0  0  0  0  0  0  0  0  0  0  0
  1  2  2  0  0  0  0
  2  3  1  0  0  0  0
  2 12  1  0  0  0  0
  3  4  2  0  0  0  0
  3  9  1  0  0  0  0
  4  5  1  0  0  0  0
  4 64  1  0  0  0  0
  5  6  2  0  0  0  0
  5 63  1  0  0  0  0
  6  7  1  0  0  0  0
  6  8  1  0  0  0  0
  8  9  2  0  0  0  0
  8 62  1  0  0  0  0
 10  9  1  1  0  0  0
 10 11  1  0  0  0  0
 10 24  1  0  0  0  0
 10 44  1  0  0  0  0
 11 12  1  0  0  0  0
 11 22  1  0  0  0  0
 11 23  1  0  0  0  0
 12 13  1  0  0  0  0
 13 14  1  0  0  0  0
 13 20  1  0  0  0  0
 13 21  1  0  0  0  0
 14 15  2  0  0  0  0
 14 18  1  0  0  0  0
 15 16  1  0  0  0  0
 16 17  2  0  0  0  0
 17 18  1  0  0  0  0
 17 19  1  0  0  0  0
 24 25  2  0  0  0  0
 24 26  1  0  0  0  0
 26 27  1  0  0  0  0
 26 43  1  0  0  0  0
 27 28  2  0  0  0  0
 27 36  1  0  0  0  0
 28 29  1  0  0  0  0
 28 42  1  0  0  0  0
 29 30  2  0  0  0  0
 30 31  1  0  0  0  0
 30 41  1  0  0  0  0
 31 32  2  0  0  0  0
 31 36  1  0  0  0  0
 32 33  1  0  0  0  0
 32 40  1  0  0  0  0
 33 34  2  0  0  0  0
 33 39  1  0  0  0  0
 34 35  1  0  0  0  0
 34 38  1  0  0  0  0
 35 36  2  0  0  0  0
 35 37  1  0  0  0  0
 43 44  1  0  0  0  0
 43 60  1  0  0  0  0
 43 61  1  0  0  0  0
 44 45  1  0  0  0  0
 44 59  1  6  0  0  0
 45 46  1  0  0  0  0
 45 57  1  0  0  0  0
 45 58  1  0  0  0  0
 46 47  1  0  0  0  0
 46 56  1  0  0  0  0
 47 48  2  0  0  0  0
 47 52  1  0  0  0  0
 48 49  1  0  0  0  0
 48 55  1  0  0  0  0
 49 50  2  0  0  0  0
 49 54  1  0  0  0  0
 50 51  1  0  0  0  0
 51 52  2  0  0  0  0
 51 53  1  0  0  0  0
M  END
>  <MODEL>
       1

$$$$
