output/tmp_first_model_20_26.pdb
 OpenBabel07232603433D

 43 47  0  0  1  0  0  0  0  0999 V2000
    8.7370    0.6530   20.6530 O   0  0  0  0  0  0  0  0  0  0  0  0
    8.1030   -0.2680   21.1050 C   0  0  0  0  0  0  0  0  0  0  0  0
    8.5250   -1.3150   21.8980 N   0  0  0  0  0  0  0  0  0  0  0  0
    7.4080   -1.9460   22.5810 C   0  0  1  0  0  0  0  0  0  0  0  0
    7.5320   -3.4560   22.8130 C   0  0  0  0  0  0  0  0  0  0  0  0
    7.8520   -3.2040   24.3080 C   0  0  2  0  0  0  0  0  0  0  0  0
    7.1630   -4.0160   25.3800 C   0  0  0  0  0  0  0  0  0  0  0  0
    7.9100   -4.5290   26.4480 C   0  0  0  0  0  0  0  0  0  0  0  0
    7.3530   -5.3490   27.4250 C   0  0  0  0  0  0  0  0  0  0  0  0
    6.0000   -5.6670   27.3790 C   0  0  0  0  0  0  0  0  0  0  0  0
    5.2180   -5.1200   26.3720 C   0  0  0  0  0  0  0  0  0  0  0  0
    5.7880   -4.2800   25.4230 C   0  0  0  0  0  0  0  0  0  0  0  0
    4.6740   -3.5140   24.3320 Cl  0  0  0  0  0  0  0  0  0  0  0  0
    4.1430   -5.2620   26.3630 H   0  0  0  0  0  0  0  0  0  0  0  0
    5.5510   -6.3340   28.1110 H   0  0  0  0  0  0  0  0  0  0  0  0
    7.9770   -5.7530   28.2190 H   0  0  0  0  0  0  0  0  0  0  0  0
    8.9520   -4.2290   26.5290 H   0  0  0  0  0  0  0  0  0  0  0  0
    7.4250   -1.7230   24.1100 C   0  0  0  0  0  0  0  0  0  0  0  0
    8.1510   -0.9700   24.4290 H   0  0  0  0  0  0  0  0  0  0  0  0
    6.4590   -1.4840   24.5470 H   0  0  0  0  0  0  0  0  0  0  0  0
    8.9340   -3.2430   24.4740 H   0  0  0  0  0  0  0  0  0  0  0  0
    6.5960   -3.9840   22.6630 H   0  0  0  0  0  0  0  0  0  0  0  0
    8.3030   -3.8970   22.1960 H   0  0  0  0  0  0  0  0  0  0  0  0
    6.2310   -1.4690   21.7520 C   0  0  0  0  0  0  0  0  0  0  0  0
    5.0940   -1.8740   21.7660 O   0  0  0  0  0  0  0  0  0  0  0  0
    6.7270   -0.4690   20.9100 N   0  0  0  0  0  0  0  0  0  0  0  0
    6.0140    0.1110   19.8240 C   0  0  0  0  0  0  0  0  0  0  0  0
    6.4090   -0.1550   18.5400 C   0  0  0  0  0  0  0  0  0  0  0  0
    5.7710    0.3180   17.4450 N   0  0  0  0  0  0  0  0  0  0  0  0
    4.7170    1.0760   17.6210 C   0  0  0  0  0  0  0  0  0  0  0  0
    4.2090    1.4550   18.8940 C   0  0  0  0  0  0  0  0  0  0  0  0
    3.0860    2.3210   19.0490 C   0  0  0  0  0  0  0  0  0  0  0  0
    2.6920    2.7090   20.3010 C   0  0  0  0  0  0  0  0  0  0  0  0
    3.3890    2.2460   21.4440 C   0  0  0  0  0  0  0  0  0  0  0  0
    4.4590    1.3940   21.3170 C   0  0  0  0  0  0  0  0  0  0  0  0
    4.8910    0.9730   20.0340 C   0  0  0  0  0  0  0  0  0  0  0  0
    5.0020    1.0280   22.1840 H   0  0  0  0  0  0  0  0  0  0  0  0
    3.0950    2.5790   22.4330 H   0  0  0  0  0  0  0  0  0  0  0  0
    1.8590    3.4000   20.4300 H   0  0  0  0  0  0  0  0  0  0  0  0
    2.5790    2.6960   18.1600 H   0  0  0  0  0  0  0  0  0  0  0  0
    4.2310    1.4480   16.7190 H   0  0  0  0  0  0  0  0  0  0  0  0
    7.2770   -0.7840   18.3500 H   0  0  0  0  0  0  0  0  0  0  0  0
    9.3930   -1.2030   22.4030 H   0  0  0  0  0  0  0  0  0  0  0  0
  1  2  2  0  0  0  0
  2  3  1  0  0  0  0
  2 26  1  0  0  0  0
  3  4  1  0  0  0  0
  3 43  1  0  0  0  0
  4  5  1  0  0  0  0
  4 18  1  0  0  0  0
  4 24  1  6  0  0  0
  5  6  1  0  0  0  0
  5 22  1  0  0  0  0
  5 23  1  0  0  0  0
  6  7  1  0  0  0  0
  6 18  1  0  0  0  0
  6 21  1  1  0  0  0
  7  8  2  0  0  0  0
  7 12  1  0  0  0  0
  8  9  1  0  0  0  0
  8 17  1  0  0  0  0
  9 10  2  0  0  0  0
  9 16  1  0  0  0  0
 10 11  1  0  0  0  0
 10 15  1  0  0  0  0
 11 12  2  0  0  0  0
 11 14  1  0  0  0  0
 12 13  1  0  0  0  0
 18 19  1  0  0  0  0
 18 20  1  0  0  0  0
 24 25  2  0  0  0  0
 24 26  1  0  0  0  0
 26 27  1  0  0  0  0
 27 28  2  0  0  0  0
 27 36  1  0  0  0  0
 28 29  1  0  0  0  0
 28 42  1  0  0  0  0
 29 30  2  0  0  0  0
 30 31  1  0  0  0  0
 30 41  1  0  0  0  0
 31 32  2  0  0  0  0
 31 36  1  0  0  0  0
 32 33  1  0  0  0  0
 32 40  1  0  0  0  0
 33 34  2  0  0  0  0
 33 39  1  0  0  0  0
 34 35  1  0  0  0  0
 34 38  1  0  0  0  0
 35 36  2  0  0  0  0
 35 37  1  0  0  0  0
M  END
>  <MODEL>
       1

$$$$
