output/tmp_first_model_15_5.pdb
 OpenBabel07232601353D

 50 54  0  0  1  0  0  0  0  0999 V2000
    7.0260   -2.4610   23.4760 C   0  0  0  0  0  0  0  0  0  0  0  0
    7.9160   -1.8850   22.3710 C   0  0  1  0  0  0  0  0  0  0  0  0
    7.1920   -1.7970   21.0110 C   0  0  0  0  0  0  0  0  0  0  0  0
    6.8880   -0.3940   20.8560 N   0  0  0  0  0  0  0  0  0  0  0  0
    6.1130    0.0980   19.7890 C   0  0  0  0  0  0  0  0  0  0  0  0
    6.4320   -0.2380   18.4980 C   0  0  0  0  0  0  0  0  0  0  0  0
    5.7710    0.2110   17.4080 N   0  0  0  0  0  0  0  0  0  0  0  0
    4.7530    1.0110   17.6050 C   0  0  0  0  0  0  0  0  0  0  0  0
    4.2940    1.4020   18.8940 C   0  0  0  0  0  0  0  0  0  0  0  0
    3.1710    2.2520   19.0540 C   0  0  0  0  0  0  0  0  0  0  0  0
    2.7370    2.6040   20.3010 C   0  0  0  0  0  0  0  0  0  0  0  0
    3.3960    2.1110   21.4480 C   0  0  0  0  0  0  0  0  0  0  0  0
    4.4830    1.2850   21.3220 C   0  0  0  0  0  0  0  0  0  0  0  0
    4.9760    0.9290   20.0330 C   0  0  0  0  0  0  0  0  0  0  0  0
    4.9780    0.9110   22.2110 H   0  0  0  0  0  0  0  0  0  0  0  0
    3.0360    2.3910   22.4340 H   0  0  0  0  0  0  0  0  0  0  0  0
    1.8820    3.2620   20.4170 H   0  0  0  0  0  0  0  0  0  0  0  0
    2.6800    2.6250   18.1610 H   0  0  0  0  0  0  0  0  0  0  0  0
    4.2240    1.3810   16.7270 H   0  0  0  0  0  0  0  0  0  0  0  0
    7.2880   -0.8840   18.3030 H   0  0  0  0  0  0  0  0  0  0  0  0
    7.6600    0.4280   21.6460 C   0  0  0  0  0  0  0  0  0  0  0  0
    7.6720    1.6400   21.5690 O   0  0  0  0  0  0  0  0  0  0  0  0
    8.4720   -0.4480   22.6260 C   0  0  1  0  0  0  0  0  0  0  0  0
    8.2770    0.0600   24.0620 C   0  0  0  0  0  0  0  0  0  0  0  0
    8.8120    1.3940   24.1910 N   0  0  0  0  0  0  0  0  0  0  0  0
    7.9830    2.4000   24.8010 C   0  0  0  0  0  0  0  0  0  0  0  0
    7.9630    2.2160   26.2620 C   0  0  0  0  0  0  0  0  0  0  0  0
    8.0720    2.0190   27.3940 N   0  0  0  0  0  0  0  0  0  0  0  0
    8.3840    3.3870   24.5410 H   0  0  0  0  0  0  0  0  0  0  0  0
    6.9670    2.2830   24.4000 H   0  0  0  0  0  0  0  0  0  0  0  0
   10.1240    1.6610   23.9010 C   0  0  0  0  0  0  0  0  0  0  0  0
   10.7020    2.6420   24.3380 O   0  0  0  0  0  0  0  0  0  0  0  0
   10.7460    0.6790   22.9560 C   0  0  0  0  0  0  0  0  0  0  0  0
   12.1020    0.8100   22.6530 C   0  0  0  0  0  0  0  0  0  0  0  0
   12.7240   -0.0810   21.7970 C   0  0  0  0  0  0  0  0  0  0  0  0
   11.9280   -1.0760   21.2420 C   0  0  0  0  0  0  0  0  0  0  0  0
   12.4530   -1.9990   20.4290 F   0  0  0  0  0  0  0  0  0  0  0  0
   10.5730   -1.1710   21.4520 C   0  0  0  0  0  0  0  0  0  0  0  0
    9.9610   -0.3170   22.3570 C   0  0  0  0  0  0  0  0  0  0  0  0
   10.0360   -1.9400   20.9130 H   0  0  0  0  0  0  0  0  0  0  0  0
   13.7810   -0.0130   21.5510 H   0  0  0  0  0  0  0  0  0  0  0  0
   12.6400    1.6340   23.1090 H   0  0  0  0  0  0  0  0  0  0  0  0
    8.7830   -0.6180   24.7630 H   0  0  0  0  0  0  0  0  0  0  0  0
    7.2200    0.0850   24.3210 H   0  0  0  0  0  0  0  0  0  0  0  0
    6.2660   -2.3780   20.9780 H   0  0  0  0  0  0  0  0  0  0  0  0
    7.8420   -2.1480   20.1990 H   0  0  0  0  0  0  0  0  0  0  0  0
    8.7520   -2.5850   22.3010 H   0  0  0  0  0  0  0  0  0  0  0  0
    6.1320   -1.8540   23.6470 H   0  0  0  0  0  0  0  0  0  0  0  0
    6.7070   -3.4750   23.2100 H   0  0  0  0  0  0  0  0  0  0  0  0
    7.5810   -2.5320   24.4180 H   0  0  0  0  0  0  0  0  0  0  0  0
  1  2  1  0  0  0  0
  1 48  1  0  0  0  0
  1 49  1  0  0  0  0
  1 50  1  0  0  0  0
  2  3  1  0  0  0  0
  2 23  1  0  0  0  0
  2 47  1  6  0  0  0
  3  4  1  0  0  0  0
  3 45  1  0  0  0  0
  3 46  1  0  0  0  0
  4  5  1  0  0  0  0
  4 21  1  0  0  0  0
  5  6  2  0  0  0  0
  5 14  1  0  0  0  0
  6  7  1  0  0  0  0
  6 20  1  0  0  0  0
  7  8  2  0  0  0  0
  8  9  1  0  0  0  0
  8 19  1  0  0  0  0
  9 10  2  0  0  0  0
  9 14  1  0  0  0  0
 10 11  1  0  0  0  0
 10 18  1  0  0  0  0
 11 12  2  0  0  0  0
 11 17  1  0  0  0  0
 12 13  1  0  0  0  0
 12 16  1  0  0  0  0
 13 14  2  0  0  0  0
 13 15  1  0  0  0  0
 21 22  2  0  0  0  0
 23 21  1  6  0  0  0
 23 24  1  0  0  0  0
 23 39  1  0  0  0  0
 24 25  1  0  0  0  0
 24 43  1  0  0  0  0
 24 44  1  0  0  0  0
 25 26  1  0  0  0  0
 25 31  1  0  0  0  0
 26 27  1  0  0  0  0
 26 29  1  0  0  0  0
 26 30  1  0  0  0  0
 27 28  3  0  0  0  0
 31 32  2  0  0  0  0
 31 33  1  0  0  0  0
 33 34  2  0  0  0  0
 33 39  1  0  0  0  0
 34 35  1  0  0  0  0
 34 42  1  0  0  0  0
 35 36  2  0  0  0  0
 35 41  1  0  0  0  0
 36 37  1  0  0  0  0
 36 38  1  0  0  0  0
 38 39  2  0  0  0  0
 38 40  1  0  0  0  0
M  END
>  <MODEL>
       1

$$$$
