output/tmp_first_model_6_3.pdb
 OpenBabel07222621163D

 67 73  0  0  1  0  0  0  0  0999 V2000
    9.7830   -0.9280   26.4680 O   0  0  0  0  0  0  0  0  0  0  0  0
    9.3250   -0.6430   25.3780 C   0  0  0  0  0  0  0  0  0  0  0  0
   10.2490   -0.2720   24.2820 C   0  0  0  0  0  0  0  0  0  0  0  0
   11.5900   -0.1060   24.6290 C   0  0  0  0  0  0  0  0  0  0  0  0
   12.5360    0.0680   23.6470 C   0  0  0  0  0  0  0  0  0  0  0  0
   12.1180    0.0490   22.3170 C   0  0  0  0  0  0  0  0  0  0  0  0
   13.3800    0.2490   21.1460 Cl  0  0  0  0  0  0  0  0  0  0  0  0
   10.7870   -0.1250   21.9600 C   0  0  0  0  0  0  0  0  0  0  0  0
    9.8120   -0.2350   22.9610 C   0  0  0  0  0  0  0  0  0  0  0  0
    8.3480   -0.4280   22.6220 C   0  0  1  0  0  0  0  0  0  0  0  0
    7.4810   -0.0890   23.8730 C   0  0  0  0  0  0  0  0  0  0  0  0
    7.9940   -0.6960   25.0910 N   0  0  0  0  0  0  0  0  0  0  0  0
    7.1110   -1.0790   26.1890 C   0  0  0  0  0  0  0  0  0  0  0  0
    6.6750    0.0650   27.0870 C   0  0  0  0  0  0  0  0  0  0  0  0
    5.6110    0.8800   26.7770 C   0  0  0  0  0  0  0  0  0  0  0  0
    5.2560    1.8650   27.6990 C   0  0  0  0  0  0  0  0  0  0  0  0
    5.8940    2.0680   28.8460 N   0  0  0  0  0  0  0  0  0  0  0  0
    6.9400    1.3080   29.1440 N   0  0  0  0  0  0  0  0  0  0  0  0
    7.3140    0.3490   28.3010 C   0  0  0  0  0  0  0  0  0  0  0  0
    8.1830   -0.2230   28.6180 H   0  0  0  0  0  0  0  0  0  0  0  0
    4.4070    2.5220   27.5220 H   0  0  0  0  0  0  0  0  0  0  0  0
    5.0590    0.7580   25.8430 H   0  0  0  0  0  0  0  0  0  0  0  0
    6.2290   -1.5800   25.7750 H   0  0  0  0  0  0  0  0  0  0  0  0
    7.6560   -1.8120   26.7860 H   0  0  0  0  0  0  0  0  0  0  0  0
    7.4580    1.0050   23.9700 H   0  0  0  0  0  0  0  0  0  0  0  0
    6.4530   -0.4350   23.7020 H   0  0  0  0  0  0  0  0  0  0  0  0
    7.8300    0.4790   21.4840 C   0  0  0  0  0  0  0  0  0  0  0  0
    8.0790    1.6500   21.2800 O   0  0  0  0  0  0  0  0  0  0  0  0
    6.9470   -0.2690   20.7280 N   0  0  0  0  0  0  0  0  0  0  0  0
    6.1520    0.2270   19.6750 C   0  0  0  0  0  0  0  0  0  0  0  0
    6.4180   -0.1680   18.3900 C   0  0  0  0  0  0  0  0  0  0  0  0
    5.7370    0.2550   17.3000 N   0  0  0  0  0  0  0  0  0  0  0  0
    4.7280    1.0690   17.5040 C   0  0  0  0  0  0  0  0  0  0  0  0
    4.2850    1.4830   18.7950 C   0  0  0  0  0  0  0  0  0  0  0  0
    3.1520    2.3230   18.9750 C   0  0  0  0  0  0  0  0  0  0  0  0
    2.7150    2.6360   20.2330 C   0  0  0  0  0  0  0  0  0  0  0  0
    3.3840    2.1310   21.3710 C   0  0  0  0  0  0  0  0  0  0  0  0
    4.4970    1.3410   21.2240 C   0  0  0  0  0  0  0  0  0  0  0  0
    4.9890    1.0210   19.9280 C   0  0  0  0  0  0  0  0  0  0  0  0
    5.0050    0.9460   22.1000 H   0  0  0  0  0  0  0  0  0  0  0  0
    3.0200    2.3800   22.3630 H   0  0  0  0  0  0  0  0  0  0  0  0
    1.8490    3.2800   20.3680 H   0  0  0  0  0  0  0  0  0  0  0  0
    2.6470    2.7080   18.0920 H   0  0  0  0  0  0  0  0  0  0  0  0
    4.1970    1.4270   16.6210 H   0  0  0  0  0  0  0  0  0  0  0  0
    7.2380   -0.8610   18.2030 H   0  0  0  0  0  0  0  0  0  0  0  0
    6.8120   -1.6370   21.1610 C   0  0  0  0  0  0  0  0  0  0  0  0
    8.0610   -1.8390   22.0050 C   0  0  2  0  0  0  0  0  0  0  0  0
    7.8880   -2.9890   22.9750 C   0  0  0  0  0  0  0  0  0  0  0  0
    7.4910   -4.1980   22.2650 N   0  0  0  0  0  0  0  0  0  0  0  0
    7.1230   -5.2900   23.0030 C   0  0  0  0  0  0  0  0  0  0  0  0
    6.9800   -6.5640   22.4160 C   0  0  0  0  0  0  0  0  0  0  0  0
    6.6020   -7.5840   23.2600 C   0  0  0  0  0  0  0  0  0  0  0  0
    6.3750   -7.4180   24.5750 N   0  0  0  0  0  0  0  0  0  0  0  0
    6.5380   -6.1790   25.0070 C   0  0  0  0  0  0  0  0  0  0  0  0
    6.8710   -5.1000   24.3020 N   0  0  0  0  0  0  0  0  0  0  0  0
    6.3860   -6.0060   26.0730 H   0  0  0  0  0  0  0  0  0  0  0  0
    6.4910   -8.6020   22.8880 H   0  0  0  0  0  0  0  0  0  0  0  0
    7.1860   -6.7360   21.3620 H   0  0  0  0  0  0  0  0  0  0  0  0
    8.0700   -4.4060   21.4640 H   0  0  0  0  0  0  0  0  0  0  0  0
    7.0950   -2.7660   23.6820 H   0  0  0  0  0  0  0  0  0  0  0  0
    8.7990   -3.1500   23.5630 H   0  0  0  0  0  0  0  0  0  0  0  0
    8.9090   -2.0540   21.3380 H   0  0  0  0  0  0  0  0  0  0  0  0
    6.7400   -2.2970   20.2950 H   0  0  0  0  0  0  0  0  0  0  0  0
    5.9070   -1.7880   21.7740 H   0  0  0  0  0  0  0  0  0  0  0  0
   10.4920   -0.2020   20.9190 H   0  0  0  0  0  0  0  0  0  0  0  0
   13.5950    0.1590   23.8730 H   0  0  0  0  0  0  0  0  0  0  0  0
   11.8590   -0.1230   25.6800 H   0  0  0  0  0  0  0  0  0  0  0  0
  1  2  2  0  0  0  0
  2  3  1  0  0  0  0
  2 12  1  0  0  0  0
  3  4  2  0  0  0  0
  3  9  1  0  0  0  0
  4  5  1  0  0  0  0
  4 67  1  0  0  0  0
  5  6  2  0  0  0  0
  5 66  1  0  0  0  0
  6  7  1  0  0  0  0
  6  8  1  0  0  0  0
  8  9  2  0  0  0  0
  8 65  1  0  0  0  0
 10  9  1  1  0  0  0
 10 11  1  0  0  0  0
 10 27  1  0  0  0  0
 10 47  1  0  0  0  0
 11 12  1  0  0  0  0
 11 25  1  0  0  0  0
 11 26  1  0  0  0  0
 12 13  1  0  0  0  0
 13 14  1  0  0  0  0
 13 23  1  0  0  0  0
 13 24  1  0  0  0  0
 14 15  2  0  0  0  0
 14 19  1  0  0  0  0
 15 16  1  0  0  0  0
 15 22  1  0  0  0  0
 16 17  2  0  0  0  0
 16 21  1  0  0  0  0
 17 18  1  0  0  0  0
 18 19  2  0  0  0  0
 19 20  1  0  0  0  0
 27 28  2  0  0  0  0
 27 29  1  0  0  0  0
 29 30  1  0  0  0  0
 29 46  1  0  0  0  0
 30 31  2  0  0  0  0
 30 39  1  0  0  0  0
 31 32  1  0  0  0  0
 31 45  1  0  0  0  0
 32 33  2  0  0  0  0
 33 34  1  0  0  0  0
 33 44  1  0  0  0  0
 34 35  2  0  0  0  0
 34 39  1  0  0  0  0
 35 36  1  0  0  0  0
 35 43  1  0  0  0  0
 36 37  2  0  0  0  0
 36 42  1  0  0  0  0
 37 38  1  0  0  0  0
 37 41  1  0  0  0  0
 38 39  2  0  0  0  0
 38 40  1  0  0  0  0
 46 47  1  0  0  0  0
 46 63  1  0  0  0  0
 46 64  1  0  0  0  0
 47 48  1  0  0  0  0
 47 62  1  6  0  0  0
 48 49  1  0  0  0  0
 48 60  1  0  0  0  0
 48 61  1  0  0  0  0
 49 50  1  0  0  0  0
 49 59  1  0  0  0  0
 50 51  2  0  0  0  0
 50 55  1  0  0  0  0
 51 52  1  0  0  0  0
 51 58  1  0  0  0  0
 52 53  2  0  0  0  0
 52 57  1  0  0  0  0
 53 54  1  0  0  0  0
 54 55  2  0  0  0  0
 54 56  1  0  0  0  0
M  END
>  <MODEL>
       1

$$$$
