output/tmp_first_model_11_69.pdb
 OpenBabel07222623443D

 64 68  0  0  0  0  0  0  0  0999 V2000
    2.5720   -3.6570   29.0570 C   0  0  0  0  0  0  0  0  0  0  0  0
    3.9310   -3.6770   28.3620 C   0  0  0  0  0  0  0  0  0  0  0  0
    3.8200   -3.6680   26.8510 C   0  0  0  0  0  0  0  0  0  0  0  0
    3.4100   -2.6810   26.2700 O   0  0  0  0  0  0  0  0  0  0  0  0
    4.2170   -4.8350   26.1950 N   0  0  0  0  0  0  0  0  0  0  0  0
    4.0650   -6.1510   26.8180 C   0  0  0  0  0  0  0  0  0  0  0  0
    3.5470   -7.1280   25.7780 C   0  0  0  0  0  0  0  0  0  0  0  0
    4.5850   -7.2750   24.6720 C   0  0  0  0  0  0  0  0  0  0  0  0
    5.0540   -5.9290   24.1640 C   0  0  0  0  0  0  0  0  0  0  0  0
    5.6960   -5.8130   22.9280 C   0  0  0  0  0  0  0  0  0  0  0  0
    6.1390   -4.5920   22.4390 C   0  0  0  0  0  0  0  0  0  0  0  0
    5.9430   -3.4570   23.2240 C   0  0  0  0  0  0  0  0  0  0  0  0
    6.4080   -2.1830   22.8020 N   0  0  0  0  0  0  0  0  0  0  0  0
    7.3890   -1.5140   23.6560 C   0  0  0  0  0  0  0  0  0  0  0  0
    8.8200   -1.6220   23.1600 C   0  0  0  0  0  0  0  0  0  0  0  0
    9.4130   -2.8710   22.9370 C   0  0  0  0  0  0  0  0  0  0  0  0
   10.6840   -2.9420   22.3740 C   0  0  0  0  0  0  0  0  0  0  0  0
   11.3870   -1.7760   22.0840 C   0  0  0  0  0  0  0  0  0  0  0  0
   10.8300   -0.5520   22.4080 C   0  0  0  0  0  0  0  0  0  0  0  0
   11.8060    0.8720   22.2090 Cl  0  0  0  0  0  0  0  0  0  0  0  0
    9.5400   -0.4540   22.9020 C   0  0  0  0  0  0  0  0  0  0  0  0
    9.0940    0.5290   23.0530 H   0  0  0  0  0  0  0  0  0  0  0  0
   12.3640   -1.7540   21.6220 H   0  0  0  0  0  0  0  0  0  0  0  0
   11.1400   -3.8970   22.1420 H   0  0  0  0  0  0  0  0  0  0  0  0
    8.8920   -3.7980   23.1910 H   0  0  0  0  0  0  0  0  0  0  0  0
    7.3170   -1.9970   24.6350 H   0  0  0  0  0  0  0  0  0  0  0  0
    7.0990   -0.4630   23.7780 H   0  0  0  0  0  0  0  0  0  0  0  0
    6.0510   -1.7850   21.5230 C   0  0  0  0  0  0  0  0  0  0  0  0
    5.1920   -2.3750   20.8910 O   0  0  0  0  0  0  0  0  0  0  0  0
    6.7980   -0.5890   20.9390 C   0  0  0  0  0  0  0  0  0  0  0  0
    6.0660    0.0410   19.8040 C   0  0  0  0  0  0  0  0  0  0  0  0
    6.4120   -0.2360   18.5070 C   0  0  0  0  0  0  0  0  0  0  0  0
    5.7720    0.2330   17.4090 N   0  0  0  0  0  0  0  0  0  0  0  0
    4.7280    1.0040   17.6030 C   0  0  0  0  0  0  0  0  0  0  0  0
    4.2530    1.3570   18.8970 C   0  0  0  0  0  0  0  0  0  0  0  0
    3.1200    2.1760   19.0940 C   0  0  0  0  0  0  0  0  0  0  0  0
    2.4400    2.5610   18.0020 F   0  0  0  0  0  0  0  0  0  0  0  0
    2.7030    2.5830   20.3270 C   0  0  0  0  0  0  0  0  0  0  0  0
    3.4150    2.1310   21.4530 C   0  0  0  0  0  0  0  0  0  0  0  0
    4.4960    1.2970   21.3210 C   0  0  0  0  0  0  0  0  0  0  0  0
    4.9460    0.8910   20.0360 C   0  0  0  0  0  0  0  0  0  0  0  0
    5.0040    0.9510   22.2130 H   0  0  0  0  0  0  0  0  0  0  0  0
    3.0930    2.4590   22.4360 H   0  0  0  0  0  0  0  0  0  0  0  0
    1.8530    3.2490   20.4260 H   0  0  0  0  0  0  0  0  0  0  0  0
    4.2110    1.3840   16.7240 H   0  0  0  0  0  0  0  0  0  0  0  0
    7.2660   -0.8860   18.3100 H   0  0  0  0  0  0  0  0  0  0  0  0
    6.9870    0.1480   21.7210 H   0  0  0  0  0  0  0  0  0  0  0  0
    7.7730   -0.9570   20.5940 H   0  0  0  0  0  0  0  0  0  0  0  0
    5.3390   -3.5470   24.4660 C   0  0  0  0  0  0  0  0  0  0  0  0
    4.8520   -4.7680   24.9320 C   0  0  0  0  0  0  0  0  0  0  0  0
    5.2170   -2.6440   25.0490 H   0  0  0  0  0  0  0  0  0  0  0  0
    6.6250   -4.5140   21.4680 H   0  0  0  0  0  0  0  0  0  0  0  0
    5.8500   -6.7030   22.3200 H   0  0  0  0  0  0  0  0  0  0  0  0
    5.4510   -7.8340   25.0590 H   0  0  0  0  0  0  0  0  0  0  0  0
    4.1790   -7.8670   23.8430 H   0  0  0  0  0  0  0  0  0  0  0  0
    3.3330   -8.0960   26.2390 H   0  0  0  0  0  0  0  0  0  0  0  0
    2.6060   -6.7380   25.3700 H   0  0  0  0  0  0  0  0  0  0  0  0
    5.0250   -6.4980   27.2320 H   0  0  0  0  0  0  0  0  0  0  0  0
    3.3570   -6.0700   27.6450 H   0  0  0  0  0  0  0  0  0  0  0  0
    4.5320   -4.5290   28.6920 H   0  0  0  0  0  0  0  0  0  0  0  0
    4.4760   -2.7680   28.6380 H   0  0  0  0  0  0  0  0  0  0  0  0
    2.7330   -3.5150   30.1290 H   0  0  0  0  0  0  0  0  0  0  0  0
    2.0250   -4.5950   28.9060 H   0  0  0  0  0  0  0  0  0  0  0  0
    1.9510   -2.8330   28.6900 H   0  0  0  0  0  0  0  0  0  0  0  0
  1  2  1  0  0  0  0
  1 62  1  0  0  0  0
  1 63  1  0  0  0  0
  1 64  1  0  0  0  0
  2  3  1  0  0  0  0
  2 60  1  0  0  0  0
  2 61  1  0  0  0  0
  3  4  2  0  0  0  0
  3  5  1  0  0  0  0
  5  6  1  0  0  0  0
  5 50  1  0  0  0  0
  6  7  1  0  0  0  0
  6 58  1  0  0  0  0
  6 59  1  0  0  0  0
  7  8  1  0  0  0  0
  7 56  1  0  0  0  0
  7 57  1  0  0  0  0
  8  9  1  0  0  0  0
  8 54  1  0  0  0  0
  8 55  1  0  0  0  0
  9 10  2  0  0  0  0
  9 50  1  0  0  0  0
 10 11  1  0  0  0  0
 10 53  1  0  0  0  0
 11 12  2  0  0  0  0
 11 52  1  0  0  0  0
 12 13  1  0  0  0  0
 12 49  1  0  0  0  0
 13 14  1  0  0  0  0
 13 28  1  0  0  0  0
 14 15  1  0  0  0  0
 14 26  1  0  0  0  0
 14 27  1  0  0  0  0
 15 16  2  0  0  0  0
 15 21  1  0  0  0  0
 16 17  1  0  0  0  0
 16 25  1  0  0  0  0
 17 18  2  0  0  0  0
 17 24  1  0  0  0  0
 18 19  1  0  0  0  0
 18 23  1  0  0  0  0
 19 20  1  0  0  0  0
 19 21  2  0  0  0  0
 21 22  1  0  0  0  0
 28 29  2  0  0  0  0
 28 30  1  0  0  0  0
 30 31  1  0  0  0  0
 30 47  1  0  0  0  0
 30 48  1  0  0  0  0
 31 32  2  0  0  0  0
 31 41  1  0  0  0  0
 32 33  1  0  0  0  0
 32 46  1  0  0  0  0
 33 34  2  0  0  0  0
 34 35  1  0  0  0  0
 34 45  1  0  0  0  0
 35 36  2  0  0  0  0
 35 41  1  0  0  0  0
 36 37  1  0  0  0  0
 36 38  1  0  0  0  0
 38 39  2  0  0  0  0
 38 44  1  0  0  0  0
 39 40  1  0  0  0  0
 39 43  1  0  0  0  0
 40 41  2  0  0  0  0
 40 42  1  0  0  0  0
 49 50  2  0  0  0  0
 49 51  1  0  0  0  0
M  END
>  <MODEL>
       1

$$$$
