output/tmp_first_model_12_3.pdb
 OpenBabel07232600143D

 67 73  0  0  1  0  0  0  0  0999 V2000
   11.2620    2.8040   23.4030 O   0  0  0  0  0  0  0  0  0  0  0  0
   10.6680    1.7440   23.2470 C   0  0  0  0  0  0  0  0  0  0  0  0
   11.1660    0.6750   22.3220 C   0  0  0  0  0  0  0  0  0  0  0  0
   12.5080    0.7390   21.9220 C   0  0  0  0  0  0  0  0  0  0  0  0
   13.0890   -0.3170   21.2340 C   0  0  0  0  0  0  0  0  0  0  0  0
   12.2840   -1.4140   20.9210 C   0  0  0  0  0  0  0  0  0  0  0  0
   12.9100   -2.7620   20.0180 Cl  0  0  0  0  0  0  0  0  0  0  0  0
   10.9480   -1.4720   21.2810 C   0  0  0  0  0  0  0  0  0  0  0  0
   10.3480   -0.4140   21.9790 C   0  0  0  0  0  0  0  0  0  0  0  0
    8.8760   -0.4290   22.4220 C   0  0  1  0  0  0  0  0  0  0  0  0
    8.8900    0.1450   23.8690 C   0  0  0  0  0  0  0  0  0  0  0  0
    9.5310    1.4460   23.9440 N   0  0  0  0  0  0  0  0  0  0  0  0
    8.9260    2.5010   24.7450 C   0  0  0  0  0  0  0  0  0  0  0  0
    7.8300    3.2480   24.0380 C   0  0  0  0  0  0  0  0  0  0  0  0
    8.1100    4.3120   23.2150 C   0  0  0  0  0  0  0  0  0  0  0  0
    7.0270    4.9820   22.6490 C   0  0  0  0  0  0  0  0  0  0  0  0
    5.7630    4.6360   22.8590 N   0  0  0  0  0  0  0  0  0  0  0  0
    5.4980    3.5730   23.6040 N   0  0  0  0  0  0  0  0  0  0  0  0
    6.4910    2.8980   24.1750 C   0  0  0  0  0  0  0  0  0  0  0  0
    6.2010    2.0400   24.7810 H   0  0  0  0  0  0  0  0  0  0  0  0
    7.1740    5.8490   22.0130 H   0  0  0  0  0  0  0  0  0  0  0  0
    9.1350    4.6160   23.0140 H   0  0  0  0  0  0  0  0  0  0  0  0
    8.5240    2.0970   25.6780 H   0  0  0  0  0  0  0  0  0  0  0  0
    9.7210    3.2070   24.9990 H   0  0  0  0  0  0  0  0  0  0  0  0
    9.4460   -0.5590   24.5000 H   0  0  0  0  0  0  0  0  0  0  0  0
    7.8790    0.2400   24.2670 H   0  0  0  0  0  0  0  0  0  0  0  0
    7.9980    0.4610   21.4920 C   0  0  0  0  0  0  0  0  0  0  0  0
    8.1860    1.6210   21.2220 O   0  0  0  0  0  0  0  0  0  0  0  0
    6.9390   -0.3080   20.9960 N   0  0  0  0  0  0  0  0  0  0  0  0
    6.1670    0.1430   19.8800 C   0  0  0  0  0  0  0  0  0  0  0  0
    6.4770   -0.2190   18.5880 C   0  0  0  0  0  0  0  0  0  0  0  0
    5.8060    0.2010   17.4880 N   0  0  0  0  0  0  0  0  0  0  0  0
    4.7740    0.9870   17.6630 C   0  0  0  0  0  0  0  0  0  0  0  0
    4.3030    1.3940   18.9420 C   0  0  0  0  0  0  0  0  0  0  0  0
    3.1540    2.2150   19.0900 C   0  0  0  0  0  0  0  0  0  0  0  0
    2.7210    2.5880   20.3310 C   0  0  0  0  0  0  0  0  0  0  0  0
    3.4170    2.1530   21.4820 C   0  0  0  0  0  0  0  0  0  0  0  0
    4.5310    1.3560   21.3640 C   0  0  0  0  0  0  0  0  0  0  0  0
    5.0100    0.9620   20.0900 C   0  0  0  0  0  0  0  0  0  0  0  0
    5.0740    1.0510   22.2550 H   0  0  0  0  0  0  0  0  0  0  0  0
    3.1060    2.4820   22.4670 H   0  0  0  0  0  0  0  0  0  0  0  0
    1.8540    3.2340   20.4360 H   0  0  0  0  0  0  0  0  0  0  0  0
    2.6400    2.5490   18.1910 H   0  0  0  0  0  0  0  0  0  0  0  0
    4.2500    1.3330   16.7700 H   0  0  0  0  0  0  0  0  0  0  0  0
    7.3260   -0.8690   18.3760 H   0  0  0  0  0  0  0  0  0  0  0  0
    7.2390   -1.7250   21.1080 C   0  0  0  0  0  0  0  0  0  0  0  0
    8.1990   -1.8270   22.2990 C   0  0  2  0  0  0  0  0  0  0  0  0
    7.5000   -2.4140   23.5290 C   0  0  0  0  0  0  0  0  0  0  0  0
    6.2850   -1.7130   23.8790 N   0  0  0  0  0  0  0  0  0  0  0  0
    5.5960   -2.0100   25.0090 C   0  0  0  0  0  0  0  0  0  0  0  0
    4.4900   -1.2380   25.4170 C   0  0  0  0  0  0  0  0  0  0  0  0
    3.8550   -1.6430   26.5670 C   0  0  0  0  0  0  0  0  0  0  0  0
    4.2310   -2.7070   27.2930 N   0  0  0  0  0  0  0  0  0  0  0  0
    5.2890   -3.3490   26.8200 C   0  0  0  0  0  0  0  0  0  0  0  0
    5.9980   -3.0700   25.7260 N   0  0  0  0  0  0  0  0  0  0  0  0
    5.6210   -4.2150   27.3950 H   0  0  0  0  0  0  0  0  0  0  0  0
    2.9900   -1.0980   26.9400 H   0  0  0  0  0  0  0  0  0  0  0  0
    4.1640   -0.3660   24.8540 H   0  0  0  0  0  0  0  0  0  0  0  0
    5.9580   -0.9760   23.2710 H   0  0  0  0  0  0  0  0  0  0  0  0
    7.2570   -3.4700   23.3480 H   0  0  0  0  0  0  0  0  0  0  0  0
    8.1720   -2.4170   24.3950 H   0  0  0  0  0  0  0  0  0  0  0  0
    8.9670   -2.5670   22.0860 H   0  0  0  0  0  0  0  0  0  0  0  0
    7.7180   -2.0890   20.1930 H   0  0  0  0  0  0  0  0  0  0  0  0
    6.3180   -2.2990   21.2550 H   0  0  0  0  0  0  0  0  0  0  0  0
   10.4060   -2.3560   20.9700 H   0  0  0  0  0  0  0  0  0  0  0  0
   14.1320   -0.3040   20.9230 H   0  0  0  0  0  0  0  0  0  0  0  0
   13.0870    1.6300   22.1560 H   0  0  0  0  0  0  0  0  0  0  0  0
  1  2  2  0  0  0  0
  2  3  1  0  0  0  0
  2 12  1  0  0  0  0
  3  4  2  0  0  0  0
  3  9  1  0  0  0  0
  4  5  1  0  0  0  0
  4 67  1  0  0  0  0
  5  6  2  0  0  0  0
  5 66  1  0  0  0  0
  6  7  1  0  0  0  0
  6  8  1  0  0  0  0
  8  9  2  0  0  0  0
  8 65  1  0  0  0  0
 10  9  1  6  0  0  0
 10 11  1  0  0  0  0
 10 27  1  0  0  0  0
 10 47  1  0  0  0  0
 11 12  1  0  0  0  0
 11 25  1  0  0  0  0
 11 26  1  0  0  0  0
 12 13  1  0  0  0  0
 13 14  1  0  0  0  0
 13 23  1  0  0  0  0
 13 24  1  0  0  0  0
 14 15  2  0  0  0  0
 14 19  1  0  0  0  0
 15 16  1  0  0  0  0
 15 22  1  0  0  0  0
 16 17  2  0  0  0  0
 16 21  1  0  0  0  0
 17 18  1  0  0  0  0
 18 19  2  0  0  0  0
 19 20  1  0  0  0  0
 27 28  2  0  0  0  0
 27 29  1  0  0  0  0
 29 30  1  0  0  0  0
 29 46  1  0  0  0  0
 30 31  2  0  0  0  0
 30 39  1  0  0  0  0
 31 32  1  0  0  0  0
 31 45  1  0  0  0  0
 32 33  2  0  0  0  0
 33 34  1  0  0  0  0
 33 44  1  0  0  0  0
 34 35  2  0  0  0  0
 34 39  1  0  0  0  0
 35 36  1  0  0  0  0
 35 43  1  0  0  0  0
 36 37  2  0  0  0  0
 36 42  1  0  0  0  0
 37 38  1  0  0  0  0
 37 41  1  0  0  0  0
 38 39  2  0  0  0  0
 38 40  1  0  0  0  0
 46 47  1  0  0  0  0
 46 63  1  0  0  0  0
 46 64  1  0  0  0  0
 47 48  1  0  0  0  0
 47 62  1  6  0  0  0
 48 49  1  0  0  0  0
 48 60  1  0  0  0  0
 48 61  1  0  0  0  0
 49 50  1  0  0  0  0
 49 59  1  0  0  0  0
 50 51  2  0  0  0  0
 50 55  1  0  0  0  0
 51 52  1  0  0  0  0
 51 58  1  0  0  0  0
 52 53  2  0  0  0  0
 52 57  1  0  0  0  0
 53 54  1  0  0  0  0
 54 55  2  0  0  0  0
 54 56  1  0  0  0  0
M  END
>  <MODEL>
       1

$$$$
