output/tmp_first_model_7_68.pdb
 OpenBabel07222621533D

 57 62  0  0  1  0  0  0  0  0999 V2000
    5.5540   -5.6600   26.5430 C   0  0  0  0  0  0  0  0  0  0  0  0
    6.3590   -4.4050   26.5900 C   0  0  0  0  0  0  0  0  0  0  0  0
    5.9830   -3.1640   26.4860 N   0  0  0  0  0  0  0  0  0  0  0  0
    7.1810   -2.4940   26.5100 C   0  0  0  0  0  0  0  0  0  0  0  0
    7.2940   -0.9970   26.4200 C   0  0  0  0  0  0  0  0  0  0  0  0
    8.1160   -0.5680   25.3020 N   0  0  0  0  0  0  0  0  0  0  0  0
    7.4910   -0.1140   24.0640 C   0  0  0  0  0  0  0  0  0  0  0  0
    8.2970   -0.4750   22.7870 C   0  0  2  0  0  0  0  0  0  0  0  0
    7.6640    0.3810   21.6630 C   0  0  0  0  0  0  0  0  0  0  0  0
    7.7860    1.5770   21.4950 O   0  0  0  0  0  0  0  0  0  0  0  0
    6.8470   -0.4320   20.9050 N   0  0  0  0  0  0  0  0  0  0  0  0
    6.0210    0.0390   19.8560 C   0  0  0  0  0  0  0  0  0  0  0  0
    6.4130   -0.1670   18.5580 C   0  0  0  0  0  0  0  0  0  0  0  0
    5.7490    0.2900   17.4720 N   0  0  0  0  0  0  0  0  0  0  0  0
    4.6410    0.9510   17.6870 C   0  0  0  0  0  0  0  0  0  0  0  0
    4.0740    1.1630   18.9750 C   0  0  0  0  0  0  0  0  0  0  0  0
    2.8440    1.8530   19.1340 C   0  0  0  0  0  0  0  0  0  0  0  0
    2.2650    1.9630   20.3680 C   0  0  0  0  0  0  0  0  0  0  0  0
    2.8960    1.3920   21.4990 C   0  0  0  0  0  0  0  0  0  0  0  0
    4.1100    0.7600   21.3740 C   0  0  0  0  0  0  0  0  0  0  0  0
    4.7520    0.6560   20.1060 C   0  0  0  0  0  0  0  0  0  0  0  0
    4.5940    0.3340   22.2460 H   0  0  0  0  0  0  0  0  0  0  0  0
    2.4280    1.4950   22.4730 H   0  0  0  0  0  0  0  0  0  0  0  0
    1.3290    2.5000   20.4850 H   0  0  0  0  0  0  0  0  0  0  0  0
    2.3690    2.2500   18.2440 H   0  0  0  0  0  0  0  0  0  0  0  0
    4.1380    1.3690   16.8150 H   0  0  0  0  0  0  0  0  0  0  0  0
    7.3460   -0.6860   18.3520 H   0  0  0  0  0  0  0  0  0  0  0  0
    6.8530   -1.8230   21.2790 C   0  0  0  0  0  0  0  0  0  0  0  0
    8.0450   -1.9320   22.2400 C   0  0  2  0  0  0  0  0  0  0  0  0
    7.7990   -3.0190   23.2730 C   0  0  0  0  0  0  0  0  0  0  0  0
    8.5900   -3.0370   24.0240 H   0  0  0  0  0  0  0  0  0  0  0  0
    6.8450   -2.8570   23.7890 H   0  0  0  0  0  0  0  0  0  0  0  0
    7.7460   -3.9980   22.7820 H   0  0  0  0  0  0  0  0  0  0  0  0
    8.9370   -2.1880   21.6520 H   0  0  0  0  0  0  0  0  0  0  0  0
    6.9500   -2.4560   20.3910 H   0  0  0  0  0  0  0  0  0  0  0  0
    5.9100   -2.1160   21.7690 H   0  0  0  0  0  0  0  0  0  0  0  0
    9.7700   -0.1610   23.0570 C   0  0  0  0  0  0  0  0  0  0  0  0
   10.6670    0.1080   22.0130 C   0  0  0  0  0  0  0  0  0  0  0  0
   12.0080    0.3310   22.2880 C   0  0  0  0  0  0  0  0  0  0  0  0
   12.8600    0.6580   21.3030 F   0  0  0  0  0  0  0  0  0  0  0  0
   12.5380    0.2340   23.5690 C   0  0  0  0  0  0  0  0  0  0  0  0
   11.6660   -0.0390   24.6000 C   0  0  0  0  0  0  0  0  0  0  0  0
   10.3020   -0.1830   24.3560 C   0  0  0  0  0  0  0  0  0  0  0  0
    9.4460   -0.3680   25.5550 C   0  0  0  0  0  0  0  0  0  0  0  0
    9.9140   -0.3520   26.6880 O   0  0  0  0  0  0  0  0  0  0  0  0
   12.0130   -0.1410   25.6230 H   0  0  0  0  0  0  0  0  0  0  0  0
   13.5980    0.3770   23.7360 H   0  0  0  0  0  0  0  0  0  0  0  0
   10.3230    0.1510   20.9870 H   0  0  0  0  0  0  0  0  0  0  0  0
    7.3830    0.9810   24.0750 H   0  0  0  0  0  0  0  0  0  0  0  0
    6.4840   -0.5490   23.9990 H   0  0  0  0  0  0  0  0  0  0  0  0
    6.2940   -0.5680   26.3320 H   0  0  0  0  0  0  0  0  0  0  0  0
    7.7760   -0.6140   27.3250 H   0  0  0  0  0  0  0  0  0  0  0  0
    8.2300   -3.2650   26.6290 N   0  0  0  0  0  0  0  0  0  0  0  0
    7.6810   -4.5400   26.7130 O   0  0  0  0  0  0  0  0  0  0  0  0
    5.0440   -5.8400   27.4930 H   0  0  0  0  0  0  0  0  0  0  0  0
    6.2190   -6.4920   26.3200 H   0  0  0  0  0  0  0  0  0  0  0  0
    4.7940   -5.5920   25.7620 H   0  0  0  0  0  0  0  0  0  0  0  0
  1  2  1  0  0  0  0
  1 55  1  0  0  0  0
  1 56  1  0  0  0  0
  1 57  1  0  0  0  0
  2  3  2  0  0  0  0
  2 54  1  0  0  0  0
  3  4  1  0  0  0  0
  4  5  1  0  0  0  0
  4 53  2  0  0  0  0
  5  6  1  0  0  0  0
  5 51  1  0  0  0  0
  5 52  1  0  0  0  0
  6  7  1  0  0  0  0
  6 44  1  0  0  0  0
  7  8  1  0  0  0  0
  7 49  1  0  0  0  0
  7 50  1  0  0  0  0
  8  9  1  6  0  0  0
  8 29  1  0  0  0  0
  8 37  1  0  0  0  0
  9 10  2  0  0  0  0
  9 11  1  0  0  0  0
 11 12  1  0  0  0  0
 11 28  1  0  0  0  0
 12 13  2  0  0  0  0
 12 21  1  0  0  0  0
 13 14  1  0  0  0  0
 13 27  1  0  0  0  0
 14 15  2  0  0  0  0
 15 16  1  0  0  0  0
 15 26  1  0  0  0  0
 16 17  2  0  0  0  0
 16 21  1  0  0  0  0
 17 18  1  0  0  0  0
 17 25  1  0  0  0  0
 18 19  2  0  0  0  0
 18 24  1  0  0  0  0
 19 20  1  0  0  0  0
 19 23  1  0  0  0  0
 20 21  2  0  0  0  0
 20 22  1  0  0  0  0
 28 29  1  0  0  0  0
 28 35  1  0  0  0  0
 28 36  1  0  0  0  0
 29 30  1  0  0  0  0
 29 34  1  6  0  0  0
 30 31  1  0  0  0  0
 30 32  1  0  0  0  0
 30 33  1  0  0  0  0
 37 38  2  0  0  0  0
 37 43  1  0  0  0  0
 38 39  1  0  0  0  0
 38 48  1  0  0  0  0
 39 40  1  0  0  0  0
 39 41  2  0  0  0  0
 41 42  1  0  0  0  0
 41 47  1  0  0  0  0
 42 43  2  0  0  0  0
 42 46  1  0  0  0  0
 43 44  1  0  0  0  0
 44 45  2  0  0  0  0
 53 54  1  0  0  0  0
M  END
>  <MODEL>
       1

$$$$
