output/tmp_first_model_11_38.pdb
 OpenBabel07222623443D

 72 77  0  0  1  0  0  0  0  0999 V2000
    4.4750   -7.4640   20.1500 C   0  0  0  0  0  0  0  0  0  0  0  0
    4.9190   -6.0830   19.6760 N   0  3  0  0  0  0  0  0  0  0  0  0
    5.1540   -5.0600   20.7540 C   0  0  0  0  0  0  0  0  0  0  0  0
    6.4480   -5.3980   21.4690 C   0  0  0  0  0  0  0  0  0  0  0  0
    6.8150   -4.3780   22.4240 N   0  0  0  0  0  0  0  0  0  0  0  0
    7.8460   -3.3910   22.1740 C   0  0  0  0  0  0  0  0  0  0  0  0
    7.4470   -1.9720   22.6450 C   0  0  2  0  0  0  0  0  0  0  0  0
    6.3200   -1.4310   21.7170 C   0  0  0  0  0  0  0  0  0  0  0  0
    5.1630   -1.7910   21.7110 O   0  0  0  0  0  0  0  0  0  0  0  0
    6.8470   -0.4860   20.8600 N   0  0  0  0  0  0  0  0  0  0  0  0
    6.1040    0.0610   19.7810 C   0  0  0  0  0  0  0  0  0  0  0  0
    6.4400   -0.2200   18.4800 C   0  0  0  0  0  0  0  0  0  0  0  0
    5.7720    0.2400   17.3940 N   0  0  0  0  0  0  0  0  0  0  0  0
    4.7420    1.0240   17.5950 C   0  0  0  0  0  0  0  0  0  0  0  0
    4.2900    1.4130   18.8860 C   0  0  0  0  0  0  0  0  0  0  0  0
    3.1690    2.2700   19.0590 C   0  0  0  0  0  0  0  0  0  0  0  0
    2.7760    2.6510   20.3120 C   0  0  0  0  0  0  0  0  0  0  0  0
    3.4840    2.1950   21.4460 C   0  0  0  0  0  0  0  0  0  0  0  0
    4.5680    1.3650   21.3040 C   0  0  0  0  0  0  0  0  0  0  0  0
    4.9900    0.9360   20.0160 C   0  0  0  0  0  0  0  0  0  0  0  0
    5.1110    1.0150   22.1750 H   0  0  0  0  0  0  0  0  0  0  0  0
    3.1670    2.5050   22.4370 H   0  0  0  0  0  0  0  0  0  0  0  0
    1.9280    3.3180   20.4420 H   0  0  0  0  0  0  0  0  0  0  0  0
    2.6540    2.6380   18.1740 H   0  0  0  0  0  0  0  0  0  0  0  0
    4.2130    1.3880   16.7130 H   0  0  0  0  0  0  0  0  0  0  0  0
    7.2800   -0.8760   18.2560 H   0  0  0  0  0  0  0  0  0  0  0  0
    8.2890   -0.3540   20.9760 C   0  0  0  0  0  0  0  0  0  0  0  0
    8.5980   -0.9560   22.3640 C   0  0  2  0  0  0  0  0  0  0  0  0
   10.0290   -1.4830   22.4450 C   0  0  0  0  0  0  0  0  0  0  0  0
   10.9250   -0.4230   22.3720 O   0  0  0  0  0  0  0  0  0  0  0  0
   11.3660   -0.0480   23.6360 C   0  0  0  0  0  0  0  0  0  0  0  0
   12.0550    1.2320   23.4280 C   0  0  0  0  0  0  0  0  0  0  0  0
   11.1660    2.4190   23.2050 C   0  0  0  0  0  0  0  0  0  0  0  0
   11.0040    3.8420   24.3170 S   0  0  0  0  0  0  0  0  0  0  0  0
   11.9460    4.9480   24.3010 O   0  0  0  0  0  0  0  0  0  0  0  0
    9.7490    3.8050   25.0230 O   0  0  0  0  0  0  0  0  0  0  0  0
   12.1780    1.2810   23.7040 C   0  0  0  0  0  0  0  0  0  0  0  0
   13.1980    1.9940   24.4470 H   0  0  0  0  0  0  0  0  0  0  0  0
   11.9600    1.3090   25.0530 H   0  0  0  0  0  0  0  0  0  0  0  0
   11.4280    2.9130   22.2560 H   0  0  0  0  0  0  0  0  0  0  0  0
   10.1110    2.1230   23.0120 H   0  0  0  0  0  0  0  0  0  0  0  0
   12.9380    1.3070   22.6400 H   0  0  0  0  0  0  0  0  0  0  0  0
   10.5740    0.1530   24.3500 H   0  0  0  0  0  0  0  0  0  0  0  0
   12.0690   -0.7300   24.1010 H   0  0  0  0  0  0  0  0  0  0  0  0
   10.2520   -2.1630   21.6200 H   0  0  0  0  0  0  0  0  0  0  0  0
   10.1910   -2.0400   23.3740 H   0  0  0  0  0  0  0  0  0  0  0  0
    8.4970   -0.1550   23.1030 H   0  0  0  0  0  0  0  0  0  0  0  0
    8.5880    0.6950   20.9100 H   0  0  0  0  0  0  0  0  0  0  0  0
    8.8200   -0.8960   20.1790 H   0  0  0  0  0  0  0  0  0  0  0  0
    6.9440   -2.0850   24.0710 C   0  0  0  0  0  0  0  0  0  0  0  0
    6.8940   -0.9680   24.9110 C   0  0  0  0  0  0  0  0  0  0  0  0
    6.4210   -1.0980   26.2030 C   0  0  0  0  0  0  0  0  0  0  0  0
    6.3830    0.2990   27.2360 Cl  0  0  0  0  0  0  0  0  0  0  0  0
    5.9590   -2.3150   26.7000 C   0  0  0  0  0  0  0  0  0  0  0  0
    5.9370   -3.4040   25.8550 C   0  0  0  0  0  0  0  0  0  0  0  0
    6.3990   -3.2900   24.5460 C   0  0  0  0  0  0  0  0  0  0  0  0
    6.2210   -4.4750   23.6460 C   0  0  0  0  0  0  0  0  0  0  0  0
    5.5610   -5.4530   23.9690 O   0  0  0  0  0  0  0  0  0  0  0  0
    5.5450   -4.3600   26.1780 H   0  0  0  0  0  0  0  0  0  0  0  0
    5.6030   -2.3870   27.7210 H   0  0  0  0  0  0  0  0  0  0  0  0
    7.1890    0.0160   24.5630 H   0  0  0  0  0  0  0  0  0  0  0  0
    8.7750   -3.7130   22.6610 H   0  0  0  0  0  0  0  0  0  0  0  0
    8.0490   -3.2840   21.1180 H   0  0  0  0  0  0  0  0  0  0  0  0
    7.2250   -5.5770   20.7270 H   0  0  0  0  0  0  0  0  0  0  0  0
    6.3100   -6.3490   21.9800 H   0  0  0  0  0  0  0  0  0  0  0  0
    4.3080   -5.0750   21.4500 H   0  0  0  0  0  0  0  0  0  0  0  0
    5.1460   -4.0600   20.3180 H   0  0  0  0  0  0  0  0  0  0  0  0
    5.7160   -6.1580   19.0050 H   0  0  0  0  0  0  0  0  0  0  0  0
    4.1520   -5.6340   19.1450 H   0  0  0  0  0  0  0  0  0  0  0  0
    3.6910   -7.3930   20.9230 H   0  0  0  0  0  0  0  0  0  0  0  0
    4.0050   -8.0180   19.3380 H   0  0  0  0  0  0  0  0  0  0  0  0
    5.2650   -8.0710   20.6110 H   0  0  0  0  0  0  0  0  0  0  0  0
  1  2  1  0  0  0  0
  1 70  1  0  0  0  0
  1 71  1  0  0  0  0
  1 72  1  0  0  0  0
  2  3  1  0  0  0  0
  2 68  1  0  0  0  0
  2 69  1  0  0  0  0
  3  4  1  0  0  0  0
  3 66  1  0  0  0  0
  3 67  1  0  0  0  0
  4  5  1  0  0  0  0
  4 64  1  0  0  0  0
  4 65  1  0  0  0  0
  5  6  1  0  0  0  0
  5 57  1  0  0  0  0
  6  7  1  0  0  0  0
  6 62  1  0  0  0  0
  6 63  1  0  0  0  0
  7  8  1  6  0  0  0
  7 28  1  0  0  0  0
  7 50  1  0  0  0  0
  8  9  2  0  0  0  0
  8 10  1  0  0  0  0
 10 11  1  0  0  0  0
 10 27  1  0  0  0  0
 11 12  2  0  0  0  0
 11 20  1  0  0  0  0
 12 13  1  0  0  0  0
 12 26  1  0  0  0  0
 13 14  2  0  0  0  0
 14 15  1  0  0  0  0
 14 25  1  0  0  0  0
 15 16  2  0  0  0  0
 15 20  1  0  0  0  0
 16 17  1  0  0  0  0
 16 24  1  0  0  0  0
 17 18  2  0  0  0  0
 17 23  1  0  0  0  0
 18 19  1  0  0  0  0
 18 22  1  0  0  0  0
 19 20  2  0  0  0  0
 19 21  1  0  0  0  0
 27 28  1  0  0  0  0
 27 48  1  0  0  0  0
 27 49  1  0  0  0  0
 28 29  1  0  0  0  0
 28 47  1  1  0  0  0
 29 30  1  0  0  0  0
 29 45  1  0  0  0  0
 29 46  1  0  0  0  0
 30 31  1  0  0  0  0
 31 32  1  0  0  0  0
 31 43  1  0  0  0  0
 31 44  1  0  0  0  0
 32 33  1  0  0  0  0
 32 37  1  0  0  0  0
 32 42  1  0  0  0  0
 33 34  1  0  0  0  0
 33 40  1  0  0  0  0
 33 41  1  0  0  0  0
 34 35  2  0  0  0  0
 34 36  2  0  0  0  0
 34 37  1  0  0  0  0
 37 38  1  0  0  0  0
 37 39  1  0  0  0  0
 50 51  2  0  0  0  0
 50 56  1  0  0  0  0
 51 52  1  0  0  0  0
 51 61  1  0  0  0  0
 52 53  1  0  0  0  0
 52 54  2  0  0  0  0
 54 55  1  0  0  0  0
 54 60  1  0  0  0  0
 55 56  2  0  0  0  0
 55 59  1  0  0  0  0
 56 57  1  0  0  0  0
 57 58  2  0  0  0  0
M  CHG  1   2   1
M  END
>  <MODEL>
       1

$$$$
