output/tmp_first_model_18_91.pdb
 OpenBabel07232602473D

 56 61  0  0  1  0  0  0  0  0999 V2000
    9.7830   -1.9150   21.8300 C   0  0  0  0  0  0  0  0  0  0  0  0
    8.6750   -0.9720   22.3280 C   0  0  1  0  0  0  0  0  0  0  0  0
    8.2100   -0.0440   21.1720 C   0  0  0  0  0  0  0  0  0  0  0  0
    6.8660   -0.4770   20.8470 N   0  0  0  0  0  0  0  0  0  0  0  0
    6.1080    0.0760   19.7680 C   0  0  0  0  0  0  0  0  0  0  0  0
    6.4330   -0.2120   18.4640 C   0  0  0  0  0  0  0  0  0  0  0  0
    5.7590    0.2400   17.3760 N   0  0  0  0  0  0  0  0  0  0  0  0
    4.7320    1.0330   17.5750 C   0  0  0  0  0  0  0  0  0  0  0  0
    4.2850    1.4270   18.8680 C   0  0  0  0  0  0  0  0  0  0  0  0
    3.1680    2.2870   19.0480 C   0  0  0  0  0  0  0  0  0  0  0  0
    2.7780    2.6510   20.3100 C   0  0  0  0  0  0  0  0  0  0  0  0
    3.4830    2.1820   21.4390 C   0  0  0  0  0  0  0  0  0  0  0  0
    4.5660    1.3520   21.2920 C   0  0  0  0  0  0  0  0  0  0  0  0
    4.9890    0.9430   19.9970 C   0  0  0  0  0  0  0  0  0  0  0  0
    5.1120    1.0050   22.1660 H   0  0  0  0  0  0  0  0  0  0  0  0
    3.1680    2.4850   22.4320 H   0  0  0  0  0  0  0  0  0  0  0  0
    1.9280    3.3090   20.4520 H   0  0  0  0  0  0  0  0  0  0  0  0
    2.6350    2.6560   18.1750 H   0  0  0  0  0  0  0  0  0  0  0  0
    4.1930    1.4040   16.7020 H   0  0  0  0  0  0  0  0  0  0  0  0
    7.2750   -0.8730   18.2670 H   0  0  0  0  0  0  0  0  0  0  0  0
    6.3510   -1.3900   21.7510 C   0  0  0  0  0  0  0  0  0  0  0  0
    5.2450   -1.8890   21.6910 O   0  0  0  0  0  0  0  0  0  0  0  0
    7.3760   -1.6600   22.8730 C   0  0  1  0  0  0  0  0  0  0  0  0
    7.5170   -3.2110   23.0760 C   0  0  0  0  0  0  0  0  0  0  0  0
    6.2690   -3.7430   23.6200 N   0  0  0  0  0  0  0  0  0  0  0  0
    5.7740   -4.9870   23.1750 C   0  0  0  0  0  0  0  0  0  0  0  0
    6.5650   -6.1760   23.7850 C   0  0  0  0  0  0  0  0  0  0  0  0
    6.2400   -6.9810   25.0240 C   0  0  0  0  0  0  0  0  0  0  0  0
    6.5640   -6.1760   23.7860 N   0  0  0  0  0  0  0  0  0  0  0  0
    8.1330   -7.8850   23.7750 N   0  0  0  0  0  0  0  0  0  0  0  0
    7.7910   -6.8130   23.2470 C   0  0  0  0  0  0  0  0  0  0  0  0
    8.2920   -6.0580   22.6930 H   0  0  0  0  0  0  0  0  0  0  0  0
    9.0360   -8.1740   24.1120 H   0  0  0  0  0  0  0  0  0  0  0  0
    5.3130   -6.8280   25.5130 H   0  0  0  0  0  0  0  0  0  0  0  0
    4.7410   -5.2030   23.3600 H   0  0  0  0  0  0  0  0  0  0  0  0
    5.9250   -5.1210   22.0540 H   0  0  0  0  0  0  0  0  0  0  0  0
    5.7410   -3.2300   24.7950 C   0  0  0  0  0  0  0  0  0  0  0  0
    4.9980   -3.8840   25.5200 O   0  0  0  0  0  0  0  0  0  0  0  0
    6.0590   -1.7910   25.0790 C   0  0  0  0  0  0  0  0  0  0  0  0
    5.5350   -1.1840   26.2360 C   0  0  0  0  0  0  0  0  0  0  0  0
    5.7180    0.1670   26.4810 C   0  0  0  0  0  0  0  0  0  0  0  0
    6.4110    0.9280   25.5450 C   0  0  0  0  0  0  0  0  0  0  0  0
    6.5590    2.2520   25.7580 F   0  0  0  0  0  0  0  0  0  0  0  0
    6.9390    0.3540   24.3990 C   0  0  0  0  0  0  0  0  0  0  0  0
    6.8150   -1.0300   24.1680 C   0  0  0  0  0  0  0  0  0  0  0  0
    7.4340    1.0070   23.6890 H   0  0  0  0  0  0  0  0  0  0  0  0
    5.3100    0.6340   27.3710 H   0  0  0  0  0  0  0  0  0  0  0  0
    4.9620   -1.7710   26.9510 H   0  0  0  0  0  0  0  0  0  0  0  0
    7.7590   -3.6950   22.1150 H   0  0  0  0  0  0  0  0  0  0  0  0
    8.3610   -3.3990   23.7640 H   0  0  0  0  0  0  0  0  0  0  0  0
    8.2150    1.0100   21.4880 H   0  0  0  0  0  0  0  0  0  0  0  0
    8.8600   -0.1280   20.2940 H   0  0  0  0  0  0  0  0  0  0  0  0
    9.1340   -0.3720   23.1260 H   0  0  0  0  0  0  0  0  0  0  0  0
   10.6320   -1.3240   21.4620 H   0  0  0  0  0  0  0  0  0  0  0  0
    9.4300   -2.5440   21.0020 H   0  0  0  0  0  0  0  0  0  0  0  0
   10.1610   -2.5530   22.6360 H   0  0  0  0  0  0  0  0  0  0  0  0
  1  2  1  0  0  0  0
  1 54  1  0  0  0  0
  1 55  1  0  0  0  0
  1 56  1  0  0  0  0
  2  3  1  0  0  0  0
  2 23  1  0  0  0  0
  2 53  1  1  0  0  0
  3  4  1  0  0  0  0
  3 51  1  0  0  0  0
  3 52  1  0  0  0  0
  4  5  1  0  0  0  0
  4 21  1  0  0  0  0
  5  6  2  0  0  0  0
  5 14  1  0  0  0  0
  6  7  1  0  0  0  0
  6 20  1  0  0  0  0
  7  8  2  0  0  0  0
  8  9  1  0  0  0  0
  8 19  1  0  0  0  0
  9 10  2  0  0  0  0
  9 14  1  0  0  0  0
 10 11  1  0  0  0  0
 10 18  1  0  0  0  0
 11 12  2  0  0  0  0
 11 17  1  0  0  0  0
 12 13  1  0  0  0  0
 12 16  1  0  0  0  0
 13 14  2  0  0  0  0
 13 15  1  0  0  0  0
 21 22  2  0  0  0  0
 23 21  1  6  0  0  0
 23 24  1  0  0  0  0
 23 45  1  0  0  0  0
 24 25  1  0  0  0  0
 24 49  1  0  0  0  0
 24 50  1  0  0  0  0
 25 26  1  0  0  0  0
 25 37  1  0  0  0  0
 26 27  1  0  0  0  0
 26 35  1  0  0  0  0
 26 36  1  0  0  0  0
 27 28  1  0  0  0  0
 27 31  2  0  0  0  0
 28 29  2  0  0  0  0
 28 34  1  0  0  0  0
 29 30  1  0  0  0  0
 30 31  1  0  0  0  0
 30 33  1  0  0  0  0
 31 32  1  0  0  0  0
 37 38  2  0  0  0  0
 37 39  1  0  0  0  0
 39 40  2  0  0  0  0
 39 45  1  0  0  0  0
 40 41  1  0  0  0  0
 40 48  1  0  0  0  0
 41 42  2  0  0  0  0
 41 47  1  0  0  0  0
 42 43  1  0  0  0  0
 42 44  1  0  0  0  0
 44 45  2  0  0  0  0
 44 46  1  0  0  0  0
M  END
>  <MODEL>
       1

$$$$
