output/tmp_first_model_9_25.pdb
 OpenBabel07222623023D

 68 73  0  0  1  0  0  0  0  0999 V2000
    7.5490   -8.4310   23.0700 C   0  0  0  0  0  0  0  0  0  0  0  0
    6.6630   -7.3080   22.8380 N   0  0  0  0  0  0  0  0  0  0  0  0
    6.8670   -6.4980   21.7710 C   0  0  0  0  0  0  0  0  0  0  0  0
    7.6750   -6.7110   20.8850 O   0  0  0  0  0  0  0  0  0  0  0  0
    6.0570   -5.2090   21.7930 C   0  0  0  0  0  0  0  0  0  0  0  0
    6.6340   -4.2620   22.7210 N   0  0  0  0  0  0  0  0  0  0  0  0
    7.7360   -3.4040   22.3140 C   0  0  0  0  0  0  0  0  0  0  0  0
    7.4100   -1.9320   22.6600 C   0  0  2  0  0  0  0  0  0  0  0  0
    6.3140   -1.4600   21.6740 C   0  0  0  0  0  0  0  0  0  0  0  0
    5.1870   -1.8990   21.5690 O   0  0  0  0  0  0  0  0  0  0  0  0
    6.8440   -0.4770   20.8640 N   0  0  0  0  0  0  0  0  0  0  0  0
    6.1160    0.0700   19.7890 C   0  0  0  0  0  0  0  0  0  0  0  0
    6.4760   -0.2150   18.4950 C   0  0  0  0  0  0  0  0  0  0  0  0
    5.8210    0.2300   17.3970 N   0  0  0  0  0  0  0  0  0  0  0  0
    4.7840    1.0070   17.6000 C   0  0  0  0  0  0  0  0  0  0  0  0
    4.3240    1.4040   18.8880 C   0  0  0  0  0  0  0  0  0  0  0  0
    3.2040    2.2630   19.0360 C   0  0  0  0  0  0  0  0  0  0  0  0
    2.7980    2.6560   20.2810 C   0  0  0  0  0  0  0  0  0  0  0  0
    3.4880    2.2160   21.4310 C   0  0  0  0  0  0  0  0  0  0  0  0
    4.5710    1.3790   21.3140 C   0  0  0  0  0  0  0  0  0  0  0  0
    5.0060    0.9410   20.0290 C   0  0  0  0  0  0  0  0  0  0  0  0
    5.0960    1.0420   22.2020 H   0  0  0  0  0  0  0  0  0  0  0  0
    3.1580    2.5430   22.4130 H   0  0  0  0  0  0  0  0  0  0  0  0
    1.9460    3.3210   20.3930 H   0  0  0  0  0  0  0  0  0  0  0  0
    2.6990    2.6100   18.1400 H   0  0  0  0  0  0  0  0  0  0  0  0
    4.2480    1.3630   16.7220 H   0  0  0  0  0  0  0  0  0  0  0  0
    7.3270   -0.8690   18.3100 H   0  0  0  0  0  0  0  0  0  0  0  0
    8.2910   -0.4020   20.9450 C   0  0  0  0  0  0  0  0  0  0  0  0
    8.5870   -0.9710   22.3330 C   0  0  2  0  0  0  0  0  0  0  0  0
    9.9870   -1.5610   22.3990 C   0  0  0  0  0  0  0  0  0  0  0  0
   10.2310   -2.1860   23.6770 N   0  0  0  0  0  0  0  0  0  0  0  0
   11.5100   -2.6010   24.0080 C   0  0  0  0  0  0  0  0  0  0  0  0
   12.6910   -2.5760   23.2360 C   0  0  0  0  0  0  0  0  0  0  0  0
   13.7300   -3.0420   23.9200 N   0  0  0  0  0  0  0  0  0  0  0  0
   13.2420   -3.3800   25.1230 N   0  0  0  0  0  0  0  0  0  0  0  0
   14.1090   -4.1310   26.0200 C   0  0  0  0  0  0  0  0  0  0  0  0
   15.0770   -4.1900   25.5210 H   0  0  0  0  0  0  0  0  0  0  0  0
   13.7530   -5.1560   26.1990 H   0  0  0  0  0  0  0  0  0  0  0  0
   14.2370   -3.6270   26.9780 H   0  0  0  0  0  0  0  0  0  0  0  0
   11.8860   -3.2100   25.1810 C   0  0  0  0  0  0  0  0  0  0  0  0
   11.2740   -3.4640   26.0320 H   0  0  0  0  0  0  0  0  0  0  0  0
   12.7680   -2.3000   22.1950 H   0  0  0  0  0  0  0  0  0  0  0  0
    9.6730   -1.8840   24.4640 H   0  0  0  0  0  0  0  0  0  0  0  0
   10.7320   -0.7780   22.1840 H   0  0  0  0  0  0  0  0  0  0  0  0
   10.0970   -2.3190   21.6100 H   0  0  0  0  0  0  0  0  0  0  0  0
    8.5380   -0.1400   23.0400 H   0  0  0  0  0  0  0  0  0  0  0  0
    8.6280    0.6340   20.8420 H   0  0  0  0  0  0  0  0  0  0  0  0
    8.7820   -0.9970   20.1590 H   0  0  0  0  0  0  0  0  0  0  0  0
    6.9350   -1.8790   24.1070 C   0  0  0  0  0  0  0  0  0  0  0  0
    6.9030   -0.6670   24.8140 C   0  0  0  0  0  0  0  0  0  0  0  0
    6.4230   -0.6240   26.1120 C   0  0  0  0  0  0  0  0  0  0  0  0
    6.3740    0.9090   26.9430 Cl  0  0  0  0  0  0  0  0  0  0  0  0
    5.9750   -1.7700   26.7700 C   0  0  0  0  0  0  0  0  0  0  0  0
    5.9740   -2.9630   26.0730 C   0  0  0  0  0  0  0  0  0  0  0  0
    6.4160   -3.0130   24.7530 C   0  0  0  0  0  0  0  0  0  0  0  0
    6.2020   -4.2780   24.0060 C   0  0  0  0  0  0  0  0  0  0  0  0
    5.6060   -5.2470   24.4890 O   0  0  0  0  0  0  0  0  0  0  0  0
    5.6050   -3.8760   26.5290 H   0  0  0  0  0  0  0  0  0  0  0  0
    5.6160   -1.7140   27.7930 H   0  0  0  0  0  0  0  0  0  0  0  0
    7.2190    0.2650   24.3570 H   0  0  0  0  0  0  0  0  0  0  0  0
    7.8770   -3.5070   21.2420 H   0  0  0  0  0  0  0  0  0  0  0  0
    8.6760   -3.7010   22.7950 H   0  0  0  0  0  0  0  0  0  0  0  0
    6.0620   -4.7620   20.7990 H   0  0  0  0  0  0  0  0  0  0  0  0
    5.0260   -5.4110   22.0960 H   0  0  0  0  0  0  0  0  0  0  0  0
    6.1990   -6.8890   23.6340 H   0  0  0  0  0  0  0  0  0  0  0  0
    8.5700   -8.0950   23.2900 H   0  0  0  0  0  0  0  0  0  0  0  0
    7.5380   -9.0830   22.1960 H   0  0  0  0  0  0  0  0  0  0  0  0
    7.1910   -9.0080   23.9240 H   0  0  0  0  0  0  0  0  0  0  0  0
  1  2  1  0  0  0  0
  1 66  1  0  0  0  0
  1 67  1  0  0  0  0
  1 68  1  0  0  0  0
  2  3  1  0  0  0  0
  2 65  1  0  0  0  0
  3  4  2  0  0  0  0
  3  5  1  0  0  0  0
  5  6  1  0  0  0  0
  5 63  1  0  0  0  0
  5 64  1  0  0  0  0
  6  7  1  0  0  0  0
  6 56  1  0  0  0  0
  7  8  1  0  0  0  0
  7 61  1  0  0  0  0
  7 62  1  0  0  0  0
  8  9  1  6  0  0  0
  8 29  1  0  0  0  0
  8 49  1  0  0  0  0
  9 10  2  0  0  0  0
  9 11  1  0  0  0  0
 11 12  1  0  0  0  0
 11 28  1  0  0  0  0
 12 13  2  0  0  0  0
 12 21  1  0  0  0  0
 13 14  1  0  0  0  0
 13 27  1  0  0  0  0
 14 15  2  0  0  0  0
 15 16  1  0  0  0  0
 15 26  1  0  0  0  0
 16 17  2  0  0  0  0
 16 21  1  0  0  0  0
 17 18  1  0  0  0  0
 17 25  1  0  0  0  0
 18 19  2  0  0  0  0
 18 24  1  0  0  0  0
 19 20  1  0  0  0  0
 19 23  1  0  0  0  0
 20 21  2  0  0  0  0
 20 22  1  0  0  0  0
 28 29  1  0  0  0  0
 28 47  1  0  0  0  0
 28 48  1  0  0  0  0
 29 30  1  0  0  0  0
 29 46  1  1  0  0  0
 30 31  1  0  0  0  0
 30 44  1  0  0  0  0
 30 45  1  0  0  0  0
 31 32  1  0  0  0  0
 31 43  1  0  0  0  0
 32 33  1  0  0  0  0
 32 40  2  0  0  0  0
 33 34  2  0  0  0  0
 33 42  1  0  0  0  0
 34 35  1  0  0  0  0
 35 36  1  0  0  0  0
 35 40  1  0  0  0  0
 36 37  1  0  0  0  0
 36 38  1  0  0  0  0
 36 39  1  0  0  0  0
 40 41  1  0  0  0  0
 49 50  2  0  0  0  0
 49 55  1  0  0  0  0
 50 51  1  0  0  0  0
 50 60  1  0  0  0  0
 51 52  1  0  0  0  0
 51 53  2  0  0  0  0
 53 54  1  0  0  0  0
 53 59  1  0  0  0  0
 54 55  2  0  0  0  0
 54 58  1  0  0  0  0
 55 56  1  0  0  0  0
 56 57  2  0  0  0  0
M  END
>  <MODEL>
       1

$$$$
