output/tmp_first_model_18_31.pdb
 OpenBabel07232602473D

 64 70  0  0  1  0  0  0  0  0999 V2000
    5.1050   -4.7720   25.0580 O   0  0  0  0  0  0  0  0  0  0  0  0
    5.6730   -3.8910   24.4290 C   0  0  0  0  0  0  0  0  0  0  0  0
    6.2340   -2.6600   25.0530 C   0  0  0  0  0  0  0  0  0  0  0  0
    6.1260   -2.5350   26.4350 C   0  0  0  0  0  0  0  0  0  0  0  0
    6.3510   -1.3140   27.0340 C   0  0  0  0  0  0  0  0  0  0  0  0
    6.6520   -0.2290   26.2040 C   0  0  0  0  0  0  0  0  0  0  0  0
    6.7450    1.3630   26.9000 Cl  0  0  0  0  0  0  0  0  0  0  0  0
    6.8970   -0.3780   24.8490 C   0  0  0  0  0  0  0  0  0  0  0  0
    6.7310   -1.6240   24.2370 C   0  0  0  0  0  0  0  0  0  0  0  0
    7.0460   -1.8020   22.7460 C   0  0  1  0  0  0  0  0  0  0  0  0
    7.0030   -3.3180   22.4720 C   0  0  0  0  0  0  0  0  0  0  0  0
    5.7920   -3.8850   23.0670 N   0  0  0  0  0  0  0  0  0  0  0  0
    4.9030   -4.7180   22.2770 C   0  0  0  0  0  0  0  0  0  0  0  0
    5.7210   -5.8310   21.7320 C   0  0  0  0  0  0  0  0  0  0  0  0
    6.4260   -5.8530   20.6490 N   0  0  0  0  0  0  0  0  0  0  0  0
    7.4070   -6.8080   20.8620 N   0  0  0  0  0  0  0  0  0  0  0  0
    7.1820   -7.3110   22.0260 C   0  0  0  0  0  0  0  0  0  0  0  0
    6.1210   -6.7540   22.6400 O   0  0  0  0  0  0  0  0  0  0  0  0
    7.7410   -8.0610   22.5700 H   0  0  0  0  0  0  0  0  0  0  0  0
    4.4580   -4.1050   21.4910 H   0  0  0  0  0  0  0  0  0  0  0  0
    4.1440   -5.1110   22.9590 H   0  0  0  0  0  0  0  0  0  0  0  0
    7.8920   -3.7940   22.9040 H   0  0  0  0  0  0  0  0  0  0  0  0
    6.9970   -3.5240   21.4010 H   0  0  0  0  0  0  0  0  0  0  0  0
    5.9860   -1.1810   21.7960 C   0  0  0  0  0  0  0  0  0  0  0  0
    4.8050   -1.4440   21.7640 O   0  0  0  0  0  0  0  0  0  0  0  0
    6.6020   -0.3690   20.8590 N   0  0  0  0  0  0  0  0  0  0  0  0
    5.9120    0.1930   19.7650 C   0  0  0  0  0  0  0  0  0  0  0  0
    6.3160   -0.0690   18.4760 C   0  0  0  0  0  0  0  0  0  0  0  0
    5.7010    0.3950   17.3650 N   0  0  0  0  0  0  0  0  0  0  0  0
    4.6620    1.1740   17.5270 C   0  0  0  0  0  0  0  0  0  0  0  0
    4.1490    1.5460   18.8010 C   0  0  0  0  0  0  0  0  0  0  0  0
    3.0250    2.4070   18.9160 C   0  0  0  0  0  0  0  0  0  0  0  0
    2.5980    2.8240   20.1470 C   0  0  0  0  0  0  0  0  0  0  0  0
    3.2700    2.3980   21.3140 C   0  0  0  0  0  0  0  0  0  0  0  0
    4.3380    1.5420   21.2290 C   0  0  0  0  0  0  0  0  0  0  0  0
    4.7990    1.0780   19.9630 C   0  0  0  0  0  0  0  0  0  0  0  0
    4.8380    1.2130   22.1320 H   0  0  0  0  0  0  0  0  0  0  0  0
    2.9390    2.7500   22.2880 H   0  0  0  0  0  0  0  0  0  0  0  0
    1.7500    3.4970   20.2370 H   0  0  0  0  0  0  0  0  0  0  0  0
    2.5320    2.7400   18.0060 H   0  0  0  0  0  0  0  0  0  0  0  0
    4.1730    1.5560   16.6300 H   0  0  0  0  0  0  0  0  0  0  0  0
    7.1730   -0.7130   18.2910 H   0  0  0  0  0  0  0  0  0  0  0  0
    8.0320   -0.6000   20.8320 C   0  0  0  0  0  0  0  0  0  0  0  0
    8.3440   -1.0910   22.2460 C   0  0  2  0  0  0  0  0  0  0  0  0
    9.7040   -1.8130   22.2100 C   0  0  0  0  0  0  0  0  0  0  0  0
   10.1640   -2.4200   23.4360 N   0  0  0  0  0  0  0  0  0  0  0  0
   10.2180   -1.8340   24.6540 C   0  0  0  0  0  0  0  0  0  0  0  0
   10.1850   -0.4340   24.8070 C   0  0  0  0  0  0  0  0  0  0  0  0
   10.0840    0.0110   26.0960 C   0  0  0  0  0  0  0  0  0  0  0  0
   10.1350   -0.8060   27.1650 N   0  0  0  0  0  0  0  0  0  0  0  0
   10.2230   -2.0910   26.8950 C   0  0  0  0  0  0  0  0  0  0  0  0
   10.3010   -2.6700   25.6950 N   0  0  0  0  0  0  0  0  0  0  0  0
   10.2250   -2.7710   27.7430 H   0  0  0  0  0  0  0  0  0  0  0  0
    9.9490    1.0700   26.3040 H   0  0  0  0  0  0  0  0  0  0  0  0
   10.2610    0.2470   23.9660 H   0  0  0  0  0  0  0  0  0  0  0  0
   10.4570   -3.3830   23.4200 H   0  0  0  0  0  0  0  0  0  0  0  0
    9.6300   -2.6120   21.4600 H   0  0  0  0  0  0  0  0  0  0  0  0
   10.4480   -1.0850   21.8440 H   0  0  0  0  0  0  0  0  0  0  0  0
    8.4320   -0.1950   22.8550 H   0  0  0  0  0  0  0  0  0  0  0  0
    8.2990   -1.3740   20.1000 H   0  0  0  0  0  0  0  0  0  0  0  0
    8.5700    0.3180   20.5750 H   0  0  0  0  0  0  0  0  0  0  0  0
    7.2590    0.4810   24.2950 H   0  0  0  0  0  0  0  0  0  0  0  0
    6.3030   -1.1940   28.1140 H   0  0  0  0  0  0  0  0  0  0  0  0
    5.8110   -3.4050   27.0080 H   0  0  0  0  0  0  0  0  0  0  0  0
  1  2  2  0  0  0  0
  2  3  1  0  0  0  0
  2 12  1  0  0  0  0
  3  4  2  0  0  0  0
  3  9  1  0  0  0  0
  4  5  1  0  0  0  0
  4 64  1  0  0  0  0
  5  6  2  0  0  0  0
  5 63  1  0  0  0  0
  6  7  1  0  0  0  0
  6  8  1  0  0  0  0
  8  9  2  0  0  0  0
  8 62  1  0  0  0  0
 10  9  1  1  0  0  0
 10 11  1  0  0  0  0
 10 24  1  0  0  0  0
 10 44  1  0  0  0  0
 11 12  1  0  0  0  0
 11 22  1  0  0  0  0
 11 23  1  0  0  0  0
 12 13  1  0  0  0  0
 13 14  1  0  0  0  0
 13 20  1  0  0  0  0
 13 21  1  0  0  0  0
 14 15  2  0  0  0  0
 14 18  1  0  0  0  0
 15 16  1  0  0  0  0
 16 17  2  0  0  0  0
 17 18  1  0  0  0  0
 17 19  1  0  0  0  0
 24 25  2  0  0  0  0
 24 26  1  0  0  0  0
 26 27  1  0  0  0  0
 26 43  1  0  0  0  0
 27 28  2  0  0  0  0
 27 36  1  0  0  0  0
 28 29  1  0  0  0  0
 28 42  1  0  0  0  0
 29 30  2  0  0  0  0
 30 31  1  0  0  0  0
 30 41  1  0  0  0  0
 31 32  2  0  0  0  0
 31 36  1  0  0  0  0
 32 33  1  0  0  0  0
 32 40  1  0  0  0  0
 33 34  2  0  0  0  0
 33 39  1  0  0  0  0
 34 35  1  0  0  0  0
 34 38  1  0  0  0  0
 35 36  2  0  0  0  0
 35 37  1  0  0  0  0
 43 44  1  0  0  0  0
 43 60  1  0  0  0  0
 43 61  1  0  0  0  0
 44 45  1  0  0  0  0
 44 59  1  1  0  0  0
 45 46  1  0  0  0  0
 45 57  1  0  0  0  0
 45 58  1  0  0  0  0
 46 47  1  0  0  0  0
 46 56  1  0  0  0  0
 47 48  2  0  0  0  0
 47 52  1  0  0  0  0
 48 49  1  0  0  0  0
 48 55  1  0  0  0  0
 49 50  2  0  0  0  0
 49 54  1  0  0  0  0
 50 51  1  0  0  0  0
 51 52  2  0  0  0  0
 51 53  1  0  0  0  0
M  END
>  <MODEL>
       1

$$$$
