output/tmp_first_model_5_29.pdb
 OpenBabel07222620423D

 67 72  0  0  1  0  0  0  0  0999 V2000
    7.4950   -8.4390   23.0910 C   0  0  0  0  0  0  0  0  0  0  0  0
    6.3730   -7.5650   22.6810 N   0  3  0  0  0  0  0  0  0  0  0  0
    6.6290   -6.7460   21.4620 C   0  0  0  0  0  0  0  0  0  0  0  0
    6.0820   -5.3180   21.5520 C   0  0  0  0  0  0  0  0  0  0  0  0
    6.7220   -4.4890   22.5690 N   0  0  0  0  0  0  0  0  0  0  0  0
    7.8090   -3.5840   22.2220 C   0  0  0  0  0  0  0  0  0  0  0  0
    7.5300   -2.1190   22.6590 C   0  0  2  0  0  0  0  0  0  0  0  0
    6.4120   -1.5480   21.7470 C   0  0  0  0  0  0  0  0  0  0  0  0
    5.2660   -1.9470   21.6830 O   0  0  0  0  0  0  0  0  0  0  0  0
    6.9290   -0.5360   20.9570 N   0  0  0  0  0  0  0  0  0  0  0  0
    6.2130   -0.0050   19.8560 C   0  0  0  0  0  0  0  0  0  0  0  0
    6.6060   -0.3110   18.5760 C   0  0  0  0  0  0  0  0  0  0  0  0
    6.0020    0.1270   17.4460 N   0  0  0  0  0  0  0  0  0  0  0  0
    4.9750    0.9280   17.5930 C   0  0  0  0  0  0  0  0  0  0  0  0
    4.4670    1.3420   18.8570 C   0  0  0  0  0  0  0  0  0  0  0  0
    3.3540    2.2210   18.9420 C   0  0  0  0  0  0  0  0  0  0  0  0
    2.8840    2.6190   20.1640 C   0  0  0  0  0  0  0  0  0  0  0  0
    3.4950    2.1520   21.3500 C   0  0  0  0  0  0  0  0  0  0  0  0
    4.5710    1.2990   21.2910 C   0  0  0  0  0  0  0  0  0  0  0  0
    5.0870    0.8660   20.0350 C   0  0  0  0  0  0  0  0  0  0  0  0
    5.0290    0.9390   22.2060 H   0  0  0  0  0  0  0  0  0  0  0  0
    3.1140    2.4800   22.3150 H   0  0  0  0  0  0  0  0  0  0  0  0
    2.0380    3.2980   20.2340 H   0  0  0  0  0  0  0  0  0  0  0  0
    2.8960    2.5750   18.0200 H   0  0  0  0  0  0  0  0  0  0  0  0
    4.4920    1.2890   16.6840 H   0  0  0  0  0  0  0  0  0  0  0  0
    7.4510   -0.9800   18.4260 H   0  0  0  0  0  0  0  0  0  0  0  0
    8.3790   -0.5010   21.0020 C   0  0  0  0  0  0  0  0  0  0  0  0
    8.7070   -1.1440   22.3530 C   0  0  2  0  0  0  0  0  0  0  0  0
   10.1300   -1.6810   22.3660 C   0  0  0  0  0  0  0  0  0  0  0  0
   10.5220   -2.1410   23.6910 N   0  0  0  0  0  0  0  0  0  0  0  0
   11.8530   -2.2340   23.9640 C   0  0  0  0  0  0  0  0  0  0  0  0
   12.6530   -1.2740   23.4850 N   0  0  0  0  0  0  0  0  0  0  0  0
   13.9060   -1.3560   23.8850 C   0  0  0  0  0  0  0  0  0  0  0  0
   14.4260   -2.2770   24.6980 N   0  0  0  0  0  0  0  0  0  0  0  0
   13.5370   -3.1990   25.0650 C   0  0  0  0  0  0  0  0  0  0  0  0
   12.2600   -3.2630   24.7200 N   0  0  0  0  0  0  0  0  0  0  0  0
   13.8900   -3.9770   25.7420 H   0  0  0  0  0  0  0  0  0  0  0  0
   14.5620   -0.5670   23.5240 H   0  0  0  0  0  0  0  0  0  0  0  0
   10.0310   -2.9610   24.0230 H   0  0  0  0  0  0  0  0  0  0  0  0
   10.2680   -2.4870   21.6290 H   0  0  0  0  0  0  0  0  0  0  0  0
   10.8180   -0.8740   22.1040 H   0  0  0  0  0  0  0  0  0  0  0  0
    8.6810   -0.3510   23.1020 H   0  0  0  0  0  0  0  0  0  0  0  0
    8.7430    0.5300   20.9250 H   0  0  0  0  0  0  0  0  0  0  0  0
    8.8300   -1.0700   20.1750 H   0  0  0  0  0  0  0  0  0  0  0  0
    7.0740   -2.1470   24.1080 C   0  0  0  0  0  0  0  0  0  0  0  0
    7.0630   -0.9740   24.8750 C   0  0  0  0  0  0  0  0  0  0  0  0
    6.5970   -0.9980   26.1770 C   0  0  0  0  0  0  0  0  0  0  0  0
    6.5530    0.4800   27.0960 Cl  0  0  0  0  0  0  0  0  0  0  0  0
    6.1280   -2.1740   26.7600 C   0  0  0  0  0  0  0  0  0  0  0  0
    6.0940   -3.3230   25.9950 C   0  0  0  0  0  0  0  0  0  0  0  0
    6.5330   -3.3150   24.6730 C   0  0  0  0  0  0  0  0  0  0  0  0
    6.3000   -4.5480   23.8550 C   0  0  0  0  0  0  0  0  0  0  0  0
    5.7250   -5.5440   24.3160 O   0  0  0  0  0  0  0  0  0  0  0  0
    5.6830   -4.2430   26.3910 H   0  0  0  0  0  0  0  0  0  0  0  0
    5.7850   -2.1660   27.7890 H   0  0  0  0  0  0  0  0  0  0  0  0
    7.3820   -0.0260   24.4570 H   0  0  0  0  0  0  0  0  0  0  0  0
    7.9300   -3.5920   21.1500 H   0  0  0  0  0  0  0  0  0  0  0  0
    8.7450   -3.9450   22.6680 H   0  0  0  0  0  0  0  0  0  0  0  0
    5.0040   -5.3310   21.7520 H   0  0  0  0  0  0  0  0  0  0  0  0
    6.2220   -4.8120   20.5900 H   0  0  0  0  0  0  0  0  0  0  0  0
    7.7040   -6.6950   21.2810 H   0  0  0  0  0  0  0  0  0  0  0  0
    6.1860   -7.2340   20.5910 H   0  0  0  0  0  0  0  0  0  0  0  0
    5.5540   -8.1700   22.4780 H   0  0  0  0  0  0  0  0  0  0  0  0
    6.1010   -6.9390   23.4730 H   0  0  0  0  0  0  0  0  0  0  0  0
    7.5910   -9.3120   22.4350 H   0  0  0  0  0  0  0  0  0  0  0  0
    7.3500   -8.7830   24.1170 H   0  0  0  0  0  0  0  0  0  0  0  0
    8.4330   -7.8800   23.0430 H   0  0  0  0  0  0  0  0  0  0  0  0
  1  2  1  0  0  0  0
  1 65  1  0  0  0  0
  1 66  1  0  0  0  0
  1 67  1  0  0  0  0
  2  3  1  0  0  0  0
  2 63  1  0  0  0  0
  2 64  1  0  0  0  0
  3  4  1  0  0  0  0
  3 61  1  0  0  0  0
  3 62  1  0  0  0  0
  4  5  1  0  0  0  0
  4 59  1  0  0  0  0
  4 60  1  0  0  0  0
  5  6  1  0  0  0  0
  5 52  1  0  0  0  0
  6  7  1  0  0  0  0
  6 57  1  0  0  0  0
  6 58  1  0  0  0  0
  7  8  1  6  0  0  0
  7 28  1  0  0  0  0
  7 45  1  0  0  0  0
  8  9  2  0  0  0  0
  8 10  1  0  0  0  0
 10 11  1  0  0  0  0
 10 27  1  0  0  0  0
 11 12  2  0  0  0  0
 11 20  1  0  0  0  0
 12 13  1  0  0  0  0
 12 26  1  0  0  0  0
 13 14  2  0  0  0  0
 14 15  1  0  0  0  0
 14 25  1  0  0  0  0
 15 16  2  0  0  0  0
 15 20  1  0  0  0  0
 16 17  1  0  0  0  0
 16 24  1  0  0  0  0
 17 18  2  0  0  0  0
 17 23  1  0  0  0  0
 18 19  1  0  0  0  0
 18 22  1  0  0  0  0
 19 20  2  0  0  0  0
 19 21  1  0  0  0  0
 27 28  1  0  0  0  0
 27 43  1  0  0  0  0
 27 44  1  0  0  0  0
 28 29  1  0  0  0  0
 28 42  1  1  0  0  0
 29 30  1  0  0  0  0
 29 40  1  0  0  0  0
 29 41  1  0  0  0  0
 30 31  1  0  0  0  0
 30 39  1  0  0  0  0
 31 32  2  0  0  0  0
 31 36  1  0  0  0  0
 32 33  1  0  0  0  0
 33 34  2  0  0  0  0
 33 38  1  0  0  0  0
 34 35  1  0  0  0  0
 35 36  2  0  0  0  0
 35 37  1  0  0  0  0
 45 46  2  0  0  0  0
 45 51  1  0  0  0  0
 46 47  1  0  0  0  0
 46 56  1  0  0  0  0
 47 48  1  0  0  0  0
 47 49  2  0  0  0  0
 49 50  1  0  0  0  0
 49 55  1  0  0  0  0
 50 51  2  0  0  0  0
 50 54  1  0  0  0  0
 51 52  1  0  0  0  0
 52 53  2  0  0  0  0
M  CHG  1   2   1
M  END
>  <MODEL>
       1

$$$$
