output/tmp_first_model_7_56.pdb
 OpenBabel07222621533D

 41 43  0  0  1  0  0  0  0  0999 V2000
    8.1560    1.5740   20.8580 O   0  0  0  0  0  0  0  0  0  0  0  0
    7.8880    0.5850   21.5150 C   0  0  0  0  0  0  0  0  0  0  0  0
    6.9050   -0.4860   21.0080 C   0  0  0  0  0  0  0  0  0  0  0  0
    6.0030   -0.0280   19.9000 C   0  0  0  0  0  0  0  0  0  0  0  0
    6.4230   -0.1560   18.6030 C   0  0  0  0  0  0  0  0  0  0  0  0
    5.7760    0.3180   17.5100 N   0  0  0  0  0  0  0  0  0  0  0  0
    4.6500    0.9500   17.7200 C   0  0  0  0  0  0  0  0  0  0  0  0
    4.0610    1.1220   19.0000 C   0  0  0  0  0  0  0  0  0  0  0  0
    2.8320    1.8120   19.1660 C   0  0  0  0  0  0  0  0  0  0  0  0
    2.2520    1.9150   20.4000 C   0  0  0  0  0  0  0  0  0  0  0  0
    2.8850    1.3340   21.5200 C   0  0  0  0  0  0  0  0  0  0  0  0
    4.0940    0.6930   21.3940 C   0  0  0  0  0  0  0  0  0  0  0  0
    4.7340    0.5900   20.1280 C   0  0  0  0  0  0  0  0  0  0  0  0
    4.5720    0.2700   22.2720 H   0  0  0  0  0  0  0  0  0  0  0  0
    2.4150    1.4230   22.4960 H   0  0  0  0  0  0  0  0  0  0  0  0
    1.3190    2.4610   20.5250 H   0  0  0  0  0  0  0  0  0  0  0  0
    2.3510    2.2270   18.2850 H   0  0  0  0  0  0  0  0  0  0  0  0
    4.1520    1.3760   16.8470 H   0  0  0  0  0  0  0  0  0  0  0  0
    7.3830   -0.6250   18.3950 H   0  0  0  0  0  0  0  0  0  0  0  0
    6.3190   -0.8730   21.8420 H   0  0  0  0  0  0  0  0  0  0  0  0
    7.5350   -1.3050   20.6300 H   0  0  0  0  0  0  0  0  0  0  0  0
    8.4760    0.3480   22.7440 N   0  0  0  0  0  0  0  0  0  0  0  0
    9.3340    1.4040   23.3010 C   0  0  0  0  0  0  0  0  0  0  0  0
   10.7370    1.4150   22.6970 C   0  0  0  0  0  0  0  0  0  0  0  0
   11.7080    0.3150   23.1150 C   0  0  0  0  0  0  0  0  0  0  0  0
   11.1620   -1.3810   22.7680 S   0  0  0  0  0  0  0  0  0  0  0  0
    9.7850   -1.4620   23.9360 C   0  0  0  0  0  0  0  0  0  0  0  0
    8.4410   -0.9510   23.3890 C   0  0  1  0  0  0  0  0  0  0  0  0
    7.4260   -0.9010   24.5260 C   0  0  0  0  0  0  0  0  0  0  0  0
    7.8400   -0.0530   25.4920 F   0  0  0  0  0  0  0  0  0  0  0  0
    6.2290   -0.4660   24.1030 F   0  0  0  0  0  0  0  0  0  0  0  0
    7.2570   -2.1060   25.0940 F   0  0  0  0  0  0  0  0  0  0  0  0
    8.0980   -1.6990   22.6680 H   0  0  0  0  0  0  0  0  0  0  0  0
   10.0650   -0.9160   24.8380 H   0  0  0  0  0  0  0  0  0  0  0  0
    9.6630   -2.5100   24.2190 H   0  0  0  0  0  0  0  0  0  0  0  0
   11.9840    0.3860   24.1760 H   0  0  0  0  0  0  0  0  0  0  0  0
   12.6290    0.4390   22.5340 H   0  0  0  0  0  0  0  0  0  0  0  0
   10.5890    1.3490   21.6220 H   0  0  0  0  0  0  0  0  0  0  0  0
   11.2090    2.3820   22.9190 H   0  0  0  0  0  0  0  0  0  0  0  0
    8.8540    2.3600   23.0660 H   0  0  0  0  0  0  0  0  0  0  0  0
    9.3490    1.3040   24.3890 H   0  0  0  0  0  0  0  0  0  0  0  0
  1  2  2  0  0  0  0
  2  3  1  0  0  0  0
  2 22  1  0  0  0  0
  3  4  1  0  0  0  0
  3 20  1  0  0  0  0
  3 21  1  0  0  0  0
  4  5  2  0  0  0  0
  4 13  1  0  0  0  0
  5  6  1  0  0  0  0
  5 19  1  0  0  0  0
  6  7  2  0  0  0  0
  7  8  1  0  0  0  0
  7 18  1  0  0  0  0
  8  9  2  0  0  0  0
  8 13  1  0  0  0  0
  9 10  1  0  0  0  0
  9 17  1  0  0  0  0
 10 11  2  0  0  0  0
 10 16  1  0  0  0  0
 11 12  1  0  0  0  0
 11 15  1  0  0  0  0
 12 13  2  0  0  0  0
 12 14  1  0  0  0  0
 22 23  1  0  0  0  0
 22 28  1  0  0  0  0
 23 24  1  0  0  0  0
 23 40  1  0  0  0  0
 23 41  1  0  0  0  0
 24 25  1  0  0  0  0
 24 38  1  0  0  0  0
 24 39  1  0  0  0  0
 25 26  1  0  0  0  0
 25 36  1  0  0  0  0
 25 37  1  0  0  0  0
 26 27  1  0  0  0  0
 27 28  1  0  0  0  0
 27 34  1  0  0  0  0
 27 35  1  0  0  0  0
 28 29  1  0  0  0  0
 28 33  1  6  0  0  0
 29 30  1  0  0  0  0
 29 31  1  0  0  0  0
 29 32  1  0  0  0  0
M  END
>  <MODEL>
       1

$$$$
