output/tmp_first_model_19_46.pdb
 OpenBabel07232603163D

 64 68  0  0  1  0  0  0  0  0999 V2000
    9.1780   -3.6370   25.4130 C   0  0  0  0  0  0  0  0  0  0  0  0
    8.6030   -4.4600   24.2740 C   0  0  0  0  0  0  0  0  0  0  0  0
    6.9710   -3.9800   23.7070 S   0  0  0  0  0  0  0  0  0  0  0  0
    6.7570   -4.6500   22.4290 O   0  0  0  0  0  0  0  0  0  0  0  0
    5.9840   -4.1150   24.7650 O   0  0  0  0  0  0  0  0  0  0  0  0
    7.1510   -2.3300   23.5230 N   0  0  0  0  0  0  0  0  0  0  0  0
    7.9200   -1.7830   22.4080 C   0  0  1  0  0  0  0  0  0  0  0  0
    7.1500   -1.7320   21.0770 C   0  0  0  0  0  0  0  0  0  0  0  0
    6.9190   -0.3280   20.8530 N   0  0  0  0  0  0  0  0  0  0  0  0
    6.1330    0.1270   19.7800 C   0  0  0  0  0  0  0  0  0  0  0  0
    6.4440   -0.2260   18.4900 C   0  0  0  0  0  0  0  0  0  0  0  0
    5.7770    0.2070   17.3960 N   0  0  0  0  0  0  0  0  0  0  0  0
    4.7500    0.9990   17.6030 C   0  0  0  0  0  0  0  0  0  0  0  0
    4.2920    1.3960   18.8930 C   0  0  0  0  0  0  0  0  0  0  0  0
    3.1600    2.2360   19.0600 C   0  0  0  0  0  0  0  0  0  0  0  0
    2.7320    2.5860   20.3110 C   0  0  0  0  0  0  0  0  0  0  0  0
    3.4090    2.1110   21.4570 C   0  0  0  0  0  0  0  0  0  0  0  0
    4.5090    1.3010   21.3230 C   0  0  0  0  0  0  0  0  0  0  0  0
    4.9890    0.9390   20.0300 C   0  0  0  0  0  0  0  0  0  0  0  0
    5.0210    0.9550   22.2140 H   0  0  0  0  0  0  0  0  0  0  0  0
    3.0760    2.4060   22.4480 H   0  0  0  0  0  0  0  0  0  0  0  0
    1.8690    3.2320   20.4290 H   0  0  0  0  0  0  0  0  0  0  0  0
    2.6590    2.6070   18.1700 H   0  0  0  0  0  0  0  0  0  0  0  0
    4.2170    1.3640   16.7260 H   0  0  0  0  0  0  0  0  0  0  0  0
    7.3000   -0.8710   18.3010 H   0  0  0  0  0  0  0  0  0  0  0  0
    7.6900    0.5070   21.6280 C   0  0  0  0  0  0  0  0  0  0  0  0
    7.7540    1.7120   21.4930 O   0  0  0  0  0  0  0  0  0  0  0  0
    8.4380   -0.3480   22.6730 C   0  0  1  0  0  0  0  0  0  0  0  0
    8.1070    0.1660   24.0950 C   0  0  0  0  0  0  0  0  0  0  0  0
    8.7160    1.4630   24.3520 N   0  0  0  0  0  0  0  0  0  0  0  0
    7.9610    2.4600   25.0880 C   0  0  0  0  0  0  0  0  0  0  0  0
    6.8550    3.0730   24.2190 C   0  0  0  0  0  0  0  0  0  0  0  0
    5.7120    2.6470   24.2320 O   0  0  0  0  0  0  0  0  0  0  0  0
    7.2530    4.1190   23.4380 N   0  0  0  0  0  0  0  0  0  0  0  0
    6.3260    4.6230   22.4350 C   0  0  0  0  0  0  0  0  0  0  0  0
    5.4620    5.0840   22.9290 H   0  0  0  0  0  0  0  0  0  0  0  0
    5.9760    3.8080   21.7840 H   0  0  0  0  0  0  0  0  0  0  0  0
    6.8240    5.3810   21.8270 H   0  0  0  0  0  0  0  0  0  0  0  0
    8.2440    4.1980   23.2310 H   0  0  0  0  0  0  0  0  0  0  0  0
    7.4940    1.9910   25.9600 H   0  0  0  0  0  0  0  0  0  0  0  0
    8.6700    3.2210   25.4280 H   0  0  0  0  0  0  0  0  0  0  0  0
   10.0130    1.7390   24.0250 C   0  0  0  0  0  0  0  0  0  0  0  0
   10.5870    2.7410   24.4280 O   0  0  0  0  0  0  0  0  0  0  0  0
   10.6810    0.7570   23.1150 C   0  0  0  0  0  0  0  0  0  0  0  0
   12.0570    0.8790   22.9250 C   0  0  0  0  0  0  0  0  0  0  0  0
   12.7420   -0.0100   22.1210 C   0  0  0  0  0  0  0  0  0  0  0  0
   12.0040   -0.9960   21.4670 C   0  0  0  0  0  0  0  0  0  0  0  0
   12.8130   -2.1100   20.4040 Cl  0  0  0  0  0  0  0  0  0  0  0  0
   10.6330   -1.1050   21.6150 C   0  0  0  0  0  0  0  0  0  0  0  0
    9.9460   -0.2480   22.4830 C   0  0  0  0  0  0  0  0  0  0  0  0
   10.1060   -1.8400   21.0180 H   0  0  0  0  0  0  0  0  0  0  0  0
   13.8140    0.0690   21.9670 H   0  0  0  0  0  0  0  0  0  0  0  0
   12.5540    1.7100   23.4100 H   0  0  0  0  0  0  0  0  0  0  0  0
    7.0270    0.2740   24.2200 H   0  0  0  0  0  0  0  0  0  0  0  0
    8.4710   -0.5610   24.8290 H   0  0  0  0  0  0  0  0  0  0  0  0
    7.7760   -2.1320   20.2790 H   0  0  0  0  0  0  0  0  0  0  0  0
    6.2150   -2.3020   21.1110 H   0  0  0  0  0  0  0  0  0  0  0  0
    8.7770   -2.4460   22.3090 H   0  0  0  0  0  0  0  0  0  0  0  0
    6.2770   -1.8560   23.7340 H   0  0  0  0  0  0  0  0  0  0  0  0
    9.2360   -4.4400   23.3810 H   0  0  0  0  0  0  0  0  0  0  0  0
    8.5150   -5.5020   24.5730 H   0  0  0  0  0  0  0  0  0  0  0  0
    8.4670   -3.5750   26.2410 H   0  0  0  0  0  0  0  0  0  0  0  0
   10.0870   -4.1350   25.7640 H   0  0  0  0  0  0  0  0  0  0  0  0
    9.4500   -2.6280   25.0880 H   0  0  0  0  0  0  0  0  0  0  0  0
  1  2  1  0  0  0  0
  1 62  1  0  0  0  0
  1 63  1  0  0  0  0
  1 64  1  0  0  0  0
  2  3  1  0  0  0  0
  2 60  1  0  0  0  0
  2 61  1  0  0  0  0
  3  4  2  0  0  0  0
  3  5  2  0  0  0  0
  3  6  1  0  0  0  0
  6  7  1  0  0  0  0
  6 59  1  0  0  0  0
  7  8  1  0  0  0  0
  7 28  1  0  0  0  0
  7 58  1  6  0  0  0
  8  9  1  0  0  0  0
  8 56  1  0  0  0  0
  8 57  1  0  0  0  0
  9 10  1  0  0  0  0
  9 26  1  0  0  0  0
 10 11  2  0  0  0  0
 10 19  1  0  0  0  0
 11 12  1  0  0  0  0
 11 25  1  0  0  0  0
 12 13  2  0  0  0  0
 13 14  1  0  0  0  0
 13 24  1  0  0  0  0
 14 15  2  0  0  0  0
 14 19  1  0  0  0  0
 15 16  1  0  0  0  0
 15 23  1  0  0  0  0
 16 17  2  0  0  0  0
 16 22  1  0  0  0  0
 17 18  1  0  0  0  0
 17 21  1  0  0  0  0
 18 19  2  0  0  0  0
 18 20  1  0  0  0  0
 26 27  2  0  0  0  0
 28 26  1  6  0  0  0
 28 29  1  0  0  0  0
 28 50  1  0  0  0  0
 29 30  1  0  0  0  0
 29 54  1  0  0  0  0
 29 55  1  0  0  0  0
 30 31  1  0  0  0  0
 30 42  1  0  0  0  0
 31 32  1  0  0  0  0
 31 40  1  0  0  0  0
 31 41  1  0  0  0  0
 32 33  2  0  0  0  0
 32 34  1  0  0  0  0
 34 35  1  0  0  0  0
 34 39  1  0  0  0  0
 35 36  1  0  0  0  0
 35 37  1  0  0  0  0
 35 38  1  0  0  0  0
 42 43  2  0  0  0  0
 42 44  1  0  0  0  0
 44 45  2  0  0  0  0
 44 50  1  0  0  0  0
 45 46  1  0  0  0  0
 45 53  1  0  0  0  0
 46 47  2  0  0  0  0
 46 52  1  0  0  0  0
 47 48  1  0  0  0  0
 47 49  1  0  0  0  0
 49 50  2  0  0  0  0
 49 51  1  0  0  0  0
M  END
>  <MODEL>
       1

$$$$
