output/tmp_first_model_11_25.pdb
 OpenBabel07222623443D

 68 73  0  0  1  0  0  0  0  0999 V2000
    6.6750    4.4340   21.2930 C   0  0  0  0  0  0  0  0  0  0  0  0
    7.5870    4.0620   22.3540 N   0  0  0  0  0  0  0  0  0  0  0  0
    7.0440    3.3940   23.3970 C   0  0  0  0  0  0  0  0  0  0  0  0
    5.8330    3.2550   23.5040 O   0  0  0  0  0  0  0  0  0  0  0  0
    7.9810    2.8360   24.4610 C   0  0  0  0  0  0  0  0  0  0  0  0
    8.7220    1.6830   24.0180 N   0  0  0  0  0  0  0  0  0  0  0  0
    8.0220    0.4170   23.8930 C   0  0  0  0  0  0  0  0  0  0  0  0
    8.4490   -0.3530   22.6280 C   0  0  2  0  0  0  0  0  0  0  0  0
    7.9410    0.3440   21.3490 C   0  0  0  0  0  0  0  0  0  0  0  0
    8.3700    1.3590   20.8430 O   0  0  0  0  0  0  0  0  0  0  0  0
    6.9050   -0.4000   20.8410 N   0  0  0  0  0  0  0  0  0  0  0  0
    6.1270    0.1000   19.7690 C   0  0  0  0  0  0  0  0  0  0  0  0
    6.4600   -0.2140   18.4780 C   0  0  0  0  0  0  0  0  0  0  0  0
    5.7790    0.2270   17.3920 N   0  0  0  0  0  0  0  0  0  0  0  0
    4.7510    1.0090   17.5980 C   0  0  0  0  0  0  0  0  0  0  0  0
    4.2940    1.4070   18.8860 C   0  0  0  0  0  0  0  0  0  0  0  0
    3.1710    2.2560   19.0680 C   0  0  0  0  0  0  0  0  0  0  0  0
    2.7660    2.6270   20.3190 C   0  0  0  0  0  0  0  0  0  0  0  0
    3.4640    2.1630   21.4600 C   0  0  0  0  0  0  0  0  0  0  0  0
    4.5540    1.3400   21.3130 C   0  0  0  0  0  0  0  0  0  0  0  0
    5.0020    0.9410   20.0220 C   0  0  0  0  0  0  0  0  0  0  0  0
    5.0950    1.0090   22.1960 H   0  0  0  0  0  0  0  0  0  0  0  0
    3.1600    2.4760   22.4530 H   0  0  0  0  0  0  0  0  0  0  0  0
    1.9150    3.2910   20.4440 H   0  0  0  0  0  0  0  0  0  0  0  0
    2.6600    2.6230   18.1800 H   0  0  0  0  0  0  0  0  0  0  0  0
    4.2080    1.3670   16.7200 H   0  0  0  0  0  0  0  0  0  0  0  0
    7.3220   -0.8490   18.2770 H   0  0  0  0  0  0  0  0  0  0  0  0
    6.5750   -1.5820   21.6080 C   0  0  0  0  0  0  0  0  0  0  0  0
    7.8010   -1.7630   22.5100 C   0  0  2  0  0  0  0  0  0  0  0  0
    7.5060   -2.4980   23.8230 C   0  0  0  0  0  0  0  0  0  0  0  0
    7.0860   -3.8690   23.6480 N   0  0  0  0  0  0  0  0  0  0  0  0
    5.7630   -4.2480   23.5820 C   0  0  0  0  0  0  0  0  0  0  0  0
    5.2610   -5.5220   23.1780 C   0  0  0  0  0  0  0  0  0  0  0  0
    3.9420   -5.5690   23.2740 N   0  0  0  0  0  0  0  0  0  0  0  0
    3.5720   -4.3900   23.7760 N   0  0  0  0  0  0  0  0  0  0  0  0
    2.1840   -4.0230   23.6760 C   0  0  0  0  0  0  0  0  0  0  0  0
    1.9910   -3.7330   22.6420 H   0  0  0  0  0  0  0  0  0  0  0  0
    1.5890   -4.9100   23.8970 H   0  0  0  0  0  0  0  0  0  0  0  0
    1.9720   -3.2050   24.3700 H   0  0  0  0  0  0  0  0  0  0  0  0
    4.6250   -3.5350   23.9160 C   0  0  0  0  0  0  0  0  0  0  0  0
    4.4480   -2.5060   24.1940 H   0  0  0  0  0  0  0  0  0  0  0  0
    5.7810   -6.3670   22.7300 H   0  0  0  0  0  0  0  0  0  0  0  0
    7.7560   -4.5270   23.2780 H   0  0  0  0  0  0  0  0  0  0  0  0
    8.3920   -2.4870   24.4700 H   0  0  0  0  0  0  0  0  0  0  0  0
    6.7120   -1.9680   24.3560 H   0  0  0  0  0  0  0  0  0  0  0  0
    8.5160   -2.3870   21.9760 H   0  0  0  0  0  0  0  0  0  0  0  0
    6.4050   -2.4340   20.9440 H   0  0  0  0  0  0  0  0  0  0  0  0
    5.6660   -1.4360   22.2090 H   0  0  0  0  0  0  0  0  0  0  0  0
    9.9540   -0.3630   22.5960 C   0  0  0  0  0  0  0  0  0  0  0  0
   10.5880   -1.2410   21.7210 C   0  0  0  0  0  0  0  0  0  0  0  0
   11.9600   -1.2330   21.6090 C   0  0  0  0  0  0  0  0  0  0  0  0
   12.6380   -2.2280   20.3380 Cl  0  0  0  0  0  0  0  0  0  0  0  0
   12.7330   -0.3970   22.4260 C   0  0  0  0  0  0  0  0  0  0  0  0
   12.1140    0.5490   23.2120 C   0  0  0  0  0  0  0  0  0  0  0  0
   10.7240    0.5980   23.2580 C   0  0  0  0  0  0  0  0  0  0  0  0
   10.0790    1.7670   23.9150 C   0  0  0  0  0  0  0  0  0  0  0  0
   10.7240    2.7430   24.2940 O   0  0  0  0  0  0  0  0  0  0  0  0
   12.6930    1.2870   23.7610 H   0  0  0  0  0  0  0  0  0  0  0  0
   13.8140   -0.4120   22.3830 H   0  0  0  0  0  0  0  0  0  0  0  0
   10.0140   -1.9150   21.0970 H   0  0  0  0  0  0  0  0  0  0  0  0
    6.9500    0.6290   23.8650 H   0  0  0  0  0  0  0  0  0  0  0  0
    8.2400   -0.2100   24.7680 H   0  0  0  0  0  0  0  0  0  0  0  0
    8.7260    3.5700   24.7760 H   0  0  0  0  0  0  0  0  0  0  0  0
    7.3260    2.5570   25.2890 H   0  0  0  0  0  0  0  0  0  0  0  0
    8.5640    3.9560   22.1260 H   0  0  0  0  0  0  0  0  0  0  0  0
    5.9210    5.1140   21.6790 H   0  0  0  0  0  0  0  0  0  0  0  0
    7.1910    4.9180   20.4740 H   0  0  0  0  0  0  0  0  0  0  0  0
    6.1440    3.5610   20.9110 H   0  0  0  0  0  0  0  0  0  0  0  0
  1  2  1  0  0  0  0
  1 66  1  0  0  0  0
  1 67  1  0  0  0  0
  1 68  1  0  0  0  0
  2  3  1  0  0  0  0
  2 65  1  0  0  0  0
  3  4  2  0  0  0  0
  3  5  1  0  0  0  0
  5  6  1  0  0  0  0
  5 63  1  0  0  0  0
  5 64  1  0  0  0  0
  6  7  1  0  0  0  0
  6 56  1  0  0  0  0
  7  8  1  0  0  0  0
  7 61  1  0  0  0  0
  7 62  1  0  0  0  0
  8  9  1  6  0  0  0
  8 29  1  0  0  0  0
  8 49  1  0  0  0  0
  9 10  2  0  0  0  0
  9 11  1  0  0  0  0
 11 12  1  0  0  0  0
 11 28  1  0  0  0  0
 12 13  2  0  0  0  0
 12 21  1  0  0  0  0
 13 14  1  0  0  0  0
 13 27  1  0  0  0  0
 14 15  2  0  0  0  0
 15 16  1  0  0  0  0
 15 26  1  0  0  0  0
 16 17  2  0  0  0  0
 16 21  1  0  0  0  0
 17 18  1  0  0  0  0
 17 25  1  0  0  0  0
 18 19  2  0  0  0  0
 18 24  1  0  0  0  0
 19 20  1  0  0  0  0
 19 23  1  0  0  0  0
 20 21  2  0  0  0  0
 20 22  1  0  0  0  0
 28 29  1  0  0  0  0
 28 47  1  0  0  0  0
 28 48  1  0  0  0  0
 29 30  1  0  0  0  0
 29 46  1  6  0  0  0
 30 31  1  0  0  0  0
 30 44  1  0  0  0  0
 30 45  1  0  0  0  0
 31 32  1  0  0  0  0
 31 43  1  0  0  0  0
 32 33  1  0  0  0  0
 32 40  2  0  0  0  0
 33 34  2  0  0  0  0
 33 42  1  0  0  0  0
 34 35  1  0  0  0  0
 35 36  1  0  0  0  0
 35 40  1  0  0  0  0
 36 37  1  0  0  0  0
 36 38  1  0  0  0  0
 36 39  1  0  0  0  0
 40 41  1  0  0  0  0
 49 50  2  0  0  0  0
 49 55  1  0  0  0  0
 50 51  1  0  0  0  0
 50 60  1  0  0  0  0
 51 52  1  0  0  0  0
 51 53  2  0  0  0  0
 53 54  1  0  0  0  0
 53 59  1  0  0  0  0
 54 55  2  0  0  0  0
 54 58  1  0  0  0  0
 55 56  1  0  0  0  0
 56 57  2  0  0  0  0
M  END
>  <MODEL>
       1

$$$$
