output/tmp_first_model_20_11.pdb
 OpenBabel07232603433D

 54 57  0  0  1  0  0  0  0  0999 V2000
    9.5490    2.2290   24.5530 C   0  0  0  0  0  0  0  0  0  0  0  0
    8.8990    0.9800   24.6760 O   0  0  0  0  0  0  0  0  0  0  0  0
    9.4900   -0.0910   24.0620 C   0  0  0  0  0  0  0  0  0  0  0  0
   10.8710   -0.1740   23.8900 C   0  0  0  0  0  0  0  0  0  0  0  0
   11.4210   -1.2090   23.1390 C   0  0  0  0  0  0  0  0  0  0  0  0
   10.6080   -2.2240   22.6530 C   0  0  0  0  0  0  0  0  0  0  0  0
    9.2400   -2.1810   22.9180 C   0  0  0  0  0  0  0  0  0  0  0  0
    8.6540   -1.1280   23.6240 C   0  0  0  0  0  0  0  0  0  0  0  0
    7.1670   -1.0990   23.9820 C   0  0  2  0  0  0  0  0  0  0  0  0
    6.9540   -1.6280   25.4360 C   0  0  0  0  0  0  0  0  0  0  0  0
    5.4840   -1.9640   25.7480 C   0  0  2  0  0  0  0  0  0  0  0  0
    5.1480   -2.4490   27.1660 C   0  0  0  0  0  0  0  0  0  0  0  0
    5.5650   -1.8080   27.9540 H   0  0  0  0  0  0  0  0  0  0  0  0
    4.0530   -2.4670   27.2880 H   0  0  0  0  0  0  0  0  0  0  0  0
    5.4970   -3.4750   27.3410 H   0  0  0  0  0  0  0  0  0  0  0  0
    5.0570   -2.9940   24.7160 C   0  0  0  0  0  0  0  0  0  0  0  0
    5.0710   -2.3290   23.3700 C   0  0  0  0  0  0  0  0  0  0  0  0
    6.3790   -1.8310   22.9810 N   0  0  0  0  0  0  0  0  0  0  0  0
    6.4390   -1.6100   21.6090 C   0  0  0  0  0  0  0  0  0  0  0  0
    5.9260   -2.4040   20.8390 O   0  0  0  0  0  0  0  0  0  0  0  0
    7.1140   -0.3590   21.0400 C   0  0  0  0  0  0  0  0  0  0  0  0
    6.3020    0.2110   19.9020 C   0  0  0  0  0  0  0  0  0  0  0  0
    6.6540   -0.0700   18.6080 C   0  0  0  0  0  0  0  0  0  0  0  0
    5.9810    0.3420   17.5030 N   0  0  0  0  0  0  0  0  0  0  0  0
    4.8970    1.0490   17.6990 C   0  0  0  0  0  0  0  0  0  0  0  0
    4.4120    1.4280   18.9800 C   0  0  0  0  0  0  0  0  0  0  0  0
    3.2520    2.2280   19.1330 C   0  0  0  0  0  0  0  0  0  0  0  0
    2.8000    2.5630   20.3790 C   0  0  0  0  0  0  0  0  0  0  0  0
    3.4840    2.0990   21.5250 C   0  0  0  0  0  0  0  0  0  0  0  0
    4.6080    1.3220   21.4060 C   0  0  0  0  0  0  0  0  0  0  0  0
    5.1180    0.9800   20.1230 C   0  0  0  0  0  0  0  0  0  0  0  0
    5.1090    0.9680   22.3050 H   0  0  0  0  0  0  0  0  0  0  0  0
    3.1120    2.3630   22.5100 H   0  0  0  0  0  0  0  0  0  0  0  0
    1.9160    3.1830   20.4960 H   0  0  0  0  0  0  0  0  0  0  0  0
    2.7330    2.5650   18.2390 H   0  0  0  0  0  0  0  0  0  0  0  0
    4.3420    1.3570   16.8130 H   0  0  0  0  0  0  0  0  0  0  0  0
    7.5400   -0.6730   18.4050 H   0  0  0  0  0  0  0  0  0  0  0  0
    8.0890   -0.6880   20.6620 H   0  0  0  0  0  0  0  0  0  0  0  0
    7.3040    0.3800   21.8240 H   0  0  0  0  0  0  0  0  0  0  0  0
    4.3900   -1.4610   23.3840 H   0  0  0  0  0  0  0  0  0  0  0  0
    4.7470   -3.0130   22.5900 H   0  0  0  0  0  0  0  0  0  0  0  0
    5.7500   -3.8450   24.7310 H   0  0  0  0  0  0  0  0  0  0  0  0
    4.0510   -3.3760   24.9350 H   0  0  0  0  0  0  0  0  0  0  0  0
    4.8810   -1.0580   25.5830 H   0  0  0  0  0  0  0  0  0  0  0  0
    7.3320   -0.8620   26.1230 H   0  0  0  0  0  0  0  0  0  0  0  0
    7.5760   -2.5160   25.6050 H   0  0  0  0  0  0  0  0  0  0  0  0
    6.8320   -0.0520   23.9960 H   0  0  0  0  0  0  0  0  0  0  0  0
    8.6200   -2.9890   22.5400 H   0  0  0  0  0  0  0  0  0  0  0  0
   11.0440   -3.0410   22.0820 H   0  0  0  0  0  0  0  0  0  0  0  0
   12.4870   -1.1990   22.9270 H   0  0  0  0  0  0  0  0  0  0  0  0
   11.4940    0.6040   24.3210 H   0  0  0  0  0  0  0  0  0  0  0  0
   10.4780    2.2570   25.1320 H   0  0  0  0  0  0  0  0  0  0  0  0
    8.8420    2.9710   24.9270 H   0  0  0  0  0  0  0  0  0  0  0  0
    9.7980    2.4550   23.5070 H   0  0  0  0  0  0  0  0  0  0  0  0
  1  2  1  0  0  0  0
  1 52  1  0  0  0  0
  1 53  1  0  0  0  0
  1 54  1  0  0  0  0
  2  3  1  0  0  0  0
  3  4  2  0  0  0  0
  3  8  1  0  0  0  0
  4  5  1  0  0  0  0
  4 51  1  0  0  0  0
  5  6  2  0  0  0  0
  5 50  1  0  0  0  0
  6  7  1  0  0  0  0
  6 49  1  0  0  0  0
  7  8  2  0  0  0  0
  7 48  1  0  0  0  0
  8  9  1  0  0  0  0
  9 10  1  0  0  0  0
  9 18  1  0  0  0  0
  9 47  1  6  0  0  0
 10 11  1  0  0  0  0
 10 45  1  0  0  0  0
 10 46  1  0  0  0  0
 11 12  1  0  0  0  0
 11 16  1  0  0  0  0
 11 44  1  6  0  0  0
 12 13  1  0  0  0  0
 12 14  1  0  0  0  0
 12 15  1  0  0  0  0
 16 17  1  0  0  0  0
 16 42  1  0  0  0  0
 16 43  1  0  0  0  0
 17 18  1  0  0  0  0
 17 40  1  0  0  0  0
 17 41  1  0  0  0  0
 18 19  1  0  0  0  0
 19 20  2  0  0  0  0
 19 21  1  0  0  0  0
 21 22  1  0  0  0  0
 21 38  1  0  0  0  0
 21 39  1  0  0  0  0
 22 23  2  0  0  0  0
 22 31  1  0  0  0  0
 23 24  1  0  0  0  0
 23 37  1  0  0  0  0
 24 25  2  0  0  0  0
 25 26  1  0  0  0  0
 25 36  1  0  0  0  0
 26 27  2  0  0  0  0
 26 31  1  0  0  0  0
 27 28  1  0  0  0  0
 27 35  1  0  0  0  0
 28 29  2  0  0  0  0
 28 34  1  0  0  0  0
 29 30  1  0  0  0  0
 29 33  1  0  0  0  0
 30 31  2  0  0  0  0
 30 32  1  0  0  0  0
M  END
>  <MODEL>
       1

$$$$
