output/tmp_first_model_13_81.pdb
 OpenBabel07232600343D

 58 63  0  0  1  0  0  0  0  0999 V2000
    7.7920   -6.8970   24.1070 C   0  0  0  0  0  0  0  0  0  0  0  0
    6.3680   -6.5880   23.7970 C   0  0  0  0  0  0  0  0  0  0  0  0
    5.9980   -5.8200   22.8180 N   0  0  0  0  0  0  0  0  0  0  0  0
    4.7380   -5.3680   23.1950 C   0  0  0  0  0  0  0  0  0  0  0  0
    4.3470   -4.0000   22.7410 C   0  0  0  0  0  0  0  0  0  0  0  0
    5.1960   -3.0340   23.4430 N   0  0  0  0  0  0  0  0  0  0  0  0
    6.6000   -2.8510   23.0820 C   0  0  0  0  0  0  0  0  0  0  0  0
    6.8220   -1.3630   22.7410 C   0  0  2  0  0  0  0  0  0  0  0  0
    6.0590   -1.1630   21.4220 C   0  0  0  0  0  0  0  0  0  0  0  0
    4.9550   -1.5860   21.1400 O   0  0  0  0  0  0  0  0  0  0  0  0
    6.8370   -0.4330   20.5470 N   0  0  0  0  0  0  0  0  0  0  0  0
    6.1950    0.2440   19.4840 C   0  0  0  0  0  0  0  0  0  0  0  0
    6.5780    0.0520   18.1820 C   0  0  0  0  0  0  0  0  0  0  0  0
    5.8950    0.5410   17.1170 N   0  0  0  0  0  0  0  0  0  0  0  0
    4.8140    1.2500   17.3650 C   0  0  0  0  0  0  0  0  0  0  0  0
    4.3460    1.5670   18.6720 C   0  0  0  0  0  0  0  0  0  0  0  0
    3.1630    2.3120   18.9080 C   0  0  0  0  0  0  0  0  0  0  0  0
    2.7760    2.6260   20.1840 C   0  0  0  0  0  0  0  0  0  0  0  0
    3.5560    2.2160   21.2880 C   0  0  0  0  0  0  0  0  0  0  0  0
    4.6950    1.4810   21.0920 C   0  0  0  0  0  0  0  0  0  0  0  0
    5.0860    1.1000   19.7720 C   0  0  0  0  0  0  0  0  0  0  0  0
    5.2880    1.1620   21.9490 H   0  0  0  0  0  0  0  0  0  0  0  0
    3.2440    2.4690   22.2970 H   0  0  0  0  0  0  0  0  0  0  0  0
    1.8710    3.1990   20.3570 H   0  0  0  0  0  0  0  0  0  0  0  0
    2.5820    2.6400   18.0510 H   0  0  0  0  0  0  0  0  0  0  0  0
    4.2560    1.6180   16.5040 H   0  0  0  0  0  0  0  0  0  0  0  0
    7.4530   -0.5590   17.9560 H   0  0  0  0  0  0  0  0  0  0  0  0
    8.0970   -0.0130   21.1230 C   0  0  0  0  0  0  0  0  0  0  0  0
    8.2740   -0.9320   22.3550 C   0  0  2  0  0  0  0  0  0  0  0  0
    9.2400   -2.0780   22.0490 C   0  0  0  0  0  0  0  0  0  0  0  0
    9.3110   -2.7670   22.8950 H   0  0  0  0  0  0  0  0  0  0  0  0
   10.2450   -1.6850   21.8570 H   0  0  0  0  0  0  0  0  0  0  0  0
    8.9180   -2.6450   21.1710 H   0  0  0  0  0  0  0  0  0  0  0  0
    8.7130   -0.3730   23.1850 H   0  0  0  0  0  0  0  0  0  0  0  0
    8.9180   -0.1270   20.4130 H   0  0  0  0  0  0  0  0  0  0  0  0
    8.0610    1.0510   21.3930 H   0  0  0  0  0  0  0  0  0  0  0  0
    6.3040   -0.5540   23.9440 C   0  0  0  0  0  0  0  0  0  0  0  0
    6.7370    0.7590   24.2180 C   0  0  0  0  0  0  0  0  0  0  0  0
    6.5560    1.2890   25.4880 C   0  0  0  0  0  0  0  0  0  0  0  0
    7.0540    2.5080   25.7730 F   0  0  0  0  0  0  0  0  0  0  0  0
    5.9160    0.5870   26.5050 C   0  0  0  0  0  0  0  0  0  0  0  0
    5.3540   -0.6370   26.1840 C   0  0  0  0  0  0  0  0  0  0  0  0
    5.4880   -1.1700   24.9050 C   0  0  0  0  0  0  0  0  0  0  0  0
    4.7300   -2.4140   24.5640 C   0  0  0  0  0  0  0  0  0  0  0  0
    3.7800   -2.8240   25.2220 O   0  0  0  0  0  0  0  0  0  0  0  0
    4.8060   -1.2130   26.9200 H   0  0  0  0  0  0  0  0  0  0  0  0
    5.8510    1.0190   27.4980 H   0  0  0  0  0  0  0  0  0  0  0  0
    7.2520    1.3670   23.4780 H   0  0  0  0  0  0  0  0  0  0  0  0
    6.8250   -3.5020   22.2390 H   0  0  0  0  0  0  0  0  0  0  0  0
    7.2630   -3.1400   23.9100 H   0  0  0  0  0  0  0  0  0  0  0  0
    3.3030   -3.7590   22.9590 H   0  0  0  0  0  0  0  0  0  0  0  0
    4.5280   -3.8880   21.6700 H   0  0  0  0  0  0  0  0  0  0  0  0
    4.3490   -6.0500   24.2870 C   0  0  0  0  0  0  0  0  0  0  0  0
    5.3860   -6.8430   24.6880 O   0  0  0  0  0  0  0  0  0  0  0  0
    3.4810   -6.0020   24.9150 H   0  0  0  0  0  0  0  0  0  0  0  0
    8.0250   -6.7100   25.1610 H   0  0  0  0  0  0  0  0  0  0  0  0
    8.1290   -7.8950   23.8260 H   0  0  0  0  0  0  0  0  0  0  0  0
    8.3570   -6.1870   23.5250 H   0  0  0  0  0  0  0  0  0  0  0  0
  1  2  1  0  0  0  0
  1 56  1  0  0  0  0
  1 57  1  0  0  0  0
  1 58  1  0  0  0  0
  2  3  2  0  0  0  0
  2 54  1  0  0  0  0
  3  4  1  0  0  0  0
  4  5  1  0  0  0  0
  4 53  2  0  0  0  0
  5  6  1  0  0  0  0
  5 51  1  0  0  0  0
  5 52  1  0  0  0  0
  6  7  1  0  0  0  0
  6 44  1  0  0  0  0
  7  8  1  0  0  0  0
  7 49  1  0  0  0  0
  7 50  1  0  0  0  0
  8  9  1  6  0  0  0
  8 29  1  0  0  0  0
  8 37  1  0  0  0  0
  9 10  2  0  0  0  0
  9 11  1  0  0  0  0
 11 12  1  0  0  0  0
 11 28  1  0  0  0  0
 12 13  2  0  0  0  0
 12 21  1  0  0  0  0
 13 14  1  0  0  0  0
 13 27  1  0  0  0  0
 14 15  2  0  0  0  0
 15 16  1  0  0  0  0
 15 26  1  0  0  0  0
 16 17  2  0  0  0  0
 16 21  1  0  0  0  0
 17 18  1  0  0  0  0
 17 25  1  0  0  0  0
 18 19  2  0  0  0  0
 18 24  1  0  0  0  0
 19 20  1  0  0  0  0
 19 23  1  0  0  0  0
 20 21  2  0  0  0  0
 20 22  1  0  0  0  0
 28 29  1  0  0  0  0
 28 35  1  0  0  0  0
 28 36  1  0  0  0  0
 29 30  1  0  0  0  0
 29 34  1  1  0  0  0
 30 31  1  0  0  0  0
 30 32  1  0  0  0  0
 30 33  1  0  0  0  0
 37 38  2  0  0  0  0
 37 43  1  0  0  0  0
 38 39  1  0  0  0  0
 38 48  1  0  0  0  0
 39 40  1  0  0  0  0
 39 41  2  0  0  0  0
 41 42  1  0  0  0  0
 41 47  1  0  0  0  0
 42 43  2  0  0  0  0
 42 46  1  0  0  0  0
 43 44  1  0  0  0  0
 44 45  2  0  0  0  0
 53 54  1  0  0  0  0
 53 55  1  0  0  0  0
M  END
>  <MODEL>
       1

$$$$
