output/tmp_first_model_9_42.pdb
 OpenBabel07222623023D

 60 65  0  0  1  0  0  0  0  0999 V2000
    5.8540    1.0840   28.8110 C   0  0  0  0  0  0  0  0  0  0  0  0
    6.3130    1.3090   27.4580 N   0  0  0  0  0  0  0  0  0  0  0  0
    5.6350    0.7670   26.4070 C   0  0  0  0  0  0  0  0  0  0  0  0
    4.7150   -0.0230   26.5360 O   0  0  0  0  0  0  0  0  0  0  0  0
    6.0230    1.3190   25.0250 C   0  0  0  0  0  0  0  0  0  0  0  0
    6.9720    0.4990   24.2820 N   0  0  0  0  0  0  0  0  0  0  0  0
    6.4790   -0.6920   23.5890 C   0  0  0  0  0  0  0  0  0  0  0  0
    7.2880   -1.0330   22.3070 C   0  0  2  0  0  0  0  0  0  0  0  0
    6.8050   -0.2320   21.0930 C   0  0  0  0  0  0  0  0  0  0  0  0
    7.1610    0.8710   20.7290 O   0  0  0  0  0  0  0  0  0  0  0  0
    5.8730   -0.9990   20.4280 N   0  0  0  0  0  0  0  0  0  0  0  0
    5.2390   -0.4140   19.3090 C   0  0  0  0  0  0  0  0  0  0  0  0
    5.6060   -0.7400   18.0290 C   0  0  0  0  0  0  0  0  0  0  0  0
    5.1780   -0.0770   16.9260 N   0  0  0  0  0  0  0  0  0  0  0  0
    4.3630    0.9390   17.1080 C   0  0  0  0  0  0  0  0  0  0  0  0
    3.8620    1.3450   18.3810 C   0  0  0  0  0  0  0  0  0  0  0  0
    2.9740    2.4400   18.5570 C   0  0  0  0  0  0  0  0  0  0  0  0
    2.5690    2.8260   19.8090 C   0  0  0  0  0  0  0  0  0  0  0  0
    2.9940    2.1110   20.9480 C   0  0  0  0  0  0  0  0  0  0  0  0
    3.8150    1.0240   20.8020 C   0  0  0  0  0  0  0  0  0  0  0  0
    4.3070    0.6440   19.5200 C   0  0  0  0  0  0  0  0  0  0  0  0
    4.1020    0.4470   21.6750 H   0  0  0  0  0  0  0  0  0  0  0  0
    2.6740    2.4150   21.9410 H   0  0  0  0  0  0  0  0  0  0  0  0
    1.9280    3.6940   19.9360 H   0  0  0  0  0  0  0  0  0  0  0  0
    2.6190    2.9680   17.6790 H   0  0  0  0  0  0  0  0  0  0  0  0
    4.0720    1.4990   16.2190 H   0  0  0  0  0  0  0  0  0  0  0  0
    6.3090   -1.5550   17.8470 H   0  0  0  0  0  0  0  0  0  0  0  0
    5.7320   -2.3520   20.9540 C   0  0  0  0  0  0  0  0  0  0  0  0
    7.0040   -2.4870   21.8220 C   0  0  2  0  0  0  0  0  0  0  0  0
    7.0800   -3.6180   22.8710 C   0  0  0  0  0  0  0  0  0  0  0  0
    8.3370   -3.5780   23.7140 C   0  0  0  0  0  0  0  0  0  0  0  0
    8.3880   -3.2150   24.9850 N   0  0  0  0  0  0  0  0  0  0  0  0
    9.6750   -3.3220   25.3300 N   0  0  0  0  0  0  0  0  0  0  0  0
   10.3560   -3.7370   24.3040 N   0  5  0  0  0  0  0  0  0  0  0  0
    9.5340   -3.9170   23.2670 N   0  0  0  0  0  0  0  0  0  0  0  0
    7.0860   -4.5760   22.3490 H   0  0  0  0  0  0  0  0  0  0  0  0
    6.2240   -3.6130   23.5470 H   0  0  0  0  0  0  0  0  0  0  0  0
    7.8030   -2.7120   21.1170 H   0  0  0  0  0  0  0  0  0  0  0  0
    4.8050   -2.4640   21.5360 H   0  0  0  0  0  0  0  0  0  0  0  0
    5.7030   -3.0670   20.1300 H   0  0  0  0  0  0  0  0  0  0  0  0
    8.7520   -0.7500   22.5550 C   0  0  0  0  0  0  0  0  0  0  0  0
    9.6590   -1.1550   21.5710 C   0  0  0  0  0  0  0  0  0  0  0  0
   11.0110   -1.0300   21.7870 C   0  0  0  0  0  0  0  0  0  0  0  0
   12.1090   -1.7140   20.6390 Cl  0  0  0  0  0  0  0  0  0  0  0  0
   11.5110   -0.3930   22.9170 C   0  0  0  0  0  0  0  0  0  0  0  0
   10.6180    0.1000   23.8450 C   0  0  0  0  0  0  0  0  0  0  0  0
    9.2430   -0.0720   23.6800 C   0  0  0  0  0  0  0  0  0  0  0  0
    8.2860    0.5330   24.6790 C   0  0  0  0  0  0  0  0  0  0  0  0
    8.6250    1.0410   25.7380 O   0  0  0  0  0  0  0  0  0  0  0  0
   10.9830    0.6840   24.6780 H   0  0  0  0  0  0  0  0  0  0  0  0
   12.5820   -0.2670   23.0300 H   0  0  0  0  0  0  0  0  0  0  0  0
    9.3260   -1.5930   20.6370 H   0  0  0  0  0  0  0  0  0  0  0  0
    6.5690   -1.5410   24.2820 H   0  0  0  0  0  0  0  0  0  0  0  0
    5.4180   -0.5420   23.3630 H   0  0  0  0  0  0  0  0  0  0  0  0
    6.4200    2.3370   25.1320 H   0  0  0  0  0  0  0  0  0  0  0  0
    5.0980    1.3730   24.4390 H   0  0  0  0  0  0  0  0  0  0  0  0
    7.2700    1.5870   27.2870 H   0  0  0  0  0  0  0  0  0  0  0  0
    4.7650    1.0030   28.7770 H   0  0  0  0  0  0  0  0  0  0  0  0
    6.1300    1.9340   29.4440 H   0  0  0  0  0  0  0  0  0  0  0  0
    6.2540    0.1600   29.2470 H   0  0  0  0  0  0  0  0  0  0  0  0
  1  2  1  0  0  0  0
  1 58  1  0  0  0  0
  1 59  1  0  0  0  0
  1 60  1  0  0  0  0
  2  3  1  0  0  0  0
  2 57  1  0  0  0  0
  3  4  2  0  0  0  0
  3  5  1  0  0  0  0
  5  6  1  0  0  0  0
  5 55  1  0  0  0  0
  5 56  1  0  0  0  0
  6  7  1  0  0  0  0
  6 48  1  0  0  0  0
  7  8  1  0  0  0  0
  7 53  1  0  0  0  0
  7 54  1  0  0  0  0
  8  9  1  6  0  0  0
  8 29  1  0  0  0  0
  8 41  1  0  0  0  0
  9 10  2  0  0  0  0
  9 11  1  0  0  0  0
 11 12  1  0  0  0  0
 11 28  1  0  0  0  0
 12 13  2  0  0  0  0
 12 21  1  0  0  0  0
 13 14  1  0  0  0  0
 13 27  1  0  0  0  0
 14 15  2  0  0  0  0
 15 16  1  0  0  0  0
 15 26  1  0  0  0  0
 16 17  2  0  0  0  0
 16 21  1  0  0  0  0
 17 18  1  0  0  0  0
 17 25  1  0  0  0  0
 18 19  2  0  0  0  0
 18 24  1  0  0  0  0
 19 20  1  0  0  0  0
 19 23  1  0  0  0  0
 20 21  2  0  0  0  0
 20 22  1  0  0  0  0
 28 29  1  0  0  0  0
 28 39  1  0  0  0  0
 28 40  1  0  0  0  0
 29 30  1  0  0  0  0
 29 38  1  6  0  0  0
 30 31  1  0  0  0  0
 30 36  1  0  0  0  0
 30 37  1  0  0  0  0
 31 32  1  0  0  0  0
 31 35  2  0  0  0  0
 32 33  2  0  0  0  0
 33 34  1  0  0  0  0
 34 35  1  0  0  0  0
 41 42  2  0  0  0  0
 41 47  1  0  0  0  0
 42 43  1  0  0  0  0
 42 52  1  0  0  0  0
 43 44  1  0  0  0  0
 43 45  2  0  0  0  0
 45 46  1  0  0  0  0
 45 51  1  0  0  0  0
 46 47  2  0  0  0  0
 46 50  1  0  0  0  0
 47 48  1  0  0  0  0
 48 49  2  0  0  0  0
M  CHG  1  34  -1
M  END
>  <MODEL>
       1

$$$$
