output/tmp_first_model_15_41.pdb
 OpenBabel07232601353D

 68 73  0  0  1  0  0  0  0  0999 V2000
    7.6040   -2.8260   23.4990 C   0  0  0  0  0  0  0  0  0  0  0  0
    7.8370   -1.8000   22.4020 C   0  0  1  0  0  0  0  0  0  0  0  0
    6.6870   -1.7190   21.3930 C   0  0  0  0  0  0  0  0  0  0  0  0
    6.8590   -0.3970   20.8400 N   0  0  0  0  0  0  0  0  0  0  0  0
    6.0990    0.1160   19.7740 C   0  0  0  0  0  0  0  0  0  0  0  0
    6.4070   -0.2370   18.4870 C   0  0  0  0  0  0  0  0  0  0  0  0
    5.7400    0.2130   17.4020 N   0  0  0  0  0  0  0  0  0  0  0  0
    4.7320    1.0240   17.6110 C   0  0  0  0  0  0  0  0  0  0  0  0
    4.2900    1.4370   18.9000 C   0  0  0  0  0  0  0  0  0  0  0  0
    3.1650    2.2820   19.0690 C   0  0  0  0  0  0  0  0  0  0  0  0
    2.7420    2.6510   20.3140 C   0  0  0  0  0  0  0  0  0  0  0  0
    3.4400    2.1990   21.4610 C   0  0  0  0  0  0  0  0  0  0  0  0
    4.5440    1.3950   21.3250 C   0  0  0  0  0  0  0  0  0  0  0  0
    4.9970    0.9840   20.0350 C   0  0  0  0  0  0  0  0  0  0  0  0
    5.0740    1.0550   22.2130 H   0  0  0  0  0  0  0  0  0  0  0  0
    3.0960    2.5120   22.4420 H   0  0  0  0  0  0  0  0  0  0  0  0
    1.8720    3.2920   20.4310 H   0  0  0  0  0  0  0  0  0  0  0  0
    2.6610    2.6310   18.1710 H   0  0  0  0  0  0  0  0  0  0  0  0
    4.2040    1.3960   16.7340 H   0  0  0  0  0  0  0  0  0  0  0  0
    7.2490   -0.9020   18.2970 H   0  0  0  0  0  0  0  0  0  0  0  0
    7.6340    0.4400   21.6020 C   0  0  0  0  0  0  0  0  0  0  0  0
    7.8710    1.5940   21.3060 O   0  0  0  0  0  0  0  0  0  0  0  0
    8.0950   -0.3300   22.8540 C   0  0  1  0  0  0  0  0  0  0  0  0
    7.2210    0.0410   24.0860 C   0  0  0  0  0  0  0  0  0  0  0  0
    7.4940    1.3700   24.5910 N   0  0  0  0  0  0  0  0  0  0  0  0
    6.4540    2.3400   24.8570 C   0  0  0  0  0  0  0  0  0  0  0  0
    6.4800    3.4380   23.8000 C   0  0  0  0  0  0  0  0  0  0  0  0
    5.3140    4.3360   23.9070 N   0  3  0  0  0  0  0  0  0  0  0  0
    5.1890    5.1320   22.6370 C   0  0  0  0  0  0  0  0  0  0  0  0
    4.1820    6.2840   22.7680 C   0  0  0  0  0  0  0  0  0  0  0  0
    2.9640    5.8380   24.0200 S   0  0  0  0  0  0  0  0  0  0  0  0
    2.0150    6.9290   24.2090 O   0  0  0  0  0  0  0  0  0  0  0  0
    2.4960    4.4940   23.6490 O   0  0  0  0  0  0  0  0  0  0  0  0
    3.9370    5.6170   25.5260 C   0  0  0  0  0  0  0  0  0  0  0  0
    5.3510    5.1960   25.1310 C   0  0  0  0  0  0  0  0  0  0  0  0
    5.7910    4.6250   25.9520 H   0  0  0  0  0  0  0  0  0  0  0  0
    5.9930    6.0640   24.9430 H   0  0  0  0  0  0  0  0  0  0  0  0
    3.9270    6.5260   26.1310 H   0  0  0  0  0  0  0  0  0  0  0  0
    3.4170    4.8180   26.0670 H   0  0  0  0  0  0  0  0  0  0  0  0
    4.6520    7.2390   23.0260 H   0  0  0  0  0  0  0  0  0  0  0  0
    3.6100    6.3980   21.8410 H   0  0  0  0  0  0  0  0  0  0  0  0
    4.8720    4.4300   21.8550 H   0  0  0  0  0  0  0  0  0  0  0  0
    6.1760    5.5260   22.3740 H   0  0  0  0  0  0  0  0  0  0  0  0
    4.4480    3.7630   23.9470 H   0  0  0  0  0  0  0  0  0  0  0  0
    7.4000    4.0280   23.8910 H   0  0  0  0  0  0  0  0  0  0  0  0
    6.4950    2.9820   22.8050 H   0  0  0  0  0  0  0  0  0  0  0  0
    6.6500    2.7610   25.8440 H   0  0  0  0  0  0  0  0  0  0  0  0
    5.4660    1.8640   24.8740 H   0  0  0  0  0  0  0  0  0  0  0  0
    8.7740    1.7800   24.8240 C   0  0  0  0  0  0  0  0  0  0  0  0
    9.0410    2.7430   25.5420 O   0  0  0  0  0  0  0  0  0  0  0  0
    9.8380    1.0160   24.1030 C   0  0  0  0  0  0  0  0  0  0  0  0
   11.1550    1.3650   24.3860 C   0  0  0  0  0  0  0  0  0  0  0  0
   12.2040    0.6870   23.8000 C   0  0  0  0  0  0  0  0  0  0  0  0
   11.8990   -0.3500   22.9170 C   0  0  0  0  0  0  0  0  0  0  0  0
   13.1810   -1.3610   22.3330 Cl  0  0  0  0  0  0  0  0  0  0  0  0
   10.6020   -0.6360   22.5390 C   0  0  0  0  0  0  0  0  0  0  0  0
    9.5340    0.0070   23.1780 C   0  0  0  0  0  0  0  0  0  0  0  0
   10.4620   -1.3530   21.7320 H   0  0  0  0  0  0  0  0  0  0  0  0
   13.2370    0.9430   24.0080 H   0  0  0  0  0  0  0  0  0  0  0  0
   11.3090    2.1650   25.0940 H   0  0  0  0  0  0  0  0  0  0  0  0
    6.1590   -0.0430   23.8320 H   0  0  0  0  0  0  0  0  0  0  0  0
    7.4370   -0.6830   24.8830 H   0  0  0  0  0  0  0  0  0  0  0  0
    6.7500   -2.4790   20.6090 H   0  0  0  0  0  0  0  0  0  0  0  0
    5.7060   -1.8310   21.8770 H   0  0  0  0  0  0  0  0  0  0  0  0
    8.7100   -2.1000   21.8220 H   0  0  0  0  0  0  0  0  0  0  0  0
    6.6820   -2.6090   24.0520 H   0  0  0  0  0  0  0  0  0  0  0  0
    8.4320   -2.8400   24.2140 H   0  0  0  0  0  0  0  0  0  0  0  0
    7.4990   -3.8280   23.0700 H   0  0  0  0  0  0  0  0  0  0  0  0
  1  2  1  0  0  0  0
  1 66  1  0  0  0  0
  1 67  1  0  0  0  0
  1 68  1  0  0  0  0
  2  3  1  0  0  0  0
  2 23  1  0  0  0  0
  2 65  1  6  0  0  0
  3  4  1  0  0  0  0
  3 63  1  0  0  0  0
  3 64  1  0  0  0  0
  4  5  1  0  0  0  0
  4 21  1  0  0  0  0
  5  6  2  0  0  0  0
  5 14  1  0  0  0  0
  6  7  1  0  0  0  0
  6 20  1  0  0  0  0
  7  8  2  0  0  0  0
  8  9  1  0  0  0  0
  8 19  1  0  0  0  0
  9 10  2  0  0  0  0
  9 14  1  0  0  0  0
 10 11  1  0  0  0  0
 10 18  1  0  0  0  0
 11 12  2  0  0  0  0
 11 17  1  0  0  0  0
 12 13  1  0  0  0  0
 12 16  1  0  0  0  0
 13 14  2  0  0  0  0
 13 15  1  0  0  0  0
 21 22  2  0  0  0  0
 23 21  1  6  0  0  0
 23 24  1  0  0  0  0
 23 57  1  0  0  0  0
 24 25  1  0  0  0  0
 24 61  1  0  0  0  0
 24 62  1  0  0  0  0
 25 26  1  0  0  0  0
 25 49  1  0  0  0  0
 26 27  1  0  0  0  0
 26 47  1  0  0  0  0
 26 48  1  0  0  0  0
 27 28  1  0  0  0  0
 27 45  1  0  0  0  0
 27 46  1  0  0  0  0
 28 29  1  0  0  0  0
 28 35  1  0  0  0  0
 28 44  1  0  0  0  0
 29 30  1  0  0  0  0
 29 42  1  0  0  0  0
 29 43  1  0  0  0  0
 30 31  1  0  0  0  0
 30 40  1  0  0  0  0
 30 41  1  0  0  0  0
 31 32  2  0  0  0  0
 31 33  2  0  0  0  0
 31 34  1  0  0  0  0
 34 35  1  0  0  0  0
 34 38  1  0  0  0  0
 34 39  1  0  0  0  0
 35 36  1  0  0  0  0
 35 37  1  0  0  0  0
 49 50  2  0  0  0  0
 49 51  1  0  0  0  0
 51 52  2  0  0  0  0
 51 57  1  0  0  0  0
 52 53  1  0  0  0  0
 52 60  1  0  0  0  0
 53 54  2  0  0  0  0
 53 59  1  0  0  0  0
 54 55  1  0  0  0  0
 54 56  1  0  0  0  0
 56 57  2  0  0  0  0
 56 58  1  0  0  0  0
M  CHG  1  28   1
M  END
>  <MODEL>
       1

$$$$
