output/tmp_first_model_4_29.pdb
 OpenBabel07222620063D

 67 72  0  0  1  0  0  0  0  0999 V2000
    6.6160    4.3730   21.3150 C   0  0  0  0  0  0  0  0  0  0  0  0
    6.9990    3.3950   22.3370 N   0  3  0  0  0  0  0  0  0  0  0  0
    8.0510    3.8470   23.2720 C   0  0  0  0  0  0  0  0  0  0  0  0
    8.2460    2.8280   24.4030 C   0  0  0  0  0  0  0  0  0  0  0  0
    8.8770    1.5940   23.9420 N   0  0  0  0  0  0  0  0  0  0  0  0
    8.1420    0.3490   23.8070 C   0  0  0  0  0  0  0  0  0  0  0  0
    8.5230   -0.4340   22.5200 C   0  0  2  0  0  0  0  0  0  0  0  0
    7.8980    0.3060   21.3250 C   0  0  0  0  0  0  0  0  0  0  0  0
    8.1670    1.4380   20.9500 O   0  0  0  0  0  0  0  0  0  0  0  0
    6.8830   -0.4430   20.8070 N   0  0  0  0  0  0  0  0  0  0  0  0
    6.1080    0.0800   19.7380 C   0  0  0  0  0  0  0  0  0  0  0  0
    6.4600   -0.2100   18.4460 C   0  0  0  0  0  0  0  0  0  0  0  0
    5.7800    0.2310   17.3620 N   0  0  0  0  0  0  0  0  0  0  0  0
    4.7500    1.0130   17.5820 C   0  0  0  0  0  0  0  0  0  0  0  0
    4.3140    1.4320   18.8730 C   0  0  0  0  0  0  0  0  0  0  0  0
    3.2080    2.3050   19.0580 C   0  0  0  0  0  0  0  0  0  0  0  0
    2.8280    2.6910   20.3150 C   0  0  0  0  0  0  0  0  0  0  0  0
    3.5290    2.2280   21.4480 C   0  0  0  0  0  0  0  0  0  0  0  0
    4.6030    1.3820   21.2940 C   0  0  0  0  0  0  0  0  0  0  0  0
    5.0200    0.9600   20.0000 C   0  0  0  0  0  0  0  0  0  0  0  0
    5.1290    1.0190   22.1730 H   0  0  0  0  0  0  0  0  0  0  0  0
    3.2210    2.5480   22.4400 H   0  0  0  0  0  0  0  0  0  0  0  0
    1.9860    3.3630   20.4460 H   0  0  0  0  0  0  0  0  0  0  0  0
    2.6850    2.6620   18.1760 H   0  0  0  0  0  0  0  0  0  0  0  0
    4.2040    1.3670   16.7080 H   0  0  0  0  0  0  0  0  0  0  0  0
    7.3290   -0.8370   18.2550 H   0  0  0  0  0  0  0  0  0  0  0  0
    6.4920   -1.5420   21.6720 C   0  0  0  0  0  0  0  0  0  0  0  0
    7.8100   -1.8100   22.4160 C   0  0  2  0  0  0  0  0  0  0  0  0
    7.6310   -2.5820   23.7230 C   0  0  0  0  0  0  0  0  0  0  0  0
    7.0550   -3.8950   23.5120 N   0  0  0  0  0  0  0  0  0  0  0  0
    5.7640   -4.1960   23.7360 C   0  0  0  0  0  0  0  0  0  0  0  0
    4.9790   -3.2640   24.3170 N   0  0  0  0  0  0  0  0  0  0  0  0
    3.7570   -3.6870   24.5970 C   0  0  0  0  0  0  0  0  0  0  0  0
    3.2320   -4.8730   24.2990 N   0  0  0  0  0  0  0  0  0  0  0  0
    4.0870   -5.6780   23.6570 C   0  0  0  0  0  0  0  0  0  0  0  0
    5.3460   -5.4240   23.3560 N   0  0  0  0  0  0  0  0  0  0  0  0
    3.7070   -6.6530   23.3470 H   0  0  0  0  0  0  0  0  0  0  0  0
    3.1220   -2.9810   25.1320 H   0  0  0  0  0  0  0  0  0  0  0  0
    7.6420   -4.6610   23.2200 H   0  0  0  0  0  0  0  0  0  0  0  0
    6.9440   -2.0390   24.3760 H   0  0  0  0  0  0  0  0  0  0  0  0
    8.5940   -2.6870   24.2380 H   0  0  0  0  0  0  0  0  0  0  0  0
    8.4120   -2.4300   21.7500 H   0  0  0  0  0  0  0  0  0  0  0  0
    5.6840   -1.2620   22.3750 H   0  0  0  0  0  0  0  0  0  0  0  0
    6.1480   -2.3960   21.0840 H   0  0  0  0  0  0  0  0  0  0  0  0
   10.0340   -0.4920   22.3930 C   0  0  0  0  0  0  0  0  0  0  0  0
   10.6650   -1.4260   21.5570 C   0  0  0  0  0  0  0  0  0  0  0  0
   12.0060   -1.2910   21.2480 C   0  0  0  0  0  0  0  0  0  0  0  0
   12.6920   -2.3790   20.0660 Cl  0  0  0  0  0  0  0  0  0  0  0  0
   12.7940   -0.3090   21.8490 C   0  0  0  0  0  0  0  0  0  0  0  0
   12.2010    0.5520   22.7440 C   0  0  0  0  0  0  0  0  0  0  0  0
   10.8270    0.5060   22.9700 C   0  0  0  0  0  0  0  0  0  0  0  0
   10.2260    1.6420   23.7400 C   0  0  0  0  0  0  0  0  0  0  0  0
   10.9090    2.5890   24.1130 O   0  0  0  0  0  0  0  0  0  0  0  0
   12.7810    1.3040   23.2620 H   0  0  0  0  0  0  0  0  0  0  0  0
   13.8470   -0.2280   21.6100 H   0  0  0  0  0  0  0  0  0  0  0  0
   10.1360   -2.2540   21.0970 H   0  0  0  0  0  0  0  0  0  0  0  0
    7.0690    0.5710   23.7730 H   0  0  0  0  0  0  0  0  0  0  0  0
    8.3440   -0.2860   24.6790 H   0  0  0  0  0  0  0  0  0  0  0  0
    8.9010    3.2520   25.1670 H   0  0  0  0  0  0  0  0  0  0  0  0
    7.2840    2.5840   24.8700 H   0  0  0  0  0  0  0  0  0  0  0  0
    9.0010    3.9650   22.7370 H   0  0  0  0  0  0  0  0  0  0  0  0
    7.7860    4.8270   23.6890 H   0  0  0  0  0  0  0  0  0  0  0  0
    7.3450    2.5430   21.8580 H   0  0  0  0  0  0  0  0  0  0  0  0
    6.1520    3.1420   22.8750 H   0  0  0  0  0  0  0  0  0  0  0  0
    7.3920    4.4340   20.5490 H   0  0  0  0  0  0  0  0  0  0  0  0
    6.4770    5.3680   21.7540 H   0  0  0  0  0  0  0  0  0  0  0  0
    5.6800    4.0530   20.8490 H   0  0  0  0  0  0  0  0  0  0  0  0
  1  2  1  0  0  0  0
  1 65  1  0  0  0  0
  1 66  1  0  0  0  0
  1 67  1  0  0  0  0
  2  3  1  0  0  0  0
  2 63  1  0  0  0  0
  2 64  1  0  0  0  0
  3  4  1  0  0  0  0
  3 61  1  0  0  0  0
  3 62  1  0  0  0  0
  4  5  1  0  0  0  0
  4 59  1  0  0  0  0
  4 60  1  0  0  0  0
  5  6  1  0  0  0  0
  5 52  1  0  0  0  0
  6  7  1  0  0  0  0
  6 57  1  0  0  0  0
  6 58  1  0  0  0  0
  7  8  1  6  0  0  0
  7 28  1  0  0  0  0
  7 45  1  0  0  0  0
  8  9  2  0  0  0  0
  8 10  1  0  0  0  0
 10 11  1  0  0  0  0
 10 27  1  0  0  0  0
 11 12  2  0  0  0  0
 11 20  1  0  0  0  0
 12 13  1  0  0  0  0
 12 26  1  0  0  0  0
 13 14  2  0  0  0  0
 14 15  1  0  0  0  0
 14 25  1  0  0  0  0
 15 16  2  0  0  0  0
 15 20  1  0  0  0  0
 16 17  1  0  0  0  0
 16 24  1  0  0  0  0
 17 18  2  0  0  0  0
 17 23  1  0  0  0  0
 18 19  1  0  0  0  0
 18 22  1  0  0  0  0
 19 20  2  0  0  0  0
 19 21  1  0  0  0  0
 27 28  1  0  0  0  0
 27 43  1  0  0  0  0
 27 44  1  0  0  0  0
 28 29  1  0  0  0  0
 28 42  1  6  0  0  0
 29 30  1  0  0  0  0
 29 40  1  0  0  0  0
 29 41  1  0  0  0  0
 30 31  1  0  0  0  0
 30 39  1  0  0  0  0
 31 32  2  0  0  0  0
 31 36  1  0  0  0  0
 32 33  1  0  0  0  0
 33 34  2  0  0  0  0
 33 38  1  0  0  0  0
 34 35  1  0  0  0  0
 35 36  2  0  0  0  0
 35 37  1  0  0  0  0
 45 46  2  0  0  0  0
 45 51  1  0  0  0  0
 46 47  1  0  0  0  0
 46 56  1  0  0  0  0
 47 48  1  0  0  0  0
 47 49  2  0  0  0  0
 49 50  1  0  0  0  0
 49 55  1  0  0  0  0
 50 51  2  0  0  0  0
 50 54  1  0  0  0  0
 51 52  1  0  0  0  0
 52 53  2  0  0  0  0
M  CHG  1   2   1
M  END
>  <MODEL>
       1

$$$$
