output/tmp_first_model_14_76.pdb
 OpenBabel07232601073D

 61 65  0  0  1  0  0  0  0  0999 V2000
    7.6880   -2.9830   23.3340 C   0  0  0  0  0  0  0  0  0  0  0  0
    8.0220   -1.9080   22.2970 C   0  0  1  0  0  0  0  0  0  0  0  0
    6.8780   -1.7300   21.2880 C   0  0  0  0  0  0  0  0  0  0  0  0
    7.0140   -0.3590   20.8490 N   0  0  0  0  0  0  0  0  0  0  0  0
    6.2080    0.1550   19.7970 C   0  0  0  0  0  0  0  0  0  0  0  0
    6.4820   -0.2260   18.5070 C   0  0  0  0  0  0  0  0  0  0  0  0
    5.8020    0.1940   17.4110 N   0  0  0  0  0  0  0  0  0  0  0  0
    4.7910    1.0050   17.6080 C   0  0  0  0  0  0  0  0  0  0  0  0
    4.3470    1.4240   18.8930 C   0  0  0  0  0  0  0  0  0  0  0  0
    3.2130    2.2650   19.0420 C   0  0  0  0  0  0  0  0  0  0  0  0
    2.7600    2.6050   20.2870 C   0  0  0  0  0  0  0  0  0  0  0  0
    3.4220    2.1180   21.4360 C   0  0  0  0  0  0  0  0  0  0  0  0
    4.5370    1.3230   21.3190 C   0  0  0  0  0  0  0  0  0  0  0  0
    5.0470    0.9700   20.0360 C   0  0  0  0  0  0  0  0  0  0  0  0
    5.0310    0.9570   22.2150 H   0  0  0  0  0  0  0  0  0  0  0  0
    3.0480    2.3860   22.4200 H   0  0  0  0  0  0  0  0  0  0  0  0
    1.8930    3.2520   20.3980 H   0  0  0  0  0  0  0  0  0  0  0  0
    2.7240    2.6310   18.1440 H   0  0  0  0  0  0  0  0  0  0  0  0
    4.2540    1.3590   16.7280 H   0  0  0  0  0  0  0  0  0  0  0  0
    7.3130   -0.9050   18.3160 H   0  0  0  0  0  0  0  0  0  0  0  0
    7.8270    0.4110   21.6620 C   0  0  0  0  0  0  0  0  0  0  0  0
    8.0520    1.5840   21.4570 O   0  0  0  0  0  0  0  0  0  0  0  0
    8.2910   -0.4600   22.8570 C   0  0  1  0  0  0  0  0  0  0  0  0
    7.2970   -0.1140   24.0190 C   0  0  0  0  0  0  0  0  0  0  0  0
    7.7500   -0.8390   25.2820 N   0  0  0  0  0  0  0  0  0  0  0  0
    6.8640   -0.9280   26.5150 C   0  0  0  0  0  0  0  0  0  0  0  0
    6.9930   -2.3680   26.9750 C   0  0  0  0  0  0  0  0  0  0  0  0
    6.5110   -2.6080   28.3750 N   0  3  0  0  0  0  0  0  0  0  0  0
    5.0610   -2.2920   28.5070 C   0  0  0  0  0  0  0  0  0  0  0  0
    4.8920   -1.2220   28.3780 H   0  0  0  0  0  0  0  0  0  0  0  0
    4.5100   -2.8410   27.7360 H   0  0  0  0  0  0  0  0  0  0  0  0
    4.7030   -2.6030   29.4890 H   0  0  0  0  0  0  0  0  0  0  0  0
    6.7880   -4.0010   28.8010 C   0  0  0  0  0  0  0  0  0  0  0  0
    6.4210   -4.1650   29.8170 H   0  0  0  0  0  0  0  0  0  0  0  0
    6.2770   -4.6900   28.1200 H   0  0  0  0  0  0  0  0  0  0  0  0
    7.8620   -4.1970   28.7600 H   0  0  0  0  0  0  0  0  0  0  0  0
    7.0600   -1.9830   28.9900 H   0  0  0  0  0  0  0  0  0  0  0  0
    6.4280   -3.0260   26.3060 H   0  0  0  0  0  0  0  0  0  0  0  0
    8.0460   -2.6450   26.9160 H   0  0  0  0  0  0  0  0  0  0  0  0
    7.2720   -0.2430   27.2700 H   0  0  0  0  0  0  0  0  0  0  0  0
    5.8500   -0.6250   26.2470 H   0  0  0  0  0  0  0  0  0  0  0  0
    9.2430   -0.7270   25.5040 C   0  0  0  0  0  0  0  0  0  0  0  0
    9.3800   -0.7030   25.4990 O   0  0  0  0  0  0  0  0  0  0  0  0
   10.2650   -0.2100   24.5790 C   0  0  0  0  0  0  0  0  0  0  0  0
   11.5750    0.3410   24.7920 C   0  0  0  0  0  0  0  0  0  0  0  0
   12.4640    0.4980   23.7700 C   0  0  0  0  0  0  0  0  0  0  0  0
   12.0590    0.1890   22.4840 C   0  0  0  0  0  0  0  0  0  0  0  0
   13.3260    0.2030   21.3250 Cl  0  0  0  0  0  0  0  0  0  0  0  0
   10.7370   -0.1290   22.2100 C   0  0  0  0  0  0  0  0  0  0  0  0
    9.7900   -0.2450   23.2500 C   0  0  0  0  0  0  0  0  0  0  0  0
   10.4560   -0.2870   21.1710 H   0  0  0  0  0  0  0  0  0  0  0  0
   13.4760    0.8020   23.9970 H   0  0  0  0  0  0  0  0  0  0  0  0
   12.0110    0.6320   25.7330 H   0  0  0  0  0  0  0  0  0  0  0  0
    6.2770   -0.4290   23.7730 H   0  0  0  0  0  0  0  0  0  0  0  0
    7.3020    0.9680   24.1900 H   0  0  0  0  0  0  0  0  0  0  0  0
    6.9430   -2.4120   20.4380 H   0  0  0  0  0  0  0  0  0  0  0  0
    5.9010   -1.9030   21.7690 H   0  0  0  0  0  0  0  0  0  0  0  0
    8.9300   -2.1970   21.7460 H   0  0  0  0  0  0  0  0  0  0  0  0
    8.3830   -2.9590   24.1810 H   0  0  0  0  0  0  0  0  0  0  0  0
    7.6980   -3.9790   22.8830 H   0  0  0  0  0  0  0  0  0  0  0  0
    6.6850   -2.8180   23.7480 H   0  0  0  0  0  0  0  0  0  0  0  0
  1  2  1  0  0  0  0
  1 59  1  0  0  0  0
  1 60  1  0  0  0  0
  1 61  1  0  0  0  0
  2  3  1  0  0  0  0
  2 23  1  0  0  0  0
  2 58  1  6  0  0  0
  3  4  1  0  0  0  0
  3 56  1  0  0  0  0
  3 57  1  0  0  0  0
  4  5  1  0  0  0  0
  4 21  1  0  0  0  0
  5  6  2  0  0  0  0
  5 14  1  0  0  0  0
  6  7  1  0  0  0  0
  6 20  1  0  0  0  0
  7  8  2  0  0  0  0
  8  9  1  0  0  0  0
  8 19  1  0  0  0  0
  9 10  2  0  0  0  0
  9 14  1  0  0  0  0
 10 11  1  0  0  0  0
 10 18  1  0  0  0  0
 11 12  2  0  0  0  0
 11 17  1  0  0  0  0
 12 13  1  0  0  0  0
 12 16  1  0  0  0  0
 13 14  2  0  0  0  0
 13 15  1  0  0  0  0
 21 22  2  0  0  0  0
 23 21  1  6  0  0  0
 23 24  1  0  0  0  0
 23 50  1  0  0  0  0
 24 25  1  0  0  0  0
 24 54  1  0  0  0  0
 24 55  1  0  0  0  0
 25 26  1  0  0  0  0
 25 42  1  0  0  0  0
 26 27  1  0  0  0  0
 26 40  1  0  0  0  0
 26 41  1  0  0  0  0
 27 28  1  0  0  0  0
 27 38  1  0  0  0  0
 27 39  1  0  0  0  0
 28 29  1  0  0  0  0
 28 33  1  0  0  0  0
 28 37  1  0  0  0  0
 29 30  1  0  0  0  0
 29 31  1  0  0  0  0
 29 32  1  0  0  0  0
 33 34  1  0  0  0  0
 33 35  1  0  0  0  0
 33 36  1  0  0  0  0
 42 43  2  0  0  0  0
 42 44  1  0  0  0  0
 44 45  2  0  0  0  0
 44 50  1  0  0  0  0
 45 46  1  0  0  0  0
 45 53  1  0  0  0  0
 46 47  2  0  0  0  0
 46 52  1  0  0  0  0
 47 48  1  0  0  0  0
 47 49  1  0  0  0  0
 49 50  2  0  0  0  0
 49 51  1  0  0  0  0
M  CHG  1  28   1
M  END
>  <MODEL>
       1

$$$$
