output/tmp_first_model_18_13.pdb
 OpenBabel07232602473D

 67 72  0  0  1  0  0  0  0  0999 V2000
    5.7710    1.1130   29.0580 C   0  0  0  0  0  0  0  0  0  0  0  0
    6.2570    1.4840   27.7490 N   0  0  0  0  0  0  0  0  0  0  0  0
    5.5730    1.1630   26.6170 C   0  0  0  0  0  0  0  0  0  0  0  0
    4.5550    0.4890   26.5920 O   0  0  0  0  0  0  0  0  0  0  0  0
    6.1430    1.8030   25.3440 C   0  0  0  0  0  0  0  0  0  0  0  0
    7.0010    0.9260   24.5690 N   0  0  0  0  0  0  0  0  0  0  0  0
    6.3580    0.0010   23.6420 C   0  0  0  0  0  0  0  0  0  0  0  0
    7.2940   -0.4700   22.4840 C   0  0  2  0  0  0  0  0  0  0  0  0
    6.9730    0.3250   21.1990 C   0  0  0  0  0  0  0  0  0  0  0  0
    7.3300    1.4460   20.9150 O   0  0  0  0  0  0  0  0  0  0  0  0
    6.1530   -0.4470   20.3970 N   0  0  0  0  0  0  0  0  0  0  0  0
    5.4730    0.1400   19.3080 C   0  0  0  0  0  0  0  0  0  0  0  0
    5.8460   -0.1440   18.0210 C   0  0  0  0  0  0  0  0  0  0  0  0
    5.3160    0.4610   16.9330 N   0  0  0  0  0  0  0  0  0  0  0  0
    4.3830    1.3610   17.1220 C   0  0  0  0  0  0  0  0  0  0  0  0
    3.8500    1.6900   18.4010 C   0  0  0  0  0  0  0  0  0  0  0  0
    2.7960    2.6280   18.5690 C   0  0  0  0  0  0  0  0  0  0  0  0
    2.3220    2.9320   19.8170 C   0  0  0  0  0  0  0  0  0  0  0  0
    2.8510    2.2800   20.9540 C   0  0  0  0  0  0  0  0  0  0  0  0
    3.8460    1.3460   20.8120 C   0  0  0  0  0  0  0  0  0  0  0  0
    4.3980    1.0540   19.5330 C   0  0  0  0  0  0  0  0  0  0  0  0
    4.2080    0.8130   21.6840 H   0  0  0  0  0  0  0  0  0  0  0  0
    2.4770    2.5180   21.9460 H   0  0  0  0  0  0  0  0  0  0  0  0
    1.5380    3.6740   19.9440 H   0  0  0  0  0  0  0  0  0  0  0  0
    2.3880    3.1080   17.6850 H   0  0  0  0  0  0  0  0  0  0  0  0
    4.0020    1.8730   16.2370 H   0  0  0  0  0  0  0  0  0  0  0  0
    6.6320   -0.8720   17.8250 H   0  0  0  0  0  0  0  0  0  0  0  0
    5.8800   -1.7690   20.9220 C   0  0  0  0  0  0  0  0  0  0  0  0
    6.9870   -1.9080   21.9640 C   0  0  2  0  0  0  0  0  0  0  0  0
    6.7850   -2.9780   23.0190 C   0  0  0  0  0  0  0  0  0  0  0  0
    6.7870   -4.2520   22.3860 O   0  0  0  0  0  0  0  0  0  0  0  0
    7.3670   -5.3130   23.1240 C   0  0  0  0  0  0  0  0  0  0  0  0
    6.7410   -6.5120   22.5330 C   0  0  0  0  0  0  0  0  0  0  0  0
    6.8100   -7.8520   23.1730 C   0  0  0  0  0  0  0  0  0  0  0  0
    6.7330   -7.6360   23.3290 C   0  0  0  0  0  0  0  0  0  0  0  0
    7.4330   -9.1000   22.4330 H   0  0  0  0  0  0  0  0  0  0  0  0
    7.8200   -7.7220   23.8760 H   0  0  0  0  0  0  0  0  0  0  0  0
    6.1950   -7.1150   24.6070 H   0  0  0  0  0  0  0  0  0  0  0  0
    5.6300   -8.1330   23.4650 H   0  0  0  0  0  0  0  0  0  0  0  0
    6.5630   -6.3870   21.4730 H   0  0  0  0  0  0  0  0  0  0  0  0
    7.1720   -5.1440   24.2050 H   0  0  0  0  0  0  0  0  0  0  0  0
    8.4690   -5.3000   22.9650 H   0  0  0  0  0  0  0  0  0  0  0  0
    7.5980   -2.8850   23.7610 H   0  0  0  0  0  0  0  0  0  0  0  0
    5.8360   -2.8280   23.5600 H   0  0  0  0  0  0  0  0  0  0  0  0
    7.8830   -2.2210   21.4220 H   0  0  0  0  0  0  0  0  0  0  0  0
    5.9500   -2.5270   20.1360 H   0  0  0  0  0  0  0  0  0  0  0  0
    4.8850   -1.8470   21.3870 H   0  0  0  0  0  0  0  0  0  0  0  0
    8.7520   -0.3480   22.8530 C   0  0  0  0  0  0  0  0  0  0  0  0
    9.7140   -0.7290   21.9110 C   0  0  0  0  0  0  0  0  0  0  0  0
   11.0460   -0.7780   22.2640 C   0  0  0  0  0  0  0  0  0  0  0  0
   12.1450   -1.4440   21.1060 Cl  0  0  0  0  0  0  0  0  0  0  0  0
   11.4940   -0.3960   23.5300 C   0  0  0  0  0  0  0  0  0  0  0  0
   10.5510    0.0360   24.4410 C   0  0  0  0  0  0  0  0  0  0  0  0
    9.2020    0.0820   24.0950 C   0  0  0  0  0  0  0  0  0  0  0  0
    8.2470    0.6590   25.0650 C   0  0  0  0  0  0  0  0  0  0  0  0
    8.5860    0.9300   26.2100 O   0  0  0  0  0  0  0  0  0  0  0  0
   10.8280    0.3540   25.4390 H   0  0  0  0  0  0  0  0  0  0  0  0
   12.5520   -0.4290   23.7760 H   0  0  0  0  0  0  0  0  0  0  0  0
    9.4290   -0.9990   20.9000 H   0  0  0  0  0  0  0  0  0  0  0  0
    5.4950    0.5240   23.2220 H   0  0  0  0  0  0  0  0  0  0  0  0
    5.9570   -0.8500   24.2130 H   0  0  0  0  0  0  0  0  0  0  0  0
    6.6960    2.7090   25.6040 H   0  0  0  0  0  0  0  0  0  0  0  0
    5.2950    2.0950   24.7160 H   0  0  0  0  0  0  0  0  0  0  0  0
    7.2490    1.6710   27.6400 H   0  0  0  0  0  0  0  0  0  0  0  0
    6.0240    1.8950   29.7800 H   0  0  0  0  0  0  0  0  0  0  0  0
    4.6840    1.0190   29.0050 H   0  0  0  0  0  0  0  0  0  0  0  0
    6.1850    0.1580   29.4060 H   0  0  0  0  0  0  0  0  0  0  0  0
  1  2  1  0  0  0  0
  1 65  1  0  0  0  0
  1 66  1  0  0  0  0
  1 67  1  0  0  0  0
  2  3  1  0  0  0  0
  2 64  1  0  0  0  0
  3  4  2  0  0  0  0
  3  5  1  0  0  0  0
  5  6  1  0  0  0  0
  5 62  1  0  0  0  0
  5 63  1  0  0  0  0
  6  7  1  0  0  0  0
  6 55  1  0  0  0  0
  7  8  1  0  0  0  0
  7 60  1  0  0  0  0
  7 61  1  0  0  0  0
  8  9  1  6  0  0  0
  8 29  1  0  0  0  0
  8 48  1  0  0  0  0
  9 10  2  0  0  0  0
  9 11  1  0  0  0  0
 11 12  1  0  0  0  0
 11 28  1  0  0  0  0
 12 13  2  0  0  0  0
 12 21  1  0  0  0  0
 13 14  1  0  0  0  0
 13 27  1  0  0  0  0
 14 15  2  0  0  0  0
 15 16  1  0  0  0  0
 15 26  1  0  0  0  0
 16 17  2  0  0  0  0
 16 21  1  0  0  0  0
 17 18  1  0  0  0  0
 17 25  1  0  0  0  0
 18 19  2  0  0  0  0
 18 24  1  0  0  0  0
 19 20  1  0  0  0  0
 19 23  1  0  0  0  0
 20 21  2  0  0  0  0
 20 22  1  0  0  0  0
 28 29  1  0  0  0  0
 28 46  1  0  0  0  0
 28 47  1  0  0  0  0
 29 30  1  0  0  0  0
 29 45  1  6  0  0  0
 30 31  1  0  0  0  0
 30 43  1  0  0  0  0
 30 44  1  0  0  0  0
 31 32  1  0  0  0  0
 32 33  1  0  0  0  0
 32 41  1  0  0  0  0
 32 42  1  0  0  0  0
 33 34  1  0  0  0  0
 33 35  1  0  0  0  0
 33 40  1  0  0  0  0
 34 35  1  0  0  0  0
 34 38  1  0  0  0  0
 34 39  1  0  0  0  0
 35 36  1  0  0  0  0
 35 37  1  0  0  0  0
 48 49  2  0  0  0  0
 48 54  1  0  0  0  0
 49 50  1  0  0  0  0
 49 59  1  0  0  0  0
 50 51  1  0  0  0  0
 50 52  2  0  0  0  0
 52 53  1  0  0  0  0
 52 58  1  0  0  0  0
 53 54  2  0  0  0  0
 53 57  1  0  0  0  0
 54 55  1  0  0  0  0
 55 56  2  0  0  0  0
M  END
>  <MODEL>
       1

$$$$
