output/tmp_first_model_11_53.pdb
 OpenBabel07222623443D

 77 84  0  0  1  0  0  0  0  0999 V2000
   10.0440    2.9720   24.2190 O   0  0  0  0  0  0  0  0  0  0  0  0
    9.6390    1.8210   24.0560 C   0  0  0  0  0  0  0  0  0  0  0  0
   10.4840    0.7420   23.4190 C   0  0  0  0  0  0  0  0  0  0  0  0
   11.8810    0.7780   23.4540 C   0  0  0  0  0  0  0  0  0  0  0  0
   12.6370   -0.0500   22.6340 C   0  0  0  0  0  0  0  0  0  0  0  0
   11.9700   -0.8350   21.6830 C   0  0  0  0  0  0  0  0  0  0  0  0
   12.7410   -1.5930   20.3020 Cl  0  0  0  0  0  0  0  0  0  0  0  0
   10.5980   -0.9460   21.7040 C   0  0  0  0  0  0  0  0  0  0  0  0
    9.8490   -0.2410   22.6490 C   0  0  0  0  0  0  0  0  0  0  0  0
    8.3480   -0.3880   22.6870 C   0  0  1  0  0  0  0  0  0  0  0  0
    7.8270    0.1680   24.0380 C   0  0  0  0  0  0  0  0  0  0  0  0
    8.3580    1.4770   24.3660 N   0  0  0  0  0  0  0  0  0  0  0  0
    7.4320    2.4830   24.8800 C   0  0  0  0  0  0  0  0  0  0  0  0
    6.7260    3.2630   23.7830 C   0  0  0  0  0  0  0  0  0  0  0  0
    7.6920    4.1690   23.1050 N   0  3  0  0  0  0  0  0  0  0  0  0
    8.1930    5.4130   23.8650 C   0  0  0  0  0  0  0  0  0  0  0  0
    7.6990    6.3430   22.7480 C   0  0  0  0  0  0  0  0  0  0  0  0
    8.6370    7.3040   22.0470 C   0  0  0  0  0  0  0  0  0  0  0  0
    7.7310    8.3950   22.2570 O   0  0  0  0  0  0  0  0  0  0  0  0
    6.8190    7.5600   22.9820 C   0  0  0  0  0  0  0  0  0  0  0  0
    5.8280    7.5090   22.5110 H   0  0  0  0  0  0  0  0  0  0  0  0
    6.7010    7.8740   24.0280 H   0  0  0  0  0  0  0  0  0  0  0  0
    8.8140    7.0630   20.9920 H   0  0  0  0  0  0  0  0  0  0  0  0
    9.6020    7.4640   22.5470 H   0  0  0  0  0  0  0  0  0  0  0  0
    7.1490    5.0970   22.0290 C   0  0  0  0  0  0  0  0  0  0  0  0
    6.0610    5.0570   21.9680 H   0  0  0  0  0  0  0  0  0  0  0  0
    7.5710    4.8600   21.0550 H   0  0  0  0  0  0  0  0  0  0  0  0
    9.2710    5.3540   23.9760 H   0  0  0  0  0  0  0  0  0  0  0  0
    7.7110    5.5400   24.8340 H   0  0  0  0  0  0  0  0  0  0  0  0
    8.4840    3.6160   22.7370 H   0  0  0  0  0  0  0  0  0  0  0  0
    5.8970    3.8580   24.1810 H   0  0  0  0  0  0  0  0  0  0  0  0
    6.3360    2.5850   23.0260 H   0  0  0  0  0  0  0  0  0  0  0  0
    6.6850    1.9840   25.5070 H   0  0  0  0  0  0  0  0  0  0  0  0
    7.9970    3.1680   25.5080 H   0  0  0  0  0  0  0  0  0  0  0  0
    6.7370    0.2500   23.9890 H   0  0  0  0  0  0  0  0  0  0  0  0
    8.0970   -0.5350   24.8360 H   0  0  0  0  0  0  0  0  0  0  0  0
    7.7470    0.4290   21.5280 C   0  0  0  0  0  0  0  0  0  0  0  0
    7.9450    1.6030   21.2730 O   0  0  0  0  0  0  0  0  0  0  0  0
    6.9120   -0.3880   20.8130 N   0  0  0  0  0  0  0  0  0  0  0  0
    6.1320    0.1000   19.7500 C   0  0  0  0  0  0  0  0  0  0  0  0
    6.4440   -0.2480   18.4660 C   0  0  0  0  0  0  0  0  0  0  0  0
    5.7560    0.1810   17.3850 N   0  0  0  0  0  0  0  0  0  0  0  0
    4.7350    0.9770   17.5950 C   0  0  0  0  0  0  0  0  0  0  0  0
    4.2960    1.3890   18.8870 C   0  0  0  0  0  0  0  0  0  0  0  0
    3.1780    2.2450   19.0740 C   0  0  0  0  0  0  0  0  0  0  0  0
    2.7780    2.6030   20.3340 C   0  0  0  0  0  0  0  0  0  0  0  0
    3.4560    2.1080   21.4710 C   0  0  0  0  0  0  0  0  0  0  0  0
    4.5330    1.2700   21.3140 C   0  0  0  0  0  0  0  0  0  0  0  0
    5.0000    0.9210   20.0120 C   0  0  0  0  0  0  0  0  0  0  0  0
    5.0410    0.8700   22.1880 H   0  0  0  0  0  0  0  0  0  0  0  0
    3.1280    2.3980   22.4660 H   0  0  0  0  0  0  0  0  0  0  0  0
    1.9370    3.2790   20.4650 H   0  0  0  0  0  0  0  0  0  0  0  0
    2.6730    2.6290   18.1920 H   0  0  0  0  0  0  0  0  0  0  0  0
    4.1980    1.3300   16.7150 H   0  0  0  0  0  0  0  0  0  0  0  0
    7.2990   -0.8960   18.2760 H   0  0  0  0  0  0  0  0  0  0  0  0
    6.6350   -1.6540   21.4360 C   0  0  0  0  0  0  0  0  0  0  0  0
    7.8370   -1.8300   22.3620 C   0  0  2  0  0  0  0  0  0  0  0  0
    7.5080   -2.7480   23.5290 C   0  0  0  0  0  0  0  0  0  0  0  0
    8.7120   -3.1650   24.2270 N   0  0  0  0  0  0  0  0  0  0  0  0
    8.6410   -3.5630   25.5250 C   0  0  0  0  0  0  0  0  0  0  0  0
    9.7870   -3.8860   26.1510 N   0  0  0  0  0  0  0  0  0  0  0  0
    9.6740   -4.1150   27.4640 C   0  0  0  0  0  0  0  0  0  0  0  0
    8.4750   -4.0210   28.1650 C   0  0  0  0  0  0  0  0  0  0  0  0
    7.3520   -3.8400   27.3710 C   0  0  0  0  0  0  0  0  0  0  0  0
    7.4080   -3.6330   26.0640 N   0  0  0  0  0  0  0  0  0  0  0  0
    6.3560   -3.8310   27.8070 H   0  0  0  0  0  0  0  0  0  0  0  0
    8.4020   -4.1400   29.2380 H   0  0  0  0  0  0  0  0  0  0  0  0
   10.5760   -4.4630   27.9670 H   0  0  0  0  0  0  0  0  0  0  0  0
    9.6190   -2.8140   23.9330 H   0  0  0  0  0  0  0  0  0  0  0  0
    6.9640   -3.6400   23.1880 H   0  0  0  0  0  0  0  0  0  0  0  0
    6.8210   -2.2420   24.2230 H   0  0  0  0  0  0  0  0  0  0  0  0
    8.6260   -2.3060   21.7730 H   0  0  0  0  0  0  0  0  0  0  0  0
    5.6800   -1.6420   21.9890 H   0  0  0  0  0  0  0  0  0  0  0  0
    6.5560   -2.4350   20.6760 H   0  0  0  0  0  0  0  0  0  0  0  0
   10.1380   -1.5250   20.9110 H   0  0  0  0  0  0  0  0  0  0  0  0
   13.7220   -0.0150   22.6760 H   0  0  0  0  0  0  0  0  0  0  0  0
   12.3760    1.4970   24.0980 H   0  0  0  0  0  0  0  0  0  0  0  0
  1  2  2  0  0  0  0
  2  3  1  0  0  0  0
  2 12  1  0  0  0  0
  3  4  2  0  0  0  0
  3  9  1  0  0  0  0
  4  5  1  0  0  0  0
  4 77  1  0  0  0  0
  5  6  2  0  0  0  0
  5 76  1  0  0  0  0
  6  7  1  0  0  0  0
  6  8  1  0  0  0  0
  8  9  2  0  0  0  0
  8 75  1  0  0  0  0
 10  9  1  6  0  0  0
 10 11  1  0  0  0  0
 10 37  1  0  0  0  0
 10 57  1  0  0  0  0
 11 12  1  0  0  0  0
 11 35  1  0  0  0  0
 11 36  1  0  0  0  0
 12 13  1  0  0  0  0
 13 14  1  0  0  0  0
 13 33  1  0  0  0  0
 13 34  1  0  0  0  0
 14 15  1  0  0  0  0
 14 31  1  0  0  0  0
 14 32  1  0  0  0  0
 15 16  1  0  0  0  0
 15 25  1  0  0  0  0
 15 30  1  0  0  0  0
 16 17  1  0  0  0  0
 16 28  1  0  0  0  0
 16 29  1  0  0  0  0
 17 18  1  0  0  0  0
 17 20  1  0  0  0  0
 17 25  1  0  0  0  0
 18 19  1  0  0  0  0
 18 23  1  0  0  0  0
 18 24  1  0  0  0  0
 19 20  1  0  0  0  0
 20 21  1  0  0  0  0
 20 22  1  0  0  0  0
 25 26  1  0  0  0  0
 25 27  1  0  0  0  0
 37 38  2  0  0  0  0
 37 39  1  0  0  0  0
 39 40  1  0  0  0  0
 39 56  1  0  0  0  0
 40 41  2  0  0  0  0
 40 49  1  0  0  0  0
 41 42  1  0  0  0  0
 41 55  1  0  0  0  0
 42 43  2  0  0  0  0
 43 44  1  0  0  0  0
 43 54  1  0  0  0  0
 44 45  2  0  0  0  0
 44 49  1  0  0  0  0
 45 46  1  0  0  0  0
 45 53  1  0  0  0  0
 46 47  2  0  0  0  0
 46 52  1  0  0  0  0
 47 48  1  0  0  0  0
 47 51  1  0  0  0  0
 48 49  2  0  0  0  0
 48 50  1  0  0  0  0
 56 57  1  0  0  0  0
 56 73  1  0  0  0  0
 56 74  1  0  0  0  0
 57 58  1  0  0  0  0
 57 72  1  6  0  0  0
 58 59  1  0  0  0  0
 58 70  1  0  0  0  0
 58 71  1  0  0  0  0
 59 60  1  0  0  0  0
 59 69  1  0  0  0  0
 60 61  2  0  0  0  0
 60 65  1  0  0  0  0
 61 62  1  0  0  0  0
 62 63  2  0  0  0  0
 62 68  1  0  0  0  0
 63 64  1  0  0  0  0
 63 67  1  0  0  0  0
 64 65  2  0  0  0  0
 64 66  1  0  0  0  0
M  CHG  1  15   1
M  END
>  <MODEL>
       1

$$$$
