output/tmp_first_model_15_12.pdb
 OpenBabel07232601353D

 47 50  0  0  1  0  0  0  0  0999 V2000
    8.4830    1.4180   20.8240 O   0  0  0  0  0  0  0  0  0  0  0  0
    7.8320    0.6720   21.5390 C   0  0  0  0  0  0  0  0  0  0  0  0
    6.9410   -0.4250   20.9270 C   0  0  0  0  0  0  0  0  0  0  0  0
    6.1080    0.0920   19.7790 C   0  0  0  0  0  0  0  0  0  0  0  0
    6.4310   -0.2040   18.4830 C   0  0  0  0  0  0  0  0  0  0  0  0
    5.7660    0.2430   17.3860 N   0  0  0  0  0  0  0  0  0  0  0  0
    4.7390    1.0270   17.5870 C   0  0  0  0  0  0  0  0  0  0  0  0
    4.2810    1.4150   18.8740 C   0  0  0  0  0  0  0  0  0  0  0  0
    3.1650    2.2710   19.0490 C   0  0  0  0  0  0  0  0  0  0  0  0
    2.7640    2.6400   20.3020 C   0  0  0  0  0  0  0  0  0  0  0  0
    3.4590    2.1690   21.4360 C   0  0  0  0  0  0  0  0  0  0  0  0
    4.5420    1.3380   21.2950 C   0  0  0  0  0  0  0  0  0  0  0  0
    4.9830    0.9390   20.0050 C   0  0  0  0  0  0  0  0  0  0  0  0
    5.0700    0.9820   22.1760 H   0  0  0  0  0  0  0  0  0  0  0  0
    3.1350    2.4660   22.4300 H   0  0  0  0  0  0  0  0  0  0  0  0
    1.9160    3.3080   20.4290 H   0  0  0  0  0  0  0  0  0  0  0  0
    2.6610    2.6380   18.1590 H   0  0  0  0  0  0  0  0  0  0  0  0
    4.2110    1.3890   16.7030 H   0  0  0  0  0  0  0  0  0  0  0  0
    7.2780   -0.8520   18.2530 H   0  0  0  0  0  0  0  0  0  0  0  0
    6.3170   -0.9040   21.6890 H   0  0  0  0  0  0  0  0  0  0  0  0
    7.6170   -1.1990   20.5400 H   0  0  0  0  0  0  0  0  0  0  0  0
    7.8730    0.7700   22.8990 N   0  0  0  0  0  0  0  0  0  0  0  0
    7.4120   -0.2140   23.8750 C   0  0  0  0  0  0  0  0  0  0  0  0
    7.9930    0.2900   25.2130 C   0  0  2  0  0  0  0  0  0  0  0  0
    7.1140   -0.1380   26.3730 C   0  0  0  0  0  0  0  0  0  0  0  0
    7.6120    0.3550   27.5770 F   0  0  0  0  0  0  0  0  0  0  0  0
    7.0770   -1.2350   26.4480 H   0  0  0  0  0  0  0  0  0  0  0  0
    6.0900    0.2420   26.2490 H   0  0  0  0  0  0  0  0  0  0  0  0
    8.2270    1.8180   25.0150 C   0  0  0  0  0  0  0  0  0  0  0  0
    7.0410    2.7240   25.4060 C   0  0  0  0  0  0  0  0  0  0  0  0
    7.6480    4.1410   25.5890 C   0  0  0  0  0  0  0  0  0  0  0  0
    9.1690    3.9450   25.8370 C   0  0  0  0  0  0  0  0  0  0  0  0
    9.3640    2.4110   25.8670 C   0  0  0  0  0  0  0  0  0  0  0  0
   10.3270    2.0900   25.4540 H   0  0  0  0  0  0  0  0  0  0  0  0
    9.2550    1.9750   26.8660 H   0  0  0  0  0  0  0  0  0  0  0  0
    9.5080    4.4820   26.7300 H   0  0  0  0  0  0  0  0  0  0  0  0
    9.7580    4.3710   25.0130 H   0  0  0  0  0  0  0  0  0  0  0  0
    7.4740    4.7680   24.7090 H   0  0  0  0  0  0  0  0  0  0  0  0
    7.1550    4.6460   26.4270 H   0  0  0  0  0  0  0  0  0  0  0  0
    6.2260    2.6790   24.6670 H   0  0  0  0  0  0  0  0  0  0  0  0
    6.6360    2.3600   26.3590 H   0  0  0  0  0  0  0  0  0  0  0  0
    8.5410    1.9160   23.5050 C   0  0  0  0  0  0  0  0  0  0  0  0
    8.1700    2.8490   23.0650 H   0  0  0  0  0  0  0  0  0  0  0  0
    9.6220    1.8900   23.3050 H   0  0  0  0  0  0  0  0  0  0  0  0
    8.9840   -0.1630   25.3630 H   0  0  0  0  0  0  0  0  0  0  0  0
    6.3090   -0.2590   23.9000 H   0  0  0  0  0  0  0  0  0  0  0  0
    7.7660   -1.2250   23.6250 H   0  0  0  0  0  0  0  0  0  0  0  0
  1  2  2  0  0  0  0
  2  3  1  0  0  0  0
  2 22  1  0  0  0  0
  3  4  1  0  0  0  0
  3 20  1  0  0  0  0
  3 21  1  0  0  0  0
  4  5  2  0  0  0  0
  4 13  1  0  0  0  0
  5  6  1  0  0  0  0
  5 19  1  0  0  0  0
  6  7  2  0  0  0  0
  7  8  1  0  0  0  0
  7 18  1  0  0  0  0
  8  9  2  0  0  0  0
  8 13  1  0  0  0  0
  9 10  1  0  0  0  0
  9 17  1  0  0  0  0
 10 11  2  0  0  0  0
 10 16  1  0  0  0  0
 11 12  1  0  0  0  0
 11 15  1  0  0  0  0
 12 13  2  0  0  0  0
 12 14  1  0  0  0  0
 22 23  1  0  0  0  0
 22 42  1  0  0  0  0
 23 24  1  0  0  0  0
 23 46  1  0  0  0  0
 23 47  1  0  0  0  0
 24 25  1  0  0  0  0
 24 29  1  0  0  0  0
 24 45  1  1  0  0  0
 25 26  1  0  0  0  0
 25 27  1  0  0  0  0
 25 28  1  0  0  0  0
 29 30  1  0  0  0  0
 29 33  1  0  0  0  0
 29 42  1  0  0  0  0
 30 31  1  0  0  0  0
 30 40  1  0  0  0  0
 30 41  1  0  0  0  0
 31 32  1  0  0  0  0
 31 38  1  0  0  0  0
 31 39  1  0  0  0  0
 32 33  1  0  0  0  0
 32 36  1  0  0  0  0
 32 37  1  0  0  0  0
 33 34  1  0  0  0  0
 33 35  1  0  0  0  0
 42 43  1  0  0  0  0
 42 44  1  0  0  0  0
M  END
>  <MODEL>
       1

$$$$
