output/tmp_first_model_2_30.pdb
 OpenBabel07222619223D

 66 71  0  0  1  0  0  0  0  0999 V2000
    6.4460    4.2800   21.2920 C   0  0  0  0  0  0  0  0  0  0  0  0
    7.4070    3.8910   22.3130 N   0  0  0  0  0  0  0  0  0  0  0  0
    6.9720    3.3160   23.4620 C   0  0  0  0  0  0  0  0  0  0  0  0
    5.7870    3.1350   23.7000 O   0  0  0  0  0  0  0  0  0  0  0  0
    8.0580    2.8890   24.4540 C   0  0  0  0  0  0  0  0  0  0  0  0
    8.7530    1.6880   24.0170 N   0  0  0  0  0  0  0  0  0  0  0  0
    7.9930    0.4590   23.8580 C   0  0  0  0  0  0  0  0  0  0  0  0
    8.4080   -0.3690   22.6090 C   0  0  2  0  0  0  0  0  0  0  0  0
    7.9130    0.3090   21.3100 C   0  0  0  0  0  0  0  0  0  0  0  0
    8.3710    1.3100   20.7950 O   0  0  0  0  0  0  0  0  0  0  0  0
    6.8550   -0.4110   20.8060 N   0  0  0  0  0  0  0  0  0  0  0  0
    6.0890    0.1020   19.7300 C   0  0  0  0  0  0  0  0  0  0  0  0
    6.4470   -0.1710   18.4350 C   0  0  0  0  0  0  0  0  0  0  0  0
    5.7660    0.2770   17.3560 N   0  0  0  0  0  0  0  0  0  0  0  0
    4.7200    1.0400   17.5660 C   0  0  0  0  0  0  0  0  0  0  0  0
    4.2600    1.4250   18.8570 C   0  0  0  0  0  0  0  0  0  0  0  0
    3.1500    2.2920   19.0450 C   0  0  0  0  0  0  0  0  0  0  0  0
    2.7610    2.6580   20.3080 C   0  0  0  0  0  0  0  0  0  0  0  0
    3.4580    2.1780   21.4380 C   0  0  0  0  0  0  0  0  0  0  0  0
    4.5300    1.3330   21.2770 C   0  0  0  0  0  0  0  0  0  0  0  0
    4.9590    0.9360   19.9810 C   0  0  0  0  0  0  0  0  0  0  0  0
    5.1000    1.0210   22.1460 H   0  0  0  0  0  0  0  0  0  0  0  0
    3.1800    2.5040   22.4350 H   0  0  0  0  0  0  0  0  0  0  0  0
    1.9230    3.3340   20.4440 H   0  0  0  0  0  0  0  0  0  0  0  0
    2.6400    2.6720   18.1660 H   0  0  0  0  0  0  0  0  0  0  0  0
    4.1850    1.4000   16.6870 H   0  0  0  0  0  0  0  0  0  0  0  0
    7.3240   -0.7840   18.2350 H   0  0  0  0  0  0  0  0  0  0  0  0
    6.4250   -1.5020   21.6530 C   0  0  0  0  0  0  0  0  0  0  0  0
    7.6710   -1.7410   22.5240 C   0  0  2  0  0  0  0  0  0  0  0  0
    7.3970   -2.5110   23.8280 C   0  0  0  0  0  0  0  0  0  0  0  0
    6.8470   -3.8900   23.5360 C   0  0  0  0  0  0  0  0  0  0  0  0
    5.4740   -4.1140   23.3740 C   0  0  0  0  0  0  0  0  0  0  0  0
    5.0050   -5.3370   22.9030 C   0  0  0  0  0  0  0  0  0  0  0  0
    5.8920   -6.3670   22.6050 C   0  0  0  0  0  0  0  0  0  0  0  0
    7.2590   -6.1700   22.7980 C   0  0  0  0  0  0  0  0  0  0  0  0
    7.7190   -4.9450   23.2690 C   0  0  0  0  0  0  0  0  0  0  0  0
    8.7790   -4.7920   23.4420 H   0  0  0  0  0  0  0  0  0  0  0  0
    7.9710   -6.9590   22.5670 H   0  0  0  0  0  0  0  0  0  0  0  0
    5.5140   -7.3210   22.2460 H   0  0  0  0  0  0  0  0  0  0  0  0
    3.9390   -5.4840   22.7460 H   0  0  0  0  0  0  0  0  0  0  0  0
    4.7670   -3.3200   23.6120 H   0  0  0  0  0  0  0  0  0  0  0  0
    6.6990   -1.9500   24.4610 H   0  0  0  0  0  0  0  0  0  0  0  0
    8.3360   -2.5870   24.3910 H   0  0  0  0  0  0  0  0  0  0  0  0
    8.3240   -2.3750   21.9240 H   0  0  0  0  0  0  0  0  0  0  0  0
    5.5290   -1.2420   22.2430 H   0  0  0  0  0  0  0  0  0  0  0  0
    6.1680   -2.3810   21.0490 H   0  0  0  0  0  0  0  0  0  0  0  0
    9.9200   -0.4380   22.5290 C   0  0  0  0  0  0  0  0  0  0  0  0
   10.5350   -1.3510   21.6600 C   0  0  0  0  0  0  0  0  0  0  0  0
   11.8880   -1.2640   21.4080 C   0  0  0  0  0  0  0  0  0  0  0  0
   12.5690   -2.3250   20.2050 Cl  0  0  0  0  0  0  0  0  0  0  0  0
   12.6890   -0.3100   22.0460 C   0  0  0  0  0  0  0  0  0  0  0  0
   12.0970    0.5690   22.9290 C   0  0  0  0  0  0  0  0  0  0  0  0
   10.7140    0.5540   23.1170 C   0  0  0  0  0  0  0  0  0  0  0  0
   10.1060    1.7330   23.8200 C   0  0  0  0  0  0  0  0  0  0  0  0
   10.7920    2.6940   24.1390 O   0  0  0  0  0  0  0  0  0  0  0  0
   12.6800    1.3130   23.4620 H   0  0  0  0  0  0  0  0  0  0  0  0
   13.7480   -0.2400   21.8270 H   0  0  0  0  0  0  0  0  0  0  0  0
    9.9730   -2.1140   21.1270 H   0  0  0  0  0  0  0  0  0  0  0  0
    8.1130   -0.1640   24.7520 H   0  0  0  0  0  0  0  0  0  0  0  0
    6.9400    0.7400   23.7830 H   0  0  0  0  0  0  0  0  0  0  0  0
    8.8220    3.6600   24.5500 H   0  0  0  0  0  0  0  0  0  0  0  0
    7.5850    2.7470   25.4320 H   0  0  0  0  0  0  0  0  0  0  0  0
    8.3440    3.6570   22.0240 H   0  0  0  0  0  0  0  0  0  0  0  0
    5.7020    4.9520   21.7310 H   0  0  0  0  0  0  0  0  0  0  0  0
    5.9240    3.4050   20.8760 H   0  0  0  0  0  0  0  0  0  0  0  0
    6.9640    4.8090   20.4840 H   0  0  0  0  0  0  0  0  0  0  0  0
  1  2  1  0  0  0  0
  1 64  1  0  0  0  0
  1 65  1  0  0  0  0
  1 66  1  0  0  0  0
  2  3  1  0  0  0  0
  2 63  1  0  0  0  0
  3  4  2  0  0  0  0
  3  5  1  0  0  0  0
  5  6  1  0  0  0  0
  5 61  1  0  0  0  0
  5 62  1  0  0  0  0
  6  7  1  0  0  0  0
  6 54  1  0  0  0  0
  7  8  1  0  0  0  0
  7 59  1  0  0  0  0
  7 60  1  0  0  0  0
  8  9  1  6  0  0  0
  8 29  1  0  0  0  0
  8 47  1  0  0  0  0
  9 10  2  0  0  0  0
  9 11  1  0  0  0  0
 11 12  1  0  0  0  0
 11 28  1  0  0  0  0
 12 13  2  0  0  0  0
 12 21  1  0  0  0  0
 13 14  1  0  0  0  0
 13 27  1  0  0  0  0
 14 15  2  0  0  0  0
 15 16  1  0  0  0  0
 15 26  1  0  0  0  0
 16 17  2  0  0  0  0
 16 21  1  0  0  0  0
 17 18  1  0  0  0  0
 17 25  1  0  0  0  0
 18 19  2  0  0  0  0
 18 24  1  0  0  0  0
 19 20  1  0  0  0  0
 19 23  1  0  0  0  0
 20 21  2  0  0  0  0
 20 22  1  0  0  0  0
 28 29  1  0  0  0  0
 28 45  1  0  0  0  0
 28 46  1  0  0  0  0
 29 30  1  0  0  0  0
 29 44  1  6  0  0  0
 30 31  1  0  0  0  0
 30 42  1  0  0  0  0
 30 43  1  0  0  0  0
 31 32  2  0  0  0  0
 31 36  1  0  0  0  0
 32 33  1  0  0  0  0
 32 41  1  0  0  0  0
 33 34  2  0  0  0  0
 33 40  1  0  0  0  0
 34 35  1  0  0  0  0
 34 39  1  0  0  0  0
 35 36  2  0  0  0  0
 35 38  1  0  0  0  0
 36 37  1  0  0  0  0
 47 48  2  0  0  0  0
 47 53  1  0  0  0  0
 48 49  1  0  0  0  0
 48 58  1  0  0  0  0
 49 50  1  0  0  0  0
 49 51  2  0  0  0  0
 51 52  1  0  0  0  0
 51 57  1  0  0  0  0
 52 53  2  0  0  0  0
 52 56  1  0  0  0  0
 53 54  1  0  0  0  0
 54 55  2  0  0  0  0
M  END
>  <MODEL>
       1

$$$$
