output/tmp_first_model_15_69.pdb
 OpenBabel07232601353D

 64 68  0  0  0  0  0  0  0  0999 V2000
    1.1590   -1.2610   28.5110 C   0  0  0  0  0  0  0  0  0  0  0  0
    2.5940   -1.5790   28.0680 C   0  0  0  0  0  0  0  0  0  0  0  0
    2.6930   -2.0470   26.6180 C   0  0  0  0  0  0  0  0  0  0  0  0
    2.4450   -1.2760   25.7100 O   0  0  0  0  0  0  0  0  0  0  0  0
    3.1210   -3.3600   26.3880 N   0  0  0  0  0  0  0  0  0  0  0  0
    2.6410   -4.4650   27.2290 C   0  0  0  0  0  0  0  0  0  0  0  0
    2.2020   -5.6440   26.3630 C   0  0  0  0  0  0  0  0  0  0  0  0
    3.3890   -6.1250   25.5340 C   0  0  0  0  0  0  0  0  0  0  0  0
    4.0780   -4.9720   24.8320 C   0  0  0  0  0  0  0  0  0  0  0  0
    4.8990   -5.2210   23.7360 C   0  0  0  0  0  0  0  0  0  0  0  0
    5.6510   -4.2330   23.1190 C   0  0  0  0  0  0  0  0  0  0  0  0
    5.5550   -2.9240   23.5880 C   0  0  0  0  0  0  0  0  0  0  0  0
    6.3190   -1.8750   22.9770 N   0  0  0  0  0  0  0  0  0  0  0  0
    7.3420   -1.2070   23.7800 C   0  0  0  0  0  0  0  0  0  0  0  0
    8.7680   -1.5330   23.3620 C   0  0  0  0  0  0  0  0  0  0  0  0
    9.2130   -2.8540   23.3810 C   0  0  0  0  0  0  0  0  0  0  0  0
   10.5080   -3.1710   22.9820 C   0  0  0  0  0  0  0  0  0  0  0  0
   11.3830   -2.1790   22.5500 C   0  0  0  0  0  0  0  0  0  0  0  0
   10.9420   -0.8620   22.5530 C   0  0  0  0  0  0  0  0  0  0  0  0
   12.0250    0.4040   22.0330 Cl  0  0  0  0  0  0  0  0  0  0  0  0
    9.6520   -0.5310   22.9580 C   0  0  0  0  0  0  0  0  0  0  0  0
    9.3550    0.5140   22.9450 H   0  0  0  0  0  0  0  0  0  0  0  0
   12.3920   -2.4100   22.2180 H   0  0  0  0  0  0  0  0  0  0  0  0
   10.8310   -4.2070   23.0110 H   0  0  0  0  0  0  0  0  0  0  0  0
    8.5360   -3.6390   23.7170 H   0  0  0  0  0  0  0  0  0  0  0  0
    7.1640   -1.5530   24.8050 H   0  0  0  0  0  0  0  0  0  0  0  0
    7.2020   -0.1190   23.7590 H   0  0  0  0  0  0  0  0  0  0  0  0
    6.1260   -1.6620   21.6230 C   0  0  0  0  0  0  0  0  0  0  0  0
    5.3740   -2.3720   20.9780 O   0  0  0  0  0  0  0  0  0  0  0  0
    6.8800   -0.5060   20.9310 C   0  0  0  0  0  0  0  0  0  0  0  0
    6.1020    0.0810   19.7820 C   0  0  0  0  0  0  0  0  0  0  0  0
    6.4130   -0.2160   18.4790 C   0  0  0  0  0  0  0  0  0  0  0  0
    5.7550    0.2410   17.3850 N   0  0  0  0  0  0  0  0  0  0  0  0
    4.7300    1.0340   17.5790 C   0  0  0  0  0  0  0  0  0  0  0  0
    4.2870    1.4160   18.8730 C   0  0  0  0  0  0  0  0  0  0  0  0
    3.1640    2.2450   19.0780 C   0  0  0  0  0  0  0  0  0  0  0  0
    2.4920    2.6460   17.9850 F   0  0  0  0  0  0  0  0  0  0  0  0
    2.7400    2.6250   20.3170 C   0  0  0  0  0  0  0  0  0  0  0  0
    3.4390    2.1410   21.4430 C   0  0  0  0  0  0  0  0  0  0  0  0
    4.5260    1.3170   21.2970 C   0  0  0  0  0  0  0  0  0  0  0  0
    4.9820    0.9360   20.0080 C   0  0  0  0  0  0  0  0  0  0  0  0
    5.0440    0.9410   22.1720 H   0  0  0  0  0  0  0  0  0  0  0  0
    3.1070    2.4190   22.4400 H   0  0  0  0  0  0  0  0  0  0  0  0
    1.8840    3.2810   20.4120 H   0  0  0  0  0  0  0  0  0  0  0  0
    4.2030    1.4020   16.7010 H   0  0  0  0  0  0  0  0  0  0  0  0
    7.2580   -0.8650   18.2490 H   0  0  0  0  0  0  0  0  0  0  0  0
    7.8180   -0.9230   20.5450 H   0  0  0  0  0  0  0  0  0  0  0  0
    7.1630    0.2700   21.6500 H   0  0  0  0  0  0  0  0  0  0  0  0
    4.7300   -2.6390   24.6710 C   0  0  0  0  0  0  0  0  0  0  0  0
    3.9590   -3.6460   25.2820 C   0  0  0  0  0  0  0  0  0  0  0  0
    4.6990   -1.6150   25.0290 H   0  0  0  0  0  0  0  0  0  0  0  0
    6.3160   -4.4870   22.3000 H   0  0  0  0  0  0  0  0  0  0  0  0
    4.9940   -6.2510   23.3970 H   0  0  0  0  0  0  0  0  0  0  0  0
    4.1100   -6.6440   26.1890 H   0  0  0  0  0  0  0  0  0  0  0  0
    3.0770   -6.8720   24.7930 H   0  0  0  0  0  0  0  0  0  0  0  0
    1.3840   -5.3300   25.7030 H   0  0  0  0  0  0  0  0  0  0  0  0
    1.8210   -6.4500   27.0000 H   0  0  0  0  0  0  0  0  0  0  0  0
    3.4250   -4.7890   27.9350 H   0  0  0  0  0  0  0  0  0  0  0  0
    1.7980   -4.0800   27.8100 H   0  0  0  0  0  0  0  0  0  0  0  0
    3.1830   -0.6520   28.0870 H   0  0  0  0  0  0  0  0  0  0  0  0
    3.0910   -2.2850   28.7440 H   0  0  0  0  0  0  0  0  0  0  0  0
    0.5100   -2.1450   28.4900 H   0  0  0  0  0  0  0  0  0  0  0  0
    1.1590   -0.8660   29.5330 H   0  0  0  0  0  0  0  0  0  0  0  0
    0.7230   -0.5000   27.8570 H   0  0  0  0  0  0  0  0  0  0  0  0
  1  2  1  0  0  0  0
  1 62  1  0  0  0  0
  1 63  1  0  0  0  0
  1 64  1  0  0  0  0
  2  3  1  0  0  0  0
  2 60  1  0  0  0  0
  2 61  1  0  0  0  0
  3  4  2  0  0  0  0
  3  5  1  0  0  0  0
  5  6  1  0  0  0  0
  5 50  1  0  0  0  0
  6  7  1  0  0  0  0
  6 58  1  0  0  0  0
  6 59  1  0  0  0  0
  7  8  1  0  0  0  0
  7 56  1  0  0  0  0
  7 57  1  0  0  0  0
  8  9  1  0  0  0  0
  8 54  1  0  0  0  0
  8 55  1  0  0  0  0
  9 10  2  0  0  0  0
  9 50  1  0  0  0  0
 10 11  1  0  0  0  0
 10 53  1  0  0  0  0
 11 12  2  0  0  0  0
 11 52  1  0  0  0  0
 12 13  1  0  0  0  0
 12 49  1  0  0  0  0
 13 14  1  0  0  0  0
 13 28  1  0  0  0  0
 14 15  1  0  0  0  0
 14 26  1  0  0  0  0
 14 27  1  0  0  0  0
 15 16  2  0  0  0  0
 15 21  1  0  0  0  0
 16 17  1  0  0  0  0
 16 25  1  0  0  0  0
 17 18  2  0  0  0  0
 17 24  1  0  0  0  0
 18 19  1  0  0  0  0
 18 23  1  0  0  0  0
 19 20  1  0  0  0  0
 19 21  2  0  0  0  0
 21 22  1  0  0  0  0
 28 29  2  0  0  0  0
 28 30  1  0  0  0  0
 30 31  1  0  0  0  0
 30 47  1  0  0  0  0
 30 48  1  0  0  0  0
 31 32  2  0  0  0  0
 31 41  1  0  0  0  0
 32 33  1  0  0  0  0
 32 46  1  0  0  0  0
 33 34  2  0  0  0  0
 34 35  1  0  0  0  0
 34 45  1  0  0  0  0
 35 36  2  0  0  0  0
 35 41  1  0  0  0  0
 36 37  1  0  0  0  0
 36 38  1  0  0  0  0
 38 39  2  0  0  0  0
 38 44  1  0  0  0  0
 39 40  1  0  0  0  0
 39 43  1  0  0  0  0
 40 41  2  0  0  0  0
 40 42  1  0  0  0  0
 49 50  2  0  0  0  0
 49 51  1  0  0  0  0
M  END
>  <MODEL>
       1

$$$$
