output/tmp_first_model_19_59.pdb
 OpenBabel07232603163D

 60 65  0  0  1  0  0  0  0  0999 V2000
    6.8950   -3.1250   25.7190 C   0  0  0  0  0  0  0  0  0  0  0  0
    7.7150   -2.7490   24.6430 O   0  0  0  0  0  0  0  0  0  0  0  0
    6.9750   -2.4360   23.4880 C   0  0  0  0  0  0  0  0  0  0  0  0
    7.9040   -1.8470   22.4220 C   0  0  1  0  0  0  0  0  0  0  0  0
    7.1650   -1.7670   21.0770 C   0  0  0  0  0  0  0  0  0  0  0  0
    6.8840   -0.3650   20.8940 N   0  0  0  0  0  0  0  0  0  0  0  0
    6.1240    0.1080   19.7990 C   0  0  0  0  0  0  0  0  0  0  0  0
    6.4440   -0.2360   18.5090 C   0  0  0  0  0  0  0  0  0  0  0  0
    5.7860    0.2100   17.4080 N   0  0  0  0  0  0  0  0  0  0  0  0
    4.7590    1.0050   17.6030 C   0  0  0  0  0  0  0  0  0  0  0  0
    4.2950    1.3990   18.8900 C   0  0  0  0  0  0  0  0  0  0  0  0
    3.1700    2.2490   19.0530 C   0  0  0  0  0  0  0  0  0  0  0  0
    2.7370    2.5980   20.3030 C   0  0  0  0  0  0  0  0  0  0  0  0
    3.3970    2.1040   21.4490 C   0  0  0  0  0  0  0  0  0  0  0  0
    4.4900    1.2840   21.3220 C   0  0  0  0  0  0  0  0  0  0  0  0
    4.9800    0.9310   20.0330 C   0  0  0  0  0  0  0  0  0  0  0  0
    4.9810    0.8990   22.2090 H   0  0  0  0  0  0  0  0  0  0  0  0
    3.0500    2.3920   22.4380 H   0  0  0  0  0  0  0  0  0  0  0  0
    1.8860    3.2610   20.4280 H   0  0  0  0  0  0  0  0  0  0  0  0
    2.6720    2.6290   18.1660 H   0  0  0  0  0  0  0  0  0  0  0  0
    4.2290    1.3700   16.7210 H   0  0  0  0  0  0  0  0  0  0  0  0
    7.3010   -0.8790   18.3100 H   0  0  0  0  0  0  0  0  0  0  0  0
    7.7260    0.4480   21.6260 C   0  0  0  0  0  0  0  0  0  0  0  0
    7.8510    1.6400   21.4570 O   0  0  0  0  0  0  0  0  0  0  0  0
    8.4830   -0.4160   22.6580 C   0  0  1  0  0  0  0  0  0  0  0  0
    8.2460    0.1060   24.0970 C   0  0  0  0  0  0  0  0  0  0  0  0
    8.8590    1.4010   24.3270 N   0  0  0  0  0  0  0  0  0  0  0  0
    8.1240    2.4350   25.0300 C   0  0  0  0  0  0  0  0  0  0  0  0
    7.4400    3.3710   24.0790 C   0  0  0  0  0  0  0  0  0  0  0  0
    6.1770    3.2910   23.7180 N   0  0  0  0  0  0  0  0  0  0  0  0
    6.0070    4.3170   22.8220 C   0  0  0  0  0  0  0  0  0  0  0  0
    7.1650    5.0250   22.6480 C   0  0  0  0  0  0  0  0  0  0  0  0
    8.0790    4.4010   23.4640 N   0  0  0  0  0  0  0  0  0  0  0  0
    9.0640    4.6140   23.5440 H   0  0  0  0  0  0  0  0  0  0  0  0
    7.4200    5.8710   22.0250 H   0  0  0  0  0  0  0  0  0  0  0  0
    5.0580    4.4710   22.3340 H   0  0  0  0  0  0  0  0  0  0  0  0
    8.8420    2.9870   25.6440 H   0  0  0  0  0  0  0  0  0  0  0  0
    7.3710    1.9650   25.6720 H   0  0  0  0  0  0  0  0  0  0  0  0
   10.1040    1.7130   23.8730 C   0  0  0  0  0  0  0  0  0  0  0  0
   10.6370    2.7910   24.1320 O   0  0  0  0  0  0  0  0  0  0  0  0
   10.7530    0.6910   23.0020 C   0  0  0  0  0  0  0  0  0  0  0  0
   12.1160    0.8250   22.7510 C   0  0  0  0  0  0  0  0  0  0  0  0
   12.7760   -0.1070   21.9700 C   0  0  0  0  0  0  0  0  0  0  0  0
   12.0150   -1.1050   21.3550 C   0  0  0  0  0  0  0  0  0  0  0  0
   12.7900   -2.2560   20.3010 Cl  0  0  0  0  0  0  0  0  0  0  0  0
   10.6380   -1.1730   21.5080 C   0  0  0  0  0  0  0  0  0  0  0  0
    9.9890   -0.3180   22.4010 C   0  0  0  0  0  0  0  0  0  0  0  0
   10.0830   -1.9140   20.9440 H   0  0  0  0  0  0  0  0  0  0  0  0
   13.8540   -0.0830   21.8390 H   0  0  0  0  0  0  0  0  0  0  0  0
   12.6170    1.6870   23.1850 H   0  0  0  0  0  0  0  0  0  0  0  0
    7.1790    0.1920   24.3120 H   0  0  0  0  0  0  0  0  0  0  0  0
    8.6720   -0.6150   24.7950 H   0  0  0  0  0  0  0  0  0  0  0  0
    7.7930   -2.1330   20.2620 H   0  0  0  0  0  0  0  0  0  0  0  0
    6.2320   -2.3370   21.0690 H   0  0  0  0  0  0  0  0  0  0  0  0
    8.7350   -2.5520   22.3820 H   0  0  0  0  0  0  0  0  0  0  0  0
    6.1490   -1.7450   23.7210 H   0  0  0  0  0  0  0  0  0  0  0  0
    6.5220   -3.3640   23.0980 H   0  0  0  0  0  0  0  0  0  0  0  0
    6.2560   -3.9830   25.4590 H   0  0  0  0  0  0  0  0  0  0  0  0
    7.5430   -3.4110   26.5520 H   0  0  0  0  0  0  0  0  0  0  0  0
    6.2540   -2.2910   26.0440 H   0  0  0  0  0  0  0  0  0  0  0  0
  1  2  1  0  0  0  0
  1 58  1  0  0  0  0
  1 59  1  0  0  0  0
  1 60  1  0  0  0  0
  2  3  1  0  0  0  0
  3  4  1  0  0  0  0
  3 56  1  0  0  0  0
  3 57  1  0  0  0  0
  4  5  1  0  0  0  0
  4 25  1  0  0  0  0
  4 55  1  6  0  0  0
  5  6  1  0  0  0  0
  5 53  1  0  0  0  0
  5 54  1  0  0  0  0
  6  7  1  0  0  0  0
  6 23  1  0  0  0  0
  7  8  2  0  0  0  0
  7 16  1  0  0  0  0
  8  9  1  0  0  0  0
  8 22  1  0  0  0  0
  9 10  2  0  0  0  0
 10 11  1  0  0  0  0
 10 21  1  0  0  0  0
 11 12  2  0  0  0  0
 11 16  1  0  0  0  0
 12 13  1  0  0  0  0
 12 20  1  0  0  0  0
 13 14  2  0  0  0  0
 13 19  1  0  0  0  0
 14 15  1  0  0  0  0
 14 18  1  0  0  0  0
 15 16  2  0  0  0  0
 15 17  1  0  0  0  0
 23 24  2  0  0  0  0
 25 23  1  6  0  0  0
 25 26  1  0  0  0  0
 25 47  1  0  0  0  0
 26 27  1  0  0  0  0
 26 51  1  0  0  0  0
 26 52  1  0  0  0  0
 27 28  1  0  0  0  0
 27 39  1  0  0  0  0
 28 29  1  0  0  0  0
 28 37  1  0  0  0  0
 28 38  1  0  0  0  0
 29 30  2  0  0  0  0
 29 33  1  0  0  0  0
 30 31  1  0  0  0  0
 31 32  2  0  0  0  0
 31 36  1  0  0  0  0
 32 33  1  0  0  0  0
 32 35  1  0  0  0  0
 33 34  1  0  0  0  0
 39 40  2  0  0  0  0
 39 41  1  0  0  0  0
 41 42  2  0  0  0  0
 41 47  1  0  0  0  0
 42 43  1  0  0  0  0
 42 50  1  0  0  0  0
 43 44  2  0  0  0  0
 43 49  1  0  0  0  0
 44 45  1  0  0  0  0
 44 46  1  0  0  0  0
 46 47  2  0  0  0  0
 46 48  1  0  0  0  0
M  END
>  <MODEL>
       1

$$$$
