output/tmp_first_model_15_70.pdb
 OpenBabel07232601353D

 57 62  0  0  1  0  0  0  0  0999 V2000
    7.1300   -2.3050   23.5500 C   0  0  0  0  0  0  0  0  0  0  0  0
    8.0040   -1.8210   22.3880 C   0  0  1  0  0  0  0  0  0  0  0  0
    7.2070   -1.7640   21.0660 C   0  0  0  0  0  0  0  0  0  0  0  0
    6.9210   -0.3590   20.8870 N   0  0  0  0  0  0  0  0  0  0  0  0
    6.1470    0.1110   19.7990 C   0  0  0  0  0  0  0  0  0  0  0  0
    6.4580   -0.2350   18.5070 C   0  0  0  0  0  0  0  0  0  0  0  0
    5.7880    0.2030   17.4180 N   0  0  0  0  0  0  0  0  0  0  0  0
    4.7670    1.0010   17.6160 C   0  0  0  0  0  0  0  0  0  0  0  0
    4.3140    1.4100   18.9010 C   0  0  0  0  0  0  0  0  0  0  0  0
    3.1810    2.2500   19.0650 C   0  0  0  0  0  0  0  0  0  0  0  0
    2.7560    2.6110   20.3150 C   0  0  0  0  0  0  0  0  0  0  0  0
    3.4380    2.1370   21.4590 C   0  0  0  0  0  0  0  0  0  0  0  0
    4.5350    1.3180   21.3250 C   0  0  0  0  0  0  0  0  0  0  0  0
    5.0120    0.9450   20.0380 C   0  0  0  0  0  0  0  0  0  0  0  0
    5.0430    0.9350   22.2040 H   0  0  0  0  0  0  0  0  0  0  0  0
    3.1170    2.4390   22.4530 H   0  0  0  0  0  0  0  0  0  0  0  0
    1.8910    3.2600   20.4280 H   0  0  0  0  0  0  0  0  0  0  0  0
    2.6750    2.6090   18.1720 H   0  0  0  0  0  0  0  0  0  0  0  0
    4.2370    1.3550   16.7340 H   0  0  0  0  0  0  0  0  0  0  0  0
    7.3110   -0.8810   18.3010 H   0  0  0  0  0  0  0  0  0  0  0  0
    7.8170    0.4620   21.5490 C   0  0  0  0  0  0  0  0  0  0  0  0
    7.9170    1.6500   21.3500 O   0  0  0  0  0  0  0  0  0  0  0  0
    8.6420   -0.3970   22.5380 C   0  0  1  0  0  0  0  0  0  0  0  0
    8.5660    0.1590   23.9840 C   0  0  0  0  0  0  0  0  0  0  0  0
    9.2260    1.4460   24.1400 N   0  0  0  0  0  0  0  0  0  0  0  0
    8.5890    2.4430   24.9890 C   0  0  0  0  0  0  0  0  0  0  0  0
    7.3860    3.0570   24.3410 C   0  0  0  0  0  0  0  0  0  0  0  0
    6.1090    2.7520   24.6700 N   0  0  0  0  0  0  0  0  0  0  0  0
    5.3520    3.4370   23.8550 N   0  0  0  0  0  0  0  0  0  0  0  0
    6.1630    4.1280   23.0840 N   0  0  0  0  0  0  0  0  0  0  0  0
    5.6870    4.8770   21.9390 C   0  0  0  0  0  0  0  0  0  0  0  0
    6.3560    5.7240   21.7780 H   0  0  0  0  0  0  0  0  0  0  0  0
    4.6780    5.2290   22.1570 H   0  0  0  0  0  0  0  0  0  0  0  0
    5.6740    4.2280   21.0550 H   0  0  0  0  0  0  0  0  0  0  0  0
    7.4460    3.9420   23.3550 N   0  0  0  0  0  0  0  0  0  0  0  0
    8.2760    1.9900   25.9360 H   0  0  0  0  0  0  0  0  0  0  0  0
    9.3510    3.2020   25.1860 H   0  0  0  0  0  0  0  0  0  0  0  0
   10.4470    1.7200   23.5810 C   0  0  0  0  0  0  0  0  0  0  0  0
   11.1060    2.7010   23.8920 O   0  0  0  0  0  0  0  0  0  0  0  0
   10.9330    0.6990   22.5920 C   0  0  0  0  0  0  0  0  0  0  0  0
   12.2600    0.7710   22.1790 C   0  0  0  0  0  0  0  0  0  0  0  0
   12.8260   -0.2330   21.4230 C   0  0  0  0  0  0  0  0  0  0  0  0
   12.0060   -1.2820   21.0000 C   0  0  0  0  0  0  0  0  0  0  0  0
   12.4850   -2.2180   20.1660 F   0  0  0  0  0  0  0  0  0  0  0  0
   10.6640   -1.3320   21.3160 C   0  0  0  0  0  0  0  0  0  0  0  0
   10.1130   -0.3500   22.1480 C   0  0  0  0  0  0  0  0  0  0  0  0
   10.0640   -2.1120   20.8640 H   0  0  0  0  0  0  0  0  0  0  0  0
   13.8600   -0.1730   21.1080 H   0  0  0  0  0  0  0  0  0  0  0  0
   12.8660    1.6020   22.5240 H   0  0  0  0  0  0  0  0  0  0  0  0
    7.5280    0.2950   24.2920 H   0  0  0  0  0  0  0  0  0  0  0  0
    9.0340   -0.5830   24.6470 H   0  0  0  0  0  0  0  0  0  0  0  0
    6.2730   -2.3340   21.1140 H   0  0  0  0  0  0  0  0  0  0  0  0
    7.8020   -2.1540   20.2290 H   0  0  0  0  0  0  0  0  0  0  0  0
    8.8060   -2.5580   22.3180 H   0  0  0  0  0  0  0  0  0  0  0  0
    6.2600   -1.6580   23.6970 H   0  0  0  0  0  0  0  0  0  0  0  0
    7.6930   -2.3380   24.4890 H   0  0  0  0  0  0  0  0  0  0  0  0
    6.7740   -3.3250   23.3540 H   0  0  0  0  0  0  0  0  0  0  0  0
  1  2  1  0  0  0  0
  1 55  1  0  0  0  0
  1 56  1  0  0  0  0
  1 57  1  0  0  0  0
  2  3  1  0  0  0  0
  2 23  1  0  0  0  0
  2 54  1  6  0  0  0
  3  4  1  0  0  0  0
  3 52  1  0  0  0  0
  3 53  1  0  0  0  0
  4  5  1  0  0  0  0
  4 21  1  0  0  0  0
  5  6  2  0  0  0  0
  5 14  1  0  0  0  0
  6  7  1  0  0  0  0
  6 20  1  0  0  0  0
  7  8  2  0  0  0  0
  8  9  1  0  0  0  0
  8 19  1  0  0  0  0
  9 10  2  0  0  0  0
  9 14  1  0  0  0  0
 10 11  1  0  0  0  0
 10 18  1  0  0  0  0
 11 12  2  0  0  0  0
 11 17  1  0  0  0  0
 12 13  1  0  0  0  0
 12 16  1  0  0  0  0
 13 14  2  0  0  0  0
 13 15  1  0  0  0  0
 21 22  2  0  0  0  0
 23 21  1  6  0  0  0
 23 24  1  0  0  0  0
 23 46  1  0  0  0  0
 24 25  1  0  0  0  0
 24 50  1  0  0  0  0
 24 51  1  0  0  0  0
 25 26  1  0  0  0  0
 25 38  1  0  0  0  0
 26 27  1  0  0  0  0
 26 36  1  0  0  0  0
 26 37  1  0  0  0  0
 27 28  1  0  0  0  0
 27 35  2  0  0  0  0
 28 29  2  0  0  0  0
 29 30  1  0  0  0  0
 30 31  1  0  0  0  0
 30 35  1  0  0  0  0
 31 32  1  0  0  0  0
 31 33  1  0  0  0  0
 31 34  1  0  0  0  0
 38 39  2  0  0  0  0
 38 40  1  0  0  0  0
 40 41  2  0  0  0  0
 40 46  1  0  0  0  0
 41 42  1  0  0  0  0
 41 49  1  0  0  0  0
 42 43  2  0  0  0  0
 42 48  1  0  0  0  0
 43 44  1  0  0  0  0
 43 45  1  0  0  0  0
 45 46  2  0  0  0  0
 45 47  1  0  0  0  0
M  END
>  <MODEL>
       1

$$$$
