output/tmp_first_model_11_3.pdb
 OpenBabel07222623443D

 67 73  0  0  1  0  0  0  0  0999 V2000
    9.0680    2.9010   24.9370 O   0  0  0  0  0  0  0  0  0  0  0  0
    8.8280    1.7700   24.5390 C   0  0  0  0  0  0  0  0  0  0  0  0
    9.8630    0.8710   23.8970 C   0  0  0  0  0  0  0  0  0  0  0  0
   11.2340    1.1080   24.0300 C   0  0  0  0  0  0  0  0  0  0  0  0
   12.1550    0.4550   23.2180 C   0  0  0  0  0  0  0  0  0  0  0  0
   11.6650   -0.3780   22.2110 C   0  0  0  0  0  0  0  0  0  0  0  0
   12.6160   -1.1110   20.9630 Cl  0  0  0  0  0  0  0  0  0  0  0  0
   10.3240   -0.6410   22.0930 C   0  0  0  0  0  0  0  0  0  0  0  0
    9.4290   -0.1220   23.0210 C   0  0  0  0  0  0  0  0  0  0  0  0
    7.9840   -0.4870   22.8890 C   0  0  1  0  0  0  0  0  0  0  0  0
    7.2740   -0.1210   24.2080 C   0  0  0  0  0  0  0  0  0  0  0  0
    7.5640    1.2460   24.5910 N   0  0  0  0  0  0  0  0  0  0  0  0
    6.4280    2.0880   24.9100 C   0  0  0  0  0  0  0  0  0  0  0  0
    5.7240    1.6180   26.1650 C   0  0  0  0  0  0  0  0  0  0  0  0
    6.2910    1.7810   27.4100 C   0  0  0  0  0  0  0  0  0  0  0  0
    5.6090    1.2680   28.5080 C   0  0  0  0  0  0  0  0  0  0  0  0
    4.4550    0.6160   28.4190 N   0  0  0  0  0  0  0  0  0  0  0  0
    3.9060    0.4420   27.2270 N   0  0  0  0  0  0  0  0  0  0  0  0
    4.5150    0.9200   26.1430 C   0  0  0  0  0  0  0  0  0  0  0  0
    4.0010    0.7180   25.2060 H   0  0  0  0  0  0  0  0  0  0  0  0
    6.0050    1.3790   29.5170 H   0  0  0  0  0  0  0  0  0  0  0  0
    7.2500    2.2760   27.5360 H   0  0  0  0  0  0  0  0  0  0  0  0
    6.7980    3.1060   25.0340 H   0  0  0  0  0  0  0  0  0  0  0  0
    5.7370    2.0790   24.0500 H   0  0  0  0  0  0  0  0  0  0  0  0
    7.5960   -0.8130   24.9980 H   0  0  0  0  0  0  0  0  0  0  0  0
    6.1920   -0.2380   24.1020 H   0  0  0  0  0  0  0  0  0  0  0  0
    7.4800    0.3510   21.7110 C   0  0  0  0  0  0  0  0  0  0  0  0
    7.6650    1.5390   21.5360 O   0  0  0  0  0  0  0  0  0  0  0  0
    6.8050   -0.4700   20.8520 N   0  0  0  0  0  0  0  0  0  0  0  0
    6.0830    0.0630   19.7760 C   0  0  0  0  0  0  0  0  0  0  0  0
    6.4280   -0.2520   18.4880 C   0  0  0  0  0  0  0  0  0  0  0  0
    5.7730    0.2100   17.4000 N   0  0  0  0  0  0  0  0  0  0  0  0
    4.7490    1.0030   17.6090 C   0  0  0  0  0  0  0  0  0  0  0  0
    4.2890    1.3910   18.8990 C   0  0  0  0  0  0  0  0  0  0  0  0
    3.1680    2.2400   19.0680 C   0  0  0  0  0  0  0  0  0  0  0  0
    2.7370    2.5880   20.3170 C   0  0  0  0  0  0  0  0  0  0  0  0
    3.4000    2.0940   21.4630 C   0  0  0  0  0  0  0  0  0  0  0  0
    4.4860    1.2710   21.3280 C   0  0  0  0  0  0  0  0  0  0  0  0
    4.9670    0.9120   20.0320 C   0  0  0  0  0  0  0  0  0  0  0  0
    4.9930    0.8940   22.2120 H   0  0  0  0  0  0  0  0  0  0  0  0
    3.0440    2.3750   22.4510 H   0  0  0  0  0  0  0  0  0  0  0  0
    1.8820    3.2470   20.4310 H   0  0  0  0  0  0  0  0  0  0  0  0
    2.6780    2.6120   18.1740 H   0  0  0  0  0  0  0  0  0  0  0  0
    4.2210    1.3750   16.7320 H   0  0  0  0  0  0  0  0  0  0  0  0
    7.2870   -0.8970   18.3030 H   0  0  0  0  0  0  0  0  0  0  0  0
    6.6680   -1.8340   21.3080 C   0  0  0  0  0  0  0  0  0  0  0  0
    7.7460   -1.9320   22.3900 C   0  0  2  0  0  0  0  0  0  0  0  0
    7.5370   -3.0080   23.4420 C   0  0  0  0  0  0  0  0  0  0  0  0
    7.5340   -4.3100   22.8080 N   0  0  0  0  0  0  0  0  0  0  0  0
    7.1230   -5.4210   23.4600 C   0  0  0  0  0  0  0  0  0  0  0  0
    7.2500   -6.7020   22.8840 C   0  0  0  0  0  0  0  0  0  0  0  0
    6.7720   -7.7530   23.6340 C   0  0  0  0  0  0  0  0  0  0  0  0
    6.2080   -7.6060   24.8460 N   0  0  0  0  0  0  0  0  0  0  0  0
    6.1360   -6.3580   25.2750 C   0  0  0  0  0  0  0  0  0  0  0  0
    6.5700   -5.2520   24.6700 N   0  0  0  0  0  0  0  0  0  0  0  0
    5.6510   -6.2070   26.2420 H   0  0  0  0  0  0  0  0  0  0  0  0
    6.8160   -8.7680   23.2430 H   0  0  0  0  0  0  0  0  0  0  0  0
    7.6890   -6.8500   21.8990 H   0  0  0  0  0  0  0  0  0  0  0  0
    7.8810   -4.3990   21.8660 H   0  0  0  0  0  0  0  0  0  0  0  0
    6.5900   -2.8810   23.9750 H   0  0  0  0  0  0  0  0  0  0  0  0
    8.3400   -2.9530   24.1940 H   0  0  0  0  0  0  0  0  0  0  0  0
    8.6600   -2.2270   21.8740 H   0  0  0  0  0  0  0  0  0  0  0  0
    6.8330   -2.5060   20.4670 H   0  0  0  0  0  0  0  0  0  0  0  0
    5.6610   -2.0240   21.7020 H   0  0  0  0  0  0  0  0  0  0  0  0
   10.0110   -1.2170   21.2320 H   0  0  0  0  0  0  0  0  0  0  0  0
   13.2240    0.6130   23.3220 H   0  0  0  0  0  0  0  0  0  0  0  0
   11.5610    1.8290   24.7660 H   0  0  0  0  0  0  0  0  0  0  0  0
  1  2  2  0  0  0  0
  2  3  1  0  0  0  0
  2 12  1  0  0  0  0
  3  4  2  0  0  0  0
  3  9  1  0  0  0  0
  4  5  1  0  0  0  0
  4 67  1  0  0  0  0
  5  6  2  0  0  0  0
  5 66  1  0  0  0  0
  6  7  1  0  0  0  0
  6  8  1  0  0  0  0
  8  9  2  0  0  0  0
  8 65  1  0  0  0  0
 10  9  1  1  0  0  0
 10 11  1  0  0  0  0
 10 27  1  0  0  0  0
 10 47  1  0  0  0  0
 11 12  1  0  0  0  0
 11 25  1  0  0  0  0
 11 26  1  0  0  0  0
 12 13  1  0  0  0  0
 13 14  1  0  0  0  0
 13 23  1  0  0  0  0
 13 24  1  0  0  0  0
 14 15  2  0  0  0  0
 14 19  1  0  0  0  0
 15 16  1  0  0  0  0
 15 22  1  0  0  0  0
 16 17  2  0  0  0  0
 16 21  1  0  0  0  0
 17 18  1  0  0  0  0
 18 19  2  0  0  0  0
 19 20  1  0  0  0  0
 27 28  2  0  0  0  0
 27 29  1  0  0  0  0
 29 30  1  0  0  0  0
 29 46  1  0  0  0  0
 30 31  2  0  0  0  0
 30 39  1  0  0  0  0
 31 32  1  0  0  0  0
 31 45  1  0  0  0  0
 32 33  2  0  0  0  0
 33 34  1  0  0  0  0
 33 44  1  0  0  0  0
 34 35  2  0  0  0  0
 34 39  1  0  0  0  0
 35 36  1  0  0  0  0
 35 43  1  0  0  0  0
 36 37  2  0  0  0  0
 36 42  1  0  0  0  0
 37 38  1  0  0  0  0
 37 41  1  0  0  0  0
 38 39  2  0  0  0  0
 38 40  1  0  0  0  0
 46 47  1  0  0  0  0
 46 63  1  0  0  0  0
 46 64  1  0  0  0  0
 47 48  1  0  0  0  0
 47 62  1  6  0  0  0
 48 49  1  0  0  0  0
 48 60  1  0  0  0  0
 48 61  1  0  0  0  0
 49 50  1  0  0  0  0
 49 59  1  0  0  0  0
 50 51  2  0  0  0  0
 50 55  1  0  0  0  0
 51 52  1  0  0  0  0
 51 58  1  0  0  0  0
 52 53  2  0  0  0  0
 52 57  1  0  0  0  0
 53 54  1  0  0  0  0
 54 55  2  0  0  0  0
 54 56  1  0  0  0  0
M  END
>  <MODEL>
       1

$$$$
