output/tmp_first_model_16_19.pdb
 OpenBabel07232602073D

 67 71  0  0  1  0  0  0  0  0999 V2000
    9.2490    3.1440   25.3680 O   0  0  0  0  0  0  0  0  0  0  0  0
    8.4170    2.7540   24.5630 C   0  0  0  0  0  0  0  0  0  0  0  0
    7.5350    1.5270   24.8140 C   0  0  0  0  0  0  0  0  0  0  0  0
    7.8320    0.4160   23.8620 N   0  3  1  0  0  0  0  0  0  0  0  0
    9.3040    0.0320   23.9100 C   0  0  0  0  0  0  0  0  0  0  0  0
    9.6140   -1.0440   22.9020 C   0  0  0  0  0  0  0  0  0  0  0  0
   10.8890   -1.1590   22.3450 C   0  0  0  0  0  0  0  0  0  0  0  0
   11.1710   -2.1310   21.3940 C   0  0  0  0  0  0  0  0  0  0  0  0
   10.1670   -3.0170   21.0160 C   0  0  0  0  0  0  0  0  0  0  0  0
   10.5220   -4.2360   19.8000 Cl  0  0  0  0  0  0  0  0  0  0  0  0
    8.9130   -2.9590   21.6080 C   0  0  0  0  0  0  0  0  0  0  0  0
    8.6210   -1.9460   22.5240 C   0  0  0  0  0  0  0  0  0  0  0  0
    7.1810   -1.7800   22.9550 C   0  0  2  0  0  0  0  0  0  0  0  0
    6.3200   -1.2450   21.8070 C   0  0  0  0  0  0  0  0  0  0  0  0
    5.1830   -1.6230   21.6090 O   0  0  0  0  0  0  0  0  0  0  0  0
    6.8940   -0.2140   21.0640 N   0  0  0  0  0  0  0  0  0  0  0  0
    6.1860    0.2500   19.9270 C   0  0  0  0  0  0  0  0  0  0  0  0
    6.5480   -0.1150   18.6530 C   0  0  0  0  0  0  0  0  0  0  0  0
    5.8700    0.2500   17.5380 N   0  0  0  0  0  0  0  0  0  0  0  0
    4.8060    1.0010   17.6900 C   0  0  0  0  0  0  0  0  0  0  0  0
    4.3330    1.4590   18.9500 C   0  0  0  0  0  0  0  0  0  0  0  0
    3.1860    2.2850   19.0740 C   0  0  0  0  0  0  0  0  0  0  0  0
    2.7690    2.7110   20.3070 C   0  0  0  0  0  0  0  0  0  0  0  0
    3.4770    2.3330   21.4700 C   0  0  0  0  0  0  0  0  0  0  0  0
    4.5910    1.5380   21.3760 C   0  0  0  0  0  0  0  0  0  0  0  0
    5.0410    1.0760   20.1090 C   0  0  0  0  0  0  0  0  0  0  0  0
    5.1410    1.2400   22.2670 H   0  0  0  0  0  0  0  0  0  0  0  0
    3.1350    2.6780   22.4410 H   0  0  0  0  0  0  0  0  0  0  0  0
    1.8950    3.3510   20.3980 H   0  0  0  0  0  0  0  0  0  0  0  0
    2.6580    2.5760   18.1700 H   0  0  0  0  0  0  0  0  0  0  0  0
    4.2640    1.2850   16.7870 H   0  0  0  0  0  0  0  0  0  0  0  0
    7.4120   -0.7560   18.4770 H   0  0  0  0  0  0  0  0  0  0  0  0
    7.9040   -0.2400   20.9640 H   0  0  0  0  0  0  0  0  0  0  0  0
    7.0260   -0.8230   24.1420 C   0  0  0  0  0  0  0  0  0  0  0  0
    5.9750   -0.5620   24.2920 H   0  0  0  0  0  0  0  0  0  0  0  0
    7.4030   -1.2790   25.0630 H   0  0  0  0  0  0  0  0  0  0  0  0
    6.7440   -2.7450   23.2120 H   0  0  0  0  0  0  0  0  0  0  0  0
    8.1430   -3.6850   21.3700 H   0  0  0  0  0  0  0  0  0  0  0  0
   12.1640   -2.2150   20.9590 H   0  0  0  0  0  0  0  0  0  0  0  0
   11.6800   -0.4800   22.6540 H   0  0  0  0  0  0  0  0  0  0  0  0
    9.9210    0.9140   23.7340 H   0  0  0  0  0  0  0  0  0  0  0  0
    9.5200   -0.3170   24.9280 H   0  0  0  0  0  0  0  0  0  0  0  0
    7.5900    0.7120   22.8890 H   0  0  0  0  0  0  0  0  0  0  0  0
    7.7160    1.2040   25.8430 H   0  0  0  0  0  0  0  0  0  0  0  0
    6.4800    1.8110   24.7170 H   0  0  0  0  0  0  0  0  0  0  0  0
    8.2090    3.3670   23.3660 N   0  0  0  0  0  0  0  0  0  0  0  0
    9.0380    4.4910   22.9590 C   0  0  0  0  0  0  0  0  0  0  0  0
   10.4480    4.0400   22.5190 C   0  0  0  0  0  0  0  0  0  0  0  0
   11.3580    5.1450   21.9990 C   0  0  0  0  0  0  0  0  0  0  0  0
   11.5210    5.3230   20.7010 C   0  0  0  0  0  0  0  0  0  0  0  0
   12.6210    7.1870   20.9810 C   0  0  0  0  0  0  0  0  0  0  0  0
   12.6120    7.5180   21.1070 C   0  0  0  0  0  0  0  0  0  0  0  0
   13.3150    8.6430   20.5410 C   0  0  0  0  0  0  0  0  0  0  0  0
   12.3910    9.6070   20.9480 F   0  0  0  0  0  0  0  0  0  0  0  0
   13.5810    8.8680   19.2580 F   0  0  0  0  0  0  0  0  0  0  0  0
   14.1660    8.9330   21.1260 H   0  0  0  0  0  0  0  0  0  0  0  0
   12.7750    6.9840   22.5370 C   0  0  0  0  0  0  0  0  0  0  0  0
   12.1190    5.9490   22.9530 C   0  0  0  0  0  0  0  0  0  0  0  0
   12.1200    5.6680   24.0140 H   0  0  0  0  0  0  0  0  0  0  0  0
   13.0430    7.8300   23.1680 H   0  0  0  0  0  0  0  0  0  0  0  0
   12.3840    6.1630   20.5350 H   0  0  0  0  0  0  0  0  0  0  0  0
   11.0670    4.6600   19.9720 H   0  0  0  0  0  0  0  0  0  0  0  0
   10.3120    3.2360   21.7740 H   0  0  0  0  0  0  0  0  0  0  0  0
   10.8820    3.5350   23.3950 H   0  0  0  0  0  0  0  0  0  0  0  0
    8.5030    4.9910   22.1470 H   0  0  0  0  0  0  0  0  0  0  0  0
    9.1080    5.1740   23.8120 H   0  0  0  0  0  0  0  0  0  0  0  0
    7.6010    2.9350   22.6830 H   0  0  0  0  0  0  0  0  0  0  0  0
  1  2  2  0  0  0  0
  2  3  1  0  0  0  0
  2 46  1  0  0  0  0
  3  4  1  0  0  0  0
  3 44  1  0  0  0  0
  3 45  1  0  0  0  0
  4  5  1  0  0  0  0
  4 34  1  0  0  0  0
  4 43  1  6  0  0  0
  5  6  1  0  0  0  0
  5 41  1  0  0  0  0
  5 42  1  0  0  0  0
  6  7  2  0  0  0  0
  6 12  1  0  0  0  0
  7  8  1  0  0  0  0
  7 40  1  0  0  0  0
  8  9  2  0  0  0  0
  8 39  1  0  0  0  0
  9 10  1  0  0  0  0
  9 11  1  0  0  0  0
 11 12  2  0  0  0  0
 11 38  1  0  0  0  0
 12 13  1  0  0  0  0
 13 14  1  0  0  0  0
 13 34  1  0  0  0  0
 13 37  1  1  0  0  0
 14 15  2  0  0  0  0
 14 16  1  0  0  0  0
 16 17  1  0  0  0  0
 16 33  1  0  0  0  0
 17 18  2  0  0  0  0
 17 26  1  0  0  0  0
 18 19  1  0  0  0  0
 18 32  1  0  0  0  0
 19 20  2  0  0  0  0
 20 21  1  0  0  0  0
 20 31  1  0  0  0  0
 21 22  2  0  0  0  0
 21 26  1  0  0  0  0
 22 23  1  0  0  0  0
 22 30  1  0  0  0  0
 23 24  2  0  0  0  0
 23 29  1  0  0  0  0
 24 25  1  0  0  0  0
 24 28  1  0  0  0  0
 25 26  2  0  0  0  0
 25 27  1  0  0  0  0
 34 35  1  0  0  0  0
 34 36  1  0  0  0  0
 46 47  1  0  0  0  0
 46 67  1  0  0  0  0
 47 48  1  0  0  0  0
 47 65  1  0  0  0  0
 47 66  1  0  0  0  0
 48 49  1  0  0  0  0
 48 63  1  0  0  0  0
 48 64  1  0  0  0  0
 49 50  2  0  0  0  0
 49 58  1  0  0  0  0
 50 51  1  0  0  0  0
 50 62  1  0  0  0  0
 51 52  2  0  0  0  0
 51 61  1  0  0  0  0
 52 53  1  0  0  0  0
 52 57  1  0  0  0  0
 53 54  1  0  0  0  0
 53 55  1  0  0  0  0
 53 56  1  0  0  0  0
 57 58  2  0  0  0  0
 57 60  1  0  0  0  0
 58 59  1  0  0  0  0
M  CHG  1   4   1
M  END
>  <MODEL>
       1

$$$$
