output/tmp_first_model_11_50.pdb
 OpenBabel07222623443D

 38 41  0  0  0  0  0  0  0  0999 V2000
    5.1240   -2.0690   21.1650 O   0  0  0  0  0  0  0  0  0  0  0  0
    6.2230   -1.6970   21.5400 C   0  0  0  0  0  0  0  0  0  0  0  0
    6.9210   -0.4980   20.9040 C   0  0  0  0  0  0  0  0  0  0  0  0
    6.1180    0.0790   19.7770 C   0  0  0  0  0  0  0  0  0  0  0  0
    6.4300   -0.2260   18.4790 C   0  0  0  0  0  0  0  0  0  0  0  0
    5.7650    0.2230   17.3840 N   0  0  0  0  0  0  0  0  0  0  0  0
    4.7400    1.0100   17.5940 C   0  0  0  0  0  0  0  0  0  0  0  0
    4.2820    1.3920   18.8830 C   0  0  0  0  0  0  0  0  0  0  0  0
    3.1630    2.2440   19.0540 C   0  0  0  0  0  0  0  0  0  0  0  0
    2.7500    2.6030   20.3080 C   0  0  0  0  0  0  0  0  0  0  0  0
    3.4350    2.1190   21.4450 C   0  0  0  0  0  0  0  0  0  0  0  0
    4.5240    1.2910   21.3040 C   0  0  0  0  0  0  0  0  0  0  0  0
    4.9820    0.9100   20.0130 C   0  0  0  0  0  0  0  0  0  0  0  0
    5.0420    0.9230   22.1830 H   0  0  0  0  0  0  0  0  0  0  0  0
    3.1040    2.4170   22.4360 H   0  0  0  0  0  0  0  0  0  0  0  0
    1.9010    3.2700   20.4320 H   0  0  0  0  0  0  0  0  0  0  0  0
    2.6650    2.6210   18.1630 H   0  0  0  0  0  0  0  0  0  0  0  0
    4.2140    1.3870   16.7150 H   0  0  0  0  0  0  0  0  0  0  0  0
    7.2780   -0.8760   18.2600 H   0  0  0  0  0  0  0  0  0  0  0  0
    7.8970   -0.8350   20.5300 H   0  0  0  0  0  0  0  0  0  0  0  0
    7.1210    0.2550   21.6770 H   0  0  0  0  0  0  0  0  0  0  0  0
    6.8900   -2.3560   22.5400 N   0  0  0  0  0  0  0  0  0  0  0  0
    8.0760   -1.8880   23.2490 C   0  0  0  0  0  0  0  0  0  0  0  0
    9.1070   -3.0170   23.3990 C   0  0  0  0  0  0  0  0  0  0  0  0
    8.3770   -4.2910   23.7620 C   0  0  0  0  0  0  0  0  0  0  0  0
    9.1520   -5.7330   24.2910 S   0  0  0  0  0  0  0  0  0  0  0  0
    7.6710   -6.5790   24.5060 C   0  0  0  0  0  0  0  0  0  0  0  0
    6.6190   -5.7580   24.2390 C   0  0  0  0  0  0  0  0  0  0  0  0
    7.0260   -4.4730   23.7520 C   0  0  0  0  0  0  0  0  0  0  0  0
    6.1360   -3.4520   23.1250 C   0  0  0  0  0  0  0  0  0  0  0  0
    5.3770   -3.0610   23.8190 H   0  0  0  0  0  0  0  0  0  0  0  0
    5.5870   -3.9130   22.2990 H   0  0  0  0  0  0  0  0  0  0  0  0
    5.5820   -6.0420   24.3750 H   0  0  0  0  0  0  0  0  0  0  0  0
    7.6930   -7.5990   24.8890 H   0  0  0  0  0  0  0  0  0  0  0  0
    9.8430   -2.7230   24.1670 H   0  0  0  0  0  0  0  0  0  0  0  0
    9.6600   -3.1610   22.4540 H   0  0  0  0  0  0  0  0  0  0  0  0
    8.5160   -1.0570   22.6960 H   0  0  0  0  0  0  0  0  0  0  0  0
    7.7810   -1.4980   24.2370 H   0  0  0  0  0  0  0  0  0  0  0  0
  1  2  2  0  0  0  0
  2  3  1  0  0  0  0
  2 22  1  0  0  0  0
  3  4  1  0  0  0  0
  3 20  1  0  0  0  0
  3 21  1  0  0  0  0
  4  5  2  0  0  0  0
  4 13  1  0  0  0  0
  5  6  1  0  0  0  0
  5 19  1  0  0  0  0
  6  7  2  0  0  0  0
  7  8  1  0  0  0  0
  7 18  1  0  0  0  0
  8  9  2  0  0  0  0
  8 13  1  0  0  0  0
  9 10  1  0  0  0  0
  9 17  1  0  0  0  0
 10 11  2  0  0  0  0
 10 16  1  0  0  0  0
 11 12  1  0  0  0  0
 11 15  1  0  0  0  0
 12 13  2  0  0  0  0
 12 14  1  0  0  0  0
 22 23  1  0  0  0  0
 22 30  1  0  0  0  0
 23 24  1  0  0  0  0
 23 37  1  0  0  0  0
 23 38  1  0  0  0  0
 24 25  1  0  0  0  0
 24 35  1  0  0  0  0
 24 36  1  0  0  0  0
 25 26  1  0  0  0  0
 25 29  2  0  0  0  0
 26 27  1  0  0  0  0
 27 28  2  0  0  0  0
 27 34  1  0  0  0  0
 28 29  1  0  0  0  0
 28 33  1  0  0  0  0
 29 30  1  0  0  0  0
 30 31  1  0  0  0  0
 30 32  1  0  0  0  0
M  END
>  <MODEL>
       1

$$$$
