output/tmp_first_model_7_71.pdb
 OpenBabel07222621533D

 59 64  0  0  1  0  0  0  0  0999 V2000
    7.5660   -2.9660   23.5200 C   0  0  0  0  0  0  0  0  0  0  0  0
    7.7840   -2.0660   22.3240 C   0  0  1  0  0  0  0  0  0  0  0  0
    6.4780   -1.5560   21.7220 C   0  0  0  0  0  0  0  0  0  0  0  0
    6.8630   -0.3450   21.0190 N   0  0  0  0  0  0  0  0  0  0  0  0
    6.0880    0.1210   19.9240 C   0  0  0  0  0  0  0  0  0  0  0  0
    6.5770    0.0960   18.6410 C   0  0  0  0  0  0  0  0  0  0  0  0
    5.8710    0.4800   17.5470 N   0  0  0  0  0  0  0  0  0  0  0  0
    4.6580    0.9380   17.7230 C   0  0  0  0  0  0  0  0  0  0  0  0
    4.0110    1.0020   18.9880 C   0  0  0  0  0  0  0  0  0  0  0  0
    2.7040    1.5410   19.1330 C   0  0  0  0  0  0  0  0  0  0  0  0
    2.0980    1.5750   20.3600 C   0  0  0  0  0  0  0  0  0  0  0  0
    2.7820    1.0680   21.4900 C   0  0  0  0  0  0  0  0  0  0  0  0
    4.0600    0.5760   21.3780 C   0  0  0  0  0  0  0  0  0  0  0  0
    4.7220    0.5370   20.1200 C   0  0  0  0  0  0  0  0  0  0  0  0
    4.6040    0.2740   22.2640 H   0  0  0  0  0  0  0  0  0  0  0  0
    2.2980    1.0950   22.4620 H   0  0  0  0  0  0  0  0  0  0  0  0
    1.1080    2.0060   20.4740 H   0  0  0  0  0  0  0  0  0  0  0  0
    2.2320    1.9660   18.2500 H   0  0  0  0  0  0  0  0  0  0  0  0
    4.1140    1.2640   16.8340 H   0  0  0  0  0  0  0  0  0  0  0  0
    7.5830   -0.2680   18.4420 H   0  0  0  0  0  0  0  0  0  0  0  0
    8.1840    0.0140   21.2670 C   0  0  0  0  0  0  0  0  0  0  0  0
    8.7980    0.8450   20.6300 O   0  0  0  0  0  0  0  0  0  0  0  0
    8.6750   -0.7900   22.5120 C   0  0  1  0  0  0  0  0  0  0  0  0
    8.4160    0.0760   23.7630 C   0  0  0  0  0  0  0  0  0  0  0  0
    9.1050   -0.4100   24.9610 N   0  0  0  0  0  0  0  0  0  0  0  0
    8.5220   -0.1200   26.2620 C   0  0  0  0  0  0  0  0  0  0  0  0
    7.3880   -1.0160   26.6760 C   0  0  0  0  0  0  0  0  0  0  0  0
    6.2290   -0.5020   27.0260 N   0  0  0  0  0  0  0  0  0  0  0  0
    5.4110   -1.5670   27.2920 C   0  0  0  0  0  0  0  0  0  0  0  0
    6.0950   -2.7330   27.1140 C   0  0  0  0  0  0  0  0  0  0  0  0
    7.3780   -2.3860   26.7350 N   0  0  0  0  0  0  0  0  0  0  0  0
    8.4400   -3.3590   26.5060 C   0  0  0  0  0  0  0  0  0  0  0  0
    8.0600   -4.1610   25.8630 H   0  0  0  0  0  0  0  0  0  0  0  0
    9.3110   -2.8930   26.0360 H   0  0  0  0  0  0  0  0  0  0  0  0
    8.7520   -3.8330   27.4390 H   0  0  0  0  0  0  0  0  0  0  0  0
    5.7850   -3.7620   27.2080 H   0  0  0  0  0  0  0  0  0  0  0  0
    4.3730   -1.4160   27.5720 H   0  0  0  0  0  0  0  0  0  0  0  0
    8.0850    0.8860   26.2660 H   0  0  0  0  0  0  0  0  0  0  0  0
    9.3470   -0.1450   26.9850 H   0  0  0  0  0  0  0  0  0  0  0  0
   10.4600   -0.6430   24.9200 C   0  0  0  0  0  0  0  0  0  0  0  0
   11.1940   -0.5160   25.8920 O   0  0  0  0  0  0  0  0  0  0  0  0
   10.9640   -1.1470   23.6170 C   0  0  0  0  0  0  0  0  0  0  0  0
   12.2440   -1.7000   23.5700 C   0  0  0  0  0  0  0  0  0  0  0  0
   12.7300   -2.2420   22.3960 C   0  0  0  0  0  0  0  0  0  0  0  0
   11.9290   -2.1850   21.2620 C   0  0  0  0  0  0  0  0  0  0  0  0
   12.4220   -2.7060   20.1260 F   0  0  0  0  0  0  0  0  0  0  0  0
   10.6560   -1.6530   21.3010 C   0  0  0  0  0  0  0  0  0  0  0  0
   10.1410   -1.1500   22.4910 C   0  0  0  0  0  0  0  0  0  0  0  0
    9.9870   -1.6130   20.4580 H   0  0  0  0  0  0  0  0  0  0  0  0
   13.7000   -2.7180   22.3180 H   0  0  0  0  0  0  0  0  0  0  0  0
   12.8360   -1.7050   24.4780 H   0  0  0  0  0  0  0  0  0  0  0  0
    7.3500    0.1220   23.9860 H   0  0  0  0  0  0  0  0  0  0  0  0
    8.7420    1.0950   23.5110 H   0  0  0  0  0  0  0  0  0  0  0  0
    5.7500   -1.3620   22.5190 H   0  0  0  0  0  0  0  0  0  0  0  0
    6.0330   -2.2620   21.0140 H   0  0  0  0  0  0  0  0  0  0  0  0
    8.3030   -2.6440   21.5470 H   0  0  0  0  0  0  0  0  0  0  0  0
    8.5220   -3.3570   23.8790 H   0  0  0  0  0  0  0  0  0  0  0  0
    7.0650   -2.4280   24.3300 H   0  0  0  0  0  0  0  0  0  0  0  0
    6.9380   -3.8230   23.2470 H   0  0  0  0  0  0  0  0  0  0  0  0
  1  2  1  0  0  0  0
  1 57  1  0  0  0  0
  1 58  1  0  0  0  0
  1 59  1  0  0  0  0
  2  3  1  0  0  0  0
  2 23  1  0  0  0  0
  2 56  1  6  0  0  0
  3  4  1  0  0  0  0
  3 54  1  0  0  0  0
  3 55  1  0  0  0  0
  4  5  1  0  0  0  0
  4 21  1  0  0  0  0
  5  6  2  0  0  0  0
  5 14  1  0  0  0  0
  6  7  1  0  0  0  0
  6 20  1  0  0  0  0
  7  8  2  0  0  0  0
  8  9  1  0  0  0  0
  8 19  1  0  0  0  0
  9 10  2  0  0  0  0
  9 14  1  0  0  0  0
 10 11  1  0  0  0  0
 10 18  1  0  0  0  0
 11 12  2  0  0  0  0
 11 17  1  0  0  0  0
 12 13  1  0  0  0  0
 12 16  1  0  0  0  0
 13 14  2  0  0  0  0
 13 15  1  0  0  0  0
 21 22  2  0  0  0  0
 23 21  1  6  0  0  0
 23 24  1  0  0  0  0
 23 48  1  0  0  0  0
 24 25  1  0  0  0  0
 24 52  1  0  0  0  0
 24 53  1  0  0  0  0
 25 26  1  0  0  0  0
 25 40  1  0  0  0  0
 26 27  1  0  0  0  0
 26 38  1  0  0  0  0
 26 39  1  0  0  0  0
 27 28  2  0  0  0  0
 27 31  1  0  0  0  0
 28 29  1  0  0  0  0
 29 30  2  0  0  0  0
 29 37  1  0  0  0  0
 30 31  1  0  0  0  0
 30 36  1  0  0  0  0
 31 32  1  0  0  0  0
 32 33  1  0  0  0  0
 32 34  1  0  0  0  0
 32 35  1  0  0  0  0
 40 41  2  0  0  0  0
 40 42  1  0  0  0  0
 42 43  2  0  0  0  0
 42 48  1  0  0  0  0
 43 44  1  0  0  0  0
 43 51  1  0  0  0  0
 44 45  2  0  0  0  0
 44 50  1  0  0  0  0
 45 46  1  0  0  0  0
 45 47  1  0  0  0  0
 47 48  2  0  0  0  0
 47 49  1  0  0  0  0
M  END
>  <MODEL>
       1

$$$$
