output/tmp_first_model_13_84.pdb
 OpenBabel07232600343D

 60 65  0  0  1  0  0  0  0  0999 V2000
    2.1860   -5.6990   22.6340 C   0  0  0  0  0  0  0  0  0  0  0  0
    3.4560   -5.0600   22.3970 N   0  0  0  0  0  0  0  0  0  0  0  0
    4.4840   -5.8330   21.9820 C   0  0  0  0  0  0  0  0  0  0  0  0
    4.3720   -7.0320   21.7840 O   0  0  0  0  0  0  0  0  0  0  0  0
    5.7310   -5.0630   21.6180 C   0  0  0  0  0  0  0  0  0  0  0  0
    6.4250   -4.2900   22.6010 N   0  0  0  0  0  0  0  0  0  0  0  0
    7.5220   -3.4190   22.2310 C   0  0  0  0  0  0  0  0  0  0  0  0
    7.2400   -1.9680   22.6660 C   0  0  2  0  0  0  0  0  0  0  0  0
    6.1630   -1.4010   21.7120 C   0  0  0  0  0  0  0  0  0  0  0  0
    4.9860   -1.7150   21.6720 O   0  0  0  0  0  0  0  0  0  0  0  0
    6.7550   -0.5300   20.8220 N   0  0  0  0  0  0  0  0  0  0  0  0
    6.0630    0.0480   19.7460 C   0  0  0  0  0  0  0  0  0  0  0  0
    6.4540   -0.1940   18.4510 C   0  0  0  0  0  0  0  0  0  0  0  0
    5.8110    0.2800   17.3590 N   0  0  0  0  0  0  0  0  0  0  0  0
    4.7610    1.0390   17.5630 C   0  0  0  0  0  0  0  0  0  0  0  0
    4.2850    1.4060   18.8550 C   0  0  0  0  0  0  0  0  0  0  0  0
    3.1620    2.2590   19.0230 C   0  0  0  0  0  0  0  0  0  0  0  0
    2.7700    2.6510   20.2720 C   0  0  0  0  0  0  0  0  0  0  0  0
    3.4740    2.2060   21.4150 C   0  0  0  0  0  0  0  0  0  0  0  0
    4.5460    1.3580   21.2820 C   0  0  0  0  0  0  0  0  0  0  0  0
    4.9620    0.9230   19.9900 C   0  0  0  0  0  0  0  0  0  0  0  0
    5.0770    1.0020   22.1590 H   0  0  0  0  0  0  0  0  0  0  0  0
    3.1620    2.5340   22.4030 H   0  0  0  0  0  0  0  0  0  0  0  0
    1.9200    3.3200   20.3950 H   0  0  0  0  0  0  0  0  0  0  0  0
    2.6500    2.6070   18.1300 H   0  0  0  0  0  0  0  0  0  0  0  0
    4.2380    1.4200   16.6850 H   0  0  0  0  0  0  0  0  0  0  0  0
    7.3140   -0.8310   18.2490 H   0  0  0  0  0  0  0  0  0  0  0  0
    8.1980   -0.4970   20.9190 C   0  0  0  0  0  0  0  0  0  0  0  0
    8.4590   -1.0530   22.3310 C   0  0  2  0  0  0  0  0  0  0  0  0
    9.8160   -1.7310   22.4510 C   0  0  0  0  0  0  0  0  0  0  0  0
    9.9210   -2.2340   23.4180 H   0  0  0  0  0  0  0  0  0  0  0  0
   10.6390   -1.0240   22.3380 H   0  0  0  0  0  0  0  0  0  0  0  0
    9.9360   -2.4930   21.6720 H   0  0  0  0  0  0  0  0  0  0  0  0
    8.4190   -0.2020   23.0130 H   0  0  0  0  0  0  0  0  0  0  0  0
    8.5540    0.5290   20.7850 H   0  0  0  0  0  0  0  0  0  0  0  0
    8.6720   -1.1150   20.1430 H   0  0  0  0  0  0  0  0  0  0  0  0
    6.8150   -2.0040   24.1320 C   0  0  0  0  0  0  0  0  0  0  0  0
    6.8240   -0.8390   24.9120 C   0  0  0  0  0  0  0  0  0  0  0  0
    6.4180   -0.8860   26.2340 C   0  0  0  0  0  0  0  0  0  0  0  0
    6.3820    0.5940   27.1490 Cl  0  0  0  0  0  0  0  0  0  0  0  0
    6.0510   -2.0820   26.8520 C   0  0  0  0  0  0  0  0  0  0  0  0
    6.0480   -3.2370   26.0960 C   0  0  0  0  0  0  0  0  0  0  0  0
    6.3770   -3.1970   24.7410 C   0  0  0  0  0  0  0  0  0  0  0  0
    6.1620   -4.4410   23.9450 C   0  0  0  0  0  0  0  0  0  0  0  0
    5.7060   -5.4730   24.4030 O   0  0  0  0  0  0  0  0  0  0  0  0
    5.7790   -4.1930   26.5360 H   0  0  0  0  0  0  0  0  0  0  0  0
    5.7520   -2.0860   27.8930 H   0  0  0  0  0  0  0  0  0  0  0  0
    7.1420    0.1100   24.4920 H   0  0  0  0  0  0  0  0  0  0  0  0
    8.4520   -3.7720   22.6920 H   0  0  0  0  0  0  0  0  0  0  0  0
    7.6520   -3.4290   21.1560 H   0  0  0  0  0  0  0  0  0  0  0  0
    6.5740   -5.6410   20.5390 C   0  0  0  0  0  0  0  0  0  0  0  0
    5.6440   -4.5100   20.2160 C   0  0  0  0  0  0  0  0  0  0  0  0
    6.0400   -3.5020   20.1050 H   0  0  0  0  0  0  0  0  0  0  0  0
    4.7570   -4.7510   19.6400 H   0  0  0  0  0  0  0  0  0  0  0  0
    7.6290   -5.3760   20.5920 H   0  0  0  0  0  0  0  0  0  0  0  0
    6.3190   -6.6320   20.1690 H   0  0  0  0  0  0  0  0  0  0  0  0
    3.5960   -4.0620   22.5240 H   0  0  0  0  0  0  0  0  0  0  0  0
    2.2170   -6.2840   23.5570 H   0  0  0  0  0  0  0  0  0  0  0  0
    1.9860   -6.4030   21.8240 H   0  0  0  0  0  0  0  0  0  0  0  0
    1.3890   -4.9560   22.6770 H   0  0  0  0  0  0  0  0  0  0  0  0
  1  2  1  0  0  0  0
  1 58  1  0  0  0  0
  1 59  1  0  0  0  0
  1 60  1  0  0  0  0
  2  3  1  0  0  0  0
  2 57  1  0  0  0  0
  3  4  2  0  0  0  0
  3  5  1  0  0  0  0
  5  6  1  0  0  0  0
  5 51  1  0  0  0  0
  5 52  1  0  0  0  0
  6  7  1  0  0  0  0
  6 44  1  0  0  0  0
  7  8  1  0  0  0  0
  7 49  1  0  0  0  0
  7 50  1  0  0  0  0
  8  9  1  6  0  0  0
  8 29  1  0  0  0  0
  8 37  1  0  0  0  0
  9 10  2  0  0  0  0
  9 11  1  0  0  0  0
 11 12  1  0  0  0  0
 11 28  1  0  0  0  0
 12 13  2  0  0  0  0
 12 21  1  0  0  0  0
 13 14  1  0  0  0  0
 13 27  1  0  0  0  0
 14 15  2  0  0  0  0
 15 16  1  0  0  0  0
 15 26  1  0  0  0  0
 16 17  2  0  0  0  0
 16 21  1  0  0  0  0
 17 18  1  0  0  0  0
 17 25  1  0  0  0  0
 18 19  2  0  0  0  0
 18 24  1  0  0  0  0
 19 20  1  0  0  0  0
 19 23  1  0  0  0  0
 20 21  2  0  0  0  0
 20 22  1  0  0  0  0
 28 29  1  0  0  0  0
 28 35  1  0  0  0  0
 28 36  1  0  0  0  0
 29 30  1  0  0  0  0
 29 34  1  1  0  0  0
 30 31  1  0  0  0  0
 30 32  1  0  0  0  0
 30 33  1  0  0  0  0
 37 38  2  0  0  0  0
 37 43  1  0  0  0  0
 38 39  1  0  0  0  0
 38 48  1  0  0  0  0
 39 40  1  0  0  0  0
 39 41  2  0  0  0  0
 41 42  1  0  0  0  0
 41 47  1  0  0  0  0
 42 43  2  0  0  0  0
 42 46  1  0  0  0  0
 43 44  1  0  0  0  0
 44 45  2  0  0  0  0
 51 52  1  0  0  0  0
 51 55  1  0  0  0  0
 51 56  1  0  0  0  0
 52 53  1  0  0  0  0
 52 54  1  0  0  0  0
M  END
>  <MODEL>
       1

$$$$
