output/tmp_first_model_11_81.pdb
 OpenBabel07222623443D

 58 63  0  0  1  0  0  0  0  0999 V2000
    7.4950   -8.7890   23.9030 C   0  0  0  0  0  0  0  0  0  0  0  0
    7.0600   -7.8080   22.8670 C   0  0  0  0  0  0  0  0  0  0  0  0
    6.0130   -7.0520   22.8990 N   0  0  0  0  0  0  0  0  0  0  0  0
    6.1940   -6.1330   21.8650 C   0  0  0  0  0  0  0  0  0  0  0  0
    5.4410   -4.8250   21.9200 C   0  0  0  0  0  0  0  0  0  0  0  0
    6.0600   -3.9220   22.8870 N   0  0  0  0  0  0  0  0  0  0  0  0
    7.3190   -3.2800   22.5410 C   0  0  0  0  0  0  0  0  0  0  0  0
    7.2100   -1.7610   22.7980 C   0  0  2  0  0  0  0  0  0  0  0  0
    6.1770   -1.2480   21.7690 C   0  0  0  0  0  0  0  0  0  0  0  0
    5.0130   -1.5840   21.6840 O   0  0  0  0  0  0  0  0  0  0  0  0
    6.8040   -0.3970   20.8800 N   0  0  0  0  0  0  0  0  0  0  0  0
    6.1050    0.1390   19.7800 C   0  0  0  0  0  0  0  0  0  0  0  0
    6.4780   -0.1410   18.4890 C   0  0  0  0  0  0  0  0  0  0  0  0
    5.8000    0.2730   17.3920 N   0  0  0  0  0  0  0  0  0  0  0  0
    4.7320    1.0110   17.5790 C   0  0  0  0  0  0  0  0  0  0  0  0
    4.2600    1.4120   18.8610 C   0  0  0  0  0  0  0  0  0  0  0  0
    3.1140    2.2360   19.0200 C   0  0  0  0  0  0  0  0  0  0  0  0
    2.7090    2.6270   20.2660 C   0  0  0  0  0  0  0  0  0  0  0  0
    3.4250    2.2130   21.4110 C   0  0  0  0  0  0  0  0  0  0  0  0
    4.5320    1.4150   21.2850 C   0  0  0  0  0  0  0  0  0  0  0  0
    4.9680    0.9800   20.0010 C   0  0  0  0  0  0  0  0  0  0  0  0
    5.0750    1.1010   22.1700 H   0  0  0  0  0  0  0  0  0  0  0  0
    3.0960    2.5300   22.3960 H   0  0  0  0  0  0  0  0  0  0  0  0
    1.8450    3.2750   20.3830 H   0  0  0  0  0  0  0  0  0  0  0  0
    2.5860    2.5720   18.1310 H   0  0  0  0  0  0  0  0  0  0  0  0
    4.1840    1.3290   16.6910 H   0  0  0  0  0  0  0  0  0  0  0  0
    7.3550   -0.7600   18.3010 H   0  0  0  0  0  0  0  0  0  0  0  0
    8.2520   -0.4600   20.9820 C   0  0  0  0  0  0  0  0  0  0  0  0
    8.4930   -0.9570   22.4160 C   0  0  2  0  0  0  0  0  0  0  0  0
    9.8600   -1.6280   22.5550 C   0  0  0  0  0  0  0  0  0  0  0  0
   10.0600   -1.9880   23.5710 H   0  0  0  0  0  0  0  0  0  0  0  0
   10.6510   -0.9120   22.2950 H   0  0  0  0  0  0  0  0  0  0  0  0
    9.9580   -2.4800   21.8720 H   0  0  0  0  0  0  0  0  0  0  0  0
    8.4940   -0.0720   23.0520 H   0  0  0  0  0  0  0  0  0  0  0  0
    8.6830   -1.1600   20.2510 H   0  0  0  0  0  0  0  0  0  0  0  0
    8.6960    0.5260   20.8170 H   0  0  0  0  0  0  0  0  0  0  0  0
    6.7410   -1.5820   24.2410 C   0  0  0  0  0  0  0  0  0  0  0  0
    6.9350   -0.3860   24.9490 C   0  0  0  0  0  0  0  0  0  0  0  0
    6.6060   -0.3220   26.2880 C   0  0  0  0  0  0  0  0  0  0  0  0
    6.7990    0.8320   26.9540 F   0  0  0  0  0  0  0  0  0  0  0  0
    6.0970   -1.4080   26.9910 C   0  0  0  0  0  0  0  0  0  0  0  0
    5.8220   -2.5610   26.2820 C   0  0  0  0  0  0  0  0  0  0  0  0
    6.0810   -2.6240   24.9130 C   0  0  0  0  0  0  0  0  0  0  0  0
    5.5580   -3.8060   24.1570 C   0  0  0  0  0  0  0  0  0  0  0  0
    4.7280   -4.5670   24.6350 O   0  0  0  0  0  0  0  0  0  0  0  0
    5.3990   -3.4430   26.7550 H   0  0  0  0  0  0  0  0  0  0  0  0
    5.9310   -1.3320   28.0580 H   0  0  0  0  0  0  0  0  0  0  0  0
    7.3650    0.5000   24.4960 H   0  0  0  0  0  0  0  0  0  0  0  0
    8.1340   -3.6930   23.1500 H   0  0  0  0  0  0  0  0  0  0  0  0
    7.5490   -3.4790   21.4910 H   0  0  0  0  0  0  0  0  0  0  0  0
    5.3980   -4.2910   20.9620 H   0  0  0  0  0  0  0  0  0  0  0  0
    4.4120   -4.9780   22.2540 H   0  0  0  0  0  0  0  0  0  0  0  0
    7.3290   -6.4590   21.2160 C   0  0  0  0  0  0  0  0  0  0  0  0
    7.8990   -7.5320   21.8470 O   0  0  0  0  0  0  0  0  0  0  0  0
    7.8940   -6.0440   20.3960 H   0  0  0  0  0  0  0  0  0  0  0  0
    8.4690   -9.2110   23.6530 H   0  0  0  0  0  0  0  0  0  0  0  0
    7.5460   -8.2890   24.8730 H   0  0  0  0  0  0  0  0  0  0  0  0
    6.7630   -9.5830   23.9980 H   0  0  0  0  0  0  0  0  0  0  0  0
  1  2  1  0  0  0  0
  1 56  1  0  0  0  0
  1 57  1  0  0  0  0
  1 58  1  0  0  0  0
  2  3  2  0  0  0  0
  2 54  1  0  0  0  0
  3  4  1  0  0  0  0
  4  5  1  0  0  0  0
  4 53  2  0  0  0  0
  5  6  1  0  0  0  0
  5 51  1  0  0  0  0
  5 52  1  0  0  0  0
  6  7  1  0  0  0  0
  6 44  1  0  0  0  0
  7  8  1  0  0  0  0
  7 49  1  0  0  0  0
  7 50  1  0  0  0  0
  8  9  1  6  0  0  0
  8 29  1  0  0  0  0
  8 37  1  0  0  0  0
  9 10  2  0  0  0  0
  9 11  1  0  0  0  0
 11 12  1  0  0  0  0
 11 28  1  0  0  0  0
 12 13  2  0  0  0  0
 12 21  1  0  0  0  0
 13 14  1  0  0  0  0
 13 27  1  0  0  0  0
 14 15  2  0  0  0  0
 15 16  1  0  0  0  0
 15 26  1  0  0  0  0
 16 17  2  0  0  0  0
 16 21  1  0  0  0  0
 17 18  1  0  0  0  0
 17 25  1  0  0  0  0
 18 19  2  0  0  0  0
 18 24  1  0  0  0  0
 19 20  1  0  0  0  0
 19 23  1  0  0  0  0
 20 21  2  0  0  0  0
 20 22  1  0  0  0  0
 28 29  1  0  0  0  0
 28 35  1  0  0  0  0
 28 36  1  0  0  0  0
 29 30  1  0  0  0  0
 29 34  1  1  0  0  0
 30 31  1  0  0  0  0
 30 32  1  0  0  0  0
 30 33  1  0  0  0  0
 37 38  2  0  0  0  0
 37 43  1  0  0  0  0
 38 39  1  0  0  0  0
 38 48  1  0  0  0  0
 39 40  1  0  0  0  0
 39 41  2  0  0  0  0
 41 42  1  0  0  0  0
 41 47  1  0  0  0  0
 42 43  2  0  0  0  0
 42 46  1  0  0  0  0
 43 44  1  0  0  0  0
 44 45  2  0  0  0  0
 53 54  1  0  0  0  0
 53 55  1  0  0  0  0
M  END
>  <MODEL>
       1

$$$$
