output/tmp_first_model_15_31.pdb
 OpenBabel07232601353D

 64 70  0  0  1  0  0  0  0  0999 V2000
    9.2790    2.4190   25.6910 O   0  0  0  0  0  0  0  0  0  0  0  0
    8.9640    1.5270   24.9090 C   0  0  0  0  0  0  0  0  0  0  0  0
    9.9840    0.7850   24.1190 C   0  0  0  0  0  0  0  0  0  0  0  0
   11.3050    1.1240   24.3670 C   0  0  0  0  0  0  0  0  0  0  0  0
   12.2940    0.7230   23.5080 C   0  0  0  0  0  0  0  0  0  0  0  0
   11.9400   -0.0170   22.3860 C   0  0  0  0  0  0  0  0  0  0  0  0
   13.1970   -0.2200   21.2110 Cl  0  0  0  0  0  0  0  0  0  0  0  0
   10.6500   -0.4780   22.1830 C   0  0  0  0  0  0  0  0  0  0  0  0
    9.6380   -0.0820   23.0780 C   0  0  0  0  0  0  0  0  0  0  0  0
    8.1890   -0.4310   22.8200 C   0  0  1  0  0  0  0  0  0  0  0  0
    7.3670   -0.1330   24.1100 C   0  0  0  0  0  0  0  0  0  0  0  0
    7.6670    1.1810   24.6560 N   0  0  0  0  0  0  0  0  0  0  0  0
    6.6530    2.1180   25.0730 C   0  0  0  0  0  0  0  0  0  0  0  0
    6.4290    3.2140   24.0700 C   0  0  0  0  0  0  0  0  0  0  0  0
    5.3100    3.8060   23.8060 N   0  0  0  0  0  0  0  0  0  0  0  0
    5.5990    4.7850   22.8570 N   0  0  0  0  0  0  0  0  0  0  0  0
    6.8630    4.6960   22.6360 C   0  0  0  0  0  0  0  0  0  0  0  0
    7.4590    3.7310   23.3710 O   0  0  0  0  0  0  0  0  0  0  0  0
    7.4710    5.2960   21.9720 H   0  0  0  0  0  0  0  0  0  0  0  0
    6.9790    2.5730   26.0160 H   0  0  0  0  0  0  0  0  0  0  0  0
    5.6960    1.6210   25.2480 H   0  0  0  0  0  0  0  0  0  0  0  0
    6.2900   -0.1980   23.9070 H   0  0  0  0  0  0  0  0  0  0  0  0
    7.6180   -0.8880   24.8680 H   0  0  0  0  0  0  0  0  0  0  0  0
    7.6690    0.4100   21.6310 C   0  0  0  0  0  0  0  0  0  0  0  0
    7.8900    1.5750   21.3950 O   0  0  0  0  0  0  0  0  0  0  0  0
    6.8750   -0.4040   20.8520 N   0  0  0  0  0  0  0  0  0  0  0  0
    6.1120    0.0990   19.7770 C   0  0  0  0  0  0  0  0  0  0  0  0
    6.4340   -0.2400   18.4870 C   0  0  0  0  0  0  0  0  0  0  0  0
    5.7720    0.2090   17.3950 N   0  0  0  0  0  0  0  0  0  0  0  0
    4.7520    1.0050   17.5980 C   0  0  0  0  0  0  0  0  0  0  0  0
    4.2910    1.4000   18.8860 C   0  0  0  0  0  0  0  0  0  0  0  0
    3.1590    2.2390   19.0480 C   0  0  0  0  0  0  0  0  0  0  0  0
    2.7190    2.5800   20.2930 C   0  0  0  0  0  0  0  0  0  0  0  0
    3.3920    2.1000   21.4410 C   0  0  0  0  0  0  0  0  0  0  0  0
    4.4990    1.3000   21.3150 C   0  0  0  0  0  0  0  0  0  0  0  0
    4.9780    0.9320   20.0250 C   0  0  0  0  0  0  0  0  0  0  0  0
    5.0080    0.9290   22.2020 H   0  0  0  0  0  0  0  0  0  0  0  0
    3.0340    2.3730   22.4280 H   0  0  0  0  0  0  0  0  0  0  0  0
    1.8510    3.2230   20.4090 H   0  0  0  0  0  0  0  0  0  0  0  0
    2.6660    2.6070   18.1520 H   0  0  0  0  0  0  0  0  0  0  0  0
    4.2300    1.3730   16.7170 H   0  0  0  0  0  0  0  0  0  0  0  0
    7.2870   -0.8930   18.3000 H   0  0  0  0  0  0  0  0  0  0  0  0
    6.7550   -1.7620   21.3320 C   0  0  0  0  0  0  0  0  0  0  0  0
    7.9410   -1.8730   22.2970 C   0  0  2  0  0  0  0  0  0  0  0  0
    7.8010   -2.9490   23.3840 C   0  0  0  0  0  0  0  0  0  0  0  0
    7.8560   -4.3090   22.8940 N   0  0  0  0  0  0  0  0  0  0  0  0
    6.8100   -4.9780   22.3430 C   0  0  0  0  0  0  0  0  0  0  0  0
    5.4600   -4.6410   22.5890 C   0  0  0  0  0  0  0  0  0  0  0  0
    4.5230   -5.4620   22.0030 C   0  0  0  0  0  0  0  0  0  0  0  0
    4.8360   -6.4700   21.1880 N   0  0  0  0  0  0  0  0  0  0  0  0
    6.1290   -6.6480   20.9850 C   0  0  0  0  0  0  0  0  0  0  0  0
    7.1450   -6.0140   21.5530 N   0  0  0  0  0  0  0  0  0  0  0  0
    6.3600   -7.4150   20.2580 H   0  0  0  0  0  0  0  0  0  0  0  0
    3.4580   -5.3220   22.1880 H   0  0  0  0  0  0  0  0  0  0  0  0
    5.1470   -3.7930   23.1950 H   0  0  0  0  0  0  0  0  0  0  0  0
    8.7490   -4.6350   22.5520 H   0  0  0  0  0  0  0  0  0  0  0  0
    8.6210   -2.8150   24.1020 H   0  0  0  0  0  0  0  0  0  0  0  0
    6.8590   -2.8050   23.9280 H   0  0  0  0  0  0  0  0  0  0  0  0
    8.8060   -2.1280   21.6810 H   0  0  0  0  0  0  0  0  0  0  0  0
    6.8070   -2.4620   20.4950 H   0  0  0  0  0  0  0  0  0  0  0  0
    5.7900   -1.9210   21.8360 H   0  0  0  0  0  0  0  0  0  0  0  0
   10.4440   -1.1180   21.3270 H   0  0  0  0  0  0  0  0  0  0  0  0
   13.3310    1.0070   23.6340 H   0  0  0  0  0  0  0  0  0  0  0  0
   11.5070    1.7590   25.2100 H   0  0  0  0  0  0  0  0  0  0  0  0
  1  2  2  0  0  0  0
  2  3  1  0  0  0  0
  2 12  1  0  0  0  0
  3  4  2  0  0  0  0
  3  9  1  0  0  0  0
  4  5  1  0  0  0  0
  4 64  1  0  0  0  0
  5  6  2  0  0  0  0
  5 63  1  0  0  0  0
  6  7  1  0  0  0  0
  6  8  1  0  0  0  0
  8  9  2  0  0  0  0
  8 62  1  0  0  0  0
 10  9  1  1  0  0  0
 10 11  1  0  0  0  0
 10 24  1  0  0  0  0
 10 44  1  0  0  0  0
 11 12  1  0  0  0  0
 11 22  1  0  0  0  0
 11 23  1  0  0  0  0
 12 13  1  0  0  0  0
 13 14  1  0  0  0  0
 13 20  1  0  0  0  0
 13 21  1  0  0  0  0
 14 15  2  0  0  0  0
 14 18  1  0  0  0  0
 15 16  1  0  0  0  0
 16 17  2  0  0  0  0
 17 18  1  0  0  0  0
 17 19  1  0  0  0  0
 24 25  2  0  0  0  0
 24 26  1  0  0  0  0
 26 27  1  0  0  0  0
 26 43  1  0  0  0  0
 27 28  2  0  0  0  0
 27 36  1  0  0  0  0
 28 29  1  0  0  0  0
 28 42  1  0  0  0  0
 29 30  2  0  0  0  0
 30 31  1  0  0  0  0
 30 41  1  0  0  0  0
 31 32  2  0  0  0  0
 31 36  1  0  0  0  0
 32 33  1  0  0  0  0
 32 40  1  0  0  0  0
 33 34  2  0  0  0  0
 33 39  1  0  0  0  0
 34 35  1  0  0  0  0
 34 38  1  0  0  0  0
 35 36  2  0  0  0  0
 35 37  1  0  0  0  0
 43 44  1  0  0  0  0
 43 60  1  0  0  0  0
 43 61  1  0  0  0  0
 44 45  1  0  0  0  0
 44 59  1  6  0  0  0
 45 46  1  0  0  0  0
 45 57  1  0  0  0  0
 45 58  1  0  0  0  0
 46 47  1  0  0  0  0
 46 56  1  0  0  0  0
 47 48  2  0  0  0  0
 47 52  1  0  0  0  0
 48 49  1  0  0  0  0
 48 55  1  0  0  0  0
 49 50  2  0  0  0  0
 49 54  1  0  0  0  0
 50 51  1  0  0  0  0
 51 52  2  0  0  0  0
 51 53  1  0  0  0  0
M  END
>  <MODEL>
       1

$$$$
