output/tmp_first_model_15_74.pdb
 OpenBabel07232601353D

 55 60  0  0  1  0  0  0  0  0999 V2000
    7.3250   -2.5930   23.7800 C   0  0  0  0  0  0  0  0  0  0  0  0
    7.7680   -1.8310   22.5220 C   0  0  1  0  0  0  0  0  0  0  0  0
    6.6150   -1.6600   21.5090 C   0  0  0  0  0  0  0  0  0  0  0  0
    6.9220   -0.4170   20.8300 N   0  0  0  0  0  0  0  0  0  0  0  0
    6.1400    0.1050   19.7650 C   0  0  0  0  0  0  0  0  0  0  0  0
    6.4500   -0.2160   18.4690 C   0  0  0  0  0  0  0  0  0  0  0  0
    5.7620    0.2260   17.3890 N   0  0  0  0  0  0  0  0  0  0  0  0
    4.7430    1.0200   17.5950 C   0  0  0  0  0  0  0  0  0  0  0  0
    4.2920    1.4170   18.8850 C   0  0  0  0  0  0  0  0  0  0  0  0
    3.1680    2.2700   19.0650 C   0  0  0  0  0  0  0  0  0  0  0  0
    2.7520    2.6210   20.3170 C   0  0  0  0  0  0  0  0  0  0  0  0
    3.4330    2.1190   21.4500 C   0  0  0  0  0  0  0  0  0  0  0  0
    4.5180    1.2890   21.3010 C   0  0  0  0  0  0  0  0  0  0  0  0
    4.9950    0.9330   20.0110 C   0  0  0  0  0  0  0  0  0  0  0  0
    5.0540    0.9440   22.1810 H   0  0  0  0  0  0  0  0  0  0  0  0
    3.1260    2.4240   22.4450 H   0  0  0  0  0  0  0  0  0  0  0  0
    1.9110    3.2980   20.4480 H   0  0  0  0  0  0  0  0  0  0  0  0
    2.6640    2.6450   18.1770 H   0  0  0  0  0  0  0  0  0  0  0  0
    4.2180    1.3840   16.7130 H   0  0  0  0  0  0  0  0  0  0  0  0
    7.2900   -0.8700   18.2490 H   0  0  0  0  0  0  0  0  0  0  0  0
    7.8610    0.3630   21.4700 C   0  0  0  0  0  0  0  0  0  0  0  0
    8.2300    1.4430   21.0750 O   0  0  0  0  0  0  0  0  0  0  0  0
    8.3620   -0.3950   22.7300 C   0  0  1  0  0  0  0  0  0  0  0  0
    7.8340    0.2580   24.0250 C   0  0  0  0  0  0  0  0  0  0  0  0
    8.4690    1.5290   24.3010 N   0  0  0  0  0  0  0  0  0  0  0  0
    7.6480    2.6840   24.6000 C   0  0  0  0  0  0  0  0  0  0  0  0
    7.4570    3.5630   23.3950 C   0  0  0  0  0  0  0  0  0  0  0  0
    8.3760    4.4970   22.8450 C   0  0  0  0  0  0  0  0  0  0  0  0
    7.6710    5.0780   21.8470 C   0  0  0  0  0  0  0  0  0  0  0  0
    6.4520    4.5330   21.7580 O   0  0  0  0  0  0  0  0  0  0  0  0
    6.3220    3.5720   22.7450 N   0  0  0  0  0  0  0  0  0  0  0  0
    7.8650    5.8810   21.1460 H   0  0  0  0  0  0  0  0  0  0  0  0
    9.3860    4.6590   23.1850 H   0  0  0  0  0  0  0  0  0  0  0  0
    6.6730    2.3420   24.9670 H   0  0  0  0  0  0  0  0  0  0  0  0
    8.1520    3.2470   25.3870 H   0  0  0  0  0  0  0  0  0  0  0  0
    9.8310    1.6840   24.2900 C   0  0  0  0  0  0  0  0  0  0  0  0
   10.3890    2.6340   24.8270 O   0  0  0  0  0  0  0  0  0  0  0  0
   10.5740    0.6330   23.5260 C   0  0  0  0  0  0  0  0  0  0  0  0
   11.9710    0.6710   23.5070 C   0  0  0  0  0  0  0  0  0  0  0  0
   12.6890   -0.1950   22.7000 C   0  0  0  0  0  0  0  0  0  0  0  0
   11.9710   -1.0740   21.8960 C   0  0  0  0  0  0  0  0  0  0  0  0
   12.5810   -1.9450   21.0810 F   0  0  0  0  0  0  0  0  0  0  0  0
   10.6020   -1.1150   21.8900 C   0  0  0  0  0  0  0  0  0  0  0  0
    9.8740   -0.3130   22.7630 C   0  0  0  0  0  0  0  0  0  0  0  0
   10.1590   -1.7850   21.1650 H   0  0  0  0  0  0  0  0  0  0  0  0
   13.7710   -0.1800   22.6670 H   0  0  0  0  0  0  0  0  0  0  0  0
   12.4570    1.4090   24.1390 H   0  0  0  0  0  0  0  0  0  0  0  0
    8.0130   -0.4340   24.8630 H   0  0  0  0  0  0  0  0  0  0  0  0
    6.7590    0.4390   23.9040 H   0  0  0  0  0  0  0  0  0  0  0  0
    6.5530   -2.4830   20.7870 H   0  0  0  0  0  0  0  0  0  0  0  0
    5.6420   -1.6070   22.0270 H   0  0  0  0  0  0  0  0  0  0  0  0
    8.5490   -2.4230   22.0380 H   0  0  0  0  0  0  0  0  0  0  0  0
    8.1400   -2.6980   24.5060 H   0  0  0  0  0  0  0  0  0  0  0  0
    6.9770   -3.6020   23.5230 H   0  0  0  0  0  0  0  0  0  0  0  0
    6.4960   -2.0780   24.2810 H   0  0  0  0  0  0  0  0  0  0  0  0
  1  2  1  0  0  0  0
  1 53  1  0  0  0  0
  1 54  1  0  0  0  0
  1 55  1  0  0  0  0
  2  3  1  0  0  0  0
  2 23  1  0  0  0  0
  2 52  1  6  0  0  0
  3  4  1  0  0  0  0
  3 50  1  0  0  0  0
  3 51  1  0  0  0  0
  4  5  1  0  0  0  0
  4 21  1  0  0  0  0
  5  6  2  0  0  0  0
  5 14  1  0  0  0  0
  6  7  1  0  0  0  0
  6 20  1  0  0  0  0
  7  8  2  0  0  0  0
  8  9  1  0  0  0  0
  8 19  1  0  0  0  0
  9 10  2  0  0  0  0
  9 14  1  0  0  0  0
 10 11  1  0  0  0  0
 10 18  1  0  0  0  0
 11 12  2  0  0  0  0
 11 17  1  0  0  0  0
 12 13  1  0  0  0  0
 12 16  1  0  0  0  0
 13 14  2  0  0  0  0
 13 15  1  0  0  0  0
 21 22  2  0  0  0  0
 23 21  1  6  0  0  0
 23 24  1  0  0  0  0
 23 44  1  0  0  0  0
 24 25  1  0  0  0  0
 24 48  1  0  0  0  0
 24 49  1  0  0  0  0
 25 26  1  0  0  0  0
 25 36  1  0  0  0  0
 26 27  1  0  0  0  0
 26 34  1  0  0  0  0
 26 35  1  0  0  0  0
 27 28  1  0  0  0  0
 27 31  2  0  0  0  0
 28 29  2  0  0  0  0
 28 33  1  0  0  0  0
 29 30  1  0  0  0  0
 29 32  1  0  0  0  0
 30 31  1  0  0  0  0
 36 37  2  0  0  0  0
 36 38  1  0  0  0  0
 38 39  2  0  0  0  0
 38 44  1  0  0  0  0
 39 40  1  0  0  0  0
 39 47  1  0  0  0  0
 40 41  2  0  0  0  0
 40 46  1  0  0  0  0
 41 42  1  0  0  0  0
 41 43  1  0  0  0  0
 43 44  2  0  0  0  0
 43 45  1  0  0  0  0
M  END
>  <MODEL>
       1

$$$$
