output/tmp_first_model_11_77.pdb
 OpenBabel07222623443D

 57 60  0  0  0  0  0  0  0  0999 V2000
    7.2760   -2.9670   27.9590 C   0  0  0  0  0  0  0  0  0  0  0  0
    6.1820   -2.8080   26.8800 C   0  0  0  0  0  0  0  0  0  0  0  0
    4.8650   -2.4740   27.6000 C   0  0  0  0  0  0  0  0  0  0  0  0
    4.0410   -2.3580   26.8900 H   0  0  0  0  0  0  0  0  0  0  0  0
    4.6170   -3.2720   28.3060 H   0  0  0  0  0  0  0  0  0  0  0  0
    4.9760   -1.5480   28.1740 H   0  0  0  0  0  0  0  0  0  0  0  0
    6.0380   -4.1460   26.2540 C   0  0  0  0  0  0  0  0  0  0  0  0
    5.9570   -5.2190   25.8240 N   0  0  0  0  0  0  0  0  0  0  0  0
    6.5470   -1.7760   25.7920 C   0  0  0  0  0  0  0  0  0  0  0  0
    7.5270   -2.0780   24.8440 C   0  0  0  0  0  0  0  0  0  0  0  0
    7.8170   -1.2000   23.8060 C   0  0  0  0  0  0  0  0  0  0  0  0
    7.1730    0.0380   23.7160 C   0  0  0  0  0  0  0  0  0  0  0  0
    7.5420    0.9640   22.6900 N   0  0  0  0  0  0  0  0  0  0  0  0
    8.2500    2.1910   23.0900 C   0  0  0  0  0  0  0  0  0  0  0  0
    9.7230    1.9540   23.3700 C   0  0  0  0  0  0  0  0  0  0  0  0
   10.0950    0.9530   24.2660 C   0  0  0  0  0  0  0  0  0  0  0  0
   11.4280    0.6580   24.4930 C   0  0  0  0  0  0  0  0  0  0  0  0
   12.4300    1.3920   23.8750 C   0  0  0  0  0  0  0  0  0  0  0  0
   12.0670    2.4470   23.0490 C   0  0  0  0  0  0  0  0  0  0  0  0
   13.2630    3.4980   22.3410 Cl  0  0  0  0  0  0  0  0  0  0  0  0
   10.7300    2.7000   22.7440 C   0  0  0  0  0  0  0  0  0  0  0  0
   10.5020    3.4800   22.0210 H   0  0  0  0  0  0  0  0  0  0  0  0
   13.4640    1.1380   24.0750 H   0  0  0  0  0  0  0  0  0  0  0  0
   11.6960   -0.1590   25.1590 H   0  0  0  0  0  0  0  0  0  0  0  0
    9.3460    0.3870   24.8090 H   0  0  0  0  0  0  0  0  0  0  0  0
    7.7300    2.5700   23.9790 H   0  0  0  0  0  0  0  0  0  0  0  0
    8.1470    2.9240   22.2880 H   0  0  0  0  0  0  0  0  0  0  0  0
    7.7210    0.5880   21.3630 C   0  0  0  0  0  0  0  0  0  0  0  0
    8.4670    1.2020   20.6280 O   0  0  0  0  0  0  0  0  0  0  0  0
    6.8760   -0.5690   20.8170 C   0  0  0  0  0  0  0  0  0  0  0  0
    6.0230   -0.0330   19.6970 C   0  0  0  0  0  0  0  0  0  0  0  0
    6.3680   -0.2580   18.3910 C   0  0  0  0  0  0  0  0  0  0  0  0
    5.7130    0.2370   17.3100 N   0  0  0  0  0  0  0  0  0  0  0  0
    4.6850    1.0110   17.5460 C   0  0  0  0  0  0  0  0  0  0  0  0
    4.2300    1.3560   18.8460 C   0  0  0  0  0  0  0  0  0  0  0  0
    3.1300    2.2270   19.0360 C   0  0  0  0  0  0  0  0  0  0  0  0
    2.7480    2.6000   20.2940 C   0  0  0  0  0  0  0  0  0  0  0  0
    3.4490    2.1070   21.4180 C   0  0  0  0  0  0  0  0  0  0  0  0
    4.5070    1.2440   21.2640 C   0  0  0  0  0  0  0  0  0  0  0  0
    4.9260    0.8400   19.9630 C   0  0  0  0  0  0  0  0  0  0  0  0
    5.0380    0.8860   22.1440 H   0  0  0  0  0  0  0  0  0  0  0  0
    3.1490    2.4230   22.4130 H   0  0  0  0  0  0  0  0  0  0  0  0
    1.9180    3.2860   20.4340 H   0  0  0  0  0  0  0  0  0  0  0  0
    2.6240    2.6140   18.1540 H   0  0  0  0  0  0  0  0  0  0  0  0
    4.1610    1.4180   16.6810 H   0  0  0  0  0  0  0  0  0  0  0  0
    7.2360   -0.8730   18.1530 H   0  0  0  0  0  0  0  0  0  0  0  0
    6.2840   -1.0480   21.6040 H   0  0  0  0  0  0  0  0  0  0  0  0
    7.5620   -1.3240   20.4130 H   0  0  0  0  0  0  0  0  0  0  0  0
    6.2480    0.3810   24.6970 C   0  0  0  0  0  0  0  0  0  0  0  0
    5.9400   -0.5210   25.7140 C   0  0  0  0  0  0  0  0  0  0  0  0
    5.2150   -0.2130   26.4610 H   0  0  0  0  0  0  0  0  0  0  0  0
    5.7580    1.3530   24.6720 H   0  0  0  0  0  0  0  0  0  0  0  0
    8.6130   -1.4290   23.1010 H   0  0  0  0  0  0  0  0  0  0  0  0
    8.0790   -3.0120   24.9070 H   0  0  0  0  0  0  0  0  0  0  0  0
    6.9910   -3.7580   28.6590 H   0  0  0  0  0  0  0  0  0  0  0  0
    8.2440   -3.2320   27.5230 H   0  0  0  0  0  0  0  0  0  0  0  0
    7.3700   -2.0360   28.5260 H   0  0  0  0  0  0  0  0  0  0  0  0
  1  2  1  0  0  0  0
  1 55  1  0  0  0  0
  1 56  1  0  0  0  0
  1 57  1  0  0  0  0
  2  3  1  0  0  0  0
  2  7  1  0  0  0  0
  2  9  1  0  0  0  0
  3  4  1  0  0  0  0
  3  5  1  0  0  0  0
  3  6  1  0  0  0  0
  7  8  3  0  0  0  0
  9 10  2  0  0  0  0
  9 50  1  0  0  0  0
 10 11  1  0  0  0  0
 10 54  1  0  0  0  0
 11 12  2  0  0  0  0
 11 53  1  0  0  0  0
 12 13  1  0  0  0  0
 12 49  1  0  0  0  0
 13 14  1  0  0  0  0
 13 28  1  0  0  0  0
 14 15  1  0  0  0  0
 14 26  1  0  0  0  0
 14 27  1  0  0  0  0
 15 16  2  0  0  0  0
 15 21  1  0  0  0  0
 16 17  1  0  0  0  0
 16 25  1  0  0  0  0
 17 18  2  0  0  0  0
 17 24  1  0  0  0  0
 18 19  1  0  0  0  0
 18 23  1  0  0  0  0
 19 20  1  0  0  0  0
 19 21  2  0  0  0  0
 21 22  1  0  0  0  0
 28 29  2  0  0  0  0
 28 30  1  0  0  0  0
 30 31  1  0  0  0  0
 30 47  1  0  0  0  0
 30 48  1  0  0  0  0
 31 32  2  0  0  0  0
 31 40  1  0  0  0  0
 32 33  1  0  0  0  0
 32 46  1  0  0  0  0
 33 34  2  0  0  0  0
 34 35  1  0  0  0  0
 34 45  1  0  0  0  0
 35 36  2  0  0  0  0
 35 40  1  0  0  0  0
 36 37  1  0  0  0  0
 36 44  1  0  0  0  0
 37 38  2  0  0  0  0
 37 43  1  0  0  0  0
 38 39  1  0  0  0  0
 38 42  1  0  0  0  0
 39 40  2  0  0  0  0
 39 41  1  0  0  0  0
 49 50  2  0  0  0  0
 49 52  1  0  0  0  0
 50 51  1  0  0  0  0
M  END
>  <MODEL>
       1

$$$$
