output/tmp_first_model_11_88.pdb
 OpenBabel07222623443D

 64 68  0  0  0  0  0  0  0  0999 V2000
    2.6450   -3.1660   27.0930 C   0  0  0  0  0  0  0  0  0  0  0  0
    3.6500   -3.9570   27.9430 C   0  0  0  0  0  0  0  0  0  0  0  0
    4.8670   -4.2750   27.0840 C   0  0  0  0  0  0  0  0  0  0  0  0
    5.7540   -3.4300   27.0440 O   0  0  0  0  0  0  0  0  0  0  0  0
    4.7980   -5.3030   26.1450 N   0  0  0  0  0  0  0  0  0  0  0  0
    3.9300   -6.4620   26.3550 C   0  0  0  0  0  0  0  0  0  0  0  0
    4.6310   -7.6910   25.7650 C   0  0  0  0  0  0  0  0  0  0  0  0
    4.8050   -7.5320   24.2500 C   0  0  0  0  0  0  0  0  0  0  0  0
    5.3690   -6.1710   23.9180 C   0  0  0  0  0  0  0  0  0  0  0  0
    5.8660   -5.9300   22.6270 C   0  0  0  0  0  0  0  0  0  0  0  0
    6.2660   -4.6430   22.2740 C   0  0  0  0  0  0  0  0  0  0  0  0
    6.2040   -3.6060   23.1900 C   0  0  0  0  0  0  0  0  0  0  0  0
    6.5480   -2.3160   22.8120 N   0  0  0  0  0  0  0  0  0  0  0  0
    7.4720   -1.5870   23.6770 C   0  0  0  0  0  0  0  0  0  0  0  0
    8.8590   -1.6060   23.0900 C   0  0  0  0  0  0  0  0  0  0  0  0
    9.4960   -2.8140   22.7410 C   0  0  0  0  0  0  0  0  0  0  0  0
   10.7600   -2.7780   22.1330 C   0  0  0  0  0  0  0  0  0  0  0  0
   11.4200   -1.5570   21.9360 C   0  0  0  0  0  0  0  0  0  0  0  0
   10.8200   -0.3590   22.3320 C   0  0  0  0  0  0  0  0  0  0  0  0
   11.7480    1.3000   22.1340 Br  0  0  0  0  0  0  0  0  0  0  0  0
    9.5370   -0.3890   22.8870 C   0  0  0  0  0  0  0  0  0  0  0  0
    9.0710    0.5560   23.1570 H   0  0  0  0  0  0  0  0  0  0  0  0
   12.4100   -1.5470   21.4900 H   0  0  0  0  0  0  0  0  0  0  0  0
   11.2440   -3.6980   21.8230 H   0  0  0  0  0  0  0  0  0  0  0  0
    9.0140   -3.7760   22.9290 H   0  0  0  0  0  0  0  0  0  0  0  0
    7.1450   -0.5520   23.8120 H   0  0  0  0  0  0  0  0  0  0  0  0
    7.5040   -2.0440   24.6750 H   0  0  0  0  0  0  0  0  0  0  0  0
    6.1650   -1.8450   21.5550 C   0  0  0  0  0  0  0  0  0  0  0  0
    5.3720   -2.4950   20.8820 O   0  0  0  0  0  0  0  0  0  0  0  0
    6.8180   -0.5810   20.9690 C   0  0  0  0  0  0  0  0  0  0  0  0
    6.0740    0.0310   19.7810 C   0  0  0  0  0  0  0  0  0  0  0  0
    6.4660   -0.2340   18.4540 C   0  0  0  0  0  0  0  0  0  0  0  0
    5.8200    0.2550   17.3810 N   0  0  0  0  0  0  0  0  0  0  0  0
    4.7490    1.0390   17.5880 C   0  0  0  0  0  0  0  0  0  0  0  0
    4.2900    1.3750   18.8670 C   0  0  0  0  0  0  0  0  0  0  0  0
    3.1750    2.2090   19.0500 C   0  0  0  0  0  0  0  0  0  0  0  0
    2.7620    2.5620   20.3390 C   0  0  0  0  0  0  0  0  0  0  0  0
    3.4520    2.0800   21.4540 C   0  0  0  0  0  0  0  0  0  0  0  0
    4.5460    1.2300   21.2740 C   0  0  0  0  0  0  0  0  0  0  0  0
    4.9720    0.8710   19.9880 C   0  0  0  0  0  0  0  0  0  0  0  0
    5.0800    0.8560   22.1410 H   0  0  0  0  0  0  0  0  0  0  0  0
    3.1450    2.3690   22.4550 H   0  0  0  0  0  0  0  0  0  0  0  0
    1.9130    3.2240   20.4770 H   0  0  0  0  0  0  0  0  0  0  0  0
    2.6380    2.6110   18.1960 H   0  0  0  0  0  0  0  0  0  0  0  0
    4.2220    1.4320   16.7220 H   0  0  0  0  0  0  0  0  0  0  0  0
    7.3310   -0.8670   18.2780 H   0  0  0  0  0  0  0  0  0  0  0  0
    6.8950    0.1630   21.7650 H   0  0  0  0  0  0  0  0  0  0  0  0
    7.8360   -0.8430   20.6750 H   0  0  0  0  0  0  0  0  0  0  0  0
    5.7720   -3.8480   24.4800 C   0  0  0  0  0  0  0  0  0  0  0  0
    5.3420   -5.1190   24.8640 C   0  0  0  0  0  0  0  0  0  0  0  0
    5.7230   -3.0040   25.1540 H   0  0  0  0  0  0  0  0  0  0  0  0
    6.6160   -4.4190   21.2770 H   0  0  0  0  0  0  0  0  0  0  0  0
    5.9170   -6.7230   21.8880 H   0  0  0  0  0  0  0  0  0  0  0  0
    5.4690   -8.3140   23.8670 H   0  0  0  0  0  0  0  0  0  0  0  0
    3.8300   -7.6430   23.7580 H   0  0  0  0  0  0  0  0  0  0  0  0
    4.0670   -8.6020   25.9830 H   0  0  0  0  0  0  0  0  0  0  0  0
    5.6150   -7.7790   26.2290 H   0  0  0  0  0  0  0  0  0  0  0  0
    3.7600   -6.6320   27.4240 H   0  0  0  0  0  0  0  0  0  0  0  0
    2.9570   -6.3090   25.8710 H   0  0  0  0  0  0  0  0  0  0  0  0
    3.2010   -4.8820   28.3100 H   0  0  0  0  0  0  0  0  0  0  0  0
    3.9590   -3.3640   28.8090 H   0  0  0  0  0  0  0  0  0  0  0  0
    2.2890   -3.7800   26.2580 H   0  0  0  0  0  0  0  0  0  0  0  0
    1.7860   -2.8550   27.6920 H   0  0  0  0  0  0  0  0  0  0  0  0
    3.1160   -2.2660   26.6820 H   0  0  0  0  0  0  0  0  0  0  0  0
  1  2  1  0  0  0  0
  1 62  1  0  0  0  0
  1 63  1  0  0  0  0
  1 64  1  0  0  0  0
  2  3  1  0  0  0  0
  2 60  1  0  0  0  0
  2 61  1  0  0  0  0
  3  4  2  0  0  0  0
  3  5  1  0  0  0  0
  5  6  1  0  0  0  0
  5 50  1  0  0  0  0
  6  7  1  0  0  0  0
  6 58  1  0  0  0  0
  6 59  1  0  0  0  0
  7  8  1  0  0  0  0
  7 56  1  0  0  0  0
  7 57  1  0  0  0  0
  8  9  1  0  0  0  0
  8 54  1  0  0  0  0
  8 55  1  0  0  0  0
  9 10  2  0  0  0  0
  9 50  1  0  0  0  0
 10 11  1  0  0  0  0
 10 53  1  0  0  0  0
 11 12  2  0  0  0  0
 11 52  1  0  0  0  0
 12 13  1  0  0  0  0
 12 49  1  0  0  0  0
 13 14  1  0  0  0  0
 13 28  1  0  0  0  0
 14 15  1  0  0  0  0
 14 26  1  0  0  0  0
 14 27  1  0  0  0  0
 15 16  2  0  0  0  0
 15 21  1  0  0  0  0
 16 17  1  0  0  0  0
 16 25  1  0  0  0  0
 17 18  2  0  0  0  0
 17 24  1  0  0  0  0
 18 19  1  0  0  0  0
 18 23  1  0  0  0  0
 19 20  1  0  0  0  0
 19 21  2  0  0  0  0
 21 22  1  0  0  0  0
 28 29  2  0  0  0  0
 28 30  1  0  0  0  0
 30 31  1  0  0  0  0
 30 47  1  0  0  0  0
 30 48  1  0  0  0  0
 31 32  2  0  0  0  0
 31 40  1  0  0  0  0
 32 33  1  0  0  0  0
 32 46  1  0  0  0  0
 33 34  2  0  0  0  0
 34 35  1  0  0  0  0
 34 45  1  0  0  0  0
 35 36  2  0  0  0  0
 35 40  1  0  0  0  0
 36 37  1  0  0  0  0
 36 44  1  0  0  0  0
 37 38  2  0  0  0  0
 37 43  1  0  0  0  0
 38 39  1  0  0  0  0
 38 42  1  0  0  0  0
 39 40  2  0  0  0  0
 39 41  1  0  0  0  0
 49 50  2  0  0  0  0
 49 51  1  0  0  0  0
M  END
>  <MODEL>
       1

$$$$
