output/tmp_first_model_16_13.pdb
 OpenBabel07232602073D

 67 72  0  0  1  0  0  0  0  0999 V2000
    6.6040    4.2750   21.2260 C   0  0  0  0  0  0  0  0  0  0  0  0
    7.5260    3.8680   22.2700 N   0  0  0  0  0  0  0  0  0  0  0  0
    7.0640    3.2980   23.4120 C   0  0  0  0  0  0  0  0  0  0  0  0
    5.8710    3.1890   23.6620 O   0  0  0  0  0  0  0  0  0  0  0  0
    8.1320    2.8290   24.4070 C   0  0  0  0  0  0  0  0  0  0  0  0
    8.8110    1.6300   23.9410 N   0  0  0  0  0  0  0  0  0  0  0  0
    8.0400    0.3990   23.8210 C   0  0  0  0  0  0  0  0  0  0  0  0
    8.4580   -0.4150   22.5720 C   0  0  2  0  0  0  0  0  0  0  0  0
    7.9630    0.2820   21.2820 C   0  0  0  0  0  0  0  0  0  0  0  0
    8.4480    1.2580   20.7390 O   0  0  0  0  0  0  0  0  0  0  0  0
    6.8720   -0.4070   20.8100 N   0  0  0  0  0  0  0  0  0  0  0  0
    6.1010    0.1060   19.7410 C   0  0  0  0  0  0  0  0  0  0  0  0
    6.4490   -0.1800   18.4470 C   0  0  0  0  0  0  0  0  0  0  0  0
    5.7660    0.2660   17.3670 N   0  0  0  0  0  0  0  0  0  0  0  0
    4.7230    1.0290   17.5750 C   0  0  0  0  0  0  0  0  0  0  0  0
    4.2640    1.4180   18.8670 C   0  0  0  0  0  0  0  0  0  0  0  0
    3.1510    2.2790   19.0540 C   0  0  0  0  0  0  0  0  0  0  0  0
    2.7590    2.6480   20.3120 C   0  0  0  0  0  0  0  0  0  0  0  0
    3.4570    2.1720   21.4450 C   0  0  0  0  0  0  0  0  0  0  0  0
    4.5330    1.3300   21.2900 C   0  0  0  0  0  0  0  0  0  0  0  0
    4.9680    0.9340   19.9950 C   0  0  0  0  0  0  0  0  0  0  0  0
    5.0930    1.0080   22.1640 H   0  0  0  0  0  0  0  0  0  0  0  0
    3.1700    2.4970   22.4410 H   0  0  0  0  0  0  0  0  0  0  0  0
    1.9140    3.3170   20.4480 H   0  0  0  0  0  0  0  0  0  0  0  0
    2.6290    2.6460   18.1740 H   0  0  0  0  0  0  0  0  0  0  0  0
    4.1840    1.3860   16.6960 H   0  0  0  0  0  0  0  0  0  0  0  0
    7.3170   -0.8030   18.2480 H   0  0  0  0  0  0  0  0  0  0  0  0
    6.4730   -1.5290   21.6340 C   0  0  0  0  0  0  0  0  0  0  0  0
    7.7270   -1.7850   22.4860 C   0  0  2  0  0  0  0  0  0  0  0  0
    7.4130   -2.5050   23.7970 C   0  0  0  0  0  0  0  0  0  0  0  0
    6.8770   -3.7870   23.5290 O   0  0  0  0  0  0  0  0  0  0  0  0
    7.7780   -4.8270   23.8310 C   0  0  0  0  0  0  0  0  0  0  0  0
    7.8980   -5.1170   25.3040 C   0  0  0  0  0  0  0  0  0  0  0  0
    8.6780   -6.3290   25.7100 C   0  0  0  0  0  0  0  0  0  0  0  0
    9.2220   -4.9610   26.0020 C   0  0  0  0  0  0  0  0  0  0  0  0
    9.2130   -4.6010   27.0250 H   0  0  0  0  0  0  0  0  0  0  0  0
   10.0610   -4.5980   25.4080 H   0  0  0  0  0  0  0  0  0  0  0  0
    9.1440   -6.9130   24.9280 H   0  0  0  0  0  0  0  0  0  0  0  0
    8.3050   -6.9550   26.5160 H   0  0  0  0  0  0  0  0  0  0  0  0
    7.0280   -4.8680   25.8980 H   0  0  0  0  0  0  0  0  0  0  0  0
    7.4210   -5.7080   23.2860 H   0  0  0  0  0  0  0  0  0  0  0  0
    8.7780   -4.5710   23.4490 H   0  0  0  0  0  0  0  0  0  0  0  0
    6.6540   -1.9500   24.3650 H   0  0  0  0  0  0  0  0  0  0  0  0
    8.3150   -2.5850   24.4230 H   0  0  0  0  0  0  0  0  0  0  0  0
    8.3730   -2.4510   21.9090 H   0  0  0  0  0  0  0  0  0  0  0  0
    6.2030   -2.3890   21.0160 H   0  0  0  0  0  0  0  0  0  0  0  0
    5.6000   -1.2860   22.2600 H   0  0  0  0  0  0  0  0  0  0  0  0
    9.9680   -0.4760   22.5080 C   0  0  0  0  0  0  0  0  0  0  0  0
   10.5720   -1.3560   21.6050 C   0  0  0  0  0  0  0  0  0  0  0  0
   11.9250   -1.2940   21.3630 C   0  0  0  0  0  0  0  0  0  0  0  0
   12.5820   -2.3330   20.1280 Cl  0  0  0  0  0  0  0  0  0  0  0  0
   12.7370   -0.3740   22.0320 C   0  0  0  0  0  0  0  0  0  0  0  0
   12.1590    0.4740   22.9530 C   0  0  0  0  0  0  0  0  0  0  0  0
   10.7810    0.4670   23.1510 C   0  0  0  0  0  0  0  0  0  0  0  0
   10.1810    1.6000   23.9330 C   0  0  0  0  0  0  0  0  0  0  0  0
   10.8670    2.4640   24.4650 O   0  0  0  0  0  0  0  0  0  0  0  0
   12.7530    1.1890   23.5150 H   0  0  0  0  0  0  0  0  0  0  0  0
   13.7920   -0.2880   21.8120 H   0  0  0  0  0  0  0  0  0  0  0  0
    9.9940   -2.0690   21.0310 H   0  0  0  0  0  0  0  0  0  0  0  0
    8.1820   -0.2180   24.7230 H   0  0  0  0  0  0  0  0  0  0  0  0
    6.9830    0.6750   23.7550 H   0  0  0  0  0  0  0  0  0  0  0  0
    7.6290    2.6700   25.3720 H   0  0  0  0  0  0  0  0  0  0  0  0
    8.9070    3.5940   24.5410 H   0  0  0  0  0  0  0  0  0  0  0  0
    8.4670    3.6490   21.9880 H   0  0  0  0  0  0  0  0  0  0  0  0
    6.0950    3.4010   20.8000 H   0  0  0  0  0  0  0  0  0  0  0  0
    7.1520    4.8090   20.4450 H   0  0  0  0  0  0  0  0  0  0  0  0
    5.8510    4.9430   21.6500 H   0  0  0  0  0  0  0  0  0  0  0  0
  1  2  1  0  0  0  0
  1 65  1  0  0  0  0
  1 66  1  0  0  0  0
  1 67  1  0  0  0  0
  2  3  1  0  0  0  0
  2 64  1  0  0  0  0
  3  4  2  0  0  0  0
  3  5  1  0  0  0  0
  5  6  1  0  0  0  0
  5 62  1  0  0  0  0
  5 63  1  0  0  0  0
  6  7  1  0  0  0  0
  6 55  1  0  0  0  0
  7  8  1  0  0  0  0
  7 60  1  0  0  0  0
  7 61  1  0  0  0  0
  8  9  1  6  0  0  0
  8 29  1  0  0  0  0
  8 48  1  0  0  0  0
  9 10  2  0  0  0  0
  9 11  1  0  0  0  0
 11 12  1  0  0  0  0
 11 28  1  0  0  0  0
 12 13  2  0  0  0  0
 12 21  1  0  0  0  0
 13 14  1  0  0  0  0
 13 27  1  0  0  0  0
 14 15  2  0  0  0  0
 15 16  1  0  0  0  0
 15 26  1  0  0  0  0
 16 17  2  0  0  0  0
 16 21  1  0  0  0  0
 17 18  1  0  0  0  0
 17 25  1  0  0  0  0
 18 19  2  0  0  0  0
 18 24  1  0  0  0  0
 19 20  1  0  0  0  0
 19 23  1  0  0  0  0
 20 21  2  0  0  0  0
 20 22  1  0  0  0  0
 28 29  1  0  0  0  0
 28 46  1  0  0  0  0
 28 47  1  0  0  0  0
 29 30  1  0  0  0  0
 29 45  1  6  0  0  0
 30 31  1  0  0  0  0
 30 43  1  0  0  0  0
 30 44  1  0  0  0  0
 31 32  1  0  0  0  0
 32 33  1  0  0  0  0
 32 41  1  0  0  0  0
 32 42  1  0  0  0  0
 33 34  1  0  0  0  0
 33 35  1  0  0  0  0
 33 40  1  0  0  0  0
 34 35  1  0  0  0  0
 34 38  1  0  0  0  0
 34 39  1  0  0  0  0
 35 36  1  0  0  0  0
 35 37  1  0  0  0  0
 48 49  2  0  0  0  0
 48 54  1  0  0  0  0
 49 50  1  0  0  0  0
 49 59  1  0  0  0  0
 50 51  1  0  0  0  0
 50 52  2  0  0  0  0
 52 53  1  0  0  0  0
 52 58  1  0  0  0  0
 53 54  2  0  0  0  0
 53 57  1  0  0  0  0
 54 55  1  0  0  0  0
 55 56  2  0  0  0  0
M  END
>  <MODEL>
       1

$$$$
