output/tmp_first_model_15_71.pdb
 OpenBabel07232601353D

 59 64  0  0  1  0  0  0  0  0999 V2000
    7.6020   -2.9340   23.4410 C   0  0  0  0  0  0  0  0  0  0  0  0
    7.9420   -1.9010   22.3580 C   0  0  1  0  0  0  0  0  0  0  0  0
    6.8320   -1.7740   21.2960 C   0  0  0  0  0  0  0  0  0  0  0  0
    6.9330   -0.4050   20.8340 N   0  0  0  0  0  0  0  0  0  0  0  0
    6.1440    0.1120   19.7740 C   0  0  0  0  0  0  0  0  0  0  0  0
    6.4420   -0.2220   18.4790 C   0  0  0  0  0  0  0  0  0  0  0  0
    5.7620    0.2230   17.3960 N   0  0  0  0  0  0  0  0  0  0  0  0
    4.7440    1.0210   17.6010 C   0  0  0  0  0  0  0  0  0  0  0  0
    4.2960    1.4170   18.8920 C   0  0  0  0  0  0  0  0  0  0  0  0
    3.1670    2.2630   19.0670 C   0  0  0  0  0  0  0  0  0  0  0  0
    2.7460    2.6130   20.3190 C   0  0  0  0  0  0  0  0  0  0  0  0
    3.4260    2.1170   21.4580 C   0  0  0  0  0  0  0  0  0  0  0  0
    4.5160    1.2980   21.3140 C   0  0  0  0  0  0  0  0  0  0  0  0
    5.0010    0.9420   20.0220 C   0  0  0  0  0  0  0  0  0  0  0  0
    5.0220    0.9190   22.1980 H   0  0  0  0  0  0  0  0  0  0  0  0
    3.0910    2.3940   22.4520 H   0  0  0  0  0  0  0  0  0  0  0  0
    1.8940    3.2750   20.4440 H   0  0  0  0  0  0  0  0  0  0  0  0
    2.6630    2.6380   18.1790 H   0  0  0  0  0  0  0  0  0  0  0  0
    4.2190    1.3860   16.7170 H   0  0  0  0  0  0  0  0  0  0  0  0
    7.2840   -0.8770   18.2640 H   0  0  0  0  0  0  0  0  0  0  0  0
    7.6720    0.4090   21.6590 C   0  0  0  0  0  0  0  0  0  0  0  0
    7.8260    1.6010   21.4880 O   0  0  0  0  0  0  0  0  0  0  0  0
    8.2210   -0.4380   22.8310 C   0  0  1  0  0  0  0  0  0  0  0  0
    7.4320   -0.0870   24.1190 C   0  0  0  0  0  0  0  0  0  0  0  0
    7.7340    1.2480   24.5980 N   0  0  0  0  0  0  0  0  0  0  0  0
    6.6410    2.1950   24.7790 C   0  0  0  0  0  0  0  0  0  0  0  0
    5.5600    1.7000   25.6980 C   0  0  0  0  0  0  0  0  0  0  0  0
    4.3420    1.3670   25.3180 N   0  0  0  0  0  0  0  0  0  0  0  0
    3.7160    0.9120   26.4520 C   0  0  0  0  0  0  0  0  0  0  0  0
    4.5670    0.9800   27.5220 C   0  0  0  0  0  0  0  0  0  0  0  0
    5.7490    1.4940   27.0320 N   0  0  0  0  0  0  0  0  0  0  0  0
    6.9710    1.7090   27.7870 C   0  0  0  0  0  0  0  0  0  0  0  0
    7.3890    2.6980   27.5760 H   0  0  0  0  0  0  0  0  0  0  0  0
    6.7240    1.6490   28.8500 H   0  0  0  0  0  0  0  0  0  0  0  0
    7.7220    0.9490   27.5490 H   0  0  0  0  0  0  0  0  0  0  0  0
    4.4630    0.7080   28.5610 H   0  0  0  0  0  0  0  0  0  0  0  0
    2.6970    0.5470   26.4180 H   0  0  0  0  0  0  0  0  0  0  0  0
    7.0980    3.1210   25.1410 H   0  0  0  0  0  0  0  0  0  0  0  0
    6.1680    2.3910   23.8050 H   0  0  0  0  0  0  0  0  0  0  0  0
    9.0300    1.6220   24.8070 C   0  0  0  0  0  0  0  0  0  0  0  0
    9.3500    2.5480   25.5470 O   0  0  0  0  0  0  0  0  0  0  0  0
   10.0530    0.8380   24.0350 C   0  0  0  0  0  0  0  0  0  0  0  0
   11.3930    1.1420   24.2510 C   0  0  0  0  0  0  0  0  0  0  0  0
   12.3870    0.5980   23.4650 C   0  0  0  0  0  0  0  0  0  0  0  0
   11.9960   -0.2480   22.4340 C   0  0  0  0  0  0  0  0  0  0  0  0
   12.9380   -0.7440   21.6220 F   0  0  0  0  0  0  0  0  0  0  0  0
   10.6780   -0.5920   22.2100 C   0  0  0  0  0  0  0  0  0  0  0  0
    9.6800   -0.0950   23.0580 C   0  0  0  0  0  0  0  0  0  0  0  0
   10.4620   -1.2190   21.3510 H   0  0  0  0  0  0  0  0  0  0  0  0
   13.4370    0.8300   23.5970 H   0  0  0  0  0  0  0  0  0  0  0  0
   11.5950    1.8440   25.0400 H   0  0  0  0  0  0  0  0  0  0  0  0
    7.6780   -0.8170   24.9050 H   0  0  0  0  0  0  0  0  0  0  0  0
    6.3590   -0.1290   23.9200 H   0  0  0  0  0  0  0  0  0  0  0  0
    5.8410   -1.9880   21.7270 H   0  0  0  0  0  0  0  0  0  0  0  0
    6.9690   -2.4510   20.4520 H   0  0  0  0  0  0  0  0  0  0  0  0
    8.8520   -2.2360   21.8530 H   0  0  0  0  0  0  0  0  0  0  0  0
    7.5000   -3.9360   23.0080 H   0  0  0  0  0  0  0  0  0  0  0  0
    6.6520   -2.6940   23.9350 H   0  0  0  0  0  0  0  0  0  0  0  0
    8.3740   -2.9840   24.2190 H   0  0  0  0  0  0  0  0  0  0  0  0
  1  2  1  0  0  0  0
  1 57  1  0  0  0  0
  1 58  1  0  0  0  0
  1 59  1  0  0  0  0
  2  3  1  0  0  0  0
  2 23  1  0  0  0  0
  2 56  1  6  0  0  0
  3  4  1  0  0  0  0
  3 54  1  0  0  0  0
  3 55  1  0  0  0  0
  4  5  1  0  0  0  0
  4 21  1  0  0  0  0
  5  6  2  0  0  0  0
  5 14  1  0  0  0  0
  6  7  1  0  0  0  0
  6 20  1  0  0  0  0
  7  8  2  0  0  0  0
  8  9  1  0  0  0  0
  8 19  1  0  0  0  0
  9 10  2  0  0  0  0
  9 14  1  0  0  0  0
 10 11  1  0  0  0  0
 10 18  1  0  0  0  0
 11 12  2  0  0  0  0
 11 17  1  0  0  0  0
 12 13  1  0  0  0  0
 12 16  1  0  0  0  0
 13 14  2  0  0  0  0
 13 15  1  0  0  0  0
 21 22  2  0  0  0  0
 23 21  1  6  0  0  0
 23 24  1  0  0  0  0
 23 48  1  0  0  0  0
 24 25  1  0  0  0  0
 24 52  1  0  0  0  0
 24 53  1  0  0  0  0
 25 26  1  0  0  0  0
 25 40  1  0  0  0  0
 26 27  1  0  0  0  0
 26 38  1  0  0  0  0
 26 39  1  0  0  0  0
 27 28  2  0  0  0  0
 27 31  1  0  0  0  0
 28 29  1  0  0  0  0
 29 30  2  0  0  0  0
 29 37  1  0  0  0  0
 30 31  1  0  0  0  0
 30 36  1  0  0  0  0
 31 32  1  0  0  0  0
 32 33  1  0  0  0  0
 32 34  1  0  0  0  0
 32 35  1  0  0  0  0
 40 41  2  0  0  0  0
 40 42  1  0  0  0  0
 42 43  2  0  0  0  0
 42 48  1  0  0  0  0
 43 44  1  0  0  0  0
 43 51  1  0  0  0  0
 44 45  2  0  0  0  0
 44 50  1  0  0  0  0
 45 46  1  0  0  0  0
 45 47  1  0  0  0  0
 47 48  2  0  0  0  0
 47 49  1  0  0  0  0
M  END
>  <MODEL>
       1

$$$$
