output/tmp_first_model_7_25.pdb
 OpenBabel07222621533D

 68 73  0  0  1  0  0  0  0  0999 V2000
    7.2290   -4.6910   26.6220 C   0  0  0  0  0  0  0  0  0  0  0  0
    7.5460   -3.2780   26.7450 N   0  0  0  0  0  0  0  0  0  0  0  0
    6.6500   -2.3530   26.3170 C   0  0  0  0  0  0  0  0  0  0  0  0
    5.5700   -2.6610   25.8260 O   0  0  0  0  0  0  0  0  0  0  0  0
    7.1340   -0.9010   26.4120 C   0  0  0  0  0  0  0  0  0  0  0  0
    8.0200   -0.6120   25.2940 N   0  0  0  0  0  0  0  0  0  0  0  0
    7.4470   -0.1650   24.0330 C   0  0  0  0  0  0  0  0  0  0  0  0
    8.3040   -0.5000   22.7780 C   0  0  2  0  0  0  0  0  0  0  0  0
    7.6520    0.3470   21.6600 C   0  0  0  0  0  0  0  0  0  0  0  0
    7.7740    1.5350   21.4590 O   0  0  0  0  0  0  0  0  0  0  0  0
    6.7920   -0.4680   20.9480 N   0  0  0  0  0  0  0  0  0  0  0  0
    5.9910    0.0220   19.8860 C   0  0  0  0  0  0  0  0  0  0  0  0
    6.4230   -0.1280   18.5930 C   0  0  0  0  0  0  0  0  0  0  0  0
    5.7590    0.3220   17.5020 N   0  0  0  0  0  0  0  0  0  0  0  0
    4.6240    0.9470   17.7000 C   0  0  0  0  0  0  0  0  0  0  0  0
    4.0260    1.1190   18.9820 C   0  0  0  0  0  0  0  0  0  0  0  0
    2.7570    1.7420   19.1330 C   0  0  0  0  0  0  0  0  0  0  0  0
    2.1720    1.8290   20.3660 C   0  0  0  0  0  0  0  0  0  0  0  0
    2.8090    1.2620   21.4930 C   0  0  0  0  0  0  0  0  0  0  0  0
    4.0360    0.6540   21.3770 C   0  0  0  0  0  0  0  0  0  0  0  0
    4.6970    0.6000   20.1150 C   0  0  0  0  0  0  0  0  0  0  0  0
    4.4920    0.1840   22.2440 H   0  0  0  0  0  0  0  0  0  0  0  0
    2.3150    1.2960   22.4570 H   0  0  0  0  0  0  0  0  0  0  0  0
    1.2020    2.3050   20.4850 H   0  0  0  0  0  0  0  0  0  0  0  0
    2.2690    2.1510   18.2540 H   0  0  0  0  0  0  0  0  0  0  0  0
    4.0970    1.3300   16.8260 H   0  0  0  0  0  0  0  0  0  0  0  0
    7.3570   -0.6520   18.3910 H   0  0  0  0  0  0  0  0  0  0  0  0
    6.8510   -1.8660   21.2940 C   0  0  0  0  0  0  0  0  0  0  0  0
    8.0920   -1.9450   22.1950 C   0  0  2  0  0  0  0  0  0  0  0  0
    7.9810   -3.0520   23.2420 C   0  0  0  0  0  0  0  0  0  0  0  0
    7.9560   -4.3970   22.7130 N   0  0  0  0  0  0  0  0  0  0  0  0
    6.7550   -5.0220   22.3900 C   0  0  0  0  0  0  0  0  0  0  0  0
    6.6520   -6.2210   21.6460 C   0  0  0  0  0  0  0  0  0  0  0  0
    5.4020   -6.6560   21.5950 N   0  0  0  0  0  0  0  0  0  0  0  0
    4.6840   -5.7650   22.2830 N   0  0  0  0  0  0  0  0  0  0  0  0
    3.2920   -6.0500   22.5540 C   0  0  0  0  0  0  0  0  0  0  0  0
    2.6490   -5.2330   22.2230 H   0  0  0  0  0  0  0  0  0  0  0  0
    3.1220   -6.2260   23.6210 H   0  0  0  0  0  0  0  0  0  0  0  0
    3.0310   -6.9530   22.0040 H   0  0  0  0  0  0  0  0  0  0  0  0
    5.4540   -4.7510   22.7830 C   0  0  0  0  0  0  0  0  0  0  0  0
    5.0390   -3.9420   23.3810 H   0  0  0  0  0  0  0  0  0  0  0  0
    7.4470   -6.7910   21.1780 H   0  0  0  0  0  0  0  0  0  0  0  0
    8.7210   -4.6280   22.0920 H   0  0  0  0  0  0  0  0  0  0  0  0
    8.8250   -2.9480   23.9320 H   0  0  0  0  0  0  0  0  0  0  0  0
    7.0600   -2.9180   23.8080 H   0  0  0  0  0  0  0  0  0  0  0  0
    8.9650   -2.1430   21.5550 H   0  0  0  0  0  0  0  0  0  0  0  0
    5.9410   -2.2000   21.8190 H   0  0  0  0  0  0  0  0  0  0  0  0
    6.9110   -2.4840   20.3940 H   0  0  0  0  0  0  0  0  0  0  0  0
    9.7630   -0.1640   23.0870 C   0  0  0  0  0  0  0  0  0  0  0  0
   10.7030    0.1370   22.0840 C   0  0  0  0  0  0  0  0  0  0  0  0
   12.0380    0.3430   22.4200 C   0  0  0  0  0  0  0  0  0  0  0  0
   13.2520    0.6880   21.2220 Cl  0  0  0  0  0  0  0  0  0  0  0  0
   12.4920    0.2690   23.7340 C   0  0  0  0  0  0  0  0  0  0  0  0
   11.5800   -0.0170   24.7210 C   0  0  0  0  0  0  0  0  0  0  0  0
   10.2380   -0.2110   24.4040 C   0  0  0  0  0  0  0  0  0  0  0  0
    9.3490   -0.4630   25.5670 C   0  0  0  0  0  0  0  0  0  0  0  0
    9.8030   -0.5360   26.6970 O   0  0  0  0  0  0  0  0  0  0  0  0
   11.8780   -0.1010   25.7590 H   0  0  0  0  0  0  0  0  0  0  0  0
   13.5390    0.4350   23.9610 H   0  0  0  0  0  0  0  0  0  0  0  0
   10.3800    0.2150   21.0530 H   0  0  0  0  0  0  0  0  0  0  0  0
    7.3100    0.9240   24.0480 H   0  0  0  0  0  0  0  0  0  0  0  0
    6.4490   -0.6060   23.9330 H   0  0  0  0  0  0  0  0  0  0  0  0
    7.7070   -0.7200   27.3260 H   0  0  0  0  0  0  0  0  0  0  0  0
    6.2680   -0.2330   26.3990 H   0  0  0  0  0  0  0  0  0  0  0  0
    8.4730   -2.9930   27.0310 H   0  0  0  0  0  0  0  0  0  0  0  0
    6.3860   -4.9520   27.2700 H   0  0  0  0  0  0  0  0  0  0  0  0
    8.1000   -5.2850   26.9070 H   0  0  0  0  0  0  0  0  0  0  0  0
    6.9400   -4.9390   25.5910 H   0  0  0  0  0  0  0  0  0  0  0  0
  1  2  1  0  0  0  0
  1 66  1  0  0  0  0
  1 67  1  0  0  0  0
  1 68  1  0  0  0  0
  2  3  1  0  0  0  0
  2 65  1  0  0  0  0
  3  4  2  0  0  0  0
  3  5  1  0  0  0  0
  5  6  1  0  0  0  0
  5 63  1  0  0  0  0
  5 64  1  0  0  0  0
  6  7  1  0  0  0  0
  6 56  1  0  0  0  0
  7  8  1  0  0  0  0
  7 61  1  0  0  0  0
  7 62  1  0  0  0  0
  8  9  1  6  0  0  0
  8 29  1  0  0  0  0
  8 49  1  0  0  0  0
  9 10  2  0  0  0  0
  9 11  1  0  0  0  0
 11 12  1  0  0  0  0
 11 28  1  0  0  0  0
 12 13  2  0  0  0  0
 12 21  1  0  0  0  0
 13 14  1  0  0  0  0
 13 27  1  0  0  0  0
 14 15  2  0  0  0  0
 15 16  1  0  0  0  0
 15 26  1  0  0  0  0
 16 17  2  0  0  0  0
 16 21  1  0  0  0  0
 17 18  1  0  0  0  0
 17 25  1  0  0  0  0
 18 19  2  0  0  0  0
 18 24  1  0  0  0  0
 19 20  1  0  0  0  0
 19 23  1  0  0  0  0
 20 21  2  0  0  0  0
 20 22  1  0  0  0  0
 28 29  1  0  0  0  0
 28 47  1  0  0  0  0
 28 48  1  0  0  0  0
 29 30  1  0  0  0  0
 29 46  1  6  0  0  0
 30 31  1  0  0  0  0
 30 44  1  0  0  0  0
 30 45  1  0  0  0  0
 31 32  1  0  0  0  0
 31 43  1  0  0  0  0
 32 33  1  0  0  0  0
 32 40  2  0  0  0  0
 33 34  2  0  0  0  0
 33 42  1  0  0  0  0
 34 35  1  0  0  0  0
 35 36  1  0  0  0  0
 35 40  1  0  0  0  0
 36 37  1  0  0  0  0
 36 38  1  0  0  0  0
 36 39  1  0  0  0  0
 40 41  1  0  0  0  0
 49 50  2  0  0  0  0
 49 55  1  0  0  0  0
 50 51  1  0  0  0  0
 50 60  1  0  0  0  0
 51 52  1  0  0  0  0
 51 53  2  0  0  0  0
 53 54  1  0  0  0  0
 53 59  1  0  0  0  0
 54 55  2  0  0  0  0
 54 58  1  0  0  0  0
 55 56  1  0  0  0  0
 56 57  2  0  0  0  0
M  END
>  <MODEL>
       1

$$$$
