output/tmp_first_model_4_24.pdb
 OpenBabel07222620063D

 70 75  0  0  1  0  0  0  0  0999 V2000
    4.6050   -7.8530   24.1740 C   0  0  0  0  0  0  0  0  0  0  0  0
    5.9680   -7.5340   23.6930 N   0  3  0  0  0  0  0  0  0  0  0  0
    6.4450   -6.1650   24.0810 C   0  0  0  0  0  0  0  0  0  0  0  0
    5.7250   -5.0300   23.3370 C   0  0  0  0  0  0  0  0  0  0  0  0
    6.2290   -3.7210   23.7220 N   0  0  0  0  0  0  0  0  0  0  0  0
    7.4620   -3.2090   23.1340 C   0  0  0  0  0  0  0  0  0  0  0  0
    7.3390   -1.7070   22.7770 C   0  0  2  0  0  0  0  0  0  0  0  0
    6.4190   -1.5410   21.5460 C   0  0  0  0  0  0  0  0  0  0  0  0
    5.4010   -2.1460   21.2900 O   0  0  0  0  0  0  0  0  0  0  0  0
    6.9470   -0.5540   20.7490 N   0  0  0  0  0  0  0  0  0  0  0  0
    6.1980    0.0240   19.6970 C   0  0  0  0  0  0  0  0  0  0  0  0
    6.5710   -0.2000   18.3990 C   0  0  0  0  0  0  0  0  0  0  0  0
    5.9010    0.2670   17.3180 N   0  0  0  0  0  0  0  0  0  0  0  0
    4.8430    1.0090   17.5460 C   0  0  0  0  0  0  0  0  0  0  0  0
    4.3790    1.3640   18.8460 C   0  0  0  0  0  0  0  0  0  0  0  0
    3.2600    2.2180   19.0340 C   0  0  0  0  0  0  0  0  0  0  0  0
    2.8700    2.5770   20.2940 C   0  0  0  0  0  0  0  0  0  0  0  0
    3.5730    2.0980   21.4240 C   0  0  0  0  0  0  0  0  0  0  0  0
    4.6510    1.2610   21.2760 C   0  0  0  0  0  0  0  0  0  0  0  0
    5.0760    0.8670   19.9700 C   0  0  0  0  0  0  0  0  0  0  0  0
    5.1920    0.9090   22.1560 H   0  0  0  0  0  0  0  0  0  0  0  0
    3.2570    2.4030   22.4170 H   0  0  0  0  0  0  0  0  0  0  0  0
    2.0240    3.2450   20.4370 H   0  0  0  0  0  0  0  0  0  0  0  0
    2.7380    2.5910   18.1570 H   0  0  0  0  0  0  0  0  0  0  0  0
    4.3010    1.3780   16.6750 H   0  0  0  0  0  0  0  0  0  0  0  0
    7.4500   -0.8100   18.1940 H   0  0  0  0  0  0  0  0  0  0  0  0
    8.2190   -0.0340   21.1910 C   0  0  0  0  0  0  0  0  0  0  0  0
    8.6570   -0.9970   22.3110 C   0  0  2  0  0  0  0  0  0  0  0  0
    9.8230   -1.8970   21.8740 C   0  0  0  0  0  0  0  0  0  0  0  0
   10.5440   -2.4340   22.9500 O   0  0  0  0  0  0  0  0  0  0  0  0
   11.3220   -1.4770   23.6470 C   0  0  0  0  0  0  0  0  0  0  0  0
   12.0240   -2.0700   24.8820 C   0  0  0  0  0  0  0  0  0  0  0  0
   12.1070   -2.2280   24.6670 C   0  0  0  0  0  0  0  0  0  0  0  0
   13.9660   -3.3570   24.2610 O   0  0  0  0  0  0  0  0  0  0  0  0
   13.5730   -2.0960   24.8130 C   0  0  0  0  0  0  0  0  0  0  0  0
   13.9470   -1.9820   25.8400 H   0  0  0  0  0  0  0  0  0  0  0  0
   14.1180   -1.2940   24.2640 H   0  0  0  0  0  0  0  0  0  0  0  0
   11.9470   -3.2890   25.3350 H   0  0  0  0  0  0  0  0  0  0  0  0
   12.9120   -3.3010   24.1240 H   0  0  0  0  0  0  0  0  0  0  0  0
   11.6570   -1.3620   25.8240 H   0  0  0  0  0  0  0  0  0  0  0  0
   11.8620   -0.8520   22.9060 H   0  0  0  0  0  0  0  0  0  0  0  0
   10.6180   -0.7700   24.1230 H   0  0  0  0  0  0  0  0  0  0  0  0
   10.5100   -1.3320   21.2170 H   0  0  0  0  0  0  0  0  0  0  0  0
    9.4470   -2.7320   21.2750 H   0  0  0  0  0  0  0  0  0  0  0  0
    9.0480   -0.4340   23.1570 H   0  0  0  0  0  0  0  0  0  0  0  0
    8.9220   -0.0170   20.3600 H   0  0  0  0  0  0  0  0  0  0  0  0
    8.1220    1.0070   21.5330 H   0  0  0  0  0  0  0  0  0  0  0  0
    6.7600   -0.9770   23.9930 C   0  0  0  0  0  0  0  0  0  0  0  0
    6.9640    0.4000   24.1730 C   0  0  0  0  0  0  0  0  0  0  0  0
    6.5030    1.0390   25.3110 C   0  0  0  0  0  0  0  0  0  0  0  0
    6.8290    2.7380   25.5140 Cl  0  0  0  0  0  0  0  0  0  0  0  0
    5.8030    0.3510   26.2980 C   0  0  0  0  0  0  0  0  0  0  0  0
    5.5480   -0.9930   26.1000 C   0  0  0  0  0  0  0  0  0  0  0  0
    6.0060   -1.6510   24.9580 C   0  0  0  0  0  0  0  0  0  0  0  0
    5.6430   -3.0940   24.7830 C   0  0  0  0  0  0  0  0  0  0  0  0
    4.8440   -3.6580   25.5220 O   0  0  0  0  0  0  0  0  0  0  0  0
    4.9860   -1.5690   26.8260 H   0  0  0  0  0  0  0  0  0  0  0  0
    5.4660    0.8710   27.1870 H   0  0  0  0  0  0  0  0  0  0  0  0
    7.4970    1.0000   23.4460 H   0  0  0  0  0  0  0  0  0  0  0  0
    7.6660   -3.7860   22.2320 H   0  0  0  0  0  0  0  0  0  0  0  0
    8.3050   -3.3430   23.8260 H   0  0  0  0  0  0  0  0  0  0  0  0
    5.8340   -5.1230   22.2470 H   0  0  0  0  0  0  0  0  0  0  0  0
    4.6550   -5.0380   23.5700 H   0  0  0  0  0  0  0  0  0  0  0  0
    7.5150   -6.1290   23.8920 H   0  0  0  0  0  0  0  0  0  0  0  0
    6.2840   -6.0340   25.1520 H   0  0  0  0  0  0  0  0  0  0  0  0
    5.9620   -7.5850   22.6470 H   0  0  0  0  0  0  0  0  0  0  0  0
    6.6230   -8.2510   24.0680 H   0  0  0  0  0  0  0  0  0  0  0  0
    4.4620   -7.4560   25.1800 H   0  0  0  0  0  0  0  0  0  0  0  0
    3.8440   -7.4120   23.5290 H   0  0  0  0  0  0  0  0  0  0  0  0
    4.4570   -8.9300   24.1920 H   0  0  0  0  0  0  0  0  0  0  0  0
  1  2  1  0  0  0  0
  1 68  1  0  0  0  0
  1 69  1  0  0  0  0
  1 70  1  0  0  0  0
  2  3  1  0  0  0  0
  2 66  1  0  0  0  0
  2 67  1  0  0  0  0
  3  4  1  0  0  0  0
  3 64  1  0  0  0  0
  3 65  1  0  0  0  0
  4  5  1  0  0  0  0
  4 62  1  0  0  0  0
  4 63  1  0  0  0  0
  5  6  1  0  0  0  0
  5 55  1  0  0  0  0
  6  7  1  0  0  0  0
  6 60  1  0  0  0  0
  6 61  1  0  0  0  0
  7  8  1  6  0  0  0
  7 28  1  0  0  0  0
  7 48  1  0  0  0  0
  8  9  2  0  0  0  0
  8 10  1  0  0  0  0
 10 11  1  0  0  0  0
 10 27  1  0  0  0  0
 11 12  2  0  0  0  0
 11 20  1  0  0  0  0
 12 13  1  0  0  0  0
 12 26  1  0  0  0  0
 13 14  2  0  0  0  0
 14 15  1  0  0  0  0
 14 25  1  0  0  0  0
 15 16  2  0  0  0  0
 15 20  1  0  0  0  0
 16 17  1  0  0  0  0
 16 24  1  0  0  0  0
 17 18  2  0  0  0  0
 17 23  1  0  0  0  0
 18 19  1  0  0  0  0
 18 22  1  0  0  0  0
 19 20  2  0  0  0  0
 19 21  1  0  0  0  0
 27 28  1  0  0  0  0
 27 46  1  0  0  0  0
 27 47  1  0  0  0  0
 28 29  1  0  0  0  0
 28 45  1  1  0  0  0
 29 30  1  0  0  0  0
 29 43  1  0  0  0  0
 29 44  1  0  0  0  0
 30 31  1  0  0  0  0
 31 32  1  0  0  0  0
 31 41  1  0  0  0  0
 31 42  1  0  0  0  0
 32 33  1  0  0  0  0
 32 35  1  0  0  0  0
 32 40  1  0  0  0  0
 33 34  1  0  0  0  0
 33 38  1  0  0  0  0
 33 39  1  0  0  0  0
 34 35  1  0  0  0  0
 35 36  1  0  0  0  0
 35 37  1  0  0  0  0
 48 49  2  0  0  0  0
 48 54  1  0  0  0  0
 49 50  1  0  0  0  0
 49 59  1  0  0  0  0
 50 51  1  0  0  0  0
 50 52  2  0  0  0  0
 52 53  1  0  0  0  0
 52 58  1  0  0  0  0
 53 54  2  0  0  0  0
 53 57  1  0  0  0  0
 54 55  1  0  0  0  0
 55 56  2  0  0  0  0
M  CHG  1   2   1
M  END
>  <MODEL>
       1

$$$$
