output/tmp_first_model_11_0.pdb
 OpenBabel07222623443D

 63 69  0  0  1  0  0  0  0  0999 V2000
    4.7840   -4.6640   24.7260 O   0  0  0  0  0  0  0  0  0  0  0  0
    5.6130   -3.9020   24.2410 C   0  0  0  0  0  0  0  0  0  0  0  0
    6.1620   -2.7150   24.9710 C   0  0  0  0  0  0  0  0  0  0  0  0
    5.9480   -2.6050   26.3430 C   0  0  0  0  0  0  0  0  0  0  0  0
    6.1930   -1.4150   27.0080 C   0  0  0  0  0  0  0  0  0  0  0  0
    6.6450   -0.3250   26.2660 C   0  0  0  0  0  0  0  0  0  0  0  0
    6.7910    1.2340   27.0410 Cl  0  0  0  0  0  0  0  0  0  0  0  0
    6.9750   -0.4550   24.9290 C   0  0  0  0  0  0  0  0  0  0  0  0
    6.7990   -1.6820   24.2690 C   0  0  0  0  0  0  0  0  0  0  0  0
    7.2490   -1.8710   22.8300 C   0  0  1  0  0  0  0  0  0  0  0  0
    7.3100   -3.3850   22.5430 C   0  0  0  0  0  0  0  0  0  0  0  0
    6.0740   -4.0150   22.9590 N   0  0  0  0  0  0  0  0  0  0  0  0
    5.5460   -5.0390   22.0870 C   0  0  0  0  0  0  0  0  0  0  0  0
    6.2890   -6.3160   22.2780 C   0  0  0  0  0  0  0  0  0  0  0  0
    7.3030   -6.8020   21.6430 N   0  0  0  0  0  0  0  0  0  0  0  0
    7.7310   -7.9000   22.3930 N   0  0  0  0  0  0  0  0  0  0  0  0
    6.9130   -7.9990   23.3770 C   0  0  0  0  0  0  0  0  0  0  0  0
    5.9690   -7.0360   23.3800 O   0  0  0  0  0  0  0  0  0  0  0  0
    6.8910   -8.7020   24.2000 H   0  0  0  0  0  0  0  0  0  0  0  0
    5.5980   -4.6810   21.0550 H   0  0  0  0  0  0  0  0  0  0  0  0
    4.4990   -5.1970   22.3310 H   0  0  0  0  0  0  0  0  0  0  0  0
    8.1690   -3.8820   23.0040 H   0  0  0  0  0  0  0  0  0  0  0  0
    7.4160   -3.5370   21.4750 H   0  0  0  0  0  0  0  0  0  0  0  0
    6.2230   -1.3150   21.8160 C   0  0  0  0  0  0  0  0  0  0  0  0
    5.0660   -1.6590   21.6970 O   0  0  0  0  0  0  0  0  0  0  0  0
    6.8570   -0.4300   20.9660 N   0  0  0  0  0  0  0  0  0  0  0  0
    6.1610    0.1090   19.8590 C   0  0  0  0  0  0  0  0  0  0  0  0
    6.5460   -0.1710   18.5710 C   0  0  0  0  0  0  0  0  0  0  0  0
    5.8770    0.2340   17.4660 N   0  0  0  0  0  0  0  0  0  0  0  0
    4.8030    0.9650   17.6340 C   0  0  0  0  0  0  0  0  0  0  0  0
    4.3140    1.3660   18.9090 C   0  0  0  0  0  0  0  0  0  0  0  0
    3.1650    2.1920   19.0450 C   0  0  0  0  0  0  0  0  0  0  0  0
    2.7460    2.5980   20.2820 C   0  0  0  0  0  0  0  0  0  0  0  0
    3.4530    2.1980   21.4370 C   0  0  0  0  0  0  0  0  0  0  0  0
    4.5630    1.3990   21.3310 C   0  0  0  0  0  0  0  0  0  0  0  0
    5.0150    0.9470   20.0600 C   0  0  0  0  0  0  0  0  0  0  0  0
    5.1020    1.0980   22.2220 H   0  0  0  0  0  0  0  0  0  0  0  0
    3.1170    2.5290   22.4150 H   0  0  0  0  0  0  0  0  0  0  0  0
    1.8780    3.2440   20.3840 H   0  0  0  0  0  0  0  0  0  0  0  0
    2.6470    2.5200   18.1470 H   0  0  0  0  0  0  0  0  0  0  0  0
    4.2700    1.2760   16.7340 H   0  0  0  0  0  0  0  0  0  0  0  0
    7.4270   -0.7840   18.3880 H   0  0  0  0  0  0  0  0  0  0  0  0
    8.3100   -0.5600   21.0420 C   0  0  0  0  0  0  0  0  0  0  0  0
    8.5570   -1.1140   22.4570 C   0  0  2  0  0  0  0  0  0  0  0  0
    9.8880   -1.8720   22.5840 C   0  0  0  0  0  0  0  0  0  0  0  0
    9.9950   -2.5320   23.8790 N   0  0  0  0  0  0  0  0  0  0  0  0
   11.1450   -2.9860   24.4220 C   0  0  0  0  0  0  0  0  0  0  0  0
   12.3270   -2.5130   23.9780 N   0  0  0  0  0  0  0  0  0  0  0  0
   13.3810   -2.9530   24.6610 C   0  0  0  0  0  0  0  0  0  0  0  0
   13.3700   -3.8180   25.6810 N   0  0  0  0  0  0  0  0  0  0  0  0
   12.1360   -4.2530   25.9920 C   0  0  0  0  0  0  0  0  0  0  0  0
   11.0050   -3.9000   25.4060 N   0  0  0  0  0  0  0  0  0  0  0  0
   12.0490   -4.9470   26.8240 H   0  0  0  0  0  0  0  0  0  0  0  0
   14.3540   -2.5590   24.3650 H   0  0  0  0  0  0  0  0  0  0  0  0
    9.1580   -2.8860   24.3240 H   0  0  0  0  0  0  0  0  0  0  0  0
   10.7350   -1.1850   22.5050 H   0  0  0  0  0  0  0  0  0  0  0  0
   10.0070   -2.5920   21.7620 H   0  0  0  0  0  0  0  0  0  0  0  0
    8.6270   -0.2650   23.1350 H   0  0  0  0  0  0  0  0  0  0  0  0
    8.6900   -1.2600   20.2820 H   0  0  0  0  0  0  0  0  0  0  0  0
    8.7770    0.4170   20.8920 H   0  0  0  0  0  0  0  0  0  0  0  0
    7.3630    0.4140   24.4130 H   0  0  0  0  0  0  0  0  0  0  0  0
    6.0160   -1.3100   28.0740 H   0  0  0  0  0  0  0  0  0  0  0  0
    5.5680   -3.4690   26.8730 H   0  0  0  0  0  0  0  0  0  0  0  0
  1  2  2  0  0  0  0
  2  3  1  0  0  0  0
  2 12  1  0  0  0  0
  3  4  2  0  0  0  0
  3  9  1  0  0  0  0
  4  5  1  0  0  0  0
  4 63  1  0  0  0  0
  5  6  2  0  0  0  0
  5 62  1  0  0  0  0
  6  7  1  0  0  0  0
  6  8  1  0  0  0  0
  8  9  2  0  0  0  0
  8 61  1  0  0  0  0
 10  9  1  1  0  0  0
 10 11  1  0  0  0  0
 10 24  1  0  0  0  0
 10 44  1  0  0  0  0
 11 12  1  0  0  0  0
 11 22  1  0  0  0  0
 11 23  1  0  0  0  0
 12 13  1  0  0  0  0
 13 14  1  0  0  0  0
 13 20  1  0  0  0  0
 13 21  1  0  0  0  0
 14 15  2  0  0  0  0
 14 18  1  0  0  0  0
 15 16  1  0  0  0  0
 16 17  2  0  0  0  0
 17 18  1  0  0  0  0
 17 19  1  0  0  0  0
 24 25  2  0  0  0  0
 24 26  1  0  0  0  0
 26 27  1  0  0  0  0
 26 43  1  0  0  0  0
 27 28  2  0  0  0  0
 27 36  1  0  0  0  0
 28 29  1  0  0  0  0
 28 42  1  0  0  0  0
 29 30  2  0  0  0  0
 30 31  1  0  0  0  0
 30 41  1  0  0  0  0
 31 32  2  0  0  0  0
 31 36  1  0  0  0  0
 32 33  1  0  0  0  0
 32 40  1  0  0  0  0
 33 34  2  0  0  0  0
 33 39  1  0  0  0  0
 34 35  1  0  0  0  0
 34 38  1  0  0  0  0
 35 36  2  0  0  0  0
 35 37  1  0  0  0  0
 43 44  1  0  0  0  0
 43 59  1  0  0  0  0
 43 60  1  0  0  0  0
 44 45  1  0  0  0  0
 44 58  1  1  0  0  0
 45 46  1  0  0  0  0
 45 56  1  0  0  0  0
 45 57  1  0  0  0  0
 46 47  1  0  0  0  0
 46 55  1  0  0  0  0
 47 48  2  0  0  0  0
 47 52  1  0  0  0  0
 48 49  1  0  0  0  0
 49 50  2  0  0  0  0
 49 54  1  0  0  0  0
 50 51  1  0  0  0  0
 51 52  2  0  0  0  0
 51 53  1  0  0  0  0
M  END
>  <MODEL>
       1

$$$$
