output/tmp_first_model_16_35.pdb
 OpenBabel07232602073D

 51 54  0  0  0  0  0  0  0  0999 V2000
    5.2330   -7.5740   27.2470 N   0  0  0  0  0  0  0  0  0  0  0  0
    4.6030   -7.0320   26.4440 C   0  0  0  0  0  0  0  0  0  0  0  0
    3.7710   -6.3620   25.4270 C   0  0  0  0  0  0  0  0  0  0  0  0
    4.4530   -5.1820   24.7630 C   0  0  0  0  0  0  0  0  0  0  0  0
    5.2330   -5.3690   23.6250 C   0  0  0  0  0  0  0  0  0  0  0  0
    5.8540   -4.2970   23.0040 C   0  0  0  0  0  0  0  0  0  0  0  0
    5.7130   -3.0160   23.5280 C   0  0  0  0  0  0  0  0  0  0  0  0
    6.3840   -1.9250   22.9020 N   0  0  0  0  0  0  0  0  0  0  0  0
    7.3160   -1.1420   23.7070 C   0  0  0  0  0  0  0  0  0  0  0  0
    8.7750   -1.3470   23.3400 C   0  0  0  0  0  0  0  0  0  0  0  0
    9.3360   -2.5970   23.5730 C   0  0  0  0  0  0  0  0  0  0  0  0
   10.6900   -2.8190   23.3830 C   0  0  0  0  0  0  0  0  0  0  0  0
   11.4920   -1.8350   22.8080 C   0  0  0  0  0  0  0  0  0  0  0  0
   10.9340   -0.5860   22.5570 C   0  0  0  0  0  0  0  0  0  0  0  0
   11.9510    0.6770   21.8930 Cl  0  0  0  0  0  0  0  0  0  0  0  0
    9.5940   -0.3210   22.8540 C   0  0  0  0  0  0  0  0  0  0  0  0
    9.2130    0.6920   22.7360 H   0  0  0  0  0  0  0  0  0  0  0  0
   12.5210   -2.0340   22.5270 H   0  0  0  0  0  0  0  0  0  0  0  0
   11.0920   -3.7820   23.6890 H   0  0  0  0  0  0  0  0  0  0  0  0
    8.7050   -3.4240   23.8950 H   0  0  0  0  0  0  0  0  0  0  0  0
    7.0660   -0.0740   23.6820 H   0  0  0  0  0  0  0  0  0  0  0  0
    7.1710   -1.4840   24.7380 H   0  0  0  0  0  0  0  0  0  0  0  0
    6.1080   -1.6870   21.5660 C   0  0  0  0  0  0  0  0  0  0  0  0
    5.3190   -2.3700   20.9410 O   0  0  0  0  0  0  0  0  0  0  0  0
    6.8410   -0.5240   20.8980 C   0  0  0  0  0  0  0  0  0  0  0  0
    6.0780    0.0730   19.7600 C   0  0  0  0  0  0  0  0  0  0  0  0
    6.4120   -0.2190   18.4650 C   0  0  0  0  0  0  0  0  0  0  0  0
    5.7620    0.2460   17.3680 N   0  0  0  0  0  0  0  0  0  0  0  0
    4.7360    1.0310   17.5750 C   0  0  0  0  0  0  0  0  0  0  0  0
    4.2760    1.4220   18.8630 C   0  0  0  0  0  0  0  0  0  0  0  0
    3.1590    2.2780   19.0350 C   0  0  0  0  0  0  0  0  0  0  0  0
    2.7440    2.6350   20.2880 C   0  0  0  0  0  0  0  0  0  0  0  0
    3.4250    2.1480   21.4260 C   0  0  0  0  0  0  0  0  0  0  0  0
    4.5070    1.3160   21.2870 C   0  0  0  0  0  0  0  0  0  0  0  0
    4.9650    0.9320   19.9960 C   0  0  0  0  0  0  0  0  0  0  0  0
    5.0120    0.9500   22.1760 H   0  0  0  0  0  0  0  0  0  0  0  0
    3.0910    2.4430   22.4170 H   0  0  0  0  0  0  0  0  0  0  0  0
    1.8930    3.2970   20.4180 H   0  0  0  0  0  0  0  0  0  0  0  0
    2.6480    2.6460   18.1490 H   0  0  0  0  0  0  0  0  0  0  0  0
    4.2100    1.3980   16.6950 H   0  0  0  0  0  0  0  0  0  0  0  0
    7.2600   -0.8730   18.2610 H   0  0  0  0  0  0  0  0  0  0  0  0
    7.0670    0.2430   21.6390 H   0  0  0  0  0  0  0  0  0  0  0  0
    7.7980   -0.9260   20.5390 H   0  0  0  0  0  0  0  0  0  0  0  0
    4.9640   -2.8210   24.6900 C   0  0  0  0  0  0  0  0  0  0  0  0
    4.3220   -3.8980   25.2870 C   0  0  0  0  0  0  0  0  0  0  0  0
    3.7370   -3.7440   26.1910 H   0  0  0  0  0  0  0  0  0  0  0  0
    4.8750   -1.8240   25.1190 H   0  0  0  0  0  0  0  0  0  0  0  0
    6.4520   -4.4460   22.1100 H   0  0  0  0  0  0  0  0  0  0  0  0
    5.3520   -6.3680   23.2130 H   0  0  0  0  0  0  0  0  0  0  0  0
    2.8450   -6.0410   25.9140 H   0  0  0  0  0  0  0  0  0  0  0  0
    3.5000   -7.1130   24.6770 H   0  0  0  0  0  0  0  0  0  0  0  0
  1  2  3  0  0  0  0
  2  3  1  0  0  0  0
  3  4  1  0  0  0  0
  3 50  1  0  0  0  0
  3 51  1  0  0  0  0
  4  5  2  0  0  0  0
  4 45  1  0  0  0  0
  5  6  1  0  0  0  0
  5 49  1  0  0  0  0
  6  7  2  0  0  0  0
  6 48  1  0  0  0  0
  7  8  1  0  0  0  0
  7 44  1  0  0  0  0
  8  9  1  0  0  0  0
  8 23  1  0  0  0  0
  9 10  1  0  0  0  0
  9 21  1  0  0  0  0
  9 22  1  0  0  0  0
 10 11  2  0  0  0  0
 10 16  1  0  0  0  0
 11 12  1  0  0  0  0
 11 20  1  0  0  0  0
 12 13  2  0  0  0  0
 12 19  1  0  0  0  0
 13 14  1  0  0  0  0
 13 18  1  0  0  0  0
 14 15  1  0  0  0  0
 14 16  2  0  0  0  0
 16 17  1  0  0  0  0
 23 24  2  0  0  0  0
 23 25  1  0  0  0  0
 25 26  1  0  0  0  0
 25 42  1  0  0  0  0
 25 43  1  0  0  0  0
 26 27  2  0  0  0  0
 26 35  1  0  0  0  0
 27 28  1  0  0  0  0
 27 41  1  0  0  0  0
 28 29  2  0  0  0  0
 29 30  1  0  0  0  0
 29 40  1  0  0  0  0
 30 31  2  0  0  0  0
 30 35  1  0  0  0  0
 31 32  1  0  0  0  0
 31 39  1  0  0  0  0
 32 33  2  0  0  0  0
 32 38  1  0  0  0  0
 33 34  1  0  0  0  0
 33 37  1  0  0  0  0
 34 35  2  0  0  0  0
 34 36  1  0  0  0  0
 44 45  2  0  0  0  0
 44 47  1  0  0  0  0
 45 46  1  0  0  0  0
M  END
>  <MODEL>
       1

$$$$
