output/tmp_first_model_7_72.pdb
 OpenBabel07222621533D

 60 64  0  0  1  0  0  0  0  0999 V2000
    7.8770   -8.5330   23.0340 C   0  0  0  0  0  0  0  0  0  0  0  0
    6.9290   -7.4740   22.7550 N   0  0  0  0  0  0  0  0  0  0  0  0
    7.1630   -6.6060   21.7360 C   0  0  0  0  0  0  0  0  0  0  0  0
    8.0320   -6.7830   20.8980 O   0  0  0  0  0  0  0  0  0  0  0  0
    6.2420   -5.3800   21.7580 C   0  0  0  0  0  0  0  0  0  0  0  0
    6.7120   -4.3870   22.7090 N   0  0  0  0  0  0  0  0  0  0  0  0
    7.7850   -3.4740   22.3380 C   0  0  0  0  0  0  0  0  0  0  0  0
    7.4050   -2.0120   22.6830 C   0  0  2  0  0  0  0  0  0  0  0  0
    6.3020   -1.5670   21.7180 C   0  0  0  0  0  0  0  0  0  0  0  0
    5.1970   -2.0640   21.6170 O   0  0  0  0  0  0  0  0  0  0  0  0
    6.7750   -0.5280   20.9420 N   0  0  0  0  0  0  0  0  0  0  0  0
    5.9910   -0.0220   19.8870 C   0  0  0  0  0  0  0  0  0  0  0  0
    6.4350   -0.1390   18.5890 C   0  0  0  0  0  0  0  0  0  0  0  0
    5.7800    0.3340   17.5040 N   0  0  0  0  0  0  0  0  0  0  0  0
    4.6430    0.9450   17.7210 C   0  0  0  0  0  0  0  0  0  0  0  0
    4.0620    1.1210   19.0080 C   0  0  0  0  0  0  0  0  0  0  0  0
    2.8130    1.7820   19.1540 C   0  0  0  0  0  0  0  0  0  0  0  0
    2.2220    1.8930   20.3800 C   0  0  0  0  0  0  0  0  0  0  0  0
    2.8560    1.3470   21.5170 C   0  0  0  0  0  0  0  0  0  0  0  0
    4.0700    0.7160   21.4090 C   0  0  0  0  0  0  0  0  0  0  0  0
    4.7200    0.5980   20.1410 C   0  0  0  0  0  0  0  0  0  0  0  0
    4.5210    0.2830   22.2920 H   0  0  0  0  0  0  0  0  0  0  0  0
    2.3700    1.4170   22.4850 H   0  0  0  0  0  0  0  0  0  0  0  0
    1.2720    2.4130   20.4870 H   0  0  0  0  0  0  0  0  0  0  0  0
    2.3360    2.1610   18.2540 H   0  0  0  0  0  0  0  0  0  0  0  0
    4.1360    1.3800   16.8580 H   0  0  0  0  0  0  0  0  0  0  0  0
    7.3890   -0.6210   18.3810 H   0  0  0  0  0  0  0  0  0  0  0  0
    8.2300   -0.4360   20.9930 C   0  0  0  0  0  0  0  0  0  0  0  0
    8.5550   -1.0090   22.3750 C   0  0  2  0  0  0  0  0  0  0  0  0
    9.8980   -1.5250   22.4500 N   0  0  0  0  0  0  0  0  0  0  0  0
   10.5430   -1.7280   23.6430 C   0  0  0  0  0  0  0  0  0  0  0  0
   10.0920   -1.3330   24.7020 O   0  0  0  0  0  0  0  0  0  0  0  0
   11.8480   -2.4870   23.5180 C   0  0  0  0  0  0  0  0  0  0  0  0
   11.6680   -3.4820   23.0990 H   0  0  0  0  0  0  0  0  0  0  0  0
   12.3020   -2.5960   24.5020 H   0  0  0  0  0  0  0  0  0  0  0  0
   12.5460   -1.9640   22.8550 H   0  0  0  0  0  0  0  0  0  0  0  0
   10.3180   -1.8560   21.5960 H   0  0  0  0  0  0  0  0  0  0  0  0
    8.5040   -0.2020   23.0990 H   0  0  0  0  0  0  0  0  0  0  0  0
    8.5640    0.5980   20.8910 H   0  0  0  0  0  0  0  0  0  0  0  0
    8.7040   -1.0440   20.2060 H   0  0  0  0  0  0  0  0  0  0  0  0
    6.8920   -1.9650   24.1070 C   0  0  0  0  0  0  0  0  0  0  0  0
    6.8350   -0.7490   24.8000 C   0  0  0  0  0  0  0  0  0  0  0  0
    6.3730   -0.7110   26.1010 C   0  0  0  0  0  0  0  0  0  0  0  0
    6.3550    0.8130   26.9460 Cl  0  0  0  0  0  0  0  0  0  0  0  0
    5.9360   -1.8650   26.7530 C   0  0  0  0  0  0  0  0  0  0  0  0
    5.9300   -3.0550   26.0510 C   0  0  0  0  0  0  0  0  0  0  0  0
    6.3740   -3.1080   24.7310 C   0  0  0  0  0  0  0  0  0  0  0  0
    6.2080   -4.3930   23.9750 C   0  0  0  0  0  0  0  0  0  0  0  0
    5.6210   -5.3670   24.4410 O   0  0  0  0  0  0  0  0  0  0  0  0
    5.5710   -3.9710   26.5040 H   0  0  0  0  0  0  0  0  0  0  0  0
    5.5990   -1.8160   27.7840 H   0  0  0  0  0  0  0  0  0  0  0  0
    7.1520    0.1810   24.3410 H   0  0  0  0  0  0  0  0  0  0  0  0
    7.9430   -3.5680   21.2680 H   0  0  0  0  0  0  0  0  0  0  0  0
    8.7250   -3.7360   22.8390 H   0  0  0  0  0  0  0  0  0  0  0  0
    6.1800   -4.9180   20.7670 H   0  0  0  0  0  0  0  0  0  0  0  0
    5.2330   -5.6900   22.0490 H   0  0  0  0  0  0  0  0  0  0  0  0
    6.3080   -7.1650   23.4940 H   0  0  0  0  0  0  0  0  0  0  0  0
    8.8420   -8.1370   23.3770 H   0  0  0  0  0  0  0  0  0  0  0  0
    8.0570   -9.1280   22.1370 H   0  0  0  0  0  0  0  0  0  0  0  0
    7.4550   -9.1830   23.8030 H   0  0  0  0  0  0  0  0  0  0  0  0
  1  2  1  0  0  0  0
  1 58  1  0  0  0  0
  1 59  1  0  0  0  0
  1 60  1  0  0  0  0
  2  3  1  0  0  0  0
  2 57  1  0  0  0  0
  3  4  2  0  0  0  0
  3  5  1  0  0  0  0
  5  6  1  0  0  0  0
  5 55  1  0  0  0  0
  5 56  1  0  0  0  0
  6  7  1  0  0  0  0
  6 48  1  0  0  0  0
  7  8  1  0  0  0  0
  7 53  1  0  0  0  0
  7 54  1  0  0  0  0
  8  9  1  6  0  0  0
  8 29  1  0  0  0  0
  8 41  1  0  0  0  0
  9 10  2  0  0  0  0
  9 11  1  0  0  0  0
 11 12  1  0  0  0  0
 11 28  1  0  0  0  0
 12 13  2  0  0  0  0
 12 21  1  0  0  0  0
 13 14  1  0  0  0  0
 13 27  1  0  0  0  0
 14 15  2  0  0  0  0
 15 16  1  0  0  0  0
 15 26  1  0  0  0  0
 16 17  2  0  0  0  0
 16 21  1  0  0  0  0
 17 18  1  0  0  0  0
 17 25  1  0  0  0  0
 18 19  2  0  0  0  0
 18 24  1  0  0  0  0
 19 20  1  0  0  0  0
 19 23  1  0  0  0  0
 20 21  2  0  0  0  0
 20 22  1  0  0  0  0
 28 29  1  0  0  0  0
 28 39  1  0  0  0  0
 28 40  1  0  0  0  0
 29 30  1  0  0  0  0
 29 38  1  1  0  0  0
 30 31  1  0  0  0  0
 30 37  1  0  0  0  0
 31 32  2  0  0  0  0
 31 33  1  0  0  0  0
 33 34  1  0  0  0  0
 33 35  1  0  0  0  0
 33 36  1  0  0  0  0
 41 42  2  0  0  0  0
 41 47  1  0  0  0  0
 42 43  1  0  0  0  0
 42 52  1  0  0  0  0
 43 44  1  0  0  0  0
 43 45  2  0  0  0  0
 45 46  1  0  0  0  0
 45 51  1  0  0  0  0
 46 47  2  0  0  0  0
 46 50  1  0  0  0  0
 47 48  1  0  0  0  0
 48 49  2  0  0  0  0
M  END
>  <MODEL>
       1

$$$$
