output/tmp_first_model_11_61.pdb
 OpenBabel07222623443D

 64 70  0  0  1  0  0  0  0  0999 V2000
   10.8670    2.4260   24.2000 O   0  0  0  0  0  0  0  0  0  0  0  0
   10.1420    1.4870   23.8900 C   0  0  0  0  0  0  0  0  0  0  0  0
   10.6240    0.3750   23.0510 C   0  0  0  0  0  0  0  0  0  0  0  0
   11.9830    0.3500   22.8460 C   0  0  0  0  0  0  0  0  0  0  0  0
   12.5360   -0.6070   22.0470 C   0  0  0  0  0  0  0  0  0  0  0  0
   11.7150   -1.5300   21.3990 C   0  0  0  0  0  0  0  0  0  0  0  0
   12.3850   -2.7570   20.3620 Cl  0  0  0  0  0  0  0  0  0  0  0  0
   10.3420   -1.4910   21.5770 C   0  0  0  0  0  0  0  0  0  0  0  0
    9.7860   -0.5710   22.4700 C   0  0  0  0  0  0  0  0  0  0  0  0
    8.2930   -0.4910   22.7180 C   0  0  1  0  0  0  0  0  0  0  0  0
    8.0940    0.1540   24.1150 C   0  0  0  0  0  0  0  0  0  0  0  0
    8.8450    1.3840   24.2790 N   0  0  0  0  0  0  0  0  0  0  0  0
    8.2800    2.5670   24.8890 C   0  0  0  0  0  0  0  0  0  0  0  0
    7.7460    3.5440   23.8650 C   0  0  0  0  0  0  0  0  0  0  0  0
    6.4610    3.5170   23.3920 C   0  0  0  0  0  0  0  0  0  0  0  0
    6.1080    4.4730   22.4400 C   0  0  0  0  0  0  0  0  0  0  0  0
    6.9260    5.4130   21.9880 N   0  0  0  0  0  0  0  0  0  0  0  0
    8.1740    5.4480   22.4430 N   0  0  0  0  0  0  0  0  0  0  0  0
    8.5700    4.5440   23.3310 C   0  0  0  0  0  0  0  0  0  0  0  0
    9.6110    4.6180   23.6370 H   0  0  0  0  0  0  0  0  0  0  0  0
    5.1060    4.4780   22.0160 H   0  0  0  0  0  0  0  0  0  0  0  0
    5.7360    2.7800   23.7400 H   0  0  0  0  0  0  0  0  0  0  0  0
    7.5200    2.2640   25.6180 H   0  0  0  0  0  0  0  0  0  0  0  0
    9.1080    3.0470   25.4080 H   0  0  0  0  0  0  0  0  0  0  0  0
    8.4390   -0.5820   24.8560 H   0  0  0  0  0  0  0  0  0  0  0  0
    7.0410    0.3710   24.3010 H   0  0  0  0  0  0  0  0  0  0  0  0
    7.6760    0.3650   21.6040 C   0  0  0  0  0  0  0  0  0  0  0  0
    7.9230    1.5260   21.3480 O   0  0  0  0  0  0  0  0  0  0  0  0
    6.8070   -0.4200   20.8890 N   0  0  0  0  0  0  0  0  0  0  0  0
    6.0870    0.0880   19.7960 C   0  0  0  0  0  0  0  0  0  0  0  0
    6.4280   -0.2440   18.5110 C   0  0  0  0  0  0  0  0  0  0  0  0
    5.7750    0.2110   17.4170 N   0  0  0  0  0  0  0  0  0  0  0  0
    4.7530    1.0090   17.6130 C   0  0  0  0  0  0  0  0  0  0  0  0
    4.2890    1.4100   18.8990 C   0  0  0  0  0  0  0  0  0  0  0  0
    3.1600    2.2500   19.0660 C   0  0  0  0  0  0  0  0  0  0  0  0
    2.7300    2.6000   20.3170 C   0  0  0  0  0  0  0  0  0  0  0  0
    3.4060    2.1260   21.4620 C   0  0  0  0  0  0  0  0  0  0  0  0
    4.5080    1.3210   21.3300 C   0  0  0  0  0  0  0  0  0  0  0  0
    4.9760    0.9450   20.0370 C   0  0  0  0  0  0  0  0  0  0  0  0
    5.0300    0.9710   22.2160 H   0  0  0  0  0  0  0  0  0  0  0  0
    3.0520    2.4150   22.4490 H   0  0  0  0  0  0  0  0  0  0  0  0
    1.8700    3.2500   20.4350 H   0  0  0  0  0  0  0  0  0  0  0  0
    2.6610    2.6170   18.1760 H   0  0  0  0  0  0  0  0  0  0  0  0
    4.2270    1.3730   16.7320 H   0  0  0  0  0  0  0  0  0  0  0  0
    7.2850   -0.8910   18.3220 H   0  0  0  0  0  0  0  0  0  0  0  0
    6.9000   -1.8260   21.1850 C   0  0  0  0  0  0  0  0  0  0  0  0
    7.5820   -1.8650   22.5630 C   0  0  2  0  0  0  0  0  0  0  0  0
    6.6020   -2.2420   23.6920 C   0  0  0  0  0  0  0  0  0  0  0  0
    6.0120   -3.5560   23.5180 N   0  0  0  0  0  0  0  0  0  0  0  0
    6.7310   -4.6900   23.7230 C   0  0  0  0  0  0  0  0  0  0  0  0
    7.9840   -4.7120   24.0920 N   0  0  0  0  0  0  0  0  0  0  0  0
    8.4760   -5.9840   24.2340 N   0  0  0  0  0  0  0  0  0  0  0  0
    7.5910   -6.8870   23.9900 C   0  0  0  0  0  0  0  0  0  0  0  0
    6.0370   -6.2840   23.5230 S   0  0  0  0  0  0  0  0  0  0  0  0
    7.7820   -7.9480   24.0580 H   0  0  0  0  0  0  0  0  0  0  0  0
    5.0710   -3.6170   23.1680 H   0  0  0  0  0  0  0  0  0  0  0  0
    5.7920   -1.5080   23.7700 H   0  0  0  0  0  0  0  0  0  0  0  0
    7.1400   -2.2650   24.6430 H   0  0  0  0  0  0  0  0  0  0  0  0
    8.3320   -2.6590   22.5940 H   0  0  0  0  0  0  0  0  0  0  0  0
    7.5150   -2.3310   20.4330 H   0  0  0  0  0  0  0  0  0  0  0  0
    5.9030   -2.2800   21.1740 H   0  0  0  0  0  0  0  0  0  0  0  0
    9.7140   -2.1630   21.0000 H   0  0  0  0  0  0  0  0  0  0  0  0
   13.6010   -0.5340   21.9470 H   0  0  0  0  0  0  0  0  0  0  0  0
   12.5750    1.1170   23.3230 H   0  0  0  0  0  0  0  0  0  0  0  0
  1  2  2  0  0  0  0
  2  3  1  0  0  0  0
  2 12  1  0  0  0  0
  3  4  2  0  0  0  0
  3  9  1  0  0  0  0
  4  5  1  0  0  0  0
  4 64  1  0  0  0  0
  5  6  2  0  0  0  0
  5 63  1  0  0  0  0
  6  7  1  0  0  0  0
  6  8  1  0  0  0  0
  8  9  2  0  0  0  0
  8 62  1  0  0  0  0
 10  9  1  6  0  0  0
 10 11  1  0  0  0  0
 10 27  1  0  0  0  0
 10 47  1  0  0  0  0
 11 12  1  0  0  0  0
 11 25  1  0  0  0  0
 11 26  1  0  0  0  0
 12 13  1  0  0  0  0
 13 14  1  0  0  0  0
 13 23  1  0  0  0  0
 13 24  1  0  0  0  0
 14 15  2  0  0  0  0
 14 19  1  0  0  0  0
 15 16  1  0  0  0  0
 15 22  1  0  0  0  0
 16 17  2  0  0  0  0
 16 21  1  0  0  0  0
 17 18  1  0  0  0  0
 18 19  2  0  0  0  0
 19 20  1  0  0  0  0
 27 28  2  0  0  0  0
 27 29  1  0  0  0  0
 29 30  1  0  0  0  0
 29 46  1  0  0  0  0
 30 31  2  0  0  0  0
 30 39  1  0  0  0  0
 31 32  1  0  0  0  0
 31 45  1  0  0  0  0
 32 33  2  0  0  0  0
 33 34  1  0  0  0  0
 33 44  1  0  0  0  0
 34 35  2  0  0  0  0
 34 39  1  0  0  0  0
 35 36  1  0  0  0  0
 35 43  1  0  0  0  0
 36 37  2  0  0  0  0
 36 42  1  0  0  0  0
 37 38  1  0  0  0  0
 37 41  1  0  0  0  0
 38 39  2  0  0  0  0
 38 40  1  0  0  0  0
 46 47  1  0  0  0  0
 46 60  1  0  0  0  0
 46 61  1  0  0  0  0
 47 48  1  0  0  0  0
 47 59  1  6  0  0  0
 48 49  1  0  0  0  0
 48 57  1  0  0  0  0
 48 58  1  0  0  0  0
 49 50  1  0  0  0  0
 49 56  1  0  0  0  0
 50 51  2  0  0  0  0
 50 54  1  0  0  0  0
 51 52  1  0  0  0  0
 52 53  2  0  0  0  0
 53 54  1  0  0  0  0
 53 55  1  0  0  0  0
M  END
>  <MODEL>
       1

$$$$
