output/tmp_first_model_15_94.pdb
 OpenBabel07232601353D

 65 69  0  0  0  0  0  0  0  0999 V2000
    1.5640   -8.5910   24.6180 C   0  0  0  0  0  0  0  0  0  0  0  0
    2.7570   -8.2140   23.7360 C   0  0  0  0  0  0  0  0  0  0  0  0
    2.7300   -6.7410   23.4010 C   0  0  0  0  0  0  0  0  0  0  0  0
    1.9690   -6.2140   22.6310 O   0  0  0  0  0  0  0  0  0  0  0  0
    3.7480   -5.9200   24.1160 N   0  3  0  0  0  0  0  0  0  0  0  0
    3.1400   -4.8290   25.0110 C   0  0  0  0  0  0  0  0  0  0  0  0
    4.2250   -3.8460   25.3770 C   0  0  0  0  0  0  0  0  0  0  0  0
    4.7560   -3.2150   24.0960 C   0  0  0  0  0  0  0  0  0  0  0  0
    5.4470   -4.2480   23.2450 C   0  0  0  0  0  0  0  0  0  0  0  0
    6.6160   -3.9990   22.5160 C   0  0  0  0  0  0  0  0  0  0  0  0
    7.0580   -2.6610   22.3330 N   0  0  0  0  0  0  0  0  0  0  0  0
    8.4420   -2.3660   22.7330 C   0  0  0  0  0  0  0  0  0  0  0  0
    8.7670   -3.0570   24.0400 C   0  0  0  0  0  0  0  0  0  0  0  0
    9.5990   -4.1760   24.0990 C   0  0  0  0  0  0  0  0  0  0  0  0
    9.7410   -4.8950   25.2840 C   0  0  0  0  0  0  0  0  0  0  0  0
    9.0230   -4.5310   26.4190 C   0  0  0  0  0  0  0  0  0  0  0  0
    8.1990   -3.4160   26.3500 C   0  0  0  0  0  0  0  0  0  0  0  0
    7.2330   -2.9760   27.7390 Cl  0  0  0  0  0  0  0  0  0  0  0  0
    8.0980   -2.6530   25.1930 C   0  0  0  0  0  0  0  0  0  0  0  0
    7.4850   -1.7560   25.2030 H   0  0  0  0  0  0  0  0  0  0  0  0
    9.0790   -5.1110   27.3380 H   0  0  0  0  0  0  0  0  0  0  0  0
   10.3810   -5.7740   25.3150 H   0  0  0  0  0  0  0  0  0  0  0  0
   10.0730   -4.5360   23.1870 H   0  0  0  0  0  0  0  0  0  0  0  0
    8.5400   -1.2820   22.8580 H   0  0  0  0  0  0  0  0  0  0  0  0
    9.1600   -2.6810   21.9600 H   0  0  0  0  0  0  0  0  0  0  0  0
    6.2750   -1.9220   21.4550 C   0  0  0  0  0  0  0  0  0  0  0  0
    5.1740   -2.3140   21.1140 O   0  0  0  0  0  0  0  0  0  0  0  0
    6.8780   -0.6170   20.9310 C   0  0  0  0  0  0  0  0  0  0  0  0
    6.0950   -0.0020   19.8060 C   0  0  0  0  0  0  0  0  0  0  0  0
    6.4430   -0.2650   18.5090 C   0  0  0  0  0  0  0  0  0  0  0  0
    5.8090    0.2130   17.4100 N   0  0  0  0  0  0  0  0  0  0  0  0
    4.7790    0.9970   17.6090 C   0  0  0  0  0  0  0  0  0  0  0  0
    4.2950    1.3580   18.8960 C   0  0  0  0  0  0  0  0  0  0  0  0
    3.1820    2.2190   19.0650 C   0  0  0  0  0  0  0  0  0  0  0  0
    2.7610    2.5740   20.3190 C   0  0  0  0  0  0  0  0  0  0  0  0
    3.4340    2.0740   21.4570 C   0  0  0  0  0  0  0  0  0  0  0  0
    4.5060    1.2270   21.3190 C   0  0  0  0  0  0  0  0  0  0  0  0
    4.9710    0.8500   20.0310 C   0  0  0  0  0  0  0  0  0  0  0  0
    5.0080    0.8360   22.1990 H   0  0  0  0  0  0  0  0  0  0  0  0
    3.1000    2.3680   22.4490 H   0  0  0  0  0  0  0  0  0  0  0  0
    1.9190    3.2480   20.4420 H   0  0  0  0  0  0  0  0  0  0  0  0
    2.6930    2.6070   18.1750 H   0  0  0  0  0  0  0  0  0  0  0  0
    4.2780    1.3850   16.7220 H   0  0  0  0  0  0  0  0  0  0  0  0
    7.3020   -0.9000   18.2900 H   0  0  0  0  0  0  0  0  0  0  0  0
    6.9860    0.0820   21.7690 H   0  0  0  0  0  0  0  0  0  0  0  0
    7.8890   -0.8460   20.5710 H   0  0  0  0  0  0  0  0  0  0  0  0
    7.3500   -5.0300   21.9440 C   0  0  0  0  0  0  0  0  0  0  0  0
    6.8430   -6.3210   21.9610 C   0  0  0  0  0  0  0  0  0  0  0  0
    5.6110   -6.5620   22.5620 C   0  0  0  0  0  0  0  0  0  0  0  0
    4.9600   -5.5420   23.2510 C   0  0  0  0  0  0  0  0  0  0  0  0
    5.1920   -7.5600   22.5370 H   0  0  0  0  0  0  0  0  0  0  0  0
    7.4330   -7.1260   21.5380 H   0  0  0  0  0  0  0  0  0  0  0  0
    8.3030   -4.8070   21.4680 H   0  0  0  0  0  0  0  0  0  0  0  0
    5.4210   -2.3830   24.3250 H   0  0  0  0  0  0  0  0  0  0  0  0
    3.9280   -2.7930   23.5170 H   0  0  0  0  0  0  0  0  0  0  0  0
    5.0290   -4.3520   25.9320 H   0  0  0  0  0  0  0  0  0  0  0  0
    3.8110   -3.0890   26.0550 H   0  0  0  0  0  0  0  0  0  0  0  0
    2.3370   -4.3450   24.4460 H   0  0  0  0  0  0  0  0  0  0  0  0
    2.7090   -5.3060   25.9000 H   0  0  0  0  0  0  0  0  0  0  0  0
    4.1660   -6.5900   24.7980 H   0  0  0  0  0  0  0  0  0  0  0  0
    3.6790   -8.4230   24.2920 H   0  0  0  0  0  0  0  0  0  0  0  0
    2.7890   -8.7970   22.8110 H   0  0  0  0  0  0  0  0  0  0  0  0
    0.6090   -8.5210   24.0980 H   0  0  0  0  0  0  0  0  0  0  0  0
    1.5190   -7.9200   25.4810 H   0  0  0  0  0  0  0  0  0  0  0  0
    1.6510   -9.6170   24.9830 H   0  0  0  0  0  0  0  0  0  0  0  0
  1  2  1  0  0  0  0
  1 63  1  0  0  0  0
  1 64  1  0  0  0  0
  1 65  1  0  0  0  0
  2  3  1  0  0  0  0
  2 61  1  0  0  0  0
  2 62  1  0  0  0  0
  3  4  2  0  0  0  0
  3  5  1  0  0  0  0
  5  6  1  0  0  0  0
  5 50  1  0  0  0  0
  5 60  1  0  0  0  0
  6  7  1  0  0  0  0
  6 58  1  0  0  0  0
  6 59  1  0  0  0  0
  7  8  1  0  0  0  0
  7 56  1  0  0  0  0
  7 57  1  0  0  0  0
  8  9  1  0  0  0  0
  8 54  1  0  0  0  0
  8 55  1  0  0  0  0
  9 10  2  0  0  0  0
  9 50  1  0  0  0  0
 10 11  1  0  0  0  0
 10 47  1  0  0  0  0
 11 12  1  0  0  0  0
 11 26  1  0  0  0  0
 12 13  1  0  0  0  0
 12 24  1  0  0  0  0
 12 25  1  0  0  0  0
 13 14  2  0  0  0  0
 13 19  1  0  0  0  0
 14 15  1  0  0  0  0
 14 23  1  0  0  0  0
 15 16  2  0  0  0  0
 15 22  1  0  0  0  0
 16 17  1  0  0  0  0
 16 21  1  0  0  0  0
 17 18  1  0  0  0  0
 17 19  2  0  0  0  0
 19 20  1  0  0  0  0
 26 27  2  0  0  0  0
 26 28  1  0  0  0  0
 28 29  1  0  0  0  0
 28 45  1  0  0  0  0
 28 46  1  0  0  0  0
 29 30  2  0  0  0  0
 29 38  1  0  0  0  0
 30 31  1  0  0  0  0
 30 44  1  0  0  0  0
 31 32  2  0  0  0  0
 32 33  1  0  0  0  0
 32 43  1  0  0  0  0
 33 34  2  0  0  0  0
 33 38  1  0  0  0  0
 34 35  1  0  0  0  0
 34 42  1  0  0  0  0
 35 36  2  0  0  0  0
 35 41  1  0  0  0  0
 36 37  1  0  0  0  0
 36 40  1  0  0  0  0
 37 38  2  0  0  0  0
 37 39  1  0  0  0  0
 47 48  2  0  0  0  0
 47 53  1  0  0  0  0
 48 49  1  0  0  0  0
 48 52  1  0  0  0  0
 49 50  2  0  0  0  0
 49 51  1  0  0  0  0
M  CHG  1   5   1
M  END
>  <MODEL>
       1

$$$$
