output/tmp_first_model_8_43.pdb
 OpenBabel07222622353D

 62 67  0  0  1  0  0  0  0  0999 V2000
   13.5170   -1.5040   24.1810 C   0  0  0  0  0  0  0  0  0  0  0  0
   12.7190   -0.4470   23.4190 C   0  0  0  0  0  0  0  0  0  0  0  0
   12.5910   -0.6540   21.9700 N   0  0  0  0  0  0  0  0  0  0  0  0
   13.4450    0.0020   21.1540 N   0  0  0  0  0  0  0  0  0  0  0  0
   13.4710   -0.6970   20.0200 C   0  0  0  0  0  0  0  0  0  0  0  0
   12.5980   -1.7970   20.0690 C   0  0  0  0  0  0  0  0  0  0  0  0
   12.0450   -1.7290   21.3270 C   0  0  0  0  0  0  0  0  0  0  0  0
   11.3020   -2.8480   21.9410 C   0  0  0  0  0  0  0  0  0  0  0  0
   10.1080   -2.5340   22.6880 N   0  0  0  0  0  0  0  0  0  0  0  0
    8.9600   -2.3630   21.8050 C   0  0  0  0  0  0  0  0  0  0  0  0
    7.7610   -1.7830   22.5650 C   0  0  2  0  0  0  0  0  0  0  0  0
    6.6270   -1.7730   21.5300 C   0  0  0  0  0  0  0  0  0  0  0  0
    5.8660   -2.6750   21.2350 O   0  0  0  0  0  0  0  0  0  0  0  0
    6.6470   -0.5400   20.9230 N   0  0  0  0  0  0  0  0  0  0  0  0
    5.7180   -0.2490   19.9080 C   0  0  0  0  0  0  0  0  0  0  0  0
    5.9150   -0.7320   18.6450 C   0  0  0  0  0  0  0  0  0  0  0  0
    5.1020   -0.4510   17.5970 N   0  0  0  0  0  0  0  0  0  0  0  0
    4.0030    0.2210   17.8580 C   0  0  0  0  0  0  0  0  0  0  0  0
    3.6120    0.6320   19.1730 C   0  0  0  0  0  0  0  0  0  0  0  0
    2.3710    1.2480   19.4710 C   0  0  0  0  0  0  0  0  0  0  0  0
    2.0850    1.6870   20.7310 C   0  0  0  0  0  0  0  0  0  0  0  0
    3.0330    1.5690   21.7710 C   0  0  0  0  0  0  0  0  0  0  0  0
    4.2440    0.9800   21.5240 C   0  0  0  0  0  0  0  0  0  0  0  0
    4.5380    0.4770   20.2240 C   0  0  0  0  0  0  0  0  0  0  0  0
    4.9650    0.8670   22.3310 H   0  0  0  0  0  0  0  0  0  0  0  0
    2.7980    1.9270   22.7670 H   0  0  0  0  0  0  0  0  0  0  0  0
    1.1170    2.1280   20.9430 H   0  0  0  0  0  0  0  0  0  0  0  0
    1.6580    1.4120   18.6800 H   0  0  0  0  0  0  0  0  0  0  0  0
    3.3510    0.4350   17.0080 H   0  0  0  0  0  0  0  0  0  0  0  0
    6.7750   -1.3690   18.4450 H   0  0  0  0  0  0  0  0  0  0  0  0
    7.6120    0.3790   21.4940 C   0  0  0  0  0  0  0  0  0  0  0  0
    7.9020   -0.2500   22.8620 C   0  0  2  0  0  0  0  0  0  0  0  0
    9.1980    0.2820   23.4560 C   0  0  0  0  0  0  0  0  0  0  0  0
   10.0440    0.0200   22.8210 H   0  0  0  0  0  0  0  0  0  0  0  0
    9.1630    1.3760   23.5130 H   0  0  0  0  0  0  0  0  0  0  0  0
    9.3920   -0.0980   24.4640 H   0  0  0  0  0  0  0  0  0  0  0  0
    7.0730   -0.0010   23.5390 H   0  0  0  0  0  0  0  0  0  0  0  0
    8.5280    0.4110   20.8810 H   0  0  0  0  0  0  0  0  0  0  0  0
    7.2170    1.3980   21.5470 H   0  0  0  0  0  0  0  0  0  0  0  0
    7.5020   -2.6990   23.7340 C   0  0  0  0  0  0  0  0  0  0  0  0
    6.1990   -2.9360   24.1850 C   0  0  0  0  0  0  0  0  0  0  0  0
    5.9880   -3.9170   25.1320 C   0  0  0  0  0  0  0  0  0  0  0  0
    4.7270   -4.1830   25.5100 F   0  0  0  0  0  0  0  0  0  0  0  0
    7.0200   -4.6460   25.7120 C   0  0  0  0  0  0  0  0  0  0  0  0
    8.3110   -4.3670   25.3120 C   0  0  0  0  0  0  0  0  0  0  0  0
    8.5530   -3.4110   24.3300 C   0  0  0  0  0  0  0  0  0  0  0  0
    9.9570   -3.2390   23.8690 C   0  0  0  0  0  0  0  0  0  0  0  0
   10.9070   -3.7060   24.4860 O   0  0  0  0  0  0  0  0  0  0  0  0
    9.1640   -4.9010   25.7180 H   0  0  0  0  0  0  0  0  0  0  0  0
    6.7960   -5.4110   26.4480 H   0  0  0  0  0  0  0  0  0  0  0  0
    5.3520   -2.4080   23.7580 H   0  0  0  0  0  0  0  0  0  0  0  0
    9.2550   -1.7220   20.9660 H   0  0  0  0  0  0  0  0  0  0  0  0
    8.6300   -3.3260   21.3780 H   0  0  0  0  0  0  0  0  0  0  0  0
   11.9640   -3.4160   22.6040 H   0  0  0  0  0  0  0  0  0  0  0  0
   11.0190   -3.4540   21.0700 H   0  0  0  0  0  0  0  0  0  0  0  0
   12.5110   -2.6320   19.3810 H   0  0  0  0  0  0  0  0  0  0  0  0
   14.1620   -0.4530   19.2210 H   0  0  0  0  0  0  0  0  0  0  0  0
   11.7250   -0.3890   23.8630 H   0  0  0  0  0  0  0  0  0  0  0  0
   13.1870    0.5340   23.5140 H   0  0  0  0  0  0  0  0  0  0  0  0
   12.9860   -2.4560   24.2290 H   0  0  0  0  0  0  0  0  0  0  0  0
   13.6490   -1.1670   25.2120 H   0  0  0  0  0  0  0  0  0  0  0  0
   14.5030   -1.6890   23.7620 H   0  0  0  0  0  0  0  0  0  0  0  0
  1  2  1  0  0  0  0
  1 60  1  0  0  0  0
  1 61  1  0  0  0  0
  1 62  1  0  0  0  0
  2  3  1  0  0  0  0
  2 58  1  0  0  0  0
  2 59  1  0  0  0  0
  3  4  1  0  0  0  0
  3  7  1  0  0  0  0
  4  5  2  0  0  0  0
  5  6  1  0  0  0  0
  5 57  1  0  0  0  0
  6  7  2  0  0  0  0
  6 56  1  0  0  0  0
  7  8  1  0  0  0  0
  8  9  1  0  0  0  0
  8 54  1  0  0  0  0
  8 55  1  0  0  0  0
  9 10  1  0  0  0  0
  9 47  1  0  0  0  0
 10 11  1  0  0  0  0
 10 52  1  0  0  0  0
 10 53  1  0  0  0  0
 11 12  1  6  0  0  0
 11 32  1  0  0  0  0
 11 40  1  0  0  0  0
 12 13  2  0  0  0  0
 12 14  1  0  0  0  0
 14 15  1  0  0  0  0
 14 31  1  0  0  0  0
 15 16  2  0  0  0  0
 15 24  1  0  0  0  0
 16 17  1  0  0  0  0
 16 30  1  0  0  0  0
 17 18  2  0  0  0  0
 18 19  1  0  0  0  0
 18 29  1  0  0  0  0
 19 20  2  0  0  0  0
 19 24  1  0  0  0  0
 20 21  1  0  0  0  0
 20 28  1  0  0  0  0
 21 22  2  0  0  0  0
 21 27  1  0  0  0  0
 22 23  1  0  0  0  0
 22 26  1  0  0  0  0
 23 24  2  0  0  0  0
 23 25  1  0  0  0  0
 31 32  1  0  0  0  0
 31 38  1  0  0  0  0
 31 39  1  0  0  0  0
 32 33  1  0  0  0  0
 32 37  1  1  0  0  0
 33 34  1  0  0  0  0
 33 35  1  0  0  0  0
 33 36  1  0  0  0  0
 40 41  2  0  0  0  0
 40 46  1  0  0  0  0
 41 42  1  0  0  0  0
 41 51  1  0  0  0  0
 42 43  1  0  0  0  0
 42 44  2  0  0  0  0
 44 45  1  0  0  0  0
 44 50  1  0  0  0  0
 45 46  2  0  0  0  0
 45 49  1  0  0  0  0
 46 47  1  0  0  0  0
 47 48  2  0  0  0  0
M  END
>  <MODEL>
       1

$$$$
