output/tmp_first_model_14_95.pdb
 OpenBabel07232601073D

 67 71  0  0  1  0  0  0  0  0999 V2000
    4.9010   -3.0880   18.7990 C   0  0  0  0  0  0  0  0  0  0  0  0
    5.2210   -3.8120   20.0160 N   0  0  0  0  0  0  0  0  0  0  0  0
    5.8240   -5.0230   20.0700 C   0  0  0  0  0  0  0  0  0  0  0  0
    5.7530   -5.8870   19.2110 O   0  0  0  0  0  0  0  0  0  0  0  0
    6.7180   -5.2830   21.2940 C   0  0  0  0  0  0  0  0  0  0  0  0
    6.8260   -4.2270   22.2850 N   0  0  0  0  0  0  0  0  0  0  0  0
    7.8650   -3.2000   22.2130 C   0  0  0  0  0  0  0  0  0  0  0  0
    7.3550   -1.8160   22.7070 C   0  0  2  0  0  0  0  0  0  0  0  0
    6.2750   -1.2710   21.7470 C   0  0  0  0  0  0  0  0  0  0  0  0
    5.0990   -1.6060   21.7060 O   0  0  0  0  0  0  0  0  0  0  0  0
    6.8310   -0.3520   20.9050 N   0  0  0  0  0  0  0  0  0  0  0  0
    6.1550    0.2130   19.8140 C   0  0  0  0  0  0  0  0  0  0  0  0
    6.6340    0.0230   18.5440 C   0  0  0  0  0  0  0  0  0  0  0  0
    5.9710    0.3960   17.4290 N   0  0  0  0  0  0  0  0  0  0  0  0
    4.8480    1.0620   17.5880 C   0  0  0  0  0  0  0  0  0  0  0  0
    4.3100    1.4220   18.8570 C   0  0  0  0  0  0  0  0  0  0  0  0
    3.1560    2.2400   18.9900 C   0  0  0  0  0  0  0  0  0  0  0  0
    2.7030    2.6090   20.2280 C   0  0  0  0  0  0  0  0  0  0  0  0
    3.3590    2.1590   21.3950 C   0  0  0  0  0  0  0  0  0  0  0  0
    4.4620    1.3510   21.2970 C   0  0  0  0  0  0  0  0  0  0  0  0
    4.9690    0.9780   20.0200 C   0  0  0  0  0  0  0  0  0  0  0  0
    4.9570    0.9910   22.1930 H   0  0  0  0  0  0  0  0  0  0  0  0
    2.9960    2.4630   22.3740 H   0  0  0  0  0  0  0  0  0  0  0  0
    1.8440    3.2680   20.3240 H   0  0  0  0  0  0  0  0  0  0  0  0
    2.6640    2.5900   18.0860 H   0  0  0  0  0  0  0  0  0  0  0  0
    4.3230    1.3640   16.6830 H   0  0  0  0  0  0  0  0  0  0  0  0
    7.5690   -0.5170   18.3880 H   0  0  0  0  0  0  0  0  0  0  0  0
    8.2290   -0.1220   21.1460 C   0  0  0  0  0  0  0  0  0  0  0  0
    8.4120   -0.6660   22.5690 C   0  0  2  0  0  0  0  0  0  0  0  0
    9.9000   -0.8530   22.8810 C   0  0  0  0  0  0  0  0  0  0  0  0
   10.6130    0.8120   23.0950 S   0  0  0  0  0  0  0  0  0  0  0  0
   10.1730    1.2900   24.4010 O   0  0  0  0  0  0  0  0  0  0  0  0
   10.3130    1.5990   21.9060 O   0  0  0  0  0  0  0  0  0  0  0  0
   12.2800    0.6010   23.0970 N   0  0  0  0  0  0  0  0  0  0  0  0
   12.7810   -0.0120   24.3200 C   0  0  0  0  0  0  0  0  0  0  0  0
   12.4000   -1.0330   24.4080 H   0  0  0  0  0  0  0  0  0  0  0  0
   12.4940    0.5650   25.2080 H   0  0  0  0  0  0  0  0  0  0  0  0
   13.8700   -0.0730   24.2550 H   0  0  0  0  0  0  0  0  0  0  0  0
   13.0210    1.8030   22.6900 C   0  0  0  0  0  0  0  0  0  0  0  0
   12.9420    2.6270   23.4130 H   0  0  0  0  0  0  0  0  0  0  0  0
   14.0710    1.5250   22.5680 H   0  0  0  0  0  0  0  0  0  0  0  0
   12.6420    2.1420   21.7290 H   0  0  0  0  0  0  0  0  0  0  0  0
   10.4360   -1.3450   22.0590 H   0  0  0  0  0  0  0  0  0  0  0  0
   10.0700   -1.4160   23.8050 H   0  0  0  0  0  0  0  0  0  0  0  0
    8.0540    0.1090   23.2440 H   0  0  0  0  0  0  0  0  0  0  0  0
    8.4490    0.9400   21.0850 H   0  0  0  0  0  0  0  0  0  0  0  0
    8.8740   -0.6550   20.4340 H   0  0  0  0  0  0  0  0  0  0  0  0
    6.7460   -2.0290   24.0820 C   0  0  0  0  0  0  0  0  0  0  0  0
    6.6890   -1.0200   25.0460 C   0  0  0  0  0  0  0  0  0  0  0  0
    6.2210   -1.3200   26.3100 C   0  0  0  0  0  0  0  0  0  0  0  0
    6.2080   -0.3450   27.2320 F   0  0  0  0  0  0  0  0  0  0  0  0
    5.7720   -2.5830   26.6760 C   0  0  0  0  0  0  0  0  0  0  0  0
    5.7080   -3.5470   25.6890 C   0  0  0  0  0  0  0  0  0  0  0  0
    6.1390   -3.2580   24.3930 C   0  0  0  0  0  0  0  0  0  0  0  0
    5.9300   -4.2780   23.3190 C   0  0  0  0  0  0  0  0  0  0  0  0
    5.0300   -5.1050   23.3540 O   0  0  0  0  0  0  0  0  0  0  0  0
    5.3260   -4.5400   25.9070 H   0  0  0  0  0  0  0  0  0  0  0  0
    5.4850   -2.7910   27.7010 H   0  0  0  0  0  0  0  0  0  0  0  0
    7.0100   -0.0070   24.8450 H   0  0  0  0  0  0  0  0  0  0  0  0
    8.7260   -3.4800   22.8360 H   0  0  0  0  0  0  0  0  0  0  0  0
    8.2000   -3.1330   21.1800 H   0  0  0  0  0  0  0  0  0  0  0  0
    7.7050   -5.5390   20.8940 H   0  0  0  0  0  0  0  0  0  0  0  0
    6.3120   -6.1750   21.7720 H   0  0  0  0  0  0  0  0  0  0  0  0
    5.1990   -3.2380   20.8490 H   0  0  0  0  0  0  0  0  0  0  0  0
    5.5110   -3.4650   17.9800 H   0  0  0  0  0  0  0  0  0  0  0  0
    3.8500   -3.1340   18.5160 H   0  0  0  0  0  0  0  0  0  0  0  0
    5.1450   -2.0310   18.9540 H   0  0  0  0  0  0  0  0  0  0  0  0
  1  2  1  0  0  0  0
  1 65  1  0  0  0  0
  1 66  1  0  0  0  0
  1 67  1  0  0  0  0
  2  3  1  0  0  0  0
  2 64  1  0  0  0  0
  3  4  2  0  0  0  0
  3  5  1  0  0  0  0
  5  6  1  0  0  0  0
  5 62  1  0  0  0  0
  5 63  1  0  0  0  0
  6  7  1  0  0  0  0
  6 55  1  0  0  0  0
  7  8  1  0  0  0  0
  7 60  1  0  0  0  0
  7 61  1  0  0  0  0
  8  9  1  6  0  0  0
  8 29  1  0  0  0  0
  8 48  1  0  0  0  0
  9 10  2  0  0  0  0
  9 11  1  0  0  0  0
 11 12  1  0  0  0  0
 11 28  1  0  0  0  0
 12 13  2  0  0  0  0
 12 21  1  0  0  0  0
 13 14  1  0  0  0  0
 13 27  1  0  0  0  0
 14 15  2  0  0  0  0
 15 16  1  0  0  0  0
 15 26  1  0  0  0  0
 16 17  2  0  0  0  0
 16 21  1  0  0  0  0
 17 18  1  0  0  0  0
 17 25  1  0  0  0  0
 18 19  2  0  0  0  0
 18 24  1  0  0  0  0
 19 20  1  0  0  0  0
 19 23  1  0  0  0  0
 20 21  2  0  0  0  0
 20 22  1  0  0  0  0
 28 29  1  0  0  0  0
 28 46  1  0  0  0  0
 28 47  1  0  0  0  0
 29 30  1  0  0  0  0
 29 45  1  1  0  0  0
 30 31  1  0  0  0  0
 30 43  1  0  0  0  0
 30 44  1  0  0  0  0
 31 32  2  0  0  0  0
 31 33  2  0  0  0  0
 31 34  1  0  0  0  0
 34 35  1  0  0  0  0
 34 39  1  0  0  0  0
 35 36  1  0  0  0  0
 35 37  1  0  0  0  0
 35 38  1  0  0  0  0
 39 40  1  0  0  0  0
 39 41  1  0  0  0  0
 39 42  1  0  0  0  0
 48 49  2  0  0  0  0
 48 54  1  0  0  0  0
 49 50  1  0  0  0  0
 49 59  1  0  0  0  0
 50 51  1  0  0  0  0
 50 52  2  0  0  0  0
 52 53  1  0  0  0  0
 52 58  1  0  0  0  0
 53 54  2  0  0  0  0
 53 57  1  0  0  0  0
 54 55  1  0  0  0  0
 55 56  2  0  0  0  0
M  END
>  <MODEL>
       1

$$$$
