output/tmp_first_model_7_76.pdb
 OpenBabel07222621533D

 61 65  0  0  1  0  0  0  0  0999 V2000
    7.6150   -2.8770   23.6330 C   0  0  0  0  0  0  0  0  0  0  0  0
    7.7930   -2.0910   22.3330 C   0  0  1  0  0  0  0  0  0  0  0  0
    6.4470   -1.6160   21.7620 C   0  0  0  0  0  0  0  0  0  0  0  0
    6.7730   -0.4390   20.9690 N   0  0  0  0  0  0  0  0  0  0  0  0
    5.9710    0.0600   19.9060 C   0  0  0  0  0  0  0  0  0  0  0  0
    6.4700    0.0850   18.6240 C   0  0  0  0  0  0  0  0  0  0  0  0
    5.7720    0.4840   17.5350 N   0  0  0  0  0  0  0  0  0  0  0  0
    4.5560    0.9350   17.7110 C   0  0  0  0  0  0  0  0  0  0  0  0
    3.8970    0.9650   18.9690 C   0  0  0  0  0  0  0  0  0  0  0  0
    2.5890    1.5010   19.1140 C   0  0  0  0  0  0  0  0  0  0  0  0
    1.9760    1.5120   20.3330 C   0  0  0  0  0  0  0  0  0  0  0  0
    2.6520    1.0020   21.4640 C   0  0  0  0  0  0  0  0  0  0  0  0
    3.9270    0.4960   21.3480 C   0  0  0  0  0  0  0  0  0  0  0  0
    4.6060    0.4870   20.1010 C   0  0  0  0  0  0  0  0  0  0  0  0
    4.4350    0.1300   22.2310 H   0  0  0  0  0  0  0  0  0  0  0  0
    2.1570    1.0170   22.4310 H   0  0  0  0  0  0  0  0  0  0  0  0
    0.9750    1.9240   20.4420 H   0  0  0  0  0  0  0  0  0  0  0  0
    2.0960    1.9040   18.2280 H   0  0  0  0  0  0  0  0  0  0  0  0
    4.0180    1.2600   16.8200 H   0  0  0  0  0  0  0  0  0  0  0  0
    7.4910   -0.2330   18.4280 H   0  0  0  0  0  0  0  0  0  0  0  0
    8.0510    0.0220   21.2160 C   0  0  0  0  0  0  0  0  0  0  0  0
    8.5550    0.9720   20.6430 O   0  0  0  0  0  0  0  0  0  0  0  0
    8.6710   -0.7990   22.3920 C   0  0  1  0  0  0  0  0  0  0  0  0
    8.4150   -0.0150   23.7100 C   0  0  0  0  0  0  0  0  0  0  0  0
    9.3600    1.0690   23.9250 N   0  0  0  0  0  0  0  0  0  0  0  0
    8.9000    2.3790   24.3490 C   0  0  0  0  0  0  0  0  0  0  0  0
    8.8470    3.3850   23.1940 C   0  0  0  0  0  0  0  0  0  0  0  0
   10.2160    3.8360   22.7510 N   0  3  0  0  0  0  0  0  0  0  0  0
   10.3230    5.3170   22.7420 C   0  0  0  0  0  0  0  0  0  0  0  0
    9.6100    5.7340   22.0190 H   0  0  0  0  0  0  0  0  0  0  0  0
   10.1080    5.7180   23.7360 H   0  0  0  0  0  0  0  0  0  0  0  0
   11.3350    5.6060   22.4440 H   0  0  0  0  0  0  0  0  0  0  0  0
   10.5960    3.3150   21.4110 C   0  0  0  0  0  0  0  0  0  0  0  0
   11.4160    3.9110   20.9970 H   0  0  0  0  0  0  0  0  0  0  0  0
   10.9360    2.2800   21.5100 H   0  0  0  0  0  0  0  0  0  0  0  0
    9.7440    3.3660   20.7260 H   0  0  0  0  0  0  0  0  0  0  0  0
   10.8990    3.4500   23.4150 H   0  0  0  0  0  0  0  0  0  0  0  0
    8.2870    4.2670   23.5190 H   0  0  0  0  0  0  0  0  0  0  0  0
    8.3320    2.9470   22.3330 H   0  0  0  0  0  0  0  0  0  0  0  0
    9.5910    2.7440   25.1150 H   0  0  0  0  0  0  0  0  0  0  0  0
    7.9110    2.2600   24.7960 H   0  0  0  0  0  0  0  0  0  0  0  0
   10.6930    0.9000   23.7710 C   0  0  0  0  0  0  0  0  0  0  0  0
   11.5080    1.7520   24.1490 O   0  0  0  0  0  0  0  0  0  0  0  0
   11.1070   -0.3180   23.0170 C   0  0  0  0  0  0  0  0  0  0  0  0
   12.4670   -0.6200   22.9790 C   0  0  0  0  0  0  0  0  0  0  0  0
   12.9540   -1.5280   22.0560 C   0  0  0  0  0  0  0  0  0  0  0  0
   12.0420   -2.1440   21.1970 C   0  0  0  0  0  0  0  0  0  0  0  0
   12.6400   -3.1350   19.8910 Cl  0  0  0  0  0  0  0  0  0  0  0  0
   10.6760   -1.9600   21.3290 C   0  0  0  0  0  0  0  0  0  0  0  0
   10.1680   -1.0390   22.2580 C   0  0  0  0  0  0  0  0  0  0  0  0
   10.0170   -2.5260   20.6780 H   0  0  0  0  0  0  0  0  0  0  0  0
   14.0140   -1.7210   21.9650 H   0  0  0  0  0  0  0  0  0  0  0  0
   13.1340   -0.1040   23.6650 H   0  0  0  0  0  0  0  0  0  0  0  0
    7.4120    0.4210   23.6840 H   0  0  0  0  0  0  0  0  0  0  0  0
    8.4750   -0.7030   24.5620 H   0  0  0  0  0  0  0  0  0  0  0  0
    5.9600   -2.3720   21.1370 H   0  0  0  0  0  0  0  0  0  0  0  0
    5.7850   -1.3670   22.6010 H   0  0  0  0  0  0  0  0  0  0  0  0
    8.2490   -2.7600   21.5990 H   0  0  0  0  0  0  0  0  0  0  0  0
    7.0490   -2.2960   24.3710 H   0  0  0  0  0  0  0  0  0  0  0  0
    8.5740   -3.1540   24.0860 H   0  0  0  0  0  0  0  0  0  0  0  0
    7.0480   -3.7970   23.4490 H   0  0  0  0  0  0  0  0  0  0  0  0
  1  2  1  0  0  0  0
  1 59  1  0  0  0  0
  1 60  1  0  0  0  0
  1 61  1  0  0  0  0
  2  3  1  0  0  0  0
  2 23  1  0  0  0  0
  2 58  1  6  0  0  0
  3  4  1  0  0  0  0
  3 56  1  0  0  0  0
  3 57  1  0  0  0  0
  4  5  1  0  0  0  0
  4 21  1  0  0  0  0
  5  6  2  0  0  0  0
  5 14  1  0  0  0  0
  6  7  1  0  0  0  0
  6 20  1  0  0  0  0
  7  8  2  0  0  0  0
  8  9  1  0  0  0  0
  8 19  1  0  0  0  0
  9 10  2  0  0  0  0
  9 14  1  0  0  0  0
 10 11  1  0  0  0  0
 10 18  1  0  0  0  0
 11 12  2  0  0  0  0
 11 17  1  0  0  0  0
 12 13  1  0  0  0  0
 12 16  1  0  0  0  0
 13 14  2  0  0  0  0
 13 15  1  0  0  0  0
 21 22  2  0  0  0  0
 23 21  1  6  0  0  0
 23 24  1  0  0  0  0
 23 50  1  0  0  0  0
 24 25  1  0  0  0  0
 24 54  1  0  0  0  0
 24 55  1  0  0  0  0
 25 26  1  0  0  0  0
 25 42  1  0  0  0  0
 26 27  1  0  0  0  0
 26 40  1  0  0  0  0
 26 41  1  0  0  0  0
 27 28  1  0  0  0  0
 27 38  1  0  0  0  0
 27 39  1  0  0  0  0
 28 29  1  0  0  0  0
 28 33  1  0  0  0  0
 28 37  1  0  0  0  0
 29 30  1  0  0  0  0
 29 31  1  0  0  0  0
 29 32  1  0  0  0  0
 33 34  1  0  0  0  0
 33 35  1  0  0  0  0
 33 36  1  0  0  0  0
 42 43  2  0  0  0  0
 42 44  1  0  0  0  0
 44 45  2  0  0  0  0
 44 50  1  0  0  0  0
 45 46  1  0  0  0  0
 45 53  1  0  0  0  0
 46 47  2  0  0  0  0
 46 52  1  0  0  0  0
 47 48  1  0  0  0  0
 47 49  1  0  0  0  0
 49 50  2  0  0  0  0
 49 51  1  0  0  0  0
M  CHG  1  28   1
M  END
>  <MODEL>
       1

$$$$
