output/tmp_first_model_15_18.pdb
 OpenBabel07232601353D

 50 53  0  0  1  0  0  0  0  0999 V2000
    3.9010   -1.8260   29.3970 C   0  0  0  0  0  0  0  0  0  0  0  0
    3.9690   -2.1650   27.9150 C   0  0  1  0  0  0  0  0  0  0  0  0
    4.0170   -0.9060   27.0490 C   0  0  0  0  0  0  0  0  0  0  0  0
    4.1270   -1.2250   25.5560 C   0  0  0  0  0  0  0  0  0  0  0  0
    5.2860   -2.1850   25.1950 C   0  0  2  0  0  0  0  0  0  0  0  0
    6.6530   -1.4730   25.2920 C   0  0  0  0  0  0  0  0  0  0  0  0
    6.9250   -0.8660   23.9100 C   0  0  0  0  0  0  0  0  0  0  0  0
    6.0980   -1.6410   22.9920 N   0  0  0  0  0  0  0  0  0  0  0  0
    6.1460   -1.6280   21.6270 C   0  0  0  0  0  0  0  0  0  0  0  0
    5.5820   -2.4840   20.9630 O   0  0  0  0  0  0  0  0  0  0  0  0
    6.9090   -0.4850   20.9200 C   0  0  0  0  0  0  0  0  0  0  0  0
    6.1150    0.0920   19.7690 C   0  0  0  0  0  0  0  0  0  0  0  0
    6.4210   -0.2140   18.4670 C   0  0  0  0  0  0  0  0  0  0  0  0
    5.7550    0.2390   17.3720 N   0  0  0  0  0  0  0  0  0  0  0  0
    4.7340    1.0320   17.5770 C   0  0  0  0  0  0  0  0  0  0  0  0
    4.2850    1.4230   18.8690 C   0  0  0  0  0  0  0  0  0  0  0  0
    3.1600    2.2700   19.0450 C   0  0  0  0  0  0  0  0  0  0  0  0
    2.7480    2.6250   20.3010 C   0  0  0  0  0  0  0  0  0  0  0  0
    3.4410    2.1410   21.4320 C   0  0  0  0  0  0  0  0  0  0  0  0
    4.5330    1.3200   21.2880 C   0  0  0  0  0  0  0  0  0  0  0  0
    4.9900    0.9410   19.9970 C   0  0  0  0  0  0  0  0  0  0  0  0
    5.0480    0.9560   22.1720 H   0  0  0  0  0  0  0  0  0  0  0  0
    3.1050    2.4250   22.4240 H   0  0  0  0  0  0  0  0  0  0  0  0
    1.8920    3.2800   20.4360 H   0  0  0  0  0  0  0  0  0  0  0  0
    2.6420    2.6430   18.1650 H   0  0  0  0  0  0  0  0  0  0  0  0
    4.1990    1.3990   16.6990 H   0  0  0  0  0  0  0  0  0  0  0  0
    7.2660   -0.8670   18.2470 H   0  0  0  0  0  0  0  0  0  0  0  0
    7.8350   -0.9160   20.5180 H   0  0  0  0  0  0  0  0  0  0  0  0
    7.2120    0.3110   21.6100 H   0  0  0  0  0  0  0  0  0  0  0  0
    5.2290   -2.5790   23.7000 C   0  0  0  0  0  0  0  0  0  0  0  0
    5.5660   -3.6120   23.5480 H   0  0  0  0  0  0  0  0  0  0  0  0
    4.2100   -2.5260   23.3090 H   0  0  0  0  0  0  0  0  0  0  0  0
    7.9830   -0.9510   23.6500 H   0  0  0  0  0  0  0  0  0  0  0  0
    6.6510    0.1950   23.8870 H   0  0  0  0  0  0  0  0  0  0  0  0
    6.6760   -0.7050   26.0700 H   0  0  0  0  0  0  0  0  0  0  0  0
    7.4350   -2.1940   25.5540 H   0  0  0  0  0  0  0  0  0  0  0  0
    5.2160   -3.4240   26.1110 C   0  0  0  0  0  0  0  0  0  0  0  0
    5.1540   -3.0770   27.5990 C   0  0  0  0  0  0  0  0  0  0  0  0
    5.0910   -3.9940   28.1990 H   0  0  0  0  0  0  0  0  0  0  0  0
    6.0860   -2.5830   27.9020 H   0  0  0  0  0  0  0  0  0  0  0  0
    4.3270   -4.0140   25.8500 H   0  0  0  0  0  0  0  0  0  0  0  0
    6.0770   -4.0760   25.9180 H   0  0  0  0  0  0  0  0  0  0  0  0
    3.1810   -1.6850   25.2420 H   0  0  0  0  0  0  0  0  0  0  0  0
    4.2220   -0.2980   24.9770 H   0  0  0  0  0  0  0  0  0  0  0  0
    3.1210   -0.2970   27.2310 H   0  0  0  0  0  0  0  0  0  0  0  0
    4.8640   -0.2820   27.3640 H   0  0  0  0  0  0  0  0  0  0  0  0
    3.0560   -2.7120   27.6470 H   0  0  0  0  0  0  0  0  0  0  0  0
    3.0370   -1.1950   29.6230 H   0  0  0  0  0  0  0  0  0  0  0  0
    3.8340   -2.7310   30.0090 H   0  0  0  0  0  0  0  0  0  0  0  0
    4.8000   -1.2840   29.7070 H   0  0  0  0  0  0  0  0  0  0  0  0
  1  2  1  0  0  0  0
  1 48  1  0  0  0  0
  1 49  1  0  0  0  0
  1 50  1  0  0  0  0
  2  3  1  0  0  0  0
  2 38  1  0  0  0  0
  2 47  1  6  0  0  0
  3  4  1  0  0  0  0
  3 45  1  0  0  0  0
  3 46  1  0  0  0  0
  4 43  1  0  0  0  0
  4 44  1  0  0  0  0
  5  4  1  1  0  0  0
  5  6  1  0  0  0  0
  5 30  1  0  0  0  0
  5 37  1  0  0  0  0
  6  7  1  0  0  0  0
  6 35  1  0  0  0  0
  6 36  1  0  0  0  0
  7  8  1  0  0  0  0
  7 33  1  0  0  0  0
  7 34  1  0  0  0  0
  8  9  1  0  0  0  0
  8 30  1  0  0  0  0
  9 10  2  0  0  0  0
  9 11  1  0  0  0  0
 11 12  1  0  0  0  0
 11 28  1  0  0  0  0
 11 29  1  0  0  0  0
 12 13  2  0  0  0  0
 12 21  1  0  0  0  0
 13 14  1  0  0  0  0
 13 27  1  0  0  0  0
 14 15  2  0  0  0  0
 15 16  1  0  0  0  0
 15 26  1  0  0  0  0
 16 17  2  0  0  0  0
 16 21  1  0  0  0  0
 17 18  1  0  0  0  0
 17 25  1  0  0  0  0
 18 19  2  0  0  0  0
 18 24  1  0  0  0  0
 19 20  1  0  0  0  0
 19 23  1  0  0  0  0
 20 21  2  0  0  0  0
 20 22  1  0  0  0  0
 30 31  1  0  0  0  0
 30 32  1  0  0  0  0
 37 38  1  0  0  0  0
 37 41  1  0  0  0  0
 37 42  1  0  0  0  0
 38 39  1  0  0  0  0
 38 40  1  0  0  0  0
M  END
>  <MODEL>
       1

$$$$
