output/tmp_first_model_7_51.pdb
 OpenBabel07222621533D

 67 73  0  0  1  0  0  0  0  0999 V2000
    8.9080   -5.4380   26.7740 C   0  0  0  0  0  0  0  0  0  0  0  0
    7.8510   -4.4100   26.5880 C   0  0  0  0  0  0  0  0  0  0  0  0
    6.6060   -4.5350   26.2650 N   0  0  0  0  0  0  0  0  0  0  0  0
    6.0860   -3.2410   26.1760 N   0  0  0  0  0  0  0  0  0  0  0  0
    7.0650   -2.4430   26.4600 C   0  0  0  0  0  0  0  0  0  0  0  0
    7.1430   -0.9520   26.4030 C   0  0  0  0  0  0  0  0  0  0  0  0
    8.0100   -0.5150   25.3110 N   0  0  0  0  0  0  0  0  0  0  0  0
    7.4390   -0.1460   24.0210 C   0  0  0  0  0  0  0  0  0  0  0  0
    8.3380   -0.4610   22.7860 C   0  0  2  0  0  0  0  0  0  0  0  0
    7.7180    0.3850   21.6410 C   0  0  0  0  0  0  0  0  0  0  0  0
    7.9060    1.5590   21.4070 O   0  0  0  0  0  0  0  0  0  0  0  0
    6.8100   -0.4180   20.9670 N   0  0  0  0  0  0  0  0  0  0  0  0
    5.9980    0.0530   19.8950 C   0  0  0  0  0  0  0  0  0  0  0  0
    6.4360   -0.0780   18.6030 C   0  0  0  0  0  0  0  0  0  0  0  0
    5.7800    0.3960   17.5140 N   0  0  0  0  0  0  0  0  0  0  0  0
    4.6040    0.9440   17.7030 C   0  0  0  0  0  0  0  0  0  0  0  0
    3.9840    1.0750   18.9770 C   0  0  0  0  0  0  0  0  0  0  0  0
    2.7100    1.6850   19.1330 C   0  0  0  0  0  0  0  0  0  0  0  0
    2.1120    1.7210   20.3610 C   0  0  0  0  0  0  0  0  0  0  0  0
    2.7630    1.1630   21.4840 C   0  0  0  0  0  0  0  0  0  0  0  0
    4.0080    0.5950   21.3600 C   0  0  0  0  0  0  0  0  0  0  0  0
    4.6760    0.5780   20.1100 C   0  0  0  0  0  0  0  0  0  0  0  0
    4.4890    0.1390   22.2170 H   0  0  0  0  0  0  0  0  0  0  0  0
    2.2830    1.1970   22.4550 H   0  0  0  0  0  0  0  0  0  0  0  0
    1.1400    2.1880   20.4870 H   0  0  0  0  0  0  0  0  0  0  0  0
    2.2130    2.0990   18.2570 H   0  0  0  0  0  0  0  0  0  0  0  0
    4.0660    1.2970   16.8220 H   0  0  0  0  0  0  0  0  0  0  0  0
    7.3770   -0.5910   18.4070 H   0  0  0  0  0  0  0  0  0  0  0  0
    6.8760   -1.8210   21.3270 C   0  0  0  0  0  0  0  0  0  0  0  0
    8.1510   -1.8950   22.1820 C   0  0  2  0  0  0  0  0  0  0  0  0
    8.1310   -3.0500   23.1890 C   0  0  0  0  0  0  0  0  0  0  0  0
    8.1600   -4.3660   22.5700 N   0  0  0  0  0  0  0  0  0  0  0  0
    7.0660   -5.0480   22.1270 C   0  0  0  0  0  0  0  0  0  0  0  0
    5.7690   -4.8580   22.6530 C   0  0  0  0  0  0  0  0  0  0  0  0
    4.7610   -5.6220   22.0870 C   0  0  0  0  0  0  0  0  0  0  0  0
    4.9800   -6.5020   21.1030 N   0  0  0  0  0  0  0  0  0  0  0  0
    6.2380   -6.6020   20.6980 C   0  0  0  0  0  0  0  0  0  0  0  0
    7.2980   -5.9530   21.1620 N   0  0  0  0  0  0  0  0  0  0  0  0
    6.4180   -7.2980   19.8790 H   0  0  0  0  0  0  0  0  0  0  0  0
    3.7260   -5.5230   22.4270 H   0  0  0  0  0  0  0  0  0  0  0  0
    5.5820   -4.1730   23.4790 H   0  0  0  0  0  0  0  0  0  0  0  0
    8.9970   -4.6140   22.0500 H   0  0  0  0  0  0  0  0  0  0  0  0
    7.2410   -2.9760   23.8260 H   0  0  0  0  0  0  0  0  0  0  0  0
    9.0190   -2.9500   23.8220 H   0  0  0  0  0  0  0  0  0  0  0  0
    9.0150   -2.0420   21.5100 H   0  0  0  0  0  0  0  0  0  0  0  0
    6.9230   -2.4440   20.4280 H   0  0  0  0  0  0  0  0  0  0  0  0
    5.9850   -2.1440   21.8970 H   0  0  0  0  0  0  0  0  0  0  0  0
    9.7900   -0.1370   23.1200 C   0  0  0  0  0  0  0  0  0  0  0  0
   10.7370    0.0920   22.1040 C   0  0  0  0  0  0  0  0  0  0  0  0
   12.0710    0.3180   22.4260 C   0  0  0  0  0  0  0  0  0  0  0  0
   13.2960    0.6380   21.2270 Cl  0  0  0  0  0  0  0  0  0  0  0  0
   12.5170    0.2940   23.7430 C   0  0  0  0  0  0  0  0  0  0  0  0
   11.5970    0.0750   24.7450 C   0  0  0  0  0  0  0  0  0  0  0  0
   10.2460   -0.1160   24.4460 C   0  0  0  0  0  0  0  0  0  0  0  0
    9.3330   -0.3090   25.6110 C   0  0  0  0  0  0  0  0  0  0  0  0
    9.7560   -0.2950   26.7580 O   0  0  0  0  0  0  0  0  0  0  0  0
   11.9090    0.0460   25.7810 H   0  0  0  0  0  0  0  0  0  0  0  0
   13.5700    0.4540   23.9510 H   0  0  0  0  0  0  0  0  0  0  0  0
   10.4170    0.1100   21.0690 H   0  0  0  0  0  0  0  0  0  0  0  0
    7.2340    0.9350   23.9980 H   0  0  0  0  0  0  0  0  0  0  0  0
    6.4780   -0.6690   23.9150 H   0  0  0  0  0  0  0  0  0  0  0  0
    7.5860   -0.5830   27.3320 H   0  0  0  0  0  0  0  0  0  0  0  0
    6.1340   -0.5480   26.2890 H   0  0  0  0  0  0  0  0  0  0  0  0
    8.2050   -3.1090   26.7570 O   0  0  0  0  0  0  0  0  0  0  0  0
    8.9800   -5.7000   27.8350 H   0  0  0  0  0  0  0  0  0  0  0  0
    8.6620   -6.3310   26.2010 H   0  0  0  0  0  0  0  0  0  0  0  0
    9.8710   -5.0490   26.4350 H   0  0  0  0  0  0  0  0  0  0  0  0
  1  2  1  0  0  0  0
  1 65  1  0  0  0  0
  1 66  1  0  0  0  0
  1 67  1  0  0  0  0
  2  3  2  0  0  0  0
  2 64  1  0  0  0  0
  3  4  1  0  0  0  0
  4  5  2  0  0  0  0
  5  6  1  0  0  0  0
  5 64  1  0  0  0  0
  6  7  1  0  0  0  0
  6 62  1  0  0  0  0
  6 63  1  0  0  0  0
  7  8  1  0  0  0  0
  7 55  1  0  0  0  0
  8  9  1  0  0  0  0
  8 60  1  0  0  0  0
  8 61  1  0  0  0  0
  9 10  1  6  0  0  0
  9 30  1  0  0  0  0
  9 48  1  0  0  0  0
 10 11  2  0  0  0  0
 10 12  1  0  0  0  0
 12 13  1  0  0  0  0
 12 29  1  0  0  0  0
 13 14  2  0  0  0  0
 13 22  1  0  0  0  0
 14 15  1  0  0  0  0
 14 28  1  0  0  0  0
 15 16  2  0  0  0  0
 16 17  1  0  0  0  0
 16 27  1  0  0  0  0
 17 18  2  0  0  0  0
 17 22  1  0  0  0  0
 18 19  1  0  0  0  0
 18 26  1  0  0  0  0
 19 20  2  0  0  0  0
 19 25  1  0  0  0  0
 20 21  1  0  0  0  0
 20 24  1  0  0  0  0
 21 22  2  0  0  0  0
 21 23  1  0  0  0  0
 29 30  1  0  0  0  0
 29 46  1  0  0  0  0
 29 47  1  0  0  0  0
 30 31  1  0  0  0  0
 30 45  1  6  0  0  0
 31 32  1  0  0  0  0
 31 43  1  0  0  0  0
 31 44  1  0  0  0  0
 32 33  1  0  0  0  0
 32 42  1  0  0  0  0
 33 34  2  0  0  0  0
 33 38  1  0  0  0  0
 34 35  1  0  0  0  0
 34 41  1  0  0  0  0
 35 36  2  0  0  0  0
 35 40  1  0  0  0  0
 36 37  1  0  0  0  0
 37 38  2  0  0  0  0
 37 39  1  0  0  0  0
 48 49  2  0  0  0  0
 48 54  1  0  0  0  0
 49 50  1  0  0  0  0
 49 59  1  0  0  0  0
 50 51  1  0  0  0  0
 50 52  2  0  0  0  0
 52 53  1  0  0  0  0
 52 58  1  0  0  0  0
 53 54  2  0  0  0  0
 53 57  1  0  0  0  0
 54 55  1  0  0  0  0
 55 56  2  0  0  0  0
M  END
>  <MODEL>
       1

$$$$
