output/tmp_first_model_6_32.pdb
 OpenBabel07222621163D

 72 77  0  0  1  0  0  0  0  0999 V2000
    9.7250   -1.9290   21.8450 C   0  0  0  0  0  0  0  0  0  0  0  0
    8.6330   -0.9660   22.3330 C   0  0  1  0  0  0  0  0  0  0  0  0
    8.1910   -0.0320   21.1850 C   0  0  0  0  0  0  0  0  0  0  0  0
    6.8810   -0.5120   20.8110 N   0  0  0  0  0  0  0  0  0  0  0  0
    6.1220    0.0520   19.7540 C   0  0  0  0  0  0  0  0  0  0  0  0
    6.4720   -0.2100   18.4550 C   0  0  0  0  0  0  0  0  0  0  0  0
    5.8090    0.2550   17.3680 N   0  0  0  0  0  0  0  0  0  0  0  0
    4.7730    1.0290   17.5850 C   0  0  0  0  0  0  0  0  0  0  0  0
    4.3190    1.4060   18.8800 C   0  0  0  0  0  0  0  0  0  0  0  0
    3.2040    2.2700   19.0520 C   0  0  0  0  0  0  0  0  0  0  0  0
    2.8060    2.6450   20.3010 C   0  0  0  0  0  0  0  0  0  0  0  0
    3.5010    2.1780   21.4410 C   0  0  0  0  0  0  0  0  0  0  0  0
    4.5790    1.3340   21.3080 C   0  0  0  0  0  0  0  0  0  0  0  0
    5.0090    0.9160   20.0140 C   0  0  0  0  0  0  0  0  0  0  0  0
    5.1080    0.9870   22.1980 H   0  0  0  0  0  0  0  0  0  0  0  0
    3.1790    2.4930   22.4280 H   0  0  0  0  0  0  0  0  0  0  0  0
    1.9570    3.3150   20.4320 H   0  0  0  0  0  0  0  0  0  0  0  0
    2.6930    2.6340   18.1620 H   0  0  0  0  0  0  0  0  0  0  0  0
    4.2370    1.4050   16.7110 H   0  0  0  0  0  0  0  0  0  0  0  0
    7.3260   -0.8550   18.2510 H   0  0  0  0  0  0  0  0  0  0  0  0
    6.3440   -1.4310   21.6730 C   0  0  0  0  0  0  0  0  0  0  0  0
    5.2620   -1.9630   21.5160 O   0  0  0  0  0  0  0  0  0  0  0  0
    7.3170   -1.6340   22.8530 C   0  0  1  0  0  0  0  0  0  0  0  0
    7.4780   -3.1440   23.1630 C   0  0  0  0  0  0  0  0  0  0  0  0
    6.3100   -3.7220   23.8060 N   0  0  0  0  0  0  0  0  0  0  0  0
    5.7850   -5.0150   23.3880 C   0  0  0  0  0  0  0  0  0  0  0  0
    4.5450   -4.8060   22.5120 C   0  0  0  0  0  0  0  0  0  0  0  0
    3.7310   -6.0320   22.2200 N   0  3  1  0  0  0  0  0  0  0  0  0
    4.4280   -7.1610   21.4960 C   0  0  0  0  0  0  0  0  0  0  0  0
    3.3620   -8.1780   21.1060 C   0  0  0  0  0  0  0  0  0  0  0  0
    2.8090   -8.7500   22.2730 O   0  0  0  0  0  0  0  0  0  0  0  0
    2.1340   -7.8100   23.0970 C   0  0  0  0  0  0  0  0  0  0  0  0
    0.8150   -7.4050   22.4470 C   0  0  0  0  0  0  0  0  0  0  0  0
    0.9420   -6.8460   21.5110 H   0  0  0  0  0  0  0  0  0  0  0  0
    0.2770   -6.7760   23.1620 H   0  0  0  0  0  0  0  0  0  0  0  0
    0.2310   -8.3090   22.2260 H   0  0  0  0  0  0  0  0  0  0  0  0
    1.8640   -8.5350   24.4100 C   0  0  0  0  0  0  0  0  0  0  0  0
    2.8000   -8.8210   24.9010 H   0  0  0  0  0  0  0  0  0  0  0  0
    1.2730   -9.4370   24.2380 H   0  0  0  0  0  0  0  0  0  0  0  0
    1.3130   -7.8880   25.0980 H   0  0  0  0  0  0  0  0  0  0  0  0
    3.0440   -6.6140   23.4190 C   0  0  0  0  0  0  0  0  0  0  0  0
    3.8310   -6.9720   24.0830 H   0  0  0  0  0  0  0  0  0  0  0  0
    2.4740   -5.8420   23.9430 H   0  0  0  0  0  0  0  0  0  0  0  0
    3.7420   -9.0100   20.5040 H   0  0  0  0  0  0  0  0  0  0  0  0
    2.5730   -7.6900   20.5350 H   0  0  0  0  0  0  0  0  0  0  0  0
    5.1130   -7.6540   22.1810 H   0  0  0  0  0  0  0  0  0  0  0  0
    4.9990   -6.7420   20.6630 H   0  0  0  0  0  0  0  0  0  0  0  0
    2.9860   -5.6760   21.5960 H   0  0  0  0  0  0  0  0  0  0  0  0
    4.8620   -4.3590   21.5640 H   0  0  0  0  0  0  0  0  0  0  0  0
    3.8720   -4.0930   23.0010 H   0  0  0  0  0  0  0  0  0  0  0  0
    6.5640   -5.5580   22.8350 H   0  0  0  0  0  0  0  0  0  0  0  0
    5.5460   -5.5810   24.2950 H   0  0  0  0  0  0  0  0  0  0  0  0
    5.6620   -3.0930   24.8280 C   0  0  0  0  0  0  0  0  0  0  0  0
    4.8200   -3.6610   25.5170 O   0  0  0  0  0  0  0  0  0  0  0  0
    6.0000   -1.6480   25.0350 C   0  0  0  0  0  0  0  0  0  0  0  0
    5.4840   -1.0230   26.1680 C   0  0  0  0  0  0  0  0  0  0  0  0
    5.6960    0.3220   26.3880 C   0  0  0  0  0  0  0  0  0  0  0  0
    6.4220    1.0400   25.4410 C   0  0  0  0  0  0  0  0  0  0  0  0
    6.6840    2.7430   25.6950 Cl  0  0  0  0  0  0  0  0  0  0  0  0
    6.9430    0.4330   24.3100 C   0  0  0  0  0  0  0  0  0  0  0  0
    6.7630   -0.9420   24.0990 C   0  0  0  0  0  0  0  0  0  0  0  0
    7.5040    1.0490   23.6150 H   0  0  0  0  0  0  0  0  0  0  0  0
    5.3080    0.8210   27.2680 H   0  0  0  0  0  0  0  0  0  0  0  0
    4.9080   -1.6250   26.8630 H   0  0  0  0  0  0  0  0  0  0  0  0
    7.6590   -3.6890   22.2340 H   0  0  0  0  0  0  0  0  0  0  0  0
    8.3570   -3.2710   23.8110 H   0  0  0  0  0  0  0  0  0  0  0  0
    8.8710   -0.0960   20.3370 H   0  0  0  0  0  0  0  0  0  0  0  0
    8.1600    1.0250   21.4830 H   0  0  0  0  0  0  0  0  0  0  0  0
    9.0780   -0.3850   23.1490 H   0  0  0  0  0  0  0  0  0  0  0  0
    9.3690   -2.5640   21.0270 H   0  0  0  0  0  0  0  0  0  0  0  0
   10.0860   -2.5740   22.6510 H   0  0  0  0  0  0  0  0  0  0  0  0
   10.5870   -1.3640   21.4750 H   0  0  0  0  0  0  0  0  0  0  0  0
  1  2  1  0  0  0  0
  1 70  1  0  0  0  0
  1 71  1  0  0  0  0
  1 72  1  0  0  0  0
  2  3  1  0  0  0  0
  2 23  1  0  0  0  0
  2 69  1  1  0  0  0
  3  4  1  0  0  0  0
  3 67  1  0  0  0  0
  3 68  1  0  0  0  0
  4  5  1  0  0  0  0
  4 21  1  0  0  0  0
  5  6  2  0  0  0  0
  5 14  1  0  0  0  0
  6  7  1  0  0  0  0
  6 20  1  0  0  0  0
  7  8  2  0  0  0  0
  8  9  1  0  0  0  0
  8 19  1  0  0  0  0
  9 10  2  0  0  0  0
  9 14  1  0  0  0  0
 10 11  1  0  0  0  0
 10 18  1  0  0  0  0
 11 12  2  0  0  0  0
 11 17  1  0  0  0  0
 12 13  1  0  0  0  0
 12 16  1  0  0  0  0
 13 14  2  0  0  0  0
 13 15  1  0  0  0  0
 21 22  2  0  0  0  0
 23 21  1  6  0  0  0
 23 24  1  0  0  0  0
 23 61  1  0  0  0  0
 24 25  1  0  0  0  0
 24 65  1  0  0  0  0
 24 66  1  0  0  0  0
 25 26  1  0  0  0  0
 25 53  1  0  0  0  0
 26 27  1  0  0  0  0
 26 51  1  0  0  0  0
 26 52  1  0  0  0  0
 27 28  1  0  0  0  0
 27 49  1  0  0  0  0
 27 50  1  0  0  0  0
 28 29  1  0  0  0  0
 28 41  1  0  0  0  0
 28 48  1  6  0  0  0
 29 30  1  0  0  0  0
 29 46  1  0  0  0  0
 29 47  1  0  0  0  0
 30 31  1  0  0  0  0
 30 44  1  0  0  0  0
 30 45  1  0  0  0  0
 31 32  1  0  0  0  0
 32 33  1  0  0  0  0
 32 37  1  0  0  0  0
 32 41  1  0  0  0  0
 33 34  1  0  0  0  0
 33 35  1  0  0  0  0
 33 36  1  0  0  0  0
 37 38  1  0  0  0  0
 37 39  1  0  0  0  0
 37 40  1  0  0  0  0
 41 42  1  0  0  0  0
 41 43  1  0  0  0  0
 53 54  2  0  0  0  0
 53 55  1  0  0  0  0
 55 56  2  0  0  0  0
 55 61  1  0  0  0  0
 56 57  1  0  0  0  0
 56 64  1  0  0  0  0
 57 58  2  0  0  0  0
 57 63  1  0  0  0  0
 58 59  1  0  0  0  0
 58 60  1  0  0  0  0
 60 61  2  0  0  0  0
 60 62  1  0  0  0  0
M  CHG  1  28   1
M  END
>  <MODEL>
       1

$$$$
