output/tmp_first_model_15_76.pdb
 OpenBabel07232601353D

 61 65  0  0  1  0  0  0  0  0999 V2000
    7.0010   -2.4780   23.4560 C   0  0  0  0  0  0  0  0  0  0  0  0
    7.8990   -1.7660   22.4510 C   0  0  1  0  0  0  0  0  0  0  0  0
    7.2930   -1.6810   21.0330 C   0  0  0  0  0  0  0  0  0  0  0  0
    6.9260   -0.2890   20.8780 N   0  0  0  0  0  0  0  0  0  0  0  0
    6.1440    0.1560   19.7970 C   0  0  0  0  0  0  0  0  0  0  0  0
    6.4320   -0.2310   18.5140 C   0  0  0  0  0  0  0  0  0  0  0  0
    5.7580    0.1950   17.4210 N   0  0  0  0  0  0  0  0  0  0  0  0
    4.7500    1.0100   17.6130 C   0  0  0  0  0  0  0  0  0  0  0  0
    4.3060    1.4290   18.8970 C   0  0  0  0  0  0  0  0  0  0  0  0
    3.1790    2.2770   19.0580 C   0  0  0  0  0  0  0  0  0  0  0  0
    2.7390    2.6170   20.3070 C   0  0  0  0  0  0  0  0  0  0  0  0
    3.4000    2.1260   21.4570 C   0  0  0  0  0  0  0  0  0  0  0  0
    4.5070    1.3260   21.3290 C   0  0  0  0  0  0  0  0  0  0  0  0
    5.0010    0.9760   20.0380 C   0  0  0  0  0  0  0  0  0  0  0  0
    5.0150    0.9540   22.2130 H   0  0  0  0  0  0  0  0  0  0  0  0
    3.0360    2.3920   22.4460 H   0  0  0  0  0  0  0  0  0  0  0  0
    1.8780    3.2670   20.4270 H   0  0  0  0  0  0  0  0  0  0  0  0
    2.6820    2.6430   18.1640 H   0  0  0  0  0  0  0  0  0  0  0  0
    4.2200    1.3650   16.7290 H   0  0  0  0  0  0  0  0  0  0  0  0
    7.2710   -0.8980   18.3170 H   0  0  0  0  0  0  0  0  0  0  0  0
    7.5370    0.5510   21.7760 C   0  0  0  0  0  0  0  0  0  0  0  0
    7.5040    1.7680   21.7390 O   0  0  0  0  0  0  0  0  0  0  0  0
    8.3160   -0.2980   22.7970 C   0  0  1  0  0  0  0  0  0  0  0  0
    8.0270    0.1280   24.2470 C   0  0  0  0  0  0  0  0  0  0  0  0
    8.5640    1.4480   24.5480 N   0  0  0  0  0  0  0  0  0  0  0  0
    7.7350    2.3060   25.3840 C   0  0  0  0  0  0  0  0  0  0  0  0
    6.7040    3.0540   24.5430 C   0  0  0  0  0  0  0  0  0  0  0  0
    7.3420    4.0670   23.6450 N   0  3  0  0  0  0  0  0  0  0  0  0
    7.8890    5.2070   24.4300 C   0  0  0  0  0  0  0  0  0  0  0  0
    8.7270    4.8890   25.0470 H   0  0  0  0  0  0  0  0  0  0  0  0
    7.0970    5.6170   25.0700 H   0  0  0  0  0  0  0  0  0  0  0  0
    8.2280    5.9950   23.7560 H   0  0  0  0  0  0  0  0  0  0  0  0
    6.3730    4.5950   22.6550 C   0  0  0  0  0  0  0  0  0  0  0  0
    6.8520    5.3700   22.0500 H   0  0  0  0  0  0  0  0  0  0  0  0
    6.0410    3.7840   22.0070 H   0  0  0  0  0  0  0  0  0  0  0  0
    5.5110    5.0320   23.1720 H   0  0  0  0  0  0  0  0  0  0  0  0
    8.0820    3.5860   23.1090 H   0  0  0  0  0  0  0  0  0  0  0  0
    6.1760    2.3390   23.9050 H   0  0  0  0  0  0  0  0  0  0  0  0
    5.9670    3.5600   25.1770 H   0  0  0  0  0  0  0  0  0  0  0  0
    8.3980    2.9830   25.9220 H   0  0  0  0  0  0  0  0  0  0  0  0
    7.2240    1.6870   26.1320 H   0  0  0  0  0  0  0  0  0  0  0  0
    9.8160    1.8590   24.1680 C   0  0  0  0  0  0  0  0  0  0  0  0
   10.3280    2.8850   24.6090 O   0  0  0  0  0  0  0  0  0  0  0  0
   10.5100    0.9680   23.1610 C   0  0  0  0  0  0  0  0  0  0  0  0
   11.8790    1.1010   22.8840 C   0  0  0  0  0  0  0  0  0  0  0  0
   12.5530    0.2050   22.0620 C   0  0  0  0  0  0  0  0  0  0  0  0
   11.7940   -0.7990   21.4620 C   0  0  0  0  0  0  0  0  0  0  0  0
   12.4190   -2.0750   20.4500 Cl  0  0  0  0  0  0  0  0  0  0  0  0
   10.4390   -0.8910   21.6550 C   0  0  0  0  0  0  0  0  0  0  0  0
    9.7890   -0.0640   22.5550 C   0  0  0  0  0  0  0  0  0  0  0  0
    9.9320   -1.6680   21.1010 H   0  0  0  0  0  0  0  0  0  0  0  0
   13.6280    0.2660   21.8880 H   0  0  0  0  0  0  0  0  0  0  0  0
   12.4240    1.9110   23.3490 H   0  0  0  0  0  0  0  0  0  0  0  0
    6.9450    0.1490   24.4120 H   0  0  0  0  0  0  0  0  0  0  0  0
    8.4590   -0.6180   24.9330 H   0  0  0  0  0  0  0  0  0  0  0  0
    6.4090   -2.3120   20.8970 H   0  0  0  0  0  0  0  0  0  0  0  0
    8.0210   -1.9740   20.2630 H   0  0  0  0  0  0  0  0  0  0  0  0
    8.7940   -2.3940   22.4170 H   0  0  0  0  0  0  0  0  0  0  0  0
    6.8090   -3.4990   23.1070 H   0  0  0  0  0  0  0  0  0  0  0  0
    7.5210   -2.5660   24.4140 H   0  0  0  0  0  0  0  0  0  0  0  0
    6.0410   -1.9760   23.6140 H   0  0  0  0  0  0  0  0  0  0  0  0
  1  2  1  0  0  0  0
  1 59  1  0  0  0  0
  1 60  1  0  0  0  0
  1 61  1  0  0  0  0
  2  3  1  0  0  0  0
  2 23  1  0  0  0  0
  2 58  1  6  0  0  0
  3  4  1  0  0  0  0
  3 56  1  0  0  0  0
  3 57  1  0  0  0  0
  4  5  1  0  0  0  0
  4 21  1  0  0  0  0
  5  6  2  0  0  0  0
  5 14  1  0  0  0  0
  6  7  1  0  0  0  0
  6 20  1  0  0  0  0
  7  8  2  0  0  0  0
  8  9  1  0  0  0  0
  8 19  1  0  0  0  0
  9 10  2  0  0  0  0
  9 14  1  0  0  0  0
 10 11  1  0  0  0  0
 10 18  1  0  0  0  0
 11 12  2  0  0  0  0
 11 17  1  0  0  0  0
 12 13  1  0  0  0  0
 12 16  1  0  0  0  0
 13 14  2  0  0  0  0
 13 15  1  0  0  0  0
 21 22  2  0  0  0  0
 23 21  1  6  0  0  0
 23 24  1  0  0  0  0
 23 50  1  0  0  0  0
 24 25  1  0  0  0  0
 24 54  1  0  0  0  0
 24 55  1  0  0  0  0
 25 26  1  0  0  0  0
 25 42  1  0  0  0  0
 26 27  1  0  0  0  0
 26 40  1  0  0  0  0
 26 41  1  0  0  0  0
 27 28  1  0  0  0  0
 27 38  1  0  0  0  0
 27 39  1  0  0  0  0
 28 29  1  0  0  0  0
 28 33  1  0  0  0  0
 28 37  1  0  0  0  0
 29 30  1  0  0  0  0
 29 31  1  0  0  0  0
 29 32  1  0  0  0  0
 33 34  1  0  0  0  0
 33 35  1  0  0  0  0
 33 36  1  0  0  0  0
 42 43  2  0  0  0  0
 42 44  1  0  0  0  0
 44 45  2  0  0  0  0
 44 50  1  0  0  0  0
 45 46  1  0  0  0  0
 45 53  1  0  0  0  0
 46 47  2  0  0  0  0
 46 52  1  0  0  0  0
 47 48  1  0  0  0  0
 47 49  1  0  0  0  0
 49 50  2  0  0  0  0
 49 51  1  0  0  0  0
M  CHG  1  28   1
M  END
>  <MODEL>
       1

$$$$
