output/tmp_first_model_19_24.pdb
 OpenBabel07232603163D

 70 75  0  0  1  0  0  0  0  0999 V2000
    9.7210    4.7460   22.3730 C   0  0  0  0  0  0  0  0  0  0  0  0
    8.7090    3.7210   22.0390 N   0  3  0  0  0  0  0  0  0  0  0  0
    7.7420    3.4450   23.1330 C   0  0  0  0  0  0  0  0  0  0  0  0
    8.3990    2.7630   24.3400 C   0  0  0  0  0  0  0  0  0  0  0  0
    9.0910    1.5420   23.9570 N   0  0  0  0  0  0  0  0  0  0  0  0
    8.3330    0.3320   23.7310 C   0  0  0  0  0  0  0  0  0  0  0  0
    8.7090   -0.3580   22.3970 C   0  0  2  0  0  0  0  0  0  0  0  0
    8.2720    0.4760   21.1580 C   0  0  0  0  0  0  0  0  0  0  0  0
    8.8580    1.4490   20.7080 O   0  0  0  0  0  0  0  0  0  0  0  0
    7.1210   -0.0570   20.6490 N   0  0  0  0  0  0  0  0  0  0  0  0
    6.3300    0.4500   19.5890 C   0  0  0  0  0  0  0  0  0  0  0  0
    6.5960    0.0830   18.2960 C   0  0  0  0  0  0  0  0  0  0  0  0
    5.8040    0.3830   17.2360 N   0  0  0  0  0  0  0  0  0  0  0  0
    4.7110    1.0660   17.4760 C   0  0  0  0  0  0  0  0  0  0  0  0
    4.3060    1.4980   18.7710 C   0  0  0  0  0  0  0  0  0  0  0  0
    3.1060    2.2290   18.9810 C   0  0  0  0  0  0  0  0  0  0  0  0
    2.7170    2.5790   20.2450 C   0  0  0  0  0  0  0  0  0  0  0  0
    3.5090    2.2170   21.3580 C   0  0  0  0  0  0  0  0  0  0  0  0
    4.6870    1.5360   21.1770 C   0  0  0  0  0  0  0  0  0  0  0  0
    5.1220    1.1630   19.8720 C   0  0  0  0  0  0  0  0  0  0  0  0
    5.2900    1.2710   22.0410 H   0  0  0  0  0  0  0  0  0  0  0  0
    3.1830    2.4760   22.3610 H   0  0  0  0  0  0  0  0  0  0  0  0
    1.8020    3.1410   20.4020 H   0  0  0  0  0  0  0  0  0  0  0  0
    2.5170    2.5150   18.1150 H   0  0  0  0  0  0  0  0  0  0  0  0
    4.0730    1.2990   16.6230 H   0  0  0  0  0  0  0  0  0  0  0  0
    7.4850   -0.5050   18.0730 H   0  0  0  0  0  0  0  0  0  0  0  0
    6.6160   -1.1660   21.4120 C   0  0  0  0  0  0  0  0  0  0  0  0
    7.8520   -1.6460   22.1880 C   0  0  2  0  0  0  0  0  0  0  0  0
    7.4060   -2.4690   23.4020 C   0  0  0  0  0  0  0  0  0  0  0  0
    6.5160   -3.4680   22.9640 O   0  0  0  0  0  0  0  0  0  0  0  0
    7.0510   -4.7720   22.9080 C   0  0  0  0  0  0  0  0  0  0  0  0
    6.0620   -5.8400   22.4040 C   0  0  0  0  0  0  0  0  0  0  0  0
    5.8890   -5.5960   22.3980 C   0  0  0  0  0  0  0  0  0  0  0  0
    3.6430   -5.7250   22.8230 O   0  0  0  0  0  0  0  0  0  0  0  0
    4.8730   -5.8990   23.3410 C   0  0  0  0  0  0  0  0  0  0  0  0
    3.1040   -6.5430   22.7210 H   0  0  0  0  0  0  0  0  0  0  0  0
    4.7560   -6.1060   24.3880 H   0  0  0  0  0  0  0  0  0  0  0  0
    5.2180   -6.2570   21.4770 H   0  0  0  0  0  0  0  0  0  0  0  0
    5.6150   -4.6470   21.8140 H   0  0  0  0  0  0  0  0  0  0  0  0
    6.7090   -6.8610   22.6480 H   0  0  0  0  0  0  0  0  0  0  0  0
    7.9760   -4.7550   22.2870 H   0  0  0  0  0  0  0  0  0  0  0  0
    7.4840   -5.0040   23.9090 H   0  0  0  0  0  0  0  0  0  0  0  0
    6.8530   -1.8390   24.1100 H   0  0  0  0  0  0  0  0  0  0  0  0
    8.2770   -2.8880   23.9310 H   0  0  0  0  0  0  0  0  0  0  0  0
    8.4180   -2.3170   21.5340 H   0  0  0  0  0  0  0  0  0  0  0  0
    6.2180   -1.9370   20.7470 H   0  0  0  0  0  0  0  0  0  0  0  0
    5.8040   -0.8580   22.0940 H   0  0  0  0  0  0  0  0  0  0  0  0
   10.2200   -0.4950   22.3730 C   0  0  0  0  0  0  0  0  0  0  0  0
   10.8320   -1.3910   21.4920 C   0  0  0  0  0  0  0  0  0  0  0  0
   12.2110   -1.4260   21.3830 C   0  0  0  0  0  0  0  0  0  0  0  0
   12.9530   -2.4680   20.2040 Cl  0  0  0  0  0  0  0  0  0  0  0  0
   13.0280   -0.5970   22.1510 C   0  0  0  0  0  0  0  0  0  0  0  0
   12.4300    0.3260   22.9870 C   0  0  0  0  0  0  0  0  0  0  0  0
   11.0400    0.4020   23.0780 C   0  0  0  0  0  0  0  0  0  0  0  0
   10.4520    1.5290   23.8770 C   0  0  0  0  0  0  0  0  0  0  0  0
   11.1580    2.4010   24.3720 O   0  0  0  0  0  0  0  0  0  0  0  0
   13.0230    1.0260   23.5650 H   0  0  0  0  0  0  0  0  0  0  0  0
   14.1070   -0.6610   22.0600 H   0  0  0  0  0  0  0  0  0  0  0  0
   10.2360   -2.0400   20.8610 H   0  0  0  0  0  0  0  0  0  0  0  0
    8.5440   -0.3810   24.5450 H   0  0  0  0  0  0  0  0  0  0  0  0
    7.2650    0.5730   23.7600 H   0  0  0  0  0  0  0  0  0  0  0  0
    7.6330    2.5260   25.0880 H   0  0  0  0  0  0  0  0  0  0  0  0
    9.1410    3.4090   24.8090 H   0  0  0  0  0  0  0  0  0  0  0  0
    7.2650    4.3770   23.4600 H   0  0  0  0  0  0  0  0  0  0  0  0
    6.9550    2.8010   22.7240 H   0  0  0  0  0  0  0  0  0  0  0  0
    8.2110    4.0410   21.1920 H   0  0  0  0  0  0  0  0  0  0  0  0
    9.1570    2.8320   21.7540 H   0  0  0  0  0  0  0  0  0  0  0  0
   10.2360    5.0750   21.4680 H   0  0  0  0  0  0  0  0  0  0  0  0
   10.4550    4.3430   23.0710 H   0  0  0  0  0  0  0  0  0  0  0  0
    9.2460    5.6210   22.8310 H   0  0  0  0  0  0  0  0  0  0  0  0
  1  2  1  0  0  0  0
  1 68  1  0  0  0  0
  1 69  1  0  0  0  0
  1 70  1  0  0  0  0
  2  3  1  0  0  0  0
  2 66  1  0  0  0  0
  2 67  1  0  0  0  0
  3  4  1  0  0  0  0
  3 64  1  0  0  0  0
  3 65  1  0  0  0  0
  4  5  1  0  0  0  0
  4 62  1  0  0  0  0
  4 63  1  0  0  0  0
  5  6  1  0  0  0  0
  5 55  1  0  0  0  0
  6  7  1  0  0  0  0
  6 60  1  0  0  0  0
  6 61  1  0  0  0  0
  7  8  1  6  0  0  0
  7 28  1  0  0  0  0
  7 48  1  0  0  0  0
  8  9  2  0  0  0  0
  8 10  1  0  0  0  0
 10 11  1  0  0  0  0
 10 27  1  0  0  0  0
 11 12  2  0  0  0  0
 11 20  1  0  0  0  0
 12 13  1  0  0  0  0
 12 26  1  0  0  0  0
 13 14  2  0  0  0  0
 14 15  1  0  0  0  0
 14 25  1  0  0  0  0
 15 16  2  0  0  0  0
 15 20  1  0  0  0  0
 16 17  1  0  0  0  0
 16 24  1  0  0  0  0
 17 18  2  0  0  0  0
 17 23  1  0  0  0  0
 18 19  1  0  0  0  0
 18 22  1  0  0  0  0
 19 20  2  0  0  0  0
 19 21  1  0  0  0  0
 27 28  1  0  0  0  0
 27 46  1  0  0  0  0
 27 47  1  0  0  0  0
 28 29  1  0  0  0  0
 28 45  1  6  0  0  0
 29 30  1  0  0  0  0
 29 43  1  0  0  0  0
 29 44  1  0  0  0  0
 30 31  1  0  0  0  0
 31 32  1  0  0  0  0
 31 41  1  0  0  0  0
 31 42  1  0  0  0  0
 32 33  1  0  0  0  0
 32 35  1  0  0  0  0
 32 40  1  0  0  0  0
 33 34  1  0  0  0  0
 33 38  1  0  0  0  0
 33 39  1  0  0  0  0
 34 35  1  0  0  0  0
 35 36  1  0  0  0  0
 35 37  1  0  0  0  0
 48 49  2  0  0  0  0
 48 54  1  0  0  0  0
 49 50  1  0  0  0  0
 49 59  1  0  0  0  0
 50 51  1  0  0  0  0
 50 52  2  0  0  0  0
 52 53  1  0  0  0  0
 52 58  1  0  0  0  0
 53 54  2  0  0  0  0
 53 57  1  0  0  0  0
 54 55  1  0  0  0  0
 55 56  2  0  0  0  0
M  CHG  1   2   1
M  END
>  <MODEL>
       1

$$$$
