output/tmp_first_model_7_44.pdb
 OpenBabel07222621533D

 56 60  0  0  1  0  0  0  0  0999 V2000
    7.8080   -8.4490   23.1630 C   0  0  0  0  0  0  0  0  0  0  0  0
    6.8500   -7.4500   22.7420 N   0  0  0  0  0  0  0  0  0  0  0  0
    7.1650   -6.6130   21.7200 C   0  0  0  0  0  0  0  0  0  0  0  0
    8.0790   -6.8240   20.9470 O   0  0  0  0  0  0  0  0  0  0  0  0
    6.2870   -5.3590   21.6470 C   0  0  0  0  0  0  0  0  0  0  0  0
    6.7210   -4.3720   22.6190 N   0  0  0  0  0  0  0  0  0  0  0  0
    7.8000   -3.4520   22.3050 C   0  0  0  0  0  0  0  0  0  0  0  0
    7.4030   -2.0050   22.6810 C   0  0  2  0  0  0  0  0  0  0  0  0
    6.2750   -1.5880   21.7150 C   0  0  0  0  0  0  0  0  0  0  0  0
    5.1780   -2.0990   21.6350 O   0  0  0  0  0  0  0  0  0  0  0  0
    6.7330   -0.5630   20.9100 N   0  0  0  0  0  0  0  0  0  0  0  0
    5.9550   -0.0320   19.8700 C   0  0  0  0  0  0  0  0  0  0  0  0
    6.4080   -0.1080   18.5730 C   0  0  0  0  0  0  0  0  0  0  0  0
    5.7480    0.3680   17.4970 N   0  0  0  0  0  0  0  0  0  0  0  0
    4.6110    0.9740   17.7120 C   0  0  0  0  0  0  0  0  0  0  0  0
    4.0310    1.1370   18.9980 C   0  0  0  0  0  0  0  0  0  0  0  0
    2.7660    1.7660   19.1450 C   0  0  0  0  0  0  0  0  0  0  0  0
    2.1830    1.8610   20.3780 C   0  0  0  0  0  0  0  0  0  0  0  0
    2.8240    1.3010   21.5070 C   0  0  0  0  0  0  0  0  0  0  0  0
    4.0420    0.6830   21.3900 C   0  0  0  0  0  0  0  0  0  0  0  0
    4.6890    0.5890   20.1200 C   0  0  0  0  0  0  0  0  0  0  0  0
    4.4910    0.2390   22.2690 H   0  0  0  0  0  0  0  0  0  0  0  0
    2.3460    1.3720   22.4810 H   0  0  0  0  0  0  0  0  0  0  0  0
    1.2270    2.3640   20.4950 H   0  0  0  0  0  0  0  0  0  0  0  0
    2.2810    2.1630   18.2580 H   0  0  0  0  0  0  0  0  0  0  0  0
    4.0950    1.3830   16.8440 H   0  0  0  0  0  0  0  0  0  0  0  0
    7.3520   -0.5990   18.3560 H   0  0  0  0  0  0  0  0  0  0  0  0
    8.1810   -0.4420   20.9590 C   0  0  0  0  0  0  0  0  0  0  0  0
    8.5200   -0.9730   22.3580 C   0  0  2  0  0  0  0  0  0  0  0  0
    9.9630   -1.4560   22.4150 C   0  0  0  0  0  0  0  0  0  0  0  0
   10.4460   -1.9740   24.0630 Cl  0  0  0  0  0  0  0  0  0  0  0  0
   10.1130   -2.3120   21.7510 H   0  0  0  0  0  0  0  0  0  0  0  0
   10.6550   -0.6640   22.1160 H   0  0  0  0  0  0  0  0  0  0  0  0
    8.4260   -0.1370   23.0490 H   0  0  0  0  0  0  0  0  0  0  0  0
    8.4770    0.5990   20.8300 H   0  0  0  0  0  0  0  0  0  0  0  0
    8.6710   -1.0430   20.1780 H   0  0  0  0  0  0  0  0  0  0  0  0
    6.9110   -2.0070   24.1180 C   0  0  0  0  0  0  0  0  0  0  0  0
    6.8680   -0.8260   24.8720 C   0  0  0  0  0  0  0  0  0  0  0  0
    6.4090   -0.8500   26.1770 C   0  0  0  0  0  0  0  0  0  0  0  0
    6.3970    0.6310   27.0920 Cl  0  0  0  0  0  0  0  0  0  0  0  0
    5.9680   -2.0320   26.7720 C   0  0  0  0  0  0  0  0  0  0  0  0
    5.9470   -3.1860   26.0140 C   0  0  0  0  0  0  0  0  0  0  0  0
    6.3820   -3.1750   24.6900 C   0  0  0  0  0  0  0  0  0  0  0  0
    6.1980   -4.4180   23.8720 C   0  0  0  0  0  0  0  0  0  0  0  0
    5.5800   -5.3960   24.2890 O   0  0  0  0  0  0  0  0  0  0  0  0
    5.5820   -4.1210   26.4250 H   0  0  0  0  0  0  0  0  0  0  0  0
    5.6260   -2.0310   27.8020 H   0  0  0  0  0  0  0  0  0  0  0  0
    7.1750    0.1260   24.4550 H   0  0  0  0  0  0  0  0  0  0  0  0
    8.7190   -3.7400   22.8360 H   0  0  0  0  0  0  0  0  0  0  0  0
    7.9920   -3.4970   21.2360 H   0  0  0  0  0  0  0  0  0  0  0  0
    5.2470   -5.6160   21.8680 H   0  0  0  0  0  0  0  0  0  0  0  0
    6.3230   -4.9170   20.6460 H   0  0  0  0  0  0  0  0  0  0  0  0
    6.1850   -7.0970   23.4150 H   0  0  0  0  0  0  0  0  0  0  0  0
    8.7080   -8.0020   23.6010 H   0  0  0  0  0  0  0  0  0  0  0  0
    7.3340   -9.0740   23.9200 H   0  0  0  0  0  0  0  0  0  0  0  0
    8.1140   -9.0560   22.3090 H   0  0  0  0  0  0  0  0  0  0  0  0
  1  2  1  0  0  0  0
  1 54  1  0  0  0  0
  1 55  1  0  0  0  0
  1 56  1  0  0  0  0
  2  3  1  0  0  0  0
  2 53  1  0  0  0  0
  3  4  2  0  0  0  0
  3  5  1  0  0  0  0
  5  6  1  0  0  0  0
  5 51  1  0  0  0  0
  5 52  1  0  0  0  0
  6  7  1  0  0  0  0
  6 44  1  0  0  0  0
  7  8  1  0  0  0  0
  7 49  1  0  0  0  0
  7 50  1  0  0  0  0
  8  9  1  6  0  0  0
  8 29  1  0  0  0  0
  8 37  1  0  0  0  0
  9 10  2  0  0  0  0
  9 11  1  0  0  0  0
 11 12  1  0  0  0  0
 11 28  1  0  0  0  0
 12 13  2  0  0  0  0
 12 21  1  0  0  0  0
 13 14  1  0  0  0  0
 13 27  1  0  0  0  0
 14 15  2  0  0  0  0
 15 16  1  0  0  0  0
 15 26  1  0  0  0  0
 16 17  2  0  0  0  0
 16 21  1  0  0  0  0
 17 18  1  0  0  0  0
 17 25  1  0  0  0  0
 18 19  2  0  0  0  0
 18 24  1  0  0  0  0
 19 20  1  0  0  0  0
 19 23  1  0  0  0  0
 20 21  2  0  0  0  0
 20 22  1  0  0  0  0
 28 29  1  0  0  0  0
 28 35  1  0  0  0  0
 28 36  1  0  0  0  0
 29 30  1  0  0  0  0
 29 34  1  1  0  0  0
 30 31  1  0  0  0  0
 30 32  1  0  0  0  0
 30 33  1  0  0  0  0
 37 38  2  0  0  0  0
 37 43  1  0  0  0  0
 38 39  1  0  0  0  0
 38 48  1  0  0  0  0
 39 40  1  0  0  0  0
 39 41  2  0  0  0  0
 41 42  1  0  0  0  0
 41 47  1  0  0  0  0
 42 43  2  0  0  0  0
 42 46  1  0  0  0  0
 43 44  1  0  0  0  0
 44 45  2  0  0  0  0
M  END
>  <MODEL>
       1

$$$$
