output/tmp_first_model_15_13.pdb
 OpenBabel07232601353D

 67 72  0  0  1  0  0  0  0  0999 V2000
    6.5050    4.3450   21.4060 C   0  0  0  0  0  0  0  0  0  0  0  0
    7.5340    3.9400   22.3570 N   0  0  0  0  0  0  0  0  0  0  0  0
    7.1280    3.2880   23.4860 C   0  0  0  0  0  0  0  0  0  0  0  0
    5.9450    3.0920   23.7340 O   0  0  0  0  0  0  0  0  0  0  0  0
    8.2220    2.8230   24.4640 C   0  0  0  0  0  0  0  0  0  0  0  0
    8.8850    1.6220   23.9740 N   0  0  0  0  0  0  0  0  0  0  0  0
    8.0860    0.4140   23.8340 C   0  0  0  0  0  0  0  0  0  0  0  0
    8.4570   -0.3890   22.5680 C   0  0  2  0  0  0  0  0  0  0  0  0
    7.9770    0.3250   21.2860 C   0  0  0  0  0  0  0  0  0  0  0  0
    8.4640    1.3050   20.7570 O   0  0  0  0  0  0  0  0  0  0  0  0
    6.8960   -0.3630   20.7980 N   0  0  0  0  0  0  0  0  0  0  0  0
    6.1310    0.1420   19.7330 C   0  0  0  0  0  0  0  0  0  0  0  0
    6.4670   -0.1740   18.4450 C   0  0  0  0  0  0  0  0  0  0  0  0
    5.7730    0.2470   17.3670 N   0  0  0  0  0  0  0  0  0  0  0  0
    4.7290    1.0130   17.5770 C   0  0  0  0  0  0  0  0  0  0  0  0
    4.2740    1.4060   18.8710 C   0  0  0  0  0  0  0  0  0  0  0  0
    3.1520    2.2530   19.0600 C   0  0  0  0  0  0  0  0  0  0  0  0
    2.7620    2.6230   20.3210 C   0  0  0  0  0  0  0  0  0  0  0  0
    3.4700    2.1630   21.4540 C   0  0  0  0  0  0  0  0  0  0  0  0
    4.5580    1.3390   21.2980 C   0  0  0  0  0  0  0  0  0  0  0  0
    4.9880    0.9480   19.9970 C   0  0  0  0  0  0  0  0  0  0  0  0
    5.1260    1.0280   22.1710 H   0  0  0  0  0  0  0  0  0  0  0  0
    3.1770    2.4840   22.4500 H   0  0  0  0  0  0  0  0  0  0  0  0
    1.9120    3.2840   20.4530 H   0  0  0  0  0  0  0  0  0  0  0  0
    2.6360    2.6180   18.1780 H   0  0  0  0  0  0  0  0  0  0  0  0
    4.1820    1.3630   16.7020 H   0  0  0  0  0  0  0  0  0  0  0  0
    7.3390   -0.7980   18.2540 H   0  0  0  0  0  0  0  0  0  0  0  0
    6.4760   -1.4930   21.5890 C   0  0  0  0  0  0  0  0  0  0  0  0
    7.7000   -1.7420   22.4750 C   0  0  2  0  0  0  0  0  0  0  0  0
    7.3350   -2.4660   23.7620 C   0  0  0  0  0  0  0  0  0  0  0  0
    6.7720   -3.7190   23.4490 O   0  0  0  0  0  0  0  0  0  0  0  0
    7.7430   -4.7350   23.3550 C   0  0  0  0  0  0  0  0  0  0  0  0
    7.0890   -5.9920   22.8480 C   0  0  0  0  0  0  0  0  0  0  0  0
    7.9290   -7.2210   22.6780 C   0  0  0  0  0  0  0  0  0  0  0  0
    7.4280   -6.4740   21.4680 C   0  0  0  0  0  0  0  0  0  0  0  0
    8.1440   -5.8740   20.9180 H   0  0  0  0  0  0  0  0  0  0  0  0
    6.6590   -6.9080   20.8330 H   0  0  0  0  0  0  0  0  0  0  0  0
    7.4930   -8.1920   22.9090 H   0  0  0  0  0  0  0  0  0  0  0  0
    8.9870   -7.1460   22.9260 H   0  0  0  0  0  0  0  0  0  0  0  0
    6.0660   -6.1390   23.1770 H   0  0  0  0  0  0  0  0  0  0  0  0
    8.2250   -4.8640   24.3400 H   0  0  0  0  0  0  0  0  0  0  0  0
    8.5660   -4.4630   22.6670 H   0  0  0  0  0  0  0  0  0  0  0  0
    6.5740   -1.9010   24.3120 H   0  0  0  0  0  0  0  0  0  0  0  0
    8.2100   -2.5780   24.4250 H   0  0  0  0  0  0  0  0  0  0  0  0
    8.3530   -2.4140   21.9170 H   0  0  0  0  0  0  0  0  0  0  0  0
    5.5730   -1.2650   22.1750 H   0  0  0  0  0  0  0  0  0  0  0  0
    6.2380   -2.3460   20.9480 H   0  0  0  0  0  0  0  0  0  0  0  0
    9.9590   -0.4940   22.4810 C   0  0  0  0  0  0  0  0  0  0  0  0
   10.5180   -1.3840   21.5590 C   0  0  0  0  0  0  0  0  0  0  0  0
   11.8820   -1.4420   21.3860 C   0  0  0  0  0  0  0  0  0  0  0  0
   12.4740   -2.5210   20.1610 Cl  0  0  0  0  0  0  0  0  0  0  0  0
   12.7440   -0.6320   22.1230 C   0  0  0  0  0  0  0  0  0  0  0  0
   12.1960    0.2730   23.0130 C   0  0  0  0  0  0  0  0  0  0  0  0
   10.8100    0.3960   23.1450 C   0  0  0  0  0  0  0  0  0  0  0  0
   10.2550    1.5620   23.9250 C   0  0  0  0  0  0  0  0  0  0  0  0
   10.9720    2.4170   24.4310 O   0  0  0  0  0  0  0  0  0  0  0  0
   12.8280    0.9180   23.6130 H   0  0  0  0  0  0  0  0  0  0  0  0
   13.8140   -0.6840   21.9610 H   0  0  0  0  0  0  0  0  0  0  0  0
    9.9100   -2.0150   20.9220 H   0  0  0  0  0  0  0  0  0  0  0  0
    7.0340    0.7030   23.8000 H   0  0  0  0  0  0  0  0  0  0  0  0
    8.2220   -0.2200   24.7210 H   0  0  0  0  0  0  0  0  0  0  0  0
    9.0040    3.5760   24.6160 H   0  0  0  0  0  0  0  0  0  0  0  0
    7.7410    2.6290   25.4360 H   0  0  0  0  0  0  0  0  0  0  0  0
    8.4350    3.6750   21.9800 H   0  0  0  0  0  0  0  0  0  0  0  0
    5.7140    4.8710   21.9500 H   0  0  0  0  0  0  0  0  0  0  0  0
    6.9290    5.0240   20.6590 H   0  0  0  0  0  0  0  0  0  0  0  0
    6.0590    3.4730   20.9050 H   0  0  0  0  0  0  0  0  0  0  0  0
  1  2  1  0  0  0  0
  1 65  1  0  0  0  0
  1 66  1  0  0  0  0
  1 67  1  0  0  0  0
  2  3  1  0  0  0  0
  2 64  1  0  0  0  0
  3  4  2  0  0  0  0
  3  5  1  0  0  0  0
  5  6  1  0  0  0  0
  5 62  1  0  0  0  0
  5 63  1  0  0  0  0
  6  7  1  0  0  0  0
  6 55  1  0  0  0  0
  7  8  1  0  0  0  0
  7 60  1  0  0  0  0
  7 61  1  0  0  0  0
  8  9  1  6  0  0  0
  8 29  1  0  0  0  0
  8 48  1  0  0  0  0
  9 10  2  0  0  0  0
  9 11  1  0  0  0  0
 11 12  1  0  0  0  0
 11 28  1  0  0  0  0
 12 13  2  0  0  0  0
 12 21  1  0  0  0  0
 13 14  1  0  0  0  0
 13 27  1  0  0  0  0
 14 15  2  0  0  0  0
 15 16  1  0  0  0  0
 15 26  1  0  0  0  0
 16 17  2  0  0  0  0
 16 21  1  0  0  0  0
 17 18  1  0  0  0  0
 17 25  1  0  0  0  0
 18 19  2  0  0  0  0
 18 24  1  0  0  0  0
 19 20  1  0  0  0  0
 19 23  1  0  0  0  0
 20 21  2  0  0  0  0
 20 22  1  0  0  0  0
 28 29  1  0  0  0  0
 28 46  1  0  0  0  0
 28 47  1  0  0  0  0
 29 30  1  0  0  0  0
 29 45  1  6  0  0  0
 30 31  1  0  0  0  0
 30 43  1  0  0  0  0
 30 44  1  0  0  0  0
 31 32  1  0  0  0  0
 32 33  1  0  0  0  0
 32 41  1  0  0  0  0
 32 42  1  0  0  0  0
 33 34  1  0  0  0  0
 33 35  1  0  0  0  0
 33 40  1  0  0  0  0
 34 35  1  0  0  0  0
 34 38  1  0  0  0  0
 34 39  1  0  0  0  0
 35 36  1  0  0  0  0
 35 37  1  0  0  0  0
 48 49  2  0  0  0  0
 48 54  1  0  0  0  0
 49 50  1  0  0  0  0
 49 59  1  0  0  0  0
 50 51  1  0  0  0  0
 50 52  2  0  0  0  0
 52 53  1  0  0  0  0
 52 58  1  0  0  0  0
 53 54  2  0  0  0  0
 53 57  1  0  0  0  0
 54 55  1  0  0  0  0
 55 56  2  0  0  0  0
M  END
>  <MODEL>
       1

$$$$
