output/tmp_first_model_15_39.pdb
 OpenBabel07232601353D

 60 64  0  0  1  0  0  0  0  0999 V2000
    8.5260   -4.2770   23.9730 C   0  0  0  0  0  0  0  0  0  0  0  0
    8.3850   -2.8330   24.4380 C   0  0  0  0  0  0  0  0  0  0  0  0
    7.2870   -2.2010   23.7870 O   0  0  0  0  0  0  0  0  0  0  0  0
    7.6560   -1.6470   22.5500 C   0  0  1  0  0  0  0  0  0  0  0  0
    6.4520   -1.4890   21.6240 C   0  0  0  0  0  0  0  0  0  0  0  0
    6.8570   -0.3650   20.8100 N   0  0  0  0  0  0  0  0  0  0  0  0
    6.0980    0.1370   19.7320 C   0  0  0  0  0  0  0  0  0  0  0  0
    6.4460   -0.1710   18.4460 C   0  0  0  0  0  0  0  0  0  0  0  0
    5.7550    0.2520   17.3640 N   0  0  0  0  0  0  0  0  0  0  0  0
    4.7140    1.0210   17.5680 C   0  0  0  0  0  0  0  0  0  0  0  0
    4.2530    1.4200   18.8560 C   0  0  0  0  0  0  0  0  0  0  0  0
    3.1280    2.2640   19.0480 C   0  0  0  0  0  0  0  0  0  0  0  0
    2.7340    2.6360   20.3050 C   0  0  0  0  0  0  0  0  0  0  0  0
    3.4520    2.1870   21.4380 C   0  0  0  0  0  0  0  0  0  0  0  0
    4.5440    1.3710   21.2810 C   0  0  0  0  0  0  0  0  0  0  0  0
    4.9730    0.9700   19.9840 C   0  0  0  0  0  0  0  0  0  0  0  0
    5.1200    1.0680   22.1520 H   0  0  0  0  0  0  0  0  0  0  0  0
    3.1720    2.5170   22.4340 H   0  0  0  0  0  0  0  0  0  0  0  0
    1.8800    3.2930   20.4390 H   0  0  0  0  0  0  0  0  0  0  0  0
    2.6130    2.6280   18.1640 H   0  0  0  0  0  0  0  0  0  0  0  0
    4.1800    1.3720   16.6830 H   0  0  0  0  0  0  0  0  0  0  0  0
    7.3190   -0.7930   18.2510 H   0  0  0  0  0  0  0  0  0  0  0  0
    7.8490    0.4120   21.3490 C   0  0  0  0  0  0  0  0  0  0  0  0
    8.2640    1.4370   20.8420 O   0  0  0  0  0  0  0  0  0  0  0  0
    8.3530   -0.2570   22.6370 C   0  0  1  0  0  0  0  0  0  0  0  0
    7.9240    0.4970   23.9150 C   0  0  0  0  0  0  0  0  0  0  0  0
    8.7030    1.7040   24.1450 N   0  0  0  0  0  0  0  0  0  0  0  0
    7.9800    2.8540   24.6780 C   0  0  0  0  0  0  0  0  0  0  0  0
    6.9290    3.3410   23.6630 C   0  0  0  0  0  0  0  0  0  0  0  0
    5.7300    3.1520   23.8150 O   0  0  0  0  0  0  0  0  0  0  0  0
    7.4380    4.0020   22.5810 N   0  0  0  0  0  0  0  0  0  0  0  0
    6.5110    4.4000   21.5350 C   0  0  0  0  0  0  0  0  0  0  0  0
    6.0950    3.5360   20.9970 H   0  0  0  0  0  0  0  0  0  0  0  0
    7.0200    5.0630   20.8330 H   0  0  0  0  0  0  0  0  0  0  0  0
    5.6690    4.9310   21.9830 H   0  0  0  0  0  0  0  0  0  0  0  0
    8.3590    3.7140   22.2750 H   0  0  0  0  0  0  0  0  0  0  0  0
    7.4350    2.5850   25.5900 H   0  0  0  0  0  0  0  0  0  0  0  0
    8.7310    3.6110   24.9400 H   0  0  0  0  0  0  0  0  0  0  0  0
   10.0780    1.6800   24.1180 C   0  0  0  0  0  0  0  0  0  0  0  0
   10.7600    2.5180   24.6920 O   0  0  0  0  0  0  0  0  0  0  0  0
   10.6730    0.5690   23.2770 C   0  0  0  0  0  0  0  0  0  0  0  0
   12.0590    0.4450   23.1670 C   0  0  0  0  0  0  0  0  0  0  0  0
   12.6370   -0.4600   22.2890 C   0  0  0  0  0  0  0  0  0  0  0  0
   11.8010   -1.2480   21.5000 C   0  0  0  0  0  0  0  0  0  0  0  0
   12.4110   -2.3830   20.3380 Cl  0  0  0  0  0  0  0  0  0  0  0  0
   10.4340   -1.1600   21.6130 C   0  0  0  0  0  0  0  0  0  0  0  0
    9.8550   -0.3030   22.5520 C   0  0  0  0  0  0  0  0  0  0  0  0
    9.8330   -1.7500   20.9320 H   0  0  0  0  0  0  0  0  0  0  0  0
   13.7120   -0.5410   22.1900 H   0  0  0  0  0  0  0  0  0  0  0  0
   12.6760    1.0840   23.7830 H   0  0  0  0  0  0  0  0  0  0  0  0
    8.0080   -0.1740   24.7790 H   0  0  0  0  0  0  0  0  0  0  0  0
    6.8730    0.7790   23.8220 H   0  0  0  0  0  0  0  0  0  0  0  0
    6.2920   -2.3730   20.9970 H   0  0  0  0  0  0  0  0  0  0  0  0
    5.5240   -1.2970   22.1810 H   0  0  0  0  0  0  0  0  0  0  0  0
    8.3610   -2.3200   22.0540 H   0  0  0  0  0  0  0  0  0  0  0  0
    8.1820   -2.7620   25.5120 H   0  0  0  0  0  0  0  0  0  0  0  0
    9.3270   -2.2880   24.2430 H   0  0  0  0  0  0  0  0  0  0  0  0
    8.9290   -4.3140   22.9540 H   0  0  0  0  0  0  0  0  0  0  0  0
    9.2110   -4.8420   24.6150 H   0  0  0  0  0  0  0  0  0  0  0  0
    7.5490   -4.7670   23.9740 H   0  0  0  0  0  0  0  0  0  0  0  0
  1  2  1  0  0  0  0
  1 58  1  0  0  0  0
  1 59  1  0  0  0  0
  1 60  1  0  0  0  0
  2  3  1  0  0  0  0
  2 56  1  0  0  0  0
  2 57  1  0  0  0  0
  3  4  1  0  0  0  0
  4  5  1  0  0  0  0
  4 25  1  0  0  0  0
  4 55  1  6  0  0  0
  5  6  1  0  0  0  0
  5 53  1  0  0  0  0
  5 54  1  0  0  0  0
  6  7  1  0  0  0  0
  6 23  1  0  0  0  0
  7  8  2  0  0  0  0
  7 16  1  0  0  0  0
  8  9  1  0  0  0  0
  8 22  1  0  0  0  0
  9 10  2  0  0  0  0
 10 11  1  0  0  0  0
 10 21  1  0  0  0  0
 11 12  2  0  0  0  0
 11 16  1  0  0  0  0
 12 13  1  0  0  0  0
 12 20  1  0  0  0  0
 13 14  2  0  0  0  0
 13 19  1  0  0  0  0
 14 15  1  0  0  0  0
 14 18  1  0  0  0  0
 15 16  2  0  0  0  0
 15 17  1  0  0  0  0
 23 24  2  0  0  0  0
 25 23  1  6  0  0  0
 25 26  1  0  0  0  0
 25 47  1  0  0  0  0
 26 27  1  0  0  0  0
 26 51  1  0  0  0  0
 26 52  1  0  0  0  0
 27 28  1  0  0  0  0
 27 39  1  0  0  0  0
 28 29  1  0  0  0  0
 28 37  1  0  0  0  0
 28 38  1  0  0  0  0
 29 30  2  0  0  0  0
 29 31  1  0  0  0  0
 31 32  1  0  0  0  0
 31 36  1  0  0  0  0
 32 33  1  0  0  0  0
 32 34  1  0  0  0  0
 32 35  1  0  0  0  0
 39 40  2  0  0  0  0
 39 41  1  0  0  0  0
 41 42  2  0  0  0  0
 41 47  1  0  0  0  0
 42 43  1  0  0  0  0
 42 50  1  0  0  0  0
 43 44  2  0  0  0  0
 43 49  1  0  0  0  0
 44 45  1  0  0  0  0
 44 46  1  0  0  0  0
 46 47  2  0  0  0  0
 46 48  1  0  0  0  0
M  END
>  <MODEL>
       1

$$$$
