output/tmp_first_model_15_64.pdb
 OpenBabel07232601353D

 66 71  0  0  1  0  0  0  0  0999 V2000
    7.5420   -2.4210   23.8670 C   0  0  0  0  0  0  0  0  0  0  0  0
    7.8580   -1.6910   22.5560 C   0  0  1  0  0  0  0  0  0  0  0  0
    6.6270   -1.5470   21.6350 C   0  0  0  0  0  0  0  0  0  0  0  0
    6.9490   -0.3850   20.8240 N   0  0  0  0  0  0  0  0  0  0  0  0
    6.1430    0.1120   19.7630 C   0  0  0  0  0  0  0  0  0  0  0  0
    6.4560   -0.2080   18.4680 C   0  0  0  0  0  0  0  0  0  0  0  0
    5.7650    0.2240   17.3890 N   0  0  0  0  0  0  0  0  0  0  0  0
    4.7410    1.0150   17.5950 C   0  0  0  0  0  0  0  0  0  0  0  0
    4.2910    1.4160   18.8850 C   0  0  0  0  0  0  0  0  0  0  0  0
    3.1690    2.2710   19.0610 C   0  0  0  0  0  0  0  0  0  0  0  0
    2.7660    2.6420   20.3180 C   0  0  0  0  0  0  0  0  0  0  0  0
    3.4600    2.1660   21.4490 C   0  0  0  0  0  0  0  0  0  0  0  0
    4.5530    1.3430   21.3020 C   0  0  0  0  0  0  0  0  0  0  0  0
    5.0070    0.9490   20.0110 C   0  0  0  0  0  0  0  0  0  0  0  0
    5.0730    0.9830   22.1810 H   0  0  0  0  0  0  0  0  0  0  0  0
    3.1340    2.4550   22.4450 H   0  0  0  0  0  0  0  0  0  0  0  0
    1.9210    3.3150   20.4450 H   0  0  0  0  0  0  0  0  0  0  0  0
    2.6620    2.6400   18.1770 H   0  0  0  0  0  0  0  0  0  0  0  0
    4.2150    1.3810   16.7140 H   0  0  0  0  0  0  0  0  0  0  0  0
    7.3040   -0.8570   18.2600 H   0  0  0  0  0  0  0  0  0  0  0  0
    7.9890    0.3710   21.3190 C   0  0  0  0  0  0  0  0  0  0  0  0
    8.4490    1.3490   20.7660 O   0  0  0  0  0  0  0  0  0  0  0  0
    8.4370   -0.2420   22.6680 C   0  0  1  0  0  0  0  0  0  0  0  0
    7.8000    0.5260   23.8550 C   0  0  0  0  0  0  0  0  0  0  0  0
    8.2690    1.8970   23.9120 N   0  0  0  0  0  0  0  0  0  0  0  0
    7.3180    2.9880   24.0570 C   0  0  0  0  0  0  0  0  0  0  0  0
    7.0680    3.7060   22.7270 C   0  0  0  0  0  0  0  0  0  0  0  0
    5.9380    4.6740   22.7730 N   0  3  0  0  0  0  0  0  0  0  0  0
    6.1720    5.8150   23.7400 C   0  0  0  0  0  0  0  0  0  0  0  0
    5.1950    6.9680   23.4410 C   0  0  0  0  0  0  0  0  0  0  0  0
    4.0610    6.4860   22.7560 O   0  0  0  0  0  0  0  0  0  0  0  0
    4.3890    6.1180   21.4330 C   0  0  0  0  0  0  0  0  0  0  0  0
    5.6200    5.1880   21.3940 C   0  0  0  0  0  0  0  0  0  0  0  0
    6.5000    5.7190   21.0110 H   0  0  0  0  0  0  0  0  0  0  0  0
    5.4340    4.3250   20.7460 H   0  0  0  0  0  0  0  0  0  0  0  0
    4.5850    7.0110   20.8150 H   0  0  0  0  0  0  0  0  0  0  0  0
    3.4920    5.6330   21.0360 H   0  0  0  0  0  0  0  0  0  0  0  0
    5.6930    7.7560   22.8540 H   0  0  0  0  0  0  0  0  0  0  0  0
    4.8270    7.4200   24.3660 H   0  0  0  0  0  0  0  0  0  0  0  0
    6.0210    5.4420   24.7560 H   0  0  0  0  0  0  0  0  0  0  0  0
    7.2090    6.1500   23.6400 H   0  0  0  0  0  0  0  0  0  0  0  0
    5.0870    4.1660   23.0860 H   0  0  0  0  0  0  0  0  0  0  0  0
    6.8570    2.9710   21.9440 H   0  0  0  0  0  0  0  0  0  0  0  0
    7.9820    4.2440   22.4340 H   0  0  0  0  0  0  0  0  0  0  0  0
    7.7190    3.6730   24.8090 H   0  0  0  0  0  0  0  0  0  0  0  0
    6.3780    2.5620   24.4280 H   0  0  0  0  0  0  0  0  0  0  0  0
    9.6000    2.1940   23.8430 C   0  0  0  0  0  0  0  0  0  0  0  0
   10.0450    3.3000   24.1280 O   0  0  0  0  0  0  0  0  0  0  0  0
   10.4900    1.0720   23.3690 C   0  0  0  0  0  0  0  0  0  0  0  0
   11.8730    1.2320   23.4410 C   0  0  0  0  0  0  0  0  0  0  0  0
   12.7230    0.2250   23.0120 C   0  0  0  0  0  0  0  0  0  0  0  0
   12.1600   -0.9500   22.5200 C   0  0  0  0  0  0  0  0  0  0  0  0
   13.0960   -2.3790   22.2320 Cl  0  0  0  0  0  0  0  0  0  0  0  0
   10.8000   -1.0760   22.3430 C   0  0  0  0  0  0  0  0  0  0  0  0
    9.9360   -0.0940   22.8170 C   0  0  0  0  0  0  0  0  0  0  0  0
   10.4430   -1.9610   21.8360 H   0  0  0  0  0  0  0  0  0  0  0  0
   13.7960    0.3490   23.0580 H   0  0  0  0  0  0  0  0  0  0  0  0
   12.2510    2.1540   23.8710 H   0  0  0  0  0  0  0  0  0  0  0  0
    8.0620   -0.0060   24.7860 H   0  0  0  0  0  0  0  0  0  0  0  0
    6.7090    0.5430   23.7460 H   0  0  0  0  0  0  0  0  0  0  0  0
    5.7070   -1.3980   22.2230 H   0  0  0  0  0  0  0  0  0  0  0  0
    6.4650   -2.4250   20.9990 H   0  0  0  0  0  0  0  0  0  0  0  0
    8.5960   -2.2790   22.0030 H   0  0  0  0  0  0  0  0  0  0  0  0
    7.2300   -3.4570   23.6820 H   0  0  0  0  0  0  0  0  0  0  0  0
    8.4080   -2.4500   24.5400 H   0  0  0  0  0  0  0  0  0  0  0  0
    6.7220   -1.9290   24.4050 H   0  0  0  0  0  0  0  0  0  0  0  0
  1  2  1  0  0  0  0
  1 64  1  0  0  0  0
  1 65  1  0  0  0  0
  1 66  1  0  0  0  0
  2  3  1  0  0  0  0
  2 23  1  0  0  0  0
  2 63  1  6  0  0  0
  3  4  1  0  0  0  0
  3 61  1  0  0  0  0
  3 62  1  0  0  0  0
  4  5  1  0  0  0  0
  4 21  1  0  0  0  0
  5  6  2  0  0  0  0
  5 14  1  0  0  0  0
  6  7  1  0  0  0  0
  6 20  1  0  0  0  0
  7  8  2  0  0  0  0
  8  9  1  0  0  0  0
  8 19  1  0  0  0  0
  9 10  2  0  0  0  0
  9 14  1  0  0  0  0
 10 11  1  0  0  0  0
 10 18  1  0  0  0  0
 11 12  2  0  0  0  0
 11 17  1  0  0  0  0
 12 13  1  0  0  0  0
 12 16  1  0  0  0  0
 13 14  2  0  0  0  0
 13 15  1  0  0  0  0
 21 22  2  0  0  0  0
 23 21  1  6  0  0  0
 23 24  1  0  0  0  0
 23 55  1  0  0  0  0
 24 25  1  0  0  0  0
 24 59  1  0  0  0  0
 24 60  1  0  0  0  0
 25 26  1  0  0  0  0
 25 47  1  0  0  0  0
 26 27  1  0  0  0  0
 26 45  1  0  0  0  0
 26 46  1  0  0  0  0
 27 28  1  0  0  0  0
 27 43  1  0  0  0  0
 27 44  1  0  0  0  0
 28 29  1  0  0  0  0
 28 33  1  0  0  0  0
 28 42  1  0  0  0  0
 29 30  1  0  0  0  0
 29 40  1  0  0  0  0
 29 41  1  0  0  0  0
 30 31  1  0  0  0  0
 30 38  1  0  0  0  0
 30 39  1  0  0  0  0
 31 32  1  0  0  0  0
 32 33  1  0  0  0  0
 32 36  1  0  0  0  0
 32 37  1  0  0  0  0
 33 34  1  0  0  0  0
 33 35  1  0  0  0  0
 47 48  2  0  0  0  0
 47 49  1  0  0  0  0
 49 50  2  0  0  0  0
 49 55  1  0  0  0  0
 50 51  1  0  0  0  0
 50 58  1  0  0  0  0
 51 52  2  0  0  0  0
 51 57  1  0  0  0  0
 52 53  1  0  0  0  0
 52 54  1  0  0  0  0
 54 55  2  0  0  0  0
 54 56  1  0  0  0  0
M  CHG  1  28   1
M  END
>  <MODEL>
       1

$$$$
