output/tmp_first_model_14_39.pdb
 OpenBabel07232601073D

 60 64  0  0  1  0  0  0  0  0999 V2000
   10.4210   -0.3110   25.0160 C   0  0  0  0  0  0  0  0  0  0  0  0
   10.1470    0.6440   23.8640 C   0  0  0  0  0  0  0  0  0  0  0  0
    9.7910   -0.0350   22.6750 O   0  0  0  0  0  0  0  0  0  0  0  0
    8.4340   -0.3920   22.5530 C   0  0  1  0  0  0  0  0  0  0  0  0
    7.8170    0.4390   21.4280 C   0  0  0  0  0  0  0  0  0  0  0  0
    6.8320   -0.4450   20.8520 N   0  0  0  0  0  0  0  0  0  0  0  0
    6.0560   -0.0070   19.7510 C   0  0  0  0  0  0  0  0  0  0  0  0
    6.3950   -0.3200   18.4580 C   0  0  0  0  0  0  0  0  0  0  0  0
    5.7640    0.1810   17.3640 N   0  0  0  0  0  0  0  0  0  0  0  0
    4.7690    1.0120   17.5670 C   0  0  0  0  0  0  0  0  0  0  0  0
    4.3020    1.4030   18.8550 C   0  0  0  0  0  0  0  0  0  0  0  0
    3.2000    2.2830   19.0300 C   0  0  0  0  0  0  0  0  0  0  0  0
    2.7830    2.6240   20.2890 C   0  0  0  0  0  0  0  0  0  0  0  0
    3.4500    2.1170   21.4260 C   0  0  0  0  0  0  0  0  0  0  0  0
    4.5220    1.2690   21.2820 C   0  0  0  0  0  0  0  0  0  0  0  0
    4.9680    0.8910   19.9860 C   0  0  0  0  0  0  0  0  0  0  0  0
    5.0330    0.8740   22.1530 H   0  0  0  0  0  0  0  0  0  0  0  0
    3.1140    2.4010   22.4200 H   0  0  0  0  0  0  0  0  0  0  0  0
    1.9340    3.2900   20.4220 H   0  0  0  0  0  0  0  0  0  0  0  0
    2.7020    2.6750   18.1470 H   0  0  0  0  0  0  0  0  0  0  0  0
    4.2720    1.4130   16.6830 H   0  0  0  0  0  0  0  0  0  0  0  0
    7.2230   -0.9960   18.2560 H   0  0  0  0  0  0  0  0  0  0  0  0
    7.0430   -1.7770   21.1470 C   0  0  0  0  0  0  0  0  0  0  0  0
    6.3640   -2.6750   20.6920 O   0  0  0  0  0  0  0  0  0  0  0  0
    8.2080   -1.8930   22.1540 C   0  0  1  0  0  0  0  0  0  0  0  0
    9.4670   -2.4840   21.4610 C   0  0  0  0  0  0  0  0  0  0  0  0
   10.5560   -2.7580   22.4000 N   0  0  0  0  0  0  0  0  0  0  0  0
   11.9550   -2.5400   22.0580 C   0  0  0  0  0  0  0  0  0  0  0  0
   12.6250   -1.3620   22.7840 C   0  0  0  0  0  0  0  0  0  0  0  0
   13.0260   -1.4780   23.9390 O   0  0  0  0  0  0  0  0  0  0  0  0
   12.7910   -0.2020   22.0880 N   0  0  0  0  0  0  0  0  0  0  0  0
   13.6160    0.8580   22.6490 C   0  0  0  0  0  0  0  0  0  0  0  0
   13.5170    1.7960   22.0940 H   0  0  0  0  0  0  0  0  0  0  0  0
   14.6680    0.5660   22.6580 H   0  0  0  0  0  0  0  0  0  0  0  0
   13.3270    1.0390   23.6890 H   0  0  0  0  0  0  0  0  0  0  0  0
   12.4800   -0.1960   21.1320 H   0  0  0  0  0  0  0  0  0  0  0  0
   12.0320   -2.4370   20.9710 H   0  0  0  0  0  0  0  0  0  0  0  0
   12.5070   -3.4240   22.3960 H   0  0  0  0  0  0  0  0  0  0  0  0
   10.3050   -3.4640   23.5440 C   0  0  0  0  0  0  0  0  0  0  0  0
   11.1800   -3.9820   24.2240 O   0  0  0  0  0  0  0  0  0  0  0  0
    8.8710   -3.5390   23.9680 C   0  0  0  0  0  0  0  0  0  0  0  0
    8.5950   -4.3200   25.0890 C   0  0  0  0  0  0  0  0  0  0  0  0
    7.3140   -4.3880   25.6030 C   0  0  0  0  0  0  0  0  0  0  0  0
    6.3050   -3.6750   24.9550 C   0  0  0  0  0  0  0  0  0  0  0  0
    4.6810   -3.7740   25.5750 Cl  0  0  0  0  0  0  0  0  0  0  0  0
    6.5580   -2.9030   23.8310 C   0  0  0  0  0  0  0  0  0  0  0  0
    7.8660   -2.8020   23.3280 C   0  0  0  0  0  0  0  0  0  0  0  0
    5.7310   -2.4070   23.3330 H   0  0  0  0  0  0  0  0  0  0  0  0
    7.0770   -5.0020   26.4700 H   0  0  0  0  0  0  0  0  0  0  0  0
    9.4100   -4.8740   25.5480 H   0  0  0  0  0  0  0  0  0  0  0  0
    9.8030   -1.7710   20.7120 H   0  0  0  0  0  0  0  0  0  0  0  0
    9.1640   -3.4100   20.9620 H   0  0  0  0  0  0  0  0  0  0  0  0
    7.3540    1.3600   21.7950 H   0  0  0  0  0  0  0  0  0  0  0  0
    8.5950    0.7170   20.7010 H   0  0  0  0  0  0  0  0  0  0  0  0
    7.9000   -0.2130   23.4990 H   0  0  0  0  0  0  0  0  0  0  0  0
    9.3590    1.3640   24.1350 H   0  0  0  0  0  0  0  0  0  0  0  0
   11.0350    1.2320   23.6170 H   0  0  0  0  0  0  0  0  0  0  0  0
   11.2530   -0.9780   24.7970 H   0  0  0  0  0  0  0  0  0  0  0  0
    9.5420   -0.9230   25.2510 H   0  0  0  0  0  0  0  0  0  0  0  0
   10.7100    0.2560   25.8980 H   0  0  0  0  0  0  0  0  0  0  0  0
  1  2  1  0  0  0  0
  1 58  1  0  0  0  0
  1 59  1  0  0  0  0
  1 60  1  0  0  0  0
  2  3  1  0  0  0  0
  2 56  1  0  0  0  0
  2 57  1  0  0  0  0
  3  4  1  0  0  0  0
  4  5  1  0  0  0  0
  4 25  1  0  0  0  0
  4 55  1  1  0  0  0
  5  6  1  0  0  0  0
  5 53  1  0  0  0  0
  5 54  1  0  0  0  0
  6  7  1  0  0  0  0
  6 23  1  0  0  0  0
  7  8  2  0  0  0  0
  7 16  1  0  0  0  0
  8  9  1  0  0  0  0
  8 22  1  0  0  0  0
  9 10  2  0  0  0  0
 10 11  1  0  0  0  0
 10 21  1  0  0  0  0
 11 12  2  0  0  0  0
 11 16  1  0  0  0  0
 12 13  1  0  0  0  0
 12 20  1  0  0  0  0
 13 14  2  0  0  0  0
 13 19  1  0  0  0  0
 14 15  1  0  0  0  0
 14 18  1  0  0  0  0
 15 16  2  0  0  0  0
 15 17  1  0  0  0  0
 23 24  2  0  0  0  0
 25 23  1  6  0  0  0
 25 26  1  0  0  0  0
 25 47  1  0  0  0  0
 26 27  1  0  0  0  0
 26 51  1  0  0  0  0
 26 52  1  0  0  0  0
 27 28  1  0  0  0  0
 27 39  1  0  0  0  0
 28 29  1  0  0  0  0
 28 37  1  0  0  0  0
 28 38  1  0  0  0  0
 29 30  2  0  0  0  0
 29 31  1  0  0  0  0
 31 32  1  0  0  0  0
 31 36  1  0  0  0  0
 32 33  1  0  0  0  0
 32 34  1  0  0  0  0
 32 35  1  0  0  0  0
 39 40  2  0  0  0  0
 39 41  1  0  0  0  0
 41 42  2  0  0  0  0
 41 47  1  0  0  0  0
 42 43  1  0  0  0  0
 42 50  1  0  0  0  0
 43 44  2  0  0  0  0
 43 49  1  0  0  0  0
 44 45  1  0  0  0  0
 44 46  1  0  0  0  0
 46 47  2  0  0  0  0
 46 48  1  0  0  0  0
M  END
>  <MODEL>
       1

$$$$
