output/tmp_first_model_7_27.pdb
 OpenBabel07222621533D

 46 48  0  0  1  0  0  0  0  0999 V2000
    9.2980   -0.5410   25.5070 C   0  0  0  0  0  0  0  0  0  0  0  0
    9.1740    0.3430   24.2660 C   0  0  0  0  0  0  0  0  0  0  0  0
    7.7200    0.5500   23.7960 C   0  0  1  0  0  0  0  0  0  0  0  0
    6.7820    1.1980   24.8290 C   0  0  0  0  0  0  0  0  0  0  0  0
    6.8290    2.7320   24.9140 C   0  0  1  0  0  0  0  0  0  0  0  0
    7.9040    3.2740   25.8470 C   0  0  0  0  0  0  0  0  0  0  0  0
    7.9590    2.5840   27.0010 F   0  0  0  0  0  0  0  0  0  0  0  0
    9.1480    3.2570   25.3140 F   0  0  0  0  0  0  0  0  0  0  0  0
    7.6580    4.5630   26.1640 F   0  0  0  0  0  0  0  0  0  0  0  0
    6.9190    3.3930   23.5370 C   0  0  0  0  0  0  0  0  0  0  0  0
    7.9830    2.7350   22.6630 C   0  0  0  0  0  0  0  0  0  0  0  0
    7.6670    1.3140   22.5410 N   0  0  0  0  0  0  0  0  0  0  0  0
    7.7650    0.7660   21.2760 C   0  0  0  0  0  0  0  0  0  0  0  0
    8.4370    1.2810   20.3970 O   0  0  0  0  0  0  0  0  0  0  0  0
    6.9250   -0.4690   20.9530 C   0  0  0  0  0  0  0  0  0  0  0  0
    5.9580   -0.0920   19.8550 C   0  0  0  0  0  0  0  0  0  0  0  0
    6.3680   -0.2000   18.5530 C   0  0  0  0  0  0  0  0  0  0  0  0
    5.7170    0.2970   17.4750 N   0  0  0  0  0  0  0  0  0  0  0  0
    4.6090    0.9530   17.7010 C   0  0  0  0  0  0  0  0  0  0  0  0
    4.0290    1.1050   18.9840 C   0  0  0  0  0  0  0  0  0  0  0  0
    2.8050    1.8020   19.1530 C   0  0  0  0  0  0  0  0  0  0  0  0
    2.2240    1.9050   20.3870 C   0  0  0  0  0  0  0  0  0  0  0  0
    2.8630    1.3170   21.4990 C   0  0  0  0  0  0  0  0  0  0  0  0
    4.0690    0.6750   21.3670 C   0  0  0  0  0  0  0  0  0  0  0  0
    4.7020    0.5510   20.1000 C   0  0  0  0  0  0  0  0  0  0  0  0
    4.5450    0.2590   22.2490 H   0  0  0  0  0  0  0  0  0  0  0  0
    2.3950    1.4030   22.4770 H   0  0  0  0  0  0  0  0  0  0  0  0
    1.2940    2.4510   20.5140 H   0  0  0  0  0  0  0  0  0  0  0  0
    2.3340    2.2330   18.2750 H   0  0  0  0  0  0  0  0  0  0  0  0
    4.1180    1.4050   16.8400 H   0  0  0  0  0  0  0  0  0  0  0  0
    7.3330   -0.6510   18.3310 H   0  0  0  0  0  0  0  0  0  0  0  0
    7.6230   -1.2330   20.5860 H   0  0  0  0  0  0  0  0  0  0  0  0
    6.4210   -0.8600   21.8380 H   0  0  0  0  0  0  0  0  0  0  0  0
    7.9830    3.1690   21.6620 H   0  0  0  0  0  0  0  0  0  0  0  0
    8.9870    2.8770   23.0740 H   0  0  0  0  0  0  0  0  0  0  0  0
    7.1140    4.4650   23.6390 H   0  0  0  0  0  0  0  0  0  0  0  0
    5.9550    3.2880   23.0250 H   0  0  0  0  0  0  0  0  0  0  0  0
    5.9000    3.0590   25.3970 H   0  0  0  0  0  0  0  0  0  0  0  0
    6.9450    0.7620   25.8190 H   0  0  0  0  0  0  0  0  0  0  0  0
    5.7570    0.9170   24.5530 H   0  0  0  0  0  0  0  0  0  0  0  0
    7.3230   -0.4510   23.5940 H   0  0  0  0  0  0  0  0  0  0  0  0
    9.7310   -0.1180   23.4400 H   0  0  0  0  0  0  0  0  0  0  0  0
    9.6440    1.3050   24.4730 H   0  0  0  0  0  0  0  0  0  0  0  0
    8.9090   -0.0390   26.3990 H   0  0  0  0  0  0  0  0  0  0  0  0
   10.3490   -0.7800   25.6920 H   0  0  0  0  0  0  0  0  0  0  0  0
    8.7610   -1.4880   25.3820 H   0  0  0  0  0  0  0  0  0  0  0  0
  1  2  1  0  0  0  0
  1 44  1  0  0  0  0
  1 45  1  0  0  0  0
  1 46  1  0  0  0  0
  2  3  1  0  0  0  0
  2 42  1  0  0  0  0
  2 43  1  0  0  0  0
  3  4  1  0  0  0  0
  3 12  1  0  0  0  0
  3 41  1  6  0  0  0
  4  5  1  0  0  0  0
  4 39  1  0  0  0  0
  4 40  1  0  0  0  0
  5  6  1  0  0  0  0
  5 10  1  0  0  0  0
  5 38  1  1  0  0  0
  6  7  1  0  0  0  0
  6  8  1  0  0  0  0
  6  9  1  0  0  0  0
 10 11  1  0  0  0  0
 10 36  1  0  0  0  0
 10 37  1  0  0  0  0
 11 12  1  0  0  0  0
 11 34  1  0  0  0  0
 11 35  1  0  0  0  0
 12 13  1  0  0  0  0
 13 14  2  0  0  0  0
 13 15  1  0  0  0  0
 15 16  1  0  0  0  0
 15 32  1  0  0  0  0
 15 33  1  0  0  0  0
 16 17  2  0  0  0  0
 16 25  1  0  0  0  0
 17 18  1  0  0  0  0
 17 31  1  0  0  0  0
 18 19  2  0  0  0  0
 19 20  1  0  0  0  0
 19 30  1  0  0  0  0
 20 21  2  0  0  0  0
 20 25  1  0  0  0  0
 21 22  1  0  0  0  0
 21 29  1  0  0  0  0
 22 23  2  0  0  0  0
 22 28  1  0  0  0  0
 23 24  1  0  0  0  0
 23 27  1  0  0  0  0
 24 25  2  0  0  0  0
 24 26  1  0  0  0  0
M  END
>  <MODEL>
       1

$$$$
