output/tmp_first_model_16_75.pdb
 OpenBabel07232602073D

 70 75  0  0  1  0  0  0  0  0999 V2000
   11.4250    5.4310   25.7280 C   0  0  0  0  0  0  0  0  0  0  0  0
   11.8190    4.9950   24.4480 O   0  0  0  0  0  0  0  0  0  0  0  0
   10.8140    4.6220   23.6240 C   0  0  0  0  0  0  0  0  0  0  0  0
   11.1490    3.9700   22.4400 C   0  0  0  0  0  0  0  0  0  0  0  0
   10.1260    3.5840   21.5970 C   0  0  0  0  0  0  0  0  0  0  0  0
    8.7990    3.8860   21.8680 C   0  0  0  0  0  0  0  0  0  0  0  0
    8.4780    4.5960   23.0110 C   0  0  0  0  0  0  0  0  0  0  0  0
    7.0310    4.8460   23.3540 C   0  0  0  0  0  0  0  0  0  0  0  0
    6.4710    3.5730   23.7860 N   0  0  0  0  0  0  0  0  0  0  0  0
    6.5930    3.2720   25.1160 C   0  0  0  0  0  0  0  0  0  0  0  0
    6.6970    4.1210   25.9880 O   0  0  0  0  0  0  0  0  0  0  0  0
    6.5600    1.7730   25.4130 C   0  0  0  0  0  0  0  0  0  0  0  0
    7.6150    1.0590   24.7150 N   0  0  0  0  0  0  0  0  0  0  0  0
    7.3850   -0.2340   24.0840 C   0  0  0  0  0  0  0  0  0  0  0  0
    8.2070   -0.4020   22.7710 C   0  0  2  0  0  0  0  0  0  0  0  0
    7.4540    0.3990   21.6990 C   0  0  0  0  0  0  0  0  0  0  0  0
    7.2860    1.6030   21.7070 O   0  0  0  0  0  0  0  0  0  0  0  0
    6.8740   -0.4500   20.7990 N   0  0  0  0  0  0  0  0  0  0  0  0
    6.0680    0.0330   19.7410 C   0  0  0  0  0  0  0  0  0  0  0  0
    6.3810   -0.2840   18.4430 C   0  0  0  0  0  0  0  0  0  0  0  0
    5.7270    0.2070   17.3640 N   0  0  0  0  0  0  0  0  0  0  0  0
    4.7220    1.0200   17.5800 C   0  0  0  0  0  0  0  0  0  0  0  0
    4.2710    1.3980   18.8740 C   0  0  0  0  0  0  0  0  0  0  0  0
    3.1750    2.2810   19.0530 C   0  0  0  0  0  0  0  0  0  0  0  0
    2.7570    2.6300   20.3090 C   0  0  0  0  0  0  0  0  0  0  0  0
    3.4120    2.1040   21.4450 C   0  0  0  0  0  0  0  0  0  0  0  0
    4.4690    1.2440   21.2940 C   0  0  0  0  0  0  0  0  0  0  0  0
    4.9460    0.8840   19.9990 C   0  0  0  0  0  0  0  0  0  0  0  0
    4.9660    0.8500   22.1730 H   0  0  0  0  0  0  0  0  0  0  0  0
    3.0950    2.3980   22.4420 H   0  0  0  0  0  0  0  0  0  0  0  0
    1.9270    3.3170   20.4420 H   0  0  0  0  0  0  0  0  0  0  0  0
    2.6880    2.6820   18.1680 H   0  0  0  0  0  0  0  0  0  0  0  0
    4.2090    1.4200   16.7050 H   0  0  0  0  0  0  0  0  0  0  0  0
    7.2310   -0.9330   18.2320 H   0  0  0  0  0  0  0  0  0  0  0  0
    6.9100   -1.8290   21.2410 C   0  0  0  0  0  0  0  0  0  0  0  0
    8.1170   -1.8520   22.1950 C   0  0  2  0  0  0  0  0  0  0  0  0
    8.0320   -2.9850   23.2170 C   0  0  0  0  0  0  0  0  0  0  0  0
    7.0930   -2.9230   23.7820 H   0  0  0  0  0  0  0  0  0  0  0  0
    8.0490   -3.9660   22.7280 H   0  0  0  0  0  0  0  0  0  0  0  0
    8.8580   -2.9530   23.9370 H   0  0  0  0  0  0  0  0  0  0  0  0
    9.0140   -1.9940   21.5840 H   0  0  0  0  0  0  0  0  0  0  0  0
    7.0130   -2.4840   20.3820 H   0  0  0  0  0  0  0  0  0  0  0  0
    5.9840   -2.1250   21.7630 H   0  0  0  0  0  0  0  0  0  0  0  0
    9.6270    0.1020   22.9900 C   0  0  0  0  0  0  0  0  0  0  0  0
   10.6660   -0.1680   22.0820 C   0  0  0  0  0  0  0  0  0  0  0  0
   11.9550    0.2500   22.3680 C   0  0  0  0  0  0  0  0  0  0  0  0
   13.2620   -0.0220   21.2550 Cl  0  0  0  0  0  0  0  0  0  0  0  0
   12.2820    0.9110   23.5510 C   0  0  0  0  0  0  0  0  0  0  0  0
   11.2570    1.2070   24.4130 C   0  0  0  0  0  0  0  0  0  0  0  0
    9.9440    0.8750   24.1080 C   0  0  0  0  0  0  0  0  0  0  0  0
    8.8960    1.4400   25.0070 C   0  0  0  0  0  0  0  0  0  0  0  0
    9.1700    2.2270   25.9050 O   0  0  0  0  0  0  0  0  0  0  0  0
   11.4220    1.7350   25.3360 H   0  0  0  0  0  0  0  0  0  0  0  0
   13.3090    1.2310   23.7160 H   0  0  0  0  0  0  0  0  0  0  0  0
   10.4860   -0.6990   21.1520 H   0  0  0  0  0  0  0  0  0  0  0  0
    7.6410   -1.0350   24.7880 H   0  0  0  0  0  0  0  0  0  0  0  0
    6.3230   -0.3340   23.8350 H   0  0  0  0  0  0  0  0  0  0  0  0
    5.6010    1.3640   25.0780 H   0  0  0  0  0  0  0  0  0  0  0  0
    6.6470    1.6570   26.4930 H   0  0  0  0  0  0  0  0  0  0  0  0
    6.6320    2.8120   23.1200 H   0  0  0  0  0  0  0  0  0  0  0  0
    6.4710    5.2240   22.4890 H   0  0  0  0  0  0  0  0  0  0  0  0
    6.9440    5.5650   24.1730 H   0  0  0  0  0  0  0  0  0  0  0  0
    9.4810    4.9020   23.9210 C   0  0  0  0  0  0  0  0  0  0  0  0
    9.2250    5.3300   24.8790 H   0  0  0  0  0  0  0  0  0  0  0  0
    8.0310    3.5620   21.1710 H   0  0  0  0  0  0  0  0  0  0  0  0
   10.3540    3.0560   20.6850 H   0  0  0  0  0  0  0  0  0  0  0  0
   12.1790    3.7070   22.2190 H   0  0  0  0  0  0  0  0  0  0  0  0
   12.3400    5.7530   26.2150 H   0  0  0  0  0  0  0  0  0  0  0  0
   10.7460    6.2950   25.6780 H   0  0  0  0  0  0  0  0  0  0  0  0
   10.9330    4.6070   26.2700 H   0  0  0  0  0  0  0  0  0  0  0  0
  1  2  1  0  0  0  0
  1 68  1  0  0  0  0
  1 69  1  0  0  0  0
  1 70  1  0  0  0  0
  2  3  1  0  0  0  0
  3  4  2  0  0  0  0
  3 63  1  0  0  0  0
  4  5  1  0  0  0  0
  4 67  1  0  0  0  0
  5  6  2  0  0  0  0
  5 66  1  0  0  0  0
  6  7  1  0  0  0  0
  6 65  1  0  0  0  0
  7  8  1  0  0  0  0
  7 63  2  0  0  0  0
  8  9  1  0  0  0  0
  8 61  1  0  0  0  0
  8 62  1  0  0  0  0
  9 10  1  0  0  0  0
  9 60  1  0  0  0  0
 10 11  2  0  0  0  0
 10 12  1  0  0  0  0
 12 13  1  0  0  0  0
 12 58  1  0  0  0  0
 12 59  1  0  0  0  0
 13 14  1  0  0  0  0
 13 51  1  0  0  0  0
 14 15  1  0  0  0  0
 14 56  1  0  0  0  0
 14 57  1  0  0  0  0
 15 16  1  6  0  0  0
 15 36  1  0  0  0  0
 15 44  1  0  0  0  0
 16 17  2  0  0  0  0
 16 18  1  0  0  0  0
 18 19  1  0  0  0  0
 18 35  1  0  0  0  0
 19 20  2  0  0  0  0
 19 28  1  0  0  0  0
 20 21  1  0  0  0  0
 20 34  1  0  0  0  0
 21 22  2  0  0  0  0
 22 23  1  0  0  0  0
 22 33  1  0  0  0  0
 23 24  2  0  0  0  0
 23 28  1  0  0  0  0
 24 25  1  0  0  0  0
 24 32  1  0  0  0  0
 25 26  2  0  0  0  0
 25 31  1  0  0  0  0
 26 27  1  0  0  0  0
 26 30  1  0  0  0  0
 27 28  2  0  0  0  0
 27 29  1  0  0  0  0
 35 36  1  0  0  0  0
 35 42  1  0  0  0  0
 35 43  1  0  0  0  0
 36 37  1  0  0  0  0
 36 41  1  6  0  0  0
 37 38  1  0  0  0  0
 37 39  1  0  0  0  0
 37 40  1  0  0  0  0
 44 45  2  0  0  0  0
 44 50  1  0  0  0  0
 45 46  1  0  0  0  0
 45 55  1  0  0  0  0
 46 47  1  0  0  0  0
 46 48  2  0  0  0  0
 48 49  1  0  0  0  0
 48 54  1  0  0  0  0
 49 50  2  0  0  0  0
 49 53  1  0  0  0  0
 50 51  1  0  0  0  0
 51 52  2  0  0  0  0
 63 64  1  0  0  0  0
M  END
>  <MODEL>
       1

$$$$
