output/tmp_first_model_14_90.pdb
 OpenBabel07232601073D

 62 67  0  0  1  0  0  0  0  0999 V2000
    7.7990   -2.9150   23.2990 C   0  0  0  0  0  0  0  0  0  0  0  0
    8.1130   -1.8490   22.2470 C   0  0  1  0  0  0  0  0  0  0  0  0
    6.9410   -1.6710   21.2750 C   0  0  0  0  0  0  0  0  0  0  0  0
    7.0930   -0.3140   20.8000 N   0  0  0  0  0  0  0  0  0  0  0  0
    6.2620    0.1900   19.7650 C   0  0  0  0  0  0  0  0  0  0  0  0
    6.5240   -0.2020   18.4770 C   0  0  0  0  0  0  0  0  0  0  0  0
    5.8260    0.2010   17.3870 N   0  0  0  0  0  0  0  0  0  0  0  0
    4.8100    1.0050   17.5860 C   0  0  0  0  0  0  0  0  0  0  0  0
    4.3770    1.4330   18.8740 C   0  0  0  0  0  0  0  0  0  0  0  0
    3.2390    2.2670   19.0280 C   0  0  0  0  0  0  0  0  0  0  0  0
    2.7870    2.6000   20.2730 C   0  0  0  0  0  0  0  0  0  0  0  0
    3.4590    2.1200   21.4200 C   0  0  0  0  0  0  0  0  0  0  0  0
    4.5860    1.3420   21.3030 C   0  0  0  0  0  0  0  0  0  0  0  0
    5.0910    0.9910   20.0150 C   0  0  0  0  0  0  0  0  0  0  0  0
    5.0900    0.9890   22.2020 H   0  0  0  0  0  0  0  0  0  0  0  0
    3.0810    2.3760   22.4050 H   0  0  0  0  0  0  0  0  0  0  0  0
    1.9070    3.2270   20.3890 H   0  0  0  0  0  0  0  0  0  0  0  0
    2.7380    2.6220   18.1330 H   0  0  0  0  0  0  0  0  0  0  0  0
    4.2520    1.3460   16.7110 H   0  0  0  0  0  0  0  0  0  0  0  0
    7.3550   -0.8820   18.2810 H   0  0  0  0  0  0  0  0  0  0  0  0
    7.9800    0.4470   21.5460 C   0  0  0  0  0  0  0  0  0  0  0  0
    8.2970    1.5820   21.2630 O   0  0  0  0  0  0  0  0  0  0  0  0
    8.4010   -0.3940   22.7740 C   0  0  1  0  0  0  0  0  0  0  0  0
    7.3820    0.0090   23.8770 C   0  0  0  0  0  0  0  0  0  0  0  0
    7.7840   -0.6410   25.1830 N   0  0  0  0  0  0  0  0  0  0  0  0
    6.8000   -0.8050   26.3220 C   0  0  0  0  0  0  0  0  0  0  0  0
    6.8330   -2.2670   26.6820 C   0  0  0  0  0  0  0  0  0  0  0  0
    6.0630   -2.5260   27.9270 N   0  3  0  0  0  0  0  0  0  0  0  0
    5.9380   -3.9830   28.3470 C   0  0  0  0  0  0  0  0  0  0  0  0
    6.9300   -3.7880   29.5270 C   0  0  0  0  0  0  0  0  0  0  0  0
    6.8580   -2.2680   29.2360 C   0  0  0  0  0  0  0  0  0  0  0  0
    7.8080   -1.7860   29.0200 H   0  0  0  0  0  0  0  0  0  0  0  0
    6.2470   -1.6840   29.9160 H   0  0  0  0  0  0  0  0  0  0  0  0
    7.9280   -4.1830   29.3000 H   0  0  0  0  0  0  0  0  0  0  0  0
    6.5880   -4.1050   30.5110 H   0  0  0  0  0  0  0  0  0  0  0  0
    6.2590   -4.6500   27.5490 H   0  0  0  0  0  0  0  0  0  0  0  0
    4.9070   -4.1920   28.6240 H   0  0  0  0  0  0  0  0  0  0  0  0
    5.1550   -2.0390   27.8730 H   0  0  0  0  0  0  0  0  0  0  0  0
    6.4100   -2.8860   25.8970 H   0  0  0  0  0  0  0  0  0  0  0  0
    7.8800   -2.5570   26.8070 H   0  0  0  0  0  0  0  0  0  0  0  0
    5.8200   -0.4510   25.9830 H   0  0  0  0  0  0  0  0  0  0  0  0
    7.1550   -0.1790   27.1480 H   0  0  0  0  0  0  0  0  0  0  0  0
    9.2660   -0.6220   25.4390 C   0  0  0  0  0  0  0  0  0  0  0  0
    9.3920   -0.6040   25.4350 O   0  0  0  0  0  0  0  0  0  0  0  0
   10.3320   -0.1380   24.5460 C   0  0  0  0  0  0  0  0  0  0  0  0
   11.6320    0.4310   24.7720 C   0  0  0  0  0  0  0  0  0  0  0  0
   12.5030    0.6230   23.7370 C   0  0  0  0  0  0  0  0  0  0  0  0
   12.1300    0.2420   22.4570 C   0  0  0  0  0  0  0  0  0  0  0  0
   13.4170    0.1840   21.3220 Cl  0  0  0  0  0  0  0  0  0  0  0  0
   10.8270   -0.1290   22.1730 C   0  0  0  0  0  0  0  0  0  0  0  0
    9.8790   -0.1960   23.2110 C   0  0  0  0  0  0  0  0  0  0  0  0
   10.5380   -0.3710   21.1500 H   0  0  0  0  0  0  0  0  0  0  0  0
   13.4960    1.0190   23.9360 H   0  0  0  0  0  0  0  0  0  0  0  0
   12.0610    0.6880   25.7300 H   0  0  0  0  0  0  0  0  0  0  0  0
    6.3720   -0.3290   23.6340 H   0  0  0  0  0  0  0  0  0  0  0  0
    7.3790    1.0940   24.0120 H   0  0  0  0  0  0  0  0  0  0  0  0
    5.9860   -1.8160   21.8020 H   0  0  0  0  0  0  0  0  0  0  0  0
    6.9500   -2.3760   20.4440 H   0  0  0  0  0  0  0  0  0  0  0  0
    9.0100   -2.1420   21.6810 H   0  0  0  0  0  0  0  0  0  0  0  0
    6.7570   -2.8110   23.6320 H   0  0  0  0  0  0  0  0  0  0  0  0
    8.4390   -2.8220   24.1850 H   0  0  0  0  0  0  0  0  0  0  0  0
    7.9190   -3.9210   22.8790 H   0  0  0  0  0  0  0  0  0  0  0  0
  1  2  1  0  0  0  0
  1 60  1  0  0  0  0
  1 61  1  0  0  0  0
  1 62  1  0  0  0  0
  2  3  1  0  0  0  0
  2 23  1  0  0  0  0
  2 59  1  6  0  0  0
  3  4  1  0  0  0  0
  3 57  1  0  0  0  0
  3 58  1  0  0  0  0
  4  5  1  0  0  0  0
  4 21  1  0  0  0  0
  5  6  2  0  0  0  0
  5 14  1  0  0  0  0
  6  7  1  0  0  0  0
  6 20  1  0  0  0  0
  7  8  2  0  0  0  0
  8  9  1  0  0  0  0
  8 19  1  0  0  0  0
  9 10  2  0  0  0  0
  9 14  1  0  0  0  0
 10 11  1  0  0  0  0
 10 18  1  0  0  0  0
 11 12  2  0  0  0  0
 11 17  1  0  0  0  0
 12 13  1  0  0  0  0
 12 16  1  0  0  0  0
 13 14  2  0  0  0  0
 13 15  1  0  0  0  0
 21 22  2  0  0  0  0
 23 21  1  6  0  0  0
 23 24  1  0  0  0  0
 23 51  1  0  0  0  0
 24 25  1  0  0  0  0
 24 55  1  0  0  0  0
 24 56  1  0  0  0  0
 25 26  1  0  0  0  0
 25 43  1  0  0  0  0
 26 27  1  0  0  0  0
 26 41  1  0  0  0  0
 26 42  1  0  0  0  0
 27 28  1  0  0  0  0
 27 39  1  0  0  0  0
 27 40  1  0  0  0  0
 28 29  1  0  0  0  0
 28 31  1  0  0  0  0
 28 38  1  0  0  0  0
 29 30  1  0  0  0  0
 29 36  1  0  0  0  0
 29 37  1  0  0  0  0
 30 31  1  0  0  0  0
 30 34  1  0  0  0  0
 30 35  1  0  0  0  0
 31 32  1  0  0  0  0
 31 33  1  0  0  0  0
 43 44  2  0  0  0  0
 43 45  1  0  0  0  0
 45 46  2  0  0  0  0
 45 51  1  0  0  0  0
 46 47  1  0  0  0  0
 46 54  1  0  0  0  0
 47 48  2  0  0  0  0
 47 53  1  0  0  0  0
 48 49  1  0  0  0  0
 48 50  1  0  0  0  0
 50 51  2  0  0  0  0
 50 52  1  0  0  0  0
M  CHG  1  28   1
M  END
>  <MODEL>
       1

$$$$
