output/tmp_first_model_15_77.pdb
 OpenBabel07232601353D

 57 60  0  0  0  0  0  0  0  0999 V2000
    4.9510   -2.0150   27.8860 C   0  0  0  0  0  0  0  0  0  0  0  0
    6.0930   -2.5930   27.0320 C   0  0  0  0  0  0  0  0  0  0  0  0
    7.2640   -2.9420   27.9760 C   0  0  0  0  0  0  0  0  0  0  0  0
    6.9850   -3.7680   28.6370 H   0  0  0  0  0  0  0  0  0  0  0  0
    7.5090   -2.0700   28.5900 H   0  0  0  0  0  0  0  0  0  0  0  0
    8.1650   -3.2310   27.4320 H   0  0  0  0  0  0  0  0  0  0  0  0
    5.5480   -3.8480   26.4690 C   0  0  0  0  0  0  0  0  0  0  0  0
    5.0300   -4.8210   26.1170 N   0  0  0  0  0  0  0  0  0  0  0  0
    6.5200   -1.6620   25.8870 C   0  0  0  0  0  0  0  0  0  0  0  0
    5.9570   -0.3960   25.7340 C   0  0  0  0  0  0  0  0  0  0  0  0
    6.3450    0.4490   24.7030 C   0  0  0  0  0  0  0  0  0  0  0  0
    7.3060    0.0550   23.7770 C   0  0  0  0  0  0  0  0  0  0  0  0
    7.7090    0.9830   22.7630 N   0  0  0  0  0  0  0  0  0  0  0  0
    8.3550    2.2300   23.1890 C   0  0  0  0  0  0  0  0  0  0  0  0
    9.8040    2.0120   23.5570 C   0  0  0  0  0  0  0  0  0  0  0  0
   10.0970    1.1660   24.6280 C   0  0  0  0  0  0  0  0  0  0  0  0
   11.4050    0.7820   24.8760 C   0  0  0  0  0  0  0  0  0  0  0  0
   12.4380    1.2600   24.0730 C   0  0  0  0  0  0  0  0  0  0  0  0
   12.1500    2.1940   23.0900 C   0  0  0  0  0  0  0  0  0  0  0  0
   13.4690    2.9320   22.2240 Cl  0  0  0  0  0  0  0  0  0  0  0  0
   10.8400    2.5700   22.8080 C   0  0  0  0  0  0  0  0  0  0  0  0
   10.6360    3.2770   22.0040 H   0  0  0  0  0  0  0  0  0  0  0  0
   13.4540    0.9030   24.1820 H   0  0  0  0  0  0  0  0  0  0  0  0
   11.6060    0.0980   25.6930 H   0  0  0  0  0  0  0  0  0  0  0  0
    9.2980    0.7560   25.2460 H   0  0  0  0  0  0  0  0  0  0  0  0
    7.8080    2.6020   24.0590 H   0  0  0  0  0  0  0  0  0  0  0  0
    8.2590    2.9440   22.3690 H   0  0  0  0  0  0  0  0  0  0  0  0
    7.7860    0.6950   21.4110 C   0  0  0  0  0  0  0  0  0  0  0  0
    8.4520    1.3770   20.6490 O   0  0  0  0  0  0  0  0  0  0  0  0
    6.9460   -0.4610   20.8680 C   0  0  0  0  0  0  0  0  0  0  0  0
    6.0800    0.0340   19.7420 C   0  0  0  0  0  0  0  0  0  0  0  0
    6.4130   -0.2300   18.4400 C   0  0  0  0  0  0  0  0  0  0  0  0
    5.7470    0.2300   17.3510 N   0  0  0  0  0  0  0  0  0  0  0  0
    4.7170    1.0050   17.5760 C   0  0  0  0  0  0  0  0  0  0  0  0
    4.2640    1.3790   18.8700 C   0  0  0  0  0  0  0  0  0  0  0  0
    3.1530    2.2390   19.0460 C   0  0  0  0  0  0  0  0  0  0  0  0
    2.7520    2.6090   20.2990 C   0  0  0  0  0  0  0  0  0  0  0  0
    3.4450    2.1270   21.4320 C   0  0  0  0  0  0  0  0  0  0  0  0
    4.5230    1.2860   21.2920 C   0  0  0  0  0  0  0  0  0  0  0  0
    4.9630    0.8870   19.9960 C   0  0  0  0  0  0  0  0  0  0  0  0
    5.0390    0.9320   22.1840 H   0  0  0  0  0  0  0  0  0  0  0  0
    3.1210    2.4300   22.4240 H   0  0  0  0  0  0  0  0  0  0  0  0
    1.9070    3.2790   20.4270 H   0  0  0  0  0  0  0  0  0  0  0  0
    2.6480    2.6080   18.1570 H   0  0  0  0  0  0  0  0  0  0  0  0
    4.1840    1.3830   16.7040 H   0  0  0  0  0  0  0  0  0  0  0  0
    7.2800   -0.8550   18.2230 H   0  0  0  0  0  0  0  0  0  0  0  0
    7.6390   -1.2220   20.4850 H   0  0  0  0  0  0  0  0  0  0  0  0
    6.3470   -0.9200   21.6580 H   0  0  0  0  0  0  0  0  0  0  0  0
    7.8900   -1.2100   23.9320 C   0  0  0  0  0  0  0  0  0  0  0  0
    7.5030   -2.0520   24.9720 C   0  0  0  0  0  0  0  0  0  0  0  0
    7.9830   -3.0260   25.0600 H   0  0  0  0  0  0  0  0  0  0  0  0
    8.6790   -1.5320   23.2560 H   0  0  0  0  0  0  0  0  0  0  0  0
    5.8940    1.4310   24.6030 H   0  0  0  0  0  0  0  0  0  0  0  0
    5.2060   -0.0370   26.4300 H   0  0  0  0  0  0  0  0  0  0  0  0
    5.2500   -1.0780   28.3600 H   0  0  0  0  0  0  0  0  0  0  0  0
    4.6860   -2.7190   28.6740 H   0  0  0  0  0  0  0  0  0  0  0  0
    4.0430   -1.8430   27.3060 H   0  0  0  0  0  0  0  0  0  0  0  0
  1  2  1  0  0  0  0
  1 55  1  0  0  0  0
  1 56  1  0  0  0  0
  1 57  1  0  0  0  0
  2  3  1  0  0  0  0
  2  7  1  0  0  0  0
  2  9  1  0  0  0  0
  3  4  1  0  0  0  0
  3  5  1  0  0  0  0
  3  6  1  0  0  0  0
  7  8  3  0  0  0  0
  9 10  2  0  0  0  0
  9 50  1  0  0  0  0
 10 11  1  0  0  0  0
 10 54  1  0  0  0  0
 11 12  2  0  0  0  0
 11 53  1  0  0  0  0
 12 13  1  0  0  0  0
 12 49  1  0  0  0  0
 13 14  1  0  0  0  0
 13 28  1  0  0  0  0
 14 15  1  0  0  0  0
 14 26  1  0  0  0  0
 14 27  1  0  0  0  0
 15 16  2  0  0  0  0
 15 21  1  0  0  0  0
 16 17  1  0  0  0  0
 16 25  1  0  0  0  0
 17 18  2  0  0  0  0
 17 24  1  0  0  0  0
 18 19  1  0  0  0  0
 18 23  1  0  0  0  0
 19 20  1  0  0  0  0
 19 21  2  0  0  0  0
 21 22  1  0  0  0  0
 28 29  2  0  0  0  0
 28 30  1  0  0  0  0
 30 31  1  0  0  0  0
 30 47  1  0  0  0  0
 30 48  1  0  0  0  0
 31 32  2  0  0  0  0
 31 40  1  0  0  0  0
 32 33  1  0  0  0  0
 32 46  1  0  0  0  0
 33 34  2  0  0  0  0
 34 35  1  0  0  0  0
 34 45  1  0  0  0  0
 35 36  2  0  0  0  0
 35 40  1  0  0  0  0
 36 37  1  0  0  0  0
 36 44  1  0  0  0  0
 37 38  2  0  0  0  0
 37 43  1  0  0  0  0
 38 39  1  0  0  0  0
 38 42  1  0  0  0  0
 39 40  2  0  0  0  0
 39 41  1  0  0  0  0
 49 50  2  0  0  0  0
 49 52  1  0  0  0  0
 50 51  1  0  0  0  0
M  END
>  <MODEL>
       1

$$$$
