output/tmp_first_model_1_30.pdb
 OpenBabel07222618483D

 66 71  0  0  1  0  0  0  0  0999 V2000
    8.2710    5.2380   22.3880 C   0  0  0  0  0  0  0  0  0  0  0  0
    8.3880    4.3960   23.5620 N   0  0  0  0  0  0  0  0  0  0  0  0
    7.3970    3.5070   23.8300 C   0  0  0  0  0  0  0  0  0  0  0  0
    6.3440    3.4820   23.2120 O   0  0  0  0  0  0  0  0  0  0  0  0
    7.7100    2.4820   24.9220 C   0  0  0  0  0  0  0  0  0  0  0  0
    8.4410    1.3670   24.3330 N   0  0  0  0  0  0  0  0  0  0  0  0
    7.6920    0.2120   23.8740 C   0  0  0  0  0  0  0  0  0  0  0  0
    8.2520   -0.4610   22.5850 C   0  0  2  0  0  0  0  0  0  0  0  0
    7.7210    0.2910   21.3130 C   0  0  0  0  0  0  0  0  0  0  0  0
    8.1510    1.3230   20.8460 O   0  0  0  0  0  0  0  0  0  0  0  0
    6.6680   -0.4350   20.7960 N   0  0  0  0  0  0  0  0  0  0  0  0
    5.8730   -0.0160   19.7080 C   0  0  0  0  0  0  0  0  0  0  0  0
    6.3540   -0.0550   18.4230 C   0  0  0  0  0  0  0  0  0  0  0  0
    5.6030    0.2050   17.3210 N   0  0  0  0  0  0  0  0  0  0  0  0
    4.3630    0.5870   17.5140 C   0  0  0  0  0  0  0  0  0  0  0  0
    3.7660    0.7480   18.7960 C   0  0  0  0  0  0  0  0  0  0  0  0
    2.4800    1.3260   18.9720 C   0  0  0  0  0  0  0  0  0  0  0  0
    1.9280    1.4410   20.2170 C   0  0  0  0  0  0  0  0  0  0  0  0
    2.6560    1.0300   21.3570 C   0  0  0  0  0  0  0  0  0  0  0  0
    3.9320    0.5480   21.2230 C   0  0  0  0  0  0  0  0  0  0  0  0
    4.5200    0.3880   19.9330 C   0  0  0  0  0  0  0  0  0  0  0  0
    4.5230    0.3600   22.1120 H   0  0  0  0  0  0  0  0  0  0  0  0
    2.2110    1.1110   22.3450 H   0  0  0  0  0  0  0  0  0  0  0  0
    0.9350    1.8640   20.3460 H   0  0  0  0  0  0  0  0  0  0  0  0
    1.9800    1.7290   18.1000 H   0  0  0  0  0  0  0  0  0  0  0  0
    3.7640    0.7950   16.6270 H   0  0  0  0  0  0  0  0  0  0  0  0
    7.3920   -0.3200   18.2380 H   0  0  0  0  0  0  0  0  0  0  0  0
    6.3160   -1.5760   21.6120 C   0  0  0  0  0  0  0  0  0  0  0  0
    7.6230   -1.8620   22.3470 C   0  0  2  0  0  0  0  0  0  0  0  0
    7.3660   -2.9980   23.6000 C   0  0  0  0  0  0  0  0  0  0  0  0
    6.7790   -4.5250   23.2420 C   0  0  0  0  0  0  0  0  0  0  0  0
    5.2770   -4.6740   23.3010 C   0  0  0  0  0  0  0  0  0  0  0  0
    4.7240   -5.7870   22.8710 C   0  0  0  0  0  0  0  0  0  0  0  0
    5.7300   -6.7820   22.4510 C   0  0  0  0  0  0  0  0  0  0  0  0
    6.9660   -6.3700   22.6220 C   0  0  0  0  0  0  0  0  0  0  0  0
    6.9100   -4.4640   23.4480 C   0  0  0  0  0  0  0  0  0  0  0  0
    7.6390   -4.9740   24.1960 H   0  0  0  0  0  0  0  0  0  0  0  0
    7.8940   -6.6710   22.1400 H   0  0  0  0  0  0  0  0  0  0  0  0
    5.4420   -7.7170   21.9770 H   0  0  0  0  0  0  0  0  0  0  0  0
    3.6480   -5.9450   22.7850 H   0  0  0  0  0  0  0  0  0  0  0  0
    4.6430   -3.7870   23.3430 H   0  0  0  0  0  0  0  0  0  0  0  0
    8.3710   -3.0610   24.0710 H   0  0  0  0  0  0  0  0  0  0  0  0
    6.8780   -2.3780   24.4210 H   0  0  0  0  0  0  0  0  0  0  0  0
    8.2560   -2.4600   21.6860 H   0  0  0  0  0  0  0  0  0  0  0  0
    5.5020   -1.3250   22.3130 H   0  0  0  0  0  0  0  0  0  0  0  0
    6.0010   -2.4300   21.0020 H   0  0  0  0  0  0  0  0  0  0  0  0
    9.7640   -0.3900   22.5740 C   0  0  0  0  0  0  0  0  0  0  0  0
   10.4630   -1.0550   21.5590 C   0  0  0  0  0  0  0  0  0  0  0  0
   11.8430   -1.0060   21.5200 C   0  0  0  0  0  0  0  0  0  0  0  0
   12.6780   -1.8010   20.2120 Cl  0  0  0  0  0  0  0  0  0  0  0  0
   12.5720   -0.2920   22.4740 C   0  0  0  0  0  0  0  0  0  0  0  0
   11.8840    0.4450   23.4140 C   0  0  0  0  0  0  0  0  0  0  0  0
   10.4890    0.4440   23.4330 C   0  0  0  0  0  0  0  0  0  0  0  0
    9.7990    1.4550   24.2890 C   0  0  0  0  0  0  0  0  0  0  0  0
   10.4080    2.3600   24.8610 O   0  0  0  0  0  0  0  0  0  0  0  0
   12.4100    1.0640   24.1320 H   0  0  0  0  0  0  0  0  0  0  0  0
   13.6570   -0.2910   22.4480 H   0  0  0  0  0  0  0  0  0  0  0  0
    9.9380   -1.5750   20.7660 H   0  0  0  0  0  0  0  0  0  0  0  0
    6.6650    0.5440   23.6880 H   0  0  0  0  0  0  0  0  0  0  0  0
    7.6740   -0.5410   24.6720 H   0  0  0  0  0  0  0  0  0  0  0  0
    6.7670    2.1180   25.3370 H   0  0  0  0  0  0  0  0  0  0  0  0
    8.3210    2.9140   25.7190 H   0  0  0  0  0  0  0  0  0  0  0  0
    9.2830    4.2820   24.0160 H   0  0  0  0  0  0  0  0  0  0  0  0
    9.2580    5.6100   22.1010 H   0  0  0  0  0  0  0  0  0  0  0  0
    7.6010    6.0850   22.5660 H   0  0  0  0  0  0  0  0  0  0  0  0
    7.8530    4.6480   21.5700 H   0  0  0  0  0  0  0  0  0  0  0  0
  1  2  1  0  0  0  0
  1 64  1  0  0  0  0
  1 65  1  0  0  0  0
  1 66  1  0  0  0  0
  2  3  1  0  0  0  0
  2 63  1  0  0  0  0
  3  4  2  0  0  0  0
  3  5  1  0  0  0  0
  5  6  1  0  0  0  0
  5 61  1  0  0  0  0
  5 62  1  0  0  0  0
  6  7  1  0  0  0  0
  6 54  1  0  0  0  0
  7  8  1  0  0  0  0
  7 59  1  0  0  0  0
  7 60  1  0  0  0  0
  8  9  1  6  0  0  0
  8 29  1  0  0  0  0
  8 47  1  0  0  0  0
  9 10  2  0  0  0  0
  9 11  1  0  0  0  0
 11 12  1  0  0  0  0
 11 28  1  0  0  0  0
 12 13  2  0  0  0  0
 12 21  1  0  0  0  0
 13 14  1  0  0  0  0
 13 27  1  0  0  0  0
 14 15  2  0  0  0  0
 15 16  1  0  0  0  0
 15 26  1  0  0  0  0
 16 17  2  0  0  0  0
 16 21  1  0  0  0  0
 17 18  1  0  0  0  0
 17 25  1  0  0  0  0
 18 19  2  0  0  0  0
 18 24  1  0  0  0  0
 19 20  1  0  0  0  0
 19 23  1  0  0  0  0
 20 21  2  0  0  0  0
 20 22  1  0  0  0  0
 28 29  1  0  0  0  0
 28 45  1  0  0  0  0
 28 46  1  0  0  0  0
 29 30  1  0  0  0  0
 29 44  1  6  0  0  0
 30 31  1  0  0  0  0
 30 42  1  0  0  0  0
 30 43  1  0  0  0  0
 31 32  2  0  0  0  0
 31 36  1  0  0  0  0
 32 33  1  0  0  0  0
 32 41  1  0  0  0  0
 33 34  2  0  0  0  0
 33 40  1  0  0  0  0
 34 35  1  0  0  0  0
 34 39  1  0  0  0  0
 35 36  2  0  0  0  0
 35 38  1  0  0  0  0
 36 37  1  0  0  0  0
 47 48  2  0  0  0  0
 47 53  1  0  0  0  0
 48 49  1  0  0  0  0
 48 58  1  0  0  0  0
 49 50  1  0  0  0  0
 49 51  2  0  0  0  0
 51 52  1  0  0  0  0
 51 57  1  0  0  0  0
 52 53  2  0  0  0  0
 52 56  1  0  0  0  0
 53 54  1  0  0  0  0
 54 55  2  0  0  0  0
M  END
>  <MODEL>
       1

$$$$
