output/tmp_first_model_18_0.pdb
 OpenBabel07232602473D

 63 69  0  0  1  0  0  0  0  0999 V2000
    4.5000   -3.3820   25.4060 O   0  0  0  0  0  0  0  0  0  0  0  0
    5.3960   -2.8630   24.7620 C   0  0  0  0  0  0  0  0  0  0  0  0
    5.8950   -1.4770   25.0420 C   0  0  0  0  0  0  0  0  0  0  0  0
    5.5220   -0.8590   26.2350 C   0  0  0  0  0  0  0  0  0  0  0  0
    5.8370    0.4630   26.4780 C   0  0  0  0  0  0  0  0  0  0  0  0
    6.5000    1.1760   25.4800 C   0  0  0  0  0  0  0  0  0  0  0  0
    6.8410    2.8680   25.7310 Cl  0  0  0  0  0  0  0  0  0  0  0  0
    6.9080    0.5670   24.3040 C   0  0  0  0  0  0  0  0  0  0  0  0
    6.6570   -0.7950   24.0870 C   0  0  0  0  0  0  0  0  0  0  0  0
    7.2020   -1.5140   22.8490 C   0  0  1  0  0  0  0  0  0  0  0  0
    7.2540   -3.0200   23.1820 C   0  0  0  0  0  0  0  0  0  0  0  0
    5.9890   -3.4900   23.6970 N   0  0  0  0  0  0  0  0  0  0  0  0
    5.2780   -4.5170   22.9640 C   0  0  0  0  0  0  0  0  0  0  0  0
    5.8120   -5.8880   23.2130 C   0  0  0  0  0  0  0  0  0  0  0  0
    5.3800   -6.7580   24.0610 N   0  0  0  0  0  0  0  0  0  0  0  0
    6.1940   -7.8770   23.9270 N   0  0  0  0  0  0  0  0  0  0  0  0
    7.0230   -7.5990   22.9880 C   0  0  0  0  0  0  0  0  0  0  0  0
    6.8640   -6.3490   22.4890 O   0  0  0  0  0  0  0  0  0  0  0  0
    7.8130   -8.2220   22.5950 H   0  0  0  0  0  0  0  0  0  0  0  0
    5.3420   -4.2820   21.8950 H   0  0  0  0  0  0  0  0  0  0  0  0
    4.2350   -4.5020   23.2900 H   0  0  0  0  0  0  0  0  0  0  0  0
    8.0350   -3.1800   23.9380 H   0  0  0  0  0  0  0  0  0  0  0  0
    7.4930   -3.6110   22.2960 H   0  0  0  0  0  0  0  0  0  0  0  0
    6.2890   -1.3070   21.6260 C   0  0  0  0  0  0  0  0  0  0  0  0
    5.2130   -1.8260   21.4130 O   0  0  0  0  0  0  0  0  0  0  0  0
    6.8910   -0.4160   20.7720 N   0  0  0  0  0  0  0  0  0  0  0  0
    6.1470    0.1590   19.7140 C   0  0  0  0  0  0  0  0  0  0  0  0
    6.4880   -0.1080   18.4140 C   0  0  0  0  0  0  0  0  0  0  0  0
    5.8000    0.3390   17.3380 N   0  0  0  0  0  0  0  0  0  0  0  0
    4.7510    1.0920   17.5600 C   0  0  0  0  0  0  0  0  0  0  0  0
    4.3030    1.4650   18.8590 C   0  0  0  0  0  0  0  0  0  0  0  0
    3.1770    2.3080   19.0390 C   0  0  0  0  0  0  0  0  0  0  0  0
    2.7710    2.6640   20.2950 C   0  0  0  0  0  0  0  0  0  0  0  0
    3.4760    2.1960   21.4290 C   0  0  0  0  0  0  0  0  0  0  0  0
    4.5710    1.3820   21.2840 C   0  0  0  0  0  0  0  0  0  0  0  0
    5.0120    0.9890   19.9830 C   0  0  0  0  0  0  0  0  0  0  0  0
    5.1030    1.0320   22.1690 H   0  0  0  0  0  0  0  0  0  0  0  0
    3.1430    2.4870   22.4220 H   0  0  0  0  0  0  0  0  0  0  0  0
    1.9120    3.3140   20.4300 H   0  0  0  0  0  0  0  0  0  0  0  0
    2.6590    2.6670   18.1530 H   0  0  0  0  0  0  0  0  0  0  0  0
    4.1940    1.4440   16.6910 H   0  0  0  0  0  0  0  0  0  0  0  0
    7.3480   -0.7420   18.2060 H   0  0  0  0  0  0  0  0  0  0  0  0
    8.1990    0.0270   21.2040 C   0  0  0  0  0  0  0  0  0  0  0  0
    8.5630   -0.9410   22.3540 C   0  0  2  0  0  0  0  0  0  0  0  0
    9.5470   -2.0280   21.8820 C   0  0  0  0  0  0  0  0  0  0  0  0
   10.8880   -1.5180   21.6960 N   0  0  0  0  0  0  0  0  0  0  0  0
   11.6880   -1.0290   22.6790 C   0  0  0  0  0  0  0  0  0  0  0  0
   11.2320   -0.6720   23.8960 N   0  0  0  0  0  0  0  0  0  0  0  0
   12.1640   -0.2100   24.7280 C   0  0  0  0  0  0  0  0  0  0  0  0
   13.4680   -0.0860   24.4950 N   0  0  0  0  0  0  0  0  0  0  0  0
   13.7810   -0.4340   23.2430 C   0  0  0  0  0  0  0  0  0  0  0  0
   12.9720   -0.8870   22.3170 N   0  0  0  0  0  0  0  0  0  0  0  0
   14.8020   -0.3210   22.9140 H   0  0  0  0  0  0  0  0  0  0  0  0
   11.8300    0.1510   25.6970 H   0  0  0  0  0  0  0  0  0  0  0  0
   11.4190   -1.8680   20.9060 H   0  0  0  0  0  0  0  0  0  0  0  0
    9.1850   -2.4230   20.9280 H   0  0  0  0  0  0  0  0  0  0  0  0
    9.5780   -2.8620   22.5910 H   0  0  0  0  0  0  0  0  0  0  0  0
    9.0810   -0.4140   23.1540 H   0  0  0  0  0  0  0  0  0  0  0  0
    8.9080   -0.0250   20.3790 H   0  0  0  0  0  0  0  0  0  0  0  0
    8.1660    1.0740   21.5350 H   0  0  0  0  0  0  0  0  0  0  0  0
    7.4390    1.1740   23.5760 H   0  0  0  0  0  0  0  0  0  0  0  0
    5.5560    0.9490   27.4060 H   0  0  0  0  0  0  0  0  0  0  0  0
    4.9730   -1.4430   26.9630 H   0  0  0  0  0  0  0  0  0  0  0  0
  1  2  2  0  0  0  0
  2  3  1  0  0  0  0
  2 12  1  0  0  0  0
  3  4  2  0  0  0  0
  3  9  1  0  0  0  0
  4  5  1  0  0  0  0
  4 63  1  0  0  0  0
  5  6  2  0  0  0  0
  5 62  1  0  0  0  0
  6  7  1  0  0  0  0
  6  8  1  0  0  0  0
  8  9  2  0  0  0  0
  8 61  1  0  0  0  0
 10  9  1  1  0  0  0
 10 11  1  0  0  0  0
 10 24  1  0  0  0  0
 10 44  1  0  0  0  0
 11 12  1  0  0  0  0
 11 22  1  0  0  0  0
 11 23  1  0  0  0  0
 12 13  1  0  0  0  0
 13 14  1  0  0  0  0
 13 20  1  0  0  0  0
 13 21  1  0  0  0  0
 14 15  2  0  0  0  0
 14 18  1  0  0  0  0
 15 16  1  0  0  0  0
 16 17  2  0  0  0  0
 17 18  1  0  0  0  0
 17 19  1  0  0  0  0
 24 25  2  0  0  0  0
 24 26  1  0  0  0  0
 26 27  1  0  0  0  0
 26 43  1  0  0  0  0
 27 28  2  0  0  0  0
 27 36  1  0  0  0  0
 28 29  1  0  0  0  0
 28 42  1  0  0  0  0
 29 30  2  0  0  0  0
 30 31  1  0  0  0  0
 30 41  1  0  0  0  0
 31 32  2  0  0  0  0
 31 36  1  0  0  0  0
 32 33  1  0  0  0  0
 32 40  1  0  0  0  0
 33 34  2  0  0  0  0
 33 39  1  0  0  0  0
 34 35  1  0  0  0  0
 34 38  1  0  0  0  0
 35 36  2  0  0  0  0
 35 37  1  0  0  0  0
 43 44  1  0  0  0  0
 43 59  1  0  0  0  0
 43 60  1  0  0  0  0
 44 45  1  0  0  0  0
 44 58  1  1  0  0  0
 45 46  1  0  0  0  0
 45 56  1  0  0  0  0
 45 57  1  0  0  0  0
 46 47  1  0  0  0  0
 46 55  1  0  0  0  0
 47 48  2  0  0  0  0
 47 52  1  0  0  0  0
 48 49  1  0  0  0  0
 49 50  2  0  0  0  0
 49 54  1  0  0  0  0
 50 51  1  0  0  0  0
 51 52  2  0  0  0  0
 51 53  1  0  0  0  0
M  END
>  <MODEL>
       1

$$$$
