output/tmp_first_model_4_94.pdb
 OpenBabel07222620063D

 65 69  0  0  0  0  0  0  0  0999 V2000
   13.8230   -0.9130   24.6180 C   0  0  0  0  0  0  0  0  0  0  0  0
   13.1730   -2.2700   24.3280 C   0  0  0  0  0  0  0  0  0  0  0  0
   11.8310   -2.0740   23.6630 C   0  0  0  0  0  0  0  0  0  0  0  0
   11.6600   -1.7190   22.5290 O   0  0  0  0  0  0  0  0  0  0  0  0
   10.6510   -2.4040   24.5680 N   0  3  0  0  0  0  0  0  0  0  0  0
   10.3010   -3.9350   24.5510 C   0  0  0  0  0  0  0  0  0  0  0  0
    9.5520   -4.2380   23.2740 C   0  0  0  0  0  0  0  0  0  0  0  0
    8.2360   -3.4860   23.2290 C   0  0  0  0  0  0  0  0  0  0  0  0
    8.2930   -2.0580   23.7120 C   0  0  0  0  0  0  0  0  0  0  0  0
    7.1390   -1.2710   23.6330 C   0  0  0  0  0  0  0  0  0  0  0  0
    6.0210   -1.8030   22.9010 N   0  0  0  0  0  0  0  0  0  0  0  0
    4.9600   -2.4710   23.6720 C   0  0  0  0  0  0  0  0  0  0  0  0
    4.6970   -3.9680   23.4420 C   0  0  0  0  0  0  0  0  0  0  0  0
    3.7750   -4.3710   22.4740 C   0  0  0  0  0  0  0  0  0  0  0  0
    3.2770   -5.6720   22.4310 C   0  0  0  0  0  0  0  0  0  0  0  0
    3.7730   -6.6430   23.2870 C   0  0  0  0  0  0  0  0  0  0  0  0
    4.7380   -6.2680   24.2050 C   0  0  0  0  0  0  0  0  0  0  0  0
    5.2790   -7.4580   25.3470 Cl  0  0  0  0  0  0  0  0  0  0  0  0
    5.2280   -4.9650   24.2690 C   0  0  0  0  0  0  0  0  0  0  0  0
    6.0390   -4.7510   24.9560 H   0  0  0  0  0  0  0  0  0  0  0  0
    3.4290   -7.6740   23.2490 H   0  0  0  0  0  0  0  0  0  0  0  0
    2.4610   -5.9220   21.7580 H   0  0  0  0  0  0  0  0  0  0  0  0
    3.4160   -3.6380   21.7640 H   0  0  0  0  0  0  0  0  0  0  0  0
    5.2220   -2.3370   24.7270 H   0  0  0  0  0  0  0  0  0  0  0  0
    4.0140   -1.9360   23.4950 H   0  0  0  0  0  0  0  0  0  0  0  0
    5.8210   -1.5520   21.5600 C   0  0  0  0  0  0  0  0  0  0  0  0
    4.8990   -2.0490   20.9390 O   0  0  0  0  0  0  0  0  0  0  0  0
    6.7910   -0.5790   20.8680 C   0  0  0  0  0  0  0  0  0  0  0  0
    6.1180    0.0720   19.6990 C   0  0  0  0  0  0  0  0  0  0  0  0
    6.4860   -0.1830   18.4060 C   0  0  0  0  0  0  0  0  0  0  0  0
    5.8400    0.2830   17.3020 N   0  0  0  0  0  0  0  0  0  0  0  0
    4.7890    1.0400   17.5120 C   0  0  0  0  0  0  0  0  0  0  0  0
    4.3120    1.4130   18.7990 C   0  0  0  0  0  0  0  0  0  0  0  0
    3.1850    2.2570   18.9780 C   0  0  0  0  0  0  0  0  0  0  0  0
    2.7700    2.6130   20.2330 C   0  0  0  0  0  0  0  0  0  0  0  0
    3.4700    2.1500   21.3680 C   0  0  0  0  0  0  0  0  0  0  0  0
    4.5640    1.3360   21.2220 C   0  0  0  0  0  0  0  0  0  0  0  0
    5.0050    0.9300   19.9300 C   0  0  0  0  0  0  0  0  0  0  0  0
    5.1050    1.0140   22.1080 H   0  0  0  0  0  0  0  0  0  0  0  0
    3.1440    2.4490   22.3610 H   0  0  0  0  0  0  0  0  0  0  0  0
    1.9050    3.2580   20.3650 H   0  0  0  0  0  0  0  0  0  0  0  0
    2.6690    2.6260   18.0950 H   0  0  0  0  0  0  0  0  0  0  0  0
    4.2600    1.4060   16.6300 H   0  0  0  0  0  0  0  0  0  0  0  0
    7.3540   -0.8110   18.1970 H   0  0  0  0  0  0  0  0  0  0  0  0
    7.6770   -1.1380   20.5450 H   0  0  0  0  0  0  0  0  0  0  0  0
    7.1310    0.1720   21.5860 H   0  0  0  0  0  0  0  0  0  0  0  0
    7.0820   -0.0380   24.2740 C   0  0  0  0  0  0  0  0  0  0  0  0
    8.2070    0.4610   24.9330 C   0  0  0  0  0  0  0  0  0  0  0  0
    9.3810   -0.2830   24.9620 C   0  0  0  0  0  0  0  0  0  0  0  0
    9.4030   -1.5470   24.3750 C   0  0  0  0  0  0  0  0  0  0  0  0
   10.2770    0.0860   25.4590 H   0  0  0  0  0  0  0  0  0  0  0  0
    8.1630    1.4110   25.4520 H   0  0  0  0  0  0  0  0  0  0  0  0
    6.1640    0.5470   24.2400 H   0  0  0  0  0  0  0  0  0  0  0  0
    7.5460   -4.0070   23.8960 H   0  0  0  0  0  0  0  0  0  0  0  0
    7.7990   -3.5340   22.2300 H   0  0  0  0  0  0  0  0  0  0  0  0
    9.2970   -5.2970   23.2670 H   0  0  0  0  0  0  0  0  0  0  0  0
   10.1810   -3.9880   22.4120 H   0  0  0  0  0  0  0  0  0  0  0  0
   11.2180   -4.5270   24.6440 H   0  0  0  0  0  0  0  0  0  0  0  0
    9.6660   -4.1360   25.4180 H   0  0  0  0  0  0  0  0  0  0  0  0
   11.0050   -2.2000   25.5240 H   0  0  0  0  0  0  0  0  0  0  0  0
   13.8000   -2.8800   23.6710 H   0  0  0  0  0  0  0  0  0  0  0  0
   13.0550   -2.8320   25.2620 H   0  0  0  0  0  0  0  0  0  0  0  0
   13.9670   -0.3370   23.6990 H   0  0  0  0  0  0  0  0  0  0  0  0
   14.7910   -1.0760   25.0920 H   0  0  0  0  0  0  0  0  0  0  0  0
   13.1940   -0.3240   25.2970 H   0  0  0  0  0  0  0  0  0  0  0  0
  1  2  1  0  0  0  0
  1 63  1  0  0  0  0
  1 64  1  0  0  0  0
  1 65  1  0  0  0  0
  2  3  1  0  0  0  0
  2 61  1  0  0  0  0
  2 62  1  0  0  0  0
  3  4  2  0  0  0  0
  3  5  1  0  0  0  0
  5  6  1  0  0  0  0
  5 50  1  0  0  0  0
  5 60  1  0  0  0  0
  6  7  1  0  0  0  0
  6 58  1  0  0  0  0
  6 59  1  0  0  0  0
  7  8  1  0  0  0  0
  7 56  1  0  0  0  0
  7 57  1  0  0  0  0
  8  9  1  0  0  0  0
  8 54  1  0  0  0  0
  8 55  1  0  0  0  0
  9 10  2  0  0  0  0
  9 50  1  0  0  0  0
 10 11  1  0  0  0  0
 10 47  1  0  0  0  0
 11 12  1  0  0  0  0
 11 26  1  0  0  0  0
 12 13  1  0  0  0  0
 12 24  1  0  0  0  0
 12 25  1  0  0  0  0
 13 14  2  0  0  0  0
 13 19  1  0  0  0  0
 14 15  1  0  0  0  0
 14 23  1  0  0  0  0
 15 16  2  0  0  0  0
 15 22  1  0  0  0  0
 16 17  1  0  0  0  0
 16 21  1  0  0  0  0
 17 18  1  0  0  0  0
 17 19  2  0  0  0  0
 19 20  1  0  0  0  0
 26 27  2  0  0  0  0
 26 28  1  0  0  0  0
 28 29  1  0  0  0  0
 28 45  1  0  0  0  0
 28 46  1  0  0  0  0
 29 30  2  0  0  0  0
 29 38  1  0  0  0  0
 30 31  1  0  0  0  0
 30 44  1  0  0  0  0
 31 32  2  0  0  0  0
 32 33  1  0  0  0  0
 32 43  1  0  0  0  0
 33 34  2  0  0  0  0
 33 38  1  0  0  0  0
 34 35  1  0  0  0  0
 34 42  1  0  0  0  0
 35 36  2  0  0  0  0
 35 41  1  0  0  0  0
 36 37  1  0  0  0  0
 36 40  1  0  0  0  0
 37 38  2  0  0  0  0
 37 39  1  0  0  0  0
 47 48  2  0  0  0  0
 47 53  1  0  0  0  0
 48 49  1  0  0  0  0
 48 52  1  0  0  0  0
 49 50  2  0  0  0  0
 49 51  1  0  0  0  0
M  CHG  1   5   1
M  END
>  <MODEL>
       1

$$$$
