output/tmp_first_model_14_10.pdb
 OpenBabel07232601073D

 72 77  0  0  1  0  0  0  0  0999 V2000
    8.7610    0.8940   31.2030 C   0  0  0  0  0  0  0  0  0  0  0  0
    8.0510    1.4240   29.9730 C   0  0  1  0  0  0  0  0  0  0  0  0
    7.7150    0.3180   28.9720 C   0  0  0  0  0  0  0  0  0  0  0  0
    6.9850    0.8610   27.7600 N   0  3  1  0  0  0  0  0  0  0  0  0
    6.0040   -0.1130   27.1830 C   0  0  0  0  0  0  0  0  0  0  0  0
    6.7440   -1.2230   26.4550 C   0  0  0  0  0  0  0  0  0  0  0  0
    7.6970   -0.6080   25.4310 N   0  0  0  0  0  0  0  0  0  0  0  0
    7.2190   -0.1180   24.0670 C   0  0  0  0  0  0  0  0  0  0  0  0
    8.2460   -0.4580   22.9200 C   0  0  2  0  0  0  0  0  0  0  0  0
    7.7970    0.4200   21.7180 C   0  0  0  0  0  0  0  0  0  0  0  0
    8.0160    1.5980   21.5270 O   0  0  0  0  0  0  0  0  0  0  0  0
    7.0210   -0.3580   20.8790 N   0  0  0  0  0  0  0  0  0  0  0  0
    6.2230    0.1580   19.8230 C   0  0  0  0  0  0  0  0  0  0  0  0
    6.5030   -0.2240   18.5360 C   0  0  0  0  0  0  0  0  0  0  0  0
    5.8290    0.1910   17.4360 N   0  0  0  0  0  0  0  0  0  0  0  0
    4.8150    1.0000   17.6220 C   0  0  0  0  0  0  0  0  0  0  0  0
    4.3650    1.4240   18.9050 C   0  0  0  0  0  0  0  0  0  0  0  0
    3.2260    2.2610   19.0460 C   0  0  0  0  0  0  0  0  0  0  0  0
    2.7640    2.6020   20.2870 C   0  0  0  0  0  0  0  0  0  0  0  0
    3.4220    2.1220   21.4420 C   0  0  0  0  0  0  0  0  0  0  0  0
    4.5420    1.3330   21.3310 C   0  0  0  0  0  0  0  0  0  0  0  0
    5.0610    0.9750   20.0530 C   0  0  0  0  0  0  0  0  0  0  0  0
    5.0310    0.9730   22.2310 H   0  0  0  0  0  0  0  0  0  0  0  0
    3.0400    2.3860   22.4240 H   0  0  0  0  0  0  0  0  0  0  0  0
    1.8920    3.2420   20.3940 H   0  0  0  0  0  0  0  0  0  0  0  0
    2.7350    2.6220   18.1450 H   0  0  0  0  0  0  0  0  0  0  0  0
    4.2760    1.3410   16.7360 H   0  0  0  0  0  0  0  0  0  0  0  0
    7.3370   -0.8990   18.3500 H   0  0  0  0  0  0  0  0  0  0  0  0
    6.8910   -1.7330   21.3170 C   0  0  0  0  0  0  0  0  0  0  0  0
    8.0220   -1.8980   22.3370 C   0  0  2  0  0  0  0  0  0  0  0  0
    7.7410   -2.9970   23.3580 C   0  0  0  0  0  0  0  0  0  0  0  0
    8.4390   -2.9530   24.2030 H   0  0  0  0  0  0  0  0  0  0  0  0
    6.7320   -2.8860   23.7750 H   0  0  0  0  0  0  0  0  0  0  0  0
    7.7940   -3.9850   22.8900 H   0  0  0  0  0  0  0  0  0  0  0  0
    8.9450   -2.1390   21.7910 H   0  0  0  0  0  0  0  0  0  0  0  0
    6.9680   -2.4060   20.4630 H   0  0  0  0  0  0  0  0  0  0  0  0
    5.9130   -1.9120   21.7880 H   0  0  0  0  0  0  0  0  0  0  0  0
    9.7360   -0.2470   23.3070 C   0  0  0  0  0  0  0  0  0  0  0  0
   10.6650   -0.1480   22.2540 C   0  0  0  0  0  0  0  0  0  0  0  0
   11.9820    0.2000   22.5010 C   0  0  0  0  0  0  0  0  0  0  0  0
   13.2600    0.2070   21.3500 Cl  0  0  0  0  0  0  0  0  0  0  0  0
   12.3850    0.5330   23.7830 C   0  0  0  0  0  0  0  0  0  0  0  0
   11.5220    0.3430   24.8200 C   0  0  0  0  0  0  0  0  0  0  0  0
   10.2210   -0.2280   24.6310 C   0  0  0  0  0  0  0  0  0  0  0  0
    9.1800   -0.7020   25.5610 C   0  0  0  0  0  0  0  0  0  0  0  0
    9.3060   -0.6960   25.5490 O   0  0  0  0  0  0  0  0  0  0  0  0
   12.0040    0.6190   25.7490 H   0  0  0  0  0  0  0  0  0  0  0  0
   13.4010    0.8490   23.9870 H   0  0  0  0  0  0  0  0  0  0  0  0
   10.3430   -0.3430   21.2340 H   0  0  0  0  0  0  0  0  0  0  0  0
    7.1090    0.9680   24.1340 H   0  0  0  0  0  0  0  0  0  0  0  0
    6.2440   -0.5600   23.8510 H   0  0  0  0  0  0  0  0  0  0  0  0
    6.0620   -1.9210   25.9630 H   0  0  0  0  0  0  0  0  0  0  0  0
    7.3910   -1.8060   27.1200 H   0  0  0  0  0  0  0  0  0  0  0  0
    5.3640   -0.5170   27.9760 H   0  0  0  0  0  0  0  0  0  0  0  0
    5.3600    0.4420   26.4890 H   0  0  0  0  0  0  0  0  0  0  0  0
    6.3800    2.1990   28.0690 C   0  0  0  0  0  0  0  0  0  0  0  0
    5.8310    2.2290   29.4910 C   0  0  2  0  0  0  0  0  0  0  0  0
    5.0910    3.5130   29.8130 C   0  0  0  0  0  0  0  0  0  0  0  0
    4.2380    3.6460   29.1370 H   0  0  0  0  0  0  0  0  0  0  0  0
    5.7600    4.3740   29.7130 H   0  0  0  0  0  0  0  0  0  0  0  0
    4.7190    3.4790   30.8410 H   0  0  0  0  0  0  0  0  0  0  0  0
    6.8840    2.0910   30.4360 O   0  0  0  0  0  0  0  0  0  0  0  0
    5.1410    1.3770   29.6080 H   0  0  0  0  0  0  0  0  0  0  0  0
    5.5890    2.4050   27.3430 H   0  0  0  0  0  0  0  0  0  0  0  0
    7.1430    2.9770   27.9550 H   0  0  0  0  0  0  0  0  0  0  0  0
    7.6880    0.9910   27.0200 H   0  0  0  0  0  0  0  0  0  0  0  0
    8.6370   -0.1630   28.6260 H   0  0  0  0  0  0  0  0  0  0  0  0
    7.0920   -0.4390   29.4630 H   0  0  0  0  0  0  0  0  0  0  0  0
    8.7000    2.1590   29.4720 H   0  0  0  0  0  0  0  0  0  0  0  0
    8.9720    1.7140   31.8960 H   0  0  0  0  0  0  0  0  0  0  0  0
    9.7080    0.4150   30.9370 H   0  0  0  0  0  0  0  0  0  0  0  0
    8.1290    0.1640   31.7190 H   0  0  0  0  0  0  0  0  0  0  0  0
  1  2  1  0  0  0  0
  1 70  1  0  0  0  0
  1 71  1  0  0  0  0
  1 72  1  0  0  0  0
  2  3  1  0  0  0  0
  2 62  1  0  0  0  0
  2 69  1  6  0  0  0
  3  4  1  0  0  0  0
  3 67  1  0  0  0  0
  3 68  1  0  0  0  0
  4  5  1  0  0  0  0
  4 56  1  0  0  0  0
  4 66  1  6  0  0  0
  5  6  1  0  0  0  0
  5 54  1  0  0  0  0
  5 55  1  0  0  0  0
  6  7  1  0  0  0  0
  6 52  1  0  0  0  0
  6 53  1  0  0  0  0
  7  8  1  0  0  0  0
  7 45  1  0  0  0  0
  8  9  1  0  0  0  0
  8 50  1  0  0  0  0
  8 51  1  0  0  0  0
  9 10  1  6  0  0  0
  9 30  1  0  0  0  0
  9 38  1  0  0  0  0
 10 11  2  0  0  0  0
 10 12  1  0  0  0  0
 12 13  1  0  0  0  0
 12 29  1  0  0  0  0
 13 14  2  0  0  0  0
 13 22  1  0  0  0  0
 14 15  1  0  0  0  0
 14 28  1  0  0  0  0
 15 16  2  0  0  0  0
 16 17  1  0  0  0  0
 16 27  1  0  0  0  0
 17 18  2  0  0  0  0
 17 22  1  0  0  0  0
 18 19  1  0  0  0  0
 18 26  1  0  0  0  0
 19 20  2  0  0  0  0
 19 25  1  0  0  0  0
 20 21  1  0  0  0  0
 20 24  1  0  0  0  0
 21 22  2  0  0  0  0
 21 23  1  0  0  0  0
 29 30  1  0  0  0  0
 29 36  1  0  0  0  0
 29 37  1  0  0  0  0
 30 31  1  0  0  0  0
 30 35  1  6  0  0  0
 31 32  1  0  0  0  0
 31 33  1  0  0  0  0
 31 34  1  0  0  0  0
 38 39  2  0  0  0  0
 38 44  1  0  0  0  0
 39 40  1  0  0  0  0
 39 49  1  0  0  0  0
 40 41  1  0  0  0  0
 40 42  2  0  0  0  0
 42 43  1  0  0  0  0
 42 48  1  0  0  0  0
 43 44  2  0  0  0  0
 43 47  1  0  0  0  0
 44 45  1  0  0  0  0
 45 46  2  0  0  0  0
 56 57  1  0  0  0  0
 56 64  1  0  0  0  0
 56 65  1  0  0  0  0
 57 58  1  0  0  0  0
 57 62  1  0  0  0  0
 57 63  1  1  0  0  0
 58 59  1  0  0  0  0
 58 60  1  0  0  0  0
 58 61  1  0  0  0  0
M  CHG  1   4   1
M  END
>  <MODEL>
       1

$$$$
