output/tmp_first_model_11_94.pdb
 OpenBabel07222623443D

 65 69  0  0  0  0  0  0  0  0999 V2000
   13.5220    0.1990   23.2870 C   0  0  0  0  0  0  0  0  0  0  0  0
   12.5080    0.7990   24.2730 C   0  0  0  0  0  0  0  0  0  0  0  0
   11.1480    0.3000   23.8650 C   0  0  0  0  0  0  0  0  0  0  0  0
   10.5740    0.6880   22.8850 O   0  0  0  0  0  0  0  0  0  0  0  0
   10.5690   -0.8050   24.6850 N   0  3  0  0  0  0  0  0  0  0  0  0
   11.0440   -2.2200   24.2560 C   0  0  0  0  0  0  0  0  0  0  0  0
   10.3600   -2.5990   22.9530 C   0  0  0  0  0  0  0  0  0  0  0  0
    8.8380   -2.6710   23.1320 C   0  0  0  0  0  0  0  0  0  0  0  0
    8.2610   -1.4360   23.8170 C   0  0  0  0  0  0  0  0  0  0  0  0
    6.9200   -1.0130   23.6930 C   0  0  0  0  0  0  0  0  0  0  0  0
    6.0150   -1.6080   22.7630 N   0  0  0  0  0  0  0  0  0  0  0  0
    4.9570   -2.4310   23.3260 C   0  0  0  0  0  0  0  0  0  0  0  0
    5.5110   -3.6970   23.8980 C   0  0  0  0  0  0  0  0  0  0  0  0
    5.8090   -4.7460   23.0290 C   0  0  0  0  0  0  0  0  0  0  0  0
    6.2990   -5.9310   23.5600 C   0  0  0  0  0  0  0  0  0  0  0  0
    6.4670   -6.0770   24.9340 C   0  0  0  0  0  0  0  0  0  0  0  0
    6.2210   -5.0000   25.7750 C   0  0  0  0  0  0  0  0  0  0  0  0
    6.4440   -5.1630   27.4900 Cl  0  0  0  0  0  0  0  0  0  0  0  0
    5.7960   -3.7890   25.2570 C   0  0  0  0  0  0  0  0  0  0  0  0
    5.7010   -2.9230   25.9060 H   0  0  0  0  0  0  0  0  0  0  0  0
    6.8210   -7.0050   25.3640 H   0  0  0  0  0  0  0  0  0  0  0  0
    6.5230   -6.7670   22.9030 H   0  0  0  0  0  0  0  0  0  0  0  0
    5.6820   -4.6180   21.9520 H   0  0  0  0  0  0  0  0  0  0  0  0
    4.4410   -1.8550   24.1010 H   0  0  0  0  0  0  0  0  0  0  0  0
    4.2650   -2.6530   22.5120 H   0  0  0  0  0  0  0  0  0  0  0  0
    6.1400   -1.5880   21.3950 C   0  0  0  0  0  0  0  0  0  0  0  0
    5.5710   -2.4060   20.6860 O   0  0  0  0  0  0  0  0  0  0  0  0
    6.9700   -0.4650   20.7800 C   0  0  0  0  0  0  0  0  0  0  0  0
    6.1680    0.1460   19.6680 C   0  0  0  0  0  0  0  0  0  0  0  0
    6.4350   -0.1740   18.3640 C   0  0  0  0  0  0  0  0  0  0  0  0
    5.7280    0.2610   17.2910 N   0  0  0  0  0  0  0  0  0  0  0  0
    4.7030    1.0370   17.5390 C   0  0  0  0  0  0  0  0  0  0  0  0
    4.2840    1.4170   18.8420 C   0  0  0  0  0  0  0  0  0  0  0  0
    3.1510    2.2420   19.0420 C   0  0  0  0  0  0  0  0  0  0  0  0
    2.7550    2.5900   20.3030 C   0  0  0  0  0  0  0  0  0  0  0  0
    3.4680    2.1040   21.4240 C   0  0  0  0  0  0  0  0  0  0  0  0
    4.5680    1.2970   21.2590 C   0  0  0  0  0  0  0  0  0  0  0  0
    5.0200    0.9460   19.9520 C   0  0  0  0  0  0  0  0  0  0  0  0
    5.0910    0.9300   22.1400 H   0  0  0  0  0  0  0  0  0  0  0  0
    3.1420    2.3820   22.4230 H   0  0  0  0  0  0  0  0  0  0  0  0
    1.9000    3.2430   20.4470 H   0  0  0  0  0  0  0  0  0  0  0  0
    2.6280    2.6100   18.1630 H   0  0  0  0  0  0  0  0  0  0  0  0
    4.1400    1.4020   16.6800 H   0  0  0  0  0  0  0  0  0  0  0  0
    7.2710   -0.8310   18.1240 H   0  0  0  0  0  0  0  0  0  0  0  0
    7.8940   -0.9010   20.3760 H   0  0  0  0  0  0  0  0  0  0  0  0
    7.2470    0.2590   21.5530 H   0  0  0  0  0  0  0  0  0  0  0  0
    6.4030   -0.0290   24.5300 C   0  0  0  0  0  0  0  0  0  0  0  0
    7.1830    0.5790   25.5040 C   0  0  0  0  0  0  0  0  0  0  0  0
    8.5200    0.2290   25.5830 C   0  0  0  0  0  0  0  0  0  0  0  0
    9.0490   -0.7120   24.7090 C   0  0  0  0  0  0  0  0  0  0  0  0
    9.1910    0.6990   26.2870 H   0  0  0  0  0  0  0  0  0  0  0  0
    6.7750    1.3330   26.1720 H   0  0  0  0  0  0  0  0  0  0  0  0
    5.3680    0.2670   24.3980 H   0  0  0  0  0  0  0  0  0  0  0  0
    8.3530   -2.8390   22.1660 H   0  0  0  0  0  0  0  0  0  0  0  0
    8.5850   -3.5440   23.7460 H   0  0  0  0  0  0  0  0  0  0  0  0
   10.6070   -1.8650   22.1750 H   0  0  0  0  0  0  0  0  0  0  0  0
   10.7530   -3.5650   22.6260 H   0  0  0  0  0  0  0  0  0  0  0  0
   10.7550   -2.9140   25.0490 H   0  0  0  0  0  0  0  0  0  0  0  0
   12.1330   -2.2290   24.1710 H   0  0  0  0  0  0  0  0  0  0  0  0
   10.8810   -0.6740   25.6620 H   0  0  0  0  0  0  0  0  0  0  0  0
   12.7350    0.4900   25.2920 H   0  0  0  0  0  0  0  0  0  0  0  0
   12.4790    1.8950   24.2340 H   0  0  0  0  0  0  0  0  0  0  0  0
   12.9850   -0.1040   22.3840 H   0  0  0  0  0  0  0  0  0  0  0  0
   14.0120   -0.6870   23.7020 H   0  0  0  0  0  0  0  0  0  0  0  0
   14.2840    0.9300   23.0310 H   0  0  0  0  0  0  0  0  0  0  0  0
  1  2  1  0  0  0  0
  1 63  1  0  0  0  0
  1 64  1  0  0  0  0
  1 65  1  0  0  0  0
  2  3  1  0  0  0  0
  2 61  1  0  0  0  0
  2 62  1  0  0  0  0
  3  4  2  0  0  0  0
  3  5  1  0  0  0  0
  5  6  1  0  0  0  0
  5 50  1  0  0  0  0
  5 60  1  0  0  0  0
  6  7  1  0  0  0  0
  6 58  1  0  0  0  0
  6 59  1  0  0  0  0
  7  8  1  0  0  0  0
  7 56  1  0  0  0  0
  7 57  1  0  0  0  0
  8  9  1  0  0  0  0
  8 54  1  0  0  0  0
  8 55  1  0  0  0  0
  9 10  2  0  0  0  0
  9 50  1  0  0  0  0
 10 11  1  0  0  0  0
 10 47  1  0  0  0  0
 11 12  1  0  0  0  0
 11 26  1  0  0  0  0
 12 13  1  0  0  0  0
 12 24  1  0  0  0  0
 12 25  1  0  0  0  0
 13 14  2  0  0  0  0
 13 19  1  0  0  0  0
 14 15  1  0  0  0  0
 14 23  1  0  0  0  0
 15 16  2  0  0  0  0
 15 22  1  0  0  0  0
 16 17  1  0  0  0  0
 16 21  1  0  0  0  0
 17 18  1  0  0  0  0
 17 19  2  0  0  0  0
 19 20  1  0  0  0  0
 26 27  2  0  0  0  0
 26 28  1  0  0  0  0
 28 29  1  0  0  0  0
 28 45  1  0  0  0  0
 28 46  1  0  0  0  0
 29 30  2  0  0  0  0
 29 38  1  0  0  0  0
 30 31  1  0  0  0  0
 30 44  1  0  0  0  0
 31 32  2  0  0  0  0
 32 33  1  0  0  0  0
 32 43  1  0  0  0  0
 33 34  2  0  0  0  0
 33 38  1  0  0  0  0
 34 35  1  0  0  0  0
 34 42  1  0  0  0  0
 35 36  2  0  0  0  0
 35 41  1  0  0  0  0
 36 37  1  0  0  0  0
 36 40  1  0  0  0  0
 37 38  2  0  0  0  0
 37 39  1  0  0  0  0
 47 48  2  0  0  0  0
 47 53  1  0  0  0  0
 48 49  1  0  0  0  0
 48 52  1  0  0  0  0
 49 50  2  0  0  0  0
 49 51  1  0  0  0  0
M  CHG  1   5   1
M  END
>  <MODEL>
       1

$$$$
