output/tmp_first_model_14_34.pdb
 OpenBabel07232601073D

 58 63  0  0  1  0  0  0  0  0999 V2000
    7.7190   -3.0070   23.3420 C   0  0  0  0  0  0  0  0  0  0  0  0
    7.9990   -1.9340   22.2980 C   0  0  1  0  0  0  0  0  0  0  0  0
    6.8990   -1.8040   21.2430 C   0  0  0  0  0  0  0  0  0  0  0  0
    6.9240   -0.4100   20.8380 N   0  0  0  0  0  0  0  0  0  0  0  0
    6.1380    0.1080   19.7720 C   0  0  0  0  0  0  0  0  0  0  0  0
    6.4310   -0.2220   18.4720 C   0  0  0  0  0  0  0  0  0  0  0  0
    5.7600    0.2320   17.3800 N   0  0  0  0  0  0  0  0  0  0  0  0
    4.7380    1.0310   17.5790 C   0  0  0  0  0  0  0  0  0  0  0  0
    4.2890    1.4220   18.8740 C   0  0  0  0  0  0  0  0  0  0  0  0
    3.1630    2.2730   19.0500 C   0  0  0  0  0  0  0  0  0  0  0  0
    2.7450    2.6120   20.3090 C   0  0  0  0  0  0  0  0  0  0  0  0
    3.4240    2.1140   21.4420 C   0  0  0  0  0  0  0  0  0  0  0  0
    4.5110    1.2920   21.2960 C   0  0  0  0  0  0  0  0  0  0  0  0
    4.9910    0.9390   20.0060 C   0  0  0  0  0  0  0  0  0  0  0  0
    5.0260    0.9070   22.1690 H   0  0  0  0  0  0  0  0  0  0  0  0
    3.0840    2.3820   22.4360 H   0  0  0  0  0  0  0  0  0  0  0  0
    1.8880    3.2620   20.4490 H   0  0  0  0  0  0  0  0  0  0  0  0
    2.6400    2.6490   18.1720 H   0  0  0  0  0  0  0  0  0  0  0  0
    4.1990    1.4000   16.7010 H   0  0  0  0  0  0  0  0  0  0  0  0
    7.2820   -0.8670   18.2600 H   0  0  0  0  0  0  0  0  0  0  0  0
    7.6490    0.3900   21.6930 C   0  0  0  0  0  0  0  0  0  0  0  0
    7.7610    1.5960   21.5990 O   0  0  0  0  0  0  0  0  0  0  0  0
    8.2130   -0.4750   22.8150 C   0  0  1  0  0  0  0  0  0  0  0  0
    7.3480   -0.0640   24.0270 C   0  0  0  0  0  0  0  0  0  0  0  0
    7.9860   -0.5850   25.3470 N   0  0  0  0  0  0  0  0  0  0  0  0
    7.1360   -0.9890   26.5350 C   0  0  0  0  0  0  0  0  0  0  0  0
    7.0540   -2.4730   26.7630 C   0  0  0  0  0  0  0  0  0  0  0  0
    5.9680   -3.3270   26.5750 C   0  0  0  0  0  0  0  0  0  0  0  0
    6.3510   -4.5770   26.8330 N   0  0  0  0  0  0  0  0  0  0  0  0
    7.6300   -4.4440   27.1450 N   0  0  0  0  0  0  0  0  0  0  0  0
    8.4320   -5.5640   27.5920 C   0  0  0  0  0  0  0  0  0  0  0  0
    8.0810   -6.4710   27.1150 H   0  0  0  0  0  0  0  0  0  0  0  0
    9.4710   -5.4050   27.3190 H   0  0  0  0  0  0  0  0  0  0  0  0
    8.3680   -5.6990   28.6710 H   0  0  0  0  0  0  0  0  0  0  0  0
    8.1090   -3.2060   27.1110 N   0  0  0  0  0  0  0  0  0  0  0  0
    4.9780   -3.0510   26.2420 H   0  0  0  0  0  0  0  0  0  0  0  0
    7.4750   -0.4720   27.4450 H   0  0  0  0  0  0  0  0  0  0  0  0
    6.1040   -0.6170   26.3350 H   0  0  0  0  0  0  0  0  0  0  0  0
    9.4690   -0.7160   25.5940 C   0  0  0  0  0  0  0  0  0  0  0  0
    9.4690   -0.7160   25.5940 O   0  0  0  0  0  0  0  0  0  0  0  0
   10.1890   -0.2360   24.3710 C   0  0  0  0  0  0  0  0  0  0  0  0
   11.5790    0.0080   24.4930 C   0  0  0  0  0  0  0  0  0  0  0  0
   12.4430    0.1790   23.4590 C   0  0  0  0  0  0  0  0  0  0  0  0
   11.9180    0.2440   22.1780 C   0  0  0  0  0  0  0  0  0  0  0  0
   12.8100    0.5210   21.2180 F   0  0  0  0  0  0  0  0  0  0  0  0
   10.5630    0.0600   21.9750 C   0  0  0  0  0  0  0  0  0  0  0  0
    9.6950   -0.2050   23.0640 C   0  0  0  0  0  0  0  0  0  0  0  0
   10.1650    0.1020   20.9720 H   0  0  0  0  0  0  0  0  0  0  0  0
   13.5090    0.3460   23.6130 H   0  0  0  0  0  0  0  0  0  0  0  0
   11.9460    0.2080   25.4670 H   0  0  0  0  0  0  0  0  0  0  0  0
    6.3560   -0.5020   23.9980 H   0  0  0  0  0  0  0  0  0  0  0  0
    7.2940    1.0190   24.1690 H   0  0  0  0  0  0  0  0  0  0  0  0
    7.0940   -2.4410   20.3890 H   0  0  0  0  0  0  0  0  0  0  0  0
    5.9200   -2.0930   21.6430 H   0  0  0  0  0  0  0  0  0  0  0  0
    8.9330   -2.2050   21.7850 H   0  0  0  0  0  0  0  0  0  0  0  0
    7.6650   -3.9870   22.8610 H   0  0  0  0  0  0  0  0  0  0  0  0
    6.7680   -2.8260   23.8510 H   0  0  0  0  0  0  0  0  0  0  0  0
    8.5010   -3.0260   24.1130 H   0  0  0  0  0  0  0  0  0  0  0  0
  1  2  1  0  0  0  0
  1 56  1  0  0  0  0
  1 57  1  0  0  0  0
  1 58  1  0  0  0  0
  2  3  1  0  0  0  0
  2 23  1  0  0  0  0
  2 55  1  6  0  0  0
  3  4  1  0  0  0  0
  3 53  1  0  0  0  0
  3 54  1  0  0  0  0
  4  5  1  0  0  0  0
  4 21  1  0  0  0  0
  5  6  2  0  0  0  0
  5 14  1  0  0  0  0
  6  7  1  0  0  0  0
  6 20  1  0  0  0  0
  7  8  2  0  0  0  0
  8  9  1  0  0  0  0
  8 19  1  0  0  0  0
  9 10  2  0  0  0  0
  9 14  1  0  0  0  0
 10 11  1  0  0  0  0
 10 18  1  0  0  0  0
 11 12  2  0  0  0  0
 11 17  1  0  0  0  0
 12 13  1  0  0  0  0
 12 16  1  0  0  0  0
 13 14  2  0  0  0  0
 13 15  1  0  0  0  0
 21 22  2  0  0  0  0
 23 21  1  6  0  0  0
 23 24  1  0  0  0  0
 23 47  1  0  0  0  0
 24 25  1  0  0  0  0
 24 51  1  0  0  0  0
 24 52  1  0  0  0  0
 25 26  1  0  0  0  0
 25 39  1  0  0  0  0
 26 27  1  0  0  0  0
 26 37  1  0  0  0  0
 26 38  1  0  0  0  0
 27 28  1  0  0  0  0
 27 35  2  0  0  0  0
 28 29  2  0  0  0  0
 28 36  1  0  0  0  0
 29 30  1  0  0  0  0
 30 31  1  0  0  0  0
 30 35  1  0  0  0  0
 31 32  1  0  0  0  0
 31 33  1  0  0  0  0
 31 34  1  0  0  0  0
 39 40  2  0  0  0  0
 39 41  1  0  0  0  0
 41 42  2  0  0  0  0
 41 47  1  0  0  0  0
 42 43  1  0  0  0  0
 42 50  1  0  0  0  0
 43 44  2  0  0  0  0
 43 49  1  0  0  0  0
 44 45  1  0  0  0  0
 44 46  1  0  0  0  0
 46 47  2  0  0  0  0
 46 48  1  0  0  0  0
M  END
>  <MODEL>
       1

$$$$
