output/tmp_first_model_11_30.pdb
 OpenBabel07222623443D

 66 71  0  0  1  0  0  0  0  0999 V2000
    6.5240    4.3640   21.3490 C   0  0  0  0  0  0  0  0  0  0  0  0
    7.5000    3.9590   22.3520 N   0  0  0  0  0  0  0  0  0  0  0  0
    7.0350    3.3310   23.4720 C   0  0  0  0  0  0  0  0  0  0  0  0
    5.8390    3.1460   23.6600 O   0  0  0  0  0  0  0  0  0  0  0  0
    8.0890    2.8600   24.4850 C   0  0  0  0  0  0  0  0  0  0  0  0
    8.7460    1.6600   23.9980 N   0  0  0  0  0  0  0  0  0  0  0  0
    7.9820    0.4220   23.8540 C   0  0  0  0  0  0  0  0  0  0  0  0
    8.4040   -0.3910   22.6000 C   0  0  2  0  0  0  0  0  0  0  0  0
    7.9270    0.2870   21.2950 C   0  0  0  0  0  0  0  0  0  0  0  0
    8.4080    1.2520   20.7430 O   0  0  0  0  0  0  0  0  0  0  0  0
    6.8570   -0.4290   20.8130 N   0  0  0  0  0  0  0  0  0  0  0  0
    6.0950    0.0840   19.7440 C   0  0  0  0  0  0  0  0  0  0  0  0
    6.4560   -0.1960   18.4530 C   0  0  0  0  0  0  0  0  0  0  0  0
    5.7720    0.2420   17.3720 N   0  0  0  0  0  0  0  0  0  0  0  0
    4.7240    0.9990   17.5880 C   0  0  0  0  0  0  0  0  0  0  0  0
    4.2620    1.3820   18.8800 C   0  0  0  0  0  0  0  0  0  0  0  0
    3.1450    2.2340   19.0670 C   0  0  0  0  0  0  0  0  0  0  0  0
    2.7570    2.6100   20.3240 C   0  0  0  0  0  0  0  0  0  0  0  0
    3.4650    2.1530   21.4590 C   0  0  0  0  0  0  0  0  0  0  0  0
    4.5490    1.3210   21.3070 C   0  0  0  0  0  0  0  0  0  0  0  0
    4.9690    0.9140   20.0080 C   0  0  0  0  0  0  0  0  0  0  0  0
    5.1210    1.0170   22.1800 H   0  0  0  0  0  0  0  0  0  0  0  0
    3.1800    2.4880   22.4520 H   0  0  0  0  0  0  0  0  0  0  0  0
    1.9100    3.2770   20.4550 H   0  0  0  0  0  0  0  0  0  0  0  0
    2.6320    2.6000   18.1830 H   0  0  0  0  0  0  0  0  0  0  0  0
    4.1830    1.3590   16.7130 H   0  0  0  0  0  0  0  0  0  0  0  0
    7.3380   -0.8040   18.2620 H   0  0  0  0  0  0  0  0  0  0  0  0
    6.4520   -1.5430   21.6400 C   0  0  0  0  0  0  0  0  0  0  0  0
    7.6990   -1.7770   22.4970 C   0  0  2  0  0  0  0  0  0  0  0  0
    7.4600   -2.5370   23.8060 C   0  0  0  0  0  0  0  0  0  0  0  0
    6.9430   -3.9400   23.5860 C   0  0  0  0  0  0  0  0  0  0  0  0
    5.5690   -4.1940   23.5390 C   0  0  0  0  0  0  0  0  0  0  0  0
    5.0860   -5.4810   23.3280 C   0  0  0  0  0  0  0  0  0  0  0  0
    5.9730   -6.5380   23.1430 C   0  0  0  0  0  0  0  0  0  0  0  0
    7.3440   -6.2960   23.1750 C   0  0  0  0  0  0  0  0  0  0  0  0
    7.8230   -5.0080   23.3920 C   0  0  0  0  0  0  0  0  0  0  0  0
    8.8970   -4.8320   23.4230 H   0  0  0  0  0  0  0  0  0  0  0  0
    8.0440   -7.1170   23.0410 H   0  0  0  0  0  0  0  0  0  0  0  0
    5.5970   -7.5440   22.9760 H   0  0  0  0  0  0  0  0  0  0  0  0
    4.0140   -5.6630   23.3200 H   0  0  0  0  0  0  0  0  0  0  0  0
    4.8680   -3.3700   23.6770 H   0  0  0  0  0  0  0  0  0  0  0  0
    6.7450   -1.9760   24.4210 H   0  0  0  0  0  0  0  0  0  0  0  0
    8.4090   -2.5670   24.3590 H   0  0  0  0  0  0  0  0  0  0  0  0
    8.3530   -2.4050   21.8910 H   0  0  0  0  0  0  0  0  0  0  0  0
    5.5630   -1.3030   22.2420 H   0  0  0  0  0  0  0  0  0  0  0  0
    6.2040   -2.4190   21.0310 H   0  0  0  0  0  0  0  0  0  0  0  0
    9.9100   -0.4610   22.5700 C   0  0  0  0  0  0  0  0  0  0  0  0
   10.5450   -1.3640   21.7090 C   0  0  0  0  0  0  0  0  0  0  0  0
   11.9150   -1.3330   21.5440 C   0  0  0  0  0  0  0  0  0  0  0  0
   12.5870   -2.3460   20.2860 Cl  0  0  0  0  0  0  0  0  0  0  0  0
   12.7000   -0.4650   22.3040 C   0  0  0  0  0  0  0  0  0  0  0  0
   12.0840    0.4480   23.1230 C   0  0  0  0  0  0  0  0  0  0  0  0
   10.7000    0.4940   23.2120 C   0  0  0  0  0  0  0  0  0  0  0  0
   10.1060    1.6800   23.8900 C   0  0  0  0  0  0  0  0  0  0  0  0
   10.7910    2.6200   24.2820 O   0  0  0  0  0  0  0  0  0  0  0  0
   12.6640    1.1720   23.6810 H   0  0  0  0  0  0  0  0  0  0  0  0
   13.7780   -0.4200   22.2070 H   0  0  0  0  0  0  0  0  0  0  0  0
   10.0040   -2.0800   21.1050 H   0  0  0  0  0  0  0  0  0  0  0  0
    8.1480   -0.1990   24.7470 H   0  0  0  0  0  0  0  0  0  0  0  0
    6.9190    0.6790   23.7950 H   0  0  0  0  0  0  0  0  0  0  0  0
    8.8780    3.6100   24.6390 H   0  0  0  0  0  0  0  0  0  0  0  0
    7.5850    2.6940   25.4480 H   0  0  0  0  0  0  0  0  0  0  0  0
    8.4120    3.6970   21.9900 H   0  0  0  0  0  0  0  0  0  0  0  0
    5.7300    4.9440   21.8310 H   0  0  0  0  0  0  0  0  0  0  0  0
    6.0510    3.4980   20.8650 H   0  0  0  0  0  0  0  0  0  0  0  0
    7.0060    4.9830   20.5910 H   0  0  0  0  0  0  0  0  0  0  0  0
  1  2  1  0  0  0  0
  1 64  1  0  0  0  0
  1 65  1  0  0  0  0
  1 66  1  0  0  0  0
  2  3  1  0  0  0  0
  2 63  1  0  0  0  0
  3  4  2  0  0  0  0
  3  5  1  0  0  0  0
  5  6  1  0  0  0  0
  5 61  1  0  0  0  0
  5 62  1  0  0  0  0
  6  7  1  0  0  0  0
  6 54  1  0  0  0  0
  7  8  1  0  0  0  0
  7 59  1  0  0  0  0
  7 60  1  0  0  0  0
  8  9  1  6  0  0  0
  8 29  1  0  0  0  0
  8 47  1  0  0  0  0
  9 10  2  0  0  0  0
  9 11  1  0  0  0  0
 11 12  1  0  0  0  0
 11 28  1  0  0  0  0
 12 13  2  0  0  0  0
 12 21  1  0  0  0  0
 13 14  1  0  0  0  0
 13 27  1  0  0  0  0
 14 15  2  0  0  0  0
 15 16  1  0  0  0  0
 15 26  1  0  0  0  0
 16 17  2  0  0  0  0
 16 21  1  0  0  0  0
 17 18  1  0  0  0  0
 17 25  1  0  0  0  0
 18 19  2  0  0  0  0
 18 24  1  0  0  0  0
 19 20  1  0  0  0  0
 19 23  1  0  0  0  0
 20 21  2  0  0  0  0
 20 22  1  0  0  0  0
 28 29  1  0  0  0  0
 28 45  1  0  0  0  0
 28 46  1  0  0  0  0
 29 30  1  0  0  0  0
 29 44  1  6  0  0  0
 30 31  1  0  0  0  0
 30 42  1  0  0  0  0
 30 43  1  0  0  0  0
 31 32  2  0  0  0  0
 31 36  1  0  0  0  0
 32 33  1  0  0  0  0
 32 41  1  0  0  0  0
 33 34  2  0  0  0  0
 33 40  1  0  0  0  0
 34 35  1  0  0  0  0
 34 39  1  0  0  0  0
 35 36  2  0  0  0  0
 35 38  1  0  0  0  0
 36 37  1  0  0  0  0
 47 48  2  0  0  0  0
 47 53  1  0  0  0  0
 48 49  1  0  0  0  0
 48 58  1  0  0  0  0
 49 50  1  0  0  0  0
 49 51  2  0  0  0  0
 51 52  1  0  0  0  0
 51 57  1  0  0  0  0
 52 53  2  0  0  0  0
 52 56  1  0  0  0  0
 53 54  1  0  0  0  0
 54 55  2  0  0  0  0
M  END
>  <MODEL>
       1

$$$$
