output/tmp_first_model_18_35.pdb
 OpenBabel07232602473D

 51 54  0  0  0  0  0  0  0  0999 V2000
   12.8560   -3.0610   26.1740 N   0  0  0  0  0  0  0  0  0  0  0  0
   12.6780   -2.4010   25.2430 C   0  0  0  0  0  0  0  0  0  0  0  0
   12.3900   -1.5820   24.0520 C   0  0  0  0  0  0  0  0  0  0  0  0
   11.0010   -1.8510   23.5180 C   0  0  0  0  0  0  0  0  0  0  0  0
    9.8990   -1.1560   23.9890 C   0  0  0  0  0  0  0  0  0  0  0  0
    8.6230   -1.4370   23.5180 C   0  0  0  0  0  0  0  0  0  0  0  0
    8.4180   -2.4300   22.5580 C   0  0  0  0  0  0  0  0  0  0  0  0
    7.1170   -2.7360   22.0510 N   0  0  0  0  0  0  0  0  0  0  0  0
    6.5240   -4.0280   22.4440 C   0  0  0  0  0  0  0  0  0  0  0  0
    5.9730   -4.0300   23.8600 C   0  0  0  0  0  0  0  0  0  0  0  0
    6.8220   -4.2260   24.9490 C   0  0  0  0  0  0  0  0  0  0  0  0
    6.3260   -4.1490   26.2440 C   0  0  0  0  0  0  0  0  0  0  0  0
    4.9830   -3.8750   26.4720 C   0  0  0  0  0  0  0  0  0  0  0  0
    4.1470   -3.6760   25.3840 C   0  0  0  0  0  0  0  0  0  0  0  0
    2.4670   -3.3260   25.6530 Cl  0  0  0  0  0  0  0  0  0  0  0  0
    4.6260   -3.7550   24.0840 C   0  0  0  0  0  0  0  0  0  0  0  0
    3.9630   -3.5920   23.2430 H   0  0  0  0  0  0  0  0  0  0  0  0
    4.5950   -3.8160   27.4830 H   0  0  0  0  0  0  0  0  0  0  0  0
    6.9930   -4.3010   27.0850 H   0  0  0  0  0  0  0  0  0  0  0  0
    7.8810   -4.4210   24.7820 H   0  0  0  0  0  0  0  0  0  0  0  0
    5.7450   -4.2930   21.7270 H   0  0  0  0  0  0  0  0  0  0  0  0
    7.2990   -4.7980   22.3650 H   0  0  0  0  0  0  0  0  0  0  0  0
    6.2910   -1.7700   21.4910 C   0  0  0  0  0  0  0  0  0  0  0  0
    5.0870   -1.9380   21.4040 O   0  0  0  0  0  0  0  0  0  0  0  0
    6.9390   -0.5060   20.8870 C   0  0  0  0  0  0  0  0  0  0  0  0
    6.1190    0.0930   19.7680 C   0  0  0  0  0  0  0  0  0  0  0  0
    6.4210   -0.2110   18.4670 C   0  0  0  0  0  0  0  0  0  0  0  0
    5.7550    0.2380   17.3720 N   0  0  0  0  0  0  0  0  0  0  0  0
    4.7340    1.0340   17.5770 C   0  0  0  0  0  0  0  0  0  0  0  0
    4.2840    1.4240   18.8680 C   0  0  0  0  0  0  0  0  0  0  0  0
    3.1610    2.2760   19.0430 C   0  0  0  0  0  0  0  0  0  0  0  0
    2.7450    2.6240   20.2990 C   0  0  0  0  0  0  0  0  0  0  0  0
    3.4320    2.1340   21.4300 C   0  0  0  0  0  0  0  0  0  0  0  0
    4.5230    1.3130   21.2880 C   0  0  0  0  0  0  0  0  0  0  0  0
    4.9860    0.9350   19.9990 C   0  0  0  0  0  0  0  0  0  0  0  0
    5.0260    0.9280   22.1690 H   0  0  0  0  0  0  0  0  0  0  0  0
    3.0910    2.4120   22.4220 H   0  0  0  0  0  0  0  0  0  0  0  0
    1.8880    3.2760   20.4340 H   0  0  0  0  0  0  0  0  0  0  0  0
    2.6420    2.6470   18.1610 H   0  0  0  0  0  0  0  0  0  0  0  0
    4.1980    1.4010   16.6990 H   0  0  0  0  0  0  0  0  0  0  0  0
    7.2630   -0.8650   18.2470 H   0  0  0  0  0  0  0  0  0  0  0  0
    7.9410   -0.7520   20.5180 H   0  0  0  0  0  0  0  0  0  0  0  0
    7.0820    0.2360   21.6810 H   0  0  0  0  0  0  0  0  0  0  0  0
    9.5160   -3.1580   22.1150 C   0  0  0  0  0  0  0  0  0  0  0  0
   10.7840   -2.8490   22.5860 C   0  0  0  0  0  0  0  0  0  0  0  0
   11.6630   -3.3650   22.2510 H   0  0  0  0  0  0  0  0  0  0  0  0
    9.3680   -3.9330   21.3740 H   0  0  0  0  0  0  0  0  0  0  0  0
    7.7760   -0.8850   23.9110 H   0  0  0  0  0  0  0  0  0  0  0  0
   10.0440   -0.3830   24.7340 H   0  0  0  0  0  0  0  0  0  0  0  0
   12.4950   -0.5310   24.3300 H   0  0  0  0  0  0  0  0  0  0  0  0
   13.1550   -1.7950   23.3010 H   0  0  0  0  0  0  0  0  0  0  0  0
  1  2  3  0  0  0  0
  2  3  1  0  0  0  0
  3  4  1  0  0  0  0
  3 50  1  0  0  0  0
  3 51  1  0  0  0  0
  4  5  2  0  0  0  0
  4 45  1  0  0  0  0
  5  6  1  0  0  0  0
  5 49  1  0  0  0  0
  6  7  2  0  0  0  0
  6 48  1  0  0  0  0
  7  8  1  0  0  0  0
  7 44  1  0  0  0  0
  8  9  1  0  0  0  0
  8 23  1  0  0  0  0
  9 10  1  0  0  0  0
  9 21  1  0  0  0  0
  9 22  1  0  0  0  0
 10 11  2  0  0  0  0
 10 16  1  0  0  0  0
 11 12  1  0  0  0  0
 11 20  1  0  0  0  0
 12 13  2  0  0  0  0
 12 19  1  0  0  0  0
 13 14  1  0  0  0  0
 13 18  1  0  0  0  0
 14 15  1  0  0  0  0
 14 16  2  0  0  0  0
 16 17  1  0  0  0  0
 23 24  2  0  0  0  0
 23 25  1  0  0  0  0
 25 26  1  0  0  0  0
 25 42  1  0  0  0  0
 25 43  1  0  0  0  0
 26 27  2  0  0  0  0
 26 35  1  0  0  0  0
 27 28  1  0  0  0  0
 27 41  1  0  0  0  0
 28 29  2  0  0  0  0
 29 30  1  0  0  0  0
 29 40  1  0  0  0  0
 30 31  2  0  0  0  0
 30 35  1  0  0  0  0
 31 32  1  0  0  0  0
 31 39  1  0  0  0  0
 32 33  2  0  0  0  0
 32 38  1  0  0  0  0
 33 34  1  0  0  0  0
 33 37  1  0  0  0  0
 34 35  2  0  0  0  0
 34 36  1  0  0  0  0
 44 45  2  0  0  0  0
 44 47  1  0  0  0  0
 45 46  1  0  0  0  0
M  END
>  <MODEL>
       1

$$$$
