output/tmp_first_model_13_24.pdb
 OpenBabel07232600343D

 70 75  0  0  1  0  0  0  0  0999 V2000
    4.7360   -7.0700   21.3340 C   0  0  0  0  0  0  0  0  0  0  0  0
    3.9220   -6.2640   22.2620 N   0  3  0  0  0  0  0  0  0  0  0  0
    4.5390   -4.9310   22.5360 C   0  0  0  0  0  0  0  0  0  0  0  0
    5.8050   -5.0310   23.3990 C   0  0  0  0  0  0  0  0  0  0  0  0
    6.2360   -3.7080   23.8000 N   0  0  0  0  0  0  0  0  0  0  0  0
    7.4070   -3.1210   23.1930 C   0  0  0  0  0  0  0  0  0  0  0  0
    7.2150   -1.6250   22.8770 C   0  0  2  0  0  0  0  0  0  0  0  0
    6.2590   -1.4390   21.6880 C   0  0  0  0  0  0  0  0  0  0  0  0
    5.1690   -1.9570   21.5300 O   0  0  0  0  0  0  0  0  0  0  0  0
    6.8290   -0.5610   20.8040 N   0  0  0  0  0  0  0  0  0  0  0  0
    6.0890    0.0300   19.7590 C   0  0  0  0  0  0  0  0  0  0  0  0
    6.4540   -0.2200   18.4620 C   0  0  0  0  0  0  0  0  0  0  0  0
    5.8010    0.2550   17.3750 N   0  0  0  0  0  0  0  0  0  0  0  0
    4.7650    1.0250   17.6040 C   0  0  0  0  0  0  0  0  0  0  0  0
    4.3070    1.3950   18.9000 C   0  0  0  0  0  0  0  0  0  0  0  0
    3.1930    2.2560   19.0650 C   0  0  0  0  0  0  0  0  0  0  0  0
    2.7940    2.6410   20.3110 C   0  0  0  0  0  0  0  0  0  0  0  0
    3.4950    2.1890   21.4540 C   0  0  0  0  0  0  0  0  0  0  0  0
    4.5720    1.3460   21.3300 C   0  0  0  0  0  0  0  0  0  0  0  0
    4.9930    0.9080   20.0350 C   0  0  0  0  0  0  0  0  0  0  0  0
    5.0990    1.0150   22.2290 H   0  0  0  0  0  0  0  0  0  0  0  0
    3.1690    2.5170   22.4360 H   0  0  0  0  0  0  0  0  0  0  0  0
    1.9460    3.3090   20.4310 H   0  0  0  0  0  0  0  0  0  0  0  0
    2.6850    2.6090   18.1700 H   0  0  0  0  0  0  0  0  0  0  0  0
    4.2280    1.4070   16.7350 H   0  0  0  0  0  0  0  0  0  0  0  0
    7.3120   -0.8650   18.2740 H   0  0  0  0  0  0  0  0  0  0  0  0
    8.1400   -0.0920   21.1800 C   0  0  0  0  0  0  0  0  0  0  0  0
    8.5200   -0.9490   22.3960 C   0  0  2  0  0  0  0  0  0  0  0  0
    9.6900   -1.8850   22.0960 C   0  0  0  0  0  0  0  0  0  0  0  0
   10.2330   -2.4260   23.2890 O   0  0  0  0  0  0  0  0  0  0  0  0
   11.2490   -1.5800   23.8080 C   0  0  0  0  0  0  0  0  0  0  0  0
   12.5110   -1.7970   23.0040 C   0  0  0  0  0  0  0  0  0  0  0  0
   12.9350   -3.2550   23.0690 C   0  0  0  0  0  0  0  0  0  0  0  0
   14.0630   -2.9360   23.9060 O   0  0  0  0  0  0  0  0  0  0  0  0
   13.8290   -1.5330   23.7070 C   0  0  0  0  0  0  0  0  0  0  0  0
   13.7970   -0.9800   24.6470 H   0  0  0  0  0  0  0  0  0  0  0  0
   14.5770   -1.1010   23.0420 H   0  0  0  0  0  0  0  0  0  0  0  0
   13.2370   -3.7090   22.1150 H   0  0  0  0  0  0  0  0  0  0  0  0
   12.1740   -3.8690   23.5690 H   0  0  0  0  0  0  0  0  0  0  0  0
   12.4670   -1.4290   21.9820 H   0  0  0  0  0  0  0  0  0  0  0  0
   10.9370   -0.5230   23.8100 H   0  0  0  0  0  0  0  0  0  0  0  0
   11.4080   -1.8980   24.8450 H   0  0  0  0  0  0  0  0  0  0  0  0
   10.4670   -1.2920   21.6340 H   0  0  0  0  0  0  0  0  0  0  0  0
    9.4140   -2.6920   21.4000 H   0  0  0  0  0  0  0  0  0  0  0  0
    8.8910   -0.3200   23.2100 H   0  0  0  0  0  0  0  0  0  0  0  0
    8.8440   -0.2190   20.3570 H   0  0  0  0  0  0  0  0  0  0  0  0
    8.1150    0.9820   21.4190 H   0  0  0  0  0  0  0  0  0  0  0  0
    6.6590   -0.9380   24.1130 C   0  0  0  0  0  0  0  0  0  0  0  0
    6.8570    0.4310   24.3350 C   0  0  0  0  0  0  0  0  0  0  0  0
    6.3220    1.0330   25.4600 C   0  0  0  0  0  0  0  0  0  0  0  0
    6.5800    2.7340   25.7120 Cl  0  0  0  0  0  0  0  0  0  0  0  0
    5.5850    0.3130   26.3960 C   0  0  0  0  0  0  0  0  0  0  0  0
    5.3740   -1.0320   26.1680 C   0  0  0  0  0  0  0  0  0  0  0  0
    5.8900   -1.6490   25.0330 C   0  0  0  0  0  0  0  0  0  0  0  0
    5.5650   -3.0940   24.8110 C   0  0  0  0  0  0  0  0  0  0  0  0
    4.7200   -3.6800   25.4820 O   0  0  0  0  0  0  0  0  0  0  0  0
    4.8010   -1.6420   26.8550 H   0  0  0  0  0  0  0  0  0  0  0  0
    5.1770    0.8090   27.2700 H   0  0  0  0  0  0  0  0  0  0  0  0
    7.4390    1.0380   23.6490 H   0  0  0  0  0  0  0  0  0  0  0  0
    8.2740   -3.2290   23.8480 H   0  0  0  0  0  0  0  0  0  0  0  0
    7.6220   -3.6540   22.2680 H   0  0  0  0  0  0  0  0  0  0  0  0
    6.6330   -5.5010   22.8530 H   0  0  0  0  0  0  0  0  0  0  0  0
    5.6240   -5.6110   24.3110 H   0  0  0  0  0  0  0  0  0  0  0  0
    3.8000   -4.3200   23.0420 H   0  0  0  0  0  0  0  0  0  0  0  0
    4.7870   -4.4400   21.5940 H   0  0  0  0  0  0  0  0  0  0  0  0
    2.9710   -6.1610   21.8660 H   0  0  0  0  0  0  0  0  0  0  0  0
    3.8680   -6.7760   23.1780 H   0  0  0  0  0  0  0  0  0  0  0  0
    4.9540   -6.5070   20.4220 H   0  0  0  0  0  0  0  0  0  0  0  0
    4.2270   -7.9950   21.0720 H   0  0  0  0  0  0  0  0  0  0  0  0
    5.6750   -7.2950   21.8200 H   0  0  0  0  0  0  0  0  0  0  0  0
  1  2  1  0  0  0  0
  1 68  1  0  0  0  0
  1 69  1  0  0  0  0
  1 70  1  0  0  0  0
  2  3  1  0  0  0  0
  2 66  1  0  0  0  0
  2 67  1  0  0  0  0
  3  4  1  0  0  0  0
  3 64  1  0  0  0  0
  3 65  1  0  0  0  0
  4  5  1  0  0  0  0
  4 62  1  0  0  0  0
  4 63  1  0  0  0  0
  5  6  1  0  0  0  0
  5 55  1  0  0  0  0
  6  7  1  0  0  0  0
  6 60  1  0  0  0  0
  6 61  1  0  0  0  0
  7  8  1  6  0  0  0
  7 28  1  0  0  0  0
  7 48  1  0  0  0  0
  8  9  2  0  0  0  0
  8 10  1  0  0  0  0
 10 11  1  0  0  0  0
 10 27  1  0  0  0  0
 11 12  2  0  0  0  0
 11 20  1  0  0  0  0
 12 13  1  0  0  0  0
 12 26  1  0  0  0  0
 13 14  2  0  0  0  0
 14 15  1  0  0  0  0
 14 25  1  0  0  0  0
 15 16  2  0  0  0  0
 15 20  1  0  0  0  0
 16 17  1  0  0  0  0
 16 24  1  0  0  0  0
 17 18  2  0  0  0  0
 17 23  1  0  0  0  0
 18 19  1  0  0  0  0
 18 22  1  0  0  0  0
 19 20  2  0  0  0  0
 19 21  1  0  0  0  0
 27 28  1  0  0  0  0
 27 46  1  0  0  0  0
 27 47  1  0  0  0  0
 28 29  1  0  0  0  0
 28 45  1  1  0  0  0
 29 30  1  0  0  0  0
 29 43  1  0  0  0  0
 29 44  1  0  0  0  0
 30 31  1  0  0  0  0
 31 32  1  0  0  0  0
 31 41  1  0  0  0  0
 31 42  1  0  0  0  0
 32 33  1  0  0  0  0
 32 35  1  0  0  0  0
 32 40  1  0  0  0  0
 33 34  1  0  0  0  0
 33 38  1  0  0  0  0
 33 39  1  0  0  0  0
 34 35  1  0  0  0  0
 35 36  1  0  0  0  0
 35 37  1  0  0  0  0
 48 49  2  0  0  0  0
 48 54  1  0  0  0  0
 49 50  1  0  0  0  0
 49 59  1  0  0  0  0
 50 51  1  0  0  0  0
 50 52  2  0  0  0  0
 52 53  1  0  0  0  0
 52 58  1  0  0  0  0
 53 54  2  0  0  0  0
 53 57  1  0  0  0  0
 54 55  1  0  0  0  0
 55 56  2  0  0  0  0
M  CHG  1   2   1
M  END
>  <MODEL>
       1

$$$$
