output/tmp_first_model_11_7.pdb
 OpenBabel07222623443D

 37 39  0  0  0  0  0  0  0  0999 V2000
    7.8900    1.7470   21.1460 O   0  0  0  0  0  0  0  0  0  0  0  0
    8.0210    0.5580   21.4010 C   0  0  0  0  0  0  0  0  0  0  0  0
    6.9710   -0.4590   20.9040 C   0  0  0  0  0  0  0  0  0  0  0  0
    6.1180    0.0800   19.7760 C   0  0  0  0  0  0  0  0  0  0  0  0
    6.4300   -0.2100   18.4740 C   0  0  0  0  0  0  0  0  0  0  0  0
    5.7630    0.2420   17.3790 N   0  0  0  0  0  0  0  0  0  0  0  0
    4.7370    1.0270   17.5880 C   0  0  0  0  0  0  0  0  0  0  0  0
    4.2860    1.4140   18.8790 C   0  0  0  0  0  0  0  0  0  0  0  0
    3.1650    2.2640   19.0500 C   0  0  0  0  0  0  0  0  0  0  0  0
    2.7630    2.6390   20.3040 C   0  0  0  0  0  0  0  0  0  0  0  0
    3.4700    2.1730   21.4350 C   0  0  0  0  0  0  0  0  0  0  0  0
    4.5570    1.3490   21.2940 C   0  0  0  0  0  0  0  0  0  0  0  0
    4.9980    0.9400   20.0060 C   0  0  0  0  0  0  0  0  0  0  0  0
    5.1060    1.0140   22.1680 H   0  0  0  0  0  0  0  0  0  0  0  0
    3.1470    2.4800   22.4260 H   0  0  0  0  0  0  0  0  0  0  0  0
    1.9190    3.3090   20.4260 H   0  0  0  0  0  0  0  0  0  0  0  0
    2.6590    2.6280   18.1600 H   0  0  0  0  0  0  0  0  0  0  0  0
    4.2070    1.3900   16.7070 H   0  0  0  0  0  0  0  0  0  0  0  0
    7.2740   -0.8590   18.2380 H   0  0  0  0  0  0  0  0  0  0  0  0
    7.4870   -1.3640   20.5560 H   0  0  0  0  0  0  0  0  0  0  0  0
    6.3460   -0.7670   21.7530 H   0  0  0  0  0  0  0  0  0  0  0  0
    9.1150    0.0980   22.1030 N   0  0  0  0  0  0  0  0  0  0  0  0
   10.3620    0.8250   21.9220 C   0  0  0  0  0  0  0  0  0  0  0  0
   11.2400    0.8710   23.1570 C   0  0  0  0  0  0  0  0  0  0  0  0
   11.5080   -0.5620   23.6180 C   0  0  0  0  0  0  0  0  0  0  0  0
   10.1690   -1.2790   23.8220 C   0  0  0  0  0  0  0  0  0  0  0  0
    9.3040   -1.2720   22.5530 C   0  0  0  0  0  0  0  0  0  0  0  0
    8.3180   -1.7030   22.7570 H   0  0  0  0  0  0  0  0  0  0  0  0
    9.7960   -1.8980   21.7800 H   0  0  0  0  0  0  0  0  0  0  0  0
    9.6140   -0.7570   24.6130 H   0  0  0  0  0  0  0  0  0  0  0  0
   10.3220   -2.3180   24.1390 H   0  0  0  0  0  0  0  0  0  0  0  0
   12.1090   -1.1010   22.8640 H   0  0  0  0  0  0  0  0  0  0  0  0
   12.1040   -0.5650   24.5390 H   0  0  0  0  0  0  0  0  0  0  0  0
   10.7860    1.4690   23.9630 H   0  0  0  0  0  0  0  0  0  0  0  0
   12.1790    1.3590   22.8670 H   0  0  0  0  0  0  0  0  0  0  0  0
   10.0820    1.8160   21.5710 H   0  0  0  0  0  0  0  0  0  0  0  0
   10.9450    0.2780   21.1730 H   0  0  0  0  0  0  0  0  0  0  0  0
  1  2  2  0  0  0  0
  2  3  1  0  0  0  0
  2 22  1  0  0  0  0
  3  4  1  0  0  0  0
  3 20  1  0  0  0  0
  3 21  1  0  0  0  0
  4  5  2  0  0  0  0
  4 13  1  0  0  0  0
  5  6  1  0  0  0  0
  5 19  1  0  0  0  0
  6  7  2  0  0  0  0
  7  8  1  0  0  0  0
  7 18  1  0  0  0  0
  8  9  2  0  0  0  0
  8 13  1  0  0  0  0
  9 10  1  0  0  0  0
  9 17  1  0  0  0  0
 10 11  2  0  0  0  0
 10 16  1  0  0  0  0
 11 12  1  0  0  0  0
 11 15  1  0  0  0  0
 12 13  2  0  0  0  0
 12 14  1  0  0  0  0
 22 23  1  0  0  0  0
 22 27  1  0  0  0  0
 23 24  1  0  0  0  0
 23 36  1  0  0  0  0
 23 37  1  0  0  0  0
 24 25  1  0  0  0  0
 24 34  1  0  0  0  0
 24 35  1  0  0  0  0
 25 26  1  0  0  0  0
 25 32  1  0  0  0  0
 25 33  1  0  0  0  0
 26 27  1  0  0  0  0
 26 30  1  0  0  0  0
 26 31  1  0  0  0  0
 27 28  1  0  0  0  0
 27 29  1  0  0  0  0
M  END
>  <MODEL>
       1

$$$$
