output/tmp_first_model_7_38.pdb
 OpenBabel07222621533D

 72 77  0  0  1  0  0  0  0  0999 V2000
    8.3430   -8.0230   22.7140 C   0  0  0  0  0  0  0  0  0  0  0  0
    7.1550   -7.1780   22.5490 N   0  3  0  0  0  0  0  0  0  0  0  0
    7.1110   -6.4330   21.2620 C   0  0  0  0  0  0  0  0  0  0  0  0
    6.2900   -5.1660   21.4690 C   0  0  0  0  0  0  0  0  0  0  0  0
    6.8260   -4.3740   22.5690 N   0  0  0  0  0  0  0  0  0  0  0  0
    7.8460   -3.3920   22.3020 C   0  0  0  0  0  0  0  0  0  0  0  0
    7.3570   -1.9720   22.6700 C   0  0  2  0  0  0  0  0  0  0  0  0
    6.2160   -1.6110   21.6830 C   0  0  0  0  0  0  0  0  0  0  0  0
    5.1230   -2.1410   21.6270 O   0  0  0  0  0  0  0  0  0  0  0  0
    6.6560   -0.6220   20.8270 N   0  0  0  0  0  0  0  0  0  0  0  0
    5.8800   -0.0740   19.7830 C   0  0  0  0  0  0  0  0  0  0  0  0
    6.3760   -0.0530   18.5000 C   0  0  0  0  0  0  0  0  0  0  0  0
    5.7220    0.4470   17.4250 N   0  0  0  0  0  0  0  0  0  0  0  0
    4.5470    0.9830   17.6310 C   0  0  0  0  0  0  0  0  0  0  0  0
    3.9270    1.0630   18.9080 C   0  0  0  0  0  0  0  0  0  0  0  0
    2.6680    1.7020   19.0700 C   0  0  0  0  0  0  0  0  0  0  0  0
    2.1090    1.8240   20.3130 C   0  0  0  0  0  0  0  0  0  0  0  0
    2.7840    1.3110   21.4410 C   0  0  0  0  0  0  0  0  0  0  0  0
    3.9950    0.6820   21.3110 C   0  0  0  0  0  0  0  0  0  0  0  0
    4.6020    0.5330   20.0290 C   0  0  0  0  0  0  0  0  0  0  0  0
    4.5010    0.3080   22.1910 H   0  0  0  0  0  0  0  0  0  0  0  0
    2.3440    1.4320   22.4260 H   0  0  0  0  0  0  0  0  0  0  0  0
    1.1580    2.3370   20.4400 H   0  0  0  0  0  0  0  0  0  0  0  0
    2.1790    2.1110   18.1890 H   0  0  0  0  0  0  0  0  0  0  0  0
    4.0280    1.4000   16.7650 H   0  0  0  0  0  0  0  0  0  0  0  0
    7.3570   -0.4730   18.2860 H   0  0  0  0  0  0  0  0  0  0  0  0
    8.0920   -0.3950   20.9320 C   0  0  0  0  0  0  0  0  0  0  0  0
    8.4470   -0.9140   22.3410 C   0  0  2  0  0  0  0  0  0  0  0  0
    9.8890   -1.4230   22.4220 C   0  0  0  0  0  0  0  0  0  0  0  0
   10.8000   -0.3650   22.3900 O   0  0  0  0  0  0  0  0  0  0  0  0
   11.3060   -0.0900   23.6920 C   0  0  0  0  0  0  0  0  0  0  0  0
   11.8650    1.2720   23.8430 C   0  0  0  0  0  0  0  0  0  0  0  0
   12.2150    1.3100   23.6910 C   0  0  0  0  0  0  0  0  0  0  0  0
   10.7660    3.8460   24.0190 S   0  0  0  0  0  0  0  0  0  0  0  0
    9.6510    3.6440   24.9420 O   0  0  0  0  0  0  0  0  0  0  0  0
   12.0040    4.5130   24.4180 O   0  0  0  0  0  0  0  0  0  0  0  0
   11.0530    2.3260   23.1000 C   0  0  0  0  0  0  0  0  0  0  0  0
   11.4420    2.6300   22.1240 H   0  0  0  0  0  0  0  0  0  0  0  0
   10.0190    1.9410   22.9400 H   0  0  0  0  0  0  0  0  0  0  0  0
   13.2770    1.9780   23.6420 H   0  0  0  0  0  0  0  0  0  0  0  0
   12.0700    1.4010   25.0460 H   0  0  0  0  0  0  0  0  0  0  0  0
   12.9890    1.0530   22.8530 H   0  0  0  0  0  0  0  0  0  0  0  0
   11.9490   -0.9390   24.0160 H   0  0  0  0  0  0  0  0  0  0  0  0
   10.4260   -0.1340   24.3750 H   0  0  0  0  0  0  0  0  0  0  0  0
   10.0530   -2.0110   23.3370 H   0  0  0  0  0  0  0  0  0  0  0  0
   10.1070   -2.0780   21.5660 H   0  0  0  0  0  0  0  0  0  0  0  0
    8.3370   -0.0730   23.0310 H   0  0  0  0  0  0  0  0  0  0  0  0
    8.2980    0.6680   20.7900 H   0  0  0  0  0  0  0  0  0  0  0  0
    8.6500   -0.9520   20.1670 H   0  0  0  0  0  0  0  0  0  0  0  0
    6.8660   -2.0320   24.1120 C   0  0  0  0  0  0  0  0  0  0  0  0
    6.8400   -0.8940   24.9300 C   0  0  0  0  0  0  0  0  0  0  0  0
    6.4080   -0.9900   26.2410 C   0  0  0  0  0  0  0  0  0  0  0  0
    6.4170    0.4390   27.2380 Cl  0  0  0  0  0  0  0  0  0  0  0  0
    5.9720   -2.1930   26.7890 C   0  0  0  0  0  0  0  0  0  0  0  0
    5.9530   -3.3130   25.9800 C   0  0  0  0  0  0  0  0  0  0  0  0
    6.3790   -3.2380   24.6540 C   0  0  0  0  0  0  0  0  0  0  0  0
    6.2930   -4.4710   23.8130 C   0  0  0  0  0  0  0  0  0  0  0  0
    5.7860   -5.5250   24.2080 O   0  0  0  0  0  0  0  0  0  0  0  0
    5.6120   -4.2680   26.3590 H   0  0  0  0  0  0  0  0  0  0  0  0
    5.6560   -2.2360   27.8250 H   0  0  0  0  0  0  0  0  0  0  0  0
    7.1400    0.0780   24.5540 H   0  0  0  0  0  0  0  0  0  0  0  0
    8.7520   -3.6280   22.8780 H   0  0  0  0  0  0  0  0  0  0  0  0
    8.1020   -3.4150   21.2450 H   0  0  0  0  0  0  0  0  0  0  0  0
    5.2580   -5.4200   21.7300 H   0  0  0  0  0  0  0  0  0  0  0  0
    6.2700   -4.5400   20.5700 H   0  0  0  0  0  0  0  0  0  0  0  0
    6.6800   -7.0530   20.4700 H   0  0  0  0  0  0  0  0  0  0  0  0
    8.1350   -6.1780   20.9630 H   0  0  0  0  0  0  0  0  0  0  0  0
    7.0690   -6.5040   23.3210 H   0  0  0  0  0  0  0  0  0  0  0  0
    6.3000   -7.7590   22.6120 H   0  0  0  0  0  0  0  0  0  0  0  0
    8.2540   -8.9240   22.1030 H   0  0  0  0  0  0  0  0  0  0  0  0
    9.2350   -7.4880   22.3770 H   0  0  0  0  0  0  0  0  0  0  0  0
    8.4880   -8.3090   23.7560 H   0  0  0  0  0  0  0  0  0  0  0  0
  1  2  1  0  0  0  0
  1 70  1  0  0  0  0
  1 71  1  0  0  0  0
  1 72  1  0  0  0  0
  2  3  1  0  0  0  0
  2 68  1  0  0  0  0
  2 69  1  0  0  0  0
  3  4  1  0  0  0  0
  3 66  1  0  0  0  0
  3 67  1  0  0  0  0
  4  5  1  0  0  0  0
  4 64  1  0  0  0  0
  4 65  1  0  0  0  0
  5  6  1  0  0  0  0
  5 57  1  0  0  0  0
  6  7  1  0  0  0  0
  6 62  1  0  0  0  0
  6 63  1  0  0  0  0
  7  8  1  6  0  0  0
  7 28  1  0  0  0  0
  7 50  1  0  0  0  0
  8  9  2  0  0  0  0
  8 10  1  0  0  0  0
 10 11  1  0  0  0  0
 10 27  1  0  0  0  0
 11 12  2  0  0  0  0
 11 20  1  0  0  0  0
 12 13  1  0  0  0  0
 12 26  1  0  0  0  0
 13 14  2  0  0  0  0
 14 15  1  0  0  0  0
 14 25  1  0  0  0  0
 15 16  2  0  0  0  0
 15 20  1  0  0  0  0
 16 17  1  0  0  0  0
 16 24  1  0  0  0  0
 17 18  2  0  0  0  0
 17 23  1  0  0  0  0
 18 19  1  0  0  0  0
 18 22  1  0  0  0  0
 19 20  2  0  0  0  0
 19 21  1  0  0  0  0
 27 28  1  0  0  0  0
 27 48  1  0  0  0  0
 27 49  1  0  0  0  0
 28 29  1  0  0  0  0
 28 47  1  1  0  0  0
 29 30  1  0  0  0  0
 29 45  1  0  0  0  0
 29 46  1  0  0  0  0
 30 31  1  0  0  0  0
 31 32  1  0  0  0  0
 31 43  1  0  0  0  0
 31 44  1  0  0  0  0
 32 33  1  0  0  0  0
 32 37  1  0  0  0  0
 32 42  1  0  0  0  0
 33 34  1  0  0  0  0
 33 40  1  0  0  0  0
 33 41  1  0  0  0  0
 34 35  2  0  0  0  0
 34 36  2  0  0  0  0
 34 37  1  0  0  0  0
 37 38  1  0  0  0  0
 37 39  1  0  0  0  0
 50 51  2  0  0  0  0
 50 56  1  0  0  0  0
 51 52  1  0  0  0  0
 51 61  1  0  0  0  0
 52 53  1  0  0  0  0
 52 54  2  0  0  0  0
 54 55  1  0  0  0  0
 54 60  1  0  0  0  0
 55 56  2  0  0  0  0
 55 59  1  0  0  0  0
 56 57  1  0  0  0  0
 57 58  2  0  0  0  0
M  CHG  1   2   1
M  END
>  <MODEL>
       1

$$$$
