output/tmp_first_model_1_17.pdb
 OpenBabel07222618483D

 58 63  0  0  1  0  0  0  0  0999 V2000
    7.2420   -3.0610   23.5710 C   0  0  0  0  0  0  0  0  0  0  0  0
    7.2460   -2.3360   22.2370 C   0  0  1  0  0  0  0  0  0  0  0  0
    5.9840   -1.5200   21.9530 C   0  0  0  0  0  0  0  0  0  0  0  0
    6.4180   -0.5690   20.9310 N   0  0  0  0  0  0  0  0  0  0  0  0
    5.6600   -0.1550   19.8210 C   0  0  0  0  0  0  0  0  0  0  0  0
    6.1870   -0.1880   18.5470 C   0  0  0  0  0  0  0  0  0  0  0  0
    5.4970    0.1350   17.4290 N   0  0  0  0  0  0  0  0  0  0  0  0
    4.2720    0.5760   17.5860 C   0  0  0  0  0  0  0  0  0  0  0  0
    3.6320    0.7230   18.8460 C   0  0  0  0  0  0  0  0  0  0  0  0
    2.3660    1.3480   18.9790 C   0  0  0  0  0  0  0  0  0  0  0  0
    1.7710    1.4730   20.2040 C   0  0  0  0  0  0  0  0  0  0  0  0
    2.4550    1.0480   21.3640 C   0  0  0  0  0  0  0  0  0  0  0  0
    3.7060    0.4940   21.2710 C   0  0  0  0  0  0  0  0  0  0  0  0
    4.3230    0.3140   20.0030 C   0  0  0  0  0  0  0  0  0  0  0  0
    4.2470    0.2460   22.1750 H   0  0  0  0  0  0  0  0  0  0  0  0
    1.9970    1.1790   22.3390 H   0  0  0  0  0  0  0  0  0  0  0  0
    0.7870    1.9210   20.2970 H   0  0  0  0  0  0  0  0  0  0  0  0
    1.9240    1.7890   18.0950 H   0  0  0  0  0  0  0  0  0  0  0  0
    3.7280    0.8540   16.6850 H   0  0  0  0  0  0  0  0  0  0  0  0
    7.2180   -0.4940   18.3830 H   0  0  0  0  0  0  0  0  0  0  0  0
    7.7760   -0.3340   21.0070 C   0  0  0  0  0  0  0  0  0  0  0  0
    8.3920    0.5080   20.3870 O   0  0  0  0  0  0  0  0  0  0  0  0
    8.4020   -1.3100   21.9910 C   0  0  1  0  0  0  0  0  0  0  0  0
    8.8920   -0.5180   23.2230 C   0  0  0  0  0  0  0  0  0  0  0  0
    9.7920   -1.2500   24.1160 N   0  0  0  0  0  0  0  0  0  0  0  0
    9.6950   -0.9770   25.5350 C   0  0  0  0  0  0  0  0  0  0  0  0
    8.9050   -2.0410   26.2400 C   0  0  0  0  0  0  0  0  0  0  0  0
    9.2820   -3.2900   26.3450 N   0  0  0  0  0  0  0  0  0  0  0  0
    8.3450   -3.9530   27.1030 N   0  0  0  0  0  0  0  0  0  0  0  0
    7.4270   -3.0800   27.4120 C   0  0  0  0  0  0  0  0  0  0  0  0
    7.7230   -1.8500   26.8960 N   0  0  0  0  0  0  0  0  0  0  0  0
    6.9130   -0.6480   26.9460 C   0  0  0  0  0  0  0  0  0  0  0  0
    5.9440   -0.9030   27.3770 H   0  0  0  0  0  0  0  0  0  0  0  0
    7.3860    0.1270   27.5580 H   0  0  0  0  0  0  0  0  0  0  0  0
    6.7490   -0.2570   25.9340 H   0  0  0  0  0  0  0  0  0  0  0  0
    6.5440   -3.2770   28.0060 H   0  0  0  0  0  0  0  0  0  0  0  0
    9.2590    0.0140   25.6950 H   0  0  0  0  0  0  0  0  0  0  0  0
   10.7100   -0.9660   25.9320 H   0  0  0  0  0  0  0  0  0  0  0  0
   10.8610   -2.0230   23.6830 C   0  0  0  0  0  0  0  0  0  0  0  0
   11.8700   -2.1790   24.3440 O   0  0  0  0  0  0  0  0  0  0  0  0
   10.7170   -2.6480   22.3580 C   0  0  0  0  0  0  0  0  0  0  0  0
   11.9800   -3.2510   21.8530 C   0  0  0  0  0  0  0  0  0  0  0  0
   12.3720   -3.1860   20.5530 C   0  0  0  0  0  0  0  0  0  0  0  0
   12.3720   -3.2970   20.4710 C   0  0  0  0  0  0  0  0  0  0  0  0
   12.1390   -4.1270   19.3850 F   0  0  0  0  0  0  0  0  0  0  0  0
    9.8320   -3.1970   21.5010 C   0  0  0  0  0  0  0  0  0  0  0  0
    9.6260   -1.8880   21.3210 C   0  0  0  0  0  0  0  0  0  0  0  0
   10.1780   -1.2760   20.5940 H   0  0  0  0  0  0  0  0  0  0  0  0
   13.5760   -2.9240   20.1060 H   0  0  0  0  0  0  0  0  0  0  0  0
   12.9050   -3.1710   22.1520 H   0  0  0  0  0  0  0  0  0  0  0  0
    8.0280   -0.1910   23.8070 H   0  0  0  0  0  0  0  0  0  0  0  0
    9.3930    0.3720   22.8250 H   0  0  0  0  0  0  0  0  0  0  0  0
    5.6780   -0.9980   22.8730 H   0  0  0  0  0  0  0  0  0  0  0  0
    5.1420   -2.1180   21.5950 H   0  0  0  0  0  0  0  0  0  0  0  0
    7.3320   -3.0780   21.4340 H   0  0  0  0  0  0  0  0  0  0  0  0
    8.2220   -3.5100   23.7610 H   0  0  0  0  0  0  0  0  0  0  0  0
    7.0210   -2.3830   24.4010 H   0  0  0  0  0  0  0  0  0  0  0  0
    6.4860   -3.8530   23.5830 H   0  0  0  0  0  0  0  0  0  0  0  0
  1  2  1  0  0  0  0
  1 56  1  0  0  0  0
  1 57  1  0  0  0  0
  1 58  1  0  0  0  0
  2  3  1  0  0  0  0
  2 23  1  0  0  0  0
  2 55  1  6  0  0  0
  3  4  1  0  0  0  0
  3 53  1  0  0  0  0
  3 54  1  0  0  0  0
  4  5  1  0  0  0  0
  4 21  1  0  0  0  0
  5  6  2  0  0  0  0
  5 14  1  0  0  0  0
  6  7  1  0  0  0  0
  6 20  1  0  0  0  0
  7  8  2  0  0  0  0
  8  9  1  0  0  0  0
  8 19  1  0  0  0  0
  9 10  2  0  0  0  0
  9 14  1  0  0  0  0
 10 11  1  0  0  0  0
 10 18  1  0  0  0  0
 11 12  2  0  0  0  0
 11 17  1  0  0  0  0
 12 13  1  0  0  0  0
 12 16  1  0  0  0  0
 13 14  2  0  0  0  0
 13 15  1  0  0  0  0
 21 22  2  0  0  0  0
 23 21  1  6  0  0  0
 23 24  1  0  0  0  0
 23 47  1  0  0  0  0
 24 25  1  0  0  0  0
 24 51  1  0  0  0  0
 24 52  1  0  0  0  0
 25 26  1  0  0  0  0
 25 39  1  0  0  0  0
 26 27  1  0  0  0  0
 26 37  1  0  0  0  0
 26 38  1  0  0  0  0
 27 28  2  0  0  0  0
 27 31  1  0  0  0  0
 28 29  1  0  0  0  0
 29 30  2  0  0  0  0
 30 31  1  0  0  0  0
 30 36  1  0  0  0  0
 31 32  1  0  0  0  0
 32 33  1  0  0  0  0
 32 34  1  0  0  0  0
 32 35  1  0  0  0  0
 39 40  2  0  0  0  0
 39 41  1  0  0  0  0
 41 42  2  0  0  0  0
 41 47  1  0  0  0  0
 42 43  1  0  0  0  0
 42 50  1  0  0  0  0
 43 44  2  0  0  0  0
 43 49  1  0  0  0  0
 44 45  1  0  0  0  0
 44 46  1  0  0  0  0
 46 47  2  0  0  0  0
 46 48  1  0  0  0  0
M  END
>  <MODEL>
       1

$$$$
