output/tmp_first_model_14_40.pdb
 OpenBabel07232601073D

 57 61  0  0  1  0  0  0  0  0999 V2000
    7.3350   -4.5170   27.2810 C   0  0  0  0  0  0  0  0  0  0  0  0
    7.1530   -3.0810   27.1520 N   0  0  0  0  0  0  0  0  0  0  0  0
    6.3260   -2.6150   26.1780 C   0  0  0  0  0  0  0  0  0  0  0  0
    5.5670   -3.3410   25.5440 O   0  0  0  0  0  0  0  0  0  0  0  0
    6.4050   -1.1050   25.8940 C   0  0  0  0  0  0  0  0  0  0  0  0
    7.4340   -0.8130   24.8910 N   0  0  0  0  0  0  0  0  0  0  0  0
    7.0950   -0.2310   23.6000 C   0  0  0  0  0  0  0  0  0  0  0  0
    8.0640   -0.6470   22.4470 C   0  0  2  0  0  0  0  0  0  0  0  0
    7.6830    0.2190   21.2300 C   0  0  0  0  0  0  0  0  0  0  0  0
    8.0310    1.3480   20.9640 O   0  0  0  0  0  0  0  0  0  0  0  0
    6.7810   -0.5080   20.4760 N   0  0  0  0  0  0  0  0  0  0  0  0
    6.0050    0.0670   19.4510 C   0  0  0  0  0  0  0  0  0  0  0  0
    6.2600   -0.2770   18.1500 C   0  0  0  0  0  0  0  0  0  0  0  0
    5.5870    0.2160   17.0840 N   0  0  0  0  0  0  0  0  0  0  0  0
    4.6190    1.0640   17.3320 C   0  0  0  0  0  0  0  0  0  0  0  0
    4.2230    1.4650   18.6390 C   0  0  0  0  0  0  0  0  0  0  0  0
    3.1400    2.3590   18.8360 C   0  0  0  0  0  0  0  0  0  0  0  0
    2.7260    2.6770   20.0990 C   0  0  0  0  0  0  0  0  0  0  0  0
    3.3830    2.1250   21.2240 C   0  0  0  0  0  0  0  0  0  0  0  0
    4.4560    1.2830   21.0620 C   0  0  0  0  0  0  0  0  0  0  0  0
    4.9110    0.9380   19.7520 C   0  0  0  0  0  0  0  0  0  0  0  0
    4.9490    0.8820   21.9460 H   0  0  0  0  0  0  0  0  0  0  0  0
    3.0250    2.3690   22.2210 H   0  0  0  0  0  0  0  0  0  0  0  0
    1.8860    3.3510   20.2430 H   0  0  0  0  0  0  0  0  0  0  0  0
    2.6560    2.7730   17.9550 H   0  0  0  0  0  0  0  0  0  0  0  0
    4.0800    1.4690   16.4770 H   0  0  0  0  0  0  0  0  0  0  0  0
    7.0660   -0.9800   17.9370 H   0  0  0  0  0  0  0  0  0  0  0  0
    6.5270   -1.8330   20.9930 C   0  0  0  0  0  0  0  0  0  0  0  0
    7.7710   -2.0700   21.8460 C   0  0  2  0  0  0  0  0  0  0  0  0
    7.5460   -3.2470   22.7990 C   0  0  0  0  0  0  0  0  0  0  0  0
    8.7430   -3.7050   23.4990 C   0  0  0  0  0  0  0  0  0  0  0  0
    9.6830   -4.1220   24.0300 N   0  0  0  0  0  0  0  0  0  0  0  0
    7.1550   -4.0970   22.2250 H   0  0  0  0  0  0  0  0  0  0  0  0
    6.7860   -2.9730   23.5330 H   0  0  0  0  0  0  0  0  0  0  0  0
    8.6010   -2.2930   21.1630 H   0  0  0  0  0  0  0  0  0  0  0  0
    5.6180   -1.8670   21.6210 H   0  0  0  0  0  0  0  0  0  0  0  0
    6.3750   -2.5460   20.1780 H   0  0  0  0  0  0  0  0  0  0  0  0
    9.4680   -0.3890   22.9550 C   0  0  0  0  0  0  0  0  0  0  0  0
   10.5450   -0.1880   22.0820 C   0  0  0  0  0  0  0  0  0  0  0  0
   11.7960    0.1220   22.5930 C   0  0  0  0  0  0  0  0  0  0  0  0
   13.1710    0.3210   21.5550 Cl  0  0  0  0  0  0  0  0  0  0  0  0
   12.0130    0.3010   23.9570 C   0  0  0  0  0  0  0  0  0  0  0  0
   10.9700    0.0520   24.8200 C   0  0  0  0  0  0  0  0  0  0  0  0
    9.7310   -0.3350   24.3300 C   0  0  0  0  0  0  0  0  0  0  0  0
    8.7110   -0.7370   25.3380 C   0  0  0  0  0  0  0  0  0  0  0  0
    8.9900   -0.9700   26.5180 O   0  0  0  0  0  0  0  0  0  0  0  0
   11.0820    0.0880   25.8920 H   0  0  0  0  0  0  0  0  0  0  0  0
   13.0020    0.5740   24.3070 H   0  0  0  0  0  0  0  0  0  0  0  0
   10.3910   -0.2680   21.0130 H   0  0  0  0  0  0  0  0  0  0  0  0
    7.1500    0.8660   23.6650 H   0  0  0  0  0  0  0  0  0  0  0  0
    6.0640   -0.5180   23.3770 H   0  0  0  0  0  0  0  0  0  0  0  0
    6.6420   -0.5510   26.8100 H   0  0  0  0  0  0  0  0  0  0  0  0
    5.4300   -0.7810   25.5160 H   0  0  0  0  0  0  0  0  0  0  0  0
    7.9200   -2.4760   27.4240 H   0  0  0  0  0  0  0  0  0  0  0  0
    7.4040   -4.9690   26.2860 H   0  0  0  0  0  0  0  0  0  0  0  0
    8.2530   -4.7130   27.8370 H   0  0  0  0  0  0  0  0  0  0  0  0
    6.5010   -4.9900   27.8080 H   0  0  0  0  0  0  0  0  0  0  0  0
  1  2  1  0  0  0  0
  1 55  1  0  0  0  0
  1 56  1  0  0  0  0
  1 57  1  0  0  0  0
  2  3  1  0  0  0  0
  2 54  1  0  0  0  0
  3  4  2  0  0  0  0
  3  5  1  0  0  0  0
  5  6  1  0  0  0  0
  5 52  1  0  0  0  0
  5 53  1  0  0  0  0
  6  7  1  0  0  0  0
  6 45  1  0  0  0  0
  7  8  1  0  0  0  0
  7 50  1  0  0  0  0
  7 51  1  0  0  0  0
  8  9  1  6  0  0  0
  8 29  1  0  0  0  0
  8 38  1  0  0  0  0
  9 10  2  0  0  0  0
  9 11  1  0  0  0  0
 11 12  1  0  0  0  0
 11 28  1  0  0  0  0
 12 13  2  0  0  0  0
 12 21  1  0  0  0  0
 13 14  1  0  0  0  0
 13 27  1  0  0  0  0
 14 15  2  0  0  0  0
 15 16  1  0  0  0  0
 15 26  1  0  0  0  0
 16 17  2  0  0  0  0
 16 21  1  0  0  0  0
 17 18  1  0  0  0  0
 17 25  1  0  0  0  0
 18 19  2  0  0  0  0
 18 24  1  0  0  0  0
 19 20  1  0  0  0  0
 19 23  1  0  0  0  0
 20 21  2  0  0  0  0
 20 22  1  0  0  0  0
 28 29  1  0  0  0  0
 28 36  1  0  0  0  0
 28 37  1  0  0  0  0
 29 30  1  0  0  0  0
 29 35  1  6  0  0  0
 30 31  1  0  0  0  0
 30 33  1  0  0  0  0
 30 34  1  0  0  0  0
 31 32  3  0  0  0  0
 38 39  2  0  0  0  0
 38 44  1  0  0  0  0
 39 40  1  0  0  0  0
 39 49  1  0  0  0  0
 40 41  1  0  0  0  0
 40 42  2  0  0  0  0
 42 43  1  0  0  0  0
 42 48  1  0  0  0  0
 43 44  2  0  0  0  0
 43 47  1  0  0  0  0
 44 45  1  0  0  0  0
 45 46  2  0  0  0  0
M  END
>  <MODEL>
       1

$$$$
