output/tmp_first_model_14_82.pdb
 OpenBabel07232601073D

 55 60  0  0  1  0  0  0  0  0999 V2000
    6.6730   -2.8210   23.6680 C   0  0  0  0  0  0  0  0  0  0  0  0
    6.8850   -2.2330   22.2770 C   0  0  1  0  0  0  0  0  0  0  0  0
    5.7430   -1.3210   21.7990 C   0  0  0  0  0  0  0  0  0  0  0  0
    6.3780   -0.3900   20.8750 N   0  0  0  0  0  0  0  0  0  0  0  0
    5.7760    0.2030   19.7390 C   0  0  0  0  0  0  0  0  0  0  0  0
    6.2110   -0.0790   18.4660 C   0  0  0  0  0  0  0  0  0  0  0  0
    5.5990    0.3700   17.3420 N   0  0  0  0  0  0  0  0  0  0  0  0
    4.5550    1.1500   17.4940 C   0  0  0  0  0  0  0  0  0  0  0  0
    4.0360    1.5580   18.7560 C   0  0  0  0  0  0  0  0  0  0  0  0
    2.9190    2.4230   18.8860 C   0  0  0  0  0  0  0  0  0  0  0  0
    2.4990    2.8260   20.1240 C   0  0  0  0  0  0  0  0  0  0  0  0
    3.1780    2.4010   21.2900 C   0  0  0  0  0  0  0  0  0  0  0  0
    4.2570    1.5610   21.1920 C   0  0  0  0  0  0  0  0  0  0  0  0
    4.6830    1.0980   19.9200 C   0  0  0  0  0  0  0  0  0  0  0  0
    4.8110    1.2670   22.0800 H   0  0  0  0  0  0  0  0  0  0  0  0
    2.8540    2.7480   22.2660 H   0  0  0  0  0  0  0  0  0  0  0  0
    1.6500    3.4950   20.2210 H   0  0  0  0  0  0  0  0  0  0  0  0
    2.4270    2.7670   17.9800 H   0  0  0  0  0  0  0  0  0  0  0  0
    4.0710    1.5060   16.5850 H   0  0  0  0  0  0  0  0  0  0  0  0
    7.0870   -0.7050   18.3020 H   0  0  0  0  0  0  0  0  0  0  0  0
    7.7290   -0.2810   21.0760 C   0  0  0  0  0  0  0  0  0  0  0  0
    8.4670    0.5080   20.5200 O   0  0  0  0  0  0  0  0  0  0  0  0
    8.1850   -1.3770   22.0520 C   0  0  1  0  0  0  0  0  0  0  0  0
    8.7430   -0.7100   23.3450 C   0  0  0  0  0  0  0  0  0  0  0  0
    9.5780   -1.5300   24.2450 N   0  0  0  0  0  0  0  0  0  0  0  0
    9.4910   -1.2040   25.6530 C   0  0  0  0  0  0  0  0  0  0  0  0
    8.8120   -2.2710   26.4480 C   0  0  0  0  0  0  0  0  0  0  0  0
    7.8760   -2.1030   27.3220 N   0  0  0  0  0  0  0  0  0  0  0  0
    7.5510   -3.3940   27.7170 C   0  0  0  0  0  0  0  0  0  0  0  0
    8.3280   -4.2750   27.0540 C   0  0  0  0  0  0  0  0  0  0  0  0
    9.1520   -3.5580   26.2270 O   0  0  0  0  0  0  0  0  0  0  0  0
    8.4080   -5.3500   27.0200 H   0  0  0  0  0  0  0  0  0  0  0  0
    6.7730   -3.5810   28.4430 H   0  0  0  0  0  0  0  0  0  0  0  0
   10.5160   -1.0370   25.9910 H   0  0  0  0  0  0  0  0  0  0  0  0
    8.8960   -0.3060   25.7720 H   0  0  0  0  0  0  0  0  0  0  0  0
   10.7650   -2.1900   23.8980 C   0  0  0  0  0  0  0  0  0  0  0  0
   11.7690   -2.1050   24.5890 O   0  0  0  0  0  0  0  0  0  0  0  0
   10.7320   -2.9770   22.6820 C   0  0  0  0  0  0  0  0  0  0  0  0
   11.9780   -2.8330   21.9430 C   0  0  0  0  0  0  0  0  0  0  0  0
   11.9900   -2.7820   20.5930 C   0  0  0  0  0  0  0  0  0  0  0  0
   11.9180   -3.0660   20.4580 C   0  0  0  0  0  0  0  0  0  0  0  0
   11.5290   -3.9400   19.5190 F   0  0  0  0  0  0  0  0  0  0  0  0
    9.5740   -3.1880   22.0430 C   0  0  0  0  0  0  0  0  0  0  0  0
    9.2220   -2.1560   21.3020 C   0  0  0  0  0  0  0  0  0  0  0  0
    9.5000   -1.8200   20.3040 H   0  0  0  0  0  0  0  0  0  0  0  0
   13.1190   -3.1320   20.4800 H   0  0  0  0  0  0  0  0  0  0  0  0
   12.7750   -2.3200   22.4650 H   0  0  0  0  0  0  0  0  0  0  0  0
    7.8780   -0.3850   23.9290 H   0  0  0  0  0  0  0  0  0  0  0  0
    9.2640    0.2150   23.0600 H   0  0  0  0  0  0  0  0  0  0  0  0
    4.9330   -1.8720   21.3050 H   0  0  0  0  0  0  0  0  0  0  0  0
    5.3150   -0.7880   22.6610 H   0  0  0  0  0  0  0  0  0  0  0  0
    6.9990   -3.0820   21.5910 H   0  0  0  0  0  0  0  0  0  0  0  0
    6.5300   -2.0590   24.4420 H   0  0  0  0  0  0  0  0  0  0  0  0
    7.5480   -3.4220   23.9320 H   0  0  0  0  0  0  0  0  0  0  0  0
    5.7900   -3.4710   23.6840 H   0  0  0  0  0  0  0  0  0  0  0  0
  1  2  1  0  0  0  0
  1 53  1  0  0  0  0
  1 54  1  0  0  0  0
  1 55  1  0  0  0  0
  2  3  1  0  0  0  0
  2 23  1  0  0  0  0
  2 52  1  6  0  0  0
  3  4  1  0  0  0  0
  3 50  1  0  0  0  0
  3 51  1  0  0  0  0
  4  5  1  0  0  0  0
  4 21  1  0  0  0  0
  5  6  2  0  0  0  0
  5 14  1  0  0  0  0
  6  7  1  0  0  0  0
  6 20  1  0  0  0  0
  7  8  2  0  0  0  0
  8  9  1  0  0  0  0
  8 19  1  0  0  0  0
  9 10  2  0  0  0  0
  9 14  1  0  0  0  0
 10 11  1  0  0  0  0
 10 18  1  0  0  0  0
 11 12  2  0  0  0  0
 11 17  1  0  0  0  0
 12 13  1  0  0  0  0
 12 16  1  0  0  0  0
 13 14  2  0  0  0  0
 13 15  1  0  0  0  0
 21 22  2  0  0  0  0
 23 21  1  6  0  0  0
 23 24  1  0  0  0  0
 23 44  1  0  0  0  0
 24 25  1  0  0  0  0
 24 48  1  0  0  0  0
 24 49  1  0  0  0  0
 25 26  1  0  0  0  0
 25 36  1  0  0  0  0
 26 27  1  0  0  0  0
 26 34  1  0  0  0  0
 26 35  1  0  0  0  0
 27 28  2  0  0  0  0
 27 31  1  0  0  0  0
 28 29  1  0  0  0  0
 29 30  2  0  0  0  0
 29 33  1  0  0  0  0
 30 31  1  0  0  0  0
 30 32  1  0  0  0  0
 36 37  2  0  0  0  0
 36 38  1  0  0  0  0
 38 39  2  0  0  0  0
 38 44  1  0  0  0  0
 39 40  1  0  0  0  0
 39 47  1  0  0  0  0
 40 41  2  0  0  0  0
 40 46  1  0  0  0  0
 41 42  1  0  0  0  0
 41 43  1  0  0  0  0
 43 44  2  0  0  0  0
 43 45  1  0  0  0  0
M  END
>  <MODEL>
       1

$$$$
