output/tmp_first_model_11_49.pdb
 OpenBabel07222623443D

 42 45  0  0  1  0  0  0  0  0999 V2000
    5.8520    1.6040   24.9760 C   0  0  0  0  0  0  0  0  0  0  0  0
    7.1590    1.1850   24.5010 N   0  0  0  0  0  0  0  0  0  0  0  0
    7.3970   -0.1750   24.0430 C   0  0  0  0  0  0  0  0  0  0  0  0
    8.3330   -0.1820   22.8220 C   0  0  1  0  0  0  0  0  0  0  0  0
    7.6210    0.5010   21.6470 C   0  0  0  0  0  0  0  0  0  0  0  0
    7.6120    1.6990   21.4480 O   0  0  0  0  0  0  0  0  0  0  0  0
    6.8790   -0.3750   20.8770 N   0  0  0  0  0  0  0  0  0  0  0  0
    6.1010    0.0870   19.7970 C   0  0  0  0  0  0  0  0  0  0  0  0
    6.4340   -0.2440   18.5070 C   0  0  0  0  0  0  0  0  0  0  0  0
    5.7800    0.2090   17.4130 N   0  0  0  0  0  0  0  0  0  0  0  0
    4.7540    1.0020   17.6070 C   0  0  0  0  0  0  0  0  0  0  0  0
    4.2830    1.3890   18.8910 C   0  0  0  0  0  0  0  0  0  0  0  0
    3.1610    2.2400   19.0570 C   0  0  0  0  0  0  0  0  0  0  0  0
    2.7270    2.5850   20.3080 C   0  0  0  0  0  0  0  0  0  0  0  0
    3.3900    2.0870   21.4530 C   0  0  0  0  0  0  0  0  0  0  0  0
    4.4780    1.2620   21.3230 C   0  0  0  0  0  0  0  0  0  0  0  0
    4.9620    0.9110   20.0290 C   0  0  0  0  0  0  0  0  0  0  0  0
    4.9890    0.8830   22.2060 H   0  0  0  0  0  0  0  0  0  0  0  0
    3.0400    2.3680   22.4420 H   0  0  0  0  0  0  0  0  0  0  0  0
    1.8750    3.2470   20.4290 H   0  0  0  0  0  0  0  0  0  0  0  0
    2.6670    2.6200   18.1690 H   0  0  0  0  0  0  0  0  0  0  0  0
    4.2390    1.3770   16.7240 H   0  0  0  0  0  0  0  0  0  0  0  0
    7.2980   -0.8820   18.3120 H   0  0  0  0  0  0  0  0  0  0  0  0
    7.1750   -1.3410   20.8490 H   0  0  0  0  0  0  0  0  0  0  0  0
    9.5870    0.5270   23.2210 C   0  0  0  0  0  0  0  0  0  0  0  0
   10.8540   -0.0080   22.9970 C   0  0  0  0  0  0  0  0  0  0  0  0
   11.9630    0.6970   23.4300 C   0  0  0  0  0  0  0  0  0  0  0  0
   13.5310   -0.0690   23.3580 Cl  0  0  0  0  0  0  0  0  0  0  0  0
   11.8510    2.0010   23.9200 C   0  0  0  0  0  0  0  0  0  0  0  0
   10.5860    2.5330   24.1230 C   0  0  0  0  0  0  0  0  0  0  0  0
    9.4610    1.7400   23.8990 C   0  0  0  0  0  0  0  0  0  0  0  0
    8.1420    2.1380   24.5000 C   0  0  0  0  0  0  0  0  0  0  0  0
    7.9690    3.2310   25.0220 O   0  0  0  0  0  0  0  0  0  0  0  0
   10.4440    3.5500   24.4860 H   0  0  0  0  0  0  0  0  0  0  0  0
   12.7480    2.5480   24.2010 H   0  0  0  0  0  0  0  0  0  0  0  0
   10.9700   -0.9860   22.5270 H   0  0  0  0  0  0  0  0  0  0  0  0
    8.5700   -1.2080   22.5220 H   0  0  0  0  0  0  0  0  0  0  0  0
    7.8460   -0.7820   24.8380 H   0  0  0  0  0  0  0  0  0  0  0  0
    6.4380   -0.6340   23.7840 H   0  0  0  0  0  0  0  0  0  0  0  0
    5.8900    1.9060   26.0290 H   0  0  0  0  0  0  0  0  0  0  0  0
    5.1210    0.7960   24.8640 H   0  0  0  0  0  0  0  0  0  0  0  0
    5.5170    2.4770   24.4040 H   0  0  0  0  0  0  0  0  0  0  0  0
  1  2  1  0  0  0  0
  1 40  1  0  0  0  0
  1 41  1  0  0  0  0
  1 42  1  0  0  0  0
  2  3  1  0  0  0  0
  2 32  1  0  0  0  0
  3  4  1  0  0  0  0
  3 38  1  0  0  0  0
  3 39  1  0  0  0  0
  4  5  1  0  0  0  0
  4 25  1  0  0  0  0
  4 37  1  6  0  0  0
  5  6  2  0  0  0  0
  5  7  1  0  0  0  0
  7  8  1  0  0  0  0
  7 24  1  0  0  0  0
  8  9  2  0  0  0  0
  8 17  1  0  0  0  0
  9 10  1  0  0  0  0
  9 23  1  0  0  0  0
 10 11  2  0  0  0  0
 11 12  1  0  0  0  0
 11 22  1  0  0  0  0
 12 13  2  0  0  0  0
 12 17  1  0  0  0  0
 13 14  1  0  0  0  0
 13 21  1  0  0  0  0
 14 15  2  0  0  0  0
 14 20  1  0  0  0  0
 15 16  1  0  0  0  0
 15 19  1  0  0  0  0
 16 17  2  0  0  0  0
 16 18  1  0  0  0  0
 25 26  2  0  0  0  0
 25 31  1  0  0  0  0
 26 27  1  0  0  0  0
 26 36  1  0  0  0  0
 27 28  1  0  0  0  0
 27 29  2  0  0  0  0
 29 30  1  0  0  0  0
 29 35  1  0  0  0  0
 30 31  2  0  0  0  0
 30 34  1  0  0  0  0
 31 32  1  0  0  0  0
 32 33  2  0  0  0  0
M  END
>  <MODEL>
       1

$$$$
