output/tmp_first_model_16_53.pdb
 OpenBabel07232602073D

 77 84  0  0  1  0  0  0  0  0999 V2000
   10.3340    2.6200   24.9720 O   0  0  0  0  0  0  0  0  0  0  0  0
    9.7900    1.6950   24.3790 C   0  0  0  0  0  0  0  0  0  0  0  0
   10.5710    0.7510   23.4900 C   0  0  0  0  0  0  0  0  0  0  0  0
   11.9610    0.8750   23.3680 C   0  0  0  0  0  0  0  0  0  0  0  0
   12.6730    0.1600   22.4070 C   0  0  0  0  0  0  0  0  0  0  0  0
   11.9670   -0.7100   21.5640 C   0  0  0  0  0  0  0  0  0  0  0  0
   12.6830   -1.5470   20.1860 Cl  0  0  0  0  0  0  0  0  0  0  0  0
   10.6040   -0.8530   21.6960 C   0  0  0  0  0  0  0  0  0  0  0  0
    9.8930   -0.1750   22.6900 C   0  0  0  0  0  0  0  0  0  0  0  0
    8.3900   -0.3240   22.7360 C   0  0  1  0  0  0  0  0  0  0  0  0
    7.8370    0.2310   24.0620 C   0  0  0  0  0  0  0  0  0  0  0  0
    8.4350    1.5000   24.4130 N   0  0  0  0  0  0  0  0  0  0  0  0
    7.5340    2.5210   24.9330 C   0  0  0  0  0  0  0  0  0  0  0  0
    6.7490    3.2250   23.8240 C   0  0  0  0  0  0  0  0  0  0  0  0
    7.6670    4.0850   23.0180 N   0  3  0  0  0  0  0  0  0  0  0  0
    8.2790    5.2730   23.7910 C   0  0  0  0  0  0  0  0  0  0  0  0
    7.7280    6.2890   22.7670 C   0  0  0  0  0  0  0  0  0  0  0  0
    8.6450    7.2750   22.0530 C   0  0  0  0  0  0  0  0  0  0  0  0
    7.7220    8.3500   22.2520 O   0  0  0  0  0  0  0  0  0  0  0  0
    6.8380    7.5160   23.0040 C   0  0  0  0  0  0  0  0  0  0  0  0
    5.8550    7.4390   22.5200 H   0  0  0  0  0  0  0  0  0  0  0  0
    6.7000    7.8840   24.0280 H   0  0  0  0  0  0  0  0  0  0  0  0
    8.8130    7.0440   20.9950 H   0  0  0  0  0  0  0  0  0  0  0  0
    9.6090    7.4760   22.5430 H   0  0  0  0  0  0  0  0  0  0  0  0
    7.0970    5.0870   22.0370 C   0  0  0  0  0  0  0  0  0  0  0  0
    6.0070    5.0770   22.0210 H   0  0  0  0  0  0  0  0  0  0  0  0
    7.4850    4.9050   21.0380 H   0  0  0  0  0  0  0  0  0  0  0  0
    9.3580    5.1750   23.8790 H   0  0  0  0  0  0  0  0  0  0  0  0
    7.8320    5.3450   24.7800 H   0  0  0  0  0  0  0  0  0  0  0  0
    8.3100    3.4550   22.5090 H   0  0  0  0  0  0  0  0  0  0  0  0
    5.9310    3.8320   24.2300 H   0  0  0  0  0  0  0  0  0  0  0  0
    6.3220    2.4860   23.1450 H   0  0  0  0  0  0  0  0  0  0  0  0
    6.8340    2.0380   25.6240 H   0  0  0  0  0  0  0  0  0  0  0  0
    8.1350    3.2200   25.5160 H   0  0  0  0  0  0  0  0  0  0  0  0
    6.7610    0.3750   23.9320 H   0  0  0  0  0  0  0  0  0  0  0  0
    7.9830   -0.4900   24.8750 H   0  0  0  0  0  0  0  0  0  0  0  0
    7.7790    0.4930   21.5840 C   0  0  0  0  0  0  0  0  0  0  0  0
    7.9350    1.6900   21.3920 O   0  0  0  0  0  0  0  0  0  0  0  0
    6.9900   -0.3450   20.8380 N   0  0  0  0  0  0  0  0  0  0  0  0
    6.1810    0.1350   19.7890 C   0  0  0  0  0  0  0  0  0  0  0  0
    6.4770   -0.2400   18.5080 C   0  0  0  0  0  0  0  0  0  0  0  0
    5.7880    0.1800   17.4250 N   0  0  0  0  0  0  0  0  0  0  0  0
    4.7730    0.9820   17.6300 C   0  0  0  0  0  0  0  0  0  0  0  0
    4.3420    1.4070   18.9170 C   0  0  0  0  0  0  0  0  0  0  0  0
    3.2350    2.2770   19.0790 C   0  0  0  0  0  0  0  0  0  0  0  0
    2.8110    2.6380   20.3270 C   0  0  0  0  0  0  0  0  0  0  0  0
    3.4700    2.1380   21.4720 C   0  0  0  0  0  0  0  0  0  0  0  0
    4.5470    1.2940   21.3430 C   0  0  0  0  0  0  0  0  0  0  0  0
    5.0370    0.9440   20.0500 C   0  0  0  0  0  0  0  0  0  0  0  0
    5.0280    0.8940   22.2330 H   0  0  0  0  0  0  0  0  0  0  0  0
    3.1210    2.4280   22.4590 H   0  0  0  0  0  0  0  0  0  0  0  0
    1.9620    3.3060   20.4430 H   0  0  0  0  0  0  0  0  0  0  0  0
    2.7390    2.6340   18.1840 H   0  0  0  0  0  0  0  0  0  0  0  0
    4.2280    1.3310   16.7530 H   0  0  0  0  0  0  0  0  0  0  0  0
    7.3260   -0.8980   18.3200 H   0  0  0  0  0  0  0  0  0  0  0  0
    6.7310   -1.6230   21.4740 C   0  0  0  0  0  0  0  0  0  0  0  0
    7.8960   -1.7700   22.4420 C   0  0  2  0  0  0  0  0  0  0  0  0
    7.5270   -2.6390   23.6320 C   0  0  0  0  0  0  0  0  0  0  0  0
    8.6760   -2.8210   24.4910 N   0  0  0  0  0  0  0  0  0  0  0  0
    8.6330   -3.6420   25.5670 C   0  0  0  0  0  0  0  0  0  0  0  0
    9.7960   -3.9170   26.1810 N   0  0  0  0  0  0  0  0  0  0  0  0
    9.7090   -4.7080   27.2470 C   0  0  0  0  0  0  0  0  0  0  0  0
    8.5010   -5.2080   27.7190 C   0  0  0  0  0  0  0  0  0  0  0  0
    7.3710   -4.8620   26.9930 C   0  0  0  0  0  0  0  0  0  0  0  0
    7.4130   -4.0930   25.9120 N   0  0  0  0  0  0  0  0  0  0  0  0
    6.3840   -5.2210   27.2830 H   0  0  0  0  0  0  0  0  0  0  0  0
    8.4480   -5.8520   28.5850 H   0  0  0  0  0  0  0  0  0  0  0  0
   10.6520   -4.9510   27.7430 H   0  0  0  0  0  0  0  0  0  0  0  0
    9.5920   -2.5500   24.1660 H   0  0  0  0  0  0  0  0  0  0  0  0
    7.1430   -3.6070   23.2870 H   0  0  0  0  0  0  0  0  0  0  0  0
    6.7140   -2.1840   24.2100 H   0  0  0  0  0  0  0  0  0  0  0  0
    8.7050   -2.2880   21.9240 H   0  0  0  0  0  0  0  0  0  0  0  0
    5.7760   -1.6250   22.0260 H   0  0  0  0  0  0  0  0  0  0  0  0
    6.6900   -2.4320   20.7400 H   0  0  0  0  0  0  0  0  0  0  0  0
   10.1000   -1.4410   20.9360 H   0  0  0  0  0  0  0  0  0  0  0  0
   13.7380    0.3220   22.2760 H   0  0  0  0  0  0  0  0  0  0  0  0
   12.4730    1.5490   24.0490 H   0  0  0  0  0  0  0  0  0  0  0  0
  1  2  2  0  0  0  0
  2  3  1  0  0  0  0
  2 12  1  0  0  0  0
  3  4  2  0  0  0  0
  3  9  1  0  0  0  0
  4  5  1  0  0  0  0
  4 77  1  0  0  0  0
  5  6  2  0  0  0  0
  5 76  1  0  0  0  0
  6  7  1  0  0  0  0
  6  8  1  0  0  0  0
  8  9  2  0  0  0  0
  8 75  1  0  0  0  0
 10  9  1  6  0  0  0
 10 11  1  0  0  0  0
 10 37  1  0  0  0  0
 10 57  1  0  0  0  0
 11 12  1  0  0  0  0
 11 35  1  0  0  0  0
 11 36  1  0  0  0  0
 12 13  1  0  0  0  0
 13 14  1  0  0  0  0
 13 33  1  0  0  0  0
 13 34  1  0  0  0  0
 14 15  1  0  0  0  0
 14 31  1  0  0  0  0
 14 32  1  0  0  0  0
 15 16  1  0  0  0  0
 15 25  1  0  0  0  0
 15 30  1  0  0  0  0
 16 17  1  0  0  0  0
 16 28  1  0  0  0  0
 16 29  1  0  0  0  0
 17 18  1  0  0  0  0
 17 20  1  0  0  0  0
 17 25  1  0  0  0  0
 18 19  1  0  0  0  0
 18 23  1  0  0  0  0
 18 24  1  0  0  0  0
 19 20  1  0  0  0  0
 20 21  1  0  0  0  0
 20 22  1  0  0  0  0
 25 26  1  0  0  0  0
 25 27  1  0  0  0  0
 37 38  2  0  0  0  0
 37 39  1  0  0  0  0
 39 40  1  0  0  0  0
 39 56  1  0  0  0  0
 40 41  2  0  0  0  0
 40 49  1  0  0  0  0
 41 42  1  0  0  0  0
 41 55  1  0  0  0  0
 42 43  2  0  0  0  0
 43 44  1  0  0  0  0
 43 54  1  0  0  0  0
 44 45  2  0  0  0  0
 44 49  1  0  0  0  0
 45 46  1  0  0  0  0
 45 53  1  0  0  0  0
 46 47  2  0  0  0  0
 46 52  1  0  0  0  0
 47 48  1  0  0  0  0
 47 51  1  0  0  0  0
 48 49  2  0  0  0  0
 48 50  1  0  0  0  0
 56 57  1  0  0  0  0
 56 73  1  0  0  0  0
 56 74  1  0  0  0  0
 57 58  1  0  0  0  0
 57 72  1  6  0  0  0
 58 59  1  0  0  0  0
 58 70  1  0  0  0  0
 58 71  1  0  0  0  0
 59 60  1  0  0  0  0
 59 69  1  0  0  0  0
 60 61  2  0  0  0  0
 60 65  1  0  0  0  0
 61 62  1  0  0  0  0
 62 63  2  0  0  0  0
 62 68  1  0  0  0  0
 63 64  1  0  0  0  0
 63 67  1  0  0  0  0
 64 65  2  0  0  0  0
 64 66  1  0  0  0  0
M  CHG  1  15   1
M  END
>  <MODEL>
       1

$$$$
