output/tmp_first_model_5_77.pdb
 OpenBabel07222620423D

 57 60  0  0  0  0  0  0  0  0999 V2000
    3.8330   -6.1530   26.7260 C   0  0  0  0  0  0  0  0  0  0  0  0
    3.3140   -5.8900   25.2930 C   0  0  0  0  0  0  0  0  0  0  0  0
    1.8020   -5.5580   25.2780 C   0  0  0  0  0  0  0  0  0  0  0  0
    1.2730   -6.3930   25.7540 H   0  0  0  0  0  0  0  0  0  0  0  0
    1.4410   -5.4460   24.2460 H   0  0  0  0  0  0  0  0  0  0  0  0
    1.6030   -4.6290   25.8210 H   0  0  0  0  0  0  0  0  0  0  0  0
    3.3900   -7.1590   24.5330 C   0  0  0  0  0  0  0  0  0  0  0  0
    3.2960   -8.1750   23.9870 N   0  0  0  0  0  0  0  0  0  0  0  0
    4.1670   -4.7850   24.6780 C   0  0  0  0  0  0  0  0  0  0  0  0
    4.1430   -3.4910   25.2010 C   0  0  0  0  0  0  0  0  0  0  0  0
    4.9190   -2.4910   24.6350 C   0  0  0  0  0  0  0  0  0  0  0  0
    5.6920   -2.7650   23.5060 C   0  0  0  0  0  0  0  0  0  0  0  0
    6.4000   -1.7070   22.8690 N   0  0  0  0  0  0  0  0  0  0  0  0
    7.3680   -0.9490   23.6640 C   0  0  0  0  0  0  0  0  0  0  0  0
    8.7990   -1.2540   23.2850 C   0  0  0  0  0  0  0  0  0  0  0  0
    9.2160   -2.5830   23.2840 C   0  0  0  0  0  0  0  0  0  0  0  0
   10.5220   -2.9030   22.9490 C   0  0  0  0  0  0  0  0  0  0  0  0
   11.4270   -1.9110   22.5850 C   0  0  0  0  0  0  0  0  0  0  0  0
   11.0020   -0.5900   22.5870 C   0  0  0  0  0  0  0  0  0  0  0  0
   12.1160    0.6680   22.1320 Cl  0  0  0  0  0  0  0  0  0  0  0  0
    9.7010   -0.2490   22.9390 C   0  0  0  0  0  0  0  0  0  0  0  0
    9.4170    0.8020   22.9500 H   0  0  0  0  0  0  0  0  0  0  0  0
   12.4550   -2.1520   22.3430 H   0  0  0  0  0  0  0  0  0  0  0  0
   10.8290   -3.9400   22.9660 H   0  0  0  0  0  0  0  0  0  0  0  0
    8.5040   -3.3610   23.5560 H   0  0  0  0  0  0  0  0  0  0  0  0
    7.2010   -1.2250   24.7090 H   0  0  0  0  0  0  0  0  0  0  0  0
    7.1870    0.1300   23.6010 H   0  0  0  0  0  0  0  0  0  0  0  0
    6.2400   -1.5640   21.5020 C   0  0  0  0  0  0  0  0  0  0  0  0
    5.5150   -2.3010   20.8520 O   0  0  0  0  0  0  0  0  0  0  0  0
    6.9590   -0.3970   20.8210 C   0  0  0  0  0  0  0  0  0  0  0  0
    6.1490    0.1280   19.6790 C   0  0  0  0  0  0  0  0  0  0  0  0
    6.4300   -0.2310   18.3870 C   0  0  0  0  0  0  0  0  0  0  0  0
    5.7590    0.2030   17.2880 N   0  0  0  0  0  0  0  0  0  0  0  0
    4.7540    1.0160   17.5000 C   0  0  0  0  0  0  0  0  0  0  0  0
    4.3070    1.4170   18.7890 C   0  0  0  0  0  0  0  0  0  0  0  0
    3.1970    2.2800   18.9550 C   0  0  0  0  0  0  0  0  0  0  0  0
    2.7670    2.6290   20.2050 C   0  0  0  0  0  0  0  0  0  0  0  0
    3.4310    2.1250   21.3480 C   0  0  0  0  0  0  0  0  0  0  0  0
    4.5140    1.2920   21.2130 C   0  0  0  0  0  0  0  0  0  0  0  0
    5.0000    0.9340   19.9230 C   0  0  0  0  0  0  0  0  0  0  0  0
    4.9940    0.9010   22.1080 H   0  0  0  0  0  0  0  0  0  0  0  0
    3.0850    2.4090   22.3390 H   0  0  0  0  0  0  0  0  0  0  0  0
    1.9180    3.2960   20.3280 H   0  0  0  0  0  0  0  0  0  0  0  0
    2.7020    2.6470   18.0590 H   0  0  0  0  0  0  0  0  0  0  0  0
    4.2250    1.3900   16.6210 H   0  0  0  0  0  0  0  0  0  0  0  0
    7.2630   -0.9070   18.1880 H   0  0  0  0  0  0  0  0  0  0  0  0
    7.1630    0.4050   21.5380 H   0  0  0  0  0  0  0  0  0  0  0  0
    7.9200   -0.7840   20.4620 H   0  0  0  0  0  0  0  0  0  0  0  0
    5.8070   -4.0760   23.0510 C   0  0  0  0  0  0  0  0  0  0  0  0
    5.0590   -5.0760   23.6510 C   0  0  0  0  0  0  0  0  0  0  0  0
    5.1640   -6.1040   23.3200 H   0  0  0  0  0  0  0  0  0  0  0  0
    6.4580   -4.3100   22.2160 H   0  0  0  0  0  0  0  0  0  0  0  0
    4.9150   -1.4860   25.0470 H   0  0  0  0  0  0  0  0  0  0  0  0
    3.5340   -3.2630   26.0710 H   0  0  0  0  0  0  0  0  0  0  0  0
    3.6450   -5.2820   27.3590 H   0  0  0  0  0  0  0  0  0  0  0  0
    4.9190   -6.3310   26.7110 H   0  0  0  0  0  0  0  0  0  0  0  0
    3.3320   -7.0160   27.1760 H   0  0  0  0  0  0  0  0  0  0  0  0
  1  2  1  0  0  0  0
  1 55  1  0  0  0  0
  1 56  1  0  0  0  0
  1 57  1  0  0  0  0
  2  3  1  0  0  0  0
  2  7  1  0  0  0  0
  2  9  1  0  0  0  0
  3  4  1  0  0  0  0
  3  5  1  0  0  0  0
  3  6  1  0  0  0  0
  7  8  3  0  0  0  0
  9 10  2  0  0  0  0
  9 50  1  0  0  0  0
 10 11  1  0  0  0  0
 10 54  1  0  0  0  0
 11 12  2  0  0  0  0
 11 53  1  0  0  0  0
 12 13  1  0  0  0  0
 12 49  1  0  0  0  0
 13 14  1  0  0  0  0
 13 28  1  0  0  0  0
 14 15  1  0  0  0  0
 14 26  1  0  0  0  0
 14 27  1  0  0  0  0
 15 16  2  0  0  0  0
 15 21  1  0  0  0  0
 16 17  1  0  0  0  0
 16 25  1  0  0  0  0
 17 18  2  0  0  0  0
 17 24  1  0  0  0  0
 18 19  1  0  0  0  0
 18 23  1  0  0  0  0
 19 20  1  0  0  0  0
 19 21  2  0  0  0  0
 21 22  1  0  0  0  0
 28 29  2  0  0  0  0
 28 30  1  0  0  0  0
 30 31  1  0  0  0  0
 30 47  1  0  0  0  0
 30 48  1  0  0  0  0
 31 32  2  0  0  0  0
 31 40  1  0  0  0  0
 32 33  1  0  0  0  0
 32 46  1  0  0  0  0
 33 34  2  0  0  0  0
 34 35  1  0  0  0  0
 34 45  1  0  0  0  0
 35 36  2  0  0  0  0
 35 40  1  0  0  0  0
 36 37  1  0  0  0  0
 36 44  1  0  0  0  0
 37 38  2  0  0  0  0
 37 43  1  0  0  0  0
 38 39  1  0  0  0  0
 38 42  1  0  0  0  0
 39 40  2  0  0  0  0
 39 41  1  0  0  0  0
 49 50  2  0  0  0  0
 49 52  1  0  0  0  0
 50 51  1  0  0  0  0
M  END
>  <MODEL>
       1

$$$$
