output/tmp_first_model_7_73.pdb
 OpenBabel07222621533D

 56 61  0  0  1  0  0  0  0  0999 V2000
    7.5860   -2.9190   23.6490 C   0  0  0  0  0  0  0  0  0  0  0  0
    7.7140   -2.1600   22.3360 C   0  0  1  0  0  0  0  0  0  0  0  0
    6.3600   -1.6380   21.8460 C   0  0  0  0  0  0  0  0  0  0  0  0
    6.7180   -0.5520   20.9460 N   0  0  0  0  0  0  0  0  0  0  0  0
    5.9110   -0.0550   19.8990 C   0  0  0  0  0  0  0  0  0  0  0  0
    6.4380    0.0420   18.6280 C   0  0  0  0  0  0  0  0  0  0  0  0
    5.7640    0.4950   17.5480 N   0  0  0  0  0  0  0  0  0  0  0  0
    4.5360    0.9070   17.7290 C   0  0  0  0  0  0  0  0  0  0  0  0
    3.8710    0.8980   18.9850 C   0  0  0  0  0  0  0  0  0  0  0  0
    2.5590    1.4250   19.1150 C   0  0  0  0  0  0  0  0  0  0  0  0
    1.9300    1.4210   20.3280 C   0  0  0  0  0  0  0  0  0  0  0  0
    2.6070    0.9320   21.4650 C   0  0  0  0  0  0  0  0  0  0  0  0
    3.8860    0.4380   21.3670 C   0  0  0  0  0  0  0  0  0  0  0  0
    4.5630    0.4040   20.1150 C   0  0  0  0  0  0  0  0  0  0  0  0
    4.3970    0.1140   22.2650 H   0  0  0  0  0  0  0  0  0  0  0  0
    2.1190    0.9650   22.4360 H   0  0  0  0  0  0  0  0  0  0  0  0
    0.9290    1.8300   20.4340 H   0  0  0  0  0  0  0  0  0  0  0  0
    2.0880    1.8600   18.2350 H   0  0  0  0  0  0  0  0  0  0  0  0
    4.0230    1.3390   16.8710 H   0  0  0  0  0  0  0  0  0  0  0  0
    7.4670   -0.2480   18.4430 H   0  0  0  0  0  0  0  0  0  0  0  0
    8.0350   -0.1460   21.1070 C   0  0  0  0  0  0  0  0  0  0  0  0
    8.5710    0.7310   20.4580 O   0  0  0  0  0  0  0  0  0  0  0  0
    8.6560   -0.9200   22.2950 C   0  0  1  0  0  0  0  0  0  0  0  0
    8.5190   -0.0060   23.5480 C   0  0  0  0  0  0  0  0  0  0  0  0
    9.5150    1.0640   23.5620 N   0  0  0  0  0  0  0  0  0  0  0  0
    9.1050    2.4690   23.6660 C   0  0  0  0  0  0  0  0  0  0  0  0
    9.7450    3.4350   22.6350 C   0  0  0  0  0  0  0  0  0  0  0  0
   10.8020    3.8010   23.6470 N   0  3  0  0  0  0  0  0  0  0  0  0
    9.8740    3.2930   24.7210 C   0  0  0  0  0  0  0  0  0  0  0  0
    9.2850    4.0930   25.1760 H   0  0  0  0  0  0  0  0  0  0  0  0
   10.4080    2.7140   25.4590 H   0  0  0  0  0  0  0  0  0  0  0  0
   11.5640    3.0870   23.5900 H   0  0  0  0  0  0  0  0  0  0  0  0
   11.2340    4.7300   23.6920 H   0  0  0  0  0  0  0  0  0  0  0  0
    9.0970    4.2830   22.4120 H   0  0  0  0  0  0  0  0  0  0  0  0
   10.1320    3.0240   21.7080 H   0  0  0  0  0  0  0  0  0  0  0  0
    8.0160    2.4780   23.7340 H   0  0  0  0  0  0  0  0  0  0  0  0
   10.8330    0.7130   23.5190 C   0  0  0  0  0  0  0  0  0  0  0  0
   11.7660    1.4140   23.9370 O   0  0  0  0  0  0  0  0  0  0  0  0
   11.1170   -0.5670   22.8340 C   0  0  0  0  0  0  0  0  0  0  0  0
   12.4510   -0.9710   22.8060 C   0  0  0  0  0  0  0  0  0  0  0  0
   12.8560   -1.9700   21.9590 C   0  0  0  0  0  0  0  0  0  0  0  0
   11.9250   -2.4970   21.0670 C   0  0  0  0  0  0  0  0  0  0  0  0
   12.5250   -3.3710   19.6840 Cl  0  0  0  0  0  0  0  0  0  0  0  0
   10.5710   -2.2160   21.1980 C   0  0  0  0  0  0  0  0  0  0  0  0
   10.1280   -1.2570   22.1190 C   0  0  0  0  0  0  0  0  0  0  0  0
    9.8630   -2.6860   20.5270 H   0  0  0  0  0  0  0  0  0  0  0  0
   13.8930   -2.2710   21.9310 H   0  0  0  0  0  0  0  0  0  0  0  0
   13.1770   -0.4390   23.4100 H   0  0  0  0  0  0  0  0  0  0  0  0
    8.6490   -0.6280   24.4450 H   0  0  0  0  0  0  0  0  0  0  0  0
    7.5330    0.4590   23.5730 H   0  0  0  0  0  0  0  0  0  0  0  0
    5.7750   -2.4090   21.3360 H   0  0  0  0  0  0  0  0  0  0  0  0
    5.7720   -1.2930   22.7080 H   0  0  0  0  0  0  0  0  0  0  0  0
    8.0990   -2.8470   21.5740 H   0  0  0  0  0  0  0  0  0  0  0  0
    6.9110   -3.7720   23.5210 H   0  0  0  0  0  0  0  0  0  0  0  0
    7.1610   -2.2870   24.4390 H   0  0  0  0  0  0  0  0  0  0  0  0
    8.5480   -3.3050   23.9970 H   0  0  0  0  0  0  0  0  0  0  0  0
  1  2  1  0  0  0  0
  1 54  1  0  0  0  0
  1 55  1  0  0  0  0
  1 56  1  0  0  0  0
  2  3  1  0  0  0  0
  2 23  1  0  0  0  0
  2 53  1  6  0  0  0
  3  4  1  0  0  0  0
  3 51  1  0  0  0  0
  3 52  1  0  0  0  0
  4  5  1  0  0  0  0
  4 21  1  0  0  0  0
  5  6  2  0  0  0  0
  5 14  1  0  0  0  0
  6  7  1  0  0  0  0
  6 20  1  0  0  0  0
  7  8  2  0  0  0  0
  8  9  1  0  0  0  0
  8 19  1  0  0  0  0
  9 10  2  0  0  0  0
  9 14  1  0  0  0  0
 10 11  1  0  0  0  0
 10 18  1  0  0  0  0
 11 12  2  0  0  0  0
 11 17  1  0  0  0  0
 12 13  1  0  0  0  0
 12 16  1  0  0  0  0
 13 14  2  0  0  0  0
 13 15  1  0  0  0  0
 21 22  2  0  0  0  0
 23 21  1  6  0  0  0
 23 24  1  0  0  0  0
 23 45  1  0  0  0  0
 24 25  1  0  0  0  0
 24 49  1  0  0  0  0
 24 50  1  0  0  0  0
 25 26  1  0  0  0  0
 25 37  1  0  0  0  0
 26 27  1  0  0  0  0
 26 29  1  0  0  0  0
 26 36  1  0  0  0  0
 27 28  1  0  0  0  0
 27 34  1  0  0  0  0
 27 35  1  0  0  0  0
 28 29  1  0  0  0  0
 28 32  1  0  0  0  0
 28 33  1  0  0  0  0
 29 30  1  0  0  0  0
 29 31  1  0  0  0  0
 37 38  2  0  0  0  0
 37 39  1  0  0  0  0
 39 40  2  0  0  0  0
 39 45  1  0  0  0  0
 40 41  1  0  0  0  0
 40 48  1  0  0  0  0
 41 42  2  0  0  0  0
 41 47  1  0  0  0  0
 42 43  1  0  0  0  0
 42 44  1  0  0  0  0
 44 45  2  0  0  0  0
 44 46  1  0  0  0  0
M  CHG  1  28   1
M  END
>  <MODEL>
       1

$$$$
