output/tmp_first_model_11_28.pdb
 OpenBabel07222623443D

 70 75  0  0  1  0  0  0  0  0999 V2000
    6.5620    4.4730   21.3550 C   0  0  0  0  0  0  0  0  0  0  0  0
    6.9250    3.4830   22.3690 N   0  3  0  0  0  0  0  0  0  0  0  0
    7.9310    3.9370   23.3490 C   0  0  0  0  0  0  0  0  0  0  0  0
    8.1030    2.9080   24.4610 C   0  0  0  0  0  0  0  0  0  0  0  0
    8.7000    1.6880   23.9510 N   0  0  0  0  0  0  0  0  0  0  0  0
    7.9680    0.4410   23.8470 C   0  0  0  0  0  0  0  0  0  0  0  0
    8.3700   -0.3620   22.5870 C   0  0  2  0  0  0  0  0  0  0  0  0
    7.7990    0.3450   21.3540 C   0  0  0  0  0  0  0  0  0  0  0  0
    8.0450    1.4850   20.9830 O   0  0  0  0  0  0  0  0  0  0  0  0
    6.8670   -0.4660   20.7780 N   0  0  0  0  0  0  0  0  0  0  0  0
    6.0860    0.0680   19.7300 C   0  0  0  0  0  0  0  0  0  0  0  0
    6.4440   -0.2070   18.4390 C   0  0  0  0  0  0  0  0  0  0  0  0
    5.7600    0.2410   17.3670 N   0  0  0  0  0  0  0  0  0  0  0  0
    4.7260    1.0110   17.6020 C   0  0  0  0  0  0  0  0  0  0  0  0
    4.2950    1.4100   18.9000 C   0  0  0  0  0  0  0  0  0  0  0  0
    3.1840    2.2700   19.0860 C   0  0  0  0  0  0  0  0  0  0  0  0
    2.8060    2.6620   20.3410 C   0  0  0  0  0  0  0  0  0  0  0  0
    3.5150    2.2080   21.4720 C   0  0  0  0  0  0  0  0  0  0  0  0
    4.5960    1.3680   21.3210 C   0  0  0  0  0  0  0  0  0  0  0  0
    5.0060    0.9420   20.0200 C   0  0  0  0  0  0  0  0  0  0  0  0
    5.1170    1.0100   22.2060 H   0  0  0  0  0  0  0  0  0  0  0  0
    3.2020    2.5270   22.4630 H   0  0  0  0  0  0  0  0  0  0  0  0
    1.9580    3.3280   20.4670 H   0  0  0  0  0  0  0  0  0  0  0  0
    2.6630    2.6160   18.2000 H   0  0  0  0  0  0  0  0  0  0  0  0
    4.1710    1.3680   16.7370 H   0  0  0  0  0  0  0  0  0  0  0  0
    7.3260   -0.8160   18.2500 H   0  0  0  0  0  0  0  0  0  0  0  0
    6.4400   -1.5570   21.6460 C   0  0  0  0  0  0  0  0  0  0  0  0
    7.6880   -1.7470   22.5120 C   0  0  2  0  0  0  0  0  0  0  0  0
    7.4700   -2.3850   23.8640 C   0  0  0  0  0  0  0  0  0  0  0  0
    6.9590   -3.6760   23.6610 O   0  0  0  0  0  0  0  0  0  0  0  0
    6.5190   -4.2500   24.8630 C   0  0  0  0  0  0  0  0  0  0  0  0
    5.9280   -5.5880   24.5190 C   0  0  0  0  0  0  0  0  0  0  0  0
    4.7710   -5.3830   23.7920 F   0  0  0  0  0  0  0  0  0  0  0  0
    5.7640   -6.6180   25.6290 C   0  0  0  0  0  0  0  0  0  0  0  0
    6.5680   -7.5670   24.9150 O   0  0  0  0  0  0  0  0  0  0  0  0
    6.8580   -6.6220   23.8760 C   0  0  0  0  0  0  0  0  0  0  0  0
    7.9190   -6.3390   23.8720 H   0  0  0  0  0  0  0  0  0  0  0  0
    6.5570   -6.9690   22.8820 H   0  0  0  0  0  0  0  0  0  0  0  0
    6.2180   -6.3380   26.5890 H   0  0  0  0  0  0  0  0  0  0  0  0
    4.7330   -6.9520   25.7860 H   0  0  0  0  0  0  0  0  0  0  0  0
    5.7410   -3.6300   25.3390 H   0  0  0  0  0  0  0  0  0  0  0  0
    7.3530   -4.3600   25.5770 H   0  0  0  0  0  0  0  0  0  0  0  0
    6.7580   -1.7770   24.4530 H   0  0  0  0  0  0  0  0  0  0  0  0
    8.4290   -2.4170   24.4160 H   0  0  0  0  0  0  0  0  0  0  0  0
    8.3270   -2.4200   21.9420 H   0  0  0  0  0  0  0  0  0  0  0  0
    5.5600   -1.2850   22.2470 H   0  0  0  0  0  0  0  0  0  0  0  0
    6.1890   -2.4430   21.0610 H   0  0  0  0  0  0  0  0  0  0  0  0
    9.8740   -0.4390   22.5320 C   0  0  0  0  0  0  0  0  0  0  0  0
   10.5130   -1.4100   21.7530 C   0  0  0  0  0  0  0  0  0  0  0  0
   11.8780   -1.3800   21.5830 C   0  0  0  0  0  0  0  0  0  0  0  0
   12.5350   -2.4710   20.3780 Cl  0  0  0  0  0  0  0  0  0  0  0  0
   12.6610   -0.4620   22.2910 C   0  0  0  0  0  0  0  0  0  0  0  0
   12.0420    0.5050   23.0460 C   0  0  0  0  0  0  0  0  0  0  0  0
   10.6580    0.5460   23.1300 C   0  0  0  0  0  0  0  0  0  0  0  0
   10.0570    1.7260   23.8060 C   0  0  0  0  0  0  0  0  0  0  0  0
   10.7390    2.6700   24.1850 O   0  0  0  0  0  0  0  0  0  0  0  0
   12.6100    1.2700   23.5620 H   0  0  0  0  0  0  0  0  0  0  0  0
   13.7380   -0.4220   22.2120 H   0  0  0  0  0  0  0  0  0  0  0  0
    9.9830   -2.1960   21.2290 H   0  0  0  0  0  0  0  0  0  0  0  0
    8.1930   -0.1710   24.7300 H   0  0  0  0  0  0  0  0  0  0  0  0
    6.8920    0.6470   23.8060 H   0  0  0  0  0  0  0  0  0  0  0  0
    8.8020    3.2890   25.2020 H   0  0  0  0  0  0  0  0  0  0  0  0
    7.1520    2.6710   24.9500 H   0  0  0  0  0  0  0  0  0  0  0  0
    8.8940    4.0680   22.8470 H   0  0  0  0  0  0  0  0  0  0  0  0
    7.6520    4.9080   23.7720 H   0  0  0  0  0  0  0  0  0  0  0  0
    7.2870    2.6340   21.8900 H   0  0  0  0  0  0  0  0  0  0  0  0
    6.0570    3.2220   22.8630 H   0  0  0  0  0  0  0  0  0  0  0  0
    7.3740    4.6030   20.6400 H   0  0  0  0  0  0  0  0  0  0  0  0
    5.6670    4.1400   20.8230 H   0  0  0  0  0  0  0  0  0  0  0  0
    6.3590    5.4450   21.8130 H   0  0  0  0  0  0  0  0  0  0  0  0
  1  2  1  0  0  0  0
  1 68  1  0  0  0  0
  1 69  1  0  0  0  0
  1 70  1  0  0  0  0
  2  3  1  0  0  0  0
  2 66  1  0  0  0  0
  2 67  1  0  0  0  0
  3  4  1  0  0  0  0
  3 64  1  0  0  0  0
  3 65  1  0  0  0  0
  4  5  1  0  0  0  0
  4 62  1  0  0  0  0
  4 63  1  0  0  0  0
  5  6  1  0  0  0  0
  5 55  1  0  0  0  0
  6  7  1  0  0  0  0
  6 60  1  0  0  0  0
  6 61  1  0  0  0  0
  7  8  1  6  0  0  0
  7 28  1  0  0  0  0
  7 48  1  0  0  0  0
  8  9  2  0  0  0  0
  8 10  1  0  0  0  0
 10 11  1  0  0  0  0
 10 27  1  0  0  0  0
 11 12  2  0  0  0  0
 11 20  1  0  0  0  0
 12 13  1  0  0  0  0
 12 26  1  0  0  0  0
 13 14  2  0  0  0  0
 14 15  1  0  0  0  0
 14 25  1  0  0  0  0
 15 16  2  0  0  0  0
 15 20  1  0  0  0  0
 16 17  1  0  0  0  0
 16 24  1  0  0  0  0
 17 18  2  0  0  0  0
 17 23  1  0  0  0  0
 18 19  1  0  0  0  0
 18 22  1  0  0  0  0
 19 20  2  0  0  0  0
 19 21  1  0  0  0  0
 27 28  1  0  0  0  0
 27 46  1  0  0  0  0
 27 47  1  0  0  0  0
 28 29  1  0  0  0  0
 28 45  1  6  0  0  0
 29 30  1  0  0  0  0
 29 43  1  0  0  0  0
 29 44  1  0  0  0  0
 30 31  1  0  0  0  0
 31 32  1  0  0  0  0
 31 41  1  0  0  0  0
 31 42  1  0  0  0  0
 32 33  1  0  0  0  0
 32 34  1  0  0  0  0
 32 36  1  0  0  0  0
 34 35  1  0  0  0  0
 34 39  1  0  0  0  0
 34 40  1  0  0  0  0
 35 36  1  0  0  0  0
 36 37  1  0  0  0  0
 36 38  1  0  0  0  0
 48 49  2  0  0  0  0
 48 54  1  0  0  0  0
 49 50  1  0  0  0  0
 49 59  1  0  0  0  0
 50 51  1  0  0  0  0
 50 52  2  0  0  0  0
 52 53  1  0  0  0  0
 52 58  1  0  0  0  0
 53 54  2  0  0  0  0
 53 57  1  0  0  0  0
 54 55  1  0  0  0  0
 55 56  2  0  0  0  0
M  CHG  1   2   1
M  END
>  <MODEL>
       1

$$$$
