output/tmp_first_model_20_36.pdb
 OpenBabel07232603433D

 59 64  0  0  1  0  0  0  0  0999 V2000
    7.6170   -2.9240   23.5300 C   0  0  0  0  0  0  0  0  0  0  0  0
    7.8830   -1.9320   22.4010 C   0  0  1  0  0  0  0  0  0  0  0  0
    6.7180   -1.7060   21.4250 C   0  0  0  0  0  0  0  0  0  0  0  0
    6.9860   -0.3760   20.9120 N   0  0  0  0  0  0  0  0  0  0  0  0
    6.2380    0.1770   19.8480 C   0  0  0  0  0  0  0  0  0  0  0  0
    6.5790   -0.1400   18.5600 C   0  0  0  0  0  0  0  0  0  0  0  0
    5.9090    0.2930   17.4670 N   0  0  0  0  0  0  0  0  0  0  0  0
    4.8500    1.0400   17.6560 C   0  0  0  0  0  0  0  0  0  0  0  0
    4.3800    1.4380   18.9380 C   0  0  0  0  0  0  0  0  0  0  0  0
    3.2310    2.2550   19.0930 C   0  0  0  0  0  0  0  0  0  0  0  0
    2.7800    2.5910   20.3390 C   0  0  0  0  0  0  0  0  0  0  0  0
    3.4570    2.1240   21.4890 C   0  0  0  0  0  0  0  0  0  0  0  0
    4.5800    1.3430   21.3640 C   0  0  0  0  0  0  0  0  0  0  0  0
    5.0800    0.9890   20.0800 C   0  0  0  0  0  0  0  0  0  0  0  0
    5.0820    0.9760   22.2550 H   0  0  0  0  0  0  0  0  0  0  0  0
    3.0850    2.3850   22.4750 H   0  0  0  0  0  0  0  0  0  0  0  0
    1.9010    3.2200   20.4540 H   0  0  0  0  0  0  0  0  0  0  0  0
    2.7280    2.6050   18.1970 H   0  0  0  0  0  0  0  0  0  0  0  0
    4.2940    1.3630   16.7730 H   0  0  0  0  0  0  0  0  0  0  0  0
    7.4420   -0.7770   18.3700 H   0  0  0  0  0  0  0  0  0  0  0  0
    7.9710    0.3190   21.5880 C   0  0  0  0  0  0  0  0  0  0  0  0
    8.4080    1.3960   21.2510 O   0  0  0  0  0  0  0  0  0  0  0  0
    8.3240   -0.5170   22.8510 C   0  0  1  0  0  0  0  0  0  0  0  0
    7.4620    0.0230   24.0240 C   0  0  0  0  0  0  0  0  0  0  0  0
    7.8110    1.3970   24.3370 N   0  0  0  0  0  0  0  0  0  0  0  0
    6.8070    2.3540   24.7970 C   0  0  0  0  0  0  0  0  0  0  0  0
    6.3960    2.2010   26.2420 C   0  0  0  0  0  0  0  0  0  0  0  0
    5.5150    1.2740   26.8510 C   0  0  0  0  0  0  0  0  0  0  0  0
    5.5300    1.6140   28.1860 C   0  0  0  0  0  0  0  0  0  0  0  0
    6.3610    2.6720   28.3180 N   0  0  0  0  0  0  0  0  0  0  0  0
    6.7200    3.3890   29.5280 C   0  0  0  0  0  0  0  0  0  0  0  0
    7.6020    2.9510   30.0060 H   0  0  0  0  0  0  0  0  0  0  0  0
    5.8840    3.3560   30.2320 H   0  0  0  0  0  0  0  0  0  0  0  0
    6.9350    4.4250   29.2550 H   0  0  0  0  0  0  0  0  0  0  0  0
    6.8990    3.0330   27.1450 N   0  0  0  0  0  0  0  0  0  0  0  0
    5.0060    1.2060   29.0410 H   0  0  0  0  0  0  0  0  0  0  0  0
    4.9460    0.4770   26.3850 H   0  0  0  0  0  0  0  0  0  0  0  0
    7.2760    3.3380   24.6900 H   0  0  0  0  0  0  0  0  0  0  0  0
    5.9260    2.3130   24.1350 H   0  0  0  0  0  0  0  0  0  0  0  0
    9.1350    1.7470   24.4430 C   0  0  0  0  0  0  0  0  0  0  0  0
    9.4900    2.8760   24.7460 O   0  0  0  0  0  0  0  0  0  0  0  0
   10.1240    0.6480   24.1550 C   0  0  0  0  0  0  0  0  0  0  0  0
   11.4130    0.7530   24.6760 C   0  0  0  0  0  0  0  0  0  0  0  0
   12.4100   -0.1400   24.3380 C   0  0  0  0  0  0  0  0  0  0  0  0
   12.0600   -1.1540   23.4560 C   0  0  0  0  0  0  0  0  0  0  0  0
   13.0330   -1.9960   23.0650 F   0  0  0  0  0  0  0  0  0  0  0  0
   10.7820   -1.3270   22.9630 C   0  0  0  0  0  0  0  0  0  0  0  0
    9.7650   -0.4250   23.3230 C   0  0  0  0  0  0  0  0  0  0  0  0
   10.6350   -2.1690   22.2960 H   0  0  0  0  0  0  0  0  0  0  0  0
   13.4290   -0.0490   24.6990 H   0  0  0  0  0  0  0  0  0  0  0  0
   11.6190    1.5640   25.3510 H   0  0  0  0  0  0  0  0  0  0  0  0
    7.6410   -0.6040   24.9060 H   0  0  0  0  0  0  0  0  0  0  0  0
    6.4030   -0.0580   23.7620 H   0  0  0  0  0  0  0  0  0  0  0  0
    6.7180   -2.4260   20.6000 H   0  0  0  0  0  0  0  0  0  0  0  0
    5.7340   -1.7640   21.9180 H   0  0  0  0  0  0  0  0  0  0  0  0
    8.7070   -2.3170   21.7890 H   0  0  0  0  0  0  0  0  0  0  0  0
    8.4720   -2.9510   24.2190 H   0  0  0  0  0  0  0  0  0  0  0  0
    6.7280   -2.6490   24.1110 H   0  0  0  0  0  0  0  0  0  0  0  0
    7.4600   -3.9320   23.1330 H   0  0  0  0  0  0  0  0  0  0  0  0
  1  2  1  0  0  0  0
  1 57  1  0  0  0  0
  1 58  1  0  0  0  0
  1 59  1  0  0  0  0
  2  3  1  0  0  0  0
  2 23  1  0  0  0  0
  2 56  1  6  0  0  0
  3  4  1  0  0  0  0
  3 54  1  0  0  0  0
  3 55  1  0  0  0  0
  4  5  1  0  0  0  0
  4 21  1  0  0  0  0
  5  6  2  0  0  0  0
  5 14  1  0  0  0  0
  6  7  1  0  0  0  0
  6 20  1  0  0  0  0
  7  8  2  0  0  0  0
  8  9  1  0  0  0  0
  8 19  1  0  0  0  0
  9 10  2  0  0  0  0
  9 14  1  0  0  0  0
 10 11  1  0  0  0  0
 10 18  1  0  0  0  0
 11 12  2  0  0  0  0
 11 17  1  0  0  0  0
 12 13  1  0  0  0  0
 12 16  1  0  0  0  0
 13 14  2  0  0  0  0
 13 15  1  0  0  0  0
 21 22  2  0  0  0  0
 23 21  1  6  0  0  0
 23 24  1  0  0  0  0
 23 48  1  0  0  0  0
 24 25  1  0  0  0  0
 24 52  1  0  0  0  0
 24 53  1  0  0  0  0
 25 26  1  0  0  0  0
 25 40  1  0  0  0  0
 26 27  1  0  0  0  0
 26 38  1  0  0  0  0
 26 39  1  0  0  0  0
 27 28  1  0  0  0  0
 27 35  2  0  0  0  0
 28 29  2  0  0  0  0
 28 37  1  0  0  0  0
 29 30  1  0  0  0  0
 29 36  1  0  0  0  0
 30 31  1  0  0  0  0
 30 35  1  0  0  0  0
 31 32  1  0  0  0  0
 31 33  1  0  0  0  0
 31 34  1  0  0  0  0
 40 41  2  0  0  0  0
 40 42  1  0  0  0  0
 42 43  2  0  0  0  0
 42 48  1  0  0  0  0
 43 44  1  0  0  0  0
 43 51  1  0  0  0  0
 44 45  2  0  0  0  0
 44 50  1  0  0  0  0
 45 46  1  0  0  0  0
 45 47  1  0  0  0  0
 47 48  2  0  0  0  0
 47 49  1  0  0  0  0
M  END
>  <MODEL>
       1

$$$$
