output/tmp_first_model_1_2.pdb
 OpenBabel07222618483D

 56 60  0  0  1  0  0  0  0  0999 V2000
    7.2180    0.6850   28.5920 C   0  0  0  0  0  0  0  0  0  0  0  0
    7.6900    0.2240   27.3690 N   0  0  0  0  0  0  0  0  0  0  0  0
    8.2320    2.8670   26.6560 C   0  0  0  0  0  0  0  0  0  0  0  0
    8.4560    3.1290   26.7990 O   0  0  0  0  0  0  0  0  0  0  0  0
    7.9680    2.4880   24.6560 C   0  0  0  0  0  0  0  0  0  0  0  0
    8.7580    1.4140   24.2150 N   0  0  0  0  0  0  0  0  0  0  0  0
    8.2220    0.0720   24.0550 C   0  0  0  0  0  0  0  0  0  0  0  0
    8.4480   -0.4490   22.6180 C   0  0  2  0  0  0  0  0  0  0  0  0
    7.5640    0.3650   21.6280 C   0  0  0  0  0  0  0  0  0  0  0  0
    7.5290    1.5680   21.5270 O   0  0  0  0  0  0  0  0  0  0  0  0
    6.7770   -0.5160   20.9040 N   0  0  0  0  0  0  0  0  0  0  0  0
    5.9250   -0.1190   19.8340 C   0  0  0  0  0  0  0  0  0  0  0  0
    6.3590   -0.2480   18.5370 C   0  0  0  0  0  0  0  0  0  0  0  0
    5.6510    0.0950   17.4300 N   0  0  0  0  0  0  0  0  0  0  0  0
    4.4350    0.5470   17.6190 C   0  0  0  0  0  0  0  0  0  0  0  0
    3.8290    0.6840   18.8990 C   0  0  0  0  0  0  0  0  0  0  0  0
    2.5290    1.2320   19.0390 C   0  0  0  0  0  0  0  0  0  0  0  0
    1.9660    1.3980   20.2750 C   0  0  0  0  0  0  0  0  0  0  0  0
    2.6920    1.0470   21.4330 C   0  0  0  0  0  0  0  0  0  0  0  0
    3.9540    0.5050   21.3280 C   0  0  0  0  0  0  0  0  0  0  0  0
    4.5790    0.3380   20.0550 C   0  0  0  0  0  0  0  0  0  0  0  0
    4.5020    0.2480   22.2300 H   0  0  0  0  0  0  0  0  0  0  0  0
    2.2470    1.2690   22.4020 H   0  0  0  0  0  0  0  0  0  0  0  0
    0.9820    1.8450   20.3860 H   0  0  0  0  0  0  0  0  0  0  0  0
    2.0360    1.5840   18.1410 H   0  0  0  0  0  0  0  0  0  0  0  0
    3.8550    0.8160   16.7330 H   0  0  0  0  0  0  0  0  0  0  0  0
    7.3680   -0.6110   18.3490 H   0  0  0  0  0  0  0  0  0  0  0  0
    7.1820   -1.8970   21.0780 C   0  0  0  0  0  0  0  0  0  0  0  0
    7.9490   -1.9060   22.4110 C   0  0  2  0  0  0  0  0  0  0  0  0
    7.0610   -2.4190   23.5350 N   0  3  0  0  0  0  0  0  0  0  0  0
    6.1970   -1.8510   23.6020 H   0  0  0  0  0  0  0  0  0  0  0  0
    7.5760   -2.3800   24.4300 H   0  0  0  0  0  0  0  0  0  0  0  0
    6.8060   -3.4030   23.3450 H   0  0  0  0  0  0  0  0  0  0  0  0
    8.7930   -2.5870   22.3920 H   0  0  0  0  0  0  0  0  0  0  0  0
    7.8370   -2.2190   20.2620 H   0  0  0  0  0  0  0  0  0  0  0  0
    6.3160   -2.5670   21.1160 H   0  0  0  0  0  0  0  0  0  0  0  0
    9.9450   -0.3110   22.3510 C   0  0  0  0  0  0  0  0  0  0  0  0
   10.6060   -1.1730   21.4660 C   0  0  0  0  0  0  0  0  0  0  0  0
   11.9720   -1.0700   21.2770 C   0  0  0  0  0  0  0  0  0  0  0  0
   12.7350   -2.1460   20.1330 Cl  0  0  0  0  0  0  0  0  0  0  0  0
   12.7370   -0.1080   21.9350 C   0  0  0  0  0  0  0  0  0  0  0  0
   12.0890    0.7640   22.7890 C   0  0  0  0  0  0  0  0  0  0  0  0
   10.7130    0.6660   23.0000 C   0  0  0  0  0  0  0  0  0  0  0  0
   10.0740    1.6620   23.9170 C   0  0  0  0  0  0  0  0  0  0  0  0
   10.6660    2.6370   24.3470 O   0  0  0  0  0  0  0  0  0  0  0  0
   12.6400    1.5430   23.3060 H   0  0  0  0  0  0  0  0  0  0  0  0
   13.8080   -0.0550   21.7650 H   0  0  0  0  0  0  0  0  0  0  0  0
   10.0740   -1.9400   20.9160 H   0  0  0  0  0  0  0  0  0  0  0  0
    8.7450   -0.5900   24.7580 H   0  0  0  0  0  0  0  0  0  0  0  0
    7.1570    0.1140   24.2910 H   0  0  0  0  0  0  0  0  0  0  0  0
    6.9070    2.2500   24.6950 H   0  0  0  0  0  0  0  0  0  0  0  0
    8.2110    3.4280   24.1690 H   0  0  0  0  0  0  0  0  0  0  0  0
    7.1880    0.7670   26.6760 H   0  0  0  0  0  0  0  0  0  0  0  0
    6.1710    0.3920   28.8580 H   0  0  0  0  0  0  0  0  0  0  0  0
    7.8330    0.3080   29.4340 H   0  0  0  0  0  0  0  0  0  0  0  0
    7.1830    1.7900   28.6960 H   0  0  0  0  0  0  0  0  0  0  0  0
  1  2  1  0  0  0  0
  1 54  1  0  0  0  0
  1 55  1  0  0  0  0
  1 56  1  0  0  0  0
  2  3  1  0  0  0  0
  2 53  1  0  0  0  0
  3  4  2  0  0  0  0
  3  5  1  0  0  0  0
  5  6  1  0  0  0  0
  5 51  1  0  0  0  0
  5 52  1  0  0  0  0
  6  7  1  0  0  0  0
  6 44  1  0  0  0  0
  7  8  1  0  0  0  0
  7 49  1  0  0  0  0
  7 50  1  0  0  0  0
  8  9  1  6  0  0  0
  8 29  1  0  0  0  0
  8 37  1  0  0  0  0
  9 10  2  0  0  0  0
  9 11  1  0  0  0  0
 11 12  1  0  0  0  0
 11 28  1  0  0  0  0
 12 13  2  0  0  0  0
 12 21  1  0  0  0  0
 13 14  1  0  0  0  0
 13 27  1  0  0  0  0
 14 15  2  0  0  0  0
 15 16  1  0  0  0  0
 15 26  1  0  0  0  0
 16 17  2  0  0  0  0
 16 21  1  0  0  0  0
 17 18  1  0  0  0  0
 17 25  1  0  0  0  0
 18 19  2  0  0  0  0
 18 24  1  0  0  0  0
 19 20  1  0  0  0  0
 19 23  1  0  0  0  0
 20 21  2  0  0  0  0
 20 22  1  0  0  0  0
 28 29  1  0  0  0  0
 28 35  1  0  0  0  0
 28 36  1  0  0  0  0
 29 30  1  0  0  0  0
 29 34  1  6  0  0  0
 30 31  1  0  0  0  0
 30 32  1  0  0  0  0
 30 33  1  0  0  0  0
 37 38  2  0  0  0  0
 37 43  1  0  0  0  0
 38 39  1  0  0  0  0
 38 48  1  0  0  0  0
 39 40  1  0  0  0  0
 39 41  2  0  0  0  0
 41 42  1  0  0  0  0
 41 47  1  0  0  0  0
 42 43  2  0  0  0  0
 42 46  1  0  0  0  0
 43 44  1  0  0  0  0
 44 45  2  0  0  0  0
M  CHG  1  30   1
M  END
>  <MODEL>
       1

$$$$
