output/tmp_first_model_15_96.pdb
 OpenBabel07232601353D

 37 39  0  0  0  0  0  0  0  0999 V2000
    8.7130    1.1920   20.6760 O   0  0  0  0  0  0  0  0  0  0  0  0
    7.9030    0.6590   21.4160 C   0  0  0  0  0  0  0  0  0  0  0  0
    6.9420   -0.4230   20.9110 C   0  0  0  0  0  0  0  0  0  0  0  0
    6.0990    0.0870   19.7720 C   0  0  0  0  0  0  0  0  0  0  0  0
    6.4240   -0.2070   18.4740 C   0  0  0  0  0  0  0  0  0  0  0  0
    5.7610    0.2430   17.3800 N   0  0  0  0  0  0  0  0  0  0  0  0
    4.7340    1.0290   17.5820 C   0  0  0  0  0  0  0  0  0  0  0  0
    4.2780    1.4170   18.8710 C   0  0  0  0  0  0  0  0  0  0  0  0
    3.1620    2.2730   19.0450 C   0  0  0  0  0  0  0  0  0  0  0  0
    2.7610    2.6420   20.3000 C   0  0  0  0  0  0  0  0  0  0  0  0
    3.4570    2.1700   21.4330 C   0  0  0  0  0  0  0  0  0  0  0  0
    4.5410    1.3400   21.2910 C   0  0  0  0  0  0  0  0  0  0  0  0
    4.9800    0.9420   20.0000 C   0  0  0  0  0  0  0  0  0  0  0  0
    5.0720    0.9880   22.1690 H   0  0  0  0  0  0  0  0  0  0  0  0
    3.1310    2.4660   22.4260 H   0  0  0  0  0  0  0  0  0  0  0  0
    1.9120    3.3080   20.4280 H   0  0  0  0  0  0  0  0  0  0  0  0
    2.6550    2.6410   18.1580 H   0  0  0  0  0  0  0  0  0  0  0  0
    4.2070    1.3930   16.6990 H   0  0  0  0  0  0  0  0  0  0  0  0
    7.2700   -0.8570   18.2480 H   0  0  0  0  0  0  0  0  0  0  0  0
    7.5640   -1.2450   20.5380 H   0  0  0  0  0  0  0  0  0  0  0  0
    6.3300   -0.8370   21.7230 H   0  0  0  0  0  0  0  0  0  0  0  0
    7.7920    0.9990   22.7330 N   0  0  0  0  0  0  0  0  0  0  0  0
    8.7170    1.9770   23.3020 C   0  0  0  0  0  0  0  0  0  0  0  0
   10.1470    1.4620   23.4550 C   0  0  0  0  0  0  0  0  0  0  0  0
   10.4080    0.5000   24.4270 C   0  0  0  0  0  0  0  0  0  0  0  0
   11.6900   -0.0150   24.5310 C   0  0  0  0  0  0  0  0  0  0  0  0
   12.7220    0.4450   23.7350 C   0  0  0  0  0  0  0  0  0  0  0  0
   12.4840    1.4860   22.8570 C   0  0  0  0  0  0  0  0  0  0  0  0
   13.9050    2.2570   22.2230 Cl  0  0  0  0  0  0  0  0  0  0  0  0
   11.1870    1.9490   22.6500 C   0  0  0  0  0  0  0  0  0  0  0  0
   10.9550    2.6590   21.8600 H   0  0  0  0  0  0  0  0  0  0  0  0
   13.7220    0.0390   23.8000 H   0  0  0  0  0  0  0  0  0  0  0  0
   11.8810   -0.7510   25.2830 H   0  0  0  0  0  0  0  0  0  0  0  0
    9.6200    0.1570   25.1020 H   0  0  0  0  0  0  0  0  0  0  0  0
    8.2970    2.2530   24.2780 H   0  0  0  0  0  0  0  0  0  0  0  0
    8.7130    2.8690   22.6670 H   0  0  0  0  0  0  0  0  0  0  0  0
    7.1770    0.4780   23.3400 H   0  0  0  0  0  0  0  0  0  0  0  0
  1  2  2  0  0  0  0
  2  3  1  0  0  0  0
  2 22  1  0  0  0  0
  3  4  1  0  0  0  0
  3 20  1  0  0  0  0
  3 21  1  0  0  0  0
  4  5  2  0  0  0  0
  4 13  1  0  0  0  0
  5  6  1  0  0  0  0
  5 19  1  0  0  0  0
  6  7  2  0  0  0  0
  7  8  1  0  0  0  0
  7 18  1  0  0  0  0
  8  9  2  0  0  0  0
  8 13  1  0  0  0  0
  9 10  1  0  0  0  0
  9 17  1  0  0  0  0
 10 11  2  0  0  0  0
 10 16  1  0  0  0  0
 11 12  1  0  0  0  0
 11 15  1  0  0  0  0
 12 13  2  0  0  0  0
 12 14  1  0  0  0  0
 22 23  1  0  0  0  0
 22 37  1  0  0  0  0
 23 24  1  0  0  0  0
 23 35  1  0  0  0  0
 23 36  1  0  0  0  0
 24 25  2  0  0  0  0
 24 30  1  0  0  0  0
 25 26  1  0  0  0  0
 25 34  1  0  0  0  0
 26 27  2  0  0  0  0
 26 33  1  0  0  0  0
 27 28  1  0  0  0  0
 27 32  1  0  0  0  0
 28 29  1  0  0  0  0
 28 30  2  0  0  0  0
 30 31  1  0  0  0  0
M  END
>  <MODEL>
       1

$$$$
