output/tmp_first_model_15_9.pdb
 OpenBabel07232601353D

 58 63  0  0  1  0  0  0  0  0999 V2000
    5.4410    5.0270   21.9930 C   0  0  0  0  0  0  0  0  0  0  0  0
    6.0490    4.1990   23.0820 C   0  0  0  0  0  0  0  0  0  0  0  0
    7.4350    3.9920   23.3240 C   0  0  0  0  0  0  0  0  0  0  0  0
    7.4610    3.1060   24.3510 C   0  0  0  0  0  0  0  0  0  0  0  0
    8.5770    2.3860   25.0460 C   0  0  0  0  0  0  0  0  0  0  0  0
    9.2160    1.3980   24.1910 N   0  0  0  0  0  0  0  0  0  0  0  0
    8.5630    0.1170   24.0080 C   0  0  0  0  0  0  0  0  0  0  0  0
    8.6360   -0.4070   22.5500 C   0  0  2  0  0  0  0  0  0  0  0  0
    7.8280    0.4620   21.5560 C   0  0  0  0  0  0  0  0  0  0  0  0
    7.9630    1.6470   21.3560 O   0  0  0  0  0  0  0  0  0  0  0  0
    6.9290   -0.3510   20.8910 N   0  0  0  0  0  0  0  0  0  0  0  0
    6.1570    0.1280   19.8060 C   0  0  0  0  0  0  0  0  0  0  0  0
    6.4610   -0.2260   18.5160 C   0  0  0  0  0  0  0  0  0  0  0  0
    5.7890    0.2070   17.4250 N   0  0  0  0  0  0  0  0  0  0  0  0
    4.7690    1.0060   17.6150 C   0  0  0  0  0  0  0  0  0  0  0  0
    4.3160    1.4140   18.9010 C   0  0  0  0  0  0  0  0  0  0  0  0
    3.1810    2.2530   19.0600 C   0  0  0  0  0  0  0  0  0  0  0  0
    2.7470    2.6040   20.3100 C   0  0  0  0  0  0  0  0  0  0  0  0
    3.4180    2.1220   21.4560 C   0  0  0  0  0  0  0  0  0  0  0  0
    4.5230    1.3120   21.3280 C   0  0  0  0  0  0  0  0  0  0  0  0
    5.0120    0.9530   20.0410 C   0  0  0  0  0  0  0  0  0  0  0  0
    5.0230    0.9150   22.2050 H   0  0  0  0  0  0  0  0  0  0  0  0
    3.0590    2.3990   22.4440 H   0  0  0  0  0  0  0  0  0  0  0  0
    1.8830    3.2540   20.4230 H   0  0  0  0  0  0  0  0  0  0  0  0
    2.6800    2.6150   18.1670 H   0  0  0  0  0  0  0  0  0  0  0  0
    4.2370    1.3590   16.7320 H   0  0  0  0  0  0  0  0  0  0  0  0
    7.3110   -0.8750   18.3060 H   0  0  0  0  0  0  0  0  0  0  0  0
    7.2100   -1.7600   21.0630 C   0  0  0  0  0  0  0  0  0  0  0  0
    8.0030   -1.8290   22.3840 C   0  0  2  0  0  0  0  0  0  0  0  0
    7.1110   -2.3090   23.5320 C   0  0  0  0  0  0  0  0  0  0  0  0
    6.7600   -3.3270   23.3350 H   0  0  0  0  0  0  0  0  0  0  0  0
    7.6620   -2.3410   24.4750 H   0  0  0  0  0  0  0  0  0  0  0  0
    6.2340   -1.6680   23.6670 H   0  0  0  0  0  0  0  0  0  0  0  0
    8.8010   -2.5730   22.3130 H   0  0  0  0  0  0  0  0  0  0  0  0
    7.8000   -2.1480   20.2240 H   0  0  0  0  0  0  0  0  0  0  0  0
    6.2690   -2.3180   21.1030 H   0  0  0  0  0  0  0  0  0  0  0  0
   10.1050   -0.3460   22.1610 C   0  0  0  0  0  0  0  0  0  0  0  0
   10.6640   -1.3070   21.3230 C   0  0  0  0  0  0  0  0  0  0  0  0
   12.0020   -1.2450   21.0020 C   0  0  0  0  0  0  0  0  0  0  0  0
   12.4970   -2.1870   20.1850 F   0  0  0  0  0  0  0  0  0  0  0  0
   12.8140   -0.1940   21.4290 C   0  0  0  0  0  0  0  0  0  0  0  0
   12.2450    0.7990   22.1990 C   0  0  0  0  0  0  0  0  0  0  0  0
   10.9100    0.7120   22.6030 C   0  0  0  0  0  0  0  0  0  0  0  0
   10.4070    1.7090   23.5990 C   0  0  0  0  0  0  0  0  0  0  0  0
   11.0260    2.7280   23.8810 O   0  0  0  0  0  0  0  0  0  0  0  0
   12.8430    1.6370   22.5370 H   0  0  0  0  0  0  0  0  0  0  0  0
   13.8520   -0.1240   21.1270 H   0  0  0  0  0  0  0  0  0  0  0  0
   10.0870   -2.1200   20.9010 H   0  0  0  0  0  0  0  0  0  0  0  0
    7.5300    0.2470   24.3220 H   0  0  0  0  0  0  0  0  0  0  0  0
    9.0290   -0.6290   24.6710 H   0  0  0  0  0  0  0  0  0  0  0  0
    9.3610    3.0930   25.3250 H   0  0  0  0  0  0  0  0  0  0  0  0
    8.1900    1.9110   25.9510 H   0  0  0  0  0  0  0  0  0  0  0  0
    6.2060    2.8330   24.7400 O   0  0  0  0  0  0  0  0  0  0  0  0
    5.3130    3.5180   23.9360 N   0  0  0  0  0  0  0  0  0  0  0  0
    8.2650    4.3870   22.7560 H   0  0  0  0  0  0  0  0  0  0  0  0
    6.0120    5.9480   21.8480 H   0  0  0  0  0  0  0  0  0  0  0  0
    4.4020    5.2800   22.2180 H   0  0  0  0  0  0  0  0  0  0  0  0
    5.4620    4.4660   21.0510 H   0  0  0  0  0  0  0  0  0  0  0  0
  1  2  1  0  0  0  0
  1 56  1  0  0  0  0
  1 57  1  0  0  0  0
  1 58  1  0  0  0  0
  2  3  1  0  0  0  0
  2 54  2  0  0  0  0
  3  4  2  0  0  0  0
  3 55  1  0  0  0  0
  4  5  1  0  0  0  0
  4 53  1  0  0  0  0
  5  6  1  0  0  0  0
  5 51  1  0  0  0  0
  5 52  1  0  0  0  0
  6  7  1  0  0  0  0
  6 44  1  0  0  0  0
  7  8  1  0  0  0  0
  7 49  1  0  0  0  0
  7 50  1  0  0  0  0
  8  9  1  6  0  0  0
  8 29  1  0  0  0  0
  8 37  1  0  0  0  0
  9 10  2  0  0  0  0
  9 11  1  0  0  0  0
 11 12  1  0  0  0  0
 11 28  1  0  0  0  0
 12 13  2  0  0  0  0
 12 21  1  0  0  0  0
 13 14  1  0  0  0  0
 13 27  1  0  0  0  0
 14 15  2  0  0  0  0
 15 16  1  0  0  0  0
 15 26  1  0  0  0  0
 16 17  2  0  0  0  0
 16 21  1  0  0  0  0
 17 18  1  0  0  0  0
 17 25  1  0  0  0  0
 18 19  2  0  0  0  0
 18 24  1  0  0  0  0
 19 20  1  0  0  0  0
 19 23  1  0  0  0  0
 20 21  2  0  0  0  0
 20 22  1  0  0  0  0
 28 29  1  0  0  0  0
 28 35  1  0  0  0  0
 28 36  1  0  0  0  0
 29 30  1  0  0  0  0
 29 34  1  6  0  0  0
 30 31  1  0  0  0  0
 30 32  1  0  0  0  0
 30 33  1  0  0  0  0
 37 38  2  0  0  0  0
 37 43  1  0  0  0  0
 38 39  1  0  0  0  0
 38 48  1  0  0  0  0
 39 40  1  0  0  0  0
 39 41  2  0  0  0  0
 41 42  1  0  0  0  0
 41 47  1  0  0  0  0
 42 43  2  0  0  0  0
 42 46  1  0  0  0  0
 43 44  1  0  0  0  0
 44 45  2  0  0  0  0
 53 54  1  0  0  0  0
M  END
>  <MODEL>
       1

$$$$
