output/tmp_first_model_19_36.pdb
 OpenBabel07232603163D

 59 64  0  0  1  0  0  0  0  0999 V2000
    7.7420   -3.0260   23.2820 C   0  0  0  0  0  0  0  0  0  0  0  0
    7.9990   -1.9270   22.2650 C   0  0  1  0  0  0  0  0  0  0  0  0
    6.8570   -1.7810   21.2530 C   0  0  0  0  0  0  0  0  0  0  0  0
    6.9530   -0.3970   20.8410 N   0  0  0  0  0  0  0  0  0  0  0  0
    6.1590    0.1180   19.7890 C   0  0  0  0  0  0  0  0  0  0  0  0
    6.4580   -0.2320   18.4980 C   0  0  0  0  0  0  0  0  0  0  0  0
    5.7910    0.2030   17.4030 N   0  0  0  0  0  0  0  0  0  0  0  0
    4.7680    0.9980   17.6100 C   0  0  0  0  0  0  0  0  0  0  0  0
    4.3160    1.3960   18.8980 C   0  0  0  0  0  0  0  0  0  0  0  0
    3.1840    2.2360   19.0530 C   0  0  0  0  0  0  0  0  0  0  0  0
    2.7480    2.5880   20.2980 C   0  0  0  0  0  0  0  0  0  0  0  0
    3.4130    2.1070   21.4480 C   0  0  0  0  0  0  0  0  0  0  0  0
    4.5150    1.2960   21.3240 C   0  0  0  0  0  0  0  0  0  0  0  0
    5.0100    0.9350   20.0390 C   0  0  0  0  0  0  0  0  0  0  0  0
    5.0140    0.9420   22.2200 H   0  0  0  0  0  0  0  0  0  0  0  0
    3.0480    2.3840   22.4300 H   0  0  0  0  0  0  0  0  0  0  0  0
    1.8860    3.2390   20.4100 H   0  0  0  0  0  0  0  0  0  0  0  0
    2.6890    2.6010   18.1580 H   0  0  0  0  0  0  0  0  0  0  0  0
    4.2300    1.3590   16.7330 H   0  0  0  0  0  0  0  0  0  0  0  0
    7.3040   -0.8910   18.3100 H   0  0  0  0  0  0  0  0  0  0  0  0
    7.6870    0.3980   21.6950 C   0  0  0  0  0  0  0  0  0  0  0  0
    7.8340    1.5960   21.5590 O   0  0  0  0  0  0  0  0  0  0  0  0
    8.2350   -0.4800   22.8400 C   0  0  1  0  0  0  0  0  0  0  0  0
    7.4070   -0.1130   24.1000 C   0  0  0  0  0  0  0  0  0  0  0  0
    7.9890   -0.5830   25.3500 N   0  0  0  0  0  0  0  0  0  0  0  0
    7.1410   -0.8500   26.4990 C   0  0  0  0  0  0  0  0  0  0  0  0
    6.8880   -2.3130   26.7030 C   0  0  0  0  0  0  0  0  0  0  0  0
    7.7420   -3.3190   27.2080 C   0  0  0  0  0  0  0  0  0  0  0  0
    6.9540   -4.4430   27.2490 C   0  0  0  0  0  0  0  0  0  0  0  0
    5.7480   -4.0950   26.7590 N   0  0  0  0  0  0  0  0  0  0  0  0
    4.5990   -4.9290   26.4830 C   0  0  0  0  0  0  0  0  0  0  0  0
    4.5380   -5.1160   25.4070 H   0  0  0  0  0  0  0  0  0  0  0  0
    4.7120   -5.8770   27.0170 H   0  0  0  0  0  0  0  0  0  0  0  0
    3.7020   -4.3910   26.8060 H   0  0  0  0  0  0  0  0  0  0  0  0
    5.6880   -2.8020   26.4220 N   0  0  0  0  0  0  0  0  0  0  0  0
    7.1450   -5.4740   27.5380 H   0  0  0  0  0  0  0  0  0  0  0  0
    8.7850   -3.2180   27.4880 H   0  0  0  0  0  0  0  0  0  0  0  0
    7.6570   -0.4390   27.3730 H   0  0  0  0  0  0  0  0  0  0  0  0
    6.1950   -0.3150   26.3660 H   0  0  0  0  0  0  0  0  0  0  0  0
    9.3310   -0.6220   25.5910 C   0  0  0  0  0  0  0  0  0  0  0  0
    9.7990   -0.9300   26.6800 O   0  0  0  0  0  0  0  0  0  0  0  0
   10.2030   -0.2840   24.4460 C   0  0  0  0  0  0  0  0  0  0  0  0
   11.5590   -0.1160   24.7220 C   0  0  0  0  0  0  0  0  0  0  0  0
   12.4620    0.0890   23.7020 C   0  0  0  0  0  0  0  0  0  0  0  0
   11.9670    0.0920   22.4040 C   0  0  0  0  0  0  0  0  0  0  0  0
   12.8530    0.1310   21.4050 F   0  0  0  0  0  0  0  0  0  0  0  0
   10.6160   -0.0010   22.1150 C   0  0  0  0  0  0  0  0  0  0  0  0
    9.6990   -0.2080   23.1460 C   0  0  0  0  0  0  0  0  0  0  0  0
   10.2520    0.0860   21.1030 H   0  0  0  0  0  0  0  0  0  0  0  0
   13.5230    0.2210   23.8790 H   0  0  0  0  0  0  0  0  0  0  0  0
   11.8860   -0.1930   25.7540 H   0  0  0  0  0  0  0  0  0  0  0  0
    7.3180    0.9830   24.1210 H   0  0  0  0  0  0  0  0  0  0  0  0
    6.3940   -0.5290   24.0140 H   0  0  0  0  0  0  0  0  0  0  0  0
    6.9650   -2.4360   20.3850 H   0  0  0  0  0  0  0  0  0  0  0  0
    5.8760   -2.0080   21.7040 H   0  0  0  0  0  0  0  0  0  0  0  0
    8.9120   -2.1650   21.6980 H   0  0  0  0  0  0  0  0  0  0  0  0
    7.7050   -4.0010   22.7840 H   0  0  0  0  0  0  0  0  0  0  0  0
    6.7850   -2.8560   23.7880 H   0  0  0  0  0  0  0  0  0  0  0  0
    8.5320   -3.0400   24.0390 H   0  0  0  0  0  0  0  0  0  0  0  0
  1  2  1  0  0  0  0
  1 57  1  0  0  0  0
  1 58  1  0  0  0  0
  1 59  1  0  0  0  0
  2  3  1  0  0  0  0
  2 23  1  0  0  0  0
  2 56  1  6  0  0  0
  3  4  1  0  0  0  0
  3 54  1  0  0  0  0
  3 55  1  0  0  0  0
  4  5  1  0  0  0  0
  4 21  1  0  0  0  0
  5  6  2  0  0  0  0
  5 14  1  0  0  0  0
  6  7  1  0  0  0  0
  6 20  1  0  0  0  0
  7  8  2  0  0  0  0
  8  9  1  0  0  0  0
  8 19  1  0  0  0  0
  9 10  2  0  0  0  0
  9 14  1  0  0  0  0
 10 11  1  0  0  0  0
 10 18  1  0  0  0  0
 11 12  2  0  0  0  0
 11 17  1  0  0  0  0
 12 13  1  0  0  0  0
 12 16  1  0  0  0  0
 13 14  2  0  0  0  0
 13 15  1  0  0  0  0
 21 22  2  0  0  0  0
 23 21  1  6  0  0  0
 23 24  1  0  0  0  0
 23 48  1  0  0  0  0
 24 25  1  0  0  0  0
 24 52  1  0  0  0  0
 24 53  1  0  0  0  0
 25 26  1  0  0  0  0
 25 40  1  0  0  0  0
 26 27  1  0  0  0  0
 26 38  1  0  0  0  0
 26 39  1  0  0  0  0
 27 28  1  0  0  0  0
 27 35  2  0  0  0  0
 28 29  2  0  0  0  0
 28 37  1  0  0  0  0
 29 30  1  0  0  0  0
 29 36  1  0  0  0  0
 30 31  1  0  0  0  0
 30 35  1  0  0  0  0
 31 32  1  0  0  0  0
 31 33  1  0  0  0  0
 31 34  1  0  0  0  0
 40 41  2  0  0  0  0
 40 42  1  0  0  0  0
 42 43  2  0  0  0  0
 42 48  1  0  0  0  0
 43 44  1  0  0  0  0
 43 51  1  0  0  0  0
 44 45  2  0  0  0  0
 44 50  1  0  0  0  0
 45 46  1  0  0  0  0
 45 47  1  0  0  0  0
 47 48  2  0  0  0  0
 47 49  1  0  0  0  0
M  END
>  <MODEL>
       1

$$$$
