output/tmp_first_model_15_86.pdb
 OpenBabel07232601353D

 65 70  0  0  1  0  0  0  0  0999 V2000
    6.5920    4.3590   21.3530 C   0  0  0  0  0  0  0  0  0  0  0  0
    7.5820    3.9720   22.3450 N   0  0  0  0  0  0  0  0  0  0  0  0
    7.1220    3.3120   23.4490 C   0  0  0  0  0  0  0  0  0  0  0  0
    5.9270    3.1220   23.6310 O   0  0  0  0  0  0  0  0  0  0  0  0
    8.1540    2.8130   24.4570 C   0  0  0  0  0  0  0  0  0  0  0  0
    8.8200    1.6160   23.9850 N   0  0  0  0  0  0  0  0  0  0  0  0
    8.0370    0.3900   23.8820 C   0  0  0  0  0  0  0  0  0  0  0  0
    8.4360   -0.4160   22.6230 C   0  0  2  0  0  0  0  0  0  0  0  0
    7.9600    0.2900   21.3320 C   0  0  0  0  0  0  0  0  0  0  0  0
    8.4530    1.2630   20.7980 O   0  0  0  0  0  0  0  0  0  0  0  0
    6.8840   -0.4050   20.8370 N   0  0  0  0  0  0  0  0  0  0  0  0
    6.1220    0.1050   19.7660 C   0  0  0  0  0  0  0  0  0  0  0  0
    6.4720   -0.1980   18.4770 C   0  0  0  0  0  0  0  0  0  0  0  0
    5.7930    0.2350   17.3920 N   0  0  0  0  0  0  0  0  0  0  0  0
    4.7530    1.0060   17.6010 C   0  0  0  0  0  0  0  0  0  0  0  0
    4.2920    1.4010   18.8900 C   0  0  0  0  0  0  0  0  0  0  0  0
    3.1730    2.2530   19.0670 C   0  0  0  0  0  0  0  0  0  0  0  0
    2.7730    2.6260   20.3210 C   0  0  0  0  0  0  0  0  0  0  0  0
    3.4720    2.1670   21.4600 C   0  0  0  0  0  0  0  0  0  0  0  0
    4.5570    1.3350   21.3170 C   0  0  0  0  0  0  0  0  0  0  0  0
    4.9930    0.9340   20.0220 C   0  0  0  0  0  0  0  0  0  0  0  0
    5.1110    1.0220   22.1970 H   0  0  0  0  0  0  0  0  0  0  0  0
    3.1700    2.4910   22.4500 H   0  0  0  0  0  0  0  0  0  0  0  0
    1.9200    3.2850   20.4440 H   0  0  0  0  0  0  0  0  0  0  0  0
    2.6630    2.6150   18.1800 H   0  0  0  0  0  0  0  0  0  0  0  0
    4.2160    1.3590   16.7230 H   0  0  0  0  0  0  0  0  0  0  0  0
    7.3410   -0.8270   18.2930 H   0  0  0  0  0  0  0  0  0  0  0  0
    6.4790   -1.5440   21.6270 C   0  0  0  0  0  0  0  0  0  0  0  0
    7.7040   -1.7880   22.5160 C   0  0  2  0  0  0  0  0  0  0  0  0
    7.3640   -2.5190   23.8190 C   0  0  0  0  0  0  0  0  0  0  0  0
    6.8300   -3.8440   23.5640 N   0  0  0  0  0  0  0  0  0  0  0  0
    5.5210   -4.1430   23.5150 C   0  0  0  0  0  0  0  0  0  0  0  0
    4.6170   -3.1880   23.8280 N   0  0  0  0  0  0  0  0  0  0  0  0
    3.3560   -3.6010   23.7730 C   0  0  0  0  0  0  0  0  0  0  0  0
    2.9320   -4.8160   23.4360 N   0  0  0  0  0  0  0  0  0  0  0  0
    3.9210   -5.6690   23.1480 C   0  0  0  0  0  0  0  0  0  0  0  0
    5.2140   -5.4110   23.1580 N   0  0  0  0  0  0  0  0  0  0  0  0
    3.6270   -6.6850   22.8790 H   0  0  0  0  0  0  0  0  0  0  0  0
    2.5890   -2.8690   24.0310 H   0  0  0  0  0  0  0  0  0  0  0  0
    7.4610   -4.5990   23.3340 H   0  0  0  0  0  0  0  0  0  0  0  0
    6.6010   -1.9660   24.3730 H   0  0  0  0  0  0  0  0  0  0  0  0
    8.2610   -2.6050   24.4460 H   0  0  0  0  0  0  0  0  0  0  0  0
    8.3650   -2.4560   21.9590 H   0  0  0  0  0  0  0  0  0  0  0  0
    6.2540   -2.4050   20.9870 H   0  0  0  0  0  0  0  0  0  0  0  0
    5.5790   -1.3270   22.2190 H   0  0  0  0  0  0  0  0  0  0  0  0
    9.9390   -0.4940   22.5460 C   0  0  0  0  0  0  0  0  0  0  0  0
   10.5060   -1.3760   21.6300 C   0  0  0  0  0  0  0  0  0  0  0  0
   11.8670   -1.4050   21.4580 C   0  0  0  0  0  0  0  0  0  0  0  0
   12.4470   -2.4680   20.2230 Cl  0  0  0  0  0  0  0  0  0  0  0  0
   12.7180   -0.6000   22.2120 C   0  0  0  0  0  0  0  0  0  0  0  0
   12.1610    0.3060   23.0930 C   0  0  0  0  0  0  0  0  0  0  0  0
   10.7730    0.4110   23.2080 C   0  0  0  0  0  0  0  0  0  0  0  0
   10.1920    1.5830   23.9460 C   0  0  0  0  0  0  0  0  0  0  0  0
   10.8960    2.4560   24.4320 O   0  0  0  0  0  0  0  0  0  0  0  0
   12.7850    0.9690   23.6790 H   0  0  0  0  0  0  0  0  0  0  0  0
   13.7850   -0.6720   22.0580 H   0  0  0  0  0  0  0  0  0  0  0  0
    9.9160   -2.0420   21.0090 H   0  0  0  0  0  0  0  0  0  0  0  0
    8.2060   -0.2320   24.7750 H   0  0  0  0  0  0  0  0  0  0  0  0
    6.9720    0.6540   23.8420 H   0  0  0  0  0  0  0  0  0  0  0  0
    8.9310    3.5490   24.6730 H   0  0  0  0  0  0  0  0  0  0  0  0
    7.6140    2.6120   25.3860 H   0  0  0  0  0  0  0  0  0  0  0  0
    8.4920    3.7430   21.9680 H   0  0  0  0  0  0  0  0  0  0  0  0
    5.8160    4.9580   21.8280 H   0  0  0  0  0  0  0  0  0  0  0  0
    7.0530    4.9700   20.5710 H   0  0  0  0  0  0  0  0  0  0  0  0
    6.1170    3.4770   20.9030 H   0  0  0  0  0  0  0  0  0  0  0  0
  1  2  1  0  0  0  0
  1 63  1  0  0  0  0
  1 64  1  0  0  0  0
  1 65  1  0  0  0  0
  2  3  1  0  0  0  0
  2 62  1  0  0  0  0
  3  4  2  0  0  0  0
  3  5  1  0  0  0  0
  5  6  1  0  0  0  0
  5 60  1  0  0  0  0
  5 61  1  0  0  0  0
  6  7  1  0  0  0  0
  6 53  1  0  0  0  0
  7  8  1  0  0  0  0
  7 58  1  0  0  0  0
  7 59  1  0  0  0  0
  8  9  1  6  0  0  0
  8 29  1  0  0  0  0
  8 46  1  0  0  0  0
  9 10  2  0  0  0  0
  9 11  1  0  0  0  0
 11 12  1  0  0  0  0
 11 28  1  0  0  0  0
 12 13  2  0  0  0  0
 12 21  1  0  0  0  0
 13 14  1  0  0  0  0
 13 27  1  0  0  0  0
 14 15  2  0  0  0  0
 15 16  1  0  0  0  0
 15 26  1  0  0  0  0
 16 17  2  0  0  0  0
 16 21  1  0  0  0  0
 17 18  1  0  0  0  0
 17 25  1  0  0  0  0
 18 19  2  0  0  0  0
 18 24  1  0  0  0  0
 19 20  1  0  0  0  0
 19 23  1  0  0  0  0
 20 21  2  0  0  0  0
 20 22  1  0  0  0  0
 28 29  1  0  0  0  0
 28 44  1  0  0  0  0
 28 45  1  0  0  0  0
 29 30  1  0  0  0  0
 29 43  1  6  0  0  0
 30 31  1  0  0  0  0
 30 41  1  0  0  0  0
 30 42  1  0  0  0  0
 31 32  1  0  0  0  0
 31 40  1  0  0  0  0
 32 33  2  0  0  0  0
 32 37  1  0  0  0  0
 33 34  1  0  0  0  0
 34 35  2  0  0  0  0
 34 39  1  0  0  0  0
 35 36  1  0  0  0  0
 36 37  2  0  0  0  0
 36 38  1  0  0  0  0
 46 47  2  0  0  0  0
 46 52  1  0  0  0  0
 47 48  1  0  0  0  0
 47 57  1  0  0  0  0
 48 49  1  0  0  0  0
 48 50  2  0  0  0  0
 50 51  1  0  0  0  0
 50 56  1  0  0  0  0
 51 52  2  0  0  0  0
 51 55  1  0  0  0  0
 52 53  1  0  0  0  0
 53 54  2  0  0  0  0
M  END
>  <MODEL>
       1

$$$$
