output/tmp_first_model_1_48.pdb
 OpenBabel07222618483D

 41 43  0  0  1  0  0  0  0  0999 V2000
    9.6580    1.8130   26.0890 C   0  0  0  0  0  0  0  0  0  0  0  0
    8.4030    2.0740   25.2830 C   0  0  1  0  0  0  0  0  0  0  0  0
    8.7560    2.4240   23.8330 C   0  0  0  0  0  0  0  0  0  0  0  0
    9.2870    1.2490   23.0170 C   0  0  0  0  0  0  0  0  0  0  0  0
    8.2350    0.3260   22.6070 N   0  0  0  0  0  0  0  0  0  0  0  0
    7.7480    0.4470   21.3370 C   0  0  0  0  0  0  0  0  0  0  0  0
    8.1400    1.3190   20.5750 O   0  0  0  0  0  0  0  0  0  0  0  0
    6.7470   -0.6310   20.8920 C   0  0  0  0  0  0  0  0  0  0  0  0
    5.8310   -0.1810   19.7980 C   0  0  0  0  0  0  0  0  0  0  0  0
    6.2940   -0.1960   18.5020 C   0  0  0  0  0  0  0  0  0  0  0  0
    5.5860    0.1840   17.4070 N   0  0  0  0  0  0  0  0  0  0  0  0
    4.3760    0.6310   17.6300 C   0  0  0  0  0  0  0  0  0  0  0  0
    3.7670    0.7220   18.9140 C   0  0  0  0  0  0  0  0  0  0  0  0
    2.4750    1.2780   19.0840 C   0  0  0  0  0  0  0  0  0  0  0  0
    1.9380    1.4770   20.3270 C   0  0  0  0  0  0  0  0  0  0  0  0
    2.6740    1.0950   21.4690 C   0  0  0  0  0  0  0  0  0  0  0  0
    3.9030    0.4900   21.3320 C   0  0  0  0  0  0  0  0  0  0  0  0
    4.5160    0.3210   20.0510 C   0  0  0  0  0  0  0  0  0  0  0  0
    4.4080    0.1400   22.2300 H   0  0  0  0  0  0  0  0  0  0  0  0
    2.2720    1.3100   22.4580 H   0  0  0  0  0  0  0  0  0  0  0  0
    0.9780    1.9670   20.4430 H   0  0  0  0  0  0  0  0  0  0  0  0
    1.9840    1.6470   18.1950 H   0  0  0  0  0  0  0  0  0  0  0  0
    3.7880    0.9330   16.7600 H   0  0  0  0  0  0  0  0  0  0  0  0
    7.3200   -0.5010   18.3060 H   0  0  0  0  0  0  0  0  0  0  0  0
    7.3620   -1.4610   20.5140 H   0  0  0  0  0  0  0  0  0  0  0  0
    6.1520   -1.0370   21.7130 H   0  0  0  0  0  0  0  0  0  0  0  0
    7.5780   -0.5520   23.5600 C   0  0  0  0  0  0  0  0  0  0  0  0
    7.8930   -0.2780   25.0160 C   0  0  0  0  0  0  0  0  0  0  0  0
    7.4670    1.0080   25.4190 O   0  0  0  0  0  0  0  0  0  0  0  0
    8.9530   -0.4650   25.2240 H   0  0  0  0  0  0  0  0  0  0  0  0
    7.3110   -0.9860   25.6160 H   0  0  0  0  0  0  0  0  0  0  0  0
    7.8260   -1.5990   23.3280 H   0  0  0  0  0  0  0  0  0  0  0  0
    6.4890   -0.4270   23.4780 H   0  0  0  0  0  0  0  0  0  0  0  0
   10.0550    0.6940   23.5660 H   0  0  0  0  0  0  0  0  0  0  0  0
    9.7590    1.6140   22.1060 H   0  0  0  0  0  0  0  0  0  0  0  0
    7.8880    2.8540   23.3230 H   0  0  0  0  0  0  0  0  0  0  0  0
    9.5250    3.2060   23.8770 H   0  0  0  0  0  0  0  0  0  0  0  0
    7.8690    2.9300   25.7130 H   0  0  0  0  0  0  0  0  0  0  0  0
   10.3310    2.6720   26.0020 H   0  0  0  0  0  0  0  0  0  0  0  0
    9.3980    1.6230   27.1340 H   0  0  0  0  0  0  0  0  0  0  0  0
   10.1910    0.9380   25.7030 H   0  0  0  0  0  0  0  0  0  0  0  0
  1  2  1  0  0  0  0
  1 39  1  0  0  0  0
  1 40  1  0  0  0  0
  1 41  1  0  0  0  0
  2  3  1  0  0  0  0
  2 29  1  0  0  0  0
  2 38  1  1  0  0  0
  3  4  1  0  0  0  0
  3 36  1  0  0  0  0
  3 37  1  0  0  0  0
  4  5  1  0  0  0  0
  4 34  1  0  0  0  0
  4 35  1  0  0  0  0
  5  6  1  0  0  0  0
  5 27  1  0  0  0  0
  6  7  2  0  0  0  0
  6  8  1  0  0  0  0
  8  9  1  0  0  0  0
  8 25  1  0  0  0  0
  8 26  1  0  0  0  0
  9 10  2  0  0  0  0
  9 18  1  0  0  0  0
 10 11  1  0  0  0  0
 10 24  1  0  0  0  0
 11 12  2  0  0  0  0
 12 13  1  0  0  0  0
 12 23  1  0  0  0  0
 13 14  2  0  0  0  0
 13 18  1  0  0  0  0
 14 15  1  0  0  0  0
 14 22  1  0  0  0  0
 15 16  2  0  0  0  0
 15 21  1  0  0  0  0
 16 17  1  0  0  0  0
 16 20  1  0  0  0  0
 17 18  2  0  0  0  0
 17 19  1  0  0  0  0
 27 28  1  0  0  0  0
 27 32  1  0  0  0  0
 27 33  1  0  0  0  0
 28 29  1  0  0  0  0
 28 30  1  0  0  0  0
 28 31  1  0  0  0  0
M  END
>  <MODEL>
       1

$$$$
