output/tmp_first_model_7_39.pdb
 OpenBabel07222621533D

 60 64  0  0  1  0  0  0  0  0999 V2000
    8.2600   -4.6100   24.7310 C   0  0  0  0  0  0  0  0  0  0  0  0
    8.7570   -3.7520   23.5870 C   0  0  0  0  0  0  0  0  0  0  0  0
    7.6870   -2.9230   23.1830 O   0  0  0  0  0  0  0  0  0  0  0  0
    8.0200   -1.9540   22.2230 C   0  0  1  0  0  0  0  0  0  0  0  0
    6.8200   -1.8250   21.2890 C   0  0  0  0  0  0  0  0  0  0  0  0
    6.8430   -0.4360   20.9120 N   0  0  0  0  0  0  0  0  0  0  0  0
    6.0250    0.0560   19.8650 C   0  0  0  0  0  0  0  0  0  0  0  0
    6.4180   -0.1490   18.5670 C   0  0  0  0  0  0  0  0  0  0  0  0
    5.7530    0.3010   17.4780 N   0  0  0  0  0  0  0  0  0  0  0  0
    4.6350    0.9490   17.6860 C   0  0  0  0  0  0  0  0  0  0  0  0
    4.0710    1.1680   18.9750 C   0  0  0  0  0  0  0  0  0  0  0  0
    2.8280    1.8330   19.1320 C   0  0  0  0  0  0  0  0  0  0  0  0
    2.2400    1.9360   20.3630 C   0  0  0  0  0  0  0  0  0  0  0  0
    2.8770    1.3750   21.4950 C   0  0  0  0  0  0  0  0  0  0  0  0
    4.0940    0.7470   21.3710 C   0  0  0  0  0  0  0  0  0  0  0  0
    4.7480    0.6630   20.1090 C   0  0  0  0  0  0  0  0  0  0  0  0
    4.5720    0.3140   22.2430 H   0  0  0  0  0  0  0  0  0  0  0  0
    2.4040    1.4600   22.4650 H   0  0  0  0  0  0  0  0  0  0  0  0
    1.2970    2.4610   20.4810 H   0  0  0  0  0  0  0  0  0  0  0  0
    2.3420    2.2230   18.2450 H   0  0  0  0  0  0  0  0  0  0  0  0
    4.1270    1.3570   16.8130 H   0  0  0  0  0  0  0  0  0  0  0  0
    7.3470   -0.6740   18.3590 H   0  0  0  0  0  0  0  0  0  0  0  0
    7.6830    0.3580   21.6690 C   0  0  0  0  0  0  0  0  0  0  0  0
    7.8150    1.5540   21.5110 O   0  0  0  0  0  0  0  0  0  0  0  0
    8.3020   -0.5070   22.7840 C   0  0  1  0  0  0  0  0  0  0  0  0
    7.4670   -0.1770   24.0450 C   0  0  0  0  0  0  0  0  0  0  0  0
    8.0640   -0.7250   25.2550 N   0  0  0  0  0  0  0  0  0  0  0  0
    7.2010   -1.2400   26.2950 C   0  0  0  0  0  0  0  0  0  0  0  0
    6.5750   -0.1120   27.1160 C   0  0  0  0  0  0  0  0  0  0  0  0
    5.5140    0.4020   26.7940 O   0  0  0  0  0  0  0  0  0  0  0  0
    7.2820    0.2800   28.2040 N   0  0  0  0  0  0  0  0  0  0  0  0
    6.7710    1.3770   28.9980 C   0  0  0  0  0  0  0  0  0  0  0  0
    5.7670    1.1340   29.3520 H   0  0  0  0  0  0  0  0  0  0  0  0
    6.7010    2.3000   28.4120 H   0  0  0  0  0  0  0  0  0  0  0  0
    7.4180    1.5410   29.8600 H   0  0  0  0  0  0  0  0  0  0  0  0
    8.2660    0.0510   28.2280 H   0  0  0  0  0  0  0  0  0  0  0  0
    6.4110   -1.8290   25.8170 H   0  0  0  0  0  0  0  0  0  0  0  0
    7.7870   -1.9020   26.9380 H   0  0  0  0  0  0  0  0  0  0  0  0
    9.3500   -0.4250   25.5860 C   0  0  0  0  0  0  0  0  0  0  0  0
    9.7470   -0.3470   26.7480 O   0  0  0  0  0  0  0  0  0  0  0  0
   10.2570   -0.2280   24.4250 C   0  0  0  0  0  0  0  0  0  0  0  0
   11.6100   -0.0730   24.7250 C   0  0  0  0  0  0  0  0  0  0  0  0
   12.5180    0.1900   23.7210 C   0  0  0  0  0  0  0  0  0  0  0  0
   12.0500    0.2720   22.4120 C   0  0  0  0  0  0  0  0  0  0  0  0
   13.2440    0.6420   21.1940 Cl  0  0  0  0  0  0  0  0  0  0  0  0
   10.7090    0.0740   22.0920 C   0  0  0  0  0  0  0  0  0  0  0  0
    9.7720   -0.2080   23.1040 C   0  0  0  0  0  0  0  0  0  0  0  0
   10.3900    0.1580   21.0600 H   0  0  0  0  0  0  0  0  0  0  0  0
   13.5730    0.3400   23.9330 H   0  0  0  0  0  0  0  0  0  0  0  0
   11.9250   -0.1710   25.7600 H   0  0  0  0  0  0  0  0  0  0  0  0
    7.3860    0.9180   24.1050 H   0  0  0  0  0  0  0  0  0  0  0  0
    6.4520   -0.5780   23.9520 H   0  0  0  0  0  0  0  0  0  0  0  0
    6.8840   -2.4710   20.4050 H   0  0  0  0  0  0  0  0  0  0  0  0
    5.9090   -2.1080   21.8340 H   0  0  0  0  0  0  0  0  0  0  0  0
    8.8990   -2.2650   21.6370 H   0  0  0  0  0  0  0  0  0  0  0  0
    9.6080   -3.1220   23.8880 H   0  0  0  0  0  0  0  0  0  0  0  0
    9.0840   -4.3770   22.7400 H   0  0  0  0  0  0  0  0  0  0  0  0
    7.3570   -5.1500   24.4310 H   0  0  0  0  0  0  0  0  0  0  0  0
    9.0280   -5.3330   25.0230 H   0  0  0  0  0  0  0  0  0  0  0  0
    8.0160   -3.9830   25.5970 H   0  0  0  0  0  0  0  0  0  0  0  0
  1  2  1  0  0  0  0
  1 58  1  0  0  0  0
  1 59  1  0  0  0  0
  1 60  1  0  0  0  0
  2  3  1  0  0  0  0
  2 56  1  0  0  0  0
  2 57  1  0  0  0  0
  3  4  1  0  0  0  0
  4  5  1  0  0  0  0
  4 25  1  0  0  0  0
  4 55  1  6  0  0  0
  5  6  1  0  0  0  0
  5 53  1  0  0  0  0
  5 54  1  0  0  0  0
  6  7  1  0  0  0  0
  6 23  1  0  0  0  0
  7  8  2  0  0  0  0
  7 16  1  0  0  0  0
  8  9  1  0  0  0  0
  8 22  1  0  0  0  0
  9 10  2  0  0  0  0
 10 11  1  0  0  0  0
 10 21  1  0  0  0  0
 11 12  2  0  0  0  0
 11 16  1  0  0  0  0
 12 13  1  0  0  0  0
 12 20  1  0  0  0  0
 13 14  2  0  0  0  0
 13 19  1  0  0  0  0
 14 15  1  0  0  0  0
 14 18  1  0  0  0  0
 15 16  2  0  0  0  0
 15 17  1  0  0  0  0
 23 24  2  0  0  0  0
 25 23  1  6  0  0  0
 25 26  1  0  0  0  0
 25 47  1  0  0  0  0
 26 27  1  0  0  0  0
 26 51  1  0  0  0  0
 26 52  1  0  0  0  0
 27 28  1  0  0  0  0
 27 39  1  0  0  0  0
 28 29  1  0  0  0  0
 28 37  1  0  0  0  0
 28 38  1  0  0  0  0
 29 30  2  0  0  0  0
 29 31  1  0  0  0  0
 31 32  1  0  0  0  0
 31 36  1  0  0  0  0
 32 33  1  0  0  0  0
 32 34  1  0  0  0  0
 32 35  1  0  0  0  0
 39 40  2  0  0  0  0
 39 41  1  0  0  0  0
 41 42  2  0  0  0  0
 41 47  1  0  0  0  0
 42 43  1  0  0  0  0
 42 50  1  0  0  0  0
 43 44  2  0  0  0  0
 43 49  1  0  0  0  0
 44 45  1  0  0  0  0
 44 46  1  0  0  0  0
 46 47  2  0  0  0  0
 46 48  1  0  0  0  0
M  END
>  <MODEL>
       1

$$$$
