output/tmp_first_model_20_24.pdb
 OpenBabel07232603433D

 70 75  0  0  1  0  0  0  0  0999 V2000
    6.1360    4.6280   22.0920 C   0  0  0  0  0  0  0  0  0  0  0  0
    6.6440    3.4720   22.8430 N   0  3  0  0  0  0  0  0  0  0  0  0
    7.5430    3.8330   23.9630 C   0  0  0  0  0  0  0  0  0  0  0  0
    7.6890    2.7200   25.0030 C   0  0  0  0  0  0  0  0  0  0  0  0
    8.3910    1.5340   24.5350 N   0  0  0  0  0  0  0  0  0  0  0  0
    7.6900    0.3080   24.2020 C   0  0  0  0  0  0  0  0  0  0  0  0
    8.3270   -0.4190   22.9770 C   0  0  2  0  0  0  0  0  0  0  0  0
    7.9000    0.4240   21.7510 C   0  0  0  0  0  0  0  0  0  0  0  0
    8.1250    1.6130   21.5710 O   0  0  0  0  0  0  0  0  0  0  0  0
    7.0580   -0.3230   20.9690 N   0  0  0  0  0  0  0  0  0  0  0  0
    6.3070    0.2420   19.9010 C   0  0  0  0  0  0  0  0  0  0  0  0
    6.6490   -0.0820   18.6150 C   0  0  0  0  0  0  0  0  0  0  0  0
    5.9640    0.3240   17.5230 N   0  0  0  0  0  0  0  0  0  0  0  0
    4.8980    1.0580   17.7180 C   0  0  0  0  0  0  0  0  0  0  0  0
    4.4380    1.4780   18.9990 C   0  0  0  0  0  0  0  0  0  0  0  0
    3.2860    2.2970   19.1490 C   0  0  0  0  0  0  0  0  0  0  0  0
    2.8420    2.6520   20.3930 C   0  0  0  0  0  0  0  0  0  0  0  0
    3.5200    2.1960   21.5430 C   0  0  0  0  0  0  0  0  0  0  0  0
    4.6380    1.3980   21.4190 C   0  0  0  0  0  0  0  0  0  0  0  0
    5.1460    1.0380   20.1390 C   0  0  0  0  0  0  0  0  0  0  0  0
    5.1120    1.0070   22.3150 H   0  0  0  0  0  0  0  0  0  0  0  0
    3.1590    2.4920   22.5250 H   0  0  0  0  0  0  0  0  0  0  0  0
    1.9640    3.2820   20.5000 H   0  0  0  0  0  0  0  0  0  0  0  0
    2.7660    2.6230   18.2530 H   0  0  0  0  0  0  0  0  0  0  0  0
    4.3340    1.3540   16.8340 H   0  0  0  0  0  0  0  0  0  0  0  0
    7.5220   -0.7060   18.4400 H   0  0  0  0  0  0  0  0  0  0  0  0
    6.5590   -1.5100   21.6440 C   0  0  0  0  0  0  0  0  0  0  0  0
    7.6620   -1.7900   22.6620 C   0  0  2  0  0  0  0  0  0  0  0  0
    7.2350   -2.6140   23.8680 C   0  0  0  0  0  0  0  0  0  0  0  0
    6.0540   -2.0640   24.4190 O   0  0  0  0  0  0  0  0  0  0  0  0
    5.7980   -2.4500   25.7490 C   0  0  0  0  0  0  0  0  0  0  0  0
    4.5320   -1.7450   26.1950 C   0  0  0  0  0  0  0  0  0  0  0  0
    4.7000   -0.2550   26.5440 C   0  0  0  0  0  0  0  0  0  0  0  0
    4.5420   -0.5160   27.9440 O   0  0  0  0  0  0  0  0  0  0  0  0
    4.2310   -1.8940   27.6890 C   0  0  0  0  0  0  0  0  0  0  0  0
    4.9010   -2.5700   28.2380 H   0  0  0  0  0  0  0  0  0  0  0  0
    3.1910   -2.1340   27.9440 H   0  0  0  0  0  0  0  0  0  0  0  0
    5.6840    0.1810   26.3190 H   0  0  0  0  0  0  0  0  0  0  0  0
    3.9160    0.4090   26.1590 H   0  0  0  0  0  0  0  0  0  0  0  0
    3.7160   -1.9670   25.5050 H   0  0  0  0  0  0  0  0  0  0  0  0
    6.6390   -2.1620   26.4090 H   0  0  0  0  0  0  0  0  0  0  0  0
    5.6850   -3.5450   25.8260 H   0  0  0  0  0  0  0  0  0  0  0  0
    7.0620   -3.6620   23.5770 H   0  0  0  0  0  0  0  0  0  0  0  0
    8.0490   -2.6010   24.6120 H   0  0  0  0  0  0  0  0  0  0  0  0
    8.4200   -2.3720   22.1370 H   0  0  0  0  0  0  0  0  0  0  0  0
    6.4260   -2.3140   20.9160 H   0  0  0  0  0  0  0  0  0  0  0  0
    5.5940   -1.3290   22.1350 H   0  0  0  0  0  0  0  0  0  0  0  0
    9.8250   -0.5440   23.2180 C   0  0  0  0  0  0  0  0  0  0  0  0
   10.6420   -1.5060   22.5910 C   0  0  0  0  0  0  0  0  0  0  0  0
   11.9800   -1.6100   22.9180 C   0  0  0  0  0  0  0  0  0  0  0  0
   13.0180   -2.6920   22.0210 Cl  0  0  0  0  0  0  0  0  0  0  0  0
   12.5350   -0.8490   23.9460 C   0  0  0  0  0  0  0  0  0  0  0  0
   11.7520    0.1250   24.5350 C   0  0  0  0  0  0  0  0  0  0  0  0
   10.4410    0.3300   24.1190 C   0  0  0  0  0  0  0  0  0  0  0  0
    9.7490    1.5990   24.5050 C   0  0  0  0  0  0  0  0  0  0  0  0
   10.3620    2.6320   24.7450 O   0  0  0  0  0  0  0  0  0  0  0  0
   12.1520    0.7570   25.3150 H   0  0  0  0  0  0  0  0  0  0  0  0
   13.5760   -0.9660   24.2100 H   0  0  0  0  0  0  0  0  0  0  0  0
   10.2750   -2.1430   21.7930 H   0  0  0  0  0  0  0  0  0  0  0  0
    7.6810   -0.3630   25.0670 H   0  0  0  0  0  0  0  0  0  0  0  0
    6.6590    0.5490   23.9420 H   0  0  0  0  0  0  0  0  0  0  0  0
    6.7070    2.4230   25.3920 H   0  0  0  0  0  0  0  0  0  0  0  0
    8.2620    3.1110   25.8480 H   0  0  0  0  0  0  0  0  0  0  0  0
    8.5290    4.0880   23.5700 H   0  0  0  0  0  0  0  0  0  0  0  0
    7.1490    4.7210   24.4690 H   0  0  0  0  0  0  0  0  0  0  0  0
    5.8170    2.9800   23.2260 H   0  0  0  0  0  0  0  0  0  0  0  0
    7.1420    2.8250   22.2000 H   0  0  0  0  0  0  0  0  0  0  0  0
    6.9260    5.0900   21.4950 H   0  0  0  0  0  0  0  0  0  0  0  0
    5.3270    4.3090   21.4350 H   0  0  0  0  0  0  0  0  0  0  0  0
    5.7460    5.3880   22.7770 H   0  0  0  0  0  0  0  0  0  0  0  0
  1  2  1  0  0  0  0
  1 68  1  0  0  0  0
  1 69  1  0  0  0  0
  1 70  1  0  0  0  0
  2  3  1  0  0  0  0
  2 66  1  0  0  0  0
  2 67  1  0  0  0  0
  3  4  1  0  0  0  0
  3 64  1  0  0  0  0
  3 65  1  0  0  0  0
  4  5  1  0  0  0  0
  4 62  1  0  0  0  0
  4 63  1  0  0  0  0
  5  6  1  0  0  0  0
  5 55  1  0  0  0  0
  6  7  1  0  0  0  0
  6 60  1  0  0  0  0
  6 61  1  0  0  0  0
  7  8  1  6  0  0  0
  7 28  1  0  0  0  0
  7 48  1  0  0  0  0
  8  9  2  0  0  0  0
  8 10  1  0  0  0  0
 10 11  1  0  0  0  0
 10 27  1  0  0  0  0
 11 12  2  0  0  0  0
 11 20  1  0  0  0  0
 12 13  1  0  0  0  0
 12 26  1  0  0  0  0
 13 14  2  0  0  0  0
 14 15  1  0  0  0  0
 14 25  1  0  0  0  0
 15 16  2  0  0  0  0
 15 20  1  0  0  0  0
 16 17  1  0  0  0  0
 16 24  1  0  0  0  0
 17 18  2  0  0  0  0
 17 23  1  0  0  0  0
 18 19  1  0  0  0  0
 18 22  1  0  0  0  0
 19 20  2  0  0  0  0
 19 21  1  0  0  0  0
 27 28  1  0  0  0  0
 27 46  1  0  0  0  0
 27 47  1  0  0  0  0
 28 29  1  0  0  0  0
 28 45  1  6  0  0  0
 29 30  1  0  0  0  0
 29 43  1  0  0  0  0
 29 44  1  0  0  0  0
 30 31  1  0  0  0  0
 31 32  1  0  0  0  0
 31 41  1  0  0  0  0
 31 42  1  0  0  0  0
 32 33  1  0  0  0  0
 32 35  1  0  0  0  0
 32 40  1  0  0  0  0
 33 34  1  0  0  0  0
 33 38  1  0  0  0  0
 33 39  1  0  0  0  0
 34 35  1  0  0  0  0
 35 36  1  0  0  0  0
 35 37  1  0  0  0  0
 48 49  2  0  0  0  0
 48 54  1  0  0  0  0
 49 50  1  0  0  0  0
 49 59  1  0  0  0  0
 50 51  1  0  0  0  0
 50 52  2  0  0  0  0
 52 53  1  0  0  0  0
 52 58  1  0  0  0  0
 53 54  2  0  0  0  0
 53 57  1  0  0  0  0
 54 55  1  0  0  0  0
 55 56  2  0  0  0  0
M  CHG  1   2   1
M  END
>  <MODEL>
       1

$$$$
