output/tmp_first_model_12_53.pdb
 OpenBabel07232600143D

 77 84  0  0  1  0  0  0  0  0999 V2000
    4.7970   -3.2830   25.8390 O   0  0  0  0  0  0  0  0  0  0  0  0
    5.5750   -2.6900   25.0970 C   0  0  0  0  0  0  0  0  0  0  0  0
    5.8850   -1.2320   25.2370 C   0  0  0  0  0  0  0  0  0  0  0  0
    5.5030   -0.5780   26.4060 C   0  0  0  0  0  0  0  0  0  0  0  0
    5.7260    0.7760   26.5640 C   0  0  0  0  0  0  0  0  0  0  0  0
    6.2780    1.4830   25.5000 C   0  0  0  0  0  0  0  0  0  0  0  0
    6.5540    3.1960   25.6690 Cl  0  0  0  0  0  0  0  0  0  0  0  0
    6.6440    0.8500   24.3220 C   0  0  0  0  0  0  0  0  0  0  0  0
    6.5420   -0.5450   24.2080 C   0  0  0  0  0  0  0  0  0  0  0  0
    7.1740   -1.2900   23.0290 C   0  0  1  0  0  0  0  0  0  0  0  0
    7.4130   -2.7450   23.4820 C   0  0  0  0  0  0  0  0  0  0  0  0
    6.2150   -3.3060   24.0660 N   0  0  0  0  0  0  0  0  0  0  0  0
    5.8420   -4.6590   23.7380 C   0  0  0  0  0  0  0  0  0  0  0  0
    6.5360   -5.6730   24.6490 C   0  0  0  0  0  0  0  0  0  0  0  0
    5.8320   -6.9910   24.6570 N   0  3  0  0  0  0  0  0  0  0  0  0
    4.4410   -7.0760   25.2910 C   0  0  0  0  0  0  0  0  0  0  0  0
    3.8230   -7.5890   23.9730 C   0  0  0  0  0  0  0  0  0  0  0  0
    2.8950   -8.8010   23.9290 C   0  0  0  0  0  0  0  0  0  0  0  0
    1.8130   -8.0110   23.4260 O   0  0  0  0  0  0  0  0  0  0  0  0
    2.6460   -6.8520   23.3410 C   0  0  0  0  0  0  0  0  0  0  0  0
    2.2410   -6.0160   23.9290 H   0  0  0  0  0  0  0  0  0  0  0  0
    2.8080   -6.5320   22.3020 H   0  0  0  0  0  0  0  0  0  0  0  0
    2.6680   -9.2620   24.8990 H   0  0  0  0  0  0  0  0  0  0  0  0
    3.1810   -9.5790   23.2150 H   0  0  0  0  0  0  0  0  0  0  0  0
    5.2420   -7.5420   23.3590 C   0  0  0  0  0  0  0  0  0  0  0  0
    5.7370   -8.4800   23.1290 H   0  0  0  0  0  0  0  0  0  0  0  0
    5.3570   -6.8540   22.5290 H   0  0  0  0  0  0  0  0  0  0  0  0
    4.1300   -6.0940   25.6360 H   0  0  0  0  0  0  0  0  0  0  0  0
    4.4560   -7.7980   26.1020 H   0  0  0  0  0  0  0  0  0  0  0  0
    6.4730   -7.6610   25.1020 H   0  0  0  0  0  0  0  0  0  0  0  0
    6.5390   -5.3220   25.6800 H   0  0  0  0  0  0  0  0  0  0  0  0
    7.5670   -5.8460   24.3280 H   0  0  0  0  0  0  0  0  0  0  0  0
    6.1010   -4.8230   22.6860 H   0  0  0  0  0  0  0  0  0  0  0  0
    4.7530   -4.7320   23.8200 H   0  0  0  0  0  0  0  0  0  0  0  0
    7.7070   -3.3690   22.6350 H   0  0  0  0  0  0  0  0  0  0  0  0
    8.2250   -2.7590   24.2240 H   0  0  0  0  0  0  0  0  0  0  0  0
    6.2510   -1.2860   21.7900 C   0  0  0  0  0  0  0  0  0  0  0  0
    5.2430   -1.9370   21.6230 O   0  0  0  0  0  0  0  0  0  0  0  0
    6.7690   -0.4120   20.8630 N   0  0  0  0  0  0  0  0  0  0  0  0
    5.9970    0.0970   19.7900 C   0  0  0  0  0  0  0  0  0  0  0  0
    6.3640   -0.1560   18.4930 C   0  0  0  0  0  0  0  0  0  0  0  0
    5.6970    0.2990   17.4070 N   0  0  0  0  0  0  0  0  0  0  0  0
    4.6450    1.0510   17.6130 C   0  0  0  0  0  0  0  0  0  0  0  0
    4.1660    1.4080   18.9060 C   0  0  0  0  0  0  0  0  0  0  0  0
    3.0290    2.2420   19.0720 C   0  0  0  0  0  0  0  0  0  0  0  0
    2.6240    2.6200   20.3210 C   0  0  0  0  0  0  0  0  0  0  0  0
    3.3350    2.1800   21.4600 C   0  0  0  0  0  0  0  0  0  0  0  0
    4.4280    1.3600   21.3330 C   0  0  0  0  0  0  0  0  0  0  0  0
    4.8630    0.9380   20.0400 C   0  0  0  0  0  0  0  0  0  0  0  0
    4.9660    1.0440   22.2270 H   0  0  0  0  0  0  0  0  0  0  0  0
    3.0140    2.4990   22.4460 H   0  0  0  0  0  0  0  0  0  0  0  0
    1.7650    3.2710   20.4450 H   0  0  0  0  0  0  0  0  0  0  0  0
    2.5120    2.5880   18.1820 H   0  0  0  0  0  0  0  0  0  0  0  0
    4.1150    1.4210   16.7340 H   0  0  0  0  0  0  0  0  0  0  0  0
    7.2360   -0.7770   18.2910 H   0  0  0  0  0  0  0  0  0  0  0  0
    8.0750    0.1160   21.1870 C   0  0  0  0  0  0  0  0  0  0  0  0
    8.4550   -0.5550   22.5250 C   0  0  2  0  0  0  0  0  0  0  0  0
    9.7310   -1.3910   22.3900 C   0  0  0  0  0  0  0  0  0  0  0  0
   10.8550   -0.5210   22.1030 N   0  0  0  0  0  0  0  0  0  0  0  0
   11.9360   -1.0910   21.4890 C   0  0  0  0  0  0  0  0  0  0  0  0
   13.1060   -0.4180   21.2040 N   0  0  0  0  0  0  0  0  0  0  0  0
   13.7960   -1.2450   20.4400 C   0  0  0  0  0  0  0  0  0  0  0  0
   13.0340   -2.6440   20.2360 C   0  0  0  0  0  0  0  0  0  0  0  0
   13.0480   -2.3820   20.0730 C   0  0  0  0  0  0  0  0  0  0  0  0
   11.7880   -2.3420   21.0400 N   0  0  0  0  0  0  0  0  0  0  0  0
   13.2770   -3.5320   21.0550 H   0  0  0  0  0  0  0  0  0  0  0  0
   12.4040   -3.0200   19.2540 H   0  0  0  0  0  0  0  0  0  0  0  0
   14.7130   -0.8850   20.0170 H   0  0  0  0  0  0  0  0  0  0  0  0
   10.9980    0.2870   22.6870 H   0  0  0  0  0  0  0  0  0  0  0  0
    9.9270   -1.9930   23.2910 H   0  0  0  0  0  0  0  0  0  0  0  0
    9.6470   -2.0890   21.5510 H   0  0  0  0  0  0  0  0  0  0  0  0
    8.7320    0.2050   23.2630 H   0  0  0  0  0  0  0  0  0  0  0  0
    8.7770   -0.1180   20.3840 H   0  0  0  0  0  0  0  0  0  0  0  0
    8.0450    1.2100   21.2650 H   0  0  0  0  0  0  0  0  0  0  0  0
    7.0260    1.4620   23.5090 H   0  0  0  0  0  0  0  0  0  0  0  0
    5.4730    1.2900   27.4850 H   0  0  0  0  0  0  0  0  0  0  0  0
    5.0340   -1.1630   27.1890 H   0  0  0  0  0  0  0  0  0  0  0  0
  1  2  2  0  0  0  0
  2  3  1  0  0  0  0
  2 12  1  0  0  0  0
  3  4  2  0  0  0  0
  3  9  1  0  0  0  0
  4  5  1  0  0  0  0
  4 77  1  0  0  0  0
  5  6  2  0  0  0  0
  5 76  1  0  0  0  0
  6  7  1  0  0  0  0
  6  8  1  0  0  0  0
  8  9  2  0  0  0  0
  8 75  1  0  0  0  0
 10  9  1  1  0  0  0
 10 11  1  0  0  0  0
 10 37  1  0  0  0  0
 10 57  1  0  0  0  0
 11 12  1  0  0  0  0
 11 35  1  0  0  0  0
 11 36  1  0  0  0  0
 12 13  1  0  0  0  0
 13 14  1  0  0  0  0
 13 33  1  0  0  0  0
 13 34  1  0  0  0  0
 14 15  1  0  0  0  0
 14 31  1  0  0  0  0
 14 32  1  0  0  0  0
 15 16  1  0  0  0  0
 15 25  1  0  0  0  0
 15 30  1  0  0  0  0
 16 17  1  0  0  0  0
 16 28  1  0  0  0  0
 16 29  1  0  0  0  0
 17 18  1  0  0  0  0
 17 20  1  0  0  0  0
 17 25  1  0  0  0  0
 18 19  1  0  0  0  0
 18 23  1  0  0  0  0
 18 24  1  0  0  0  0
 19 20  1  0  0  0  0
 20 21  1  0  0  0  0
 20 22  1  0  0  0  0
 25 26  1  0  0  0  0
 25 27  1  0  0  0  0
 37 38  2  0  0  0  0
 37 39  1  0  0  0  0
 39 40  1  0  0  0  0
 39 56  1  0  0  0  0
 40 41  2  0  0  0  0
 40 49  1  0  0  0  0
 41 42  1  0  0  0  0
 41 55  1  0  0  0  0
 42 43  2  0  0  0  0
 43 44  1  0  0  0  0
 43 54  1  0  0  0  0
 44 45  2  0  0  0  0
 44 49  1  0  0  0  0
 45 46  1  0  0  0  0
 45 53  1  0  0  0  0
 46 47  2  0  0  0  0
 46 52  1  0  0  0  0
 47 48  1  0  0  0  0
 47 51  1  0  0  0  0
 48 49  2  0  0  0  0
 48 50  1  0  0  0  0
 56 57  1  0  0  0  0
 56 73  1  0  0  0  0
 56 74  1  0  0  0  0
 57 58  1  0  0  0  0
 57 72  1  1  0  0  0
 58 59  1  0  0  0  0
 58 70  1  0  0  0  0
 58 71  1  0  0  0  0
 59 60  1  0  0  0  0
 59 69  1  0  0  0  0
 60 61  2  0  0  0  0
 60 65  1  0  0  0  0
 61 62  1  0  0  0  0
 62 63  2  0  0  0  0
 62 68  1  0  0  0  0
 63 64  1  0  0  0  0
 63 67  1  0  0  0  0
 64 65  2  0  0  0  0
 64 66  1  0  0  0  0
M  CHG  1  15   1
M  END
>  <MODEL>
       1

$$$$
