output/tmp_first_model_11_44.pdb
 OpenBabel07222623443D

 56 60  0  0  1  0  0  0  0  0999 V2000
    7.6350   -8.4220   23.0220 C   0  0  0  0  0  0  0  0  0  0  0  0
    6.6870   -7.3550   22.7780 N   0  0  0  0  0  0  0  0  0  0  0  0
    6.8630   -6.5250   21.7160 C   0  0  0  0  0  0  0  0  0  0  0  0
    7.6510   -6.7390   20.8100 O   0  0  0  0  0  0  0  0  0  0  0  0
    6.0330   -5.2440   21.7610 C   0  0  0  0  0  0  0  0  0  0  0  0
    6.5850   -4.2710   22.6820 N   0  0  0  0  0  0  0  0  0  0  0  0
    7.7170   -3.4130   22.3470 C   0  0  0  0  0  0  0  0  0  0  0  0
    7.3870   -1.9390   22.6900 C   0  0  2  0  0  0  0  0  0  0  0  0
    6.3050   -1.4650   21.6850 C   0  0  0  0  0  0  0  0  0  0  0  0
    5.1800   -1.9040   21.5600 O   0  0  0  0  0  0  0  0  0  0  0  0
    6.8420   -0.4810   20.8780 N   0  0  0  0  0  0  0  0  0  0  0  0
    6.1100    0.0650   19.8020 C   0  0  0  0  0  0  0  0  0  0  0  0
    6.4640   -0.2170   18.5060 C   0  0  0  0  0  0  0  0  0  0  0  0
    5.8010    0.2300   17.4140 N   0  0  0  0  0  0  0  0  0  0  0  0
    4.7620    1.0010   17.6180 C   0  0  0  0  0  0  0  0  0  0  0  0
    4.2990    1.3880   18.9060 C   0  0  0  0  0  0  0  0  0  0  0  0
    3.1740    2.2370   19.0620 C   0  0  0  0  0  0  0  0  0  0  0  0
    2.7740    2.6350   20.3070 C   0  0  0  0  0  0  0  0  0  0  0  0
    3.4740    2.1970   21.4540 C   0  0  0  0  0  0  0  0  0  0  0  0
    4.5590    1.3640   21.3300 C   0  0  0  0  0  0  0  0  0  0  0  0
    4.9930    0.9260   20.0460 C   0  0  0  0  0  0  0  0  0  0  0  0
    5.0930    1.0300   22.2150 H   0  0  0  0  0  0  0  0  0  0  0  0
    3.1520    2.5290   22.4360 H   0  0  0  0  0  0  0  0  0  0  0  0
    1.9260    3.3040   20.4200 H   0  0  0  0  0  0  0  0  0  0  0  0
    2.6650    2.5850   18.1660 H   0  0  0  0  0  0  0  0  0  0  0  0
    4.2280    1.3600   16.7380 H   0  0  0  0  0  0  0  0  0  0  0  0
    7.3160   -0.8660   18.3090 H   0  0  0  0  0  0  0  0  0  0  0  0
    8.2840   -0.4070   20.9720 C   0  0  0  0  0  0  0  0  0  0  0  0
    8.5580   -0.9550   22.3820 C   0  0  2  0  0  0  0  0  0  0  0  0
    9.9890   -1.4720   22.4530 C   0  0  0  0  0  0  0  0  0  0  0  0
   10.4560   -2.0000   24.0960 Cl  0  0  0  0  0  0  0  0  0  0  0  0
   10.1320   -2.3260   21.7830 H   0  0  0  0  0  0  0  0  0  0  0  0
   10.6910   -0.6860   22.1590 H   0  0  0  0  0  0  0  0  0  0  0  0
    8.4710   -0.1160   23.0710 H   0  0  0  0  0  0  0  0  0  0  0  0
    8.6240    0.6280   20.8550 H   0  0  0  0  0  0  0  0  0  0  0  0
    8.7860   -1.0160   20.2030 H   0  0  0  0  0  0  0  0  0  0  0  0
    6.8940   -1.9220   24.1340 C   0  0  0  0  0  0  0  0  0  0  0  0
    6.8640   -0.7450   24.8930 C   0  0  0  0  0  0  0  0  0  0  0  0
    6.4070   -0.7700   26.2010 C   0  0  0  0  0  0  0  0  0  0  0  0
    6.3690    0.7230   27.1050 Cl  0  0  0  0  0  0  0  0  0  0  0  0
    5.9750   -1.9470   26.8180 C   0  0  0  0  0  0  0  0  0  0  0  0
    5.9650   -3.1030   26.0680 C   0  0  0  0  0  0  0  0  0  0  0  0
    6.3780   -3.0800   24.7410 C   0  0  0  0  0  0  0  0  0  0  0  0
    6.1410   -4.3150   23.9600 C   0  0  0  0  0  0  0  0  0  0  0  0
    5.5440   -5.2950   24.4210 O   0  0  0  0  0  0  0  0  0  0  0  0
    5.6100   -4.0470   26.4680 H   0  0  0  0  0  0  0  0  0  0  0  0
    5.6250   -1.9400   27.8440 H   0  0  0  0  0  0  0  0  0  0  0  0
    7.1820    0.2040   24.4720 H   0  0  0  0  0  0  0  0  0  0  0  0
    8.6100   -3.7220   22.9110 H   0  0  0  0  0  0  0  0  0  0  0  0
    7.9330   -3.5070   21.2880 H   0  0  0  0  0  0  0  0  0  0  0  0
    5.0170   -5.4640   22.1040 H   0  0  0  0  0  0  0  0  0  0  0  0
    5.9890   -4.8020   20.7680 H   0  0  0  0  0  0  0  0  0  0  0  0
    6.1810   -6.9790   23.5690 H   0  0  0  0  0  0  0  0  0  0  0  0
    8.4750   -8.0810   23.6490 H   0  0  0  0  0  0  0  0  0  0  0  0
    7.1340   -9.2820   23.4770 H   0  0  0  0  0  0  0  0  0  0  0  0
    8.0170   -8.7250   22.0530 H   0  0  0  0  0  0  0  0  0  0  0  0
  1  2  1  0  0  0  0
  1 54  1  0  0  0  0
  1 55  1  0  0  0  0
  1 56  1  0  0  0  0
  2  3  1  0  0  0  0
  2 53  1  0  0  0  0
  3  4  2  0  0  0  0
  3  5  1  0  0  0  0
  5  6  1  0  0  0  0
  5 51  1  0  0  0  0
  5 52  1  0  0  0  0
  6  7  1  0  0  0  0
  6 44  1  0  0  0  0
  7  8  1  0  0  0  0
  7 49  1  0  0  0  0
  7 50  1  0  0  0  0
  8  9  1  6  0  0  0
  8 29  1  0  0  0  0
  8 37  1  0  0  0  0
  9 10  2  0  0  0  0
  9 11  1  0  0  0  0
 11 12  1  0  0  0  0
 11 28  1  0  0  0  0
 12 13  2  0  0  0  0
 12 21  1  0  0  0  0
 13 14  1  0  0  0  0
 13 27  1  0  0  0  0
 14 15  2  0  0  0  0
 15 16  1  0  0  0  0
 15 26  1  0  0  0  0
 16 17  2  0  0  0  0
 16 21  1  0  0  0  0
 17 18  1  0  0  0  0
 17 25  1  0  0  0  0
 18 19  2  0  0  0  0
 18 24  1  0  0  0  0
 19 20  1  0  0  0  0
 19 23  1  0  0  0  0
 20 21  2  0  0  0  0
 20 22  1  0  0  0  0
 28 29  1  0  0  0  0
 28 35  1  0  0  0  0
 28 36  1  0  0  0  0
 29 30  1  0  0  0  0
 29 34  1  1  0  0  0
 30 31  1  0  0  0  0
 30 32  1  0  0  0  0
 30 33  1  0  0  0  0
 37 38  2  0  0  0  0
 37 43  1  0  0  0  0
 38 39  1  0  0  0  0
 38 48  1  0  0  0  0
 39 40  1  0  0  0  0
 39 41  2  0  0  0  0
 41 42  1  0  0  0  0
 41 47  1  0  0  0  0
 42 43  2  0  0  0  0
 42 46  1  0  0  0  0
 43 44  1  0  0  0  0
 44 45  2  0  0  0  0
M  END
>  <MODEL>
       1

$$$$
