output/tmp_first_model_19_5.pdb
 OpenBabel07232603163D

 50 54  0  0  1  0  0  0  0  0999 V2000
   10.0300   -1.5420   22.4180 C   0  0  0  0  0  0  0  0  0  0  0  0
    8.6220   -0.9440   22.3690 C   0  0  1  0  0  0  0  0  0  0  0  0
    8.3020   -0.3490   20.9800 C   0  0  0  0  0  0  0  0  0  0  0  0
    6.8650   -0.4700   20.8590 N   0  0  0  0  0  0  0  0  0  0  0  0
    6.1070    0.0620   19.7810 C   0  0  0  0  0  0  0  0  0  0  0  0
    6.4410   -0.2220   18.4790 C   0  0  0  0  0  0  0  0  0  0  0  0
    5.7760    0.2370   17.3870 N   0  0  0  0  0  0  0  0  0  0  0  0
    4.7440    1.0210   17.5900 C   0  0  0  0  0  0  0  0  0  0  0  0
    4.2910    1.4120   18.8810 C   0  0  0  0  0  0  0  0  0  0  0  0
    3.1700    2.2700   19.0540 C   0  0  0  0  0  0  0  0  0  0  0  0
    2.7760    2.6510   20.3090 C   0  0  0  0  0  0  0  0  0  0  0  0
    3.4830    2.1950   21.4430 C   0  0  0  0  0  0  0  0  0  0  0  0
    4.5670    1.3670   21.3000 C   0  0  0  0  0  0  0  0  0  0  0  0
    4.9910    0.9360   20.0130 C   0  0  0  0  0  0  0  0  0  0  0  0
    5.1100    1.0200   22.1720 H   0  0  0  0  0  0  0  0  0  0  0  0
    3.1680    2.5050   22.4350 H   0  0  0  0  0  0  0  0  0  0  0  0
    1.9280    3.3160   20.4400 H   0  0  0  0  0  0  0  0  0  0  0  0
    2.6510    2.6400   18.1730 H   0  0  0  0  0  0  0  0  0  0  0  0
    4.2120    1.3880   16.7100 H   0  0  0  0  0  0  0  0  0  0  0  0
    7.2800   -0.8790   18.2600 H   0  0  0  0  0  0  0  0  0  0  0  0
    6.3270   -1.3900   21.7360 C   0  0  0  0  0  0  0  0  0  0  0  0
    5.1770   -1.7180   21.7250 O   0  0  0  0  0  0  0  0  0  0  0  0
    7.4430   -1.8990   22.6990 C   0  0  1  0  0  0  0  0  0  0  0  0
    7.7670   -3.3650   22.3580 C   0  0  0  0  0  0  0  0  0  0  0  0
    6.6350   -4.2110   22.6690 N   0  0  0  0  0  0  0  0  0  0  0  0
    6.1720   -5.1140   21.7220 C   0  0  0  0  0  0  0  0  0  0  0  0
    4.6620   -4.9780   21.3990 C   0  0  0  0  0  0  0  0  0  0  0  0
    4.6620   -4.9780   21.3990 N   0  0  0  0  0  0  0  0  0  0  0  0
    6.3170   -6.1480   21.9380 H   0  0  0  0  0  0  0  0  0  0  0  0
    6.6310   -4.8590   20.8130 H   0  0  0  0  0  0  0  0  0  0  0  0
    6.0550   -4.2250   23.9050 C   0  0  0  0  0  0  0  0  0  0  0  0
    5.3350   -5.1250   24.2850 O   0  0  0  0  0  0  0  0  0  0  0  0
    6.3540   -3.0230   24.7220 C   0  0  0  0  0  0  0  0  0  0  0  0
    5.9060   -3.0180   26.0420 C   0  0  0  0  0  0  0  0  0  0  0  0
    5.9160   -1.8490   26.7710 C   0  0  0  0  0  0  0  0  0  0  0  0
    6.3540   -0.6910   26.1370 C   0  0  0  0  0  0  0  0  0  0  0  0
    6.3000    0.4720   26.8100 F   0  0  0  0  0  0  0  0  0  0  0  0
    6.8340   -0.6850   24.8430 C   0  0  0  0  0  0  0  0  0  0  0  0
    6.9130   -1.8830   24.1260 C   0  0  0  0  0  0  0  0  0  0  0  0
    7.1050    0.2660   24.3990 H   0  0  0  0  0  0  0  0  0  0  0  0
    5.5550   -1.7970   27.7930 H   0  0  0  0  0  0  0  0  0  0  0  0
    5.5220   -3.9340   26.4770 H   0  0  0  0  0  0  0  0  0  0  0  0
    7.9240   -3.4260   21.2680 H   0  0  0  0  0  0  0  0  0  0  0  0
    8.6810   -3.7100   22.8550 H   0  0  0  0  0  0  0  0  0  0  0  0
    8.8140   -0.9020   20.1810 H   0  0  0  0  0  0  0  0  0  0  0  0
    8.5980    0.7020   20.9070 H   0  0  0  0  0  0  0  0  0  0  0  0
    8.5770   -0.1270   23.0940 H   0  0  0  0  0  0  0  0  0  0  0  0
   10.2340   -2.0120   23.3850 H   0  0  0  0  0  0  0  0  0  0  0  0
   10.7840   -0.7640   22.2580 H   0  0  0  0  0  0  0  0  0  0  0  0
   10.1740   -2.3020   21.6410 H   0  0  0  0  0  0  0  0  0  0  0  0
  1  2  1  0  0  0  0
  1 48  1  0  0  0  0
  1 49  1  0  0  0  0
  1 50  1  0  0  0  0
  2  3  1  0  0  0  0
  2 23  1  0  0  0  0
  2 47  1  1  0  0  0
  3  4  1  0  0  0  0
  3 45  1  0  0  0  0
  3 46  1  0  0  0  0
  4  5  1  0  0  0  0
  4 21  1  0  0  0  0
  5  6  2  0  0  0  0
  5 14  1  0  0  0  0
  6  7  1  0  0  0  0
  6 20  1  0  0  0  0
  7  8  2  0  0  0  0
  8  9  1  0  0  0  0
  8 19  1  0  0  0  0
  9 10  2  0  0  0  0
  9 14  1  0  0  0  0
 10 11  1  0  0  0  0
 10 18  1  0  0  0  0
 11 12  2  0  0  0  0
 11 17  1  0  0  0  0
 12 13  1  0  0  0  0
 12 16  1  0  0  0  0
 13 14  2  0  0  0  0
 13 15  1  0  0  0  0
 21 22  2  0  0  0  0
 23 21  1  6  0  0  0
 23 24  1  0  0  0  0
 23 39  1  0  0  0  0
 24 25  1  0  0  0  0
 24 43  1  0  0  0  0
 24 44  1  0  0  0  0
 25 26  1  0  0  0  0
 25 31  1  0  0  0  0
 26 27  1  0  0  0  0
 26 29  1  0  0  0  0
 26 30  1  0  0  0  0
 27 28  3  0  0  0  0
 31 32  2  0  0  0  0
 31 33  1  0  0  0  0
 33 34  2  0  0  0  0
 33 39  1  0  0  0  0
 34 35  1  0  0  0  0
 34 42  1  0  0  0  0
 35 36  2  0  0  0  0
 35 41  1  0  0  0  0
 36 37  1  0  0  0  0
 36 38  1  0  0  0  0
 38 39  2  0  0  0  0
 38 40  1  0  0  0  0
M  END
>  <MODEL>
       1

$$$$
