output/tmp_first_model_15_21.pdb
 OpenBabel07232601353D

 59 64  0  0  1  0  0  0  0  0999 V2000
    6.8030   -2.2580   23.6460 C   0  0  0  0  0  0  0  0  0  0  0  0
    7.7740   -1.8280   22.5280 C   0  0  1  0  0  0  0  0  0  0  0  0
    7.0400   -1.7940   21.1640 C   0  0  0  0  0  0  0  0  0  0  0  0
    6.8900   -0.3880   20.8690 N   0  0  0  0  0  0  0  0  0  0  0  0
    6.1310    0.1070   19.7800 C   0  0  0  0  0  0  0  0  0  0  0  0
    6.4430   -0.2260   18.4840 C   0  0  0  0  0  0  0  0  0  0  0  0
    5.7660    0.2210   17.4020 N   0  0  0  0  0  0  0  0  0  0  0  0
    4.7460    1.0200   17.6000 C   0  0  0  0  0  0  0  0  0  0  0  0
    4.2930    1.4220   18.8870 C   0  0  0  0  0  0  0  0  0  0  0  0
    3.1640    2.2650   19.0650 C   0  0  0  0  0  0  0  0  0  0  0  0
    2.7400    2.6120   20.3220 C   0  0  0  0  0  0  0  0  0  0  0  0
    3.4250    2.1220   21.4570 C   0  0  0  0  0  0  0  0  0  0  0  0
    4.5230    1.3100   21.3070 C   0  0  0  0  0  0  0  0  0  0  0  0
    5.0000    0.9520   20.0160 C   0  0  0  0  0  0  0  0  0  0  0  0
    5.0320    0.9130   22.1770 H   0  0  0  0  0  0  0  0  0  0  0  0
    3.0760    2.3890   22.4500 H   0  0  0  0  0  0  0  0  0  0  0  0
    1.8800    3.2620   20.4480 H   0  0  0  0  0  0  0  0  0  0  0  0
    2.6570    2.6380   18.1820 H   0  0  0  0  0  0  0  0  0  0  0  0
    4.2250    1.3830   16.7170 H   0  0  0  0  0  0  0  0  0  0  0  0
    7.2890   -0.8740   18.2560 H   0  0  0  0  0  0  0  0  0  0  0  0
    7.7200    0.4280   21.6020 C   0  0  0  0  0  0  0  0  0  0  0  0
    7.8690    1.6120   21.3790 O   0  0  0  0  0  0  0  0  0  0  0  0
    8.4390   -0.4150   22.6840 C   0  0  1  0  0  0  0  0  0  0  0  0
    8.2460    0.1770   24.1030 C   0  0  0  0  0  0  0  0  0  0  0  0
    8.9580    1.4240   24.3050 N   0  0  0  0  0  0  0  0  0  0  0  0
    8.2790    2.5730   24.9070 C   0  0  0  0  0  0  0  0  0  0  0  0
    7.7570    3.5800   23.9040 C   0  0  0  0  0  0  0  0  0  0  0  0
    8.4790    4.5970   23.2440 C   0  0  0  0  0  0  0  0  0  0  0  0
    7.7380    5.2180   22.3330 N   0  0  0  0  0  0  0  0  0  0  0  0
    6.5450    4.6250   22.3940 N   0  0  0  0  0  0  0  0  0  0  0  0
    5.4940    4.9480   21.4550 C   0  0  0  0  0  0  0  0  0  0  0  0
    5.4700    4.2360   20.6180 H   0  0  0  0  0  0  0  0  0  0  0  0
    5.6660    5.9660   21.0950 H   0  0  0  0  0  0  0  0  0  0  0  0
    4.5470    4.8820   21.9950 H   0  0  0  0  0  0  0  0  0  0  0  0
    6.5010    3.6550   23.3340 C   0  0  0  0  0  0  0  0  0  0  0  0
    5.5960    3.0670   23.4460 H   0  0  0  0  0  0  0  0  0  0  0  0
    9.5210    4.8710   23.3650 H   0  0  0  0  0  0  0  0  0  0  0  0
    8.9920    3.0380   25.5970 H   0  0  0  0  0  0  0  0  0  0  0  0
    7.4500    2.1840   25.5070 H   0  0  0  0  0  0  0  0  0  0  0  0
   10.2620    1.5760   23.9270 C   0  0  0  0  0  0  0  0  0  0  0  0
   10.9420    2.5200   24.3150 O   0  0  0  0  0  0  0  0  0  0  0  0
   10.7790    0.5400   22.9770 C   0  0  0  0  0  0  0  0  0  0  0  0
   12.1340    0.5860   22.6500 C   0  0  0  0  0  0  0  0  0  0  0  0
   12.6660   -0.3020   21.7430 C   0  0  0  0  0  0  0  0  0  0  0  0
   11.8180   -1.2260   21.1500 C   0  0  0  0  0  0  0  0  0  0  0  0
   12.3420   -2.0640   20.2410 F   0  0  0  0  0  0  0  0  0  0  0  0
   10.4650   -1.2750   21.4220 C   0  0  0  0  0  0  0  0  0  0  0  0
    9.9340   -0.4090   22.3870 C   0  0  0  0  0  0  0  0  0  0  0  0
    9.8480   -1.9540   20.8410 H   0  0  0  0  0  0  0  0  0  0  0  0
   13.7030   -0.2660   21.4320 H   0  0  0  0  0  0  0  0  0  0  0  0
   12.7560    1.3370   23.1170 H   0  0  0  0  0  0  0  0  0  0  0  0
    7.1900    0.3870   24.2580 H   0  0  0  0  0  0  0  0  0  0  0  0
    8.5750   -0.5720   24.8430 H   0  0  0  0  0  0  0  0  0  0  0  0
    7.6200   -2.2970   20.3820 H   0  0  0  0  0  0  0  0  0  0  0  0
    6.0510   -2.2690   21.2110 H   0  0  0  0  0  0  0  0  0  0  0  0
    8.5660   -2.5870   22.5050 H   0  0  0  0  0  0  0  0  0  0  0  0
    7.3030   -2.3280   24.6180 H   0  0  0  0  0  0  0  0  0  0  0  0
    6.3860   -3.2510   23.4250 H   0  0  0  0  0  0  0  0  0  0  0  0
    5.9600   -1.5620   23.7500 H   0  0  0  0  0  0  0  0  0  0  0  0
  1  2  1  0  0  0  0
  1 57  1  0  0  0  0
  1 58  1  0  0  0  0
  1 59  1  0  0  0  0
  2  3  1  0  0  0  0
  2 23  1  0  0  0  0
  2 56  1  6  0  0  0
  3  4  1  0  0  0  0
  3 54  1  0  0  0  0
  3 55  1  0  0  0  0
  4  5  1  0  0  0  0
  4 21  1  0  0  0  0
  5  6  2  0  0  0  0
  5 14  1  0  0  0  0
  6  7  1  0  0  0  0
  6 20  1  0  0  0  0
  7  8  2  0  0  0  0
  8  9  1  0  0  0  0
  8 19  1  0  0  0  0
  9 10  2  0  0  0  0
  9 14  1  0  0  0  0
 10 11  1  0  0  0  0
 10 18  1  0  0  0  0
 11 12  2  0  0  0  0
 11 17  1  0  0  0  0
 12 13  1  0  0  0  0
 12 16  1  0  0  0  0
 13 14  2  0  0  0  0
 13 15  1  0  0  0  0
 21 22  2  0  0  0  0
 23 21  1  6  0  0  0
 23 24  1  0  0  0  0
 23 48  1  0  0  0  0
 24 25  1  0  0  0  0
 24 52  1  0  0  0  0
 24 53  1  0  0  0  0
 25 26  1  0  0  0  0
 25 40  1  0  0  0  0
 26 27  1  0  0  0  0
 26 38  1  0  0  0  0
 26 39  1  0  0  0  0
 27 28  1  0  0  0  0
 27 35  2  0  0  0  0
 28 29  2  0  0  0  0
 28 37  1  0  0  0  0
 29 30  1  0  0  0  0
 30 31  1  0  0  0  0
 30 35  1  0  0  0  0
 31 32  1  0  0  0  0
 31 33  1  0  0  0  0
 31 34  1  0  0  0  0
 35 36  1  0  0  0  0
 40 41  2  0  0  0  0
 40 42  1  0  0  0  0
 42 43  2  0  0  0  0
 42 48  1  0  0  0  0
 43 44  1  0  0  0  0
 43 51  1  0  0  0  0
 44 45  2  0  0  0  0
 44 50  1  0  0  0  0
 45 46  1  0  0  0  0
 45 47  1  0  0  0  0
 47 48  2  0  0  0  0
 47 49  1  0  0  0  0
M  END
>  <MODEL>
       1

$$$$
