output/tmp_first_model_6_14.pdb
 OpenBabel07222621163D

 67 73  0  0  1  0  0  0  0  0999 V2000
    9.9350   -1.1310   22.5820 C   0  0  0  0  0  0  0  0  0  0  0  0
    8.5720   -0.5220   22.2610 C   0  0  1  0  0  0  0  0  0  0  0  0
    8.3480   -0.3020   20.7510 C   0  0  0  0  0  0  0  0  0  0  0  0
    6.8940   -0.2740   20.6400 N   0  0  0  0  0  0  0  0  0  0  0  0
    6.1710    0.2230   19.5430 C   0  0  0  0  0  0  0  0  0  0  0  0
    6.5240   -0.0970   18.2520 C   0  0  0  0  0  0  0  0  0  0  0  0
    5.8550    0.3270   17.1500 N   0  0  0  0  0  0  0  0  0  0  0  0
    4.8220    1.1120   17.3420 C   0  0  0  0  0  0  0  0  0  0  0  0
    4.3540    1.5210   18.6220 C   0  0  0  0  0  0  0  0  0  0  0  0
    3.2210    2.3610   18.7710 C   0  0  0  0  0  0  0  0  0  0  0  0
    2.7730    2.7190   20.0120 C   0  0  0  0  0  0  0  0  0  0  0  0
    3.4590    2.2720   21.1630 C   0  0  0  0  0  0  0  0  0  0  0  0
    4.5750    1.4890   21.0490 C   0  0  0  0  0  0  0  0  0  0  0  0
    5.0410    1.0750   19.7660 C   0  0  0  0  0  0  0  0  0  0  0  0
    5.0820    1.1650   21.9490 H   0  0  0  0  0  0  0  0  0  0  0  0
    3.0920    2.5320   22.1510 H   0  0  0  0  0  0  0  0  0  0  0  0
    1.9040    3.3590   20.1230 H   0  0  0  0  0  0  0  0  0  0  0  0
    2.7270    2.7090   17.8680 H   0  0  0  0  0  0  0  0  0  0  0  0
    4.2820    1.4550   16.4580 H   0  0  0  0  0  0  0  0  0  0  0  0
    7.3680   -0.7600   18.0610 H   0  0  0  0  0  0  0  0  0  0  0  0
    6.2730   -0.9500   21.6770 C   0  0  0  0  0  0  0  0  0  0  0  0
    5.0880   -1.1780   21.7380 O   0  0  0  0  0  0  0  0  0  0  0  0
    7.3600   -1.4030   22.6730 C   0  0  1  0  0  0  0  0  0  0  0  0
    7.6440   -2.8720   22.3620 C   0  0  0  0  0  0  0  0  0  0  0  0
    6.4150   -3.6090   22.5360 N   0  0  0  0  0  0  0  0  0  0  0  0
    6.2030   -4.6940   21.5990 C   0  0  0  0  0  0  0  0  0  0  0  0
    7.1860   -5.8230   21.8920 C   0  0  0  0  0  0  0  0  0  0  0  0
    6.8030   -6.4950   23.1640 N   0  3  2  0  0  0  0  0  0  0  0  0
    7.9250   -6.8680   24.1130 C   0  0  0  0  0  0  0  0  0  0  0  0
    7.8100   -8.3950   24.1940 C   0  0  2  0  0  0  0  0  0  0  0  0
    7.3230   -8.7890   22.8170 C   0  0  0  0  0  0  0  0  0  0  0  0
    6.1400   -7.8330   22.9200 C   0  0  1  0  0  0  0  0  0  0  0  0
    5.5310   -8.2770   24.2460 C   0  0  0  0  0  0  0  0  0  0  0  0
    6.6650   -8.7210   25.0010 O   0  0  0  0  0  0  0  0  0  0  0  0
    4.8120   -9.0930   24.1220 H   0  0  0  0  0  0  0  0  0  0  0  0
    5.0220   -7.4490   24.7570 H   0  0  0  0  0  0  0  0  0  0  0  0
    5.4560   -7.8040   22.0790 H   0  0  0  0  0  0  0  0  0  0  0  0
    7.0780   -9.8470   22.7980 H   0  0  0  0  0  0  0  0  0  0  0  0
    7.9970   -8.5440   22.0030 H   0  0  0  0  0  0  0  0  0  0  0  0
    8.7110   -8.8760   24.5640 H   0  0  0  0  0  0  0  0  0  0  0  0
    7.7510   -6.3970   25.0790 H   0  0  0  0  0  0  0  0  0  0  0  0
    8.8930   -6.5330   23.7340 H   0  0  0  0  0  0  0  0  0  0  0  0
    6.1220   -5.8800   23.6670 H   0  0  0  0  0  0  0  0  0  0  0  0
    7.2310   -6.5520   21.0800 H   0  0  0  0  0  0  0  0  0  0  0  0
    8.1880   -5.3880   22.0000 H   0  0  0  0  0  0  0  0  0  0  0  0
    5.1620   -5.0130   21.6870 H   0  0  0  0  0  0  0  0  0  0  0  0
    6.3550   -4.2960   20.5900 H   0  0  0  0  0  0  0  0  0  0  0  0
    5.8980   -3.6600   23.7900 C   0  0  0  0  0  0  0  0  0  0  0  0
    5.2410   -4.6290   24.2000 O   0  0  0  0  0  0  0  0  0  0  0  0
    6.2200   -2.4910   24.6570 C   0  0  0  0  0  0  0  0  0  0  0  0
    5.8710   -2.5280   26.0080 C   0  0  0  0  0  0  0  0  0  0  0  0
    6.1480   -1.4490   26.8290 C   0  0  0  0  0  0  0  0  0  0  0  0
    6.7210   -0.3070   26.2630 C   0  0  0  0  0  0  0  0  0  0  0  0
    6.9480    1.1170   27.2440 Cl  0  0  0  0  0  0  0  0  0  0  0  0
    7.1000   -0.2640   24.9320 C   0  0  0  0  0  0  0  0  0  0  0  0
    6.8960   -1.3770   24.1150 C   0  0  0  0  0  0  0  0  0  0  0  0
    7.5450    0.6380   24.5240 H   0  0  0  0  0  0  0  0  0  0  0  0
    5.9210   -1.4720   27.8900 H   0  0  0  0  0  0  0  0  0  0  0  0
    5.3740   -3.4130   26.3950 H   0  0  0  0  0  0  0  0  0  0  0  0
    8.0050   -2.9930   21.3370 H   0  0  0  0  0  0  0  0  0  0  0  0
    8.4060   -3.2410   23.0640 H   0  0  0  0  0  0  0  0  0  0  0  0
    8.7800   -1.1370   20.1770 H   0  0  0  0  0  0  0  0  0  0  0  0
    8.7820    0.6330   20.3930 H   0  0  0  0  0  0  0  0  0  0  0  0
    8.4690    0.4620   22.7330 H   0  0  0  0  0  0  0  0  0  0  0  0
   10.7610   -0.4520   22.3460 H   0  0  0  0  0  0  0  0  0  0  0  0
   10.0800   -2.0420   21.9900 H   0  0  0  0  0  0  0  0  0  0  0  0
   10.0130   -1.4170   23.6380 H   0  0  0  0  0  0  0  0  0  0  0  0
  1  2  1  0  0  0  0
  1 65  1  0  0  0  0
  1 66  1  0  0  0  0
  1 67  1  0  0  0  0
  2  3  1  0  0  0  0
  2 23  1  0  0  0  0
  2 64  1  1  0  0  0
  3  4  1  0  0  0  0
  3 62  1  0  0  0  0
  3 63  1  0  0  0  0
  4  5  1  0  0  0  0
  4 21  1  0  0  0  0
  5  6  2  0  0  0  0
  5 14  1  0  0  0  0
  6  7  1  0  0  0  0
  6 20  1  0  0  0  0
  7  8  2  0  0  0  0
  8  9  1  0  0  0  0
  8 19  1  0  0  0  0
  9 10  2  0  0  0  0
  9 14  1  0  0  0  0
 10 11  1  0  0  0  0
 10 18  1  0  0  0  0
 11 12  2  0  0  0  0
 11 17  1  0  0  0  0
 12 13  1  0  0  0  0
 12 16  1  0  0  0  0
 13 14  2  0  0  0  0
 13 15  1  0  0  0  0
 21 22  2  0  0  0  0
 23 21  1  6  0  0  0
 23 24  1  0  0  0  0
 23 56  1  0  0  0  0
 24 25  1  0  0  0  0
 24 60  1  0  0  0  0
 24 61  1  0  0  0  0
 25 26  1  0  0  0  0
 25 48  1  0  0  0  0
 26 27  1  0  0  0  0
 26 46  1  0  0  0  0
 26 47  1  0  0  0  0
 27 28  1  0  0  0  0
 27 44  1  0  0  0  0
 27 45  1  0  0  0  0
 28 29  1  0  0  0  0
 28 32  1  0  0  0  0
 28 43  1  1  0  0  0
 29 30  1  0  0  0  0
 29 41  1  0  0  0  0
 29 42  1  0  0  0  0
 30 31  1  0  0  0  0
 30 34  1  0  0  0  0
 30 40  1  1  0  0  0
 31 32  1  0  0  0  0
 31 38  1  0  0  0  0
 31 39  1  0  0  0  0
 32 33  1  0  0  0  0
 32 37  1  6  0  0  0
 33 34  1  0  0  0  0
 33 35  1  0  0  0  0
 33 36  1  0  0  0  0
 48 49  2  0  0  0  0
 48 50  1  0  0  0  0
 50 51  2  0  0  0  0
 50 56  1  0  0  0  0
 51 52  1  0  0  0  0
 51 59  1  0  0  0  0
 52 53  2  0  0  0  0
 52 58  1  0  0  0  0
 53 54  1  0  0  0  0
 53 55  1  0  0  0  0
 55 56  2  0  0  0  0
 55 57  1  0  0  0  0
M  CHG  1  28   1
M  END
>  <MODEL>
       1

$$$$
