output/tmp_first_model_11_15.pdb
 OpenBabel07222623443D

 72 77  0  0  1  0  0  0  0  0999 V2000
    6.9550    7.7620   21.5450 C   0  0  0  0  0  0  0  0  0  0  0  0
    5.9690    6.6100   21.4630 C   0  0  1  0  0  0  0  0  0  0  0  0
    6.7010    5.2610   21.3840 C   0  0  0  0  0  0  0  0  0  0  0  0
    6.9310    4.6850   22.7400 N   0  3  2  0  0  0  0  0  0  0  0  0
    7.6360    3.3900   22.6390 C   0  0  0  0  0  0  0  0  0  0  0  0
    8.0630    2.8720   24.0020 C   0  0  0  0  0  0  0  0  0  0  0  0
    8.7700    1.6210   23.8530 N   0  0  0  0  0  0  0  0  0  0  0  0
    8.0650    0.3560   23.7760 C   0  0  0  0  0  0  0  0  0  0  0  0
    8.4840   -0.4720   22.5250 C   0  0  2  0  0  0  0  0  0  0  0  0
    8.0270    0.1830   21.2010 C   0  0  0  0  0  0  0  0  0  0  0  0
    8.5760    1.0780   20.5790 O   0  0  0  0  0  0  0  0  0  0  0  0
    6.8760   -0.4490   20.7930 N   0  0  0  0  0  0  0  0  0  0  0  0
    6.1060    0.0790   19.7350 C   0  0  0  0  0  0  0  0  0  0  0  0
    6.4460   -0.2010   18.4360 C   0  0  0  0  0  0  0  0  0  0  0  0
    5.7540    0.2400   17.3580 N   0  0  0  0  0  0  0  0  0  0  0  0
    4.7210    1.0110   17.5880 C   0  0  0  0  0  0  0  0  0  0  0  0
    4.2830    1.4060   18.8860 C   0  0  0  0  0  0  0  0  0  0  0  0
    3.1760    2.2690   19.0750 C   0  0  0  0  0  0  0  0  0  0  0  0
    2.7970    2.6440   20.3320 C   0  0  0  0  0  0  0  0  0  0  0  0
    3.4940    2.1650   21.4630 C   0  0  0  0  0  0  0  0  0  0  0  0
    4.5720    1.3260   21.3120 C   0  0  0  0  0  0  0  0  0  0  0  0
    4.9900    0.9250   20.0090 C   0  0  0  0  0  0  0  0  0  0  0  0
    5.1110    0.9910   22.1930 H   0  0  0  0  0  0  0  0  0  0  0  0
    3.1730    2.4680   22.4530 H   0  0  0  0  0  0  0  0  0  0  0  0
    1.9580    3.3180   20.4650 H   0  0  0  0  0  0  0  0  0  0  0  0
    2.6630    2.6350   18.1910 H   0  0  0  0  0  0  0  0  0  0  0  0
    4.1700    1.3700   16.7210 H   0  0  0  0  0  0  0  0  0  0  0  0
    7.3150   -0.8230   18.2410 H   0  0  0  0  0  0  0  0  0  0  0  0
    6.4470   -1.5270   21.6650 C   0  0  0  0  0  0  0  0  0  0  0  0
    7.7380   -1.8280   22.4360 C   0  0  2  0  0  0  0  0  0  0  0  0
    7.5570   -2.5710   23.7470 C   0  0  0  0  0  0  0  0  0  0  0  0
    7.0950   -3.5480   23.5720 H   0  0  0  0  0  0  0  0  0  0  0  0
    8.5310   -2.7250   24.2250 H   0  0  0  0  0  0  0  0  0  0  0  0
    6.9190   -2.0110   24.4410 H   0  0  0  0  0  0  0  0  0  0  0  0
    8.3190   -2.4560   21.7550 H   0  0  0  0  0  0  0  0  0  0  0  0
    5.6170   -1.2350   22.3320 H   0  0  0  0  0  0  0  0  0  0  0  0
    6.1090   -2.3890   21.0750 H   0  0  0  0  0  0  0  0  0  0  0  0
    9.9840   -0.5510   22.5030 C   0  0  0  0  0  0  0  0  0  0  0  0
   10.6270   -1.5280   21.7430 C   0  0  0  0  0  0  0  0  0  0  0  0
   11.9810   -1.4720   21.5540 C   0  0  0  0  0  0  0  0  0  0  0  0
   12.6170   -2.5570   20.3360 Cl  0  0  0  0  0  0  0  0  0  0  0  0
   12.7480   -0.5010   22.2130 C   0  0  0  0  0  0  0  0  0  0  0  0
   12.1210    0.4830   22.9430 C   0  0  0  0  0  0  0  0  0  0  0  0
   10.7410    0.4910   23.0460 C   0  0  0  0  0  0  0  0  0  0  0  0
   10.1220    1.7090   23.6580 C   0  0  0  0  0  0  0  0  0  0  0  0
   10.7660    2.7010   23.9210 O   0  0  0  0  0  0  0  0  0  0  0  0
   12.7030    1.2820   23.3720 H   0  0  0  0  0  0  0  0  0  0  0  0
   13.8190   -0.4230   22.1300 H   0  0  0  0  0  0  0  0  0  0  0  0
   10.0860   -2.3480   21.2710 H   0  0  0  0  0  0  0  0  0  0  0  0
    8.3170   -0.2400   24.6670 H   0  0  0  0  0  0  0  0  0  0  0  0
    6.9790    0.5440   23.7900 H   0  0  0  0  0  0  0  0  0  0  0  0
    8.7390    3.6000   24.4560 H   0  0  0  0  0  0  0  0  0  0  0  0
    7.2020    2.7470   24.6680 H   0  0  0  0  0  0  0  0  0  0  0  0
    8.5220    3.5150   22.0080 H   0  0  0  0  0  0  0  0  0  0  0  0
    6.9770    2.6710   22.1380 H   0  0  0  0  0  0  0  0  0  0  0  0
    5.6730    4.6050   23.6070 C   0  0  1  0  0  0  0  0  0  0  0  0
    5.9900    5.1350   25.0070 C   0  0  0  0  0  0  0  0  0  0  0  0
    5.1330    5.0100   25.6740 H   0  0  0  0  0  0  0  0  0  0  0  0
    6.2420    6.1980   24.9380 H   0  0  0  0  0  0  0  0  0  0  0  0
    6.8450    4.6190   25.4540 H   0  0  0  0  0  0  0  0  0  0  0  0
    4.5790    5.4190   22.9290 C   0  0  0  0  0  0  0  0  0  0  0  0
    5.1020    6.6830   22.5890 O   0  0  0  0  0  0  0  0  0  0  0  0
    3.7440    5.5750   23.6180 H   0  0  0  0  0  0  0  0  0  0  0  0
    4.1890    4.8950   22.0420 H   0  0  0  0  0  0  0  0  0  0  0  0
    5.3620    3.5540   23.6420 H   0  0  0  0  0  0  0  0  0  0  0  0
    7.5800    5.3380   23.2240 H   0  0  0  0  0  0  0  0  0  0  0  0
    7.6750    5.4130   20.9130 H   0  0  0  0  0  0  0  0  0  0  0  0
    6.1520    4.5310   20.7710 H   0  0  0  0  0  0  0  0  0  0  0  0
    5.3690    6.7070   20.5430 H   0  0  0  0  0  0  0  0  0  0  0  0
    6.4490    8.7310   21.5460 H   0  0  0  0  0  0  0  0  0  0  0  0
    7.5760    7.6770   22.4460 H   0  0  0  0  0  0  0  0  0  0  0  0
    7.6080    7.7010   20.6740 H   0  0  0  0  0  0  0  0  0  0  0  0
  1  2  1  0  0  0  0
  1 70  1  0  0  0  0
  1 71  1  0  0  0  0
  1 72  1  0  0  0  0
  2  3  1  0  0  0  0
  2 62  1  0  0  0  0
  2 69  1  6  0  0  0
  3  4  1  0  0  0  0
  3 67  1  0  0  0  0
  3 68  1  0  0  0  0
  4  5  1  0  0  0  0
  4 56  1  0  0  0  0
  4 66  1  1  0  0  0
  5  6  1  0  0  0  0
  5 54  1  0  0  0  0
  5 55  1  0  0  0  0
  6  7  1  0  0  0  0
  6 52  1  0  0  0  0
  6 53  1  0  0  0  0
  7  8  1  0  0  0  0
  7 45  1  0  0  0  0
  8  9  1  0  0  0  0
  8 50  1  0  0  0  0
  8 51  1  0  0  0  0
  9 10  1  6  0  0  0
  9 30  1  0  0  0  0
  9 38  1  0  0  0  0
 10 11  2  0  0  0  0
 10 12  1  0  0  0  0
 12 13  1  0  0  0  0
 12 29  1  0  0  0  0
 13 14  2  0  0  0  0
 13 22  1  0  0  0  0
 14 15  1  0  0  0  0
 14 28  1  0  0  0  0
 15 16  2  0  0  0  0
 16 17  1  0  0  0  0
 16 27  1  0  0  0  0
 17 18  2  0  0  0  0
 17 22  1  0  0  0  0
 18 19  1  0  0  0  0
 18 26  1  0  0  0  0
 19 20  2  0  0  0  0
 19 25  1  0  0  0  0
 20 21  1  0  0  0  0
 20 24  1  0  0  0  0
 21 22  2  0  0  0  0
 21 23  1  0  0  0  0
 29 30  1  0  0  0  0
 29 36  1  0  0  0  0
 29 37  1  0  0  0  0
 30 31  1  0  0  0  0
 30 35  1  6  0  0  0
 31 32  1  0  0  0  0
 31 33  1  0  0  0  0
 31 34  1  0  0  0  0
 38 39  2  0  0  0  0
 38 44  1  0  0  0  0
 39 40  1  0  0  0  0
 39 49  1  0  0  0  0
 40 41  1  0  0  0  0
 40 42  2  0  0  0  0
 42 43  1  0  0  0  0
 42 48  1  0  0  0  0
 43 44  2  0  0  0  0
 43 47  1  0  0  0  0
 44 45  1  0  0  0  0
 45 46  2  0  0  0  0
 56 57  1  0  0  0  0
 56 61  1  0  0  0  0
 56 65  1  1  0  0  0
 57 58  1  0  0  0  0
 57 59  1  0  0  0  0
 57 60  1  0  0  0  0
 61 62  1  0  0  0  0
 61 63  1  0  0  0  0
 61 64  1  0  0  0  0
M  CHG  1   4   1
M  END
>  <MODEL>
       1

$$$$
