output/tmp_first_model_11_42.pdb
 OpenBabel07222623443D

 60 65  0  0  1  0  0  0  0  0999 V2000
    6.6960    4.3640   21.2860 C   0  0  0  0  0  0  0  0  0  0  0  0
    7.6600    3.9990   22.3100 N   0  0  0  0  0  0  0  0  0  0  0  0
    7.1480    3.3420   23.3850 C   0  0  0  0  0  0  0  0  0  0  0  0
    5.9400    3.1930   23.5180 O   0  0  0  0  0  0  0  0  0  0  0  0
    8.1070    2.8000   24.4420 C   0  0  0  0  0  0  0  0  0  0  0  0
    8.7910    1.6150   23.9890 N   0  0  0  0  0  0  0  0  0  0  0  0
    8.0540    0.3720   23.8600 C   0  0  0  0  0  0  0  0  0  0  0  0
    8.4640   -0.4120   22.5970 C   0  0  2  0  0  0  0  0  0  0  0  0
    7.9630    0.2830   21.3150 C   0  0  0  0  0  0  0  0  0  0  0  0
    8.4160    1.2810   20.7950 O   0  0  0  0  0  0  0  0  0  0  0  0
    6.8940   -0.4320   20.8300 N   0  0  0  0  0  0  0  0  0  0  0  0
    6.1180    0.0820   19.7660 C   0  0  0  0  0  0  0  0  0  0  0  0
    6.4570   -0.2160   18.4730 C   0  0  0  0  0  0  0  0  0  0  0  0
    5.7820    0.2300   17.3890 N   0  0  0  0  0  0  0  0  0  0  0  0
    4.7470    1.0100   17.5950 C   0  0  0  0  0  0  0  0  0  0  0  0
    4.2920    1.4010   18.8880 C   0  0  0  0  0  0  0  0  0  0  0  0
    3.1710    2.2530   19.0670 C   0  0  0  0  0  0  0  0  0  0  0  0
    2.7730    2.6270   20.3240 C   0  0  0  0  0  0  0  0  0  0  0  0
    3.4700    2.1620   21.4600 C   0  0  0  0  0  0  0  0  0  0  0  0
    4.5550    1.3300   21.3140 C   0  0  0  0  0  0  0  0  0  0  0  0
    4.9940    0.9270   20.0190 C   0  0  0  0  0  0  0  0  0  0  0  0
    5.1020    1.0050   22.1940 H   0  0  0  0  0  0  0  0  0  0  0  0
    3.1660    2.4790   22.4550 H   0  0  0  0  0  0  0  0  0  0  0  0
    1.9230    3.2910   20.4480 H   0  0  0  0  0  0  0  0  0  0  0  0
    2.6570    2.6190   18.1840 H   0  0  0  0  0  0  0  0  0  0  0  0
    4.2050    1.3690   16.7200 H   0  0  0  0  0  0  0  0  0  0  0  0
    7.3230   -0.8460   18.2750 H   0  0  0  0  0  0  0  0  0  0  0  0
    6.5500   -1.6030   21.6070 C   0  0  0  0  0  0  0  0  0  0  0  0
    7.7720   -1.8010   22.5100 C   0  0  2  0  0  0  0  0  0  0  0  0
    7.4380   -2.5050   23.8330 C   0  0  0  0  0  0  0  0  0  0  0  0
    6.9130   -3.8790   23.6000 C   0  0  0  0  0  0  0  0  0  0  0  0
    7.6690   -4.9530   23.4240 N   0  0  0  0  0  0  0  0  0  0  0  0
    6.8070   -5.9400   23.2020 N   0  0  0  0  0  0  0  0  0  0  0  0
    5.5860   -5.4720   23.2440 N   0  5  0  0  0  0  0  0  0  0  0  0
    5.6220   -4.1680   23.4980 N   0  0  0  0  0  0  0  0  0  0  0  0
    6.6750   -1.9490   24.3770 H   0  0  0  0  0  0  0  0  0  0  0  0
    8.3270   -2.5890   24.4630 H   0  0  0  0  0  0  0  0  0  0  0  0
    8.4610   -2.4670   21.9930 H   0  0  0  0  0  0  0  0  0  0  0  0
    5.6460   -1.4450   22.2110 H   0  0  0  0  0  0  0  0  0  0  0  0
    6.3700   -2.4680   20.9630 H   0  0  0  0  0  0  0  0  0  0  0  0
    9.9700   -0.4590   22.5580 C   0  0  0  0  0  0  0  0  0  0  0  0
   10.5910   -1.3580   21.6930 C   0  0  0  0  0  0  0  0  0  0  0  0
   11.9620   -1.3630   21.5760 C   0  0  0  0  0  0  0  0  0  0  0  0
   12.6200   -2.4430   20.3610 Cl  0  0  0  0  0  0  0  0  0  0  0  0
   12.7450   -0.4960   22.3550 C   0  0  0  0  0  0  0  0  0  0  0  0
   12.1410    0.4370   23.1630 C   0  0  0  0  0  0  0  0  0  0  0  0
   10.7570    0.4850   23.2200 C   0  0  0  0  0  0  0  0  0  0  0  0
   10.1510    1.6570   23.8930 C   0  0  0  0  0  0  0  0  0  0  0  0
   10.8180    2.6050   24.2930 O   0  0  0  0  0  0  0  0  0  0  0  0
   12.7130    1.1720   23.7230 H   0  0  0  0  0  0  0  0  0  0  0  0
   13.8190   -0.4420   22.2770 H   0  0  0  0  0  0  0  0  0  0  0  0
   10.0090   -2.0420   21.0840 H   0  0  0  0  0  0  0  0  0  0  0  0
    8.2570   -0.2650   24.7290 H   0  0  0  0  0  0  0  0  0  0  0  0
    6.9840    0.6040   23.8490 H   0  0  0  0  0  0  0  0  0  0  0  0
    7.4770    2.5720   25.3100 H   0  0  0  0  0  0  0  0  0  0  0  0
    8.8820    3.5300   24.7000 H   0  0  0  0  0  0  0  0  0  0  0  0
    8.6300    3.8860   22.0300 H   0  0  0  0  0  0  0  0  0  0  0  0
    7.1850    4.8560   20.4580 H   0  0  0  0  0  0  0  0  0  0  0  0
    6.1670    3.4740   20.9150 H   0  0  0  0  0  0  0  0  0  0  0  0
    5.9690    5.0650   21.7030 H   0  0  0  0  0  0  0  0  0  0  0  0
  1  2  1  0  0  0  0
  1 58  1  0  0  0  0
  1 59  1  0  0  0  0
  1 60  1  0  0  0  0
  2  3  1  0  0  0  0
  2 57  1  0  0  0  0
  3  4  2  0  0  0  0
  3  5  1  0  0  0  0
  5  6  1  0  0  0  0
  5 55  1  0  0  0  0
  5 56  1  0  0  0  0
  6  7  1  0  0  0  0
  6 48  1  0  0  0  0
  7  8  1  0  0  0  0
  7 53  1  0  0  0  0
  7 54  1  0  0  0  0
  8  9  1  6  0  0  0
  8 29  1  0  0  0  0
  8 41  1  0  0  0  0
  9 10  2  0  0  0  0
  9 11  1  0  0  0  0
 11 12  1  0  0  0  0
 11 28  1  0  0  0  0
 12 13  2  0  0  0  0
 12 21  1  0  0  0  0
 13 14  1  0  0  0  0
 13 27  1  0  0  0  0
 14 15  2  0  0  0  0
 15 16  1  0  0  0  0
 15 26  1  0  0  0  0
 16 17  2  0  0  0  0
 16 21  1  0  0  0  0
 17 18  1  0  0  0  0
 17 25  1  0  0  0  0
 18 19  2  0  0  0  0
 18 24  1  0  0  0  0
 19 20  1  0  0  0  0
 19 23  1  0  0  0  0
 20 21  2  0  0  0  0
 20 22  1  0  0  0  0
 28 29  1  0  0  0  0
 28 39  1  0  0  0  0
 28 40  1  0  0  0  0
 29 30  1  0  0  0  0
 29 38  1  6  0  0  0
 30 31  1  0  0  0  0
 30 36  1  0  0  0  0
 30 37  1  0  0  0  0
 31 32  1  0  0  0  0
 31 35  2  0  0  0  0
 32 33  2  0  0  0  0
 33 34  1  0  0  0  0
 34 35  1  0  0  0  0
 41 42  2  0  0  0  0
 41 47  1  0  0  0  0
 42 43  1  0  0  0  0
 42 52  1  0  0  0  0
 43 44  1  0  0  0  0
 43 45  2  0  0  0  0
 45 46  1  0  0  0  0
 45 51  1  0  0  0  0
 46 47  2  0  0  0  0
 46 50  1  0  0  0  0
 47 48  1  0  0  0  0
 48 49  2  0  0  0  0
M  CHG  1  34  -1
M  END
>  <MODEL>
       1

$$$$
