output/tmp_first_model_15_83.pdb
 OpenBabel07232601353D

 72 77  0  0  1  0  0  0  0  0999 V2000
    9.2140    6.0430   23.5010 C   0  0  0  0  0  0  0  0  0  0  0  0
    7.9810    6.0580   22.6010 C   0  0  2  0  0  0  0  0  0  0  0  0
    7.2580    7.3960   22.7030 C   0  0  0  0  0  0  0  0  0  0  0  0
    6.0700    7.4280   21.9450 O   0  0  0  0  0  0  0  0  0  0  0  0
    5.1530    6.4730   22.4330 C   0  0  0  0  0  0  0  0  0  0  0  0
    5.6650    5.0470   22.2750 C   0  0  1  0  0  0  0  0  0  0  0  0
    5.7140    4.6440   20.8070 C   0  0  0  0  0  0  0  0  0  0  0  0
    6.0050    3.5930   20.6950 H   0  0  0  0  0  0  0  0  0  0  0  0
    6.4100    5.2860   20.2560 H   0  0  0  0  0  0  0  0  0  0  0  0
    4.7210    4.7450   20.3540 H   0  0  0  0  0  0  0  0  0  0  0  0
    7.0170    4.9310   22.9740 N   0  3  1  0  0  0  0  0  0  0  0  0
    7.6420    3.5780   22.8560 C   0  0  0  0  0  0  0  0  0  0  0  0
    8.0740    2.9880   24.2080 C   0  0  0  0  0  0  0  0  0  0  0  0
    8.7640    1.7230   24.0250 N   0  0  0  0  0  0  0  0  0  0  0  0
    7.9510    0.5310   23.8620 C   0  0  0  0  0  0  0  0  0  0  0  0
    8.4040   -0.3340   22.6690 C   0  0  2  0  0  0  0  0  0  0  0  0
    7.9930    0.2960   21.3190 C   0  0  0  0  0  0  0  0  0  0  0  0
    8.5300    1.2200   20.7340 O   0  0  0  0  0  0  0  0  0  0  0  0
    6.8950   -0.3780   20.8440 N   0  0  0  0  0  0  0  0  0  0  0  0
    6.1400    0.1400   19.7640 C   0  0  0  0  0  0  0  0  0  0  0  0
    6.4940   -0.1470   18.4720 C   0  0  0  0  0  0  0  0  0  0  0  0
    5.8110    0.2890   17.3900 N   0  0  0  0  0  0  0  0  0  0  0  0
    4.7630    1.0500   17.6000 C   0  0  0  0  0  0  0  0  0  0  0  0
    4.2990    1.4360   18.8900 C   0  0  0  0  0  0  0  0  0  0  0  0
    3.1640    2.2680   19.0810 C   0  0  0  0  0  0  0  0  0  0  0  0
    2.7520    2.6150   20.3390 C   0  0  0  0  0  0  0  0  0  0  0  0
    3.4630    2.1620   21.4680 C   0  0  0  0  0  0  0  0  0  0  0  0
    4.5650    1.3560   21.3160 C   0  0  0  0  0  0  0  0  0  0  0  0
    5.0050    0.9650   20.0190 C   0  0  0  0  0  0  0  0  0  0  0  0
    5.1110    1.0340   22.1950 H   0  0  0  0  0  0  0  0  0  0  0  0
    3.1430    2.4540   22.4630 H   0  0  0  0  0  0  0  0  0  0  0  0
    1.8880    3.2580   20.4700 H   0  0  0  0  0  0  0  0  0  0  0  0
    2.6370    2.6260   18.2030 H   0  0  0  0  0  0  0  0  0  0  0  0
    4.2210    1.3920   16.7190 H   0  0  0  0  0  0  0  0  0  0  0  0
    7.3650   -0.7700   18.2840 H   0  0  0  0  0  0  0  0  0  0  0  0
    6.4290   -1.4430   21.7100 C   0  0  0  0  0  0  0  0  0  0  0  0
    7.6530   -1.6960   22.6030 C   0  0  2  0  0  0  0  0  0  0  0  0
    7.3820   -2.4220   23.9150 C   0  0  0  0  0  0  0  0  0  0  0  0
    8.3130   -2.5570   24.4790 H   0  0  0  0  0  0  0  0  0  0  0  0
    6.6750   -1.8830   24.5550 H   0  0  0  0  0  0  0  0  0  0  0  0
    6.9670   -3.4170   23.7240 H   0  0  0  0  0  0  0  0  0  0  0  0
    8.3040   -2.3490   22.0220 H   0  0  0  0  0  0  0  0  0  0  0  0
    6.1610   -2.3190   21.1080 H   0  0  0  0  0  0  0  0  0  0  0  0
    5.5410   -1.1530   22.2920 H   0  0  0  0  0  0  0  0  0  0  0  0
    9.9050   -0.4570   22.6960 C   0  0  0  0  0  0  0  0  0  0  0  0
   10.4800   -1.3660   21.8080 C   0  0  0  0  0  0  0  0  0  0  0  0
   11.8450   -1.4220   21.6500 C   0  0  0  0  0  0  0  0  0  0  0  0
   12.4210   -2.4400   20.3660 Cl  0  0  0  0  0  0  0  0  0  0  0  0
   12.6910   -0.6080   22.4050 C   0  0  0  0  0  0  0  0  0  0  0  0
   12.1210    0.3290   23.2550 C   0  0  0  0  0  0  0  0  0  0  0  0
   10.7320    0.4510   23.3600 C   0  0  0  0  0  0  0  0  0  0  0  0
   10.1340    1.6820   23.9910 C   0  0  0  0  0  0  0  0  0  0  0  0
   10.8350    2.6030   24.3950 O   0  0  0  0  0  0  0  0  0  0  0  0
   12.7340    1.0350   23.8000 H   0  0  0  0  0  0  0  0  0  0  0  0
   13.7630   -0.6640   22.2390 H   0  0  0  0  0  0  0  0  0  0  0  0
    9.8480   -1.9610   21.1600 H   0  0  0  0  0  0  0  0  0  0  0  0
    6.9090    0.8520   23.7430 H   0  0  0  0  0  0  0  0  0  0  0  0
    8.0110   -0.0870   24.7690 H   0  0  0  0  0  0  0  0  0  0  0  0
    8.7290    3.6500   24.7770 H   0  0  0  0  0  0  0  0  0  0  0  0
    7.1850    2.8010   24.8250 H   0  0  0  0  0  0  0  0  0  0  0  0
    8.4970    3.6270   22.1730 H   0  0  0  0  0  0  0  0  0  0  0  0
    6.9270    2.8770   22.4130 H   0  0  0  0  0  0  0  0  0  0  0  0
    6.8240    5.0480   23.9880 H   0  0  0  0  0  0  0  0  0  0  0  0
    4.9830    4.3730   22.8050 H   0  0  0  0  0  0  0  0  0  0  0  0
    4.2330    6.6070   21.8550 H   0  0  0  0  0  0  0  0  0  0  0  0
    4.9290    6.6730   23.4920 H   0  0  0  0  0  0  0  0  0  0  0  0
    7.0270    7.6030   23.7630 H   0  0  0  0  0  0  0  0  0  0  0  0
    7.9010    8.1980   22.3240 H   0  0  0  0  0  0  0  0  0  0  0  0
    8.2870    5.9010   21.5600 H   0  0  0  0  0  0  0  0  0  0  0  0
    9.8290    5.1480   23.3520 H   0  0  0  0  0  0  0  0  0  0  0  0
    9.8430    6.9170   23.3050 H   0  0  0  0  0  0  0  0  0  0  0  0
    8.9080    6.0770   24.5570 H   0  0  0  0  0  0  0  0  0  0  0  0
  1  2  1  0  0  0  0
  1 70  1  0  0  0  0
  1 71  1  0  0  0  0
  1 72  1  0  0  0  0
  2  3  1  0  0  0  0
  2 11  1  0  0  0  0
  2 69  1  6  0  0  0
  3  4  1  0  0  0  0
  3 67  1  0  0  0  0
  3 68  1  0  0  0  0
  4  5  1  0  0  0  0
  5  6  1  0  0  0  0
  5 65  1  0  0  0  0
  5 66  1  0  0  0  0
  6  7  1  0  0  0  0
  6 11  1  0  0  0  0
  6 64  1  1  0  0  0
  7  8  1  0  0  0  0
  7  9  1  0  0  0  0
  7 10  1  0  0  0  0
 11 12  1  0  0  0  0
 11 63  1  1  0  0  0
 12 13  1  0  0  0  0
 12 61  1  0  0  0  0
 12 62  1  0  0  0  0
 13 14  1  0  0  0  0
 13 59  1  0  0  0  0
 13 60  1  0  0  0  0
 14 15  1  0  0  0  0
 14 52  1  0  0  0  0
 15 16  1  0  0  0  0
 15 57  1  0  0  0  0
 15 58  1  0  0  0  0
 16 17  1  6  0  0  0
 16 37  1  0  0  0  0
 16 45  1  0  0  0  0
 17 18  2  0  0  0  0
 17 19  1  0  0  0  0
 19 20  1  0  0  0  0
 19 36  1  0  0  0  0
 20 21  2  0  0  0  0
 20 29  1  0  0  0  0
 21 22  1  0  0  0  0
 21 35  1  0  0  0  0
 22 23  2  0  0  0  0
 23 24  1  0  0  0  0
 23 34  1  0  0  0  0
 24 25  2  0  0  0  0
 24 29  1  0  0  0  0
 25 26  1  0  0  0  0
 25 33  1  0  0  0  0
 26 27  2  0  0  0  0
 26 32  1  0  0  0  0
 27 28  1  0  0  0  0
 27 31  1  0  0  0  0
 28 29  2  0  0  0  0
 28 30  1  0  0  0  0
 36 37  1  0  0  0  0
 36 43  1  0  0  0  0
 36 44  1  0  0  0  0
 37 38  1  0  0  0  0
 37 42  1  6  0  0  0
 38 39  1  0  0  0  0
 38 40  1  0  0  0  0
 38 41  1  0  0  0  0
 45 46  2  0  0  0  0
 45 51  1  0  0  0  0
 46 47  1  0  0  0  0
 46 56  1  0  0  0  0
 47 48  1  0  0  0  0
 47 49  2  0  0  0  0
 49 50  1  0  0  0  0
 49 55  1  0  0  0  0
 50 51  2  0  0  0  0
 50 54  1  0  0  0  0
 51 52  1  0  0  0  0
 52 53  2  0  0  0  0
M  CHG  1  11   1
M  END
>  <MODEL>
       1

$$$$
