output/tmp_first_model_13_3.pdb
 OpenBabel07232600343D

 67 73  0  0  1  0  0  0  0  0999 V2000
    9.3300    2.1720   24.7650 O   0  0  0  0  0  0  0  0  0  0  0  0
    8.9120    1.0310   24.5920 C   0  0  0  0  0  0  0  0  0  0  0  0
    9.7440   -0.1880   24.3170 C   0  0  0  0  0  0  0  0  0  0  0  0
   11.1170   -0.3260   24.9070 C   0  0  0  0  0  0  0  0  0  0  0  0
   11.8270   -1.3650   24.9570 C   0  0  0  0  0  0  0  0  0  0  0  0
   11.2180   -3.3890   23.8720 C   0  0  0  0  0  0  0  0  0  0  0  0
   11.8280   -2.0700   22.3420 Cl  0  0  0  0  0  0  0  0  0  0  0  0
   10.1690   -1.4660   22.2540 C   0  0  0  0  0  0  0  0  0  0  0  0
    9.3610   -0.9830   23.2390 C   0  0  0  0  0  0  0  0  0  0  0  0
    7.8510   -1.0650   22.9710 C   0  0  1  0  0  0  0  0  0  0  0  0
    7.0460   -0.4780   24.1640 C   0  0  0  0  0  0  0  0  0  0  0  0
    7.5700    0.8070   24.5390 N   0  0  0  0  0  0  0  0  0  0  0  0
    6.6430    1.8850   24.8200 C   0  0  0  0  0  0  0  0  0  0  0  0
    5.7790    1.5860   26.0280 C   0  0  0  0  0  0  0  0  0  0  0  0
    4.5080    1.0610   25.9400 C   0  0  0  0  0  0  0  0  0  0  0  0
    3.8510    0.7420   27.1260 C   0  0  0  0  0  0  0  0  0  0  0  0
    4.3740    0.9370   28.3310 N   0  0  0  0  0  0  0  0  0  0  0  0
    5.5910    1.4620   28.4280 N   0  0  0  0  0  0  0  0  0  0  0  0
    6.2690    1.7700   27.3280 C   0  0  0  0  0  0  0  0  0  0  0  0
    7.2500    2.2130   27.5020 H   0  0  0  0  0  0  0  0  0  0  0  0
    2.8530    0.3100   27.1160 H   0  0  0  0  0  0  0  0  0  0  0  0
    4.0200    0.9080   24.9780 H   0  0  0  0  0  0  0  0  0  0  0  0
    7.2500    2.7800   24.9810 H   0  0  0  0  0  0  0  0  0  0  0  0
    6.0180    2.0460   23.9270 H   0  0  0  0  0  0  0  0  0  0  0  0
    7.0100   -1.1110   25.0600 H   0  0  0  0  0  0  0  0  0  0  0  0
    6.0120   -0.3180   23.8400 H   0  0  0  0  0  0  0  0  0  0  0  0
    7.5080   -0.2050   21.7360 C   0  0  0  0  0  0  0  0  0  0  0  0
    7.8620    0.9340   21.5100 O   0  0  0  0  0  0  0  0  0  0  0  0
    6.6720   -0.9320   20.9200 N   0  0  0  0  0  0  0  0  0  0  0  0
    6.0500   -0.2440   19.8420 C   0  0  0  0  0  0  0  0  0  0  0  0
    6.5180   -0.4250   18.5670 C   0  0  0  0  0  0  0  0  0  0  0  0
    5.9930    0.1610   17.4600 N   0  0  0  0  0  0  0  0  0  0  0  0
    4.9750    0.9680   17.6360 C   0  0  0  0  0  0  0  0  0  0  0  0
    4.4170    1.2840   18.9070 C   0  0  0  0  0  0  0  0  0  0  0  0
    3.3190    2.1760   19.0350 C   0  0  0  0  0  0  0  0  0  0  0  0
    2.8650    2.5490   20.2680 C   0  0  0  0  0  0  0  0  0  0  0  0
    3.4880    2.0400   21.4280 C   0  0  0  0  0  0  0  0  0  0  0  0
    4.5200    1.1410   21.3280 C   0  0  0  0  0  0  0  0  0  0  0  0
    5.0020    0.7120   20.0580 C   0  0  0  0  0  0  0  0  0  0  0  0
    4.9800    0.7540   22.2310 H   0  0  0  0  0  0  0  0  0  0  0  0
    3.1430    2.3600   22.4070 H   0  0  0  0  0  0  0  0  0  0  0  0
    2.0360    3.2450   20.3600 H   0  0  0  0  0  0  0  0  0  0  0  0
    2.8630    2.5630   18.1280 H   0  0  0  0  0  0  0  0  0  0  0  0
    4.5500    1.4340   16.7470 H   0  0  0  0  0  0  0  0  0  0  0  0
    7.3800   -1.0680   18.4060 H   0  0  0  0  0  0  0  0  0  0  0  0
    6.2430   -2.1930   21.5370 C   0  0  0  0  0  0  0  0  0  0  0  0
    7.3980   -2.4670   22.5110 C   0  0  2  0  0  0  0  0  0  0  0  0
    7.2160   -3.5220   23.6100 C   0  0  0  0  0  0  0  0  0  0  0  0
    5.9290   -3.5390   24.2860 N   0  0  0  0  0  0  0  0  0  0  0  0
    4.8600   -4.1730   23.7250 C   0  0  0  0  0  0  0  0  0  0  0  0
    3.5400   -3.9080   24.1400 C   0  0  0  0  0  0  0  0  0  0  0  0
    2.5480   -4.5710   23.4530 C   0  0  0  0  0  0  0  0  0  0  0  0
    2.7820   -5.4540   22.4700 N   0  0  0  0  0  0  0  0  0  0  0  0
    4.0640   -5.6480   22.1940 C   0  0  0  0  0  0  0  0  0  0  0  0
    5.1130   -5.0350   22.7300 N   0  0  0  0  0  0  0  0  0  0  0  0
    4.2990   -6.3930   21.4320 H   0  0  0  0  0  0  0  0  0  0  0  0
    1.5010   -4.3940   23.6970 H   0  0  0  0  0  0  0  0  0  0  0  0
    3.3210   -3.2230   24.9590 H   0  0  0  0  0  0  0  0  0  0  0  0
    5.7290   -2.7550   24.8890 H   0  0  0  0  0  0  0  0  0  0  0  0
    7.9950   -3.3730   24.3650 H   0  0  0  0  0  0  0  0  0  0  0  0
    7.3410   -4.5180   23.1860 H   0  0  0  0  0  0  0  0  0  0  0  0
    8.2410   -2.8410   21.9190 H   0  0  0  0  0  0  0  0  0  0  0  0
    5.2890   -2.0530   22.0670 H   0  0  0  0  0  0  0  0  0  0  0  0
    6.1190   -2.9910   20.8020 H   0  0  0  0  0  0  0  0  0  0  0  0
    9.7680   -1.7850   21.3030 H   0  0  0  0  0  0  0  0  0  0  0  0
   12.7110   -1.9530   24.9610 H   0  0  0  0  0  0  0  0  0  0  0  0
   11.4520    0.6840   25.2690 H   0  0  0  0  0  0  0  0  0  0  0  0
  1  2  2  0  0  0  0
  2  3  1  0  0  0  0
  2 12  1  0  0  0  0
  3  4  2  0  0  0  0
  3  9  1  0  0  0  0
  4  5  1  0  0  0  0
  4 67  1  0  0  0  0
  5  6  2  0  0  0  0
  5 66  1  0  0  0  0
  6  7  1  0  0  0  0
  6  8  1  0  0  0  0
  8  9  2  0  0  0  0
  8 65  1  0  0  0  0
 10  9  1  1  0  0  0
 10 11  1  0  0  0  0
 10 27  1  0  0  0  0
 10 47  1  0  0  0  0
 11 12  1  0  0  0  0
 11 25  1  0  0  0  0
 11 26  1  0  0  0  0
 12 13  1  0  0  0  0
 13 14  1  0  0  0  0
 13 23  1  0  0  0  0
 13 24  1  0  0  0  0
 14 15  2  0  0  0  0
 14 19  1  0  0  0  0
 15 16  1  0  0  0  0
 15 22  1  0  0  0  0
 16 17  2  0  0  0  0
 16 21  1  0  0  0  0
 17 18  1  0  0  0  0
 18 19  2  0  0  0  0
 19 20  1  0  0  0  0
 27 28  2  0  0  0  0
 27 29  1  0  0  0  0
 29 30  1  0  0  0  0
 29 46  1  0  0  0  0
 30 31  2  0  0  0  0
 30 39  1  0  0  0  0
 31 32  1  0  0  0  0
 31 45  1  0  0  0  0
 32 33  2  0  0  0  0
 33 34  1  0  0  0  0
 33 44  1  0  0  0  0
 34 35  2  0  0  0  0
 34 39  1  0  0  0  0
 35 36  1  0  0  0  0
 35 43  1  0  0  0  0
 36 37  2  0  0  0  0
 36 42  1  0  0  0  0
 37 38  1  0  0  0  0
 37 41  1  0  0  0  0
 38 39  2  0  0  0  0
 38 40  1  0  0  0  0
 46 47  1  0  0  0  0
 46 63  1  0  0  0  0
 46 64  1  0  0  0  0
 47 48  1  0  0  0  0
 47 62  1  6  0  0  0
 48 49  1  0  0  0  0
 48 60  1  0  0  0  0
 48 61  1  0  0  0  0
 49 50  1  0  0  0  0
 49 59  1  0  0  0  0
 50 51  2  0  0  0  0
 50 55  1  0  0  0  0
 51 52  1  0  0  0  0
 51 58  1  0  0  0  0
 52 53  2  0  0  0  0
 52 57  1  0  0  0  0
 53 54  1  0  0  0  0
 54 55  2  0  0  0  0
 54 56  1  0  0  0  0
M  END
>  <MODEL>
       1

$$$$
