output/tmp_first_model_15_19.pdb
 OpenBabel07232601353D

 67 71  0  0  1  0  0  0  0  0999 V2000
    3.5540   -5.2740   21.8410 O   0  0  0  0  0  0  0  0  0  0  0  0
    4.1560   -5.8490   22.7390 C   0  0  0  0  0  0  0  0  0  0  0  0
    5.6670   -5.6910   22.7240 C   0  0  0  0  0  0  0  0  0  0  0  0
    5.8990   -4.2110   22.7510 N   0  3  1  0  0  0  0  0  0  0  0  0
    5.1980   -3.6150   23.9450 C   0  0  0  0  0  0  0  0  0  0  0  0
    5.5290   -2.1730   24.2510 C   0  0  0  0  0  0  0  0  0  0  0  0
    4.7240   -1.4600   25.1450 C   0  0  0  0  0  0  0  0  0  0  0  0
    5.0650   -0.1770   25.5550 C   0  0  0  0  0  0  0  0  0  0  0  0
    6.2370    0.3940   25.0620 C   0  0  0  0  0  0  0  0  0  0  0  0
    6.6990    1.9970   25.5790 Cl  0  0  0  0  0  0  0  0  0  0  0  0
    7.0260   -0.2820   24.1430 C   0  0  0  0  0  0  0  0  0  0  0  0
    6.6490   -1.5550   23.7060 C   0  0  0  0  0  0  0  0  0  0  0  0
    7.3420   -2.2260   22.5430 C   0  0  2  0  0  0  0  0  0  0  0  0
    6.5960   -1.8100   21.2660 C   0  0  0  0  0  0  0  0  0  0  0  0
    5.8290   -2.5560   20.6770 O   0  0  0  0  0  0  0  0  0  0  0  0
    6.8270   -0.5210   20.8460 N   0  0  0  0  0  0  0  0  0  0  0  0
    6.1050    0.0580   19.7760 C   0  0  0  0  0  0  0  0  0  0  0  0
    6.4420   -0.2440   18.4830 C   0  0  0  0  0  0  0  0  0  0  0  0
    5.7970    0.2390   17.3940 N   0  0  0  0  0  0  0  0  0  0  0  0
    4.7750    1.0310   17.5970 C   0  0  0  0  0  0  0  0  0  0  0  0
    4.3180    1.4310   18.8890 C   0  0  0  0  0  0  0  0  0  0  0  0
    3.1870    2.2700   19.0620 C   0  0  0  0  0  0  0  0  0  0  0  0
    2.7640    2.6130   20.3160 C   0  0  0  0  0  0  0  0  0  0  0  0
    3.4490    2.1300   21.4530 C   0  0  0  0  0  0  0  0  0  0  0  0
    4.5440    1.3130   21.3150 C   0  0  0  0  0  0  0  0  0  0  0  0
    5.0040    0.9420   20.0200 C   0  0  0  0  0  0  0  0  0  0  0  0
    5.0340    0.9200   22.2020 H   0  0  0  0  0  0  0  0  0  0  0  0
    3.0960    2.4050   22.4420 H   0  0  0  0  0  0  0  0  0  0  0  0
    1.9050    3.2630   20.4460 H   0  0  0  0  0  0  0  0  0  0  0  0
    2.6700    2.6280   18.1770 H   0  0  0  0  0  0  0  0  0  0  0  0
    4.2330    1.3840   16.7180 H   0  0  0  0  0  0  0  0  0  0  0  0
    7.2940   -0.8940   18.3070 H   0  0  0  0  0  0  0  0  0  0  0  0
    7.2390    0.1290   21.5020 H   0  0  0  0  0  0  0  0  0  0  0  0
    7.3160   -3.7530   22.6690 C   0  0  0  0  0  0  0  0  0  0  0  0
    7.7990   -4.1970   21.7950 H   0  0  0  0  0  0  0  0  0  0  0  0
    7.8670   -4.0760   23.5610 H   0  0  0  0  0  0  0  0  0  0  0  0
    8.3740   -1.8600   22.4790 H   0  0  0  0  0  0  0  0  0  0  0  0
    7.9290    0.1880   23.7660 H   0  0  0  0  0  0  0  0  0  0  0  0
    4.4450    0.3750   26.2560 H   0  0  0  0  0  0  0  0  0  0  0  0
    3.8140   -1.9120   25.5420 H   0  0  0  0  0  0  0  0  0  0  0  0
    5.4290   -4.2340   24.8220 H   0  0  0  0  0  0  0  0  0  0  0  0
    4.1190   -3.6890   23.7810 H   0  0  0  0  0  0  0  0  0  0  0  0
    5.4300   -3.8510   21.8880 H   0  0  0  0  0  0  0  0  0  0  0  0
    6.1580   -6.2090   23.5450 H   0  0  0  0  0  0  0  0  0  0  0  0
    6.0340   -6.1150   21.7830 H   0  0  0  0  0  0  0  0  0  0  0  0
    3.5230   -6.4810   23.7540 N   0  0  0  0  0  0  0  0  0  0  0  0
    2.0820   -6.7000   23.6930 C   0  0  0  0  0  0  0  0  0  0  0  0
    1.2890   -5.3830   23.6190 C   0  0  0  0  0  0  0  0  0  0  0  0
   -0.2060   -5.5810   23.5830 C   0  0  0  0  0  0  0  0  0  0  0  0
   -0.9400   -5.6150   24.7700 C   0  0  0  0  0  0  0  0  0  0  0  0
   -2.3140   -5.8310   24.7570 C   0  0  0  0  0  0  0  0  0  0  0  0
   -2.9860   -6.0150   23.5520 C   0  0  0  0  0  0  0  0  0  0  0  0
   -4.4640   -6.2490   23.5370 C   0  0  0  0  0  0  0  0  0  0  0  0
   -5.0860   -5.3340   22.7370 F   0  0  0  0  0  0  0  0  0  0  0  0
   -4.7400   -7.4780   23.0110 F   0  0  0  0  0  0  0  0  0  0  0  0
   -4.9130   -6.1930   24.5360 H   0  0  0  0  0  0  0  0  0  0  0  0
   -2.2650   -5.9780   22.3590 C   0  0  0  0  0  0  0  0  0  0  0  0
   -0.8900   -5.7590   22.3750 C   0  0  0  0  0  0  0  0  0  0  0  0
   -0.3500   -5.7150   21.4290 H   0  0  0  0  0  0  0  0  0  0  0  0
   -2.7840   -6.1090   21.4130 H   0  0  0  0  0  0  0  0  0  0  0  0
   -2.8620   -5.8420   25.6990 H   0  0  0  0  0  0  0  0  0  0  0  0
   -0.4250   -5.4630   25.7170 H   0  0  0  0  0  0  0  0  0  0  0  0
    1.5570   -4.7510   24.4780 H   0  0  0  0  0  0  0  0  0  0  0  0
    1.6200   -4.8620   22.7190 H   0  0  0  0  0  0  0  0  0  0  0  0
    1.7840   -7.2910   24.5630 H   0  0  0  0  0  0  0  0  0  0  0  0
    1.8390   -7.2960   22.8060 H   0  0  0  0  0  0  0  0  0  0  0  0
    4.0540   -6.8070   24.5440 H   0  0  0  0  0  0  0  0  0  0  0  0
  1  2  2  0  0  0  0
  2  3  1  0  0  0  0
  2 46  1  0  0  0  0
  3  4  1  0  0  0  0
  3 44  1  0  0  0  0
  3 45  1  0  0  0  0
  4  5  1  0  0  0  0
  4 34  1  0  0  0  0
  4 43  1  6  0  0  0
  5  6  1  0  0  0  0
  5 41  1  0  0  0  0
  5 42  1  0  0  0  0
  6  7  2  0  0  0  0
  6 12  1  0  0  0  0
  7  8  1  0  0  0  0
  7 40  1  0  0  0  0
  8  9  2  0  0  0  0
  8 39  1  0  0  0  0
  9 10  1  0  0  0  0
  9 11  1  0  0  0  0
 11 12  2  0  0  0  0
 11 38  1  0  0  0  0
 12 13  1  0  0  0  0
 13 14  1  0  0  0  0
 13 34  1  0  0  0  0
 13 37  1  6  0  0  0
 14 15  2  0  0  0  0
 14 16  1  0  0  0  0
 16 17  1  0  0  0  0
 16 33  1  0  0  0  0
 17 18  2  0  0  0  0
 17 26  1  0  0  0  0
 18 19  1  0  0  0  0
 18 32  1  0  0  0  0
 19 20  2  0  0  0  0
 20 21  1  0  0  0  0
 20 31  1  0  0  0  0
 21 22  2  0  0  0  0
 21 26  1  0  0  0  0
 22 23  1  0  0  0  0
 22 30  1  0  0  0  0
 23 24  2  0  0  0  0
 23 29  1  0  0  0  0
 24 25  1  0  0  0  0
 24 28  1  0  0  0  0
 25 26  2  0  0  0  0
 25 27  1  0  0  0  0
 34 35  1  0  0  0  0
 34 36  1  0  0  0  0
 46 47  1  0  0  0  0
 46 67  1  0  0  0  0
 47 48  1  0  0  0  0
 47 65  1  0  0  0  0
 47 66  1  0  0  0  0
 48 49  1  0  0  0  0
 48 63  1  0  0  0  0
 48 64  1  0  0  0  0
 49 50  2  0  0  0  0
 49 58  1  0  0  0  0
 50 51  1  0  0  0  0
 50 62  1  0  0  0  0
 51 52  2  0  0  0  0
 51 61  1  0  0  0  0
 52 53  1  0  0  0  0
 52 57  1  0  0  0  0
 53 54  1  0  0  0  0
 53 55  1  0  0  0  0
 53 56  1  0  0  0  0
 57 58  2  0  0  0  0
 57 60  1  0  0  0  0
 58 59  1  0  0  0  0
M  CHG  1   4   1
M  END
>  <MODEL>
       1

$$$$
