output/tmp_first_model_20_13.pdb
 OpenBabel07232603433D

 67 72  0  0  1  0  0  0  0  0999 V2000
    6.6630    4.1370   21.4760 C   0  0  0  0  0  0  0  0  0  0  0  0
    7.6190    3.6000   22.4250 N   0  0  0  0  0  0  0  0  0  0  0  0
    7.1990    3.1070   23.6190 C   0  0  0  0  0  0  0  0  0  0  0  0
    6.0180    3.0730   23.9440 O   0  0  0  0  0  0  0  0  0  0  0  0
    8.3080    2.6150   24.5490 C   0  0  0  0  0  0  0  0  0  0  0  0
    8.8330    1.3160   24.1600 N   0  0  0  0  0  0  0  0  0  0  0  0
    7.9290    0.2150   23.8800 C   0  0  0  0  0  0  0  0  0  0  0  0
    8.4440   -0.6540   22.6940 C   0  0  2  0  0  0  0  0  0  0  0  0
    8.1310    0.0940   21.3730 C   0  0  0  0  0  0  0  0  0  0  0  0
    8.7520    1.0060   20.8620 O   0  0  0  0  0  0  0  0  0  0  0  0
    6.9450   -0.4160   20.8800 N   0  0  0  0  0  0  0  0  0  0  0  0
    6.2510    0.2020   19.8110 C   0  0  0  0  0  0  0  0  0  0  0  0
    6.6780    0.0250   18.5180 C   0  0  0  0  0  0  0  0  0  0  0  0
    6.0140    0.4840   17.4310 N   0  0  0  0  0  0  0  0  0  0  0  0
    4.8990    1.1440   17.6330 C   0  0  0  0  0  0  0  0  0  0  0  0
    4.3780    1.4570   18.9210 C   0  0  0  0  0  0  0  0  0  0  0  0
    3.2040    2.2380   19.0930 C   0  0  0  0  0  0  0  0  0  0  0  0
    2.7660    2.5730   20.3460 C   0  0  0  0  0  0  0  0  0  0  0  0
    3.4840    2.1450   21.4830 C   0  0  0  0  0  0  0  0  0  0  0  0
    4.6130    1.3720   21.3420 C   0  0  0  0  0  0  0  0  0  0  0  0
    5.0800    0.9880   20.0550 C   0  0  0  0  0  0  0  0  0  0  0  0
    5.1860    1.1040   22.2240 H   0  0  0  0  0  0  0  0  0  0  0  0
    3.1630    2.4430   22.4760 H   0  0  0  0  0  0  0  0  0  0  0  0
    1.8740    3.1810   20.4710 H   0  0  0  0  0  0  0  0  0  0  0  0
    2.6760    2.5790   18.2070 H   0  0  0  0  0  0  0  0  0  0  0  0
    4.3570    1.4890   16.7510 H   0  0  0  0  0  0  0  0  0  0  0  0
    7.5930   -0.5290   18.3240 H   0  0  0  0  0  0  0  0  0  0  0  0
    6.3830   -1.4920   21.6850 C   0  0  0  0  0  0  0  0  0  0  0  0
    7.5910   -1.9350   22.5170 C   0  0  2  0  0  0  0  0  0  0  0  0
    7.2840   -2.6860   23.8140 C   0  0  0  0  0  0  0  0  0  0  0  0
    6.9070   -4.0260   23.5970 O   0  0  0  0  0  0  0  0  0  0  0  0
    8.0100   -4.8740   23.3890 C   0  0  0  0  0  0  0  0  0  0  0  0
    7.6470   -5.9570   22.3960 C   0  0  0  0  0  0  0  0  0  0  0  0
    8.3070   -7.1110   22.4340 C   0  0  0  0  0  0  0  0  0  0  0  0
    6.6500   -5.6290   21.3210 C   0  0  0  0  0  0  0  0  0  0  0  0
    7.1600   -5.2910   20.4160 H   0  0  0  0  0  0  0  0  0  0  0  0
    6.0020   -6.4730   21.0560 H   0  0  0  0  0  0  0  0  0  0  0  0
    8.1290   -7.8800   21.6920 H   0  0  0  0  0  0  0  0  0  0  0  0
    9.0030   -7.3440   23.2330 H   0  0  0  0  0  0  0  0  0  0  0  0
    6.0250   -4.7950   21.6330 H   0  0  0  0  0  0  0  0  0  0  0  0
    8.3460   -5.3230   24.3360 H   0  0  0  0  0  0  0  0  0  0  0  0
    8.8720   -4.2750   23.0470 H   0  0  0  0  0  0  0  0  0  0  0  0
    6.4420   -2.2150   24.3300 H   0  0  0  0  0  0  0  0  0  0  0  0
    8.1540   -2.6350   24.4910 H   0  0  0  0  0  0  0  0  0  0  0  0
    8.1700   -2.5960   21.8680 H   0  0  0  0  0  0  0  0  0  0  0  0
    5.5530   -1.1470   22.3200 H   0  0  0  0  0  0  0  0  0  0  0  0
    5.9920   -2.2840   21.0410 H   0  0  0  0  0  0  0  0  0  0  0  0
    9.9160   -0.9460   22.8980 C   0  0  0  0  0  0  0  0  0  0  0  0
   10.5750   -1.9410   22.1560 C   0  0  0  0  0  0  0  0  0  0  0  0
   11.9190   -2.1940   22.3660 C   0  0  0  0  0  0  0  0  0  0  0  0
   12.7420   -3.3660   21.3740 Cl  0  0  0  0  0  0  0  0  0  0  0  0
   12.6490   -1.5140   23.3390 C   0  0  0  0  0  0  0  0  0  0  0  0
   12.0180   -0.5110   24.0460 C   0  0  0  0  0  0  0  0  0  0  0  0
   10.6790   -0.2080   23.8090 C   0  0  0  0  0  0  0  0  0  0  0  0
   10.1520    1.0560   24.4180 C   0  0  0  0  0  0  0  0  0  0  0  0
   10.8700    1.8190   25.0440 O   0  0  0  0  0  0  0  0  0  0  0  0
   12.5570    0.0990   24.7620 H   0  0  0  0  0  0  0  0  0  0  0  0
   13.6990   -1.7350   23.4880 H   0  0  0  0  0  0  0  0  0  0  0  0
   10.0730   -2.4750   21.3570 H   0  0  0  0  0  0  0  0  0  0  0  0
    6.9490    0.6390   23.6500 H   0  0  0  0  0  0  0  0  0  0  0  0
    7.8150   -0.4060   24.7800 H   0  0  0  0  0  0  0  0  0  0  0  0
    9.1540    3.3090   24.5220 H   0  0  0  0  0  0  0  0  0  0  0  0
    7.9200    2.6140   25.5750 H   0  0  0  0  0  0  0  0  0  0  0  0
    8.5220    3.3080   22.0780 H   0  0  0  0  0  0  0  0  0  0  0  0
    5.8110    4.5210   22.0410 H   0  0  0  0  0  0  0  0  0  0  0  0
    7.1060    4.9590   20.9070 H   0  0  0  0  0  0  0  0  0  0  0  0
    6.2940    3.3640   20.7890 H   0  0  0  0  0  0  0  0  0  0  0  0
  1  2  1  0  0  0  0
  1 65  1  0  0  0  0
  1 66  1  0  0  0  0
  1 67  1  0  0  0  0
  2  3  1  0  0  0  0
  2 64  1  0  0  0  0
  3  4  2  0  0  0  0
  3  5  1  0  0  0  0
  5  6  1  0  0  0  0
  5 62  1  0  0  0  0
  5 63  1  0  0  0  0
  6  7  1  0  0  0  0
  6 55  1  0  0  0  0
  7  8  1  0  0  0  0
  7 60  1  0  0  0  0
  7 61  1  0  0  0  0
  8  9  1  6  0  0  0
  8 29  1  0  0  0  0
  8 48  1  0  0  0  0
  9 10  2  0  0  0  0
  9 11  1  0  0  0  0
 11 12  1  0  0  0  0
 11 28  1  0  0  0  0
 12 13  2  0  0  0  0
 12 21  1  0  0  0  0
 13 14  1  0  0  0  0
 13 27  1  0  0  0  0
 14 15  2  0  0  0  0
 15 16  1  0  0  0  0
 15 26  1  0  0  0  0
 16 17  2  0  0  0  0
 16 21  1  0  0  0  0
 17 18  1  0  0  0  0
 17 25  1  0  0  0  0
 18 19  2  0  0  0  0
 18 24  1  0  0  0  0
 19 20  1  0  0  0  0
 19 23  1  0  0  0  0
 20 21  2  0  0  0  0
 20 22  1  0  0  0  0
 28 29  1  0  0  0  0
 28 46  1  0  0  0  0
 28 47  1  0  0  0  0
 29 30  1  0  0  0  0
 29 45  1  6  0  0  0
 30 31  1  0  0  0  0
 30 43  1  0  0  0  0
 30 44  1  0  0  0  0
 31 32  1  0  0  0  0
 32 33  1  0  0  0  0
 32 41  1  0  0  0  0
 32 42  1  0  0  0  0
 33 34  1  0  0  0  0
 33 35  1  0  0  0  0
 33 40  1  0  0  0  0
 34 35  1  0  0  0  0
 34 38  1  0  0  0  0
 34 39  1  0  0  0  0
 35 36  1  0  0  0  0
 35 37  1  0  0  0  0
 48 49  2  0  0  0  0
 48 54  1  0  0  0  0
 49 50  1  0  0  0  0
 49 59  1  0  0  0  0
 50 51  1  0  0  0  0
 50 52  2  0  0  0  0
 52 53  1  0  0  0  0
 52 58  1  0  0  0  0
 53 54  2  0  0  0  0
 53 57  1  0  0  0  0
 54 55  1  0  0  0  0
 55 56  2  0  0  0  0
M  END
>  <MODEL>
       1

$$$$
