output/tmp_first_model_6_31.pdb
 OpenBabel07222621163D

 64 70  0  0  1  0  0  0  0  0999 V2000
    4.8820   -3.6320   25.5460 O   0  0  0  0  0  0  0  0  0  0  0  0
    5.6990   -3.0490   24.8470 C   0  0  0  0  0  0  0  0  0  0  0  0
    6.0620   -1.6140   25.0630 C   0  0  0  0  0  0  0  0  0  0  0  0
    5.5610   -0.9940   26.2050 C   0  0  0  0  0  0  0  0  0  0  0  0
    5.7640    0.3540   26.4180 C   0  0  0  0  0  0  0  0  0  0  0  0
    6.4650    1.0760   25.4530 C   0  0  0  0  0  0  0  0  0  0  0  0
    6.6880    2.7890   25.6740 Cl  0  0  0  0  0  0  0  0  0  0  0  0
    6.9800    0.4700   24.3180 C   0  0  0  0  0  0  0  0  0  0  0  0
    6.8140   -0.9060   24.1190 C   0  0  0  0  0  0  0  0  0  0  0  0
    7.3510   -1.5960   22.8650 C   0  0  1  0  0  0  0  0  0  0  0  0
    7.5020   -3.0990   23.1750 C   0  0  0  0  0  0  0  0  0  0  0  0
    6.3000   -3.6450   23.7740 N   0  0  0  0  0  0  0  0  0  0  0  0
    5.7570   -4.8870   23.2840 C   0  0  0  0  0  0  0  0  0  0  0  0
    6.4390   -6.1080   23.8280 C   0  0  0  0  0  0  0  0  0  0  0  0
    5.9260   -7.1070   24.4640 N   0  0  0  0  0  0  0  0  0  0  0  0
    6.9550   -8.0280   24.6550 N   0  0  0  0  0  0  0  0  0  0  0  0
    7.9900   -7.5070   24.1070 C   0  0  0  0  0  0  0  0  0  0  0  0
    7.7610   -6.2840   23.5750 O   0  0  0  0  0  0  0  0  0  0  0  0
    8.9600   -7.9520   23.9620 H   0  0  0  0  0  0  0  0  0  0  0  0
    4.7060   -4.9380   23.5750 H   0  0  0  0  0  0  0  0  0  0  0  0
    5.8200   -4.8640   22.1870 H   0  0  0  0  0  0  0  0  0  0  0  0
    8.3440   -3.2380   23.8650 H   0  0  0  0  0  0  0  0  0  0  0  0
    7.7120   -3.6490   22.2550 H   0  0  0  0  0  0  0  0  0  0  0  0
    6.3500   -1.4000   21.7100 C   0  0  0  0  0  0  0  0  0  0  0  0
    5.2700   -1.9370   21.5810 O   0  0  0  0  0  0  0  0  0  0  0  0
    6.8730   -0.4820   20.8340 N   0  0  0  0  0  0  0  0  0  0  0  0
    6.1140    0.0620   19.7770 C   0  0  0  0  0  0  0  0  0  0  0  0
    6.4600   -0.2200   18.4800 C   0  0  0  0  0  0  0  0  0  0  0  0
    5.7960    0.2330   17.3890 N   0  0  0  0  0  0  0  0  0  0  0  0
    4.7640    1.0140   17.6060 C   0  0  0  0  0  0  0  0  0  0  0  0
    4.3120    1.4020   18.9000 C   0  0  0  0  0  0  0  0  0  0  0  0
    3.1980    2.2660   19.0600 C   0  0  0  0  0  0  0  0  0  0  0  0
    2.7930    2.6490   20.3070 C   0  0  0  0  0  0  0  0  0  0  0  0
    3.4870    2.1940   21.4520 C   0  0  0  0  0  0  0  0  0  0  0  0
    4.5710    1.3590   21.3310 C   0  0  0  0  0  0  0  0  0  0  0  0
    5.0020    0.9250   20.0370 C   0  0  0  0  0  0  0  0  0  0  0  0
    5.1010    1.0360   22.2290 H   0  0  0  0  0  0  0  0  0  0  0  0
    3.1600    2.5200   22.4350 H   0  0  0  0  0  0  0  0  0  0  0  0
    1.9420    3.3130   20.4260 H   0  0  0  0  0  0  0  0  0  0  0  0
    2.6940    2.6220   18.1660 H   0  0  0  0  0  0  0  0  0  0  0  0
    4.2270    1.3910   16.7340 H   0  0  0  0  0  0  0  0  0  0  0  0
    7.3090   -0.8750   18.2870 H   0  0  0  0  0  0  0  0  0  0  0  0
    8.2150   -0.0470   21.1380 C   0  0  0  0  0  0  0  0  0  0  0  0
    8.6490   -0.9350   22.3180 C   0  0  2  0  0  0  0  0  0  0  0  0
    9.7710   -1.8980   21.8700 C   0  0  0  0  0  0  0  0  0  0  0  0
   10.9600   -1.2030   21.4500 N   0  0  0  0  0  0  0  0  0  0  0  0
   11.8350   -0.5930   22.2860 C   0  0  0  0  0  0  0  0  0  0  0  0
   11.7720   -0.7140   23.6870 C   0  0  0  0  0  0  0  0  0  0  0  0
   12.7370   -0.0370   24.4020 C   0  0  0  0  0  0  0  0  0  0  0  0
   13.6940    0.7020   23.8300 N   0  0  0  0  0  0  0  0  0  0  0  0
   13.6520    0.7430   22.5040 C   0  0  0  0  0  0  0  0  0  0  0  0
   12.7810    0.1540   21.6990 N   0  0  0  0  0  0  0  0  0  0  0  0
   14.4160    1.3370   22.0010 H   0  0  0  0  0  0  0  0  0  0  0  0
   12.7530   -0.0770   25.4920 H   0  0  0  0  0  0  0  0  0  0  0  0
   11.0100   -1.3100   24.1760 H   0  0  0  0  0  0  0  0  0  0  0  0
   11.2110   -1.1510   20.4760 H   0  0  0  0  0  0  0  0  0  0  0  0
    9.4300   -2.5200   21.0370 H   0  0  0  0  0  0  0  0  0  0  0  0
   10.0440   -2.5790   22.6820 H   0  0  0  0  0  0  0  0  0  0  0  0
    9.0870   -0.3300   23.1160 H   0  0  0  0  0  0  0  0  0  0  0  0
    8.8590   -0.1930   20.2740 H   0  0  0  0  0  0  0  0  0  0  0  0
    8.2360    1.0240   21.3800 H   0  0  0  0  0  0  0  0  0  0  0  0
    7.5090    1.0880   23.5980 H   0  0  0  0  0  0  0  0  0  0  0  0
    5.3660    0.8540   27.2940 H   0  0  0  0  0  0  0  0  0  0  0  0
    5.0010   -1.6090   26.9020 H   0  0  0  0  0  0  0  0  0  0  0  0
  1  2  2  0  0  0  0
  2  3  1  0  0  0  0
  2 12  1  0  0  0  0
  3  4  2  0  0  0  0
  3  9  1  0  0  0  0
  4  5  1  0  0  0  0
  4 64  1  0  0  0  0
  5  6  2  0  0  0  0
  5 63  1  0  0  0  0
  6  7  1  0  0  0  0
  6  8  1  0  0  0  0
  8  9  2  0  0  0  0
  8 62  1  0  0  0  0
 10  9  1  1  0  0  0
 10 11  1  0  0  0  0
 10 24  1  0  0  0  0
 10 44  1  0  0  0  0
 11 12  1  0  0  0  0
 11 22  1  0  0  0  0
 11 23  1  0  0  0  0
 12 13  1  0  0  0  0
 13 14  1  0  0  0  0
 13 20  1  0  0  0  0
 13 21  1  0  0  0  0
 14 15  2  0  0  0  0
 14 18  1  0  0  0  0
 15 16  1  0  0  0  0
 16 17  2  0  0  0  0
 17 18  1  0  0  0  0
 17 19  1  0  0  0  0
 24 25  2  0  0  0  0
 24 26  1  0  0  0  0
 26 27  1  0  0  0  0
 26 43  1  0  0  0  0
 27 28  2  0  0  0  0
 27 36  1  0  0  0  0
 28 29  1  0  0  0  0
 28 42  1  0  0  0  0
 29 30  2  0  0  0  0
 30 31  1  0  0  0  0
 30 41  1  0  0  0  0
 31 32  2  0  0  0  0
 31 36  1  0  0  0  0
 32 33  1  0  0  0  0
 32 40  1  0  0  0  0
 33 34  2  0  0  0  0
 33 39  1  0  0  0  0
 34 35  1  0  0  0  0
 34 38  1  0  0  0  0
 35 36  2  0  0  0  0
 35 37  1  0  0  0  0
 43 44  1  0  0  0  0
 43 60  1  0  0  0  0
 43 61  1  0  0  0  0
 44 45  1  0  0  0  0
 44 59  1  1  0  0  0
 45 46  1  0  0  0  0
 45 57  1  0  0  0  0
 45 58  1  0  0  0  0
 46 47  1  0  0  0  0
 46 56  1  0  0  0  0
 47 48  2  0  0  0  0
 47 52  1  0  0  0  0
 48 49  1  0  0  0  0
 48 55  1  0  0  0  0
 49 50  2  0  0  0  0
 49 54  1  0  0  0  0
 50 51  1  0  0  0  0
 51 52  2  0  0  0  0
 51 53  1  0  0  0  0
M  END
>  <MODEL>
       1

$$$$
