output/tmp_first_model_14_62.pdb
 OpenBabel07232601073D

 70 76  0  0  1  0  0  0  0  0999 V2000
    7.3880   -2.3870   23.8700 C   0  0  0  0  0  0  0  0  0  0  0  0
    7.6770   -1.7640   22.5080 C   0  0  1  0  0  0  0  0  0  0  0  0
    6.4280   -1.4790   21.6600 C   0  0  0  0  0  0  0  0  0  0  0  0
    6.8820   -0.4310   20.7630 N   0  0  0  0  0  0  0  0  0  0  0  0
    6.1020    0.1020   19.7060 C   0  0  0  0  0  0  0  0  0  0  0  0
    6.4280   -0.1970   18.4100 C   0  0  0  0  0  0  0  0  0  0  0  0
    5.7450    0.2440   17.3260 N   0  0  0  0  0  0  0  0  0  0  0  0
    4.7210    1.0360   17.5400 C   0  0  0  0  0  0  0  0  0  0  0  0
    4.2790    1.4390   18.8340 C   0  0  0  0  0  0  0  0  0  0  0  0
    3.1790    2.3190   19.0180 C   0  0  0  0  0  0  0  0  0  0  0  0
    2.7740    2.6850   20.2750 C   0  0  0  0  0  0  0  0  0  0  0  0
    3.4640    2.2020   21.4080 C   0  0  0  0  0  0  0  0  0  0  0  0
    4.5350    1.3540   21.2540 C   0  0  0  0  0  0  0  0  0  0  0  0
    4.9780    0.9500   19.9620 C   0  0  0  0  0  0  0  0  0  0  0  0
    5.0670    1.0140   22.1350 H   0  0  0  0  0  0  0  0  0  0  0  0
    3.1640    2.5220   22.4040 H   0  0  0  0  0  0  0  0  0  0  0  0
    1.9320    3.3590   20.4030 H   0  0  0  0  0  0  0  0  0  0  0  0
    2.6740    2.7060   18.1390 H   0  0  0  0  0  0  0  0  0  0  0  0
    4.1790    1.3980   16.6640 H   0  0  0  0  0  0  0  0  0  0  0  0
    7.2870   -0.8350   18.2140 H   0  0  0  0  0  0  0  0  0  0  0  0
    8.0300    0.2070   21.1900 C   0  0  0  0  0  0  0  0  0  0  0  0
    8.5700    1.1190   20.6010 O   0  0  0  0  0  0  0  0  0  0  0  0
    8.4330   -0.4030   22.5520 C   0  0  1  0  0  0  0  0  0  0  0  0
    7.9040    0.4960   23.7000 C   0  0  0  0  0  0  0  0  0  0  0  0
    8.5710    1.7770   23.7310 N   0  0  0  0  0  0  0  0  0  0  0  0
    7.7800    2.9740   23.8640 C   0  0  0  0  0  0  0  0  0  0  0  0
    7.3010    3.4960   22.5130 C   0  0  0  0  0  0  0  0  0  0  0  0
    6.2490    4.5560   22.7090 N   0  3  2  0  0  0  0  0  0  0  0  0
    5.5330    4.9490   21.4390 C   0  0  0  0  0  0  0  0  0  0  0  0
    6.3870    6.0590   20.8110 C   0  0  0  0  0  0  0  0  0  0  0  0
    7.2070    6.6330   21.9680 C   0  0  0  0  0  0  0  0  0  0  0  0
    7.6440    8.0710   22.0450 C   0  0  0  0  0  0  0  0  0  0  0  0
    9.5950    6.7740   22.7260 O   0  0  0  0  0  0  0  0  0  0  0  0
    8.6400    7.0090   21.7260 C   0  0  0  0  0  0  0  0  0  0  0  0
    8.9960    6.9130   20.6980 H   0  0  0  0  0  0  0  0  0  0  0  0
   10.1510    6.0550   22.4040 H   0  0  0  0  0  0  0  0  0  0  0  0
    7.2970    8.7550   21.2750 H   0  0  0  0  0  0  0  0  0  0  0  0
    7.7720    8.5040   23.0360 H   0  0  0  0  0  0  0  0  0  0  0  0
    6.8470    5.8590   23.2130 C   0  0  0  0  0  0  0  0  0  0  0  0
    7.7290    5.6620   23.8200 H   0  0  0  0  0  0  0  0  0  0  0  0
    6.1020    6.3690   23.8230 H   0  0  0  0  0  0  0  0  0  0  0  0
    5.7760    6.8140   20.3000 H   0  0  0  0  0  0  0  0  0  0  0  0
    7.0560    5.6250   20.0640 H   0  0  0  0  0  0  0  0  0  0  0  0
    4.5410    5.3090   21.7130 H   0  0  0  0  0  0  0  0  0  0  0  0
    5.4180    4.0750   20.7960 H   0  0  0  0  0  0  0  0  0  0  0  0
    5.5610    4.1760   23.3700 H   0  0  0  0  0  0  0  0  0  0  0  0
    8.1290    3.9160   21.9370 H   0  0  0  0  0  0  0  0  0  0  0  0
    6.8640    2.6870   21.9280 H   0  0  0  0  0  0  0  0  0  0  0  0
    8.4060    3.7010   24.3790 H   0  0  0  0  0  0  0  0  0  0  0  0
    6.9250    2.7500   24.5100 H   0  0  0  0  0  0  0  0  0  0  0  0
    9.9120    1.9220   23.5470 C   0  0  0  0  0  0  0  0  0  0  0  0
   10.4890    2.9980   23.6760 O   0  0  0  0  0  0  0  0  0  0  0  0
   10.6410    0.6700   23.1860 C   0  0  0  0  0  0  0  0  0  0  0  0
   12.0300    0.6530   23.3330 C   0  0  0  0  0  0  0  0  0  0  0  0
   12.7280   -0.5200   23.1070 C   0  0  0  0  0  0  0  0  0  0  0  0
   12.0100   -1.6560   22.7340 C   0  0  0  0  0  0  0  0  0  0  0  0
   12.8000   -3.1960   22.6130 Cl  0  0  0  0  0  0  0  0  0  0  0  0
   10.6480   -1.6330   22.5110 C   0  0  0  0  0  0  0  0  0  0  0  0
    9.9310   -0.4610   22.7500 C   0  0  0  0  0  0  0  0  0  0  0  0
   10.1750   -2.5340   22.1410 H   0  0  0  0  0  0  0  0  0  0  0  0
   13.8010   -0.5750   23.2650 H   0  0  0  0  0  0  0  0  0  0  0  0
   12.5330    1.5580   23.6650 H   0  0  0  0  0  0  0  0  0  0  0  0
    6.8320    0.6780   23.5790 H   0  0  0  0  0  0  0  0  0  0  0  0
    8.0560   -0.0350   24.6500 H   0  0  0  0  0  0  0  0  0  0  0  0
    6.0960   -2.3480   21.0850 H   0  0  0  0  0  0  0  0  0  0  0  0
    5.5840   -1.1570   22.2890 H   0  0  0  0  0  0  0  0  0  0  0  0
    8.2790   -2.4550   21.9060 H   0  0  0  0  0  0  0  0  0  0  0  0
    8.3030   -2.4540   24.4720 H   0  0  0  0  0  0  0  0  0  0  0  0
    6.9630   -3.3930   23.7820 H   0  0  0  0  0  0  0  0  0  0  0  0
    6.6710   -1.7700   24.4280 H   0  0  0  0  0  0  0  0  0  0  0  0
  1  2  1  0  0  0  0
  1 68  1  0  0  0  0
  1 69  1  0  0  0  0
  1 70  1  0  0  0  0
  2  3  1  0  0  0  0
  2 23  1  0  0  0  0
  2 67  1  6  0  0  0
  3  4  1  0  0  0  0
  3 65  1  0  0  0  0
  3 66  1  0  0  0  0
  4  5  1  0  0  0  0
  4 21  1  0  0  0  0
  5  6  2  0  0  0  0
  5 14  1  0  0  0  0
  6  7  1  0  0  0  0
  6 20  1  0  0  0  0
  7  8  2  0  0  0  0
  8  9  1  0  0  0  0
  8 19  1  0  0  0  0
  9 10  2  0  0  0  0
  9 14  1  0  0  0  0
 10 11  1  0  0  0  0
 10 18  1  0  0  0  0
 11 12  2  0  0  0  0
 11 17  1  0  0  0  0
 12 13  1  0  0  0  0
 12 16  1  0  0  0  0
 13 14  2  0  0  0  0
 13 15  1  0  0  0  0
 21 22  2  0  0  0  0
 23 21  1  6  0  0  0
 23 24  1  0  0  0  0
 23 59  1  0  0  0  0
 24 25  1  0  0  0  0
 24 63  1  0  0  0  0
 24 64  1  0  0  0  0
 25 26  1  0  0  0  0
 25 51  1  0  0  0  0
 26 27  1  0  0  0  0
 26 49  1  0  0  0  0
 26 50  1  0  0  0  0
 27 28  1  0  0  0  0
 27 47  1  0  0  0  0
 27 48  1  0  0  0  0
 28 29  1  0  0  0  0
 28 39  1  0  0  0  0
 28 46  1  1  0  0  0
 29 30  1  0  0  0  0
 29 44  1  0  0  0  0
 29 45  1  0  0  0  0
 30 31  1  0  0  0  0
 30 42  1  0  0  0  0
 30 43  1  0  0  0  0
 31 32  1  0  0  0  0
 31 34  1  0  0  0  0
 31 39  1  0  0  0  0
 32 33  1  0  0  0  0
 32 37  1  0  0  0  0
 32 38  1  0  0  0  0
 33 34  1  0  0  0  0
 34 35  1  0  0  0  0
 34 36  1  0  0  0  0
 39 40  1  0  0  0  0
 39 41  1  0  0  0  0
 51 52  2  0  0  0  0
 51 53  1  0  0  0  0
 53 54  2  0  0  0  0
 53 59  1  0  0  0  0
 54 55  1  0  0  0  0
 54 62  1  0  0  0  0
 55 56  2  0  0  0  0
 55 61  1  0  0  0  0
 56 57  1  0  0  0  0
 56 58  1  0  0  0  0
 58 59  2  0  0  0  0
 58 60  1  0  0  0  0
M  CHG  1  28   1
M  END
>  <MODEL>
       1

$$$$
