output/tmp_first_model_15_87.pdb
 OpenBabel07232601353D

 63 68  0  0  1  0  0  0  0  0999 V2000
    6.5950    4.3700   21.3450 C   0  0  0  0  0  0  0  0  0  0  0  0
    7.5860    3.9900   22.3360 N   0  0  0  0  0  0  0  0  0  0  0  0
    7.1280    3.3260   23.4370 C   0  0  0  0  0  0  0  0  0  0  0  0
    5.9360    3.1320   23.6150 O   0  0  0  0  0  0  0  0  0  0  0  0
    8.1490    2.8260   24.4540 C   0  0  0  0  0  0  0  0  0  0  0  0
    8.8190    1.6310   23.9870 N   0  0  0  0  0  0  0  0  0  0  0  0
    8.0420    0.4010   23.8790 C   0  0  0  0  0  0  0  0  0  0  0  0
    8.4450   -0.3930   22.6150 C   0  0  2  0  0  0  0  0  0  0  0  0
    7.9550    0.3090   21.3260 C   0  0  0  0  0  0  0  0  0  0  0  0
    8.4360    1.2860   20.7860 O   0  0  0  0  0  0  0  0  0  0  0  0
    6.8880   -0.4040   20.8340 N   0  0  0  0  0  0  0  0  0  0  0  0
    6.1190    0.0990   19.7650 C   0  0  0  0  0  0  0  0  0  0  0  0
    6.4690   -0.2030   18.4770 C   0  0  0  0  0  0  0  0  0  0  0  0
    5.7910    0.2300   17.3910 N   0  0  0  0  0  0  0  0  0  0  0  0
    4.7540    1.0030   17.6040 C   0  0  0  0  0  0  0  0  0  0  0  0
    4.2940    1.3990   18.8920 C   0  0  0  0  0  0  0  0  0  0  0  0
    3.1770    2.2530   19.0690 C   0  0  0  0  0  0  0  0  0  0  0  0
    2.7770    2.6260   20.3210 C   0  0  0  0  0  0  0  0  0  0  0  0
    3.4750    2.1670   21.4620 C   0  0  0  0  0  0  0  0  0  0  0  0
    4.5580    1.3350   21.3200 C   0  0  0  0  0  0  0  0  0  0  0  0
    4.9940    0.9310   20.0260 C   0  0  0  0  0  0  0  0  0  0  0  0
    5.1140    1.0250   22.2020 H   0  0  0  0  0  0  0  0  0  0  0  0
    3.1700    2.4930   22.4510 H   0  0  0  0  0  0  0  0  0  0  0  0
    1.9230    3.2850   20.4440 H   0  0  0  0  0  0  0  0  0  0  0  0
    2.6680    2.6140   18.1800 H   0  0  0  0  0  0  0  0  0  0  0  0
    4.2170    1.3590   16.7260 H   0  0  0  0  0  0  0  0  0  0  0  0
    7.3390   -0.8320   18.2960 H   0  0  0  0  0  0  0  0  0  0  0  0
    6.5080   -1.5510   21.6220 C   0  0  0  0  0  0  0  0  0  0  0  0
    7.7370   -1.7700   22.5030 C   0  0  2  0  0  0  0  0  0  0  0  0
    7.3950   -2.5110   23.7950 C   0  0  0  0  0  0  0  0  0  0  0  0
    6.8370   -3.8140   23.4830 N   0  0  0  0  0  0  0  0  0  0  0  0
    5.5290   -4.1460   23.4030 C   0  0  0  0  0  0  0  0  0  0  0  0
    5.4740   -5.4570   22.9790 C   0  0  0  0  0  0  0  0  0  0  0  0
    6.8310   -5.8130   22.7990 C   0  0  0  0  0  0  0  0  0  0  0  0
    7.6470   -4.8070   23.0970 N   0  0  0  0  0  0  0  0  0  0  0  0
    7.2500   -6.7720   22.5140 H   0  0  0  0  0  0  0  0  0  0  0  0
    4.5940   -6.0760   22.8400 H   0  0  0  0  0  0  0  0  0  0  0  0
    4.7490   -3.4260   23.6420 H   0  0  0  0  0  0  0  0  0  0  0  0
    8.2890   -2.6770   24.4000 H   0  0  0  0  0  0  0  0  0  0  0  0
    6.6510   -1.9470   24.3710 H   0  0  0  0  0  0  0  0  0  0  0  0
    8.4140   -2.4310   21.9590 H   0  0  0  0  0  0  0  0  0  0  0  0
    5.6050   -1.3620   22.2280 H   0  0  0  0  0  0  0  0  0  0  0  0
    6.3100   -2.4250   20.9940 H   0  0  0  0  0  0  0  0  0  0  0  0
    9.9480   -0.4660   22.5450 C   0  0  0  0  0  0  0  0  0  0  0  0
   10.5160   -1.3510   21.6330 C   0  0  0  0  0  0  0  0  0  0  0  0
   11.8770   -1.3810   21.4630 C   0  0  0  0  0  0  0  0  0  0  0  0
   12.4540   -2.4490   20.2310 Cl  0  0  0  0  0  0  0  0  0  0  0  0
   12.7280   -0.5810   22.2210 C   0  0  0  0  0  0  0  0  0  0  0  0
   12.1710    0.3290   23.0990 C   0  0  0  0  0  0  0  0  0  0  0  0
   10.7830    0.4360   23.2100 C   0  0  0  0  0  0  0  0  0  0  0  0
   10.1920    1.6030   23.9460 C   0  0  0  0  0  0  0  0  0  0  0  0
   10.8930    2.4820   24.4310 O   0  0  0  0  0  0  0  0  0  0  0  0
   12.7950    0.9970   23.6830 H   0  0  0  0  0  0  0  0  0  0  0  0
   13.7980   -0.6560   22.0790 H   0  0  0  0  0  0  0  0  0  0  0  0
    9.9280   -2.0210   21.0170 H   0  0  0  0  0  0  0  0  0  0  0  0
    6.9750    0.6570   23.8400 H   0  0  0  0  0  0  0  0  0  0  0  0
    8.2210   -0.2300   24.7650 H   0  0  0  0  0  0  0  0  0  0  0  0
    8.9220    3.5610   24.6750 H   0  0  0  0  0  0  0  0  0  0  0  0
    7.6000    2.6200   25.3750 H   0  0  0  0  0  0  0  0  0  0  0  0
    8.5000    3.7750   21.9600 H   0  0  0  0  0  0  0  0  0  0  0  0
    5.8240    4.9780   21.8200 H   0  0  0  0  0  0  0  0  0  0  0  0
    7.0550    4.9700   20.5550 H   0  0  0  0  0  0  0  0  0  0  0  0
    6.1160    3.4800   20.9120 H   0  0  0  0  0  0  0  0  0  0  0  0
  1  2  1  0  0  0  0
  1 61  1  0  0  0  0
  1 62  1  0  0  0  0
  1 63  1  0  0  0  0
  2  3  1  0  0  0  0
  2 60  1  0  0  0  0
  3  4  2  0  0  0  0
  3  5  1  0  0  0  0
  5  6  1  0  0  0  0
  5 58  1  0  0  0  0
  5 59  1  0  0  0  0
  6  7  1  0  0  0  0
  6 51  1  0  0  0  0
  7  8  1  0  0  0  0
  7 56  1  0  0  0  0
  7 57  1  0  0  0  0
  8  9  1  6  0  0  0
  8 29  1  0  0  0  0
  8 44  1  0  0  0  0
  9 10  2  0  0  0  0
  9 11  1  0  0  0  0
 11 12  1  0  0  0  0
 11 28  1  0  0  0  0
 12 13  2  0  0  0  0
 12 21  1  0  0  0  0
 13 14  1  0  0  0  0
 13 27  1  0  0  0  0
 14 15  2  0  0  0  0
 15 16  1  0  0  0  0
 15 26  1  0  0  0  0
 16 17  2  0  0  0  0
 16 21  1  0  0  0  0
 17 18  1  0  0  0  0
 17 25  1  0  0  0  0
 18 19  2  0  0  0  0
 18 24  1  0  0  0  0
 19 20  1  0  0  0  0
 19 23  1  0  0  0  0
 20 21  2  0  0  0  0
 20 22  1  0  0  0  0
 28 29  1  0  0  0  0
 28 42  1  0  0  0  0
 28 43  1  0  0  0  0
 29 30  1  0  0  0  0
 29 41  1  6  0  0  0
 30 31  1  0  0  0  0
 30 39  1  0  0  0  0
 30 40  1  0  0  0  0
 31 32  1  0  0  0  0
 31 35  1  0  0  0  0
 32 33  2  0  0  0  0
 32 38  1  0  0  0  0
 33 34  1  0  0  0  0
 33 37  1  0  0  0  0
 34 35  2  0  0  0  0
 34 36  1  0  0  0  0
 44 45  2  0  0  0  0
 44 50  1  0  0  0  0
 45 46  1  0  0  0  0
 45 55  1  0  0  0  0
 46 47  1  0  0  0  0
 46 48  2  0  0  0  0
 48 49  1  0  0  0  0
 48 54  1  0  0  0  0
 49 50  2  0  0  0  0
 49 53  1  0  0  0  0
 50 51  1  0  0  0  0
 51 52  2  0  0  0  0
M  END
>  <MODEL>
       1

$$$$
