output/tmp_first_model_11_56.pdb
 OpenBabel07222623443D

 41 43  0  0  1  0  0  0  0  0999 V2000
    8.3910    1.4750   20.6680 O   0  0  0  0  0  0  0  0  0  0  0  0
    7.9660    0.6280   21.4250 C   0  0  0  0  0  0  0  0  0  0  0  0
    6.9670   -0.4300   20.9090 C   0  0  0  0  0  0  0  0  0  0  0  0
    6.1120    0.0850   19.7710 C   0  0  0  0  0  0  0  0  0  0  0  0
    6.4260   -0.2070   18.4660 C   0  0  0  0  0  0  0  0  0  0  0  0
    5.7580    0.2410   17.3710 N   0  0  0  0  0  0  0  0  0  0  0  0
    4.7320    1.0300   17.5770 C   0  0  0  0  0  0  0  0  0  0  0  0
    4.2850    1.4220   18.8690 C   0  0  0  0  0  0  0  0  0  0  0  0
    3.1660    2.2750   19.0440 C   0  0  0  0  0  0  0  0  0  0  0  0
    2.7650    2.6470   20.3000 C   0  0  0  0  0  0  0  0  0  0  0  0
    3.4640    2.1690   21.4310 C   0  0  0  0  0  0  0  0  0  0  0  0
    4.5510    1.3370   21.2890 C   0  0  0  0  0  0  0  0  0  0  0  0
    4.9920    0.9400   19.9990 C   0  0  0  0  0  0  0  0  0  0  0  0
    5.0760    0.9850   22.1730 H   0  0  0  0  0  0  0  0  0  0  0  0
    3.1360    2.4670   22.4210 H   0  0  0  0  0  0  0  0  0  0  0  0
    1.9170    3.3120   20.4340 H   0  0  0  0  0  0  0  0  0  0  0  0
    2.6490    2.6500   18.1640 H   0  0  0  0  0  0  0  0  0  0  0  0
    4.1990    1.3990   16.6990 H   0  0  0  0  0  0  0  0  0  0  0  0
    7.2740   -0.8530   18.2430 H   0  0  0  0  0  0  0  0  0  0  0  0
    7.5530   -1.2850   20.5420 H   0  0  0  0  0  0  0  0  0  0  0  0
    6.3340   -0.8080   21.7230 H   0  0  0  0  0  0  0  0  0  0  0  0
    8.3510    0.5400   22.7710 N   0  0  0  0  0  0  0  0  0  0  0  0
    8.7820   -0.7550   23.3040 C   0  0  0  0  0  0  0  0  0  0  0  0
   10.0280   -1.3630   22.6260 C   0  0  0  0  0  0  0  0  0  0  0  0
   11.0900   -0.3410   22.2210 C   0  0  0  0  0  0  0  0  0  0  0  0
   11.5120    0.8870   23.4890 S   0  0  0  0  0  0  0  0  0  0  0  0
   10.2810    2.1530   23.0840 C   0  0  0  0  0  0  0  0  0  0  0  0
    8.8610    1.7280   23.4560 C   0  0  1  0  0  0  0  0  0  0  0  0
    7.8740    2.8930   23.3710 C   0  0  0  0  0  0  0  0  0  0  0  0
    6.6220    2.4750   23.6190 F   0  0  0  0  0  0  0  0  0  0  0  0
    8.1700    3.8190   24.3110 F   0  0  0  0  0  0  0  0  0  0  0  0
    7.8740    3.5160   22.1930 F   0  0  0  0  0  0  0  0  0  0  0  0
    8.8750    1.4820   24.5210 H   0  0  0  0  0  0  0  0  0  0  0  0
   10.5740    3.0570   23.6350 H   0  0  0  0  0  0  0  0  0  0  0  0
   10.3430    2.3650   22.0180 H   0  0  0  0  0  0  0  0  0  0  0  0
   12.0210   -0.8520   21.9510 H   0  0  0  0  0  0  0  0  0  0  0  0
   10.7630    0.2200   21.3430 H   0  0  0  0  0  0  0  0  0  0  0  0
    9.7300   -1.9200   21.7250 H   0  0  0  0  0  0  0  0  0  0  0  0
   10.4810   -2.0970   23.3030 H   0  0  0  0  0  0  0  0  0  0  0  0
    7.9480   -1.4570   23.2320 H   0  0  0  0  0  0  0  0  0  0  0  0
    8.9840   -0.6260   24.3700 H   0  0  0  0  0  0  0  0  0  0  0  0
  1  2  2  0  0  0  0
  2  3  1  0  0  0  0
  2 22  1  0  0  0  0
  3  4  1  0  0  0  0
  3 20  1  0  0  0  0
  3 21  1  0  0  0  0
  4  5  2  0  0  0  0
  4 13  1  0  0  0  0
  5  6  1  0  0  0  0
  5 19  1  0  0  0  0
  6  7  2  0  0  0  0
  7  8  1  0  0  0  0
  7 18  1  0  0  0  0
  8  9  2  0  0  0  0
  8 13  1  0  0  0  0
  9 10  1  0  0  0  0
  9 17  1  0  0  0  0
 10 11  2  0  0  0  0
 10 16  1  0  0  0  0
 11 12  1  0  0  0  0
 11 15  1  0  0  0  0
 12 13  2  0  0  0  0
 12 14  1  0  0  0  0
 22 23  1  0  0  0  0
 22 28  1  0  0  0  0
 23 24  1  0  0  0  0
 23 40  1  0  0  0  0
 23 41  1  0  0  0  0
 24 25  1  0  0  0  0
 24 38  1  0  0  0  0
 24 39  1  0  0  0  0
 25 26  1  0  0  0  0
 25 36  1  0  0  0  0
 25 37  1  0  0  0  0
 26 27  1  0  0  0  0
 27 28  1  0  0  0  0
 27 34  1  0  0  0  0
 27 35  1  0  0  0  0
 28 29  1  0  0  0  0
 28 33  1  1  0  0  0
 29 30  1  0  0  0  0
 29 31  1  0  0  0  0
 29 32  1  0  0  0  0
M  END
>  <MODEL>
       1

$$$$
