output/tmp_first_model_15_59.pdb
 OpenBabel07232601353D

 60 65  0  0  1  0  0  0  0  0999 V2000
    7.6270   -5.1030   23.0970 C   0  0  0  0  0  0  0  0  0  0  0  0
    7.9770   -4.0000   22.3070 O   0  0  0  0  0  0  0  0  0  0  0  0
    8.0010   -2.8160   23.0600 C   0  0  0  0  0  0  0  0  0  0  0  0
    8.1160   -1.6780   22.0770 C   0  0  1  0  0  0  0  0  0  0  0  0
    6.9010   -1.6160   21.1560 C   0  0  0  0  0  0  0  0  0  0  0  0
    6.9040   -0.2370   20.7590 N   0  0  0  0  0  0  0  0  0  0  0  0
    6.1010    0.2130   19.7060 C   0  0  0  0  0  0  0  0  0  0  0  0
    6.3900   -0.1780   18.4260 C   0  0  0  0  0  0  0  0  0  0  0  0
    5.7030    0.2380   17.3420 N   0  0  0  0  0  0  0  0  0  0  0  0
    4.6870    1.0430   17.5460 C   0  0  0  0  0  0  0  0  0  0  0  0
    4.2460    1.4540   18.8370 C   0  0  0  0  0  0  0  0  0  0  0  0
    3.1160    2.2900   19.0190 C   0  0  0  0  0  0  0  0  0  0  0  0
    2.6890    2.6210   20.2750 C   0  0  0  0  0  0  0  0  0  0  0  0
    3.3580    2.1240   21.4160 C   0  0  0  0  0  0  0  0  0  0  0  0
    4.4610    1.3260   21.2700 C   0  0  0  0  0  0  0  0  0  0  0  0
    4.9490    1.0030   19.9690 C   0  0  0  0  0  0  0  0  0  0  0  0
    4.9700    0.9360   22.1490 H   0  0  0  0  0  0  0  0  0  0  0  0
    2.9980    2.3800   22.4090 H   0  0  0  0  0  0  0  0  0  0  0  0
    1.8280    3.2690   20.4040 H   0  0  0  0  0  0  0  0  0  0  0  0
    2.6140    2.6630   18.1320 H   0  0  0  0  0  0  0  0  0  0  0  0
    4.1500    1.3990   16.6680 H   0  0  0  0  0  0  0  0  0  0  0  0
    7.2370   -0.8420   18.2420 H   0  0  0  0  0  0  0  0  0  0  0  0
    7.6310    0.6040   21.5700 C   0  0  0  0  0  0  0  0  0  0  0  0
    7.7180    1.7990   21.4000 O   0  0  0  0  0  0  0  0  0  0  0  0
    8.2440   -0.2620   22.6960 C   0  0  1  0  0  0  0  0  0  0  0  0
    7.3700   -0.1220   23.9720 C   0  0  0  0  0  0  0  0  0  0  0  0
    7.5470    1.1970   24.5600 N   0  0  0  0  0  0  0  0  0  0  0  0
    6.4050    1.9130   25.1020 C   0  0  0  0  0  0  0  0  0  0  0  0
    6.0130    1.4080   26.4560 C   0  0  0  0  0  0  0  0  0  0  0  0
    5.0640    0.5400   26.7120 N   0  0  0  0  0  0  0  0  0  0  0  0
    5.0890    0.3990   28.0810 C   0  0  0  0  0  0  0  0  0  0  0  0
    6.0510    1.1910   28.6380 C   0  0  0  0  0  0  0  0  0  0  0  0
    6.6570    1.8270   27.5800 N   0  0  0  0  0  0  0  0  0  0  0  0
    7.5690    2.2720   27.5460 H   0  0  0  0  0  0  0  0  0  0  0  0
    6.2950    1.4240   29.6650 H   0  0  0  0  0  0  0  0  0  0  0  0
    4.4060   -0.2740   28.5840 H   0  0  0  0  0  0  0  0  0  0  0  0
    5.5600    1.8240   24.4080 H   0  0  0  0  0  0  0  0  0  0  0  0
    6.6840    2.9710   25.1630 H   0  0  0  0  0  0  0  0  0  0  0  0
    8.7920    1.5470   24.9930 C   0  0  0  0  0  0  0  0  0  0  0  0
    8.9760    2.3010   25.9490 O   0  0  0  0  0  0  0  0  0  0  0  0
    9.9060    0.9820   24.1700 C   0  0  0  0  0  0  0  0  0  0  0  0
   11.2020    1.3610   24.4950 C   0  0  0  0  0  0  0  0  0  0  0  0
   12.2640    1.0530   23.6760 C   0  0  0  0  0  0  0  0  0  0  0  0
   12.0050    0.3200   22.5200 C   0  0  0  0  0  0  0  0  0  0  0  0
   13.3150   -0.0030   21.4310 Cl  0  0  0  0  0  0  0  0  0  0  0  0
   10.7360   -0.1440   22.2170 C   0  0  0  0  0  0  0  0  0  0  0  0
    9.6530    0.1760   23.0480 C   0  0  0  0  0  0  0  0  0  0  0  0
   10.6140   -0.7620   21.3340 H   0  0  0  0  0  0  0  0  0  0  0  0
   13.2710    1.3890   23.8950 H   0  0  0  0  0  0  0  0  0  0  0  0
   11.3260    1.9320   25.3970 H   0  0  0  0  0  0  0  0  0  0  0  0
    6.3040   -0.2870   23.7720 H   0  0  0  0  0  0  0  0  0  0  0  0
    7.6830   -0.8850   24.6990 H   0  0  0  0  0  0  0  0  0  0  0  0
    5.9560   -1.8830   21.6570 H   0  0  0  0  0  0  0  0  0  0  0  0
    6.9980   -2.2600   20.2840 H   0  0  0  0  0  0  0  0  0  0  0  0
    8.9850   -1.8610   21.4360 H   0  0  0  0  0  0  0  0  0  0  0  0
    7.0860   -2.6960   23.6830 H   0  0  0  0  0  0  0  0  0  0  0  0
    8.8620   -2.8160   23.7450 H   0  0  0  0  0  0  0  0  0  0  0  0
    7.9960   -5.9950   22.5890 H   0  0  0  0  0  0  0  0  0  0  0  0
    8.1090   -5.0130   24.0820 H   0  0  0  0  0  0  0  0  0  0  0  0
    6.5330   -5.1740   23.2540 H   0  0  0  0  0  0  0  0  0  0  0  0
  1  2  1  0  0  0  0
  1 58  1  0  0  0  0
  1 59  1  0  0  0  0
  1 60  1  0  0  0  0
  2  3  1  0  0  0  0
  3  4  1  0  0  0  0
  3 56  1  0  0  0  0
  3 57  1  0  0  0  0
  4  5  1  0  0  0  0
  4 25  1  0  0  0  0
  4 55  1  6  0  0  0
  5  6  1  0  0  0  0
  5 53  1  0  0  0  0
  5 54  1  0  0  0  0
  6  7  1  0  0  0  0
  6 23  1  0  0  0  0
  7  8  2  0  0  0  0
  7 16  1  0  0  0  0
  8  9  1  0  0  0  0
  8 22  1  0  0  0  0
  9 10  2  0  0  0  0
 10 11  1  0  0  0  0
 10 21  1  0  0  0  0
 11 12  2  0  0  0  0
 11 16  1  0  0  0  0
 12 13  1  0  0  0  0
 12 20  1  0  0  0  0
 13 14  2  0  0  0  0
 13 19  1  0  0  0  0
 14 15  1  0  0  0  0
 14 18  1  0  0  0  0
 15 16  2  0  0  0  0
 15 17  1  0  0  0  0
 23 24  2  0  0  0  0
 25 23  1  6  0  0  0
 25 26  1  0  0  0  0
 25 47  1  0  0  0  0
 26 27  1  0  0  0  0
 26 51  1  0  0  0  0
 26 52  1  0  0  0  0
 27 28  1  0  0  0  0
 27 39  1  0  0  0  0
 28 29  1  0  0  0  0
 28 37  1  0  0  0  0
 28 38  1  0  0  0  0
 29 30  2  0  0  0  0
 29 33  1  0  0  0  0
 30 31  1  0  0  0  0
 31 32  2  0  0  0  0
 31 36  1  0  0  0  0
 32 33  1  0  0  0  0
 32 35  1  0  0  0  0
 33 34  1  0  0  0  0
 39 40  2  0  0  0  0
 39 41  1  0  0  0  0
 41 42  2  0  0  0  0
 41 47  1  0  0  0  0
 42 43  1  0  0  0  0
 42 50  1  0  0  0  0
 43 44  2  0  0  0  0
 43 49  1  0  0  0  0
 44 45  1  0  0  0  0
 44 46  1  0  0  0  0
 46 47  2  0  0  0  0
 46 48  1  0  0  0  0
M  END
>  <MODEL>
       1

$$$$
