output/tmp_first_model_15_10.pdb
 OpenBabel07232601353D

 72 77  0  0  1  0  0  0  0  0999 V2000
    7.4890    8.3810   24.7280 C   0  0  0  0  0  0  0  0  0  0  0  0
    6.7380    7.3390   23.9170 C   0  0  1  0  0  0  0  0  0  0  0  0
    7.4760    6.0040   23.9200 C   0  0  0  0  0  0  0  0  0  0  0  0
    6.6900    4.9730   23.1610 N   0  3  1  0  0  0  0  0  0  0  0  0
    7.4020    3.6610   22.9950 C   0  0  0  0  0  0  0  0  0  0  0  0
    7.5750    2.8510   24.2870 C   0  0  0  0  0  0  0  0  0  0  0  0
    8.4180    1.6940   24.0860 N   0  0  0  0  0  0  0  0  0  0  0  0
    7.8270    0.3800   23.9320 C   0  0  0  0  0  0  0  0  0  0  0  0
    8.3810   -0.3560   22.6970 C   0  0  2  0  0  0  0  0  0  0  0  0
    7.9320    0.3280   21.3860 C   0  0  0  0  0  0  0  0  0  0  0  0
    8.3690    1.3470   20.8980 O   0  0  0  0  0  0  0  0  0  0  0  0
    6.9220   -0.4220   20.8250 N   0  0  0  0  0  0  0  0  0  0  0  0
    6.1380    0.1040   19.7640 C   0  0  0  0  0  0  0  0  0  0  0  0
    6.4520   -0.2120   18.4690 C   0  0  0  0  0  0  0  0  0  0  0  0
    5.7640    0.2280   17.3890 N   0  0  0  0  0  0  0  0  0  0  0  0
    4.7420    1.0180   17.5960 C   0  0  0  0  0  0  0  0  0  0  0  0
    4.2920    1.4160   18.8860 C   0  0  0  0  0  0  0  0  0  0  0  0
    3.1660    2.2630   19.0620 C   0  0  0  0  0  0  0  0  0  0  0  0
    2.7520    2.6170   20.3160 C   0  0  0  0  0  0  0  0  0  0  0  0
    3.4450    2.1350   21.4490 C   0  0  0  0  0  0  0  0  0  0  0  0
    4.5460    1.3260   21.3050 C   0  0  0  0  0  0  0  0  0  0  0  0
    5.0060    0.9440   20.0140 C   0  0  0  0  0  0  0  0  0  0  0  0
    5.0660    0.9720   22.1900 H   0  0  0  0  0  0  0  0  0  0  0  0
    3.1100    2.4110   22.4440 H   0  0  0  0  0  0  0  0  0  0  0  0
    1.8990    3.2770   20.4510 H   0  0  0  0  0  0  0  0  0  0  0  0
    2.6600    2.6360   18.1760 H   0  0  0  0  0  0  0  0  0  0  0  0
    4.2160    1.3820   16.7120 H   0  0  0  0  0  0  0  0  0  0  0  0
    7.2990   -0.8620   18.2550 H   0  0  0  0  0  0  0  0  0  0  0  0
    6.5720   -1.6080   21.5840 C   0  0  0  0  0  0  0  0  0  0  0  0
    7.7620   -1.7890   22.5460 C   0  0  2  0  0  0  0  0  0  0  0  0
    7.3730   -2.5250   23.8330 C   0  0  0  0  0  0  0  0  0  0  0  0
    6.5640   -2.0020   24.3560 H   0  0  0  0  0  0  0  0  0  0  0  0
    7.0150   -3.5410   23.6210 H   0  0  0  0  0  0  0  0  0  0  0  0
    8.2140   -2.6120   24.5320 H   0  0  0  0  0  0  0  0  0  0  0  0
    8.5080   -2.3960   22.0270 H   0  0  0  0  0  0  0  0  0  0  0  0
    6.4290   -2.4590   20.9090 H   0  0  0  0  0  0  0  0  0  0  0  0
    5.6290   -1.4780   22.1400 H   0  0  0  0  0  0  0  0  0  0  0  0
    9.8800   -0.2750   22.7950 C   0  0  0  0  0  0  0  0  0  0  0  0
   10.6380   -1.1900   22.0940 C   0  0  0  0  0  0  0  0  0  0  0  0
   12.0030   -1.1380   22.2030 C   0  0  0  0  0  0  0  0  0  0  0  0
   12.8060   -2.4690   21.5180 Cl  0  0  0  0  0  0  0  0  0  0  0  0
   12.6930   -0.1480   22.8890 C   0  0  0  0  0  0  0  0  0  0  0  0
   11.9380    0.8180   23.5200 C   0  0  0  0  0  0  0  0  0  0  0  0
   10.5480    0.7610   23.4710 C   0  0  0  0  0  0  0  0  0  0  0  0
    9.7710    1.8770   24.0840 C   0  0  0  0  0  0  0  0  0  0  0  0
   10.2980    2.8980   24.5160 O   0  0  0  0  0  0  0  0  0  0  0  0
   12.4160    1.6220   24.0590 H   0  0  0  0  0  0  0  0  0  0  0  0
   13.7740   -0.1610   22.8820 H   0  0  0  0  0  0  0  0  0  0  0  0
   10.2000   -1.9400   21.4460 H   0  0  0  0  0  0  0  0  0  0  0  0
    8.0320   -0.2380   24.8220 H   0  0  0  0  0  0  0  0  0  0  0  0
    6.7450    0.5050   23.8210 H   0  0  0  0  0  0  0  0  0  0  0  0
    6.6080    2.4810   24.6370 H   0  0  0  0  0  0  0  0  0  0  0  0
    8.0390    3.4510   25.0730 H   0  0  0  0  0  0  0  0  0  0  0  0
    6.8380    3.0690   22.2670 H   0  0  0  0  0  0  0  0  0  0  0  0
    8.3870    3.8770   22.5690 H   0  0  0  0  0  0  0  0  0  0  0  0
    5.3000    4.8750   23.7350 C   0  0  0  0  0  0  0  0  0  0  0  0
    4.6190    6.2460   23.8130 C   0  0  2  0  0  0  0  0  0  0  0  0
    4.1220    6.7500   22.4600 C   0  0  0  0  0  0  0  0  0  0  0  0
    3.3820    6.0530   22.0490 H   0  0  0  0  0  0  0  0  0  0  0  0
    4.9290    6.8390   21.7220 H   0  0  0  0  0  0  0  0  0  0  0  0
    3.6500    7.7310   22.5740 H   0  0  0  0  0  0  0  0  0  0  0  0
    5.4440    7.1930   24.4860 O   0  0  0  0  0  0  0  0  0  0  0  0
    3.7520    6.1440   24.4760 H   0  0  0  0  0  0  0  0  0  0  0  0
    5.3740    4.4720   24.7460 H   0  0  0  0  0  0  0  0  0  0  0  0
    4.7070    4.1880   23.1250 H   0  0  0  0  0  0  0  0  0  0  0  0
    6.5870    5.3310   22.1890 H   0  0  0  0  0  0  0  0  0  0  0  0
    8.4650    6.1180   23.4630 H   0  0  0  0  0  0  0  0  0  0  0  0
    7.6030    5.6750   24.9560 H   0  0  0  0  0  0  0  0  0  0  0  0
    6.6510    7.6730   22.8700 H   0  0  0  0  0  0  0  0  0  0  0  0
    7.5850    8.0510   25.7690 H   0  0  0  0  0  0  0  0  0  0  0  0
    6.9700    9.3440   24.7200 H   0  0  0  0  0  0  0  0  0  0  0  0
    8.4950    8.5250   24.3190 H   0  0  0  0  0  0  0  0  0  0  0  0
  1  2  1  0  0  0  0
  1 70  1  0  0  0  0
  1 71  1  0  0  0  0
  1 72  1  0  0  0  0
  2  3  1  0  0  0  0
  2 62  1  0  0  0  0
  2 69  1  6  0  0  0
  3  4  1  0  0  0  0
  3 67  1  0  0  0  0
  3 68  1  0  0  0  0
  4  5  1  0  0  0  0
  4 56  1  0  0  0  0
  4 66  1  6  0  0  0
  5  6  1  0  0  0  0
  5 54  1  0  0  0  0
  5 55  1  0  0  0  0
  6  7  1  0  0  0  0
  6 52  1  0  0  0  0
  6 53  1  0  0  0  0
  7  8  1  0  0  0  0
  7 45  1  0  0  0  0
  8  9  1  0  0  0  0
  8 50  1  0  0  0  0
  8 51  1  0  0  0  0
  9 10  1  6  0  0  0
  9 30  1  0  0  0  0
  9 38  1  0  0  0  0
 10 11  2  0  0  0  0
 10 12  1  0  0  0  0
 12 13  1  0  0  0  0
 12 29  1  0  0  0  0
 13 14  2  0  0  0  0
 13 22  1  0  0  0  0
 14 15  1  0  0  0  0
 14 28  1  0  0  0  0
 15 16  2  0  0  0  0
 16 17  1  0  0  0  0
 16 27  1  0  0  0  0
 17 18  2  0  0  0  0
 17 22  1  0  0  0  0
 18 19  1  0  0  0  0
 18 26  1  0  0  0  0
 19 20  2  0  0  0  0
 19 25  1  0  0  0  0
 20 21  1  0  0  0  0
 20 24  1  0  0  0  0
 21 22  2  0  0  0  0
 21 23  1  0  0  0  0
 29 30  1  0  0  0  0
 29 36  1  0  0  0  0
 29 37  1  0  0  0  0
 30 31  1  0  0  0  0
 30 35  1  6  0  0  0
 31 32  1  0  0  0  0
 31 33  1  0  0  0  0
 31 34  1  0  0  0  0
 38 39  2  0  0  0  0
 38 44  1  0  0  0  0
 39 40  1  0  0  0  0
 39 49  1  0  0  0  0
 40 41  1  0  0  0  0
 40 42  2  0  0  0  0
 42 43  1  0  0  0  0
 42 48  1  0  0  0  0
 43 44  2  0  0  0  0
 43 47  1  0  0  0  0
 44 45  1  0  0  0  0
 45 46  2  0  0  0  0
 56 57  1  0  0  0  0
 56 64  1  0  0  0  0
 56 65  1  0  0  0  0
 57 58  1  0  0  0  0
 57 62  1  0  0  0  0
 57 63  1  1  0  0  0
 58 59  1  0  0  0  0
 58 60  1  0  0  0  0
 58 61  1  0  0  0  0
M  CHG  1   4   1
M  END
>  <MODEL>
       1

$$$$
