output/tmp_first_model_14_94.pdb
 OpenBabel07232601073D

 65 69  0  0  0  0  0  0  0  0999 V2000
   11.4790    7.4070   26.7870 C   0  0  0  0  0  0  0  0  0  0  0  0
   10.0570    7.3960   27.1840 C   0  0  0  0  0  0  0  0  0  0  0  0
    9.6300    5.9110   27.3470 C   0  0  0  0  0  0  0  0  0  0  0  0
    9.6950    6.0040   27.4710 O   0  0  0  0  0  0  0  0  0  0  0  0
    8.4250    5.3580   24.8590 N   0  3  0  0  0  0  0  0  0  0  0  0
    7.1420    5.1440   25.5020 C   0  0  0  0  0  0  0  0  0  0  0  0
    6.1240    4.5290   24.5420 C   0  0  0  0  0  0  0  0  0  0  0  0
    6.6620    3.1550   24.1500 C   0  0  0  0  0  0  0  0  0  0  0  0
    8.1240    3.2050   23.7230 C   0  0  0  0  0  0  0  0  0  0  0  0
    8.7150    2.1660   22.9850 C   0  0  0  0  0  0  0  0  0  0  0  0
    7.8990    1.0540   22.6110 N   0  0  0  0  0  0  0  0  0  0  0  0
    7.5020    0.1540   23.7080 C   0  0  0  0  0  0  0  0  0  0  0  0
    8.3300   -1.1110   23.7160 C   0  0  0  0  0  0  0  0  0  0  0  0
    9.7050   -1.0340   23.9180 C   0  0  0  0  0  0  0  0  0  0  0  0
   10.5200   -2.1080   23.5780 C   0  0  0  0  0  0  0  0  0  0  0  0
    9.9540   -3.2760   23.0700 C   0  0  0  0  0  0  0  0  0  0  0  0
    8.5690   -3.3790   22.9790 C   0  0  0  0  0  0  0  0  0  0  0  0
    7.8110   -4.8120   22.3410 Cl  0  0  0  0  0  0  0  0  0  0  0  0
    7.7500   -2.3220   23.3510 C   0  0  0  0  0  0  0  0  0  0  0  0
    6.6670   -2.4200   23.2770 H   0  0  0  0  0  0  0  0  0  0  0  0
   10.5770   -4.0920   22.7260 H   0  0  0  0  0  0  0  0  0  0  0  0
   11.6020   -2.0130   23.6720 H   0  0  0  0  0  0  0  0  0  0  0  0
   10.1410   -0.1090   24.2820 H   0  0  0  0  0  0  0  0  0  0  0  0
    7.6620    0.7080   24.6350 H   0  0  0  0  0  0  0  0  0  0  0  0
    6.4350   -0.0970   23.6300 H   0  0  0  0  0  0  0  0  0  0  0  0
    7.9460    0.6520   21.2800 C   0  0  0  0  0  0  0  0  0  0  0  0
    8.7150    1.1450   20.4730 O   0  0  0  0  0  0  0  0  0  0  0  0
    6.9530   -0.4160   20.8120 C   0  0  0  0  0  0  0  0  0  0  0  0
    6.1080    0.0660   19.6710 C   0  0  0  0  0  0  0  0  0  0  0  0
    6.4190   -0.2510   18.3770 C   0  0  0  0  0  0  0  0  0  0  0  0
    5.7570    0.1970   17.2800 N   0  0  0  0  0  0  0  0  0  0  0  0
    4.7500    1.0070   17.4960 C   0  0  0  0  0  0  0  0  0  0  0  0
    4.3040    1.4130   18.7840 C   0  0  0  0  0  0  0  0  0  0  0  0
    3.2130    2.3000   18.9600 C   0  0  0  0  0  0  0  0  0  0  0  0
    2.8040    2.6580   20.2150 C   0  0  0  0  0  0  0  0  0  0  0  0
    3.4680    2.1460   21.3520 C   0  0  0  0  0  0  0  0  0  0  0  0
    4.5360    1.2940   21.2050 C   0  0  0  0  0  0  0  0  0  0  0  0
    4.9910    0.9150   19.9140 C   0  0  0  0  0  0  0  0  0  0  0  0
    5.0360    0.9120   22.0920 H   0  0  0  0  0  0  0  0  0  0  0  0
    3.1290    2.4320   22.3450 H   0  0  0  0  0  0  0  0  0  0  0  0
    1.9680    3.3390   20.3440 H   0  0  0  0  0  0  0  0  0  0  0  0
    2.7190    2.6950   18.0750 H   0  0  0  0  0  0  0  0  0  0  0  0
    4.2270    1.3800   16.6180 H   0  0  0  0  0  0  0  0  0  0  0  0
    7.2590   -0.9160   18.1740 H   0  0  0  0  0  0  0  0  0  0  0  0
    7.5510   -1.2780   20.5010 H   0  0  0  0  0  0  0  0  0  0  0  0
    6.3250   -0.7520   21.6330 H   0  0  0  0  0  0  0  0  0  0  0  0
   10.0760    2.1580   22.6950 C   0  0  0  0  0  0  0  0  0  0  0  0
   10.8650    3.2340   23.0930 C   0  0  0  0  0  0  0  0  0  0  0  0
   10.2920    4.3000   23.7670 C   0  0  0  0  0  0  0  0  0  0  0  0
    8.9320    4.2890   24.0950 C   0  0  0  0  0  0  0  0  0  0  0  0
   10.8790    5.1530   24.0970 H   0  0  0  0  0  0  0  0  0  0  0  0
   11.9260    3.2460   22.8640 H   0  0  0  0  0  0  0  0  0  0  0  0
   10.5110    1.3170   22.1640 H   0  0  0  0  0  0  0  0  0  0  0  0
    6.0570    2.6940   23.3610 H   0  0  0  0  0  0  0  0  0  0  0  0
    6.5770    2.5010   25.0330 H   0  0  0  0  0  0  0  0  0  0  0  0
    5.9940    5.1500   23.6510 H   0  0  0  0  0  0  0  0  0  0  0  0
    5.1490    4.4310   25.0270 H   0  0  0  0  0  0  0  0  0  0  0  0
    6.8120    6.0920   25.9380 H   0  0  0  0  0  0  0  0  0  0  0  0
    7.2540    4.4240   26.3260 H   0  0  0  0  0  0  0  0  0  0  0  0
    8.4720    6.2330   24.3500 H   0  0  0  0  0  0  0  0  0  0  0  0
    9.8030    8.2420   27.9200 H   0  0  0  0  0  0  0  0  0  0  0  0
    9.4810    7.7320   26.3020 H   0  0  0  0  0  0  0  0  0  0  0  0
   11.7570    8.3810   26.3500 H   0  0  0  0  0  0  0  0  0  0  0  0
   12.2070    7.2290   27.6010 H   0  0  0  0  0  0  0  0  0  0  0  0
   11.6610    6.6580   26.0040 H   0  0  0  0  0  0  0  0  0  0  0  0
  1  2  1  0  0  0  0
  1 63  1  0  0  0  0
  1 64  1  0  0  0  0
  1 65  1  0  0  0  0
  2  3  1  0  0  0  0
  2 61  1  0  0  0  0
  2 62  1  0  0  0  0
  3  4  2  0  0  0  0
  3  5  1  0  0  0  0
  5  6  1  0  0  0  0
  5 50  1  0  0  0  0
  5 60  1  0  0  0  0
  6  7  1  0  0  0  0
  6 58  1  0  0  0  0
  6 59  1  0  0  0  0
  7  8  1  0  0  0  0
  7 56  1  0  0  0  0
  7 57  1  0  0  0  0
  8  9  1  0  0  0  0
  8 54  1  0  0  0  0
  8 55  1  0  0  0  0
  9 10  2  0  0  0  0
  9 50  1  0  0  0  0
 10 11  1  0  0  0  0
 10 47  1  0  0  0  0
 11 12  1  0  0  0  0
 11 26  1  0  0  0  0
 12 13  1  0  0  0  0
 12 24  1  0  0  0  0
 12 25  1  0  0  0  0
 13 14  2  0  0  0  0
 13 19  1  0  0  0  0
 14 15  1  0  0  0  0
 14 23  1  0  0  0  0
 15 16  2  0  0  0  0
 15 22  1  0  0  0  0
 16 17  1  0  0  0  0
 16 21  1  0  0  0  0
 17 18  1  0  0  0  0
 17 19  2  0  0  0  0
 19 20  1  0  0  0  0
 26 27  2  0  0  0  0
 26 28  1  0  0  0  0
 28 29  1  0  0  0  0
 28 45  1  0  0  0  0
 28 46  1  0  0  0  0
 29 30  2  0  0  0  0
 29 38  1  0  0  0  0
 30 31  1  0  0  0  0
 30 44  1  0  0  0  0
 31 32  2  0  0  0  0
 32 33  1  0  0  0  0
 32 43  1  0  0  0  0
 33 34  2  0  0  0  0
 33 38  1  0  0  0  0
 34 35  1  0  0  0  0
 34 42  1  0  0  0  0
 35 36  2  0  0  0  0
 35 41  1  0  0  0  0
 36 37  1  0  0  0  0
 36 40  1  0  0  0  0
 37 38  2  0  0  0  0
 37 39  1  0  0  0  0
 47 48  2  0  0  0  0
 47 53  1  0  0  0  0
 48 49  1  0  0  0  0
 48 52  1  0  0  0  0
 49 50  2  0  0  0  0
 49 51  1  0  0  0  0
M  CHG  1   5   1
M  END
>  <MODEL>
       1

$$$$
