output/tmp_first_model_15_93.pdb
 OpenBabel07232601353D

 58 62  0  0  1  0  0  0  0  0999 V2000
    6.5900    4.5900   21.4520 C   0  0  0  0  0  0  0  0  0  0  0  0
    6.8120    3.6020   22.5120 N   0  3  0  0  0  0  0  0  0  0  0  0
    7.9610    3.9370   23.4060 C   0  0  0  0  0  0  0  0  0  0  0  0
    8.2120    2.8330   24.4320 C   0  0  0  0  0  0  0  0  0  0  0  0
    8.8660    1.6570   23.8750 N   0  0  0  0  0  0  0  0  0  0  0  0
    8.1470    0.3980   23.8050 C   0  0  0  0  0  0  0  0  0  0  0  0
    8.5460   -0.4290   22.5650 C   0  0  2  0  0  0  0  0  0  0  0  0
    8.0380    0.2620   21.2740 C   0  0  0  0  0  0  0  0  0  0  0  0
    8.4870    1.2630   20.7530 O   0  0  0  0  0  0  0  0  0  0  0  0
    6.9330   -0.4190   20.8210 N   0  0  0  0  0  0  0  0  0  0  0  0
    6.1410    0.1070   19.7620 C   0  0  0  0  0  0  0  0  0  0  0  0
    6.4570   -0.2090   18.4670 C   0  0  0  0  0  0  0  0  0  0  0  0
    5.7660    0.2270   17.3890 N   0  0  0  0  0  0  0  0  0  0  0  0
    4.7450    1.0170   17.6010 C   0  0  0  0  0  0  0  0  0  0  0  0
    4.3000    1.4230   18.8910 C   0  0  0  0  0  0  0  0  0  0  0  0
    3.1800    2.2800   19.0690 C   0  0  0  0  0  0  0  0  0  0  0  0
    2.7810    2.6570   20.3220 C   0  0  0  0  0  0  0  0  0  0  0  0
    3.4800    2.1850   21.4540 C   0  0  0  0  0  0  0  0  0  0  0  0
    4.5650    1.3520   21.3090 C   0  0  0  0  0  0  0  0  0  0  0  0
    5.0160    0.9520   20.0190 C   0  0  0  0  0  0  0  0  0  0  0  0
    5.0750    0.9810   22.1940 H   0  0  0  0  0  0  0  0  0  0  0  0
    3.1610    2.4850   22.4500 H   0  0  0  0  0  0  0  0  0  0  0  0
    1.9320    3.3250   20.4470 H   0  0  0  0  0  0  0  0  0  0  0  0
    2.6690    2.6430   18.1810 H   0  0  0  0  0  0  0  0  0  0  0  0
    4.2170    1.3800   16.7180 H   0  0  0  0  0  0  0  0  0  0  0  0
    7.3020   -0.8600   18.2550 H   0  0  0  0  0  0  0  0  0  0  0  0
    6.5500   -1.5530   21.6400 C   0  0  0  0  0  0  0  0  0  0  0  0
    7.7900   -1.7990   22.5280 C   0  0  2  0  0  0  0  0  0  0  0  0
    7.4250   -2.4330   23.8780 C   0  0  0  0  0  0  0  0  0  0  0  0
    6.9650   -3.4200   23.7400 H   0  0  0  0  0  0  0  0  0  0  0  0
    8.3020   -2.5630   24.5250 H   0  0  0  0  0  0  0  0  0  0  0  0
    6.7010   -1.8120   24.4230 H   0  0  0  0  0  0  0  0  0  0  0  0
    8.4410   -2.4930   21.9900 H   0  0  0  0  0  0  0  0  0  0  0  0
    6.3020   -2.4130   21.0080 H   0  0  0  0  0  0  0  0  0  0  0  0
    5.6600   -1.3310   22.2510 H   0  0  0  0  0  0  0  0  0  0  0  0
   10.0570   -0.5030   22.5340 C   0  0  0  0  0  0  0  0  0  0  0  0
   10.6910   -1.4960   21.7910 C   0  0  0  0  0  0  0  0  0  0  0  0
   12.0610   -1.5120   21.7190 C   0  0  0  0  0  0  0  0  0  0  0  0
   12.6060   -2.4700   20.9660 F   0  0  0  0  0  0  0  0  0  0  0  0
   12.8700   -0.5800   22.3590 C   0  0  0  0  0  0  0  0  0  0  0  0
   12.2480    0.4470   23.0410 C   0  0  0  0  0  0  0  0  0  0  0  0
   10.8540    0.5050   23.1040 C   0  0  0  0  0  0  0  0  0  0  0  0
   10.2240    1.7090   23.7320 C   0  0  0  0  0  0  0  0  0  0  0  0
   10.8820    2.6830   24.0800 O   0  0  0  0  0  0  0  0  0  0  0  0
   12.8110    1.2470   23.5150 H   0  0  0  0  0  0  0  0  0  0  0  0
   13.9450   -0.6630   22.2720 H   0  0  0  0  0  0  0  0  0  0  0  0
   10.1760   -2.2550   21.2160 H   0  0  0  0  0  0  0  0  0  0  0  0
    8.3390   -0.2120   24.7030 H   0  0  0  0  0  0  0  0  0  0  0  0
    7.0780    0.6240   23.7430 H   0  0  0  0  0  0  0  0  0  0  0  0
    7.2600    2.5070   24.8660 H   0  0  0  0  0  0  0  0  0  0  0  0
    8.8560    3.2170   25.2260 H   0  0  0  0  0  0  0  0  0  0  0  0
    8.8560    4.0780   22.7910 H   0  0  0  0  0  0  0  0  0  0  0  0
    7.7570    4.8800   23.9230 H   0  0  0  0  0  0  0  0  0  0  0  0
    5.9370    3.5100   23.0820 H   0  0  0  0  0  0  0  0  0  0  0  0
    7.0230    2.6830   22.0630 H   0  0  0  0  0  0  0  0  0  0  0  0
    5.7260    4.2890   20.8570 H   0  0  0  0  0  0  0  0  0  0  0  0
    7.4730    4.6460   20.8130 H   0  0  0  0  0  0  0  0  0  0  0  0
    6.4240    5.5910   21.8650 H   0  0  0  0  0  0  0  0  0  0  0  0
  1  2  1  0  0  0  0
  1 56  1  0  0  0  0
  1 57  1  0  0  0  0
  1 58  1  0  0  0  0
  2  3  1  0  0  0  0
  2 54  1  0  0  0  0
  2 55  1  0  0  0  0
  3  4  1  0  0  0  0
  3 52  1  0  0  0  0
  3 53  1  0  0  0  0
  4  5  1  0  0  0  0
  4 50  1  0  0  0  0
  4 51  1  0  0  0  0
  5  6  1  0  0  0  0
  5 43  1  0  0  0  0
  6  7  1  0  0  0  0
  6 48  1  0  0  0  0
  6 49  1  0  0  0  0
  7  8  1  6  0  0  0
  7 28  1  0  0  0  0
  7 36  1  0  0  0  0
  8  9  2  0  0  0  0
  8 10  1  0  0  0  0
 10 11  1  0  0  0  0
 10 27  1  0  0  0  0
 11 12  2  0  0  0  0
 11 20  1  0  0  0  0
 12 13  1  0  0  0  0
 12 26  1  0  0  0  0
 13 14  2  0  0  0  0
 14 15  1  0  0  0  0
 14 25  1  0  0  0  0
 15 16  2  0  0  0  0
 15 20  1  0  0  0  0
 16 17  1  0  0  0  0
 16 24  1  0  0  0  0
 17 18  2  0  0  0  0
 17 23  1  0  0  0  0
 18 19  1  0  0  0  0
 18 22  1  0  0  0  0
 19 20  2  0  0  0  0
 19 21  1  0  0  0  0
 27 28  1  0  0  0  0
 27 34  1  0  0  0  0
 27 35  1  0  0  0  0
 28 29  1  0  0  0  0
 28 33  1  6  0  0  0
 29 30  1  0  0  0  0
 29 31  1  0  0  0  0
 29 32  1  0  0  0  0
 36 37  2  0  0  0  0
 36 42  1  0  0  0  0
 37 38  1  0  0  0  0
 37 47  1  0  0  0  0
 38 39  1  0  0  0  0
 38 40  2  0  0  0  0
 40 41  1  0  0  0  0
 40 46  1  0  0  0  0
 41 42  2  0  0  0  0
 41 45  1  0  0  0  0
 42 43  1  0  0  0  0
 43 44  2  0  0  0  0
M  CHG  1   2   1
M  END
>  <MODEL>
       1

$$$$
