output/tmp_first_model_15_61.pdb
 OpenBabel07232601353D

 64 70  0  0  1  0  0  0  0  0999 V2000
    9.2040    2.6270   25.5980 O   0  0  0  0  0  0  0  0  0  0  0  0
    8.9090    1.6940   24.8580 C   0  0  0  0  0  0  0  0  0  0  0  0
    9.9280    0.8760   24.1510 C   0  0  0  0  0  0  0  0  0  0  0  0
   11.2570    1.1830   24.4000 C   0  0  0  0  0  0  0  0  0  0  0  0
   12.2560    0.6650   23.6090 C   0  0  0  0  0  0  0  0  0  0  0  0
   11.8670   -0.1350   22.5380 C   0  0  0  0  0  0  0  0  0  0  0  0
   13.0240   -0.5330   21.3400 Cl  0  0  0  0  0  0  0  0  0  0  0  0
   10.5600   -0.5260   22.3370 C   0  0  0  0  0  0  0  0  0  0  0  0
    9.5540   -0.0450   23.1690 C   0  0  0  0  0  0  0  0  0  0  0  0
    8.1090   -0.3840   22.8700 C   0  0  1  0  0  0  0  0  0  0  0  0
    7.3030   -0.0010   24.1340 C   0  0  0  0  0  0  0  0  0  0  0  0
    7.6290    1.3570   24.5460 N   0  0  0  0  0  0  0  0  0  0  0  0
    6.5800    2.3190   24.7990 C   0  0  0  0  0  0  0  0  0  0  0  0
    5.8010    1.9440   26.0270 C   0  0  0  0  0  0  0  0  0  0  0  0
    6.3380    2.0880   27.2830 C   0  0  0  0  0  0  0  0  0  0  0  0
    5.5600    1.6460   28.3480 C   0  0  0  0  0  0  0  0  0  0  0  0
    4.3660    1.0730   28.2130 N   0  0  0  0  0  0  0  0  0  0  0  0
    3.8670    0.8950   27.0000 N   0  0  0  0  0  0  0  0  0  0  0  0
    4.5620    1.3140   25.9470 C   0  0  0  0  0  0  0  0  0  0  0  0
    4.1220    1.1140   24.9730 H   0  0  0  0  0  0  0  0  0  0  0  0
    5.9190    1.7640   29.3660 H   0  0  0  0  0  0  0  0  0  0  0  0
    7.3350    2.5030   27.4300 H   0  0  0  0  0  0  0  0  0  0  0  0
    7.0580    3.2930   24.9360 H   0  0  0  0  0  0  0  0  0  0  0  0
    5.9510    2.3690   23.8990 H   0  0  0  0  0  0  0  0  0  0  0  0
    7.5600   -0.7110   24.9390 H   0  0  0  0  0  0  0  0  0  0  0  0
    6.2240   -0.0750   23.9660 H   0  0  0  0  0  0  0  0  0  0  0  0
    7.6140    0.4270   21.6490 C   0  0  0  0  0  0  0  0  0  0  0  0
    7.8180    1.5960   21.4030 O   0  0  0  0  0  0  0  0  0  0  0  0
    6.8860   -0.4160   20.8430 N   0  0  0  0  0  0  0  0  0  0  0  0
    6.1100    0.0850   19.7790 C   0  0  0  0  0  0  0  0  0  0  0  0
    6.4330   -0.2430   18.4900 C   0  0  0  0  0  0  0  0  0  0  0  0
    5.7710    0.2110   17.4030 N   0  0  0  0  0  0  0  0  0  0  0  0
    4.7540    1.0130   17.6070 C   0  0  0  0  0  0  0  0  0  0  0  0
    4.3030    1.4070   18.8970 C   0  0  0  0  0  0  0  0  0  0  0  0
    3.1810    2.2590   19.0640 C   0  0  0  0  0  0  0  0  0  0  0  0
    2.7540    2.6080   20.3150 C   0  0  0  0  0  0  0  0  0  0  0  0
    3.4210    2.1180   21.4580 C   0  0  0  0  0  0  0  0  0  0  0  0
    4.5090    1.2940   21.3260 C   0  0  0  0  0  0  0  0  0  0  0  0
    4.9880    0.9300   20.0310 C   0  0  0  0  0  0  0  0  0  0  0  0
    5.0090    0.9170   22.2120 H   0  0  0  0  0  0  0  0  0  0  0  0
    3.0610    2.3930   22.4460 H   0  0  0  0  0  0  0  0  0  0  0  0
    1.8940    3.2580   20.4330 H   0  0  0  0  0  0  0  0  0  0  0  0
    2.6820    2.6260   18.1730 H   0  0  0  0  0  0  0  0  0  0  0  0
    4.2200    1.3780   16.7300 H   0  0  0  0  0  0  0  0  0  0  0  0
    7.2880   -0.8930   18.3030 H   0  0  0  0  0  0  0  0  0  0  0  0
    6.7380   -1.7570   21.3560 C   0  0  0  0  0  0  0  0  0  0  0  0
    7.8650   -1.8460   22.3900 C   0  0  2  0  0  0  0  0  0  0  0  0
    7.5850   -2.8890   23.4750 C   0  0  0  0  0  0  0  0  0  0  0  0
    7.5240   -4.2320   22.9190 N   0  0  0  0  0  0  0  0  0  0  0  0
    6.3490   -4.8360   22.6120 C   0  0  0  0  0  0  0  0  0  0  0  0
    5.1700   -4.3040   22.8140 N   0  0  0  0  0  0  0  0  0  0  0  0
    4.1410   -5.1330   22.4560 N   0  0  0  0  0  0  0  0  0  0  0  0
    4.5540   -6.2660   21.9930 C   0  0  0  0  0  0  0  0  0  0  0  0
    6.2760   -6.4420   21.9220 S   0  0  0  0  0  0  0  0  0  0  0  0
    3.8910   -7.0540   21.6710 H   0  0  0  0  0  0  0  0  0  0  0  0
    8.3950   -4.7060   22.7380 H   0  0  0  0  0  0  0  0  0  0  0  0
    6.6180   -2.6920   23.9480 H   0  0  0  0  0  0  0  0  0  0  0  0
    8.3640   -2.8410   24.2490 H   0  0  0  0  0  0  0  0  0  0  0  0
    8.7680   -2.1710   21.8570 H   0  0  0  0  0  0  0  0  0  0  0  0
    5.7480   -1.9310   21.8090 H   0  0  0  0  0  0  0  0  0  0  0  0
    6.8510   -2.4760   20.5470 H   0  0  0  0  0  0  0  0  0  0  0  0
   10.3390   -1.1760   21.5040 H   0  0  0  0  0  0  0  0  0  0  0  0
   13.2950    0.9170   23.7670 H   0  0  0  0  0  0  0  0  0  0  0  0
   11.4400    1.8920   25.1880 H   0  0  0  0  0  0  0  0  0  0  0  0
  1  2  2  0  0  0  0
  2  3  1  0  0  0  0
  2 12  1  0  0  0  0
  3  4  2  0  0  0  0
  3  9  1  0  0  0  0
  4  5  1  0  0  0  0
  4 64  1  0  0  0  0
  5  6  2  0  0  0  0
  5 63  1  0  0  0  0
  6  7  1  0  0  0  0
  6  8  1  0  0  0  0
  8  9  2  0  0  0  0
  8 62  1  0  0  0  0
 10  9  1  1  0  0  0
 10 11  1  0  0  0  0
 10 27  1  0  0  0  0
 10 47  1  0  0  0  0
 11 12  1  0  0  0  0
 11 25  1  0  0  0  0
 11 26  1  0  0  0  0
 12 13  1  0  0  0  0
 13 14  1  0  0  0  0
 13 23  1  0  0  0  0
 13 24  1  0  0  0  0
 14 15  2  0  0  0  0
 14 19  1  0  0  0  0
 15 16  1  0  0  0  0
 15 22  1  0  0  0  0
 16 17  2  0  0  0  0
 16 21  1  0  0  0  0
 17 18  1  0  0  0  0
 18 19  2  0  0  0  0
 19 20  1  0  0  0  0
 27 28  2  0  0  0  0
 27 29  1  0  0  0  0
 29 30  1  0  0  0  0
 29 46  1  0  0  0  0
 30 31  2  0  0  0  0
 30 39  1  0  0  0  0
 31 32  1  0  0  0  0
 31 45  1  0  0  0  0
 32 33  2  0  0  0  0
 33 34  1  0  0  0  0
 33 44  1  0  0  0  0
 34 35  2  0  0  0  0
 34 39  1  0  0  0  0
 35 36  1  0  0  0  0
 35 43  1  0  0  0  0
 36 37  2  0  0  0  0
 36 42  1  0  0  0  0
 37 38  1  0  0  0  0
 37 41  1  0  0  0  0
 38 39  2  0  0  0  0
 38 40  1  0  0  0  0
 46 47  1  0  0  0  0
 46 60  1  0  0  0  0
 46 61  1  0  0  0  0
 47 48  1  0  0  0  0
 47 59  1  6  0  0  0
 48 49  1  0  0  0  0
 48 57  1  0  0  0  0
 48 58  1  0  0  0  0
 49 50  1  0  0  0  0
 49 56  1  0  0  0  0
 50 51  2  0  0  0  0
 50 54  1  0  0  0  0
 51 52  1  0  0  0  0
 52 53  2  0  0  0  0
 53 54  1  0  0  0  0
 53 55  1  0  0  0  0
M  END
>  <MODEL>
       1

$$$$
