output/tmp_first_model_14_59.pdb
 OpenBabel07232601073D

 60 65  0  0  1  0  0  0  0  0999 V2000
    9.7110   -3.9590   23.7620 C   0  0  0  0  0  0  0  0  0  0  0  0
    8.6920   -3.0300   23.9780 O   0  0  0  0  0  0  0  0  0  0  0  0
    7.6410   -3.0550   23.0400 C   0  0  0  0  0  0  0  0  0  0  0  0
    7.8080   -1.9720   21.9880 C   0  0  1  0  0  0  0  0  0  0  0  0
    6.6070   -1.8450   21.0520 C   0  0  0  0  0  0  0  0  0  0  0  0
    6.7840   -0.5100   20.5180 N   0  0  0  0  0  0  0  0  0  0  0  0
    5.9930    0.0560   19.4920 C   0  0  0  0  0  0  0  0  0  0  0  0
    6.2620   -0.2370   18.1810 C   0  0  0  0  0  0  0  0  0  0  0  0
    5.5930    0.2810   17.1220 N   0  0  0  0  0  0  0  0  0  0  0  0
    4.6100    1.1090   17.3860 C   0  0  0  0  0  0  0  0  0  0  0  0
    4.1950    1.4630   18.7020 C   0  0  0  0  0  0  0  0  0  0  0  0
    3.0990    2.3400   18.9280 C   0  0  0  0  0  0  0  0  0  0  0  0
    2.7050    2.6460   20.2020 C   0  0  0  0  0  0  0  0  0  0  0  0
    3.4050    2.1120   21.3090 C   0  0  0  0  0  0  0  0  0  0  0  0
    4.4820    1.2810   21.1180 C   0  0  0  0  0  0  0  0  0  0  0  0
    4.9020    0.9270   19.8010 C   0  0  0  0  0  0  0  0  0  0  0  0
    5.0180    0.8940   21.9790 H   0  0  0  0  0  0  0  0  0  0  0  0
    3.0910    2.3680   22.3170 H   0  0  0  0  0  0  0  0  0  0  0  0
    1.8620    3.3130   20.3740 H   0  0  0  0  0  0  0  0  0  0  0  0
    2.5880    2.7610   18.0660 H   0  0  0  0  0  0  0  0  0  0  0  0
    4.0800    1.5370   16.5360 H   0  0  0  0  0  0  0  0  0  0  0  0
    7.0900   -0.9020   17.9480 H   0  0  0  0  0  0  0  0  0  0  0  0
    7.6590    0.2710   21.2510 C   0  0  0  0  0  0  0  0  0  0  0  0
    7.9750    1.3940   20.9190 O   0  0  0  0  0  0  0  0  0  0  0  0
    8.0370   -0.5160   22.5160 C   0  0  1  0  0  0  0  0  0  0  0  0
    7.0270   -0.1000   23.6280 C   0  0  0  0  0  0  0  0  0  0  0  0
    7.3600   -0.6420   24.9290 N   0  0  0  0  0  0  0  0  0  0  0  0
    6.3270   -1.0210   25.8850 C   0  0  0  0  0  0  0  0  0  0  0  0
    6.0840    0.0540   26.9100 C   0  0  0  0  0  0  0  0  0  0  0  0
    5.0920    0.9150   26.9070 N   0  0  0  0  0  0  0  0  0  0  0  0
    5.3550    1.7650   27.9590 C   0  0  0  0  0  0  0  0  0  0  0  0
    6.5070    1.3980   28.5970 C   0  0  0  0  0  0  0  0  0  0  0  0
    6.9650    0.2990   27.9200 N   0  0  0  0  0  0  0  0  0  0  0  0
    7.8750   -0.1470   27.9690 H   0  0  0  0  0  0  0  0  0  0  0  0
    7.0460    1.8050   29.4430 H   0  0  0  0  0  0  0  0  0  0  0  0
    4.7160    2.6110   28.1770 H   0  0  0  0  0  0  0  0  0  0  0  0
    5.3960   -1.2220   25.3430 H   0  0  0  0  0  0  0  0  0  0  0  0
    6.6640   -1.9390   26.3850 H   0  0  0  0  0  0  0  0  0  0  0  0
    8.6340   -0.6860   25.3760 C   0  0  0  0  0  0  0  0  0  0  0  0
    8.9040   -1.0090   26.5360 O   0  0  0  0  0  0  0  0  0  0  0  0
    9.6870   -0.2980   24.4070 C   0  0  0  0  0  0  0  0  0  0  0  0
   10.9340    0.0100   24.9190 C   0  0  0  0  0  0  0  0  0  0  0  0
   11.9780    0.3290   24.0820 C   0  0  0  0  0  0  0  0  0  0  0  0
   11.7700    0.2020   22.7090 C   0  0  0  0  0  0  0  0  0  0  0  0
   13.1550    0.4290   21.6880 Cl  0  0  0  0  0  0  0  0  0  0  0  0
   10.5310   -0.1170   22.1740 C   0  0  0  0  0  0  0  0  0  0  0  0
    9.4340   -0.2760   23.0340 C   0  0  0  0  0  0  0  0  0  0  0  0
   10.4120   -0.2340   21.1040 H   0  0  0  0  0  0  0  0  0  0  0  0
   12.9500    0.6220   24.4620 H   0  0  0  0  0  0  0  0  0  0  0  0
   11.0390   -0.0270   25.9930 H   0  0  0  0  0  0  0  0  0  0  0  0
    6.9900    0.9960   23.6830 H   0  0  0  0  0  0  0  0  0  0  0  0
    6.0210   -0.4570   23.3790 H   0  0  0  0  0  0  0  0  0  0  0  0
    6.5690   -2.5830   20.2490 H   0  0  0  0  0  0  0  0  0  0  0  0
    5.6700   -1.9370   21.6220 H   0  0  0  0  0  0  0  0  0  0  0  0
    8.6960   -2.1920   21.3820 H   0  0  0  0  0  0  0  0  0  0  0  0
    6.7170   -2.8630   23.5950 H   0  0  0  0  0  0  0  0  0  0  0  0
    7.5520   -4.0480   22.5720 H   0  0  0  0  0  0  0  0  0  0  0  0
    9.3210   -4.9830   23.8420 H   0  0  0  0  0  0  0  0  0  0  0  0
   10.4530   -3.8020   24.5510 H   0  0  0  0  0  0  0  0  0  0  0  0
   10.2030   -3.8250   22.7870 H   0  0  0  0  0  0  0  0  0  0  0  0
  1  2  1  0  0  0  0
  1 58  1  0  0  0  0
  1 59  1  0  0  0  0
  1 60  1  0  0  0  0
  2  3  1  0  0  0  0
  3  4  1  0  0  0  0
  3 56  1  0  0  0  0
  3 57  1  0  0  0  0
  4  5  1  0  0  0  0
  4 25  1  0  0  0  0
  4 55  1  6  0  0  0
  5  6  1  0  0  0  0
  5 53  1  0  0  0  0
  5 54  1  0  0  0  0
  6  7  1  0  0  0  0
  6 23  1  0  0  0  0
  7  8  2  0  0  0  0
  7 16  1  0  0  0  0
  8  9  1  0  0  0  0
  8 22  1  0  0  0  0
  9 10  2  0  0  0  0
 10 11  1  0  0  0  0
 10 21  1  0  0  0  0
 11 12  2  0  0  0  0
 11 16  1  0  0  0  0
 12 13  1  0  0  0  0
 12 20  1  0  0  0  0
 13 14  2  0  0  0  0
 13 19  1  0  0  0  0
 14 15  1  0  0  0  0
 14 18  1  0  0  0  0
 15 16  2  0  0  0  0
 15 17  1  0  0  0  0
 23 24  2  0  0  0  0
 25 23  1  6  0  0  0
 25 26  1  0  0  0  0
 25 47  1  0  0  0  0
 26 27  1  0  0  0  0
 26 51  1  0  0  0  0
 26 52  1  0  0  0  0
 27 28  1  0  0  0  0
 27 39  1  0  0  0  0
 28 29  1  0  0  0  0
 28 37  1  0  0  0  0
 28 38  1  0  0  0  0
 29 30  2  0  0  0  0
 29 33  1  0  0  0  0
 30 31  1  0  0  0  0
 31 32  2  0  0  0  0
 31 36  1  0  0  0  0
 32 33  1  0  0  0  0
 32 35  1  0  0  0  0
 33 34  1  0  0  0  0
 39 40  2  0  0  0  0
 39 41  1  0  0  0  0
 41 42  2  0  0  0  0
 41 47  1  0  0  0  0
 42 43  1  0  0  0  0
 42 50  1  0  0  0  0
 43 44  2  0  0  0  0
 43 49  1  0  0  0  0
 44 45  1  0  0  0  0
 44 46  1  0  0  0  0
 46 47  2  0  0  0  0
 46 48  1  0  0  0  0
M  END
>  <MODEL>
       1

$$$$
