output/tmp_first_model_11_48.pdb
 OpenBabel07222623443D

 41 43  0  0  1  0  0  0  0  0999 V2000
   10.9120   -2.4510   23.7830 C   0  0  0  0  0  0  0  0  0  0  0  0
   10.0160   -1.2740   23.4540 C   0  0  1  0  0  0  0  0  0  0  0  0
    8.5410   -1.5730   23.7550 C   0  0  0  0  0  0  0  0  0  0  0  0
    7.6630   -0.3160   23.8370 C   0  0  0  0  0  0  0  0  0  0  0  0
    8.0230    0.7470   22.8940 N   0  0  0  0  0  0  0  0  0  0  0  0
    7.8630    0.6330   21.5250 C   0  0  0  0  0  0  0  0  0  0  0  0
    8.4310    1.3980   20.7580 O   0  0  0  0  0  0  0  0  0  0  0  0
    6.9380   -0.4510   20.9170 C   0  0  0  0  0  0  0  0  0  0  0  0
    6.1120    0.0840   19.7670 C   0  0  0  0  0  0  0  0  0  0  0  0
    6.4260   -0.2070   18.4640 C   0  0  0  0  0  0  0  0  0  0  0  0
    5.7570    0.2420   17.3680 N   0  0  0  0  0  0  0  0  0  0  0  0
    4.7320    1.0310   17.5760 C   0  0  0  0  0  0  0  0  0  0  0  0
    4.2840    1.4230   18.8690 C   0  0  0  0  0  0  0  0  0  0  0  0
    3.1630    2.2750   19.0460 C   0  0  0  0  0  0  0  0  0  0  0  0
    2.7630    2.6440   20.3010 C   0  0  0  0  0  0  0  0  0  0  0  0
    3.4630    2.1680   21.4310 C   0  0  0  0  0  0  0  0  0  0  0  0
    4.5470    1.3380   21.2870 C   0  0  0  0  0  0  0  0  0  0  0  0
    4.9910    0.9420   19.9960 C   0  0  0  0  0  0  0  0  0  0  0  0
    5.0720    0.9890   22.1710 H   0  0  0  0  0  0  0  0  0  0  0  0
    3.1370    2.4640   22.4230 H   0  0  0  0  0  0  0  0  0  0  0  0
    1.9120    3.3050   20.4360 H   0  0  0  0  0  0  0  0  0  0  0  0
    2.6430    2.6490   18.1660 H   0  0  0  0  0  0  0  0  0  0  0  0
    4.1970    1.4000   16.7000 H   0  0  0  0  0  0  0  0  0  0  0  0
    7.2740   -0.8570   18.2470 H   0  0  0  0  0  0  0  0  0  0  0  0
    7.5910   -1.2440   20.5270 H   0  0  0  0  0  0  0  0  0  0  0  0
    6.2820   -0.9140   21.6600 H   0  0  0  0  0  0  0  0  0  0  0  0
    9.0500    1.6790   23.3790 C   0  0  0  0  0  0  0  0  0  0  0  0
   10.4560    1.0800   23.4670 C   0  0  0  0  0  0  0  0  0  0  0  0
   10.4900   -0.1400   24.1800 O   0  0  0  0  0  0  0  0  0  0  0  0
   10.8660    0.9340   22.4580 H   0  0  0  0  0  0  0  0  0  0  0  0
   11.1300    1.7720   23.9950 H   0  0  0  0  0  0  0  0  0  0  0  0
    8.7580    2.0050   24.3830 H   0  0  0  0  0  0  0  0  0  0  0  0
    9.0680    2.5640   22.7390 H   0  0  0  0  0  0  0  0  0  0  0  0
    6.6060   -0.5740   23.7230 H   0  0  0  0  0  0  0  0  0  0  0  0
    7.7500    0.1020   24.8430 H   0  0  0  0  0  0  0  0  0  0  0  0
    8.4670   -2.1280   24.6990 H   0  0  0  0  0  0  0  0  0  0  0  0
    8.1640   -2.2410   22.9720 H   0  0  0  0  0  0  0  0  0  0  0  0
   10.1180   -1.0570   22.3850 H   0  0  0  0  0  0  0  0  0  0  0  0
   10.5930   -3.3310   23.2180 H   0  0  0  0  0  0  0  0  0  0  0  0
   11.9470   -2.2260   23.5140 H   0  0  0  0  0  0  0  0  0  0  0  0
   10.8690   -2.6770   24.8490 H   0  0  0  0  0  0  0  0  0  0  0  0
  1  2  1  0  0  0  0
  1 39  1  0  0  0  0
  1 40  1  0  0  0  0
  1 41  1  0  0  0  0
  2  3  1  0  0  0  0
  2 29  1  0  0  0  0
  2 38  1  6  0  0  0
  3  4  1  0  0  0  0
  3 36  1  0  0  0  0
  3 37  1  0  0  0  0
  4  5  1  0  0  0  0
  4 34  1  0  0  0  0
  4 35  1  0  0  0  0
  5  6  1  0  0  0  0
  5 27  1  0  0  0  0
  6  7  2  0  0  0  0
  6  8  1  0  0  0  0
  8  9  1  0  0  0  0
  8 25  1  0  0  0  0
  8 26  1  0  0  0  0
  9 10  2  0  0  0  0
  9 18  1  0  0  0  0
 10 11  1  0  0  0  0
 10 24  1  0  0  0  0
 11 12  2  0  0  0  0
 12 13  1  0  0  0  0
 12 23  1  0  0  0  0
 13 14  2  0  0  0  0
 13 18  1  0  0  0  0
 14 15  1  0  0  0  0
 14 22  1  0  0  0  0
 15 16  2  0  0  0  0
 15 21  1  0  0  0  0
 16 17  1  0  0  0  0
 16 20  1  0  0  0  0
 17 18  2  0  0  0  0
 17 19  1  0  0  0  0
 27 28  1  0  0  0  0
 27 32  1  0  0  0  0
 27 33  1  0  0  0  0
 28 29  1  0  0  0  0
 28 30  1  0  0  0  0
 28 31  1  0  0  0  0
M  END
>  <MODEL>
       1

$$$$
