output/tmp_first_model_11_23.pdb
 OpenBabel07222623443D

 69 74  0  0  1  0  0  0  0  0999 V2000
    4.2470    6.7650   21.0190 C   0  0  0  0  0  0  0  0  0  0  0  0
    5.0680    6.2130   22.1620 C   0  0  1  0  0  0  0  0  0  0  0  0
    6.0450    5.1200   21.7360 C   0  0  0  0  0  0  0  0  0  0  0  0
    6.7840    4.6560   22.9530 N   0  3  1  0  0  0  0  0  0  0  0  0
    7.6190    3.4500   22.7860 C   0  0  0  0  0  0  0  0  0  0  0  0
    7.9420    2.8210   24.1460 C   0  0  0  0  0  0  0  0  0  0  0  0
    8.6520    1.5740   23.9760 N   0  0  0  0  0  0  0  0  0  0  0  0
    7.8950    0.3540   23.7840 C   0  0  0  0  0  0  0  0  0  0  0  0
    8.3620   -0.4680   22.5500 C   0  0  2  0  0  0  0  0  0  0  0  0
    7.8900    0.2070   21.2430 C   0  0  0  0  0  0  0  0  0  0  0  0
    8.3920    1.1700   20.7060 O   0  0  0  0  0  0  0  0  0  0  0  0
    6.7750   -0.4590   20.7850 N   0  0  0  0  0  0  0  0  0  0  0  0
    6.0260    0.0860   19.7100 C   0  0  0  0  0  0  0  0  0  0  0  0
    6.3750   -0.1770   18.4120 C   0  0  0  0  0  0  0  0  0  0  0  0
    5.6800    0.2670   17.3360 N   0  0  0  0  0  0  0  0  0  0  0  0
    4.6310    1.0260   17.5490 C   0  0  0  0  0  0  0  0  0  0  0  0
    4.1880    1.4170   18.8470 C   0  0  0  0  0  0  0  0  0  0  0  0
    3.0870    2.2890   19.0590 C   0  0  0  0  0  0  0  0  0  0  0  0
    2.7380    2.6810   20.3250 C   0  0  0  0  0  0  0  0  0  0  0  0
    3.4640    2.2090   21.4400 C   0  0  0  0  0  0  0  0  0  0  0  0
    4.5330    1.3700   21.2660 C   0  0  0  0  0  0  0  0  0  0  0  0
    4.9140    0.9420   19.9640 C   0  0  0  0  0  0  0  0  0  0  0  0
    5.1040    1.0400   22.1290 H   0  0  0  0  0  0  0  0  0  0  0  0
    3.1960    2.5320   22.4420 H   0  0  0  0  0  0  0  0  0  0  0  0
    1.9120    3.3690   20.4790 H   0  0  0  0  0  0  0  0  0  0  0  0
    2.5470    2.6650   18.1960 H   0  0  0  0  0  0  0  0  0  0  0  0
    4.0860    1.3770   16.6700 H   0  0  0  0  0  0  0  0  0  0  0  0
    7.2560   -0.7800   18.1980 H   0  0  0  0  0  0  0  0  0  0  0  0
    6.3250   -1.4910   21.7090 C   0  0  0  0  0  0  0  0  0  0  0  0
    7.6280   -1.8370   22.4500 C   0  0  2  0  0  0  0  0  0  0  0  0
    7.5020   -2.6590   23.7310 C   0  0  0  0  0  0  0  0  0  0  0  0
    7.0780   -3.6500   23.5280 H   0  0  0  0  0  0  0  0  0  0  0  0
    6.8610   -2.1820   24.4790 H   0  0  0  0  0  0  0  0  0  0  0  0
    8.4870   -2.7990   24.1940 H   0  0  0  0  0  0  0  0  0  0  0  0
    8.1970   -2.4430   21.7440 H   0  0  0  0  0  0  0  0  0  0  0  0
    5.8890   -2.3330   21.1650 H   0  0  0  0  0  0  0  0  0  0  0  0
    5.5650   -1.1210   22.4150 H   0  0  0  0  0  0  0  0  0  0  0  0
    9.8640   -0.5160   22.5250 C   0  0  0  0  0  0  0  0  0  0  0  0
   10.5070   -1.4250   21.6780 C   0  0  0  0  0  0  0  0  0  0  0  0
   11.8800   -1.3820   21.5400 C   0  0  0  0  0  0  0  0  0  0  0  0
   12.5820   -2.4140   20.3190 Cl  0  0  0  0  0  0  0  0  0  0  0  0
   12.6510   -0.4880   22.2990 C   0  0  0  0  0  0  0  0  0  0  0  0
   12.0140    0.4470   23.0810 C   0  0  0  0  0  0  0  0  0  0  0  0
   10.6300    0.4620   23.1570 C   0  0  0  0  0  0  0  0  0  0  0  0
   10.0010    1.6450   23.8060 C   0  0  0  0  0  0  0  0  0  0  0  0
   10.6630    2.6290   24.1180 O   0  0  0  0  0  0  0  0  0  0  0  0
   12.5710    1.2290   23.5870 H   0  0  0  0  0  0  0  0  0  0  0  0
   13.7250   -0.4070   22.2310 H   0  0  0  0  0  0  0  0  0  0  0  0
    9.9540   -2.1170   21.0520 H   0  0  0  0  0  0  0  0  0  0  0  0
    7.9580   -0.2710   24.6840 H   0  0  0  0  0  0  0  0  0  0  0  0
    6.8470    0.6410   23.6620 H   0  0  0  0  0  0  0  0  0  0  0  0
    7.0290    2.6070   24.7140 H   0  0  0  0  0  0  0  0  0  0  0  0
    8.5770    3.4630   24.7600 H   0  0  0  0  0  0  0  0  0  0  0  0
    8.5540    3.7030   22.2720 H   0  0  0  0  0  0  0  0  0  0  0  0
    7.0850    2.7190   22.1670 H   0  0  0  0  0  0  0  0  0  0  0  0
    7.5520    5.8370   23.4890 C   0  0  0  0  0  0  0  0  0  0  0  0
    6.5620    6.9330   23.8480 C   0  0  0  0  0  0  0  0  0  0  0  0
    5.7570    7.3120   22.7510 O   0  0  0  0  0  0  0  0  0  0  0  0
    5.9350    6.5620   24.6750 H   0  0  0  0  0  0  0  0  0  0  0  0
    7.0770    7.8320   24.1910 H   0  0  0  0  0  0  0  0  0  0  0  0
    8.1290    5.5380   24.3680 H   0  0  0  0  0  0  0  0  0  0  0  0
    8.2470    6.1690   22.7100 H   0  0  0  0  0  0  0  0  0  0  0  0
    6.0590    4.3820   23.6440 H   0  0  0  0  0  0  0  0  0  0  0  0
    5.5190    4.2770   21.2720 H   0  0  0  0  0  0  0  0  0  0  0  0
    6.7630    5.5110   21.0070 H   0  0  0  0  0  0  0  0  0  0  0  0
    4.4040    5.7550   22.9160 H   0  0  0  0  0  0  0  0  0  0  0  0
    3.7280    5.9780   20.4600 H   0  0  0  0  0  0  0  0  0  0  0  0
    3.4980    7.4620   21.3990 H   0  0  0  0  0  0  0  0  0  0  0  0
    4.8940    7.3000   20.3190 H   0  0  0  0  0  0  0  0  0  0  0  0
  1  2  1  0  0  0  0
  1 67  1  0  0  0  0
  1 68  1  0  0  0  0
  1 69  1  0  0  0  0
  2  3  1  0  0  0  0
  2 58  1  0  0  0  0
  2 66  1  1  0  0  0
  3  4  1  0  0  0  0
  3 64  1  0  0  0  0
  3 65  1  0  0  0  0
  4  5  1  0  0  0  0
  4 56  1  0  0  0  0
  4 63  1  1  0  0  0
  5  6  1  0  0  0  0
  5 54  1  0  0  0  0
  5 55  1  0  0  0  0
  6  7  1  0  0  0  0
  6 52  1  0  0  0  0
  6 53  1  0  0  0  0
  7  8  1  0  0  0  0
  7 45  1  0  0  0  0
  8  9  1  0  0  0  0
  8 50  1  0  0  0  0
  8 51  1  0  0  0  0
  9 10  1  6  0  0  0
  9 30  1  0  0  0  0
  9 38  1  0  0  0  0
 10 11  2  0  0  0  0
 10 12  1  0  0  0  0
 12 13  1  0  0  0  0
 12 29  1  0  0  0  0
 13 14  2  0  0  0  0
 13 22  1  0  0  0  0
 14 15  1  0  0  0  0
 14 28  1  0  0  0  0
 15 16  2  0  0  0  0
 16 17  1  0  0  0  0
 16 27  1  0  0  0  0
 17 18  2  0  0  0  0
 17 22  1  0  0  0  0
 18 19  1  0  0  0  0
 18 26  1  0  0  0  0
 19 20  2  0  0  0  0
 19 25  1  0  0  0  0
 20 21  1  0  0  0  0
 20 24  1  0  0  0  0
 21 22  2  0  0  0  0
 21 23  1  0  0  0  0
 29 30  1  0  0  0  0
 29 36  1  0  0  0  0
 29 37  1  0  0  0  0
 30 31  1  0  0  0  0
 30 35  1  6  0  0  0
 31 32  1  0  0  0  0
 31 33  1  0  0  0  0
 31 34  1  0  0  0  0
 38 39  2  0  0  0  0
 38 44  1  0  0  0  0
 39 40  1  0  0  0  0
 39 49  1  0  0  0  0
 40 41  1  0  0  0  0
 40 42  2  0  0  0  0
 42 43  1  0  0  0  0
 42 48  1  0  0  0  0
 43 44  2  0  0  0  0
 43 47  1  0  0  0  0
 44 45  1  0  0  0  0
 45 46  2  0  0  0  0
 56 57  1  0  0  0  0
 56 61  1  0  0  0  0
 56 62  1  0  0  0  0
 57 58  1  0  0  0  0
 57 59  1  0  0  0  0
 57 60  1  0  0  0  0
M  CHG  1   4   1
M  END
>  <MODEL>
       1

$$$$
