output/tmp_first_model_11_64.pdb
 OpenBabel07222623443D

 66 71  0  0  1  0  0  0  0  0999 V2000
    7.6450   -2.6000   23.6650 C   0  0  0  0  0  0  0  0  0  0  0  0
    7.9800   -1.7540   22.4330 C   0  0  1  0  0  0  0  0  0  0  0  0
    6.8040   -1.6530   21.4440 C   0  0  0  0  0  0  0  0  0  0  0  0
    6.9680   -0.3530   20.8280 N   0  0  0  0  0  0  0  0  0  0  0  0
    6.1570    0.1220   19.7650 C   0  0  0  0  0  0  0  0  0  0  0  0
    6.4500   -0.2210   18.4690 C   0  0  0  0  0  0  0  0  0  0  0  0
    5.7600    0.2170   17.3890 N   0  0  0  0  0  0  0  0  0  0  0  0
    4.7440    1.0180   17.6000 C   0  0  0  0  0  0  0  0  0  0  0  0
    4.3060    1.4250   18.8930 C   0  0  0  0  0  0  0  0  0  0  0  0
    3.1840    2.2770   19.0730 C   0  0  0  0  0  0  0  0  0  0  0  0
    2.7750    2.6380   20.3290 C   0  0  0  0  0  0  0  0  0  0  0  0
    3.4560    2.1460   21.4630 C   0  0  0  0  0  0  0  0  0  0  0  0
    4.5400    1.3110   21.3130 C   0  0  0  0  0  0  0  0  0  0  0  0
    5.0170    0.9500   20.0200 C   0  0  0  0  0  0  0  0  0  0  0  0
    5.0310    0.9020   22.1890 H   0  0  0  0  0  0  0  0  0  0  0  0
    3.1220    2.4380   22.4550 H   0  0  0  0  0  0  0  0  0  0  0  0
    1.9300    3.3130   20.4520 H   0  0  0  0  0  0  0  0  0  0  0  0
    2.6780    2.6530   18.1880 H   0  0  0  0  0  0  0  0  0  0  0  0
    4.2130    1.3820   16.7210 H   0  0  0  0  0  0  0  0  0  0  0  0
    7.2950   -0.8740   18.2520 H   0  0  0  0  0  0  0  0  0  0  0  0
    7.8260    0.4830   21.4920 C   0  0  0  0  0  0  0  0  0  0  0  0
    8.0450    1.6380   21.1780 O   0  0  0  0  0  0  0  0  0  0  0  0
    8.4400   -0.2840   22.6850 C   0  0  1  0  0  0  0  0  0  0  0  0
    7.8960    0.2810   24.0120 C   0  0  0  0  0  0  0  0  0  0  0  0
    8.3810    1.6160   24.2830 N   0  0  0  0  0  0  0  0  0  0  0  0
    7.4650    2.5550   24.8870 C   0  0  0  0  0  0  0  0  0  0  0  0
    6.6150    3.3130   23.8800 C   0  0  0  0  0  0  0  0  0  0  0  0
    7.4450    4.2290   23.0230 N   0  3  0  0  0  0  0  0  0  0  0  0
    6.7590    4.5610   21.7130 C   0  0  0  0  0  0  0  0  0  0  0  0
    5.6490    5.5860   21.8990 C   0  0  0  0  0  0  0  0  0  0  0  0
    6.1440    6.7760   22.4790 O   0  0  0  0  0  0  0  0  0  0  0  0
    6.6910    6.5370   23.7600 C   0  0  0  0  0  0  0  0  0  0  0  0
    7.8440    5.5350   23.7040 C   0  0  0  0  0  0  0  0  0  0  0  0
    8.6610    5.9730   23.1250 H   0  0  0  0  0  0  0  0  0  0  0  0
    8.2190    5.3150   24.7050 H   0  0  0  0  0  0  0  0  0  0  0  0
    7.0490    7.5050   24.1200 H   0  0  0  0  0  0  0  0  0  0  0  0
    5.9060    6.1860   24.4470 H   0  0  0  0  0  0  0  0  0  0  0  0
    5.2210    5.8660   20.9320 H   0  0  0  0  0  0  0  0  0  0  0  0
    4.8460    5.1600   22.5230 H   0  0  0  0  0  0  0  0  0  0  0  0
    6.3780    3.6270   21.2920 H   0  0  0  0  0  0  0  0  0  0  0  0
    7.5230    4.9650   21.0450 H   0  0  0  0  0  0  0  0  0  0  0  0
    8.3070    3.7190   22.7600 H   0  0  0  0  0  0  0  0  0  0  0  0
    5.8650    3.8950   24.4200 H   0  0  0  0  0  0  0  0  0  0  0  0
    6.0850    2.6210   23.2150 H   0  0  0  0  0  0  0  0  0  0  0  0
    8.0730    3.2590   25.4440 H   0  0  0  0  0  0  0  0  0  0  0  0
    6.8130    2.0090   25.5740 H   0  0  0  0  0  0  0  0  0  0  0  0
    9.6820    1.9700   24.1110 C   0  0  0  0  0  0  0  0  0  0  0  0
   10.1090    3.0760   24.4440 O   0  0  0  0  0  0  0  0  0  0  0  0
   10.5290    0.9400   23.4260 C   0  0  0  0  0  0  0  0  0  0  0  0
   11.9150    1.0680   23.4480 C   0  0  0  0  0  0  0  0  0  0  0  0
   12.7060    0.2490   22.6620 C   0  0  0  0  0  0  0  0  0  0  0  0
   12.0840   -0.5890   21.7240 C   0  0  0  0  0  0  0  0  0  0  0  0
   12.9170   -1.3020   20.3470 Cl  0  0  0  0  0  0  0  0  0  0  0  0
   10.7190   -0.7720   21.7470 C   0  0  0  0  0  0  0  0  0  0  0  0
    9.9340   -0.0770   22.6700 C   0  0  0  0  0  0  0  0  0  0  0  0
   10.2730   -1.4280   21.0090 H   0  0  0  0  0  0  0  0  0  0  0  0
   13.7860    0.3440   22.7040 H   0  0  0  0  0  0  0  0  0  0  0  0
   12.3560    1.8630   24.0410 H   0  0  0  0  0  0  0  0  0  0  0  0
    6.8060    0.3330   23.9570 H   0  0  0  0  0  0  0  0  0  0  0  0
    8.1810   -0.4030   24.8250 H   0  0  0  0  0  0  0  0  0  0  0  0
    6.8190   -2.4370   20.6810 H   0  0  0  0  0  0  0  0  0  0  0  0
    5.8440   -1.7320   21.9750 H   0  0  0  0  0  0  0  0  0  0  0  0
    8.8100   -2.2440   21.9200 H   0  0  0  0  0  0  0  0  0  0  0  0
    7.3880   -3.6240   23.3740 H   0  0  0  0  0  0  0  0  0  0  0  0
    6.7840   -2.1880   24.2040 H   0  0  0  0  0  0  0  0  0  0  0  0
    8.4820   -2.6590   24.3710 H   0  0  0  0  0  0  0  0  0  0  0  0
  1  2  1  0  0  0  0
  1 64  1  0  0  0  0
  1 65  1  0  0  0  0
  1 66  1  0  0  0  0
  2  3  1  0  0  0  0
  2 23  1  0  0  0  0
  2 63  1  6  0  0  0
  3  4  1  0  0  0  0
  3 61  1  0  0  0  0
  3 62  1  0  0  0  0
  4  5  1  0  0  0  0
  4 21  1  0  0  0  0
  5  6  2  0  0  0  0
  5 14  1  0  0  0  0
  6  7  1  0  0  0  0
  6 20  1  0  0  0  0
  7  8  2  0  0  0  0
  8  9  1  0  0  0  0
  8 19  1  0  0  0  0
  9 10  2  0  0  0  0
  9 14  1  0  0  0  0
 10 11  1  0  0  0  0
 10 18  1  0  0  0  0
 11 12  2  0  0  0  0
 11 17  1  0  0  0  0
 12 13  1  0  0  0  0
 12 16  1  0  0  0  0
 13 14  2  0  0  0  0
 13 15  1  0  0  0  0
 21 22  2  0  0  0  0
 23 21  1  6  0  0  0
 23 24  1  0  0  0  0
 23 55  1  0  0  0  0
 24 25  1  0  0  0  0
 24 59  1  0  0  0  0
 24 60  1  0  0  0  0
 25 26  1  0  0  0  0
 25 47  1  0  0  0  0
 26 27  1  0  0  0  0
 26 45  1  0  0  0  0
 26 46  1  0  0  0  0
 27 28  1  0  0  0  0
 27 43  1  0  0  0  0
 27 44  1  0  0  0  0
 28 29  1  0  0  0  0
 28 33  1  0  0  0  0
 28 42  1  0  0  0  0
 29 30  1  0  0  0  0
 29 40  1  0  0  0  0
 29 41  1  0  0  0  0
 30 31  1  0  0  0  0
 30 38  1  0  0  0  0
 30 39  1  0  0  0  0
 31 32  1  0  0  0  0
 32 33  1  0  0  0  0
 32 36  1  0  0  0  0
 32 37  1  0  0  0  0
 33 34  1  0  0  0  0
 33 35  1  0  0  0  0
 47 48  2  0  0  0  0
 47 49  1  0  0  0  0
 49 50  2  0  0  0  0
 49 55  1  0  0  0  0
 50 51  1  0  0  0  0
 50 58  1  0  0  0  0
 51 52  2  0  0  0  0
 51 57  1  0  0  0  0
 52 53  1  0  0  0  0
 52 54  1  0  0  0  0
 54 55  2  0  0  0  0
 54 56  1  0  0  0  0
M  CHG  1  28   1
M  END
>  <MODEL>
       1

$$$$
