output/tmp_first_model_20_45.pdb
 OpenBabel07232603433D

 60 64  0  0  1  0  0  0  0  0999 V2000
    6.5980    4.2390   21.4510 C   0  0  0  0  0  0  0  0  0  0  0  0
    7.5910    3.6610   22.3400 N   0  0  0  0  0  0  0  0  0  0  0  0
    7.1580    3.1240   23.5150 C   0  0  0  0  0  0  0  0  0  0  0  0
    5.9640    3.0560   23.7910 O   0  0  0  0  0  0  0  0  0  0  0  0
    8.2000    2.6450   24.5240 C   0  0  0  0  0  0  0  0  0  0  0  0
    8.7860    1.3670   24.1680 N   0  0  0  0  0  0  0  0  0  0  0  0
    7.9370    0.2110   23.9170 C   0  0  0  0  0  0  0  0  0  0  0  0
    8.4590   -0.6310   22.7150 C   0  0  2  0  0  0  0  0  0  0  0  0
    8.1190    0.1170   21.3990 C   0  0  0  0  0  0  0  0  0  0  0  0
    8.6940    1.0600   20.8960 O   0  0  0  0  0  0  0  0  0  0  0  0
    6.9480   -0.4250   20.9060 N   0  0  0  0  0  0  0  0  0  0  0  0
    6.2410    0.1700   19.8290 C   0  0  0  0  0  0  0  0  0  0  0  0
    6.6660   -0.0230   18.5380 C   0  0  0  0  0  0  0  0  0  0  0  0
    6.0050    0.4300   17.4470 N   0  0  0  0  0  0  0  0  0  0  0  0
    4.8980    1.1050   17.6420 C   0  0  0  0  0  0  0  0  0  0  0  0
    4.3760    1.4340   18.9250 C   0  0  0  0  0  0  0  0  0  0  0  0
    3.2150    2.2340   19.0930 C   0  0  0  0  0  0  0  0  0  0  0  0
    2.7850    2.5850   20.3440 C   0  0  0  0  0  0  0  0  0  0  0  0
    3.4960    2.1550   21.4870 C   0  0  0  0  0  0  0  0  0  0  0  0
    4.6110    1.3610   21.3490 C   0  0  0  0  0  0  0  0  0  0  0  0
    5.0740    0.9650   20.0640 C   0  0  0  0  0  0  0  0  0  0  0  0
    5.1870    1.0970   22.2310 H   0  0  0  0  0  0  0  0  0  0  0  0
    3.1830    2.4710   22.4780 H   0  0  0  0  0  0  0  0  0  0  0  0
    1.9040    3.2100   20.4640 H   0  0  0  0  0  0  0  0  0  0  0  0
    2.6880    2.5740   18.2060 H   0  0  0  0  0  0  0  0  0  0  0  0
    4.3580    1.4420   16.7570 H   0  0  0  0  0  0  0  0  0  0  0  0
    7.5800   -0.5830   18.3520 H   0  0  0  0  0  0  0  0  0  0  0  0
    6.4220   -1.5180   21.7050 C   0  0  0  0  0  0  0  0  0  0  0  0
    7.6360   -1.9400   22.5420 C   0  0  2  0  0  0  0  0  0  0  0  0
    7.2830   -2.6560   23.8370 C   0  0  0  0  0  0  0  0  0  0  0  0
    8.4940   -2.9170   24.5050 O   0  0  0  0  0  0  0  0  0  0  0  0
    8.3410   -3.3750   25.8210 C   0  0  0  0  0  0  0  0  0  0  0  0
    7.7840   -4.3220   25.8560 H   0  0  0  0  0  0  0  0  0  0  0  0
    7.8190   -2.6460   26.4620 H   0  0  0  0  0  0  0  0  0  0  0  0
    9.3460   -3.5270   26.2240 H   0  0  0  0  0  0  0  0  0  0  0  0
    6.7430   -3.5980   23.6380 H   0  0  0  0  0  0  0  0  0  0  0  0
    6.6180   -2.0190   24.4490 H   0  0  0  0  0  0  0  0  0  0  0  0
    8.2460   -2.6340   21.9530 H   0  0  0  0  0  0  0  0  0  0  0  0
    5.5880   -1.1930   22.3510 H   0  0  0  0  0  0  0  0  0  0  0  0
    6.0420   -2.3200   21.0640 H   0  0  0  0  0  0  0  0  0  0  0  0
    9.9410   -0.8550   22.9190 C   0  0  0  0  0  0  0  0  0  0  0  0
   10.6370   -1.7880   22.1370 C   0  0  0  0  0  0  0  0  0  0  0  0
   11.9970   -1.9760   22.3220 C   0  0  0  0  0  0  0  0  0  0  0  0
   12.8230   -3.1080   21.2830 Cl  0  0  0  0  0  0  0  0  0  0  0  0
   12.7260   -1.2540   23.2740 C   0  0  0  0  0  0  0  0  0  0  0  0
   12.0570   -0.2820   23.9960 C   0  0  0  0  0  0  0  0  0  0  0  0
   10.6900   -0.0800   23.8140 C   0  0  0  0  0  0  0  0  0  0  0  0
   10.1210    1.1760   24.4010 C   0  0  0  0  0  0  0  0  0  0  0  0
   10.8240    1.9930   24.9800 O   0  0  0  0  0  0  0  0  0  0  0  0
   12.5750    0.4150   24.6490 H   0  0  0  0  0  0  0  0  0  0  0  0
   13.7980   -1.3990   23.3820 H   0  0  0  0  0  0  0  0  0  0  0  0
   10.1290   -2.3340   21.3470 H   0  0  0  0  0  0  0  0  0  0  0  0
    6.9170    0.5600   23.7190 H   0  0  0  0  0  0  0  0  0  0  0  0
    7.9490   -0.4330   24.8080 H   0  0  0  0  0  0  0  0  0  0  0  0
    7.7120    2.6340   25.5100 H   0  0  0  0  0  0  0  0  0  0  0  0
    9.0300    3.3520   24.6010 H   0  0  0  0  0  0  0  0  0  0  0  0
    8.4850    3.3990   21.9420 H   0  0  0  0  0  0  0  0  0  0  0  0
    7.0580    4.9870   20.8040 H   0  0  0  0  0  0  0  0  0  0  0  0
    6.0960    3.4740   20.8440 H   0  0  0  0  0  0  0  0  0  0  0  0
    5.8430    4.7330   22.0680 H   0  0  0  0  0  0  0  0  0  0  0  0
  1  2  1  0  0  0  0
  1 58  1  0  0  0  0
  1 59  1  0  0  0  0
  1 60  1  0  0  0  0
  2  3  1  0  0  0  0
  2 57  1  0  0  0  0
  3  4  2  0  0  0  0
  3  5  1  0  0  0  0
  5  6  1  0  0  0  0
  5 55  1  0  0  0  0
  5 56  1  0  0  0  0
  6  7  1  0  0  0  0
  6 48  1  0  0  0  0
  7  8  1  0  0  0  0
  7 53  1  0  0  0  0
  7 54  1  0  0  0  0
  8  9  1  6  0  0  0
  8 29  1  0  0  0  0
  8 41  1  0  0  0  0
  9 10  2  0  0  0  0
  9 11  1  0  0  0  0
 11 12  1  0  0  0  0
 11 28  1  0  0  0  0
 12 13  2  0  0  0  0
 12 21  1  0  0  0  0
 13 14  1  0  0  0  0
 13 27  1  0  0  0  0
 14 15  2  0  0  0  0
 15 16  1  0  0  0  0
 15 26  1  0  0  0  0
 16 17  2  0  0  0  0
 16 21  1  0  0  0  0
 17 18  1  0  0  0  0
 17 25  1  0  0  0  0
 18 19  2  0  0  0  0
 18 24  1  0  0  0  0
 19 20  1  0  0  0  0
 19 23  1  0  0  0  0
 20 21  2  0  0  0  0
 20 22  1  0  0  0  0
 28 29  1  0  0  0  0
 28 39  1  0  0  0  0
 28 40  1  0  0  0  0
 29 30  1  0  0  0  0
 29 38  1  6  0  0  0
 30 31  1  0  0  0  0
 30 36  1  0  0  0  0
 30 37  1  0  0  0  0
 31 32  1  0  0  0  0
 32 33  1  0  0  0  0
 32 34  1  0  0  0  0
 32 35  1  0  0  0  0
 41 42  2  0  0  0  0
 41 47  1  0  0  0  0
 42 43  1  0  0  0  0
 42 52  1  0  0  0  0
 43 44  1  0  0  0  0
 43 45  2  0  0  0  0
 45 46  1  0  0  0  0
 45 51  1  0  0  0  0
 46 47  2  0  0  0  0
 46 50  1  0  0  0  0
 47 48  1  0  0  0  0
 48 49  2  0  0  0  0
M  END
>  <MODEL>
       1

$$$$
