output/tmp_first_model_11_20.pdb
 OpenBabel07222623443D

 66 70  0  0  0  0  0  0  0  0999 V2000
    4.1700    7.1860   21.4050 C   0  0  0  0  0  0  0  0  0  0  0  0
    5.3620    6.2780   21.1180 C   0  0  0  0  0  0  0  0  0  0  0  0
    5.7990    5.4300   22.2920 C   0  0  0  0  0  0  0  0  0  0  0  0
    5.0780    4.5520   22.7180 O   0  0  0  0  0  0  0  0  0  0  0  0
    7.0710    5.6740   22.8180 N   0  0  0  0  0  0  0  0  0  0  0  0
    7.5790    7.0320   22.9930 C   0  0  0  0  0  0  0  0  0  0  0  0
    8.1220    7.2000   24.4050 C   0  0  0  0  0  0  0  0  0  0  0  0
    9.2650    6.2120   24.6210 C   0  0  0  0  0  0  0  0  0  0  0  0
    8.9240    4.8170   24.1430 C   0  0  0  0  0  0  0  0  0  0  0  0
    9.6830    3.7260   24.5600 C   0  0  0  0  0  0  0  0  0  0  0  0
    9.4100    2.4330   24.1290 C   0  0  0  0  0  0  0  0  0  0  0  0
    8.3680    2.2370   23.2220 C   0  0  0  0  0  0  0  0  0  0  0  0
    8.0160    0.9280   22.7740 N   0  0  0  0  0  0  0  0  0  0  0  0
    7.9000    0.7360   21.3860 C   0  0  0  0  0  0  0  0  0  0  0  0
    8.4700    1.4650   20.6120 O   0  0  0  0  0  0  0  0  0  0  0  0
    6.9910   -0.3940   20.9160 C   0  0  0  0  0  0  0  0  0  0  0  0
    6.1140    0.0720   19.7810 C   0  0  0  0  0  0  0  0  0  0  0  0
    6.4330   -0.2190   18.4810 C   0  0  0  0  0  0  0  0  0  0  0  0
    5.7640    0.2270   17.3860 N   0  0  0  0  0  0  0  0  0  0  0  0
    4.7390    1.0120   17.5950 C   0  0  0  0  0  0  0  0  0  0  0  0
    4.2880    1.4040   18.8840 C   0  0  0  0  0  0  0  0  0  0  0  0
    3.1740    2.2630   19.0600 C   0  0  0  0  0  0  0  0  0  0  0  0
    2.7780    2.6430   20.3130 C   0  0  0  0  0  0  0  0  0  0  0  0
    3.4730    2.1670   21.4480 C   0  0  0  0  0  0  0  0  0  0  0  0
    4.5580    1.3370   21.3010 C   0  0  0  0  0  0  0  0  0  0  0  0
    4.9970    0.9260   20.0140 C   0  0  0  0  0  0  0  0  0  0  0  0
    5.0830    0.9980   22.1910 H   0  0  0  0  0  0  0  0  0  0  0  0
    3.1780    2.4880   22.4440 H   0  0  0  0  0  0  0  0  0  0  0  0
    1.9370    3.3220   20.4370 H   0  0  0  0  0  0  0  0  0  0  0  0
    2.6660    2.6360   18.1720 H   0  0  0  0  0  0  0  0  0  0  0  0
    4.2080    1.3810   16.7160 H   0  0  0  0  0  0  0  0  0  0  0  0
    7.2840   -0.8620   18.2580 H   0  0  0  0  0  0  0  0  0  0  0  0
    6.4300   -0.7670   21.7760 H   0  0  0  0  0  0  0  0  0  0  0  0
    7.6340   -1.2100   20.5650 H   0  0  0  0  0  0  0  0  0  0  0  0
    8.1120   -0.1500   23.6380 N   0  0  0  0  0  0  0  0  0  0  0  0
    9.0530   -1.2170   23.3620 C   0  0  0  0  0  0  0  0  0  0  0  0
    8.5660   -2.1810   23.5460 H   0  0  0  0  0  0  0  0  0  0  0  0
    9.9540   -1.1680   23.9900 H   0  0  0  0  0  0  0  0  0  0  0  0
    9.3680   -1.1780   22.3200 H   0  0  0  0  0  0  0  0  0  0  0  0
    7.3920   -0.1260   24.8250 C   0  0  0  0  0  0  0  0  0  0  0  0
    7.7770   -0.9540   25.8800 C   0  0  0  0  0  0  0  0  0  0  0  0
    7.1350   -0.8660   27.1030 C   0  0  0  0  0  0  0  0  0  0  0  0
    6.0670    0.0010   27.2720 C   0  0  0  0  0  0  0  0  0  0  0  0
    5.6430    0.7770   26.2010 C   0  0  0  0  0  0  0  0  0  0  0  0
    4.2490    1.8170   26.3850 Cl  0  0  0  0  0  0  0  0  0  0  0  0
    6.2990    0.7370   24.9860 C   0  0  0  0  0  0  0  0  0  0  0  0
    5.9680    1.3810   24.1820 H   0  0  0  0  0  0  0  0  0  0  0  0
    5.5580    0.0570   28.2200 H   0  0  0  0  0  0  0  0  0  0  0  0
    7.4700   -1.4870   27.9300 H   0  0  0  0  0  0  0  0  0  0  0  0
    8.5840   -1.6500   25.7270 H   0  0  0  0  0  0  0  0  0  0  0  0
    7.6060    3.3040   22.7710 C   0  0  0  0  0  0  0  0  0  0  0  0
    7.8560    4.5920   23.2610 C   0  0  0  0  0  0  0  0  0  0  0  0
    6.8260    3.1340   22.0310 H   0  0  0  0  0  0  0  0  0  0  0  0
    9.9900    1.5800   24.4720 H   0  0  0  0  0  0  0  0  0  0  0  0
   10.5070    3.8960   25.2520 H   0  0  0  0  0  0  0  0  0  0  0  0
   10.1500    6.5590   24.0700 H   0  0  0  0  0  0  0  0  0  0  0  0
    9.5660    6.1750   25.6760 H   0  0  0  0  0  0  0  0  0  0  0  0
    7.3190    7.0160   25.1260 H   0  0  0  0  0  0  0  0  0  0  0  0
    8.4660    8.2280   24.5540 H   0  0  0  0  0  0  0  0  0  0  0  0
    8.3700    7.2440   22.2590 H   0  0  0  0  0  0  0  0  0  0  0  0
    6.7460    7.7130   22.8030 H   0  0  0  0  0  0  0  0  0  0  0  0
    6.2120    6.8270   20.7090 H   0  0  0  0  0  0  0  0  0  0  0  0
    5.0650    5.5440   20.3630 H   0  0  0  0  0  0  0  0  0  0  0  0
    3.8640    7.6990   20.4870 H   0  0  0  0  0  0  0  0  0  0  0  0
    4.3770    7.9500   22.1610 H   0  0  0  0  0  0  0  0  0  0  0  0
    3.3250    6.5880   21.7520 H   0  0  0  0  0  0  0  0  0  0  0  0
  1  2  1  0  0  0  0
  1 64  1  0  0  0  0
  1 65  1  0  0  0  0
  1 66  1  0  0  0  0
  2  3  1  0  0  0  0
  2 62  1  0  0  0  0
  2 63  1  0  0  0  0
  3  4  2  0  0  0  0
  3  5  1  0  0  0  0
  5  6  1  0  0  0  0
  5 52  1  0  0  0  0
  6  7  1  0  0  0  0
  6 60  1  0  0  0  0
  6 61  1  0  0  0  0
  7  8  1  0  0  0  0
  7 58  1  0  0  0  0
  7 59  1  0  0  0  0
  8  9  1  0  0  0  0
  8 56  1  0  0  0  0
  8 57  1  0  0  0  0
  9 10  2  0  0  0  0
  9 52  1  0  0  0  0
 10 11  1  0  0  0  0
 10 55  1  0  0  0  0
 11 12  2  0  0  0  0
 11 54  1  0  0  0  0
 12 13  1  0  0  0  0
 12 51  1  0  0  0  0
 13 14  1  0  0  0  0
 13 35  1  0  0  0  0
 14 15  2  0  0  0  0
 14 16  1  0  0  0  0
 16 17  1  0  0  0  0
 16 33  1  0  0  0  0
 16 34  1  0  0  0  0
 17 18  2  0  0  0  0
 17 26  1  0  0  0  0
 18 19  1  0  0  0  0
 18 32  1  0  0  0  0
 19 20  2  0  0  0  0
 20 21  1  0  0  0  0
 20 31  1  0  0  0  0
 21 22  2  0  0  0  0
 21 26  1  0  0  0  0
 22 23  1  0  0  0  0
 22 30  1  0  0  0  0
 23 24  2  0  0  0  0
 23 29  1  0  0  0  0
 24 25  1  0  0  0  0
 24 28  1  0  0  0  0
 25 26  2  0  0  0  0
 25 27  1  0  0  0  0
 35 36  1  0  0  0  0
 35 40  1  0  0  0  0
 36 37  1  0  0  0  0
 36 38  1  0  0  0  0
 36 39  1  0  0  0  0
 40 41  2  0  0  0  0
 40 46  1  0  0  0  0
 41 42  1  0  0  0  0
 41 50  1  0  0  0  0
 42 43  2  0  0  0  0
 42 49  1  0  0  0  0
 43 44  1  0  0  0  0
 43 48  1  0  0  0  0
 44 45  1  0  0  0  0
 44 46  2  0  0  0  0
 46 47  1  0  0  0  0
 51 52  2  0  0  0  0
 51 53  1  0  0  0  0
M  END
>  <MODEL>
       1

$$$$
