output/tmp_first_model_1_5.pdb
 OpenBabel07222618483D

 50 54  0  0  1  0  0  0  0  0999 V2000
    7.8820   -3.0700   23.2770 C   0  0  0  0  0  0  0  0  0  0  0  0
    8.0380   -1.9840   22.2170 C   0  0  1  0  0  0  0  0  0  0  0  0
    6.8350   -1.9380   21.2600 C   0  0  0  0  0  0  0  0  0  0  0  0
    6.7420   -0.5460   20.8790 N   0  0  0  0  0  0  0  0  0  0  0  0
    5.8980   -0.1100   19.8180 C   0  0  0  0  0  0  0  0  0  0  0  0
    6.3580   -0.1820   18.5270 C   0  0  0  0  0  0  0  0  0  0  0  0
    5.6370    0.1450   17.4250 N   0  0  0  0  0  0  0  0  0  0  0  0
    4.4190    0.5880   17.6220 C   0  0  0  0  0  0  0  0  0  0  0  0
    3.8110    0.7350   18.8990 C   0  0  0  0  0  0  0  0  0  0  0  0
    2.5190    1.3200   19.0520 C   0  0  0  0  0  0  0  0  0  0  0  0
    1.9700    1.4750   20.3000 C   0  0  0  0  0  0  0  0  0  0  0  0
    2.6830    1.0460   21.4480 C   0  0  0  0  0  0  0  0  0  0  0  0
    3.9430    0.5070   21.3260 C   0  0  0  0  0  0  0  0  0  0  0  0
    4.5500    0.3380   20.0450 C   0  0  0  0  0  0  0  0  0  0  0  0
    4.4940    0.2250   22.2190 H   0  0  0  0  0  0  0  0  0  0  0  0
    2.2550    1.2280   22.4340 H   0  0  0  0  0  0  0  0  0  0  0  0
    0.9850    1.9250   20.4180 H   0  0  0  0  0  0  0  0  0  0  0  0
    2.0220    1.7230   18.1720 H   0  0  0  0  0  0  0  0  0  0  0  0
    3.8370    0.8360   16.7360 H   0  0  0  0  0  0  0  0  0  0  0  0
    7.3560   -0.5780   18.3400 H   0  0  0  0  0  0  0  0  0  0  0  0
    7.5960    0.2930   21.5670 C   0  0  0  0  0  0  0  0  0  0  0  0
    7.7580    1.4670   21.3100 O   0  0  0  0  0  0  0  0  0  0  0  0
    8.2220   -0.5110   22.7320 C   0  0  1  0  0  0  0  0  0  0  0  0
    7.3770   -0.1590   23.9870 C   0  0  0  0  0  0  0  0  0  0  0  0
    7.9930   -0.5850   25.2390 N   0  0  0  0  0  0  0  0  0  0  0  0
    7.2050   -1.0330   26.3770 C   0  0  0  0  0  0  0  0  0  0  0  0
    7.3710   -2.4740   26.6630 C   0  0  0  0  0  0  0  0  0  0  0  0
    7.4970   -3.6060   26.8730 N   0  0  0  0  0  0  0  0  0  0  0  0
    6.1430   -0.8360   26.2120 H   0  0  0  0  0  0  0  0  0  0  0  0
    7.5480   -0.4860   27.2600 H   0  0  0  0  0  0  0  0  0  0  0  0
    9.2950   -0.2410   25.5140 C   0  0  0  0  0  0  0  0  0  0  0  0
    9.7050   -0.0960   26.6570 O   0  0  0  0  0  0  0  0  0  0  0  0
   10.1730   -0.0830   24.3140 C   0  0  0  0  0  0  0  0  0  0  0  0
   11.5320    0.1020   24.5610 C   0  0  0  0  0  0  0  0  0  0  0  0
   12.4230    0.2680   23.5230 C   0  0  0  0  0  0  0  0  0  0  0  0
   11.9230    0.2700   22.2300 C   0  0  0  0  0  0  0  0  0  0  0  0
   12.8120    0.5030   21.2510 F   0  0  0  0  0  0  0  0  0  0  0  0
   10.5830    0.0470   21.9470 C   0  0  0  0  0  0  0  0  0  0  0  0
    9.6770   -0.1530   23.0040 C   0  0  0  0  0  0  0  0  0  0  0  0
   10.2520    0.0300   20.9140 H   0  0  0  0  0  0  0  0  0  0  0  0
   13.4900    0.3940   23.6750 H   0  0  0  0  0  0  0  0  0  0  0  0
   11.8680    0.1130   25.5890 H   0  0  0  0  0  0  0  0  0  0  0  0
    6.3920   -0.6340   23.9080 H   0  0  0  0  0  0  0  0  0  0  0  0
    7.2250    0.9330   23.9850 H   0  0  0  0  0  0  0  0  0  0  0  0
    6.9790   -2.5640   20.3720 H   0  0  0  0  0  0  0  0  0  0  0  0
    5.9100   -2.2760   21.7540 H   0  0  0  0  0  0  0  0  0  0  0  0
    8.9420   -2.1910   21.6250 H   0  0  0  0  0  0  0  0  0  0  0  0
    8.7340   -3.0890   23.9610 H   0  0  0  0  0  0  0  0  0  0  0  0
    7.7850   -4.0550   22.8090 H   0  0  0  0  0  0  0  0  0  0  0  0
    6.9770   -2.9070   23.8720 H   0  0  0  0  0  0  0  0  0  0  0  0
  1  2  1  0  0  0  0
  1 48  1  0  0  0  0
  1 49  1  0  0  0  0
  1 50  1  0  0  0  0
  2  3  1  0  0  0  0
  2 23  1  0  0  0  0
  2 47  1  6  0  0  0
  3  4  1  0  0  0  0
  3 45  1  0  0  0  0
  3 46  1  0  0  0  0
  4  5  1  0  0  0  0
  4 21  1  0  0  0  0
  5  6  2  0  0  0  0
  5 14  1  0  0  0  0
  6  7  1  0  0  0  0
  6 20  1  0  0  0  0
  7  8  2  0  0  0  0
  8  9  1  0  0  0  0
  8 19  1  0  0  0  0
  9 10  2  0  0  0  0
  9 14  1  0  0  0  0
 10 11  1  0  0  0  0
 10 18  1  0  0  0  0
 11 12  2  0  0  0  0
 11 17  1  0  0  0  0
 12 13  1  0  0  0  0
 12 16  1  0  0  0  0
 13 14  2  0  0  0  0
 13 15  1  0  0  0  0
 21 22  2  0  0  0  0
 23 21  1  6  0  0  0
 23 24  1  0  0  0  0
 23 39  1  0  0  0  0
 24 25  1  0  0  0  0
 24 43  1  0  0  0  0
 24 44  1  0  0  0  0
 25 26  1  0  0  0  0
 25 31  1  0  0  0  0
 26 27  1  0  0  0  0
 26 29  1  0  0  0  0
 26 30  1  0  0  0  0
 27 28  3  0  0  0  0
 31 32  2  0  0  0  0
 31 33  1  0  0  0  0
 33 34  2  0  0  0  0
 33 39  1  0  0  0  0
 34 35  1  0  0  0  0
 34 42  1  0  0  0  0
 35 36  2  0  0  0  0
 35 41  1  0  0  0  0
 36 37  1  0  0  0  0
 36 38  1  0  0  0  0
 38 39  2  0  0  0  0
 38 40  1  0  0  0  0
M  END
>  <MODEL>
       1

$$$$
