output/tmp_first_model_13_14.pdb
 OpenBabel07232600343D

 67 73  0  0  1  0  0  0  0  0999 V2000
    9.6480   -2.0000   21.9670 C   0  0  0  0  0  0  0  0  0  0  0  0
    8.5790   -0.9720   22.3690 C   0  0  1  0  0  0  0  0  0  0  0  0
    8.1500   -0.0840   21.1810 C   0  0  0  0  0  0  0  0  0  0  0  0
    6.8450   -0.5850   20.8000 N   0  0  0  0  0  0  0  0  0  0  0  0
    6.0890    0.0080   19.7610 C   0  0  0  0  0  0  0  0  0  0  0  0
    6.4550   -0.2280   18.4610 C   0  0  0  0  0  0  0  0  0  0  0  0
    5.8070    0.2550   17.3740 N   0  0  0  0  0  0  0  0  0  0  0  0
    4.7710    1.0270   17.6010 C   0  0  0  0  0  0  0  0  0  0  0  0
    4.3080    1.3850   18.8990 C   0  0  0  0  0  0  0  0  0  0  0  0
    3.1940    2.2480   19.0570 C   0  0  0  0  0  0  0  0  0  0  0  0
    2.7950    2.6390   20.3030 C   0  0  0  0  0  0  0  0  0  0  0  0
    3.4950    2.1850   21.4440 C   0  0  0  0  0  0  0  0  0  0  0  0
    4.5670    1.3330   21.3250 C   0  0  0  0  0  0  0  0  0  0  0  0
    4.9910    0.8930   20.0330 C   0  0  0  0  0  0  0  0  0  0  0  0
    5.0910    1.0030   22.2240 H   0  0  0  0  0  0  0  0  0  0  0  0
    3.1740    2.5200   22.4250 H   0  0  0  0  0  0  0  0  0  0  0  0
    1.9520    3.3140   20.4210 H   0  0  0  0  0  0  0  0  0  0  0  0
    2.6910    2.6040   18.1620 H   0  0  0  0  0  0  0  0  0  0  0  0
    4.2390    1.4170   16.7340 H   0  0  0  0  0  0  0  0  0  0  0  0
    7.3160   -0.8660   18.2720 H   0  0  0  0  0  0  0  0  0  0  0  0
    6.2990   -1.4750   21.6940 C   0  0  0  0  0  0  0  0  0  0  0  0
    5.2450   -2.0580   21.5310 O   0  0  0  0  0  0  0  0  0  0  0  0
    7.2510   -1.5730   22.9060 C   0  0  1  0  0  0  0  0  0  0  0  0
    7.4090   -3.0470   23.3270 C   0  0  0  0  0  0  0  0  0  0  0  0
    6.2090   -3.6020   23.9360 N   0  0  0  0  0  0  0  0  0  0  0  0
    5.7820   -4.9110   23.4590 C   0  0  0  0  0  0  0  0  0  0  0  0
    6.8400   -6.0000   23.6610 C   0  0  0  0  0  0  0  0  0  0  0  0
    6.9850   -6.4750   25.0670 N   0  3  2  0  0  0  0  0  0  0  0  0
    5.7990   -7.2820   25.6070 C   0  0  0  0  0  0  0  0  0  0  0  0
    5.7130   -6.7600   27.0490 C   0  0  2  0  0  0  0  0  0  0  0  0
    5.8700   -5.2700   26.8160 C   0  0  0  0  0  0  0  0  0  0  0  0
    7.2400   -5.4480   26.1870 C   0  0  1  0  0  0  0  0  0  0  0  0
    7.9210   -6.1940   27.3200 C   0  0  0  0  0  0  0  0  0  0  0  0
    6.9020   -7.1130   27.7720 O   0  0  0  0  0  0  0  0  0  0  0  0
    8.8300   -6.7080   26.9830 H   0  0  0  0  0  0  0  0  0  0  0  0
    8.1730   -5.5200   28.1480 H   0  0  0  0  0  0  0  0  0  0  0  0
    7.7630   -4.5780   25.8170 H   0  0  0  0  0  0  0  0  0  0  0  0
    5.0960   -4.9010   26.1520 H   0  0  0  0  0  0  0  0  0  0  0  0
    5.9300   -4.6740   27.7250 H   0  0  0  0  0  0  0  0  0  0  0  0
    4.8220   -7.0900   27.5790 H   0  0  0  0  0  0  0  0  0  0  0  0
    4.9050   -7.0140   25.0370 H   0  0  0  0  0  0  0  0  0  0  0  0
    6.0120   -8.3470   25.5110 H   0  0  0  0  0  0  0  0  0  0  0  0
    7.8300   -7.0790   25.0540 H   0  0  0  0  0  0  0  0  0  0  0  0
    6.6030   -6.8630   23.0250 H   0  0  0  0  0  0  0  0  0  0  0  0
    7.8220   -5.6370   23.3290 H   0  0  0  0  0  0  0  0  0  0  0  0
    4.8540   -5.1670   23.9710 H   0  0  0  0  0  0  0  0  0  0  0  0
    5.5470   -4.8350   22.3890 H   0  0  0  0  0  0  0  0  0  0  0  0
    5.3710   -2.8440   24.7060 C   0  0  0  0  0  0  0  0  0  0  0  0
    4.3220   -3.2660   25.1860 O   0  0  0  0  0  0  0  0  0  0  0  0
    5.7960   -1.4310   24.9630 C   0  0  0  0  0  0  0  0  0  0  0  0
    5.2430   -0.7580   26.0540 C   0  0  0  0  0  0  0  0  0  0  0  0
    5.5540    0.5650   26.2960 C   0  0  0  0  0  0  0  0  0  0  0  0
    6.4210    1.2130   25.4180 C   0  0  0  0  0  0  0  0  0  0  0  0
    6.8270    2.8850   25.7060 Cl  0  0  0  0  0  0  0  0  0  0  0  0
    6.9830    0.5540   24.3340 C   0  0  0  0  0  0  0  0  0  0  0  0
    6.6870   -0.7940   24.0950 C   0  0  0  0  0  0  0  0  0  0  0  0
    7.6710    1.1090   23.7050 H   0  0  0  0  0  0  0  0  0  0  0  0
    5.1360    1.0890   27.1510 H   0  0  0  0  0  0  0  0  0  0  0  0
    4.5700   -1.3070   26.7060 H   0  0  0  0  0  0  0  0  0  0  0  0
    8.2560   -3.1160   24.0270 H   0  0  0  0  0  0  0  0  0  0  0  0
    7.6480   -3.6330   22.4330 H   0  0  0  0  0  0  0  0  0  0  0  0
    8.0930    0.9780   21.4610 H   0  0  0  0  0  0  0  0  0  0  0  0
    8.8520   -0.1580   20.3480 H   0  0  0  0  0  0  0  0  0  0  0  0
    9.0290   -0.3670   23.1610 H   0  0  0  0  0  0  0  0  0  0  0  0
    9.8180   -2.7310   22.7620 H   0  0  0  0  0  0  0  0  0  0  0  0
   10.6110   -1.5080   21.8110 H   0  0  0  0  0  0  0  0  0  0  0  0
    9.3620   -2.5380   21.0540 H   0  0  0  0  0  0  0  0  0  0  0  0
  1  2  1  0  0  0  0
  1 65  1  0  0  0  0
  1 66  1  0  0  0  0
  1 67  1  0  0  0  0
  2  3  1  0  0  0  0
  2 23  1  0  0  0  0
  2 64  1  1  0  0  0
  3  4  1  0  0  0  0
  3 62  1  0  0  0  0
  3 63  1  0  0  0  0
  4  5  1  0  0  0  0
  4 21  1  0  0  0  0
  5  6  2  0  0  0  0
  5 14  1  0  0  0  0
  6  7  1  0  0  0  0
  6 20  1  0  0  0  0
  7  8  2  0  0  0  0
  8  9  1  0  0  0  0
  8 19  1  0  0  0  0
  9 10  2  0  0  0  0
  9 14  1  0  0  0  0
 10 11  1  0  0  0  0
 10 18  1  0  0  0  0
 11 12  2  0  0  0  0
 11 17  1  0  0  0  0
 12 13  1  0  0  0  0
 12 16  1  0  0  0  0
 13 14  2  0  0  0  0
 13 15  1  0  0  0  0
 21 22  2  0  0  0  0
 23 21  1  6  0  0  0
 23 24  1  0  0  0  0
 23 56  1  0  0  0  0
 24 25  1  0  0  0  0
 24 60  1  0  0  0  0
 24 61  1  0  0  0  0
 25 26  1  0  0  0  0
 25 48  1  0  0  0  0
 26 27  1  0  0  0  0
 26 46  1  0  0  0  0
 26 47  1  0  0  0  0
 27 28  1  0  0  0  0
 27 44  1  0  0  0  0
 27 45  1  0  0  0  0
 28 29  1  0  0  0  0
 28 32  1  0  0  0  0
 28 43  1  1  0  0  0
 29 30  1  0  0  0  0
 29 41  1  0  0  0  0
 29 42  1  0  0  0  0
 30 31  1  0  0  0  0
 30 34  1  0  0  0  0
 30 40  1  1  0  0  0
 31 32  1  0  0  0  0
 31 38  1  0  0  0  0
 31 39  1  0  0  0  0
 32 33  1  0  0  0  0
 32 37  1  6  0  0  0
 33 34  1  0  0  0  0
 33 35  1  0  0  0  0
 33 36  1  0  0  0  0
 48 49  2  0  0  0  0
 48 50  1  0  0  0  0
 50 51  2  0  0  0  0
 50 56  1  0  0  0  0
 51 52  1  0  0  0  0
 51 59  1  0  0  0  0
 52 53  2  0  0  0  0
 52 58  1  0  0  0  0
 53 54  1  0  0  0  0
 53 55  1  0  0  0  0
 55 56  2  0  0  0  0
 55 57  1  0  0  0  0
M  CHG  1  28   1
M  END
>  <MODEL>
       1

$$$$
