output/tmp_first_model_15_56.pdb
 OpenBabel07232601353D

 41 43  0  0  1  0  0  0  0  0999 V2000
    8.3900    1.4750   20.6700 O   0  0  0  0  0  0  0  0  0  0  0  0
    7.9660    0.6270   21.4260 C   0  0  0  0  0  0  0  0  0  0  0  0
    6.9670   -0.4300   20.9090 C   0  0  0  0  0  0  0  0  0  0  0  0
    6.1120    0.0850   19.7720 C   0  0  0  0  0  0  0  0  0  0  0  0
    6.4260   -0.2080   18.4670 C   0  0  0  0  0  0  0  0  0  0  0  0
    5.7580    0.2410   17.3730 N   0  0  0  0  0  0  0  0  0  0  0  0
    4.7320    1.0310   17.5770 C   0  0  0  0  0  0  0  0  0  0  0  0
    4.2850    1.4230   18.8690 C   0  0  0  0  0  0  0  0  0  0  0  0
    3.1680    2.2790   19.0440 C   0  0  0  0  0  0  0  0  0  0  0  0
    2.7660    2.6480   20.3000 C   0  0  0  0  0  0  0  0  0  0  0  0
    3.4650    2.1700   21.4300 C   0  0  0  0  0  0  0  0  0  0  0  0
    4.5510    1.3380   21.2890 C   0  0  0  0  0  0  0  0  0  0  0  0
    4.9920    0.9400   19.9980 C   0  0  0  0  0  0  0  0  0  0  0  0
    5.0750    0.9850   22.1730 H   0  0  0  0  0  0  0  0  0  0  0  0
    3.1350    2.4660   22.4210 H   0  0  0  0  0  0  0  0  0  0  0  0
    1.9160    3.3120   20.4340 H   0  0  0  0  0  0  0  0  0  0  0  0
    2.6490    2.6510   18.1640 H   0  0  0  0  0  0  0  0  0  0  0  0
    4.2000    1.3990   16.6980 H   0  0  0  0  0  0  0  0  0  0  0  0
    7.2730   -0.8530   18.2430 H   0  0  0  0  0  0  0  0  0  0  0  0
    6.3330   -0.8100   21.7230 H   0  0  0  0  0  0  0  0  0  0  0  0
    7.5520   -1.2860   20.5420 H   0  0  0  0  0  0  0  0  0  0  0  0
    8.3510    0.5370   22.7720 N   0  0  0  0  0  0  0  0  0  0  0  0
    8.7800   -0.7580   23.3040 C   0  0  0  0  0  0  0  0  0  0  0  0
   10.0260   -1.3670   22.6260 C   0  0  0  0  0  0  0  0  0  0  0  0
   11.0890   -0.3450   22.2220 C   0  0  0  0  0  0  0  0  0  0  0  0
   11.5090    0.8820   23.4910 S   0  0  0  0  0  0  0  0  0  0  0  0
   10.2800    2.1490   23.0880 C   0  0  0  0  0  0  0  0  0  0  0  0
    8.8600    1.7240   23.4600 C   0  0  1  0  0  0  0  0  0  0  0  0
    7.8730    2.8890   23.3740 C   0  0  0  0  0  0  0  0  0  0  0  0
    8.1700    3.8180   24.3130 F   0  0  0  0  0  0  0  0  0  0  0  0
    6.6210    2.4730   23.6210 F   0  0  0  0  0  0  0  0  0  0  0  0
    7.8740    3.5130   22.1970 F   0  0  0  0  0  0  0  0  0  0  0  0
    8.8740    1.4770   24.5240 H   0  0  0  0  0  0  0  0  0  0  0  0
   10.5730    3.0520   23.6390 H   0  0  0  0  0  0  0  0  0  0  0  0
   10.3420    2.3620   22.0210 H   0  0  0  0  0  0  0  0  0  0  0  0
   10.7660    0.2130   21.3410 H   0  0  0  0  0  0  0  0  0  0  0  0
   12.0200   -0.8550   21.9510 H   0  0  0  0  0  0  0  0  0  0  0  0
   10.4780   -2.1010   23.3030 H   0  0  0  0  0  0  0  0  0  0  0  0
    9.7280   -1.9220   21.7250 H   0  0  0  0  0  0  0  0  0  0  0  0
    7.9460   -1.4600   23.2320 H   0  0  0  0  0  0  0  0  0  0  0  0
    8.9820   -0.6300   24.3710 H   0  0  0  0  0  0  0  0  0  0  0  0
  1  2  2  0  0  0  0
  2  3  1  0  0  0  0
  2 22  1  0  0  0  0
  3  4  1  0  0  0  0
  3 20  1  0  0  0  0
  3 21  1  0  0  0  0
  4  5  2  0  0  0  0
  4 13  1  0  0  0  0
  5  6  1  0  0  0  0
  5 19  1  0  0  0  0
  6  7  2  0  0  0  0
  7  8  1  0  0  0  0
  7 18  1  0  0  0  0
  8  9  2  0  0  0  0
  8 13  1  0  0  0  0
  9 10  1  0  0  0  0
  9 17  1  0  0  0  0
 10 11  2  0  0  0  0
 10 16  1  0  0  0  0
 11 12  1  0  0  0  0
 11 15  1  0  0  0  0
 12 13  2  0  0  0  0
 12 14  1  0  0  0  0
 22 23  1  0  0  0  0
 22 28  1  0  0  0  0
 23 24  1  0  0  0  0
 23 40  1  0  0  0  0
 23 41  1  0  0  0  0
 24 25  1  0  0  0  0
 24 38  1  0  0  0  0
 24 39  1  0  0  0  0
 25 26  1  0  0  0  0
 25 36  1  0  0  0  0
 25 37  1  0  0  0  0
 26 27  1  0  0  0  0
 27 28  1  0  0  0  0
 27 34  1  0  0  0  0
 27 35  1  0  0  0  0
 28 29  1  0  0  0  0
 28 33  1  1  0  0  0
 29 30  1  0  0  0  0
 29 31  1  0  0  0  0
 29 32  1  0  0  0  0
M  END
>  <MODEL>
       1

$$$$
