output/tmp_first_model_14_32.pdb
 OpenBabel07232601073D

 72 77  0  0  1  0  0  0  0  0999 V2000
    7.8800   -3.0420   23.2250 C   0  0  0  0  0  0  0  0  0  0  0  0
    8.1110   -1.9060   22.2320 C   0  0  1  0  0  0  0  0  0  0  0  0
    6.9370   -1.7400   21.2620 C   0  0  0  0  0  0  0  0  0  0  0  0
    7.0160   -0.3490   20.8670 N   0  0  0  0  0  0  0  0  0  0  0  0
    6.2150    0.1600   19.8080 C   0  0  0  0  0  0  0  0  0  0  0  0
    6.4890   -0.2190   18.5160 C   0  0  0  0  0  0  0  0  0  0  0  0
    5.8120    0.2000   17.4180 N   0  0  0  0  0  0  0  0  0  0  0  0
    4.7970    1.0060   17.6160 C   0  0  0  0  0  0  0  0  0  0  0  0
    4.3510    1.4260   18.9010 C   0  0  0  0  0  0  0  0  0  0  0  0
    3.2140    2.2650   19.0480 C   0  0  0  0  0  0  0  0  0  0  0  0
    2.7620    2.6050   20.2920 C   0  0  0  0  0  0  0  0  0  0  0  0
    3.4240    2.1200   21.4420 C   0  0  0  0  0  0  0  0  0  0  0  0
    4.5390    1.3250   21.3250 C   0  0  0  0  0  0  0  0  0  0  0  0
    5.0500    0.9710   20.0440 C   0  0  0  0  0  0  0  0  0  0  0  0
    5.0330    0.9600   22.2190 H   0  0  0  0  0  0  0  0  0  0  0  0
    3.0490    2.3860   22.4250 H   0  0  0  0  0  0  0  0  0  0  0  0
    1.8960    3.2480   20.4030 H   0  0  0  0  0  0  0  0  0  0  0  0
    2.7220    2.6290   18.1490 H   0  0  0  0  0  0  0  0  0  0  0  0
    4.2610    1.3510   16.7340 H   0  0  0  0  0  0  0  0  0  0  0  0
    7.3250   -0.8900   18.3280 H   0  0  0  0  0  0  0  0  0  0  0  0
    7.8120    0.4240   21.6960 C   0  0  0  0  0  0  0  0  0  0  0  0
    8.0050    1.6090   21.5300 O   0  0  0  0  0  0  0  0  0  0  0  0
    8.3130   -0.4720   22.8620 C   0  0  1  0  0  0  0  0  0  0  0  0
    7.3220   -0.2350   24.0490 C   0  0  0  0  0  0  0  0  0  0  0  0
    7.8500   -1.0190   25.2540 N   0  0  0  0  0  0  0  0  0  0  0  0
    6.9500   -1.3730   26.4150 C   0  0  0  0  0  0  0  0  0  0  0  0
    6.7800   -0.1690   27.3240 C   0  0  0  0  0  0  0  0  0  0  0  0
    6.1600   -0.5670   28.6130 N   0  3  1  0  0  0  0  0  0  0  0  0
    6.0810    0.5590   29.5990 C   0  0  0  0  0  0  0  0  0  0  0  0
    5.3850    0.0880   30.8630 C   0  0  0  0  0  0  0  0  0  0  0  0
    4.0920   -0.4130   30.5890 O   0  0  0  0  0  0  0  0  0  0  0  0
    4.0780   -1.5190   29.6810 C   0  0  0  0  0  0  0  0  0  0  0  0
    4.7270   -2.7550   30.3060 C   0  0  0  0  0  0  0  0  0  0  0  0
    4.2760   -2.9710   31.2780 H   0  0  0  0  0  0  0  0  0  0  0  0
    5.8080   -2.6340   30.4400 H   0  0  0  0  0  0  0  0  0  0  0  0
    4.5800   -3.6180   29.6480 H   0  0  0  0  0  0  0  0  0  0  0  0
    2.6120   -1.7720   29.3640 C   0  0  0  0  0  0  0  0  0  0  0  0
    2.1610   -0.8660   28.9450 H   0  0  0  0  0  0  0  0  0  0  0  0
    2.0690   -2.0440   30.2720 H   0  0  0  0  0  0  0  0  0  0  0  0
    2.5110   -2.5820   28.6320 H   0  0  0  0  0  0  0  0  0  0  0  0
    4.7890   -1.1460   28.3800 C   0  0  0  0  0  0  0  0  0  0  0  0
    4.2050   -0.4010   27.8290 H   0  0  0  0  0  0  0  0  0  0  0  0
    4.8800   -2.0400   27.7600 H   0  0  0  0  0  0  0  0  0  0  0  0
    5.2500    0.9200   31.5590 H   0  0  0  0  0  0  0  0  0  0  0  0
    6.0080   -0.6710   31.3570 H   0  0  0  0  0  0  0  0  0  0  0  0
    7.0910    0.9170   29.8160 H   0  0  0  0  0  0  0  0  0  0  0  0
    5.5170    1.3750   29.1390 H   0  0  0  0  0  0  0  0  0  0  0  0
    6.7860   -1.2910   29.0230 H   0  0  0  0  0  0  0  0  0  0  0  0
    6.1540    0.5950   26.8430 H   0  0  0  0  0  0  0  0  0  0  0  0
    7.7680    0.2590   27.4990 H   0  0  0  0  0  0  0  0  0  0  0  0
    6.0170   -1.7440   25.9940 H   0  0  0  0  0  0  0  0  0  0  0  0
    7.4700   -2.1820   26.9350 H   0  0  0  0  0  0  0  0  0  0  0  0
    9.3090   -0.7720   25.4940 C   0  0  0  0  0  0  0  0  0  0  0  0
    9.4320   -0.7410   25.4870 O   0  0  0  0  0  0  0  0  0  0  0  0
   10.3020   -0.1900   24.5790 C   0  0  0  0  0  0  0  0  0  0  0  0
   11.5990    0.3970   24.7830 C   0  0  0  0  0  0  0  0  0  0  0  0
   12.4640    0.5810   23.7430 C   0  0  0  0  0  0  0  0  0  0  0  0
   12.0510    0.2460   22.4620 C   0  0  0  0  0  0  0  0  0  0  0  0
   13.3230    0.1950   21.3090 Cl  0  0  0  0  0  0  0  0  0  0  0  0
   10.7260   -0.0760   22.2060 C   0  0  0  0  0  0  0  0  0  0  0  0
    9.8020   -0.2170   23.2630 C   0  0  0  0  0  0  0  0  0  0  0  0
   10.3980   -0.2210   21.1850 H   0  0  0  0  0  0  0  0  0  0  0  0
   13.4810    0.8920   23.9490 H   0  0  0  0  0  0  0  0  0  0  0  0
   12.0530    0.6650   25.7300 H   0  0  0  0  0  0  0  0  0  0  0  0
    7.2850    0.8330   24.3040 H   0  0  0  0  0  0  0  0  0  0  0  0
    6.3200   -0.6050   23.8070 H   0  0  0  0  0  0  0  0  0  0  0  0
    6.9920   -2.3840   20.3840 H   0  0  0  0  0  0  0  0  0  0  0  0
    5.9820   -1.9520   21.7670 H   0  0  0  0  0  0  0  0  0  0  0  0
    9.0190   -2.1130   21.6480 H   0  0  0  0  0  0  0  0  0  0  0  0
    8.5970   -3.0010   24.0530 H   0  0  0  0  0  0  0  0  0  0  0  0
    6.8880   -2.9460   23.6770 H   0  0  0  0  0  0  0  0  0  0  0  0
    7.9240   -4.0190   22.7350 H   0  0  0  0  0  0  0  0  0  0  0  0
  1  2  1  0  0  0  0
  1 70  1  0  0  0  0
  1 71  1  0  0  0  0
  1 72  1  0  0  0  0
  2  3  1  0  0  0  0
  2 23  1  0  0  0  0
  2 69  1  6  0  0  0
  3  4  1  0  0  0  0
  3 67  1  0  0  0  0
  3 68  1  0  0  0  0
  4  5  1  0  0  0  0
  4 21  1  0  0  0  0
  5  6  2  0  0  0  0
  5 14  1  0  0  0  0
  6  7  1  0  0  0  0
  6 20  1  0  0  0  0
  7  8  2  0  0  0  0
  8  9  1  0  0  0  0
  8 19  1  0  0  0  0
  9 10  2  0  0  0  0
  9 14  1  0  0  0  0
 10 11  1  0  0  0  0
 10 18  1  0  0  0  0
 11 12  2  0  0  0  0
 11 17  1  0  0  0  0
 12 13  1  0  0  0  0
 12 16  1  0  0  0  0
 13 14  2  0  0  0  0
 13 15  1  0  0  0  0
 21 22  2  0  0  0  0
 23 21  1  6  0  0  0
 23 24  1  0  0  0  0
 23 61  1  0  0  0  0
 24 25  1  0  0  0  0
 24 65  1  0  0  0  0
 24 66  1  0  0  0  0
 25 26  1  0  0  0  0
 25 53  1  0  0  0  0
 26 27  1  0  0  0  0
 26 51  1  0  0  0  0
 26 52  1  0  0  0  0
 27 28  1  0  0  0  0
 27 49  1  0  0  0  0
 27 50  1  0  0  0  0
 28 29  1  0  0  0  0
 28 41  1  0  0  0  0
 28 48  1  1  0  0  0
 29 30  1  0  0  0  0
 29 46  1  0  0  0  0
 29 47  1  0  0  0  0
 30 31  1  0  0  0  0
 30 44  1  0  0  0  0
 30 45  1  0  0  0  0
 31 32  1  0  0  0  0
 32 33  1  0  0  0  0
 32 37  1  0  0  0  0
 32 41  1  0  0  0  0
 33 34  1  0  0  0  0
 33 35  1  0  0  0  0
 33 36  1  0  0  0  0
 37 38  1  0  0  0  0
 37 39  1  0  0  0  0
 37 40  1  0  0  0  0
 41 42  1  0  0  0  0
 41 43  1  0  0  0  0
 53 54  2  0  0  0  0
 53 55  1  0  0  0  0
 55 56  2  0  0  0  0
 55 61  1  0  0  0  0
 56 57  1  0  0  0  0
 56 64  1  0  0  0  0
 57 58  2  0  0  0  0
 57 63  1  0  0  0  0
 58 59  1  0  0  0  0
 58 60  1  0  0  0  0
 60 61  2  0  0  0  0
 60 62  1  0  0  0  0
M  CHG  1  28   1
M  END
>  <MODEL>
       1

$$$$
