output/tmp_first_model_11_87.pdb
 OpenBabel07222623443D

 63 68  0  0  1  0  0  0  0  0999 V2000
    6.7350    4.3590   21.2320 C   0  0  0  0  0  0  0  0  0  0  0  0
    7.6960    3.9940   22.2660 N   0  0  0  0  0  0  0  0  0  0  0  0
    7.1730    3.3520   23.3440 C   0  0  0  0  0  0  0  0  0  0  0  0
    5.9630    3.2280   23.4730 O   0  0  0  0  0  0  0  0  0  0  0  0
    8.1230    2.8020   24.4070 C   0  0  0  0  0  0  0  0  0  0  0  0
    8.8060    1.6080   23.9780 N   0  0  0  0  0  0  0  0  0  0  0  0
    8.0670    0.3610   23.8660 C   0  0  0  0  0  0  0  0  0  0  0  0
    8.4680   -0.4340   22.6060 C   0  0  2  0  0  0  0  0  0  0  0  0
    7.9790    0.2740   21.3230 C   0  0  0  0  0  0  0  0  0  0  0  0
    8.4460    1.2680   20.8050 O   0  0  0  0  0  0  0  0  0  0  0  0
    6.9030   -0.4240   20.8330 N   0  0  0  0  0  0  0  0  0  0  0  0
    6.1270    0.0940   19.7670 C   0  0  0  0  0  0  0  0  0  0  0  0
    6.4580   -0.2150   18.4740 C   0  0  0  0  0  0  0  0  0  0  0  0
    5.7770    0.2290   17.3910 N   0  0  0  0  0  0  0  0  0  0  0  0
    4.7480    1.0120   17.5970 C   0  0  0  0  0  0  0  0  0  0  0  0
    4.2930    1.4070   18.8870 C   0  0  0  0  0  0  0  0  0  0  0  0
    3.1730    2.2600   19.0680 C   0  0  0  0  0  0  0  0  0  0  0  0
    2.7720    2.6330   20.3220 C   0  0  0  0  0  0  0  0  0  0  0  0
    3.4690    2.1650   21.4590 C   0  0  0  0  0  0  0  0  0  0  0  0
    4.5550    1.3340   21.3110 C   0  0  0  0  0  0  0  0  0  0  0  0
    4.9990    0.9340   20.0190 C   0  0  0  0  0  0  0  0  0  0  0  0
    5.1000    1.0050   22.1910 H   0  0  0  0  0  0  0  0  0  0  0  0
    3.1670    2.4800   22.4530 H   0  0  0  0  0  0  0  0  0  0  0  0
    1.9240    3.3020   20.4470 H   0  0  0  0  0  0  0  0  0  0  0  0
    2.6610    2.6290   18.1830 H   0  0  0  0  0  0  0  0  0  0  0  0
    4.2100    1.3730   16.7190 H   0  0  0  0  0  0  0  0  0  0  0  0
    7.3160   -0.8530   18.2710 H   0  0  0  0  0  0  0  0  0  0  0  0
    6.5380   -1.5890   21.6080 C   0  0  0  0  0  0  0  0  0  0  0  0
    7.7610   -1.8190   22.5030 C   0  0  2  0  0  0  0  0  0  0  0  0
    7.4030   -2.5190   23.8210 C   0  0  0  0  0  0  0  0  0  0  0  0
    6.8450   -3.8400   23.6220 N   0  0  0  0  0  0  0  0  0  0  0  0
    5.5350   -4.1640   23.5260 C   0  0  0  0  0  0  0  0  0  0  0  0
    5.4750   -5.5150   23.2580 C   0  0  0  0  0  0  0  0  0  0  0  0
    6.8310   -5.9090   23.2080 C   0  0  0  0  0  0  0  0  0  0  0  0
    7.6510   -4.8880   23.4200 N   0  0  0  0  0  0  0  0  0  0  0  0
    7.2530   -6.8910   23.0190 H   0  0  0  0  0  0  0  0  0  0  0  0
    4.5900   -6.1260   23.1240 H   0  0  0  0  0  0  0  0  0  0  0  0
    4.7680   -3.4090   23.6660 H   0  0  0  0  0  0  0  0  0  0  0  0
    8.2820   -2.6430   24.4570 H   0  0  0  0  0  0  0  0  0  0  0  0
    6.6600   -1.9290   24.3600 H   0  0  0  0  0  0  0  0  0  0  0  0
    8.4450   -2.4890   21.9820 H   0  0  0  0  0  0  0  0  0  0  0  0
    5.6400   -1.4080   22.2190 H   0  0  0  0  0  0  0  0  0  0  0  0
    6.3270   -2.4390   20.9540 H   0  0  0  0  0  0  0  0  0  0  0  0
    9.9720   -0.4860   22.5740 C   0  0  0  0  0  0  0  0  0  0  0  0
   10.5980   -1.3900   21.7200 C   0  0  0  0  0  0  0  0  0  0  0  0
   11.9690   -1.4020   21.6040 C   0  0  0  0  0  0  0  0  0  0  0  0
   12.5880   -2.5330   20.4170 Cl  0  0  0  0  0  0  0  0  0  0  0  0
   12.7540   -0.5210   22.3660 C   0  0  0  0  0  0  0  0  0  0  0  0
   12.1440    0.4150   23.1620 C   0  0  0  0  0  0  0  0  0  0  0  0
   10.7620    0.4650   23.2260 C   0  0  0  0  0  0  0  0  0  0  0  0
   10.1640    1.6450   23.8920 C   0  0  0  0  0  0  0  0  0  0  0  0
   10.8390    2.5870   24.2920 O   0  0  0  0  0  0  0  0  0  0  0  0
   12.7160    1.1550   23.7140 H   0  0  0  0  0  0  0  0  0  0  0  0
   13.8300   -0.4530   22.3090 H   0  0  0  0  0  0  0  0  0  0  0  0
   10.0270   -2.0760   21.1040 H   0  0  0  0  0  0  0  0  0  0  0  0
    7.0030    0.6050   23.8410 H   0  0  0  0  0  0  0  0  0  0  0  0
    8.2690   -0.2650   24.7440 H   0  0  0  0  0  0  0  0  0  0  0  0
    8.9030    3.5240   24.6700 H   0  0  0  0  0  0  0  0  0  0  0  0
    7.4780    2.5930   25.2650 H   0  0  0  0  0  0  0  0  0  0  0  0
    8.6720    3.8940   22.0150 H   0  0  0  0  0  0  0  0  0  0  0  0
    6.0130    5.0700   21.6480 H   0  0  0  0  0  0  0  0  0  0  0  0
    7.2300    4.8240   20.3940 H   0  0  0  0  0  0  0  0  0  0  0  0
    6.1850    3.4640   20.9010 H   0  0  0  0  0  0  0  0  0  0  0  0
  1  2  1  0  0  0  0
  1 61  1  0  0  0  0
  1 62  1  0  0  0  0
  1 63  1  0  0  0  0
  2  3  1  0  0  0  0
  2 60  1  0  0  0  0
  3  4  2  0  0  0  0
  3  5  1  0  0  0  0
  5  6  1  0  0  0  0
  5 58  1  0  0  0  0
  5 59  1  0  0  0  0
  6  7  1  0  0  0  0
  6 51  1  0  0  0  0
  7  8  1  0  0  0  0
  7 56  1  0  0  0  0
  7 57  1  0  0  0  0
  8  9  1  6  0  0  0
  8 29  1  0  0  0  0
  8 44  1  0  0  0  0
  9 10  2  0  0  0  0
  9 11  1  0  0  0  0
 11 12  1  0  0  0  0
 11 28  1  0  0  0  0
 12 13  2  0  0  0  0
 12 21  1  0  0  0  0
 13 14  1  0  0  0  0
 13 27  1  0  0  0  0
 14 15  2  0  0  0  0
 15 16  1  0  0  0  0
 15 26  1  0  0  0  0
 16 17  2  0  0  0  0
 16 21  1  0  0  0  0
 17 18  1  0  0  0  0
 17 25  1  0  0  0  0
 18 19  2  0  0  0  0
 18 24  1  0  0  0  0
 19 20  1  0  0  0  0
 19 23  1  0  0  0  0
 20 21  2  0  0  0  0
 20 22  1  0  0  0  0
 28 29  1  0  0  0  0
 28 42  1  0  0  0  0
 28 43  1  0  0  0  0
 29 30  1  0  0  0  0
 29 41  1  6  0  0  0
 30 31  1  0  0  0  0
 30 39  1  0  0  0  0
 30 40  1  0  0  0  0
 31 32  1  0  0  0  0
 31 35  1  0  0  0  0
 32 33  2  0  0  0  0
 32 38  1  0  0  0  0
 33 34  1  0  0  0  0
 33 37  1  0  0  0  0
 34 35  2  0  0  0  0
 34 36  1  0  0  0  0
 44 45  2  0  0  0  0
 44 50  1  0  0  0  0
 45 46  1  0  0  0  0
 45 55  1  0  0  0  0
 46 47  1  0  0  0  0
 46 48  2  0  0  0  0
 48 49  1  0  0  0  0
 48 54  1  0  0  0  0
 49 50  2  0  0  0  0
 49 53  1  0  0  0  0
 50 51  1  0  0  0  0
 51 52  2  0  0  0  0
M  END
>  <MODEL>
       1

$$$$
