output/tmp_first_model_6_86.pdb
 OpenBabel07222621163D

 65 70  0  0  1  0  0  0  0  0999 V2000
    2.6040   -5.4790   22.6650 C   0  0  0  0  0  0  0  0  0  0  0  0
    3.8300   -5.4080   23.4420 N   0  0  0  0  0  0  0  0  0  0  0  0
    5.0370   -5.3440   22.8120 C   0  0  0  0  0  0  0  0  0  0  0  0
    5.1770   -5.4340   21.6010 O   0  0  0  0  0  0  0  0  0  0  0  0
    6.2360   -5.1240   23.7500 C   0  0  0  0  0  0  0  0  0  0  0  0
    6.4830   -3.7060   23.9630 N   0  0  0  0  0  0  0  0  0  0  0  0
    7.5680   -3.0950   23.2130 C   0  0  0  0  0  0  0  0  0  0  0  0
    7.3570   -1.5920   22.8930 C   0  0  2  0  0  0  0  0  0  0  0  0
    6.3550   -1.4240   21.7290 C   0  0  0  0  0  0  0  0  0  0  0  0
    5.2820   -1.9770   21.5930 O   0  0  0  0  0  0  0  0  0  0  0  0
    6.8690   -0.5060   20.8430 N   0  0  0  0  0  0  0  0  0  0  0  0
    6.1100    0.0430   19.7800 C   0  0  0  0  0  0  0  0  0  0  0  0
    6.4670   -0.2230   18.4820 C   0  0  0  0  0  0  0  0  0  0  0  0
    5.8130    0.2400   17.3890 N   0  0  0  0  0  0  0  0  0  0  0  0
    4.7780    1.0180   17.6000 C   0  0  0  0  0  0  0  0  0  0  0  0
    4.3170    1.4010   18.8920 C   0  0  0  0  0  0  0  0  0  0  0  0
    3.2020    2.2640   19.0500 C   0  0  0  0  0  0  0  0  0  0  0  0
    2.7990    2.6500   20.2970 C   0  0  0  0  0  0  0  0  0  0  0  0
    3.4970    2.1980   21.4410 C   0  0  0  0  0  0  0  0  0  0  0  0
    4.5780    1.3600   21.3200 C   0  0  0  0  0  0  0  0  0  0  0  0
    5.0030    0.9200   20.0300 C   0  0  0  0  0  0  0  0  0  0  0  0
    5.1140    1.0350   22.2140 H   0  0  0  0  0  0  0  0  0  0  0  0
    3.1730    2.5250   22.4240 H   0  0  0  0  0  0  0  0  0  0  0  0
    1.9470    3.3130   20.4180 H   0  0  0  0  0  0  0  0  0  0  0  0
    2.6940    2.6200   18.1560 H   0  0  0  0  0  0  0  0  0  0  0  0
    4.2500    1.3900   16.7220 H   0  0  0  0  0  0  0  0  0  0  0  0
    7.3230   -0.8680   18.2870 H   0  0  0  0  0  0  0  0  0  0  0  0
    8.1940   -0.0310   21.1670 C   0  0  0  0  0  0  0  0  0  0  0  0
    8.6480   -0.9160   22.3420 C   0  0  2  0  0  0  0  0  0  0  0  0
    9.7690   -1.8770   21.8830 C   0  0  0  0  0  0  0  0  0  0  0  0
   10.9320   -1.1500   21.4140 N   0  0  0  0  0  0  0  0  0  0  0  0
   11.8110   -0.5770   22.2610 C   0  0  0  0  0  0  0  0  0  0  0  0
   12.8310    0.1210   21.7180 N   0  0  0  0  0  0  0  0  0  0  0  0
   13.6760    0.6060   22.6080 C   0  0  0  0  0  0  0  0  0  0  0  0
   13.5940    0.4990   23.9400 N   0  0  0  0  0  0  0  0  0  0  0  0
   12.5280   -0.1830   24.3510 C   0  0  0  0  0  0  0  0  0  0  0  0
   11.5950   -0.7270   23.5850 N   0  0  0  0  0  0  0  0  0  0  0  0
   12.4080   -0.3030   25.4280 H   0  0  0  0  0  0  0  0  0  0  0  0
   14.5300    1.1600   22.2170 H   0  0  0  0  0  0  0  0  0  0  0  0
   11.2070   -1.2040   20.4460 H   0  0  0  0  0  0  0  0  0  0  0  0
    9.4160   -2.5300   21.0780 H   0  0  0  0  0  0  0  0  0  0  0  0
   10.0970   -2.4890   22.7260 H   0  0  0  0  0  0  0  0  0  0  0  0
    9.0980   -0.3110   23.1340 H   0  0  0  0  0  0  0  0  0  0  0  0
    8.1840    1.0380   21.4230 H   0  0  0  0  0  0  0  0  0  0  0  0
    8.8470   -0.1400   20.3030 H   0  0  0  0  0  0  0  0  0  0  0  0
    6.8050   -0.8880   24.1340 C   0  0  0  0  0  0  0  0  0  0  0  0
    6.9780    0.4900   24.3520 C   0  0  0  0  0  0  0  0  0  0  0  0
    6.4380    1.0930   25.4800 C   0  0  0  0  0  0  0  0  0  0  0  0
    6.6950    2.8000   25.7560 Cl  0  0  0  0  0  0  0  0  0  0  0  0
    5.6980    0.3670   26.4110 C   0  0  0  0  0  0  0  0  0  0  0  0
    5.4830   -0.9740   26.1740 C   0  0  0  0  0  0  0  0  0  0  0  0
    6.0210   -1.5990   25.0510 C   0  0  0  0  0  0  0  0  0  0  0  0
    5.7130   -3.0490   24.8650 C   0  0  0  0  0  0  0  0  0  0  0  0
    4.8020   -3.6140   25.4790 O   0  0  0  0  0  0  0  0  0  0  0  0
    4.8880   -1.5760   26.8510 H   0  0  0  0  0  0  0  0  0  0  0  0
    5.3000    0.8600   27.2930 H   0  0  0  0  0  0  0  0  0  0  0  0
    7.5350    1.1230   23.6640 H   0  0  0  0  0  0  0  0  0  0  0  0
    8.5070   -3.2160   23.7700 H   0  0  0  0  0  0  0  0  0  0  0  0
    7.6480   -3.6500   22.2750 H   0  0  0  0  0  0  0  0  0  0  0  0
    7.1220   -5.5610   23.2860 H   0  0  0  0  0  0  0  0  0  0  0  0
    6.1040   -5.6150   24.7200 H   0  0  0  0  0  0  0  0  0  0  0  0
    3.7910   -5.0650   24.3970 H   0  0  0  0  0  0  0  0  0  0  0  0
    1.7460   -5.5390   23.3420 H   0  0  0  0  0  0  0  0  0  0  0  0
    2.4990   -4.6060   22.0080 H   0  0  0  0  0  0  0  0  0  0  0  0
    2.5860   -6.3850   22.0510 H   0  0  0  0  0  0  0  0  0  0  0  0
  1  2  1  0  0  0  0
  1 63  1  0  0  0  0
  1 64  1  0  0  0  0
  1 65  1  0  0  0  0
  2  3  1  0  0  0  0
  2 62  1  0  0  0  0
  3  4  2  0  0  0  0
  3  5  1  0  0  0  0
  5  6  1  0  0  0  0
  5 60  1  0  0  0  0
  5 61  1  0  0  0  0
  6  7  1  0  0  0  0
  6 53  1  0  0  0  0
  7  8  1  0  0  0  0
  7 58  1  0  0  0  0
  7 59  1  0  0  0  0
  8  9  1  6  0  0  0
  8 29  1  0  0  0  0
  8 46  1  0  0  0  0
  9 10  2  0  0  0  0
  9 11  1  0  0  0  0
 11 12  1  0  0  0  0
 11 28  1  0  0  0  0
 12 13  2  0  0  0  0
 12 21  1  0  0  0  0
 13 14  1  0  0  0  0
 13 27  1  0  0  0  0
 14 15  2  0  0  0  0
 15 16  1  0  0  0  0
 15 26  1  0  0  0  0
 16 17  2  0  0  0  0
 16 21  1  0  0  0  0
 17 18  1  0  0  0  0
 17 25  1  0  0  0  0
 18 19  2  0  0  0  0
 18 24  1  0  0  0  0
 19 20  1  0  0  0  0
 19 23  1  0  0  0  0
 20 21  2  0  0  0  0
 20 22  1  0  0  0  0
 28 29  1  0  0  0  0
 28 44  1  0  0  0  0
 28 45  1  0  0  0  0
 29 30  1  0  0  0  0
 29 43  1  1  0  0  0
 30 31  1  0  0  0  0
 30 41  1  0  0  0  0
 30 42  1  0  0  0  0
 31 32  1  0  0  0  0
 31 40  1  0  0  0  0
 32 33  2  0  0  0  0
 32 37  1  0  0  0  0
 33 34  1  0  0  0  0
 34 35  2  0  0  0  0
 34 39  1  0  0  0  0
 35 36  1  0  0  0  0
 36 37  2  0  0  0  0
 36 38  1  0  0  0  0
 46 47  2  0  0  0  0
 46 52  1  0  0  0  0
 47 48  1  0  0  0  0
 47 57  1  0  0  0  0
 48 49  1  0  0  0  0
 48 50  2  0  0  0  0
 50 51  1  0  0  0  0
 50 56  1  0  0  0  0
 51 52  2  0  0  0  0
 51 55  1  0  0  0  0
 52 53  1  0  0  0  0
 53 54  2  0  0  0  0
M  END
>  <MODEL>
       1

$$$$
