output/tmp_first_model_6_59.pdb
 OpenBabel07222621163D

 60 65  0  0  1  0  0  0  0  0999 V2000
    7.5000   -5.2900   23.5800 C   0  0  0  0  0  0  0  0  0  0  0  0
    7.7720   -4.2480   22.6770 O   0  0  0  0  0  0  0  0  0  0  0  0
    7.7680   -2.9940   23.3230 C   0  0  0  0  0  0  0  0  0  0  0  0
    8.0150   -1.9180   22.2700 C   0  0  1  0  0  0  0  0  0  0  0  0
    6.8820   -1.8080   21.2350 C   0  0  0  0  0  0  0  0  0  0  0  0
    6.9230   -0.4150   20.8350 N   0  0  0  0  0  0  0  0  0  0  0  0
    6.1410    0.1060   19.7740 C   0  0  0  0  0  0  0  0  0  0  0  0
    6.4460   -0.2290   18.4770 C   0  0  0  0  0  0  0  0  0  0  0  0
    5.7780    0.2220   17.3870 N   0  0  0  0  0  0  0  0  0  0  0  0
    4.7580    1.0200   17.5980 C   0  0  0  0  0  0  0  0  0  0  0  0
    4.3100    1.4150   18.8910 C   0  0  0  0  0  0  0  0  0  0  0  0
    3.1810    2.2630   19.0540 C   0  0  0  0  0  0  0  0  0  0  0  0
    2.7440    2.6050   20.3050 C   0  0  0  0  0  0  0  0  0  0  0  0
    3.4140    2.1120   21.4480 C   0  0  0  0  0  0  0  0  0  0  0  0
    4.5110    1.2990   21.3160 C   0  0  0  0  0  0  0  0  0  0  0  0
    5.0040    0.9420   20.0250 C   0  0  0  0  0  0  0  0  0  0  0  0
    5.0150    0.9300   22.2050 H   0  0  0  0  0  0  0  0  0  0  0  0
    3.0630    2.3880   22.4390 H   0  0  0  0  0  0  0  0  0  0  0  0
    1.8860    3.2620   20.4290 H   0  0  0  0  0  0  0  0  0  0  0  0
    2.6820    2.6330   18.1630 H   0  0  0  0  0  0  0  0  0  0  0  0
    4.2220    1.3860   16.7220 H   0  0  0  0  0  0  0  0  0  0  0  0
    7.2940   -0.8840   18.2750 H   0  0  0  0  0  0  0  0  0  0  0  0
    7.6580    0.3930   21.6720 C   0  0  0  0  0  0  0  0  0  0  0  0
    7.7500    1.5960   21.5370 O   0  0  0  0  0  0  0  0  0  0  0  0
    8.2460   -0.4630   22.7990 C   0  0  1  0  0  0  0  0  0  0  0  0
    7.4340   -0.1110   24.0710 C   0  0  0  0  0  0  0  0  0  0  0  0
    8.0350   -0.5990   25.2970 N   0  0  0  0  0  0  0  0  0  0  0  0
    7.1810   -0.8940   26.4380 C   0  0  0  0  0  0  0  0  0  0  0  0
    6.8530   -2.3540   26.5830 C   0  0  0  0  0  0  0  0  0  0  0  0
    5.6880   -2.9110   26.3290 N   0  0  0  0  0  0  0  0  0  0  0  0
    5.8440   -4.2360   26.6650 C   0  0  0  0  0  0  0  0  0  0  0  0
    7.1180   -4.4860   27.1060 C   0  0  0  0  0  0  0  0  0  0  0  0
    7.7600   -3.2690   27.0180 N   0  0  0  0  0  0  0  0  0  0  0  0
    8.6970   -3.0410   27.3360 H   0  0  0  0  0  0  0  0  0  0  0  0
    7.6130   -5.3920   27.4360 H   0  0  0  0  0  0  0  0  0  0  0  0
    5.0180   -4.9280   26.5430 H   0  0  0  0  0  0  0  0  0  0  0  0
    7.7000   -0.5560   27.3410 H   0  0  0  0  0  0  0  0  0  0  0  0
    6.2450   -0.3390   26.3300 H   0  0  0  0  0  0  0  0  0  0  0  0
    9.3790   -0.6730   25.4640 C   0  0  0  0  0  0  0  0  0  0  0  0
    9.8940   -1.0860   26.4860 O   0  0  0  0  0  0  0  0  0  0  0  0
   10.2290   -0.2630   24.3350 C   0  0  0  0  0  0  0  0  0  0  0  0
   11.5760   -0.0930   24.6230 C   0  0  0  0  0  0  0  0  0  0  0  0
   12.4620    0.1660   23.6110 C   0  0  0  0  0  0  0  0  0  0  0  0
   11.9740    0.1720   22.3050 C   0  0  0  0  0  0  0  0  0  0  0  0
   13.2230    0.2200   21.1050 Cl  0  0  0  0  0  0  0  0  0  0  0  0
   10.6190    0.0500   22.0060 C   0  0  0  0  0  0  0  0  0  0  0  0
    9.7110   -0.1650   23.0520 C   0  0  0  0  0  0  0  0  0  0  0  0
   10.2480    0.0980   20.9880 H   0  0  0  0  0  0  0  0  0  0  0  0
   13.5200    0.3030   23.8090 H   0  0  0  0  0  0  0  0  0  0  0  0
   11.8710   -0.2170   25.6560 H   0  0  0  0  0  0  0  0  0  0  0  0
    6.4300   -0.5450   24.0210 H   0  0  0  0  0  0  0  0  0  0  0  0
    7.3270    0.9810   24.0960 H   0  0  0  0  0  0  0  0  0  0  0  0
    7.0330   -2.4470   20.3650 H   0  0  0  0  0  0  0  0  0  0  0  0
    5.9020   -2.0650   21.6600 H   0  0  0  0  0  0  0  0  0  0  0  0
    8.9300   -2.2070   21.7400 H   0  0  0  0  0  0  0  0  0  0  0  0
    6.8100   -2.8450   23.8470 H   0  0  0  0  0  0  0  0  0  0  0  0
    8.5670   -2.9610   24.0780 H   0  0  0  0  0  0  0  0  0  0  0  0
    8.2180   -5.3040   24.4160 H   0  0  0  0  0  0  0  0  0  0  0  0
    6.4860   -5.2050   23.9970 H   0  0  0  0  0  0  0  0  0  0  0  0
    7.5760   -6.2330   23.0350 H   0  0  0  0  0  0  0  0  0  0  0  0
  1  2  1  0  0  0  0
  1 58  1  0  0  0  0
  1 59  1  0  0  0  0
  1 60  1  0  0  0  0
  2  3  1  0  0  0  0
  3  4  1  0  0  0  0
  3 56  1  0  0  0  0
  3 57  1  0  0  0  0
  4  5  1  0  0  0  0
  4 25  1  0  0  0  0
  4 55  1  6  0  0  0
  5  6  1  0  0  0  0
  5 53  1  0  0  0  0
  5 54  1  0  0  0  0
  6  7  1  0  0  0  0
  6 23  1  0  0  0  0
  7  8  2  0  0  0  0
  7 16  1  0  0  0  0
  8  9  1  0  0  0  0
  8 22  1  0  0  0  0
  9 10  2  0  0  0  0
 10 11  1  0  0  0  0
 10 21  1  0  0  0  0
 11 12  2  0  0  0  0
 11 16  1  0  0  0  0
 12 13  1  0  0  0  0
 12 20  1  0  0  0  0
 13 14  2  0  0  0  0
 13 19  1  0  0  0  0
 14 15  1  0  0  0  0
 14 18  1  0  0  0  0
 15 16  2  0  0  0  0
 15 17  1  0  0  0  0
 23 24  2  0  0  0  0
 25 23  1  6  0  0  0
 25 26  1  0  0  0  0
 25 47  1  0  0  0  0
 26 27  1  0  0  0  0
 26 51  1  0  0  0  0
 26 52  1  0  0  0  0
 27 28  1  0  0  0  0
 27 39  1  0  0  0  0
 28 29  1  0  0  0  0
 28 37  1  0  0  0  0
 28 38  1  0  0  0  0
 29 30  2  0  0  0  0
 29 33  1  0  0  0  0
 30 31  1  0  0  0  0
 31 32  2  0  0  0  0
 31 36  1  0  0  0  0
 32 33  1  0  0  0  0
 32 35  1  0  0  0  0
 33 34  1  0  0  0  0
 39 40  2  0  0  0  0
 39 41  1  0  0  0  0
 41 42  2  0  0  0  0
 41 47  1  0  0  0  0
 42 43  1  0  0  0  0
 42 50  1  0  0  0  0
 43 44  2  0  0  0  0
 43 49  1  0  0  0  0
 44 45  1  0  0  0  0
 44 46  1  0  0  0  0
 46 47  2  0  0  0  0
 46 48  1  0  0  0  0
M  END
>  <MODEL>
       1

$$$$
