output/tmp_first_model_1_10.pdb
 OpenBabel07222618483D

 72 77  0  0  1  0  0  0  0  0999 V2000
    7.4720    8.3870   24.7120 C   0  0  0  0  0  0  0  0  0  0  0  0
    6.7450    7.3290   23.9020 C   0  0  1  0  0  0  0  0  0  0  0  0
    7.4860    5.9980   23.9000 C   0  0  0  0  0  0  0  0  0  0  0  0
    6.6890    4.9700   23.1460 N   0  3  1  0  0  0  0  0  0  0  0  0
    7.4120    3.6690   22.9810 C   0  0  0  0  0  0  0  0  0  0  0  0
    7.6530    2.9100   24.2880 C   0  0  0  0  0  0  0  0  0  0  0  0
    8.4060    1.6950   24.0340 N   0  0  0  0  0  0  0  0  0  0  0  0
    7.7000    0.4410   23.8730 C   0  0  0  0  0  0  0  0  0  0  0  0
    8.2020   -0.3720   22.6560 C   0  0  2  0  0  0  0  0  0  0  0  0
    7.7010    0.2370   21.3310 C   0  0  0  0  0  0  0  0  0  0  0  0
    8.1510    1.2150   20.7620 O   0  0  0  0  0  0  0  0  0  0  0  0
    6.6600   -0.5360   20.8680 N   0  0  0  0  0  0  0  0  0  0  0  0
    5.8520   -0.1280   19.7830 C   0  0  0  0  0  0  0  0  0  0  0  0
    6.3450   -0.1520   18.5020 C   0  0  0  0  0  0  0  0  0  0  0  0
    5.6160    0.1450   17.3930 N   0  0  0  0  0  0  0  0  0  0  0  0
    4.3740    0.5230   17.5900 C   0  0  0  0  0  0  0  0  0  0  0  0
    3.7550    0.6490   18.8740 C   0  0  0  0  0  0  0  0  0  0  0  0
    2.4610    1.2150   19.0480 C   0  0  0  0  0  0  0  0  0  0  0  0
    1.9120    1.3520   20.2960 C   0  0  0  0  0  0  0  0  0  0  0  0
    2.6520    0.9670   21.4390 C   0  0  0  0  0  0  0  0  0  0  0  0
    3.9110    0.4400   21.3100 C   0  0  0  0  0  0  0  0  0  0  0  0
    4.5000    0.2820   20.0170 C   0  0  0  0  0  0  0  0  0  0  0  0
    4.4860    0.1920   22.2000 H   0  0  0  0  0  0  0  0  0  0  0  0
    2.2500    1.1480   22.4310 H   0  0  0  0  0  0  0  0  0  0  0  0
    0.9150    1.7740   20.4150 H   0  0  0  0  0  0  0  0  0  0  0  0
    1.9680    1.6330   18.1780 H   0  0  0  0  0  0  0  0  0  0  0  0
    3.7780    0.7480   16.7040 H   0  0  0  0  0  0  0  0  0  0  0  0
    7.3750   -0.4550   18.3180 H   0  0  0  0  0  0  0  0  0  0  0  0
    6.3560   -1.6960   21.6900 C   0  0  0  0  0  0  0  0  0  0  0  0
    7.5900   -1.8040   22.5930 C   0  0  2  0  0  0  0  0  0  0  0  0
    7.3580   -2.5220   23.9130 C   0  0  0  0  0  0  0  0  0  0  0  0
    6.5910   -2.0240   24.5140 H   0  0  0  0  0  0  0  0  0  0  0  0
    7.0280   -3.5510   23.7450 H   0  0  0  0  0  0  0  0  0  0  0  0
    8.2800   -2.5610   24.5030 H   0  0  0  0  0  0  0  0  0  0  0  0
    8.3080   -2.4010   22.0350 H   0  0  0  0  0  0  0  0  0  0  0  0
    6.2300   -2.5840   21.0570 H   0  0  0  0  0  0  0  0  0  0  0  0
    5.4310   -1.5700   22.2720 H   0  0  0  0  0  0  0  0  0  0  0  0
    9.7050   -0.3570   22.6400 C   0  0  0  0  0  0  0  0  0  0  0  0
   10.3730   -1.2550   21.8080 C   0  0  0  0  0  0  0  0  0  0  0  0
   11.7480   -1.3030   21.7700 C   0  0  0  0  0  0  0  0  0  0  0  0
   12.4280   -2.4830   20.6760 Cl  0  0  0  0  0  0  0  0  0  0  0  0
   12.5090   -0.4340   22.5650 C   0  0  0  0  0  0  0  0  0  0  0  0
   11.8450    0.5270   23.3080 C   0  0  0  0  0  0  0  0  0  0  0  0
   10.4530    0.6010   23.3220 C   0  0  0  0  0  0  0  0  0  0  0  0
    9.7720    1.7550   24.0060 C   0  0  0  0  0  0  0  0  0  0  0  0
   10.3980    2.7000   24.4630 O   0  0  0  0  0  0  0  0  0  0  0  0
   12.4040    1.2600   23.8770 H   0  0  0  0  0  0  0  0  0  0  0  0
   13.5910   -0.4700   22.6190 H   0  0  0  0  0  0  0  0  0  0  0  0
    9.8230   -1.9170   21.1520 H   0  0  0  0  0  0  0  0  0  0  0  0
    7.8230   -0.1650   24.7810 H   0  0  0  0  0  0  0  0  0  0  0  0
    6.6370    0.6640   23.7490 H   0  0  0  0  0  0  0  0  0  0  0  0
    6.6980    2.6410   24.7530 H   0  0  0  0  0  0  0  0  0  0  0  0
    8.2170    3.5130   25.0030 H   0  0  0  0  0  0  0  0  0  0  0  0
    6.8380    3.0410   22.2920 H   0  0  0  0  0  0  0  0  0  0  0  0
    8.3740    3.8800   22.5050 H   0  0  0  0  0  0  0  0  0  0  0  0
    5.3130    4.8500   23.7510 C   0  0  0  0  0  0  0  0  0  0  0  0
    4.6310    6.2180   23.8130 C   0  0  2  0  0  0  0  0  0  0  0  0
    4.1820    6.7000   22.4390 C   0  0  0  0  0  0  0  0  0  0  0  0
    3.4520    6.0010   22.0180 H   0  0  0  0  0  0  0  0  0  0  0  0
    5.0190    6.7590   21.7350 H   0  0  0  0  0  0  0  0  0  0  0  0
    3.7220    7.6900   22.5140 H   0  0  0  0  0  0  0  0  0  0  0  0
    5.4520    7.1750   24.4770 O   0  0  0  0  0  0  0  0  0  0  0  0
    3.7520    6.1240   24.4610 H   0  0  0  0  0  0  0  0  0  0  0  0
    5.4090    4.4550   24.7640 H   0  0  0  0  0  0  0  0  0  0  0  0
    4.7180    4.1510   23.1550 H   0  0  0  0  0  0  0  0  0  0  0  0
    6.5620    5.3240   22.1760 H   0  0  0  0  0  0  0  0  0  0  0  0
    8.4710    6.1030   23.4350 H   0  0  0  0  0  0  0  0  0  0  0  0
    7.6220    5.6660   24.9340 H   0  0  0  0  0  0  0  0  0  0  0  0
    6.6530    7.6670   22.8580 H   0  0  0  0  0  0  0  0  0  0  0  0
    7.5550    8.0640   25.7560 H   0  0  0  0  0  0  0  0  0  0  0  0
    6.9190    9.3310   24.6870 H   0  0  0  0  0  0  0  0  0  0  0  0
    8.4800    8.5620   24.3180 H   0  0  0  0  0  0  0  0  0  0  0  0
  1  2  1  0  0  0  0
  1 70  1  0  0  0  0
  1 71  1  0  0  0  0
  1 72  1  0  0  0  0
  2  3  1  0  0  0  0
  2 62  1  0  0  0  0
  2 69  1  6  0  0  0
  3  4  1  0  0  0  0
  3 67  1  0  0  0  0
  3 68  1  0  0  0  0
  4  5  1  0  0  0  0
  4 56  1  0  0  0  0
  4 66  1  6  0  0  0
  5  6  1  0  0  0  0
  5 54  1  0  0  0  0
  5 55  1  0  0  0  0
  6  7  1  0  0  0  0
  6 52  1  0  0  0  0
  6 53  1  0  0  0  0
  7  8  1  0  0  0  0
  7 45  1  0  0  0  0
  8  9  1  0  0  0  0
  8 50  1  0  0  0  0
  8 51  1  0  0  0  0
  9 10  1  6  0  0  0
  9 30  1  0  0  0  0
  9 38  1  0  0  0  0
 10 11  2  0  0  0  0
 10 12  1  0  0  0  0
 12 13  1  0  0  0  0
 12 29  1  0  0  0  0
 13 14  2  0  0  0  0
 13 22  1  0  0  0  0
 14 15  1  0  0  0  0
 14 28  1  0  0  0  0
 15 16  2  0  0  0  0
 16 17  1  0  0  0  0
 16 27  1  0  0  0  0
 17 18  2  0  0  0  0
 17 22  1  0  0  0  0
 18 19  1  0  0  0  0
 18 26  1  0  0  0  0
 19 20  2  0  0  0  0
 19 25  1  0  0  0  0
 20 21  1  0  0  0  0
 20 24  1  0  0  0  0
 21 22  2  0  0  0  0
 21 23  1  0  0  0  0
 29 30  1  0  0  0  0
 29 36  1  0  0  0  0
 29 37  1  0  0  0  0
 30 31  1  0  0  0  0
 30 35  1  6  0  0  0
 31 32  1  0  0  0  0
 31 33  1  0  0  0  0
 31 34  1  0  0  0  0
 38 39  2  0  0  0  0
 38 44  1  0  0  0  0
 39 40  1  0  0  0  0
 39 49  1  0  0  0  0
 40 41  1  0  0  0  0
 40 42  2  0  0  0  0
 42 43  1  0  0  0  0
 42 48  1  0  0  0  0
 43 44  2  0  0  0  0
 43 47  1  0  0  0  0
 44 45  1  0  0  0  0
 45 46  2  0  0  0  0
 56 57  1  0  0  0  0
 56 64  1  0  0  0  0
 56 65  1  0  0  0  0
 57 58  1  0  0  0  0
 57 62  1  0  0  0  0
 57 63  1  1  0  0  0
 58 59  1  0  0  0  0
 58 60  1  0  0  0  0
 58 61  1  0  0  0  0
M  CHG  1   4   1
M  END
>  <MODEL>
       1

$$$$
