output/tmp_first_model_20_6.pdb
 OpenBabel07232603433D

 65 69  0  0  0  0  0  0  0  0999 V2000
    6.6260   -3.4180   29.7450 C   0  0  0  0  0  0  0  0  0  0  0  0
    7.7440   -3.4340   28.6930 C   0  0  0  0  0  0  0  0  0  0  0  0
    7.4300   -2.3140   27.7300 C   0  0  0  0  0  0  0  0  0  0  0  0
    7.4950   -1.1530   28.0260 O   0  0  0  0  0  0  0  0  0  0  0  0
    6.9150   -2.7100   26.3480 N   0  3  0  0  0  0  0  0  0  0  0  0
    5.3930   -2.4250   26.1640 C   0  0  0  0  0  0  0  0  0  0  0  0
    5.1840   -0.9520   25.8650 C   0  0  0  0  0  0  0  0  0  0  0  0
    5.8770   -0.5760   24.5520 C   0  0  0  0  0  0  0  0  0  0  0  0
    7.3290   -1.0260   24.4780 C   0  0  0  0  0  0  0  0  0  0  0  0
    8.2700   -0.4290   23.6120 C   0  0  0  0  0  0  0  0  0  0  0  0
    7.9210    0.7690   22.8820 N   0  0  0  0  0  0  0  0  0  0  0  0
    8.2560    2.0670   23.4900 C   0  0  0  0  0  0  0  0  0  0  0  0
    7.0870    3.0470   23.4730 C   0  0  0  0  0  0  0  0  0  0  0  0
    6.8430    3.8390   22.3490 C   0  0  0  0  0  0  0  0  0  0  0  0
    5.7480    4.6980   22.3090 C   0  0  0  0  0  0  0  0  0  0  0  0
    4.8770    4.7870   23.3930 C   0  0  0  0  0  0  0  0  0  0  0  0
    5.1360    4.0180   24.5180 C   0  0  0  0  0  0  0  0  0  0  0  0
    4.0400    4.0840   25.8730 Cl  0  0  0  0  0  0  0  0  0  0  0  0
    6.2340    3.1650   24.5740 C   0  0  0  0  0  0  0  0  0  0  0  0
    6.3890    2.5770   25.4750 H   0  0  0  0  0  0  0  0  0  0  0  0
    3.9940    5.4210   23.3680 H   0  0  0  0  0  0  0  0  0  0  0  0
    5.5550    5.2940   21.4160 H   0  0  0  0  0  0  0  0  0  0  0  0
    7.5110    3.7630   21.4940 H   0  0  0  0  0  0  0  0  0  0  0  0
    8.5420    1.8450   24.5240 H   0  0  0  0  0  0  0  0  0  0  0  0
    9.1050    2.5130   22.9460 H   0  0  0  0  0  0  0  0  0  0  0  0
    7.8160    0.7530   21.4950 C   0  0  0  0  0  0  0  0  0  0  0  0
    8.3230    1.6040   20.7850 O   0  0  0  0  0  0  0  0  0  0  0  0
    6.9890   -0.3950   20.9010 C   0  0  0  0  0  0  0  0  0  0  0  0
    6.1230    0.1030   19.7750 C   0  0  0  0  0  0  0  0  0  0  0  0
    6.4470   -0.1790   18.4770 C   0  0  0  0  0  0  0  0  0  0  0  0
    5.7860    0.2830   17.3850 N   0  0  0  0  0  0  0  0  0  0  0  0
    4.7440    1.0440   17.5940 C   0  0  0  0  0  0  0  0  0  0  0  0
    4.2920    1.4280   18.8810 C   0  0  0  0  0  0  0  0  0  0  0  0
    3.1790    2.2870   19.0520 C   0  0  0  0  0  0  0  0  0  0  0  0
    2.7710    2.6510   20.3050 C   0  0  0  0  0  0  0  0  0  0  0  0
    3.4590    2.1630   21.4400 C   0  0  0  0  0  0  0  0  0  0  0  0
    4.5480    1.3380   21.3000 C   0  0  0  0  0  0  0  0  0  0  0  0
    5.0000    0.9510   20.0110 C   0  0  0  0  0  0  0  0  0  0  0  0
    5.0760    0.9840   22.1820 H   0  0  0  0  0  0  0  0  0  0  0  0
    3.1160    2.4420   22.4330 H   0  0  0  0  0  0  0  0  0  0  0  0
    1.9200    3.3150   20.4240 H   0  0  0  0  0  0  0  0  0  0  0  0
    2.6720    2.6550   18.1630 H   0  0  0  0  0  0  0  0  0  0  0  0
    4.2000    1.3910   16.7130 H   0  0  0  0  0  0  0  0  0  0  0  0
    7.2830   -0.8370   18.2440 H   0  0  0  0  0  0  0  0  0  0  0  0
    7.6850   -1.1560   20.5240 H   0  0  0  0  0  0  0  0  0  0  0  0
    6.4150   -0.8640   21.7080 H   0  0  0  0  0  0  0  0  0  0  0  0
    9.5620   -0.9410   23.4690 C   0  0  0  0  0  0  0  0  0  0  0  0
    9.9500   -2.0730   24.1800 C   0  0  0  0  0  0  0  0  0  0  0  0
    9.0470   -2.6590   25.0590 C   0  0  0  0  0  0  0  0  0  0  0  0
    7.7700   -2.1200   25.2200 C   0  0  0  0  0  0  0  0  0  0  0  0
    9.3230   -3.5170   25.6640 H   0  0  0  0  0  0  0  0  0  0  0  0
   10.9570   -2.4680   24.0660 H   0  0  0  0  0  0  0  0  0  0  0  0
   10.2630   -0.4480   22.7940 H   0  0  0  0  0  0  0  0  0  0  0  0
    5.3210   -1.0570   23.7300 H   0  0  0  0  0  0  0  0  0  0  0  0
    5.8240    0.5020   24.3800 H   0  0  0  0  0  0  0  0  0  0  0  0
    4.1120   -0.7480   25.7960 H   0  0  0  0  0  0  0  0  0  0  0  0
    5.5880   -0.3680   26.6980 H   0  0  0  0  0  0  0  0  0  0  0  0
    4.8580   -2.7310   27.0680 H   0  0  0  0  0  0  0  0  0  0  0  0
    5.0390   -3.0460   25.3390 H   0  0  0  0  0  0  0  0  0  0  0  0
    7.0510   -3.7320   26.2760 H   0  0  0  0  0  0  0  0  0  0  0  0
    7.8200   -4.3750   28.1390 H   0  0  0  0  0  0  0  0  0  0  0  0
    8.7300   -3.2200   29.1220 H   0  0  0  0  0  0  0  0  0  0  0  0
    6.7650   -4.1230   30.5600 H   0  0  0  0  0  0  0  0  0  0  0  0
    5.6610   -3.6430   29.2790 H   0  0  0  0  0  0  0  0  0  0  0  0
    6.5710   -2.4140   30.1700 H   0  0  0  0  0  0  0  0  0  0  0  0
  1  2  1  0  0  0  0
  1 63  1  0  0  0  0
  1 64  1  0  0  0  0
  1 65  1  0  0  0  0
  2  3  1  0  0  0  0
  2 61  1  0  0  0  0
  2 62  1  0  0  0  0
  3  4  2  0  0  0  0
  3  5  1  0  0  0  0
  5  6  1  0  0  0  0
  5 50  1  0  0  0  0
  5 60  1  0  0  0  0
  6  7  1  0  0  0  0
  6 58  1  0  0  0  0
  6 59  1  0  0  0  0
  7  8  1  0  0  0  0
  7 56  1  0  0  0  0
  7 57  1  0  0  0  0
  8  9  1  0  0  0  0
  8 54  1  0  0  0  0
  8 55  1  0  0  0  0
  9 10  2  0  0  0  0
  9 50  1  0  0  0  0
 10 11  1  0  0  0  0
 10 47  1  0  0  0  0
 11 12  1  0  0  0  0
 11 26  1  0  0  0  0
 12 13  1  0  0  0  0
 12 24  1  0  0  0  0
 12 25  1  0  0  0  0
 13 14  2  0  0  0  0
 13 19  1  0  0  0  0
 14 15  1  0  0  0  0
 14 23  1  0  0  0  0
 15 16  2  0  0  0  0
 15 22  1  0  0  0  0
 16 17  1  0  0  0  0
 16 21  1  0  0  0  0
 17 18  1  0  0  0  0
 17 19  2  0  0  0  0
 19 20  1  0  0  0  0
 26 27  2  0  0  0  0
 26 28  1  0  0  0  0
 28 29  1  0  0  0  0
 28 45  1  0  0  0  0
 28 46  1  0  0  0  0
 29 30  2  0  0  0  0
 29 38  1  0  0  0  0
 30 31  1  0  0  0  0
 30 44  1  0  0  0  0
 31 32  2  0  0  0  0
 32 33  1  0  0  0  0
 32 43  1  0  0  0  0
 33 34  2  0  0  0  0
 33 38  1  0  0  0  0
 34 35  1  0  0  0  0
 34 42  1  0  0  0  0
 35 36  2  0  0  0  0
 35 41  1  0  0  0  0
 36 37  1  0  0  0  0
 36 40  1  0  0  0  0
 37 38  2  0  0  0  0
 37 39  1  0  0  0  0
 47 48  2  0  0  0  0
 47 53  1  0  0  0  0
 48 49  1  0  0  0  0
 48 52  1  0  0  0  0
 49 50  2  0  0  0  0
 49 51  1  0  0  0  0
M  CHG  1   5   1
M  END
>  <MODEL>
       1

$$$$
