output/tmp_first_model_6_88.pdb
 OpenBabel07222621163D

 64 68  0  0  0  0  0  0  0  0999 V2000
    2.5320   -3.1960   27.2080 C   0  0  0  0  0  0  0  0  0  0  0  0
    3.6640   -4.0200   27.8390 C   0  0  0  0  0  0  0  0  0  0  0  0
    4.8000   -4.1980   26.8420 C   0  0  0  0  0  0  0  0  0  0  0  0
    5.7180   -3.3880   26.8760 O   0  0  0  0  0  0  0  0  0  0  0  0
    4.6620   -5.1180   25.8100 N   0  0  0  0  0  0  0  0  0  0  0  0
    3.7030   -6.2190   25.9300 C   0  0  0  0  0  0  0  0  0  0  0  0
    4.3330   -7.4440   25.2790 C   0  0  0  0  0  0  0  0  0  0  0  0
    4.4730   -7.1920   23.7880 C   0  0  0  0  0  0  0  0  0  0  0  0
    5.1940   -5.8940   23.5520 C   0  0  0  0  0  0  0  0  0  0  0  0
    5.7370   -5.6510   22.2870 C   0  0  0  0  0  0  0  0  0  0  0  0
    6.2770   -4.4010   22.0010 C   0  0  0  0  0  0  0  0  0  0  0  0
    6.2730   -3.3900   22.9680 C   0  0  0  0  0  0  0  0  0  0  0  0
    6.6110   -2.0840   22.6120 N   0  0  0  0  0  0  0  0  0  0  0  0
    7.2670   -1.1970   23.5800 C   0  0  0  0  0  0  0  0  0  0  0  0
    8.7580   -1.2560   23.3660 C   0  0  0  0  0  0  0  0  0  0  0  0
    9.4240   -2.4670   23.5660 C   0  0  0  0  0  0  0  0  0  0  0  0
   10.7980   -2.5760   23.3020 C   0  0  0  0  0  0  0  0  0  0  0  0
   11.5210   -1.4450   22.8980 C   0  0  0  0  0  0  0  0  0  0  0  0
   10.8740   -0.2160   22.7460 C   0  0  0  0  0  0  0  0  0  0  0  0
   11.8380    1.3470   22.2190 Br  0  0  0  0  0  0  0  0  0  0  0  0
    9.4940   -0.1350   22.9440 C   0  0  0  0  0  0  0  0  0  0  0  0
    9.0010    0.8120   22.7750 H   0  0  0  0  0  0  0  0  0  0  0  0
   12.5850   -1.5210   22.6970 H   0  0  0  0  0  0  0  0  0  0  0  0
   11.3270   -3.5140   23.4320 H   0  0  0  0  0  0  0  0  0  0  0  0
    8.8400   -3.3170   23.9160 H   0  0  0  0  0  0  0  0  0  0  0  0
    6.9020   -0.1710   23.4720 H   0  0  0  0  0  0  0  0  0  0  0  0
    7.0350   -1.5140   24.6070 H   0  0  0  0  0  0  0  0  0  0  0  0
    6.3500   -1.6580   21.3110 C   0  0  0  0  0  0  0  0  0  0  0  0
    5.6740   -2.3570   20.5530 O   0  0  0  0  0  0  0  0  0  0  0  0
    6.9590   -0.3570   20.7760 C   0  0  0  0  0  0  0  0  0  0  0  0
    6.1620    0.2110   19.6070 C   0  0  0  0  0  0  0  0  0  0  0  0
    6.5020   -0.0950   18.2740 C   0  0  0  0  0  0  0  0  0  0  0  0
    5.8160    0.3610   17.2100 N   0  0  0  0  0  0  0  0  0  0  0  0
    4.7520    1.1520   17.4490 C   0  0  0  0  0  0  0  0  0  0  0  0
    4.3170    1.4880   18.7370 C   0  0  0  0  0  0  0  0  0  0  0  0
    3.1930    2.3040   18.9410 C   0  0  0  0  0  0  0  0  0  0  0  0
    2.7710    2.6090   20.2390 C   0  0  0  0  0  0  0  0  0  0  0  0
    3.4530    2.0860   21.3410 C   0  0  0  0  0  0  0  0  0  0  0  0
    4.5760    1.2780   21.1400 C   0  0  0  0  0  0  0  0  0  0  0  0
    5.0250    0.9930   19.8430 C   0  0  0  0  0  0  0  0  0  0  0  0
    5.1040    0.8720   21.9970 H   0  0  0  0  0  0  0  0  0  0  0  0
    3.1170    2.3100   22.3500 H   0  0  0  0  0  0  0  0  0  0  0  0
    1.9100    3.2500   20.3910 H   0  0  0  0  0  0  0  0  0  0  0  0
    2.6510    2.7120   18.0920 H   0  0  0  0  0  0  0  0  0  0  0  0
    4.1960    1.5370   16.6000 H   0  0  0  0  0  0  0  0  0  0  0  0
    7.3530   -0.7490   18.1000 H   0  0  0  0  0  0  0  0  0  0  0  0
    6.9900    0.3790   21.5870 H   0  0  0  0  0  0  0  0  0  0  0  0
    7.9930   -0.5560   20.4740 H   0  0  0  0  0  0  0  0  0  0  0  0
    5.8360   -3.6710   24.2550 C   0  0  0  0  0  0  0  0  0  0  0  0
    5.2670   -4.9080   24.5590 C   0  0  0  0  0  0  0  0  0  0  0  0
    5.8620   -2.8840   24.9960 H   0  0  0  0  0  0  0  0  0  0  0  0
    6.6660   -4.1800   21.0140 H   0  0  0  0  0  0  0  0  0  0  0  0
    5.6900   -6.4080   21.5090 H   0  0  0  0  0  0  0  0  0  0  0  0
    5.0370   -8.0080   23.3380 H   0  0  0  0  0  0  0  0  0  0  0  0
    3.4810   -7.1430   23.3270 H   0  0  0  0  0  0  0  0  0  0  0  0
    3.7330   -8.3420   25.4600 H   0  0  0  0  0  0  0  0  0  0  0  0
    5.3330   -7.5890   25.6930 H   0  0  0  0  0  0  0  0  0  0  0  0
    3.4680   -6.4490   26.9760 H   0  0  0  0  0  0  0  0  0  0  0  0
    2.7700   -5.9580   25.4210 H   0  0  0  0  0  0  0  0  0  0  0  0
    3.2870   -4.9980   28.1380 H   0  0  0  0  0  0  0  0  0  0  0  0
    4.0470   -3.5170   28.7310 H   0  0  0  0  0  0  0  0  0  0  0  0
    2.0960   -3.7200   26.3520 H   0  0  0  0  0  0  0  0  0  0  0  0
    1.7420   -3.0170   27.9420 H   0  0  0  0  0  0  0  0  0  0  0  0
    2.9060   -2.2290   26.8580 H   0  0  0  0  0  0  0  0  0  0  0  0
  1  2  1  0  0  0  0
  1 62  1  0  0  0  0
  1 63  1  0  0  0  0
  1 64  1  0  0  0  0
  2  3  1  0  0  0  0
  2 60  1  0  0  0  0
  2 61  1  0  0  0  0
  3  4  2  0  0  0  0
  3  5  1  0  0  0  0
  5  6  1  0  0  0  0
  5 50  1  0  0  0  0
  6  7  1  0  0  0  0
  6 58  1  0  0  0  0
  6 59  1  0  0  0  0
  7  8  1  0  0  0  0
  7 56  1  0  0  0  0
  7 57  1  0  0  0  0
  8  9  1  0  0  0  0
  8 54  1  0  0  0  0
  8 55  1  0  0  0  0
  9 10  2  0  0  0  0
  9 50  1  0  0  0  0
 10 11  1  0  0  0  0
 10 53  1  0  0  0  0
 11 12  2  0  0  0  0
 11 52  1  0  0  0  0
 12 13  1  0  0  0  0
 12 49  1  0  0  0  0
 13 14  1  0  0  0  0
 13 28  1  0  0  0  0
 14 15  1  0  0  0  0
 14 26  1  0  0  0  0
 14 27  1  0  0  0  0
 15 16  2  0  0  0  0
 15 21  1  0  0  0  0
 16 17  1  0  0  0  0
 16 25  1  0  0  0  0
 17 18  2  0  0  0  0
 17 24  1  0  0  0  0
 18 19  1  0  0  0  0
 18 23  1  0  0  0  0
 19 20  1  0  0  0  0
 19 21  2  0  0  0  0
 21 22  1  0  0  0  0
 28 29  2  0  0  0  0
 28 30  1  0  0  0  0
 30 31  1  0  0  0  0
 30 47  1  0  0  0  0
 30 48  1  0  0  0  0
 31 32  2  0  0  0  0
 31 40  1  0  0  0  0
 32 33  1  0  0  0  0
 32 46  1  0  0  0  0
 33 34  2  0  0  0  0
 34 35  1  0  0  0  0
 34 45  1  0  0  0  0
 35 36  2  0  0  0  0
 35 40  1  0  0  0  0
 36 37  1  0  0  0  0
 36 44  1  0  0  0  0
 37 38  2  0  0  0  0
 37 43  1  0  0  0  0
 38 39  1  0  0  0  0
 38 42  1  0  0  0  0
 39 40  2  0  0  0  0
 39 41  1  0  0  0  0
 49 50  2  0  0  0  0
 49 51  1  0  0  0  0
M  END
>  <MODEL>
       1

$$$$
