output/tmp_first_model_7_93.pdb
 OpenBabel07222621533D

 58 62  0  0  1  0  0  0  0  0999 V2000
    8.2260    5.4010   24.0160 C   0  0  0  0  0  0  0  0  0  0  0  0
    7.9130    4.1830   23.2310 N   0  3  0  0  0  0  0  0  0  0  0  0
    6.8050    3.3700   23.8110 C   0  0  0  0  0  0  0  0  0  0  0  0
    7.3030    2.4590   24.9400 C   0  0  0  0  0  0  0  0  0  0  0  0
    8.2370    1.4500   24.4310 N   0  0  0  0  0  0  0  0  0  0  0  0
    7.7250    0.1510   24.0260 C   0  0  0  0  0  0  0  0  0  0  0  0
    8.3290   -0.3900   22.6920 C   0  0  2  0  0  0  0  0  0  0  0  0
    7.7120    0.3780   21.5030 C   0  0  0  0  0  0  0  0  0  0  0  0
    7.9560    1.5210   21.1720 O   0  0  0  0  0  0  0  0  0  0  0  0
    6.8060   -0.4330   20.8710 N   0  0  0  0  0  0  0  0  0  0  0  0
    5.9980    0.0540   19.8150 C   0  0  0  0  0  0  0  0  0  0  0  0
    6.4240   -0.0820   18.5220 C   0  0  0  0  0  0  0  0  0  0  0  0
    5.7320    0.3590   17.4460 N   0  0  0  0  0  0  0  0  0  0  0  0
    4.5900    0.9680   17.6610 C   0  0  0  0  0  0  0  0  0  0  0  0
    4.0070    1.1300   18.9510 C   0  0  0  0  0  0  0  0  0  0  0  0
    2.7410    1.7490   19.1320 C   0  0  0  0  0  0  0  0  0  0  0  0
    2.1850    1.8310   20.3820 C   0  0  0  0  0  0  0  0  0  0  0  0
    2.8480    1.2650   21.4950 C   0  0  0  0  0  0  0  0  0  0  0  0
    4.0690    0.6570   21.3480 C   0  0  0  0  0  0  0  0  0  0  0  0
    4.7030    0.6130   20.0670 C   0  0  0  0  0  0  0  0  0  0  0  0
    4.5520    0.2090   22.2140 H   0  0  0  0  0  0  0  0  0  0  0  0
    2.3920    1.3260   22.4780 H   0  0  0  0  0  0  0  0  0  0  0  0
    1.2350    2.3380   20.5290 H   0  0  0  0  0  0  0  0  0  0  0  0
    2.2420    2.1810   18.2680 H   0  0  0  0  0  0  0  0  0  0  0  0
    4.0280    1.3110   16.7910 H   0  0  0  0  0  0  0  0  0  0  0  0
    7.3540   -0.6140   18.3160 H   0  0  0  0  0  0  0  0  0  0  0  0
    6.6600   -1.7460   21.4520 C   0  0  0  0  0  0  0  0  0  0  0  0
    7.8610   -1.8530   22.4100 C   0  0  2  0  0  0  0  0  0  0  0  0
    7.5310   -2.7180   23.6250 C   0  0  0  0  0  0  0  0  0  0  0  0
    6.6660   -2.3150   24.1640 H   0  0  0  0  0  0  0  0  0  0  0  0
    7.2680   -3.7350   23.3180 H   0  0  0  0  0  0  0  0  0  0  0  0
    8.3680   -2.7830   24.3280 H   0  0  0  0  0  0  0  0  0  0  0  0
    8.6770   -2.3230   21.8580 H   0  0  0  0  0  0  0  0  0  0  0  0
    5.7080   -1.8400   21.9940 H   0  0  0  0  0  0  0  0  0  0  0  0
    6.6670   -2.5220   20.6780 H   0  0  0  0  0  0  0  0  0  0  0  0
    9.8370   -0.2010   22.7180 C   0  0  0  0  0  0  0  0  0  0  0  0
   10.6980   -0.9270   21.8830 C   0  0  0  0  0  0  0  0  0  0  0  0
   12.0620   -0.7400   21.9970 C   0  0  0  0  0  0  0  0  0  0  0  0
   12.8720   -1.4720   21.2170 F   0  0  0  0  0  0  0  0  0  0  0  0
   12.6310    0.1710   22.8800 C   0  0  0  0  0  0  0  0  0  0  0  0
   11.7820    0.9660   23.6200 C   0  0  0  0  0  0  0  0  0  0  0  0
   10.3990    0.7980   23.5230 C   0  0  0  0  0  0  0  0  0  0  0  0
    9.5210    1.8000   24.1930 C   0  0  0  0  0  0  0  0  0  0  0  0
    9.9450    2.9330   24.4370 O   0  0  0  0  0  0  0  0  0  0  0  0
   12.1650    1.7410   24.2750 H   0  0  0  0  0  0  0  0  0  0  0  0
   13.7100    0.2540   22.9490 H   0  0  0  0  0  0  0  0  0  0  0  0
   10.3450   -1.6290   21.1330 H   0  0  0  0  0  0  0  0  0  0  0  0
    7.9410   -0.5740   24.8180 H   0  0  0  0  0  0  0  0  0  0  0  0
    6.6380    0.2300   23.9160 H   0  0  0  0  0  0  0  0  0  0  0  0
    6.4570    1.9410   25.4000 H   0  0  0  0  0  0  0  0  0  0  0  0
    7.8110    3.0310   25.7270 H   0  0  0  0  0  0  0  0  0  0  0  0
    6.0140    4.0420   24.1610 H   0  0  0  0  0  0  0  0  0  0  0  0
    6.3960    2.7570   23.0050 H   0  0  0  0  0  0  0  0  0  0  0  0
    8.7730    3.6220   23.2550 H   0  0  0  0  0  0  0  0  0  0  0  0
    7.7250    4.3810   22.2290 H   0  0  0  0  0  0  0  0  0  0  0  0
    8.7940    5.1130   24.9030 H   0  0  0  0  0  0  0  0  0  0  0  0
    8.8390    6.0890   23.4320 H   0  0  0  0  0  0  0  0  0  0  0  0
    7.3150    5.9160   24.3300 H   0  0  0  0  0  0  0  0  0  0  0  0
  1  2  1  0  0  0  0
  1 56  1  0  0  0  0
  1 57  1  0  0  0  0
  1 58  1  0  0  0  0
  2  3  1  0  0  0  0
  2 54  1  0  0  0  0
  2 55  1  0  0  0  0
  3  4  1  0  0  0  0
  3 52  1  0  0  0  0
  3 53  1  0  0  0  0
  4  5  1  0  0  0  0
  4 50  1  0  0  0  0
  4 51  1  0  0  0  0
  5  6  1  0  0  0  0
  5 43  1  0  0  0  0
  6  7  1  0  0  0  0
  6 48  1  0  0  0  0
  6 49  1  0  0  0  0
  7  8  1  6  0  0  0
  7 28  1  0  0  0  0
  7 36  1  0  0  0  0
  8  9  2  0  0  0  0
  8 10  1  0  0  0  0
 10 11  1  0  0  0  0
 10 27  1  0  0  0  0
 11 12  2  0  0  0  0
 11 20  1  0  0  0  0
 12 13  1  0  0  0  0
 12 26  1  0  0  0  0
 13 14  2  0  0  0  0
 14 15  1  0  0  0  0
 14 25  1  0  0  0  0
 15 16  2  0  0  0  0
 15 20  1  0  0  0  0
 16 17  1  0  0  0  0
 16 24  1  0  0  0  0
 17 18  2  0  0  0  0
 17 23  1  0  0  0  0
 18 19  1  0  0  0  0
 18 22  1  0  0  0  0
 19 20  2  0  0  0  0
 19 21  1  0  0  0  0
 27 28  1  0  0  0  0
 27 34  1  0  0  0  0
 27 35  1  0  0  0  0
 28 29  1  0  0  0  0
 28 33  1  6  0  0  0
 29 30  1  0  0  0  0
 29 31  1  0  0  0  0
 29 32  1  0  0  0  0
 36 37  2  0  0  0  0
 36 42  1  0  0  0  0
 37 38  1  0  0  0  0
 37 47  1  0  0  0  0
 38 39  1  0  0  0  0
 38 40  2  0  0  0  0
 40 41  1  0  0  0  0
 40 46  1  0  0  0  0
 41 42  2  0  0  0  0
 41 45  1  0  0  0  0
 42 43  1  0  0  0  0
 43 44  2  0  0  0  0
M  CHG  1   2   1
M  END
>  <MODEL>
       1

$$$$
