output/tmp_first_model_4_57.pdb
 OpenBabel07222620063D

 67 72  0  0  1  0  0  0  0  0999 V2000
    6.5060    4.3940   21.4120 C   0  0  0  0  0  0  0  0  0  0  0  0
    7.4730    3.9470   22.4050 N   0  0  0  0  0  0  0  0  0  0  0  0
    7.0140    3.3070   23.5180 C   0  0  0  0  0  0  0  0  0  0  0  0
    5.8220    3.1440   23.7380 O   0  0  0  0  0  0  0  0  0  0  0  0
    8.0890    2.8210   24.5070 C   0  0  0  0  0  0  0  0  0  0  0  0
    8.7750    1.6380   24.0010 N   0  0  0  0  0  0  0  0  0  0  0  0
    8.0180    0.4020   23.8480 C   0  0  0  0  0  0  0  0  0  0  0  0
    8.4420   -0.3990   22.5870 C   0  0  2  0  0  0  0  0  0  0  0  0
    7.9100    0.2790   21.3080 C   0  0  0  0  0  0  0  0  0  0  0  0
    8.3540    1.2720   20.7640 O   0  0  0  0  0  0  0  0  0  0  0  0
    6.8380   -0.4400   20.8360 N   0  0  0  0  0  0  0  0  0  0  0  0
    6.0920    0.0720   19.7510 C   0  0  0  0  0  0  0  0  0  0  0  0
    6.4610   -0.2150   18.4630 C   0  0  0  0  0  0  0  0  0  0  0  0
    5.7930    0.2270   17.3690 N   0  0  0  0  0  0  0  0  0  0  0  0
    4.7500    0.9980   17.5690 C   0  0  0  0  0  0  0  0  0  0  0  0
    4.2820    1.3990   18.8550 C   0  0  0  0  0  0  0  0  0  0  0  0
    3.1680    2.2630   19.0340 C   0  0  0  0  0  0  0  0  0  0  0  0
    2.7720    2.6400   20.2900 C   0  0  0  0  0  0  0  0  0  0  0  0
    3.4780    2.1870   21.4300 C   0  0  0  0  0  0  0  0  0  0  0  0
    4.5610    1.3540   21.2830 C   0  0  0  0  0  0  0  0  0  0  0  0
    4.9810    0.9320   19.9910 C   0  0  0  0  0  0  0  0  0  0  0  0
    5.1340    1.0510   22.1560 H   0  0  0  0  0  0  0  0  0  0  0  0
    3.1910    2.5220   22.4230 H   0  0  0  0  0  0  0  0  0  0  0  0
    1.9210    3.3040   20.4190 H   0  0  0  0  0  0  0  0  0  0  0  0
    2.6530    2.6280   18.1490 H   0  0  0  0  0  0  0  0  0  0  0  0
    4.2190    1.3580   16.6850 H   0  0  0  0  0  0  0  0  0  0  0  0
    7.3390   -0.8300   18.2750 H   0  0  0  0  0  0  0  0  0  0  0  0
    6.4720   -1.5800   21.6510 C   0  0  0  0  0  0  0  0  0  0  0  0
    7.7500   -1.7850   22.4840 C   0  0  2  0  0  0  0  0  0  0  0  0
    7.5240   -2.5660   23.7740 C   0  0  0  0  0  0  0  0  0  0  0  0
    7.1140   -3.9170   23.4780 N   0  0  0  0  0  0  0  0  0  0  0  0
    5.7980   -4.2990   23.4790 C   0  0  0  0  0  0  0  0  0  0  0  0
    4.7490   -3.7050   24.1130 C   0  0  0  0  0  0  0  0  0  0  0  0
    3.5350   -4.3400   24.0180 N   0  0  0  0  0  0  0  0  0  0  0  0
    3.6180   -5.3970   23.2760 C   0  0  0  0  0  0  0  0  0  0  0  0
    2.4490   -6.2510   22.9140 C   0  0  0  0  0  0  0  0  0  0  0  0
    2.1890   -6.1190   21.8600 H   0  0  0  0  0  0  0  0  0  0  0  0
    2.6250   -7.3150   23.0980 H   0  0  0  0  0  0  0  0  0  0  0  0
    1.6020   -5.9030   23.5010 H   0  0  0  0  0  0  0  0  0  0  0  0
    5.2180   -5.7450   22.6810 S   0  0  0  0  0  0  0  0  0  0  0  0
    4.8230   -2.7980   24.7050 H   0  0  0  0  0  0  0  0  0  0  0  0
    7.8220   -4.6140   23.3380 H   0  0  0  0  0  0  0  0  0  0  0  0
    8.4240   -2.5650   24.4030 H   0  0  0  0  0  0  0  0  0  0  0  0
    6.7280   -2.0950   24.3480 H   0  0  0  0  0  0  0  0  0  0  0  0
    8.4090   -2.4000   21.8730 H   0  0  0  0  0  0  0  0  0  0  0  0
    5.5830   -1.3780   22.2720 H   0  0  0  0  0  0  0  0  0  0  0  0
    6.2300   -2.4570   21.0410 H   0  0  0  0  0  0  0  0  0  0  0  0
    9.9540   -0.4410   22.5050 C   0  0  0  0  0  0  0  0  0  0  0  0
   10.5820   -1.2900   21.5840 C   0  0  0  0  0  0  0  0  0  0  0  0
   11.9470   -1.2320   21.3870 C   0  0  0  0  0  0  0  0  0  0  0  0
   12.6480   -2.2300   20.1440 Cl  0  0  0  0  0  0  0  0  0  0  0  0
   12.7460   -0.3710   22.1380 C   0  0  0  0  0  0  0  0  0  0  0  0
   12.1360    0.4620   23.0490 C   0  0  0  0  0  0  0  0  0  0  0  0
   10.7500    0.4870   23.1840 C   0  0  0  0  0  0  0  0  0  0  0  0
   10.1450    1.6220   23.9590 C   0  0  0  0  0  0  0  0  0  0  0  0
   10.8320    2.5030   24.4600 O   0  0  0  0  0  0  0  0  0  0  0  0
   12.7160    1.1350   23.6650 H   0  0  0  0  0  0  0  0  0  0  0  0
   13.8190   -0.3340   22.0000 H   0  0  0  0  0  0  0  0  0  0  0  0
   10.0310   -1.9810   20.9600 H   0  0  0  0  0  0  0  0  0  0  0  0
    6.9590    0.6630   23.7770 H   0  0  0  0  0  0  0  0  0  0  0  0
    8.1640   -0.2180   24.7440 H   0  0  0  0  0  0  0  0  0  0  0  0
    8.8680    3.5760   24.6700 H   0  0  0  0  0  0  0  0  0  0  0  0
    7.5990    2.6300   25.4760 H   0  0  0  0  0  0  0  0  0  0  0  0
    8.3960    3.6820   22.0840 H   0  0  0  0  0  0  0  0  0  0  0  0
    6.1370    3.5540   20.8010 H   0  0  0  0  0  0  0  0  0  0  0  0
    5.6410    4.8150   21.9340 H   0  0  0  0  0  0  0  0  0  0  0  0
    6.9640    5.1580   20.7690 H   0  0  0  0  0  0  0  0  0  0  0  0
  1  2  1  0  0  0  0
  1 65  1  0  0  0  0
  1 66  1  0  0  0  0
  1 67  1  0  0  0  0
  2  3  1  0  0  0  0
  2 64  1  0  0  0  0
  3  4  2  0  0  0  0
  3  5  1  0  0  0  0
  5  6  1  0  0  0  0
  5 62  1  0  0  0  0
  5 63  1  0  0  0  0
  6  7  1  0  0  0  0
  6 55  1  0  0  0  0
  7  8  1  0  0  0  0
  7 60  1  0  0  0  0
  7 61  1  0  0  0  0
  8  9  1  6  0  0  0
  8 29  1  0  0  0  0
  8 48  1  0  0  0  0
  9 10  2  0  0  0  0
  9 11  1  0  0  0  0
 11 12  1  0  0  0  0
 11 28  1  0  0  0  0
 12 13  2  0  0  0  0
 12 21  1  0  0  0  0
 13 14  1  0  0  0  0
 13 27  1  0  0  0  0
 14 15  2  0  0  0  0
 15 16  1  0  0  0  0
 15 26  1  0  0  0  0
 16 17  2  0  0  0  0
 16 21  1  0  0  0  0
 17 18  1  0  0  0  0
 17 25  1  0  0  0  0
 18 19  2  0  0  0  0
 18 24  1  0  0  0  0
 19 20  1  0  0  0  0
 19 23  1  0  0  0  0
 20 21  2  0  0  0  0
 20 22  1  0  0  0  0
 28 29  1  0  0  0  0
 28 46  1  0  0  0  0
 28 47  1  0  0  0  0
 29 30  1  0  0  0  0
 29 45  1  6  0  0  0
 30 31  1  0  0  0  0
 30 43  1  0  0  0  0
 30 44  1  0  0  0  0
 31 32  1  0  0  0  0
 31 42  1  0  0  0  0
 32 33  2  0  0  0  0
 32 40  1  0  0  0  0
 33 34  1  0  0  0  0
 33 41  1  0  0  0  0
 34 35  2  0  0  0  0
 35 36  1  0  0  0  0
 35 40  1  0  0  0  0
 36 37  1  0  0  0  0
 36 38  1  0  0  0  0
 36 39  1  0  0  0  0
 48 49  2  0  0  0  0
 48 54  1  0  0  0  0
 49 50  1  0  0  0  0
 49 59  1  0  0  0  0
 50 51  1  0  0  0  0
 50 52  2  0  0  0  0
 52 53  1  0  0  0  0
 52 58  1  0  0  0  0
 53 54  2  0  0  0  0
 53 57  1  0  0  0  0
 54 55  1  0  0  0  0
 55 56  2  0  0  0  0
M  END
>  <MODEL>
       1

$$$$
