output/tmp_first_model_9_86.pdb
 OpenBabel07222623023D

 65 70  0  0  1  0  0  0  0  0999 V2000
    4.8410   -0.0730   28.0960 C   0  0  0  0  0  0  0  0  0  0  0  0
    5.1700    0.3800   26.7540 N   0  0  0  0  0  0  0  0  0  0  0  0
    6.1810    1.4020   26.6330 C   0  0  0  0  0  0  0  0  0  0  0  0
    6.4510    2.0770   27.5850 O   0  0  0  0  0  0  0  0  0  0  0  0
    6.4580    1.8500   25.1970 C   0  0  0  0  0  0  0  0  0  0  0  0
    7.5680    0.9990   24.6180 N   0  0  0  0  0  0  0  0  0  0  0  0
    7.3310   -0.3340   24.0990 C   0  0  0  0  0  0  0  0  0  0  0  0
    8.2370   -0.5180   22.8160 C   0  0  2  0  0  0  0  0  0  0  0  0
    7.6330    0.4020   21.6870 C   0  0  0  0  0  0  0  0  0  0  0  0
    7.7740    1.5740   21.6430 O   0  0  0  0  0  0  0  0  0  0  0  0
    6.9230   -0.4040   20.8460 N   0  0  0  0  0  0  0  0  0  0  0  0
    6.1320    0.0920   19.7640 C   0  0  0  0  0  0  0  0  0  0  0  0
    6.4250   -0.2170   18.4720 C   0  0  0  0  0  0  0  0  0  0  0  0
    5.7530    0.2430   17.3660 N   0  0  0  0  0  0  0  0  0  0  0  0
    4.7380    1.0290   17.5740 C   0  0  0  0  0  0  0  0  0  0  0  0
    4.2890    1.4240   18.8670 C   0  0  0  0  0  0  0  0  0  0  0  0
    3.1540    2.2830   19.0580 C   0  0  0  0  0  0  0  0  0  0  0  0
    2.7520    2.6110   20.3010 C   0  0  0  0  0  0  0  0  0  0  0  0
    3.4380    2.1100   21.4400 C   0  0  0  0  0  0  0  0  0  0  0  0
    4.5050    1.2980   21.2920 C   0  0  0  0  0  0  0  0  0  0  0  0
    4.9850    0.9400   19.9930 C   0  0  0  0  0  0  0  0  0  0  0  0
    5.0250    0.8910   22.1580 H   0  0  0  0  0  0  0  0  0  0  0  0
    3.0850    2.3790   22.4340 H   0  0  0  0  0  0  0  0  0  0  0  0
    1.8910    3.2620   20.4540 H   0  0  0  0  0  0  0  0  0  0  0  0
    2.6320    2.6530   18.1750 H   0  0  0  0  0  0  0  0  0  0  0  0
    4.1910    1.4040   16.7010 H   0  0  0  0  0  0  0  0  0  0  0  0
    7.2840   -0.8640   18.2660 H   0  0  0  0  0  0  0  0  0  0  0  0
    6.9080   -1.8120   21.2390 C   0  0  0  0  0  0  0  0  0  0  0  0
    8.0530   -1.9150   22.2710 C   0  0  2  0  0  0  0  0  0  0  0  0
    7.8270   -3.0440   23.3070 C   0  0  0  0  0  0  0  0  0  0  0  0
    7.8380   -4.3920   22.6580 N   0  0  0  0  0  0  0  0  0  0  0  0
    6.7350   -5.0850   22.2470 C   0  0  0  0  0  0  0  0  0  0  0  0
    5.4880   -4.6120   22.5630 N   0  0  0  0  0  0  0  0  0  0  0  0
    4.4930   -5.3730   22.1250 C   0  0  0  0  0  0  0  0  0  0  0  0
    4.5550   -6.5000   21.4400 N   0  0  0  0  0  0  0  0  0  0  0  0
    5.8100   -6.8460   21.1920 C   0  0  0  0  0  0  0  0  0  0  0  0
    6.9250   -6.2390   21.5370 N   0  0  0  0  0  0  0  0  0  0  0  0
    5.9050   -7.8020   20.5920 H   0  0  0  0  0  0  0  0  0  0  0  0
    3.4390   -5.0000   22.3710 H   0  0  0  0  0  0  0  0  0  0  0  0
    8.7790   -4.7030   22.4200 H   0  0  0  0  0  0  0  0  0  0  0  0
    8.6120   -2.9850   24.0770 H   0  0  0  0  0  0  0  0  0  0  0  0
    6.8620   -2.9210   23.8150 H   0  0  0  0  0  0  0  0  0  0  0  0
    8.9520   -2.2020   21.7180 H   0  0  0  0  0  0  0  0  0  0  0  0
    7.0920   -2.4590   20.3860 H   0  0  0  0  0  0  0  0  0  0  0  0
    5.9440   -2.0720   21.6880 H   0  0  0  0  0  0  0  0  0  0  0  0
    9.6820   -0.0530   23.0820 C   0  0  0  0  0  0  0  0  0  0  0  0
   10.6840   -0.3900   22.2700 C   0  0  0  0  0  0  0  0  0  0  0  0
   11.9230   -0.0680   22.5680 C   0  0  0  0  0  0  0  0  0  0  0  0
   12.6060   -1.0550   21.2640 Cl  0  0  0  0  0  0  0  0  0  0  0  0
   12.3930    0.8180   23.5540 C   0  0  0  0  0  0  0  0  0  0  0  0
   11.4260    1.1760   24.3570 C   0  0  0  0  0  0  0  0  0  0  0  0
    9.9230    0.8190   24.1540 C   0  0  0  0  0  0  0  0  0  0  0  0
    8.8010    1.3900   25.0540 C   0  0  0  0  0  0  0  0  0  0  0  0
    6.4580    1.8500   25.1970 O   0  0  0  0  0  0  0  0  0  0  0  0
   11.6360    1.8950   25.1510 H   0  0  0  0  0  0  0  0  0  0  0  0
   13.3780    1.1570   23.7680 H   0  0  0  0  0  0  0  0  0  0  0  0
   10.5630   -0.9690   21.3570 H   0  0  0  0  0  0  0  0  0  0  0  0
    6.2920   -0.4680   23.8650 H   0  0  0  0  0  0  0  0  0  0  0  0
    7.6650   -0.9740   24.9140 H   0  0  0  0  0  0  0  0  0  0  0  0
    5.4320    1.8370   24.3490 H   0  0  0  0  0  0  0  0  0  0  0  0
    6.5640    2.9310   24.9790 H   0  0  0  0  0  0  0  0  0  0  0  0
    4.7890   -0.1540   25.9660 H   0  0  0  0  0  0  0  0  0  0  0  0
    5.7450   -0.3520   28.6460 H   0  0  0  0  0  0  0  0  0  0  0  0
    4.1870   -0.9520   28.0450 H   0  0  0  0  0  0  0  0  0  0  0  0
    4.3190    0.7160   28.6420 H   0  0  0  0  0  0  0  0  0  0  0  0
  1  2  1  0  0  0  0
  1 63  1  0  0  0  0
  1 64  1  0  0  0  0
  1 65  1  0  0  0  0
  2  3  1  0  0  0  0
  2 62  1  0  0  0  0
  3  4  2  0  0  0  0
  3  5  1  0  0  0  0
  5  6  1  0  0  0  0
  5 60  1  0  0  0  0
  5 61  1  0  0  0  0
  6  7  1  0  0  0  0
  6 53  1  0  0  0  0
  7  8  1  0  0  0  0
  7 58  1  0  0  0  0
  7 59  1  0  0  0  0
  8  9  1  6  0  0  0
  8 29  1  0  0  0  0
  8 46  1  0  0  0  0
  9 10  2  0  0  0  0
  9 11  1  0  0  0  0
 11 12  1  0  0  0  0
 11 28  1  0  0  0  0
 12 13  2  0  0  0  0
 12 21  1  0  0  0  0
 13 14  1  0  0  0  0
 13 27  1  0  0  0  0
 14 15  2  0  0  0  0
 15 16  1  0  0  0  0
 15 26  1  0  0  0  0
 16 17  2  0  0  0  0
 16 21  1  0  0  0  0
 17 18  1  0  0  0  0
 17 25  1  0  0  0  0
 18 19  2  0  0  0  0
 18 24  1  0  0  0  0
 19 20  1  0  0  0  0
 19 23  1  0  0  0  0
 20 21  2  0  0  0  0
 20 22  1  0  0  0  0
 28 29  1  0  0  0  0
 28 44  1  0  0  0  0
 28 45  1  0  0  0  0
 29 30  1  0  0  0  0
 29 43  1  6  0  0  0
 30 31  1  0  0  0  0
 30 41  1  0  0  0  0
 30 42  1  0  0  0  0
 31 32  1  0  0  0  0
 31 40  1  0  0  0  0
 32 33  2  0  0  0  0
 32 37  1  0  0  0  0
 33 34  1  0  0  0  0
 34 35  2  0  0  0  0
 34 39  1  0  0  0  0
 35 36  1  0  0  0  0
 36 37  2  0  0  0  0
 36 38  1  0  0  0  0
 46 47  2  0  0  0  0
 46 52  1  0  0  0  0
 47 48  1  0  0  0  0
 47 57  1  0  0  0  0
 48 49  1  0  0  0  0
 48 50  2  0  0  0  0
 50 51  1  0  0  0  0
 50 56  1  0  0  0  0
 51 52  2  0  0  0  0
 51 55  1  0  0  0  0
 52 53  1  0  0  0  0
 53 54  2  0  0  0  0
M  END
>  <MODEL>
       1

$$$$
