output/tmp_first_model_14_46.pdb
 OpenBabel07232601073D

 64 68  0  0  1  0  0  0  0  0999 V2000
   10.7830    3.8440   23.4830 C   0  0  0  0  0  0  0  0  0  0  0  0
   10.3840    2.5770   22.7370 C   0  0  0  0  0  0  0  0  0  0  0  0
    9.8730    1.3740   23.9550 S   0  0  0  0  0  0  0  0  0  0  0  0
    8.5730    1.7740   24.4660 O   0  0  0  0  0  0  0  0  0  0  0  0
   10.9950    1.1620   24.8550 O   0  0  0  0  0  0  0  0  0  0  0  0
    9.6400   -0.0160   23.0760 N   0  0  0  0  0  0  0  0  0  0  0  0
    8.3140   -0.3770   22.6110 C   0  0  1  0  0  0  0  0  0  0  0  0
    7.7830    0.4540   21.4390 C   0  0  0  0  0  0  0  0  0  0  0  0
    6.8270   -0.4500   20.8400 N   0  0  0  0  0  0  0  0  0  0  0  0
    6.0420   -0.0170   19.7460 C   0  0  0  0  0  0  0  0  0  0  0  0
    6.3810   -0.3340   18.4550 C   0  0  0  0  0  0  0  0  0  0  0  0
    5.7550    0.1730   17.3600 N   0  0  0  0  0  0  0  0  0  0  0  0
    4.7650    1.0110   17.5590 C   0  0  0  0  0  0  0  0  0  0  0  0
    4.2940    1.4040   18.8460 C   0  0  0  0  0  0  0  0  0  0  0  0
    3.1970    2.2890   19.0240 C   0  0  0  0  0  0  0  0  0  0  0  0
    2.7790    2.6320   20.2820 C   0  0  0  0  0  0  0  0  0  0  0  0
    3.4420    2.1190   21.4200 C   0  0  0  0  0  0  0  0  0  0  0  0
    4.5060    1.2650   21.2720 C   0  0  0  0  0  0  0  0  0  0  0  0
    4.9550    0.8840   19.9790 C   0  0  0  0  0  0  0  0  0  0  0  0
    5.0140    0.8690   22.1450 H   0  0  0  0  0  0  0  0  0  0  0  0
    3.1100    2.4060   22.4150 H   0  0  0  0  0  0  0  0  0  0  0  0
    1.9320    3.3000   20.4160 H   0  0  0  0  0  0  0  0  0  0  0  0
    2.7000    2.6860   18.1420 H   0  0  0  0  0  0  0  0  0  0  0  0
    4.2800    1.4240   16.6730 H   0  0  0  0  0  0  0  0  0  0  0  0
    7.2050   -1.0170   18.2570 H   0  0  0  0  0  0  0  0  0  0  0  0
    7.0250   -1.7810   21.1660 C   0  0  0  0  0  0  0  0  0  0  0  0
    6.3610   -2.6930   20.7190 O   0  0  0  0  0  0  0  0  0  0  0  0
    8.1730   -1.8710   22.1900 C   0  0  1  0  0  0  0  0  0  0  0  0
    9.4530   -2.4330   21.4960 C   0  0  0  0  0  0  0  0  0  0  0  0
   10.5510   -2.7060   22.4330 N   0  0  0  0  0  0  0  0  0  0  0  0
   11.9670   -2.5040   22.1260 C   0  0  0  0  0  0  0  0  0  0  0  0
   12.5590   -1.3080   22.8870 C   0  0  0  0  0  0  0  0  0  0  0  0
   12.6760   -1.3350   24.0980 O   0  0  0  0  0  0  0  0  0  0  0  0
   12.8490   -0.1870   22.1380 N   0  0  0  0  0  0  0  0  0  0  0  0
   13.5840    0.9110   22.7730 C   0  0  0  0  0  0  0  0  0  0  0  0
   13.2110    0.9870   23.7980 H   0  0  0  0  0  0  0  0  0  0  0  0
   13.4020    1.8520   22.2410 H   0  0  0  0  0  0  0  0  0  0  0  0
   14.6640    0.7370   22.7820 H   0  0  0  0  0  0  0  0  0  0  0  0
   13.0630   -0.3900   21.1710 H   0  0  0  0  0  0  0  0  0  0  0  0
   12.1330   -2.4250   21.0520 H   0  0  0  0  0  0  0  0  0  0  0  0
   12.5010   -3.3800   22.5020 H   0  0  0  0  0  0  0  0  0  0  0  0
   10.3070   -3.4600   23.5540 C   0  0  0  0  0  0  0  0  0  0  0  0
   11.1810   -4.0320   24.1780 O   0  0  0  0  0  0  0  0  0  0  0  0
    8.8810   -3.5150   23.9990 C   0  0  0  0  0  0  0  0  0  0  0  0
    8.6200   -4.3000   25.1190 C   0  0  0  0  0  0  0  0  0  0  0  0
    7.3420   -4.3930   25.6290 C   0  0  0  0  0  0  0  0  0  0  0  0
    6.3170   -3.7060   24.9770 C   0  0  0  0  0  0  0  0  0  0  0  0
    4.6950   -3.8700   25.5870 Cl  0  0  0  0  0  0  0  0  0  0  0  0
    6.5580   -2.9240   23.8580 C   0  0  0  0  0  0  0  0  0  0  0  0
    7.8630   -2.7940   23.3600 C   0  0  0  0  0  0  0  0  0  0  0  0
    5.7150   -2.4580   23.3550 H   0  0  0  0  0  0  0  0  0  0  0  0
    7.1280   -5.0190   26.4910 H   0  0  0  0  0  0  0  0  0  0  0  0
    9.4530   -4.8300   25.5690 H   0  0  0  0  0  0  0  0  0  0  0  0
    9.7930   -1.7400   20.7210 H   0  0  0  0  0  0  0  0  0  0  0  0
    9.1500   -3.3670   21.0090 H   0  0  0  0  0  0  0  0  0  0  0  0
    7.2900    1.3770   21.7700 H   0  0  0  0  0  0  0  0  0  0  0  0
    8.5700    0.7350   20.7190 H   0  0  0  0  0  0  0  0  0  0  0  0
    7.6330   -0.2260   23.4500 H   0  0  0  0  0  0  0  0  0  0  0  0
   10.3970   -0.2110   22.4280 H   0  0  0  0  0  0  0  0  0  0  0  0
   11.2260    2.1390   22.1890 H   0  0  0  0  0  0  0  0  0  0  0  0
    9.5460    2.7190   22.0480 H   0  0  0  0  0  0  0  0  0  0  0  0
   11.6800    3.6570   24.0820 H   0  0  0  0  0  0  0  0  0  0  0  0
   10.9790    4.6640   22.7870 H   0  0  0  0  0  0  0  0  0  0  0  0
    9.9780    4.1360   24.1630 H   0  0  0  0  0  0  0  0  0  0  0  0
  1  2  1  0  0  0  0
  1 62  1  0  0  0  0
  1 63  1  0  0  0  0
  1 64  1  0  0  0  0
  2  3  1  0  0  0  0
  2 60  1  0  0  0  0
  2 61  1  0  0  0  0
  3  4  2  0  0  0  0
  3  5  2  0  0  0  0
  3  6  1  0  0  0  0
  6  7  1  0  0  0  0
  6 59  1  0  0  0  0
  7  8  1  0  0  0  0
  7 28  1  0  0  0  0
  7 58  1  1  0  0  0
  8  9  1  0  0  0  0
  8 56  1  0  0  0  0
  8 57  1  0  0  0  0
  9 10  1  0  0  0  0
  9 26  1  0  0  0  0
 10 11  2  0  0  0  0
 10 19  1  0  0  0  0
 11 12  1  0  0  0  0
 11 25  1  0  0  0  0
 12 13  2  0  0  0  0
 13 14  1  0  0  0  0
 13 24  1  0  0  0  0
 14 15  2  0  0  0  0
 14 19  1  0  0  0  0
 15 16  1  0  0  0  0
 15 23  1  0  0  0  0
 16 17  2  0  0  0  0
 16 22  1  0  0  0  0
 17 18  1  0  0  0  0
 17 21  1  0  0  0  0
 18 19  2  0  0  0  0
 18 20  1  0  0  0  0
 26 27  2  0  0  0  0
 28 26  1  6  0  0  0
 28 29  1  0  0  0  0
 28 50  1  0  0  0  0
 29 30  1  0  0  0  0
 29 54  1  0  0  0  0
 29 55  1  0  0  0  0
 30 31  1  0  0  0  0
 30 42  1  0  0  0  0
 31 32  1  0  0  0  0
 31 40  1  0  0  0  0
 31 41  1  0  0  0  0
 32 33  2  0  0  0  0
 32 34  1  0  0  0  0
 34 35  1  0  0  0  0
 34 39  1  0  0  0  0
 35 36  1  0  0  0  0
 35 37  1  0  0  0  0
 35 38  1  0  0  0  0
 42 43  2  0  0  0  0
 42 44  1  0  0  0  0
 44 45  2  0  0  0  0
 44 50  1  0  0  0  0
 45 46  1  0  0  0  0
 45 53  1  0  0  0  0
 46 47  2  0  0  0  0
 46 52  1  0  0  0  0
 47 48  1  0  0  0  0
 47 49  1  0  0  0  0
 49 50  2  0  0  0  0
 49 51  1  0  0  0  0
M  END
>  <MODEL>
       1

$$$$
