output/tmp_first_model_11_80.pdb
 OpenBabel07222623443D

 59 64  0  0  1  0  0  0  0  0999 V2000
    9.7620   -1.8460   21.9350 C   0  0  0  0  0  0  0  0  0  0  0  0
    8.5740   -0.9900   22.4010 C   0  0  1  0  0  0  0  0  0  0  0  0
    8.1320   -0.0280   21.2740 C   0  0  0  0  0  0  0  0  0  0  0  0
    6.8420   -0.5250   20.8450 N   0  0  0  0  0  0  0  0  0  0  0  0
    6.0930    0.0480   19.7750 C   0  0  0  0  0  0  0  0  0  0  0  0
    6.4360   -0.2200   18.4750 C   0  0  0  0  0  0  0  0  0  0  0  0
    5.7700    0.2470   17.3920 N   0  0  0  0  0  0  0  0  0  0  0  0
    4.7380    1.0290   17.5880 C   0  0  0  0  0  0  0  0  0  0  0  0
    4.2900    1.4190   18.8820 C   0  0  0  0  0  0  0  0  0  0  0  0
    3.1660    2.2710   19.0580 C   0  0  0  0  0  0  0  0  0  0  0  0
    2.7690    2.6390   20.3130 C   0  0  0  0  0  0  0  0  0  0  0  0
    3.4730    2.1700   21.4460 C   0  0  0  0  0  0  0  0  0  0  0  0
    4.5580    1.3430   21.3040 C   0  0  0  0  0  0  0  0  0  0  0  0
    4.9880    0.9320   20.0120 C   0  0  0  0  0  0  0  0  0  0  0  0
    5.0950    0.9820   22.1800 H   0  0  0  0  0  0  0  0  0  0  0  0
    3.1490    2.4670   22.4390 H   0  0  0  0  0  0  0  0  0  0  0  0
    1.9170    3.3030   20.4500 H   0  0  0  0  0  0  0  0  0  0  0  0
    2.6470    2.6470   18.1780 H   0  0  0  0  0  0  0  0  0  0  0  0
    4.2060    1.3940   16.7030 H   0  0  0  0  0  0  0  0  0  0  0  0
    7.2790   -0.8750   18.2550 H   0  0  0  0  0  0  0  0  0  0  0  0
    6.3070   -1.4840   21.6690 C   0  0  0  0  0  0  0  0  0  0  0  0
    5.2220   -2.0060   21.4940 O   0  0  0  0  0  0  0  0  0  0  0  0
    7.2840   -1.7700   22.8260 C   0  0  1  0  0  0  0  0  0  0  0  0
    7.4880   -3.2960   22.9610 C   0  0  0  0  0  0  0  0  0  0  0  0
    6.2660   -3.9500   23.3950 N   0  0  0  0  0  0  0  0  0  0  0  0
    5.8250   -5.1980   22.7740 C   0  0  0  0  0  0  0  0  0  0  0  0
    6.3940   -6.4330   23.4070 C   0  0  0  0  0  0  0  0  0  0  0  0
    7.7230   -6.7590   23.5410 C   0  0  0  0  0  0  0  0  0  0  0  0
    7.7110   -7.9940   24.2020 C   0  0  0  0  0  0  0  0  0  0  0  0
    6.4770   -8.4130   24.4590 N   0  0  0  0  0  0  0  0  0  0  0  0
    5.6860   -7.4540   23.9540 N   0  0  0  0  0  0  0  0  0  0  0  0
    4.2470   -7.5620   24.0220 C   0  0  0  0  0  0  0  0  0  0  0  0
    3.8080   -7.5910   23.0200 H   0  0  0  0  0  0  0  0  0  0  0  0
    3.9960   -8.4900   24.5290 H   0  0  0  0  0  0  0  0  0  0  0  0
    3.8200   -6.7150   24.5630 H   0  0  0  0  0  0  0  0  0  0  0  0
    8.5630   -8.5950   24.4690 H   0  0  0  0  0  0  0  0  0  0  0  0
    8.5630   -6.1640   23.2040 H   0  0  0  0  0  0  0  0  0  0  0  0
    4.7290   -5.2250   22.7540 H   0  0  0  0  0  0  0  0  0  0  0  0
    6.1460   -5.1610   21.7260 H   0  0  0  0  0  0  0  0  0  0  0  0
    5.6360   -3.5430   24.5400 C   0  0  0  0  0  0  0  0  0  0  0  0
    4.8820   -4.2790   25.1570 O   0  0  0  0  0  0  0  0  0  0  0  0
    5.8900   -2.1080   24.9380 C   0  0  0  0  0  0  0  0  0  0  0  0
    5.2760   -1.6150   26.0940 C   0  0  0  0  0  0  0  0  0  0  0  0
    5.3640   -0.2830   26.4470 C   0  0  0  0  0  0  0  0  0  0  0  0
    6.0660    0.5560   25.5930 C   0  0  0  0  0  0  0  0  0  0  0  0
    6.1400    1.8640   25.9040 F   0  0  0  0  0  0  0  0  0  0  0  0
    6.6900    0.1030   24.4430 C   0  0  0  0  0  0  0  0  0  0  0  0
    6.6510   -1.2600   24.1200 C   0  0  0  0  0  0  0  0  0  0  0  0
    7.1880    0.8370   23.8150 H   0  0  0  0  0  0  0  0  0  0  0  0
    4.8940    0.1290   27.3400 H   0  0  0  0  0  0  0  0  0  0  0  0
    4.7040   -2.2830   26.7220 H   0  0  0  0  0  0  0  0  0  0  0  0
    7.7760   -3.7230   22.0050 H   0  0  0  0  0  0  0  0  0  0  0  0
    8.3100   -3.4930   23.6670 H   0  0  0  0  0  0  0  0  0  0  0  0
    8.0810    1.0120   21.6210 H   0  0  0  0  0  0  0  0  0  0  0  0
    8.8340   -0.0330   20.4400 H   0  0  0  0  0  0  0  0  0  0  0  0
    8.9440   -0.4210   23.2610 H   0  0  0  0  0  0  0  0  0  0  0  0
   10.6060   -1.2050   21.6500 H   0  0  0  0  0  0  0  0  0  0  0  0
   10.1240   -2.5190   22.7180 H   0  0  0  0  0  0  0  0  0  0  0  0
    9.5120   -2.4540   21.0600 H   0  0  0  0  0  0  0  0  0  0  0  0
  1  2  1  0  0  0  0
  1 57  1  0  0  0  0
  1 58  1  0  0  0  0
  1 59  1  0  0  0  0
  2  3  1  0  0  0  0
  2 23  1  0  0  0  0
  2 56  1  1  0  0  0
  3  4  1  0  0  0  0
  3 54  1  0  0  0  0
  3 55  1  0  0  0  0
  4  5  1  0  0  0  0
  4 21  1  0  0  0  0
  5  6  2  0  0  0  0
  5 14  1  0  0  0  0
  6  7  1  0  0  0  0
  6 20  1  0  0  0  0
  7  8  2  0  0  0  0
  8  9  1  0  0  0  0
  8 19  1  0  0  0  0
  9 10  2  0  0  0  0
  9 14  1  0  0  0  0
 10 11  1  0  0  0  0
 10 18  1  0  0  0  0
 11 12  2  0  0  0  0
 11 17  1  0  0  0  0
 12 13  1  0  0  0  0
 12 16  1  0  0  0  0
 13 14  2  0  0  0  0
 13 15  1  0  0  0  0
 21 22  2  0  0  0  0
 23 21  1  6  0  0  0
 23 24  1  0  0  0  0
 23 48  1  0  0  0  0
 24 25  1  0  0  0  0
 24 52  1  0  0  0  0
 24 53  1  0  0  0  0
 25 26  1  0  0  0  0
 25 40  1  0  0  0  0
 26 27  1  0  0  0  0
 26 38  1  0  0  0  0
 26 39  1  0  0  0  0
 27 28  2  0  0  0  0
 27 31  1  0  0  0  0
 28 29  1  0  0  0  0
 28 37  1  0  0  0  0
 29 30  2  0  0  0  0
 29 36  1  0  0  0  0
 30 31  1  0  0  0  0
 31 32  1  0  0  0  0
 32 33  1  0  0  0  0
 32 34  1  0  0  0  0
 32 35  1  0  0  0  0
 40 41  2  0  0  0  0
 40 42  1  0  0  0  0
 42 43  2  0  0  0  0
 42 48  1  0  0  0  0
 43 44  1  0  0  0  0
 43 51  1  0  0  0  0
 44 45  2  0  0  0  0
 44 50  1  0  0  0  0
 45 46  1  0  0  0  0
 45 47  1  0  0  0  0
 47 48  2  0  0  0  0
 47 49  1  0  0  0  0
M  END
>  <MODEL>
       1

$$$$
