output/tmp_first_model_19_32.pdb
 OpenBabel07232603163D

 72 77  0  0  1  0  0  0  0  0999 V2000
    7.6850   -2.7700   23.5100 C   0  0  0  0  0  0  0  0  0  0  0  0
    7.9010   -1.9870   22.2210 C   0  0  1  0  0  0  0  0  0  0  0  0
    6.5690   -1.5550   21.5920 C   0  0  0  0  0  0  0  0  0  0  0  0
    6.9520   -0.4210   20.7820 N   0  0  0  0  0  0  0  0  0  0  0  0
    6.1630    0.0900   19.7260 C   0  0  0  0  0  0  0  0  0  0  0  0
    6.5120   -0.1840   18.4280 C   0  0  0  0  0  0  0  0  0  0  0  0
    5.8150    0.2460   17.3490 N   0  0  0  0  0  0  0  0  0  0  0  0
    4.7610    0.9930   17.5780 C   0  0  0  0  0  0  0  0  0  0  0  0
    4.3000    1.3600   18.8750 C   0  0  0  0  0  0  0  0  0  0  0  0
    3.1920    2.2280   19.0650 C   0  0  0  0  0  0  0  0  0  0  0  0
    2.8030    2.6000   20.3240 C   0  0  0  0  0  0  0  0  0  0  0  0
    3.4820    2.1040   21.4570 C   0  0  0  0  0  0  0  0  0  0  0  0
    4.5420    1.2370   21.3000 C   0  0  0  0  0  0  0  0  0  0  0  0
    5.0010    0.8700   20.0000 C   0  0  0  0  0  0  0  0  0  0  0  0
    5.0720    0.8830   22.1800 H   0  0  0  0  0  0  0  0  0  0  0  0
    3.1760    2.4230   22.4500 H   0  0  0  0  0  0  0  0  0  0  0  0
    1.9790    3.2960   20.4550 H   0  0  0  0  0  0  0  0  0  0  0  0
    2.6910    2.6160   18.1840 H   0  0  0  0  0  0  0  0  0  0  0  0
    4.2080    1.3580   16.7110 H   0  0  0  0  0  0  0  0  0  0  0  0
    7.3950   -0.7860   18.2230 H   0  0  0  0  0  0  0  0  0  0  0  0
    8.1350    0.1610   21.1610 C   0  0  0  0  0  0  0  0  0  0  0  0
    8.5990    1.1880   20.6930 O   0  0  0  0  0  0  0  0  0  0  0  0
    8.7280   -0.6650   22.3310 C   0  0  1  0  0  0  0  0  0  0  0  0
    8.4320    0.0710   23.6600 C   0  0  0  0  0  0  0  0  0  0  0  0
    9.1640    1.3170   23.7730 N   0  0  0  0  0  0  0  0  0  0  0  0
    8.5500    2.4230   24.4870 C   0  0  0  0  0  0  0  0  0  0  0  0
    7.4320    3.0660   23.6640 C   0  0  0  0  0  0  0  0  0  0  0  0
    7.9920    3.6550   22.3930 N   0  3  1  0  0  0  0  0  0  0  0  0
    7.0410    3.7330   21.2270 C   0  0  0  0  0  0  0  0  0  0  0  0
    6.1740    4.9760   21.2070 C   0  0  0  0  0  0  0  0  0  0  0  0
    6.9610    6.1440   21.2700 O   0  0  0  0  0  0  0  0  0  0  0  0
    7.7140    6.2350   22.4820 C   0  0  0  0  0  0  0  0  0  0  0  0
    8.5530    7.5020   22.3380 C   0  0  0  0  0  0  0  0  0  0  0  0
    9.3530    7.3590   21.6060 H   0  0  0  0  0  0  0  0  0  0  0  0
    8.9940    7.8050   23.2950 H   0  0  0  0  0  0  0  0  0  0  0  0
    7.9160    8.3170   21.9840 H   0  0  0  0  0  0  0  0  0  0  0  0
    6.7770    6.3850   23.6850 C   0  0  0  0  0  0  0  0  0  0  0  0
    6.1210    5.5240   23.8210 H   0  0  0  0  0  0  0  0  0  0  0  0
    6.1360    7.2630   23.5570 H   0  0  0  0  0  0  0  0  0  0  0  0
    7.3600    6.5110   24.6030 H   0  0  0  0  0  0  0  0  0  0  0  0
    8.6540    5.0090   22.6030 C   0  0  0  0  0  0  0  0  0  0  0  0
    9.1200    5.0300   23.5920 H   0  0  0  0  0  0  0  0  0  0  0  0
    9.4530    5.1050   21.8590 H   0  0  0  0  0  0  0  0  0  0  0  0
    5.6150    5.0260   20.2650 H   0  0  0  0  0  0  0  0  0  0  0  0
    5.4340    4.9490   22.0210 H   0  0  0  0  0  0  0  0  0  0  0  0
    7.6530    3.7080   20.3230 H   0  0  0  0  0  0  0  0  0  0  0  0
    6.4260    2.8380   21.2180 H   0  0  0  0  0  0  0  0  0  0  0  0
    8.7010    2.9770   22.0710 H   0  0  0  0  0  0  0  0  0  0  0  0
    6.6660    2.3300   23.3880 H   0  0  0  0  0  0  0  0  0  0  0  0
    6.9370    3.8310   24.2600 H   0  0  0  0  0  0  0  0  0  0  0  0
    8.1780    2.0800   25.4600 H   0  0  0  0  0  0  0  0  0  0  0  0
    9.3570    3.1340   24.6710 H   0  0  0  0  0  0  0  0  0  0  0  0
   10.5190    1.3360   23.5810 C   0  0  0  0  0  0  0  0  0  0  0  0
   11.2270    2.2680   23.9370 O   0  0  0  0  0  0  0  0  0  0  0  0
   11.0760    0.1570   22.8340 C   0  0  0  0  0  0  0  0  0  0  0  0
   12.4630    0.0800   22.6980 C   0  0  0  0  0  0  0  0  0  0  0  0
   13.0310   -0.8200   21.8220 C   0  0  0  0  0  0  0  0  0  0  0  0
   12.1900   -1.6850   21.1260 C   0  0  0  0  0  0  0  0  0  0  0  0
   12.9190   -2.7110   19.9330 Cl  0  0  0  0  0  0  0  0  0  0  0  0
   10.8250   -1.7120   21.3440 C   0  0  0  0  0  0  0  0  0  0  0  0
   10.2360   -0.7790   22.2060 C   0  0  0  0  0  0  0  0  0  0  0  0
   10.2260   -2.4550   20.8290 H   0  0  0  0  0  0  0  0  0  0  0  0
   14.1030   -0.8540   21.6490 H   0  0  0  0  0  0  0  0  0  0  0  0
   13.0820    0.7610   23.2690 H   0  0  0  0  0  0  0  0  0  0  0  0
    8.7070   -0.5870   24.4930 H   0  0  0  0  0  0  0  0  0  0  0  0
    7.3590    0.2630   23.7360 H   0  0  0  0  0  0  0  0  0  0  0  0
    5.8480   -1.2720   22.3760 H   0  0  0  0  0  0  0  0  0  0  0  0
    6.1060   -2.3370   20.9800 H   0  0  0  0  0  0  0  0  0  0  0  0
    8.3920   -2.6340   21.4890 H   0  0  0  0  0  0  0  0  0  0  0  0
    7.1060   -3.6790   23.3190 H   0  0  0  0  0  0  0  0  0  0  0  0
    7.1110   -2.1690   24.2240 H   0  0  0  0  0  0  0  0  0  0  0  0
    8.6310   -3.0530   23.9830 H   0  0  0  0  0  0  0  0  0  0  0  0
  1  2  1  0  0  0  0
  1 70  1  0  0  0  0
  1 71  1  0  0  0  0
  1 72  1  0  0  0  0
  2  3  1  0  0  0  0
  2 23  1  0  0  0  0
  2 69  1  6  0  0  0
  3  4  1  0  0  0  0
  3 67  1  0  0  0  0
  3 68  1  0  0  0  0
  4  5  1  0  0  0  0
  4 21  1  0  0  0  0
  5  6  2  0  0  0  0
  5 14  1  0  0  0  0
  6  7  1  0  0  0  0
  6 20  1  0  0  0  0
  7  8  2  0  0  0  0
  8  9  1  0  0  0  0
  8 19  1  0  0  0  0
  9 10  2  0  0  0  0
  9 14  1  0  0  0  0
 10 11  1  0  0  0  0
 10 18  1  0  0  0  0
 11 12  2  0  0  0  0
 11 17  1  0  0  0  0
 12 13  1  0  0  0  0
 12 16  1  0  0  0  0
 13 14  2  0  0  0  0
 13 15  1  0  0  0  0
 21 22  2  0  0  0  0
 23 21  1  6  0  0  0
 23 24  1  0  0  0  0
 23 61  1  0  0  0  0
 24 25  1  0  0  0  0
 24 65  1  0  0  0  0
 24 66  1  0  0  0  0
 25 26  1  0  0  0  0
 25 53  1  0  0  0  0
 26 27  1  0  0  0  0
 26 51  1  0  0  0  0
 26 52  1  0  0  0  0
 27 28  1  0  0  0  0
 27 49  1  0  0  0  0
 27 50  1  0  0  0  0
 28 29  1  0  0  0  0
 28 41  1  0  0  0  0
 28 48  1  6  0  0  0
 29 30  1  0  0  0  0
 29 46  1  0  0  0  0
 29 47  1  0  0  0  0
 30 31  1  0  0  0  0
 30 44  1  0  0  0  0
 30 45  1  0  0  0  0
 31 32  1  0  0  0  0
 32 33  1  0  0  0  0
 32 37  1  0  0  0  0
 32 41  1  0  0  0  0
 33 34  1  0  0  0  0
 33 35  1  0  0  0  0
 33 36  1  0  0  0  0
 37 38  1  0  0  0  0
 37 39  1  0  0  0  0
 37 40  1  0  0  0  0
 41 42  1  0  0  0  0
 41 43  1  0  0  0  0
 53 54  2  0  0  0  0
 53 55  1  0  0  0  0
 55 56  2  0  0  0  0
 55 61  1  0  0  0  0
 56 57  1  0  0  0  0
 56 64  1  0  0  0  0
 57 58  2  0  0  0  0
 57 63  1  0  0  0  0
 58 59  1  0  0  0  0
 58 60  1  0  0  0  0
 60 61  2  0  0  0  0
 60 62  1  0  0  0  0
M  CHG  1  28   1
M  END
>  <MODEL>
       1

$$$$
