output/tmp_first_model_18_12.pdb
 OpenBabel07232602473D

 47 50  0  0  1  0  0  0  0  0999 V2000
    8.4350    1.4110   20.7860 O   0  0  0  0  0  0  0  0  0  0  0  0
    7.8530    0.6340   21.5250 C   0  0  0  0  0  0  0  0  0  0  0  0
    6.9370   -0.4500   20.9170 C   0  0  0  0  0  0  0  0  0  0  0  0
    6.1110    0.0850   19.7700 C   0  0  0  0  0  0  0  0  0  0  0  0
    6.4270   -0.2070   18.4660 C   0  0  0  0  0  0  0  0  0  0  0  0
    5.7580    0.2430   17.3730 N   0  0  0  0  0  0  0  0  0  0  0  0
    4.7330    1.0320   17.5760 C   0  0  0  0  0  0  0  0  0  0  0  0
    4.2850    1.4250   18.8690 C   0  0  0  0  0  0  0  0  0  0  0  0
    3.1680    2.2820   19.0430 C   0  0  0  0  0  0  0  0  0  0  0  0
    2.7640    2.6470   20.3000 C   0  0  0  0  0  0  0  0  0  0  0  0
    3.4620    2.1700   21.4310 C   0  0  0  0  0  0  0  0  0  0  0  0
    4.5470    1.3390   21.2880 C   0  0  0  0  0  0  0  0  0  0  0  0
    4.9910    0.9420   19.9970 C   0  0  0  0  0  0  0  0  0  0  0  0
    5.0700    0.9870   22.1710 H   0  0  0  0  0  0  0  0  0  0  0  0
    3.1360    2.4660   22.4220 H   0  0  0  0  0  0  0  0  0  0  0  0
    1.9110    3.3060   20.4350 H   0  0  0  0  0  0  0  0  0  0  0  0
    2.6460    2.6500   18.1630 H   0  0  0  0  0  0  0  0  0  0  0  0
    4.1990    1.4000   16.6990 H   0  0  0  0  0  0  0  0  0  0  0  0
    7.2740   -0.8570   18.2470 H   0  0  0  0  0  0  0  0  0  0  0  0
    6.2900   -0.9320   21.6580 H   0  0  0  0  0  0  0  0  0  0  0  0
    7.5980   -1.2360   20.5270 H   0  0  0  0  0  0  0  0  0  0  0  0
    8.0050    0.6930   22.8830 N   0  0  0  0  0  0  0  0  0  0  0  0
    8.9000    1.6810   23.4820 C   0  0  0  0  0  0  0  0  0  0  0  0
    9.0800    1.2030   24.9230 C   0  0  2  0  0  0  0  0  0  0  0  0
   10.3570    0.4020   25.1310 C   0  0  0  0  0  0  0  0  0  0  0  0
   11.4630    1.1750   24.8060 F   0  0  0  0  0  0  0  0  0  0  0  0
   10.4750    0.0690   26.1670 H   0  0  0  0  0  0  0  0  0  0  0  0
   10.3550   -0.4820   24.4920 H   0  0  0  0  0  0  0  0  0  0  0  0
    7.7920    0.4360   25.2520 C   0  0  0  0  0  0  0  0  0  0  0  0
    6.6540    1.3650   25.7490 C   0  0  0  0  0  0  0  0  0  0  0  0
    5.6650    0.4690   26.5180 C   0  0  0  0  0  0  0  0  0  0  0  0
    6.4350   -0.8170   26.8720 C   0  0  0  0  0  0  0  0  0  0  0  0
    7.8750   -0.5850   26.3970 C   0  0  0  0  0  0  0  0  0  0  0  0
    8.3600   -1.5150   26.0840 H   0  0  0  0  0  0  0  0  0  0  0  0
    8.4700   -0.1800   27.2280 H   0  0  0  0  0  0  0  0  0  0  0  0
    5.9980   -1.6760   26.3530 H   0  0  0  0  0  0  0  0  0  0  0  0
    6.4010   -1.0350   27.9440 H   0  0  0  0  0  0  0  0  0  0  0  0
    4.7930    0.2380   25.9000 H   0  0  0  0  0  0  0  0  0  0  0  0
    5.2970    0.9800   27.4130 H   0  0  0  0  0  0  0  0  0  0  0  0
    6.1740    1.8990   24.9230 H   0  0  0  0  0  0  0  0  0  0  0  0
    7.0520    2.1320   26.4220 H   0  0  0  0  0  0  0  0  0  0  0  0
    7.4350   -0.1940   23.8920 C   0  0  0  0  0  0  0  0  0  0  0  0
    6.3520   -0.2780   23.7820 H   0  0  0  0  0  0  0  0  0  0  0  0
    7.8580   -1.2020   23.8090 H   0  0  0  0  0  0  0  0  0  0  0  0
    9.1390    2.0360   25.5940 H   0  0  0  0  0  0  0  0  0  0  0  0
    8.4550    2.6850   23.4500 H   0  0  0  0  0  0  0  0  0  0  0  0
    9.8620    1.7310   22.9680 H   0  0  0  0  0  0  0  0  0  0  0  0
  1  2  2  0  0  0  0
  2  3  1  0  0  0  0
  2 22  1  0  0  0  0
  3  4  1  0  0  0  0
  3 20  1  0  0  0  0
  3 21  1  0  0  0  0
  4  5  2  0  0  0  0
  4 13  1  0  0  0  0
  5  6  1  0  0  0  0
  5 19  1  0  0  0  0
  6  7  2  0  0  0  0
  7  8  1  0  0  0  0
  7 18  1  0  0  0  0
  8  9  2  0  0  0  0
  8 13  1  0  0  0  0
  9 10  1  0  0  0  0
  9 17  1  0  0  0  0
 10 11  2  0  0  0  0
 10 16  1  0  0  0  0
 11 12  1  0  0  0  0
 11 15  1  0  0  0  0
 12 13  2  0  0  0  0
 12 14  1  0  0  0  0
 22 23  1  0  0  0  0
 22 42  1  0  0  0  0
 23 24  1  0  0  0  0
 23 46  1  0  0  0  0
 23 47  1  0  0  0  0
 24 25  1  0  0  0  0
 24 29  1  0  0  0  0
 24 45  1  1  0  0  0
 25 26  1  0  0  0  0
 25 27  1  0  0  0  0
 25 28  1  0  0  0  0
 29 30  1  0  0  0  0
 29 33  1  0  0  0  0
 29 42  1  0  0  0  0
 30 31  1  0  0  0  0
 30 40  1  0  0  0  0
 30 41  1  0  0  0  0
 31 32  1  0  0  0  0
 31 38  1  0  0  0  0
 31 39  1  0  0  0  0
 32 33  1  0  0  0  0
 32 36  1  0  0  0  0
 32 37  1  0  0  0  0
 33 34  1  0  0  0  0
 33 35  1  0  0  0  0
 42 43  1  0  0  0  0
 42 44  1  0  0  0  0
M  END
>  <MODEL>
       1

$$$$
