output/tmp_first_model_14_91.pdb
 OpenBabel07232601073D

 56 61  0  0  1  0  0  0  0  0999 V2000
    7.7850   -2.9140   23.3490 C   0  0  0  0  0  0  0  0  0  0  0  0
    8.0730   -1.8740   22.2650 C   0  0  1  0  0  0  0  0  0  0  0  0
    6.8970   -1.7210   21.2870 C   0  0  0  0  0  0  0  0  0  0  0  0
    7.0170   -0.3570   20.8220 N   0  0  0  0  0  0  0  0  0  0  0  0
    6.2030    0.1460   19.7750 C   0  0  0  0  0  0  0  0  0  0  0  0
    6.4760   -0.2300   18.4840 C   0  0  0  0  0  0  0  0  0  0  0  0
    5.7950    0.1930   17.3910 N   0  0  0  0  0  0  0  0  0  0  0  0
    4.7870    1.0050   17.5960 C   0  0  0  0  0  0  0  0  0  0  0  0
    4.3470    1.4230   18.8820 C   0  0  0  0  0  0  0  0  0  0  0  0
    3.2130    2.2630   19.0360 C   0  0  0  0  0  0  0  0  0  0  0  0
    2.7640    2.6000   20.2810 C   0  0  0  0  0  0  0  0  0  0  0  0
    3.4310    2.1170   21.4300 C   0  0  0  0  0  0  0  0  0  0  0  0
    4.5480    1.3260   21.3080 C   0  0  0  0  0  0  0  0  0  0  0  0
    5.0500    0.9680   20.0220 C   0  0  0  0  0  0  0  0  0  0  0  0
    5.0500    0.9690   22.2020 H   0  0  0  0  0  0  0  0  0  0  0  0
    3.0570    2.3810   22.4150 H   0  0  0  0  0  0  0  0  0  0  0  0
    1.8950    3.2420   20.3960 H   0  0  0  0  0  0  0  0  0  0  0  0
    2.7210    2.6290   18.1390 H   0  0  0  0  0  0  0  0  0  0  0  0
    4.2460    1.3550   16.7180 H   0  0  0  0  0  0  0  0  0  0  0  0
    7.3110   -0.9030   18.2930 H   0  0  0  0  0  0  0  0  0  0  0  0
    7.8400    0.4360   21.5970 C   0  0  0  0  0  0  0  0  0  0  0  0
    8.0590    1.6030   21.3460 O   0  0  0  0  0  0  0  0  0  0  0  0
    8.3410   -0.4110   22.7920 C   0  0  1  0  0  0  0  0  0  0  0  0
    7.3740   -0.0540   23.9680 C   0  0  0  0  0  0  0  0  0  0  0  0
    7.8780   -0.7510   25.2590 N   0  0  0  0  0  0  0  0  0  0  0  0
    6.9830   -0.9850   26.5090 C   0  0  0  0  0  0  0  0  0  0  0  0
    6.7620   -2.4500   26.7500 C   0  0  0  0  0  0  0  0  0  0  0  0
    5.6240   -3.2840   26.6150 C   0  0  0  0  0  0  0  0  0  0  0  0
    5.9170   -4.5640   26.8490 N   0  0  0  0  0  0  0  0  0  0  0  0
    7.2240   -4.5550   27.1540 N   0  0  0  0  0  0  0  0  0  0  0  0
    7.7650   -3.3140   27.1180 C   0  0  0  0  0  0  0  0  0  0  0  0
    8.8080   -3.1090   27.3210 H   0  0  0  0  0  0  0  0  0  0  0  0
    7.6900   -5.4330   27.3410 H   0  0  0  0  0  0  0  0  0  0  0  0
    4.6110   -3.0080   26.3320 H   0  0  0  0  0  0  0  0  0  0  0  0
    6.0620   -0.4240   26.3460 H   0  0  0  0  0  0  0  0  0  0  0  0
    7.5330   -0.5310   27.3370 H   0  0  0  0  0  0  0  0  0  0  0  0
    9.3640   -0.6710   25.3870 C   0  0  0  0  0  0  0  0  0  0  0  0
    9.4900   -0.6490   25.3750 O   0  0  0  0  0  0  0  0  0  0  0  0
   10.3790   -0.1750   24.4400 C   0  0  0  0  0  0  0  0  0  0  0  0
   11.7040    0.3670   24.6120 C   0  0  0  0  0  0  0  0  0  0  0  0
   12.5450    0.5320   23.5390 C   0  0  0  0  0  0  0  0  0  0  0  0
   12.0640    0.2410   22.2700 C   0  0  0  0  0  0  0  0  0  0  0  0
   12.9440    0.2810   21.2650 F   0  0  0  0  0  0  0  0  0  0  0  0
   10.7260   -0.0400   22.0530 C   0  0  0  0  0  0  0  0  0  0  0  0
    9.8440   -0.1900   23.1380 C   0  0  0  0  0  0  0  0  0  0  0  0
   10.3590   -0.1220   21.0340 H   0  0  0  0  0  0  0  0  0  0  0  0
   13.5660    0.8620   23.6940 H   0  0  0  0  0  0  0  0  0  0  0  0
   12.1410    0.6430   25.5790 H   0  0  0  0  0  0  0  0  0  0  0  0
    7.3870    1.0250   24.1470 H   0  0  0  0  0  0  0  0  0  0  0  0
    6.3510   -0.4000   23.7810 H   0  0  0  0  0  0  0  0  0  0  0  0
    5.9400   -1.8940   21.8080 H   0  0  0  0  0  0  0  0  0  0  0  0
    6.9340   -2.4120   20.4420 H   0  0  0  0  0  0  0  0  0  0  0  0
    8.9710   -2.1600   21.6940 H   0  0  0  0  0  0  0  0  0  0  0  0
    7.8530   -3.9360   22.9600 H   0  0  0  0  0  0  0  0  0  0  0  0
    6.7700   -2.7620   23.7310 H   0  0  0  0  0  0  0  0  0  0  0  0
    8.4520   -2.7950   24.2100 H   0  0  0  0  0  0  0  0  0  0  0  0
  1  2  1  0  0  0  0
  1 54  1  0  0  0  0
  1 55  1  0  0  0  0
  1 56  1  0  0  0  0
  2  3  1  0  0  0  0
  2 23  1  0  0  0  0
  2 53  1  6  0  0  0
  3  4  1  0  0  0  0
  3 51  1  0  0  0  0
  3 52  1  0  0  0  0
  4  5  1  0  0  0  0
  4 21  1  0  0  0  0
  5  6  2  0  0  0  0
  5 14  1  0  0  0  0
  6  7  1  0  0  0  0
  6 20  1  0  0  0  0
  7  8  2  0  0  0  0
  8  9  1  0  0  0  0
  8 19  1  0  0  0  0
  9 10  2  0  0  0  0
  9 14  1  0  0  0  0
 10 11  1  0  0  0  0
 10 18  1  0  0  0  0
 11 12  2  0  0  0  0
 11 17  1  0  0  0  0
 12 13  1  0  0  0  0
 12 16  1  0  0  0  0
 13 14  2  0  0  0  0
 13 15  1  0  0  0  0
 21 22  2  0  0  0  0
 23 21  1  6  0  0  0
 23 24  1  0  0  0  0
 23 45  1  0  0  0  0
 24 25  1  0  0  0  0
 24 49  1  0  0  0  0
 24 50  1  0  0  0  0
 25 26  1  0  0  0  0
 25 37  1  0  0  0  0
 26 27  1  0  0  0  0
 26 35  1  0  0  0  0
 26 36  1  0  0  0  0
 27 28  1  0  0  0  0
 27 31  2  0  0  0  0
 28 29  2  0  0  0  0
 28 34  1  0  0  0  0
 29 30  1  0  0  0  0
 30 31  1  0  0  0  0
 30 33  1  0  0  0  0
 31 32  1  0  0  0  0
 37 38  2  0  0  0  0
 37 39  1  0  0  0  0
 39 40  2  0  0  0  0
 39 45  1  0  0  0  0
 40 41  1  0  0  0  0
 40 48  1  0  0  0  0
 41 42  2  0  0  0  0
 41 47  1  0  0  0  0
 42 43  1  0  0  0  0
 42 44  1  0  0  0  0
 44 45  2  0  0  0  0
 44 46  1  0  0  0  0
M  END
>  <MODEL>
       1

$$$$
