output/tmp_first_model_18_10.pdb
 OpenBabel07232602473D

 72 77  0  0  1  0  0  0  0  0999 V2000
    2.0610   -1.1030   28.6630 C   0  0  0  0  0  0  0  0  0  0  0  0
    3.5150   -1.5160   28.7290 C   0  0  1  0  0  0  0  0  0  0  0  0
    4.3860   -0.5330   27.9530 C   0  0  0  0  0  0  0  0  0  0  0  0
    5.7920   -0.5500   28.4900 N   0  3  2  0  0  0  0  0  0  0  0  0
    6.7850   -0.0760   27.5060 C   0  0  0  0  0  0  0  0  0  0  0  0
    7.1600   -1.1740   26.5140 C   0  0  0  0  0  0  0  0  0  0  0  0
    7.9720   -0.6760   25.4350 N   0  0  0  0  0  0  0  0  0  0  0  0
    7.3170   -0.3080   24.1930 C   0  0  0  0  0  0  0  0  0  0  0  0
    8.1840   -0.6210   22.9600 C   0  0  2  0  0  0  0  0  0  0  0  0
    7.7110    0.3100   21.8170 C   0  0  0  0  0  0  0  0  0  0  0  0
    8.0240    1.4660   21.6320 O   0  0  0  0  0  0  0  0  0  0  0  0
    6.8170   -0.3970   21.0330 N   0  0  0  0  0  0  0  0  0  0  0  0
    6.1300    0.1700   19.9290 C   0  0  0  0  0  0  0  0  0  0  0  0
    6.5100   -0.1690   18.6520 C   0  0  0  0  0  0  0  0  0  0  0  0
    5.8990    0.2690   17.5260 N   0  0  0  0  0  0  0  0  0  0  0  0
    4.8670    1.0620   17.6700 C   0  0  0  0  0  0  0  0  0  0  0  0
    4.3510    1.4750   18.9300 C   0  0  0  0  0  0  0  0  0  0  0  0
    3.2130    2.3170   19.0140 C   0  0  0  0  0  0  0  0  0  0  0  0
    2.7010    2.6660   20.2330 C   0  0  0  0  0  0  0  0  0  0  0  0
    3.3110    2.2000   21.4190 C   0  0  0  0  0  0  0  0  0  0  0  0
    4.4300    1.4040   21.3620 C   0  0  0  0  0  0  0  0  0  0  0  0
    4.9850    1.0170   20.1080 C   0  0  0  0  0  0  0  0  0  0  0  0
    4.8960    1.0610   22.2810 H   0  0  0  0  0  0  0  0  0  0  0  0
    2.8910    2.4740   22.3810 H   0  0  0  0  0  0  0  0  0  0  0  0
    1.8260    3.3070   20.2950 H   0  0  0  0  0  0  0  0  0  0  0  0
    2.7710    2.6720   18.0870 H   0  0  0  0  0  0  0  0  0  0  0  0
    4.3730    1.4110   16.7640 H   0  0  0  0  0  0  0  0  0  0  0  0
    7.3640   -0.8310   18.5080 H   0  0  0  0  0  0  0  0  0  0  0  0
    6.6150   -1.7600   21.4940 C   0  0  0  0  0  0  0  0  0  0  0  0
    7.9000   -2.0070   22.2820 C   0  0  2  0  0  0  0  0  0  0  0  0
    7.8880   -3.2190   23.1940 C   0  0  0  0  0  0  0  0  0  0  0  0
    7.0610   -3.1660   23.9100 H   0  0  0  0  0  0  0  0  0  0  0  0
    7.7770   -4.1400   22.6100 H   0  0  0  0  0  0  0  0  0  0  0  0
    8.8230   -3.2900   23.7580 H   0  0  0  0  0  0  0  0  0  0  0  0
    8.7000   -2.1380   21.5380 H   0  0  0  0  0  0  0  0  0  0  0  0
    5.7370   -1.8350   22.1590 H   0  0  0  0  0  0  0  0  0  0  0  0
    6.4660   -2.4490   20.6560 H   0  0  0  0  0  0  0  0  0  0  0  0
    9.6370   -0.4440   23.2990 C   0  0  0  0  0  0  0  0  0  0  0  0
   10.5200   -0.5220   22.2410 C   0  0  0  0  0  0  0  0  0  0  0  0
   11.8690   -0.4710   22.4780 C   0  0  0  0  0  0  0  0  0  0  0  0
   12.7990   -0.6760   21.0680 Cl  0  0  0  0  0  0  0  0  0  0  0  0
   12.4300   -0.3000   23.7410 C   0  0  0  0  0  0  0  0  0  0  0  0
   11.5560   -0.2480   24.8080 C   0  0  0  0  0  0  0  0  0  0  0  0
   10.1750   -0.2880   24.5810 C   0  0  0  0  0  0  0  0  0  0  0  0
    9.2540   -0.2870   25.7420 C   0  0  0  0  0  0  0  0  0  0  0  0
    9.6500   -0.0670   26.8770 O   0  0  0  0  0  0  0  0  0  0  0  0
   11.9340   -0.1990   25.8270 H   0  0  0  0  0  0  0  0  0  0  0  0
   13.5070   -0.2280   23.8740 H   0  0  0  0  0  0  0  0  0  0  0  0
   10.1920   -0.6300   21.2120 H   0  0  0  0  0  0  0  0  0  0  0  0
    7.0840    0.7680   24.1770 H   0  0  0  0  0  0  0  0  0  0  0  0
    6.3670   -0.8540   24.1150 H   0  0  0  0  0  0  0  0  0  0  0  0
    6.2600   -1.6340   26.0800 H   0  0  0  0  0  0  0  0  0  0  0  0
    7.7210   -1.9640   27.0190 H   0  0  0  0  0  0  0  0  0  0  0  0
    7.6790    0.2600   28.0270 H   0  0  0  0  0  0  0  0  0  0  0  0
    6.3760    0.7900   26.9730 H   0  0  0  0  0  0  0  0  0  0  0  0
    6.0860   -1.8750   29.1040 C   0  0  0  0  0  0  0  0  0  0  0  0
    5.2170   -1.9910   30.3430 C   0  0  2  0  0  0  0  0  0  0  0  0
    5.2210   -3.4120   30.8550 C   0  0  0  0  0  0  0  0  0  0  0  0
    6.2670   -3.7290   30.8880 H   0  0  0  0  0  0  0  0  0  0  0  0
    4.6790   -4.0790   30.1740 H   0  0  0  0  0  0  0  0  0  0  0  0
    4.7870   -3.5020   31.8530 H   0  0  0  0  0  0  0  0  0  0  0  0
    3.9080   -1.4950   30.0940 O   0  0  0  0  0  0  0  0  0  0  0  0
    5.6290   -1.3130   31.1050 H   0  0  0  0  0  0  0  0  0  0  0  0
    5.8620   -2.6800   28.3960 H   0  0  0  0  0  0  0  0  0  0  0  0
    7.1410   -1.9610   29.3570 H   0  0  0  0  0  0  0  0  0  0  0  0
    5.8180    0.1210   29.2780 H   0  0  0  0  0  0  0  0  0  0  0  0
    4.3880   -0.7680   26.8880 H   0  0  0  0  0  0  0  0  0  0  0  0
    4.0020    0.4810   28.0690 H   0  0  0  0  0  0  0  0  0  0  0  0
    3.6420   -2.5360   28.3330 H   0  0  0  0  0  0  0  0  0  0  0  0
    1.9700   -0.0790   29.0400 H   0  0  0  0  0  0  0  0  0  0  0  0
    1.4480   -1.7580   29.2870 H   0  0  0  0  0  0  0  0  0  0  0  0
    1.6910   -1.1350   27.6320 H   0  0  0  0  0  0  0  0  0  0  0  0
  1  2  1  0  0  0  0
  1 70  1  0  0  0  0
  1 71  1  0  0  0  0
  1 72  1  0  0  0  0
  2  3  1  0  0  0  0
  2 62  1  0  0  0  0
  2 69  1  6  0  0  0
  3  4  1  0  0  0  0
  3 67  1  0  0  0  0
  3 68  1  0  0  0  0
  4  5  1  0  0  0  0
  4 56  1  0  0  0  0
  4 66  1  1  0  0  0
  5  6  1  0  0  0  0
  5 54  1  0  0  0  0
  5 55  1  0  0  0  0
  6  7  1  0  0  0  0
  6 52  1  0  0  0  0
  6 53  1  0  0  0  0
  7  8  1  0  0  0  0
  7 45  1  0  0  0  0
  8  9  1  0  0  0  0
  8 50  1  0  0  0  0
  8 51  1  0  0  0  0
  9 10  1  6  0  0  0
  9 30  1  0  0  0  0
  9 38  1  0  0  0  0
 10 11  2  0  0  0  0
 10 12  1  0  0  0  0
 12 13  1  0  0  0  0
 12 29  1  0  0  0  0
 13 14  2  0  0  0  0
 13 22  1  0  0  0  0
 14 15  1  0  0  0  0
 14 28  1  0  0  0  0
 15 16  2  0  0  0  0
 16 17  1  0  0  0  0
 16 27  1  0  0  0  0
 17 18  2  0  0  0  0
 17 22  1  0  0  0  0
 18 19  1  0  0  0  0
 18 26  1  0  0  0  0
 19 20  2  0  0  0  0
 19 25  1  0  0  0  0
 20 21  1  0  0  0  0
 20 24  1  0  0  0  0
 21 22  2  0  0  0  0
 21 23  1  0  0  0  0
 29 30  1  0  0  0  0
 29 36  1  0  0  0  0
 29 37  1  0  0  0  0
 30 31  1  0  0  0  0
 30 35  1  6  0  0  0
 31 32  1  0  0  0  0
 31 33  1  0  0  0  0
 31 34  1  0  0  0  0
 38 39  2  0  0  0  0
 38 44  1  0  0  0  0
 39 40  1  0  0  0  0
 39 49  1  0  0  0  0
 40 41  1  0  0  0  0
 40 42  2  0  0  0  0
 42 43  1  0  0  0  0
 42 48  1  0  0  0  0
 43 44  2  0  0  0  0
 43 47  1  0  0  0  0
 44 45  1  0  0  0  0
 45 46  2  0  0  0  0
 56 57  1  0  0  0  0
 56 64  1  0  0  0  0
 56 65  1  0  0  0  0
 57 58  1  0  0  0  0
 57 62  1  0  0  0  0
 57 63  1  1  0  0  0
 58 59  1  0  0  0  0
 58 60  1  0  0  0  0
 58 61  1  0  0  0  0
M  CHG  1   4   1
M  END
>  <MODEL>
       1

$$$$
