output/tmp_first_model_4_40.pdb
 OpenBabel07222620063D

 57 61  0  0  1  0  0  0  0  0999 V2000
    6.3060    4.6940   22.5150 C   0  0  0  0  0  0  0  0  0  0  0  0
    7.2160    4.1220   23.4890 N   0  0  0  0  0  0  0  0  0  0  0  0
    6.8240    3.0530   24.2240 C   0  0  0  0  0  0  0  0  0  0  0  0
    5.6780    2.6330   24.2170 O   0  0  0  0  0  0  0  0  0  0  0  0
    7.9000    2.3960   25.0870 C   0  0  0  0  0  0  0  0  0  0  0  0
    8.7280    1.4720   24.3400 N   0  0  0  0  0  0  0  0  0  0  0  0
    8.2310    0.1290   24.1040 C   0  0  0  0  0  0  0  0  0  0  0  0
    8.4790   -0.3330   22.6540 C   0  0  2  0  0  0  0  0  0  0  0  0
    7.6410    0.5000   21.6620 C   0  0  0  0  0  0  0  0  0  0  0  0
    7.6220    1.7100   21.5670 O   0  0  0  0  0  0  0  0  0  0  0  0
    6.9060   -0.3530   20.8680 N   0  0  0  0  0  0  0  0  0  0  0  0
    6.1320    0.1080   19.7780 C   0  0  0  0  0  0  0  0  0  0  0  0
    6.4420   -0.2350   18.4840 C   0  0  0  0  0  0  0  0  0  0  0  0
    5.7750    0.2160   17.3930 N   0  0  0  0  0  0  0  0  0  0  0  0
    4.7540    1.0130   17.5980 C   0  0  0  0  0  0  0  0  0  0  0  0
    4.3020    1.4140   18.8890 C   0  0  0  0  0  0  0  0  0  0  0  0
    3.1800    2.2710   19.0580 C   0  0  0  0  0  0  0  0  0  0  0  0
    2.7510    2.6170   20.3120 C   0  0  0  0  0  0  0  0  0  0  0  0
    3.4240    2.1230   21.4530 C   0  0  0  0  0  0  0  0  0  0  0  0
    4.5110    1.2980   21.3140 C   0  0  0  0  0  0  0  0  0  0  0  0
    4.9930    0.9380   20.0220 C   0  0  0  0  0  0  0  0  0  0  0  0
    5.0180    0.9270   22.1970 H   0  0  0  0  0  0  0  0  0  0  0  0
    3.1050    2.4160   22.4510 H   0  0  0  0  0  0  0  0  0  0  0  0
    1.8970    3.2790   20.4360 H   0  0  0  0  0  0  0  0  0  0  0  0
    2.6760    2.6460   18.1700 H   0  0  0  0  0  0  0  0  0  0  0  0
    4.2230    1.3770   16.7170 H   0  0  0  0  0  0  0  0  0  0  0  0
    7.2970   -0.8790   18.2760 H   0  0  0  0  0  0  0  0  0  0  0  0
    7.2680   -1.7430   21.0360 C   0  0  0  0  0  0  0  0  0  0  0  0
    8.0160   -1.7980   22.3820 C   0  0  2  0  0  0  0  0  0  0  0  0
    7.1510   -2.4570   23.4840 C   0  0  0  0  0  0  0  0  0  0  0  0
    6.8710   -3.8670   23.1840 C   0  0  0  0  0  0  0  0  0  0  0  0
    6.6390   -4.9710   22.9250 N   0  0  0  0  0  0  0  0  0  0  0  0
    6.1920   -1.9410   23.5920 H   0  0  0  0  0  0  0  0  0  0  0  0
    7.6640   -2.4280   24.4500 H   0  0  0  0  0  0  0  0  0  0  0  0
    8.9010   -2.4370   22.3050 H   0  0  0  0  0  0  0  0  0  0  0  0
    6.3750   -2.3720   21.0320 H   0  0  0  0  0  0  0  0  0  0  0  0
    7.9190   -2.0650   20.2200 H   0  0  0  0  0  0  0  0  0  0  0  0
    9.9650   -0.1080   22.3720 C   0  0  0  0  0  0  0  0  0  0  0  0
   10.6320   -0.8770   21.4120 C   0  0  0  0  0  0  0  0  0  0  0  0
   11.9760   -0.6540   21.1590 C   0  0  0  0  0  0  0  0  0  0  0  0
   12.8240   -1.6720   20.0260 Cl  0  0  0  0  0  0  0  0  0  0  0  0
   12.6510    0.4200   21.7410 C   0  0  0  0  0  0  0  0  0  0  0  0
   11.9880    1.2160   22.6580 C   0  0  0  0  0  0  0  0  0  0  0  0
   10.6580    0.9470   22.9790 C   0  0  0  0  0  0  0  0  0  0  0  0
    9.9710    1.8720   23.9360 C   0  0  0  0  0  0  0  0  0  0  0  0
   10.4880    2.9190   24.3070 O   0  0  0  0  0  0  0  0  0  0  0  0
   12.4620    2.0790   23.1220 H   0  0  0  0  0  0  0  0  0  0  0  0
   13.6660    0.6400   21.4310 H   0  0  0  0  0  0  0  0  0  0  0  0
   10.1020   -1.6170   20.8220 H   0  0  0  0  0  0  0  0  0  0  0  0
    8.7420   -0.5770   24.7780 H   0  0  0  0  0  0  0  0  0  0  0  0
    7.1630    0.1490   24.3250 H   0  0  0  0  0  0  0  0  0  0  0  0
    7.3770    1.8580   25.8840 H   0  0  0  0  0  0  0  0  0  0  0  0
    8.5810    3.1360   25.5040 H   0  0  0  0  0  0  0  0  0  0  0  0
    8.2000    4.3110   23.4030 H   0  0  0  0  0  0  0  0  0  0  0  0
    5.9500    3.9220   21.8260 H   0  0  0  0  0  0  0  0  0  0  0  0
    6.8150    5.4800   21.9540 H   0  0  0  0  0  0  0  0  0  0  0  0
    5.4360    5.1180   23.0160 H   0  0  0  0  0  0  0  0  0  0  0  0
  1  2  1  0  0  0  0
  1 55  1  0  0  0  0
  1 56  1  0  0  0  0
  1 57  1  0  0  0  0
  2  3  1  0  0  0  0
  2 54  1  0  0  0  0
  3  4  2  0  0  0  0
  3  5  1  0  0  0  0
  5  6  1  0  0  0  0
  5 52  1  0  0  0  0
  5 53  1  0  0  0  0
  6  7  1  0  0  0  0
  6 45  1  0  0  0  0
  7  8  1  0  0  0  0
  7 50  1  0  0  0  0
  7 51  1  0  0  0  0
  8  9  1  6  0  0  0
  8 29  1  0  0  0  0
  8 38  1  0  0  0  0
  9 10  2  0  0  0  0
  9 11  1  0  0  0  0
 11 12  1  0  0  0  0
 11 28  1  0  0  0  0
 12 13  2  0  0  0  0
 12 21  1  0  0  0  0
 13 14  1  0  0  0  0
 13 27  1  0  0  0  0
 14 15  2  0  0  0  0
 15 16  1  0  0  0  0
 15 26  1  0  0  0  0
 16 17  2  0  0  0  0
 16 21  1  0  0  0  0
 17 18  1  0  0  0  0
 17 25  1  0  0  0  0
 18 19  2  0  0  0  0
 18 24  1  0  0  0  0
 19 20  1  0  0  0  0
 19 23  1  0  0  0  0
 20 21  2  0  0  0  0
 20 22  1  0  0  0  0
 28 29  1  0  0  0  0
 28 36  1  0  0  0  0
 28 37  1  0  0  0  0
 29 30  1  0  0  0  0
 29 35  1  6  0  0  0
 30 31  1  0  0  0  0
 30 33  1  0  0  0  0
 30 34  1  0  0  0  0
 31 32  3  0  0  0  0
 38 39  2  0  0  0  0
 38 44  1  0  0  0  0
 39 40  1  0  0  0  0
 39 49  1  0  0  0  0
 40 41  1  0  0  0  0
 40 42  2  0  0  0  0
 42 43  1  0  0  0  0
 42 48  1  0  0  0  0
 43 44  2  0  0  0  0
 43 47  1  0  0  0  0
 44 45  1  0  0  0  0
 45 46  2  0  0  0  0
M  END
>  <MODEL>
       1

$$$$
