output/tmp_first_model_14_61.pdb
 OpenBabel07232601073D

 64 70  0  0  1  0  0  0  0  0999 V2000
    9.0000   -1.2710   26.5810 O   0  0  0  0  0  0  0  0  0  0  0  0
    8.7100   -0.8700   25.4590 C   0  0  0  0  0  0  0  0  0  0  0  0
    9.7370   -0.4610   24.4640 C   0  0  0  0  0  0  0  0  0  0  0  0
   10.9760   -0.0810   24.9470 C   0  0  0  0  0  0  0  0  0  0  0  0
   11.9900    0.2960   24.0930 C   0  0  0  0  0  0  0  0  0  0  0  0
   11.7570    0.1770   22.7270 C   0  0  0  0  0  0  0  0  0  0  0  0
   13.0960    0.4910   21.6730 Cl  0  0  0  0  0  0  0  0  0  0  0  0
   10.5180   -0.1850   22.2130 C   0  0  0  0  0  0  0  0  0  0  0  0
    9.4470   -0.4190   23.0930 C   0  0  0  0  0  0  0  0  0  0  0  0
    8.0110   -0.6160   22.6330 C   0  0  1  0  0  0  0  0  0  0  0  0
    7.0710   -0.1590   23.7830 C   0  0  0  0  0  0  0  0  0  0  0  0
    7.4230   -0.7560   25.0550 N   0  0  0  0  0  0  0  0  0  0  0  0
    6.4140   -0.9650   26.0790 C   0  0  0  0  0  0  0  0  0  0  0  0
    6.1860    0.2390   26.9740 C   0  0  0  0  0  0  0  0  0  0  0  0
    5.2740    1.2410   26.7170 C   0  0  0  0  0  0  0  0  0  0  0  0
    5.1800    2.2810   27.6410 C   0  0  0  0  0  0  0  0  0  0  0  0
    5.9060    2.3540   28.7490 N   0  0  0  0  0  0  0  0  0  0  0  0
    6.8030    1.4070   28.9950 N   0  0  0  0  0  0  0  0  0  0  0  0
    6.9350    0.3940   28.1460 C   0  0  0  0  0  0  0  0  0  0  0  0
    7.6920   -0.3400   28.4140 H   0  0  0  0  0  0  0  0  0  0  0  0
    4.4550    3.0820   27.5120 H   0  0  0  0  0  0  0  0  0  0  0  0
    4.6390    1.2310   25.8300 H   0  0  0  0  0  0  0  0  0  0  0  0
    5.4890   -1.2800   25.5890 H   0  0  0  0  0  0  0  0  0  0  0  0
    6.7750   -1.7870   26.6970 H   0  0  0  0  0  0  0  0  0  0  0  0
    6.0420   -0.4560   23.5570 H   0  0  0  0  0  0  0  0  0  0  0  0
    7.0790    0.9350   23.8630 H   0  0  0  0  0  0  0  0  0  0  0  0
    7.6380    0.1910   21.3660 C   0  0  0  0  0  0  0  0  0  0  0  0
    7.9770    1.3130   21.0620 O   0  0  0  0  0  0  0  0  0  0  0  0
    6.7740   -0.5730   20.5990 N   0  0  0  0  0  0  0  0  0  0  0  0
    6.0040    0.0010   19.5530 C   0  0  0  0  0  0  0  0  0  0  0  0
    6.2830   -0.3050   18.2460 C   0  0  0  0  0  0  0  0  0  0  0  0
    5.6340    0.2190   17.1760 N   0  0  0  0  0  0  0  0  0  0  0  0
    4.6610    1.0670   17.4100 C   0  0  0  0  0  0  0  0  0  0  0  0
    4.2240    1.4270   18.7190 C   0  0  0  0  0  0  0  0  0  0  0  0
    3.1360    2.3170   18.9320 C   0  0  0  0  0  0  0  0  0  0  0  0
    2.7400    2.6380   20.2040 C   0  0  0  0  0  0  0  0  0  0  0  0
    3.4240    2.0990   21.3170 C   0  0  0  0  0  0  0  0  0  0  0  0
    4.4840    1.2450   21.1400 C   0  0  0  0  0  0  0  0  0  0  0  0
    4.9130    0.8880   19.8280 C   0  0  0  0  0  0  0  0  0  0  0  0
    5.0080    0.8380   22.0010 H   0  0  0  0  0  0  0  0  0  0  0  0
    3.1150    2.3710   22.3220 H   0  0  0  0  0  0  0  0  0  0  0  0
    1.9050    3.3160   20.3680 H   0  0  0  0  0  0  0  0  0  0  0  0
    2.6290    2.7390   18.0690 H   0  0  0  0  0  0  0  0  0  0  0  0
    4.1520    1.5020   16.5470 H   0  0  0  0  0  0  0  0  0  0  0  0
    7.0940   -0.9930   18.0140 H   0  0  0  0  0  0  0  0  0  0  0  0
    6.5220   -1.8850   21.1550 C   0  0  0  0  0  0  0  0  0  0  0  0
    7.6800   -2.0640   22.1340 C   0  0  2  0  0  0  0  0  0  0  0  0
    7.3860   -3.1400   23.1670 C   0  0  0  0  0  0  0  0  0  0  0  0
    8.5730   -3.4310   23.9360 N   0  0  0  0  0  0  0  0  0  0  0  0
    8.5370   -4.1120   25.1030 C   0  0  0  0  0  0  0  0  0  0  0  0
    9.5840   -4.5710   25.7260 N   0  0  0  0  0  0  0  0  0  0  0  0
    9.2720   -5.1640   26.9190 N   0  0  0  0  0  0  0  0  0  0  0  0
    8.0120   -5.1280   27.1880 C   0  0  0  0  0  0  0  0  0  0  0  0
    7.0290   -4.4090   25.9470 S   0  0  0  0  0  0  0  0  0  0  0  0
    7.5820   -5.4990   28.1070 H   0  0  0  0  0  0  0  0  0  0  0  0
    9.4210   -2.8990   23.7750 H   0  0  0  0  0  0  0  0  0  0  0  0
    7.0540   -4.0580   22.6640 H   0  0  0  0  0  0  0  0  0  0  0  0
    6.5650   -2.8300   23.8240 H   0  0  0  0  0  0  0  0  0  0  0  0
    8.5620   -2.3810   21.5680 H   0  0  0  0  0  0  0  0  0  0  0  0
    5.5600   -1.9360   21.6890 H   0  0  0  0  0  0  0  0  0  0  0  0
    6.4970   -2.6470   20.3720 H   0  0  0  0  0  0  0  0  0  0  0  0
   10.3710   -0.2520   21.1400 H   0  0  0  0  0  0  0  0  0  0  0  0
   12.9490    0.6620   24.4500 H   0  0  0  0  0  0  0  0  0  0  0  0
   11.0860   -0.0590   26.0170 H   0  0  0  0  0  0  0  0  0  0  0  0
  1  2  2  0  0  0  0
  2  3  1  0  0  0  0
  2 12  1  0  0  0  0
  3  4  2  0  0  0  0
  3  9  1  0  0  0  0
  4  5  1  0  0  0  0
  4 64  1  0  0  0  0
  5  6  2  0  0  0  0
  5 63  1  0  0  0  0
  6  7  1  0  0  0  0
  6  8  1  0  0  0  0
  8  9  2  0  0  0  0
  8 62  1  0  0  0  0
 10  9  1  1  0  0  0
 10 11  1  0  0  0  0
 10 27  1  0  0  0  0
 10 47  1  0  0  0  0
 11 12  1  0  0  0  0
 11 25  1  0  0  0  0
 11 26  1  0  0  0  0
 12 13  1  0  0  0  0
 13 14  1  0  0  0  0
 13 23  1  0  0  0  0
 13 24  1  0  0  0  0
 14 15  2  0  0  0  0
 14 19  1  0  0  0  0
 15 16  1  0  0  0  0
 15 22  1  0  0  0  0
 16 17  2  0  0  0  0
 16 21  1  0  0  0  0
 17 18  1  0  0  0  0
 18 19  2  0  0  0  0
 19 20  1  0  0  0  0
 27 28  2  0  0  0  0
 27 29  1  0  0  0  0
 29 30  1  0  0  0  0
 29 46  1  0  0  0  0
 30 31  2  0  0  0  0
 30 39  1  0  0  0  0
 31 32  1  0  0  0  0
 31 45  1  0  0  0  0
 32 33  2  0  0  0  0
 33 34  1  0  0  0  0
 33 44  1  0  0  0  0
 34 35  2  0  0  0  0
 34 39  1  0  0  0  0
 35 36  1  0  0  0  0
 35 43  1  0  0  0  0
 36 37  2  0  0  0  0
 36 42  1  0  0  0  0
 37 38  1  0  0  0  0
 37 41  1  0  0  0  0
 38 39  2  0  0  0  0
 38 40  1  0  0  0  0
 46 47  1  0  0  0  0
 46 60  1  0  0  0  0
 46 61  1  0  0  0  0
 47 48  1  0  0  0  0
 47 59  1  6  0  0  0
 48 49  1  0  0  0  0
 48 57  1  0  0  0  0
 48 58  1  0  0  0  0
 49 50  1  0  0  0  0
 49 56  1  0  0  0  0
 50 51  2  0  0  0  0
 50 54  1  0  0  0  0
 51 52  1  0  0  0  0
 52 53  2  0  0  0  0
 53 54  1  0  0  0  0
 53 55  1  0  0  0  0
M  END
>  <MODEL>
       1

$$$$
