output/tmp_first_model_5_71.pdb
 OpenBabel07222620423D

 59 64  0  0  1  0  0  0  0  0999 V2000
    7.3110   -2.4310   23.8990 C   0  0  0  0  0  0  0  0  0  0  0  0
    7.5940   -1.7200   22.5850 C   0  0  1  0  0  0  0  0  0  0  0  0
    6.4030   -1.5690   21.6260 C   0  0  0  0  0  0  0  0  0  0  0  0
    6.8290   -0.4510   20.8030 N   0  0  0  0  0  0  0  0  0  0  0  0
    6.0830    0.0730   19.7270 C   0  0  0  0  0  0  0  0  0  0  0  0
    6.4390   -0.2190   18.4390 C   0  0  0  0  0  0  0  0  0  0  0  0
    5.7630    0.2200   17.3490 N   0  0  0  0  0  0  0  0  0  0  0  0
    4.7310    1.0020   17.5650 C   0  0  0  0  0  0  0  0  0  0  0  0
    4.2860    1.4130   18.8570 C   0  0  0  0  0  0  0  0  0  0  0  0
    3.1810    2.2850   19.0400 C   0  0  0  0  0  0  0  0  0  0  0  0
    2.7900    2.6590   20.2960 C   0  0  0  0  0  0  0  0  0  0  0  0
    3.4940    2.1960   21.4320 C   0  0  0  0  0  0  0  0  0  0  0  0
    4.5760    1.3660   21.2840 C   0  0  0  0  0  0  0  0  0  0  0  0
    4.9890    0.9450   19.9850 C   0  0  0  0  0  0  0  0  0  0  0  0
    5.1370    1.0520   22.1640 H   0  0  0  0  0  0  0  0  0  0  0  0
    3.2000    2.5140   22.4280 H   0  0  0  0  0  0  0  0  0  0  0  0
    1.9460    3.3300   20.4260 H   0  0  0  0  0  0  0  0  0  0  0  0
    2.6770    2.6610   18.1530 H   0  0  0  0  0  0  0  0  0  0  0  0
    4.1940    1.3590   16.6880 H   0  0  0  0  0  0  0  0  0  0  0  0
    7.3160   -0.8380   18.2550 H   0  0  0  0  0  0  0  0  0  0  0  0
    7.7510    0.3660   21.4090 C   0  0  0  0  0  0  0  0  0  0  0  0
    8.1210    1.4230   20.9340 O   0  0  0  0  0  0  0  0  0  0  0  0
    8.2370   -0.3120   22.6980 C   0  0  1  0  0  0  0  0  0  0  0  0
    7.7600    0.4570   23.9490 C   0  0  0  0  0  0  0  0  0  0  0  0
    8.4300    1.7430   24.0670 N   0  0  0  0  0  0  0  0  0  0  0  0
    7.6170    2.9490   23.8420 C   0  0  0  0  0  0  0  0  0  0  0  0
    6.4860    3.0200   24.8270 C   0  0  0  0  0  0  0  0  0  0  0  0
    5.2340    2.6690   24.6060 N   0  0  0  0  0  0  0  0  0  0  0  0
    4.6230    2.7330   25.8330 C   0  0  0  0  0  0  0  0  0  0  0  0
    5.5100    3.1320   26.7940 C   0  0  0  0  0  0  0  0  0  0  0  0
    6.7020    3.3320   26.1330 N   0  0  0  0  0  0  0  0  0  0  0  0
    8.0140    3.5980   26.6850 C   0  0  0  0  0  0  0  0  0  0  0  0
    7.9410    3.7490   27.7630 H   0  0  0  0  0  0  0  0  0  0  0  0
    8.6400    2.7320   26.4790 H   0  0  0  0  0  0  0  0  0  0  0  0
    8.4800    4.4750   26.2190 H   0  0  0  0  0  0  0  0  0  0  0  0
    5.4030    3.3060   27.8560 H   0  0  0  0  0  0  0  0  0  0  0  0
    3.5850    2.4620   25.9610 H   0  0  0  0  0  0  0  0  0  0  0  0
    7.2020    2.9300   22.8240 H   0  0  0  0  0  0  0  0  0  0  0  0
    8.2770    3.8180   23.9340 H   0  0  0  0  0  0  0  0  0  0  0  0
    9.8050    1.8050   24.0270 C   0  0  0  0  0  0  0  0  0  0  0  0
   10.4420    2.7460   24.4840 O   0  0  0  0  0  0  0  0  0  0  0  0
   10.4920    0.6560   23.3240 C   0  0  0  0  0  0  0  0  0  0  0  0
   11.8880    0.6260   23.2380 C   0  0  0  0  0  0  0  0  0  0  0  0
   12.5270   -0.2460   22.3710 C   0  0  0  0  0  0  0  0  0  0  0  0
   11.7470   -1.0960   21.5830 C   0  0  0  0  0  0  0  0  0  0  0  0
   12.3020   -1.8940   20.6560 F   0  0  0  0  0  0  0  0  0  0  0  0
   10.3790   -1.1240   21.6940 C   0  0  0  0  0  0  0  0  0  0  0  0
    9.7440   -0.3000   22.6280 C   0  0  0  0  0  0  0  0  0  0  0  0
    9.8290   -1.7660   21.0080 H   0  0  0  0  0  0  0  0  0  0  0  0
   13.6050   -0.2550   22.2640 H   0  0  0  0  0  0  0  0  0  0  0  0
   12.4810    1.3070   23.8390 H   0  0  0  0  0  0  0  0  0  0  0  0
    7.9760   -0.1320   24.8530 H   0  0  0  0  0  0  0  0  0  0  0  0
    6.6780    0.6250   23.8980 H   0  0  0  0  0  0  0  0  0  0  0  0
    5.4560   -1.3570   22.1490 H   0  0  0  0  0  0  0  0  0  0  0  0
    6.2530   -2.4640   21.0120 H   0  0  0  0  0  0  0  0  0  0  0  0
    8.3200   -2.3310   22.0480 H   0  0  0  0  0  0  0  0  0  0  0  0
    6.9580   -3.4510   23.7180 H   0  0  0  0  0  0  0  0  0  0  0  0
    8.2310   -2.4850   24.4920 H   0  0  0  0  0  0  0  0  0  0  0  0
    6.5540   -1.9120   24.4970 H   0  0  0  0  0  0  0  0  0  0  0  0
  1  2  1  0  0  0  0
  1 57  1  0  0  0  0
  1 58  1  0  0  0  0
  1 59  1  0  0  0  0
  2  3  1  0  0  0  0
  2 23  1  0  0  0  0
  2 56  1  6  0  0  0
  3  4  1  0  0  0  0
  3 54  1  0  0  0  0
  3 55  1  0  0  0  0
  4  5  1  0  0  0  0
  4 21  1  0  0  0  0
  5  6  2  0  0  0  0
  5 14  1  0  0  0  0
  6  7  1  0  0  0  0
  6 20  1  0  0  0  0
  7  8  2  0  0  0  0
  8  9  1  0  0  0  0
  8 19  1  0  0  0  0
  9 10  2  0  0  0  0
  9 14  1  0  0  0  0
 10 11  1  0  0  0  0
 10 18  1  0  0  0  0
 11 12  2  0  0  0  0
 11 17  1  0  0  0  0
 12 13  1  0  0  0  0
 12 16  1  0  0  0  0
 13 14  2  0  0  0  0
 13 15  1  0  0  0  0
 21 22  2  0  0  0  0
 23 21  1  6  0  0  0
 23 24  1  0  0  0  0
 23 48  1  0  0  0  0
 24 25  1  0  0  0  0
 24 52  1  0  0  0  0
 24 53  1  0  0  0  0
 25 26  1  0  0  0  0
 25 40  1  0  0  0  0
 26 27  1  0  0  0  0
 26 38  1  0  0  0  0
 26 39  1  0  0  0  0
 27 28  2  0  0  0  0
 27 31  1  0  0  0  0
 28 29  1  0  0  0  0
 29 30  2  0  0  0  0
 29 37  1  0  0  0  0
 30 31  1  0  0  0  0
 30 36  1  0  0  0  0
 31 32  1  0  0  0  0
 32 33  1  0  0  0  0
 32 34  1  0  0  0  0
 32 35  1  0  0  0  0
 40 41  2  0  0  0  0
 40 42  1  0  0  0  0
 42 43  2  0  0  0  0
 42 48  1  0  0  0  0
 43 44  1  0  0  0  0
 43 51  1  0  0  0  0
 44 45  2  0  0  0  0
 44 50  1  0  0  0  0
 45 46  1  0  0  0  0
 45 47  1  0  0  0  0
 47 48  2  0  0  0  0
 47 49  1  0  0  0  0
M  END
>  <MODEL>
       1

$$$$
