output/tmp_first_model_7_75.pdb
 OpenBabel07222621533D

 70 75  0  0  1  0  0  0  0  0999 V2000
    7.1990    1.0250   32.9810 C   0  0  0  0  0  0  0  0  0  0  0  0
    5.8590    0.6010   32.8440 O   0  0  0  0  0  0  0  0  0  0  0  0
    5.2890    0.6910   31.6110 C   0  0  0  0  0  0  0  0  0  0  0  0
    3.9750    0.2260   31.4900 C   0  0  0  0  0  0  0  0  0  0  0  0
    3.3370    0.2880   30.2610 C   0  0  0  0  0  0  0  0  0  0  0  0
    3.9870    0.8170   29.1530 C   0  0  0  0  0  0  0  0  0  0  0  0
    5.2840    1.2970   29.2740 C   0  0  0  0  0  0  0  0  0  0  0  0
    5.9850    1.8480   28.0490 C   0  0  0  0  0  0  0  0  0  0  0  0
    6.2340    0.8160   27.0550 N   0  0  0  0  0  0  0  0  0  0  0  0
    7.1850   -0.1170   27.3290 C   0  0  0  0  0  0  0  0  0  0  0  0
    7.7800   -0.1020   28.3920 O   0  0  0  0  0  0  0  0  0  0  0  0
    7.4620   -1.1410   26.2270 C   0  0  0  0  0  0  0  0  0  0  0  0
    8.2960   -0.6180   25.1570 N   0  0  0  0  0  0  0  0  0  0  0  0
    7.7270   -0.0600   23.9440 C   0  0  0  0  0  0  0  0  0  0  0  0
    8.5500   -0.4090   22.6780 C   0  0  2  0  0  0  0  0  0  0  0  0
    7.9250    0.4440   21.5350 C   0  0  0  0  0  0  0  0  0  0  0  0
    8.1760    1.5920   21.2360 O   0  0  0  0  0  0  0  0  0  0  0  0
    6.9230   -0.3250   20.9560 N   0  0  0  0  0  0  0  0  0  0  0  0
    6.0810    0.1270   19.8970 C   0  0  0  0  0  0  0  0  0  0  0  0
    6.4830   -0.0590   18.5970 C   0  0  0  0  0  0  0  0  0  0  0  0
    5.7880    0.3550   17.5080 N   0  0  0  0  0  0  0  0  0  0  0  0
    4.6320    0.9380   17.7100 C   0  0  0  0  0  0  0  0  0  0  0  0
    4.0350    1.0980   18.9890 C   0  0  0  0  0  0  0  0  0  0  0  0
    2.7520    1.6880   19.1430 C   0  0  0  0  0  0  0  0  0  0  0  0
    2.1650    1.7430   20.3740 C   0  0  0  0  0  0  0  0  0  0  0  0
    2.8230    1.1910   21.4930 C   0  0  0  0  0  0  0  0  0  0  0  0
    4.0720    0.6310   21.3730 C   0  0  0  0  0  0  0  0  0  0  0  0
    4.7460    0.6220   20.1230 C   0  0  0  0  0  0  0  0  0  0  0  0
    4.5440    0.1750   22.2390 H   0  0  0  0  0  0  0  0  0  0  0  0
    2.3400    1.2270   22.4640 H   0  0  0  0  0  0  0  0  0  0  0  0
    1.1890    2.2070   20.4990 H   0  0  0  0  0  0  0  0  0  0  0  0
    2.2510    2.0880   18.2620 H   0  0  0  0  0  0  0  0  0  0  0  0
    4.0630    1.2570   16.8330 H   0  0  0  0  0  0  0  0  0  0  0  0
    7.4080   -0.5970   18.3890 H   0  0  0  0  0  0  0  0  0  0  0  0
    6.9950   -1.7300   21.3150 C   0  0  0  0  0  0  0  0  0  0  0  0
    8.2970   -1.8440   22.1170 C   0  0  2  0  0  0  0  0  0  0  0  0
    8.2460   -2.9880   23.1210 C   0  0  0  0  0  0  0  0  0  0  0  0
    9.1510   -3.0450   23.7320 H   0  0  0  0  0  0  0  0  0  0  0  0
    8.1180   -3.9400   22.6010 H   0  0  0  0  0  0  0  0  0  0  0  0
    7.3900   -2.8600   23.7930 H   0  0  0  0  0  0  0  0  0  0  0  0
    9.1240   -2.0100   21.4110 H   0  0  0  0  0  0  0  0  0  0  0  0
    6.9990   -2.3710   20.4280 H   0  0  0  0  0  0  0  0  0  0  0  0
    6.1390   -2.0380   21.9350 H   0  0  0  0  0  0  0  0  0  0  0  0
   10.0180   -0.1460   22.9850 C   0  0  0  0  0  0  0  0  0  0  0  0
   10.9710   -0.0600   21.9600 C   0  0  0  0  0  0  0  0  0  0  0  0
   12.3070    0.1960   22.2490 C   0  0  0  0  0  0  0  0  0  0  0  0
   13.5010    0.3270   20.9870 Cl  0  0  0  0  0  0  0  0  0  0  0  0
   12.7500    0.3460   23.5600 C   0  0  0  0  0  0  0  0  0  0  0  0
   11.8290    0.2190   24.5780 C   0  0  0  0  0  0  0  0  0  0  0  0
   10.4910   -0.0680   24.2970 C   0  0  0  0  0  0  0  0  0  0  0  0
    9.6150   -0.4120   25.4510 C   0  0  0  0  0  0  0  0  0  0  0  0
   10.0710   -0.5440   26.5760 O   0  0  0  0  0  0  0  0  0  0  0  0
   12.1220    0.3200   25.6180 H   0  0  0  0  0  0  0  0  0  0  0  0
   13.8030    0.5040   23.7820 H   0  0  0  0  0  0  0  0  0  0  0  0
   10.6720   -0.2170   20.9350 H   0  0  0  0  0  0  0  0  0  0  0  0
    6.6970   -0.4080   23.8190 H   0  0  0  0  0  0  0  0  0  0  0  0
    7.6930    1.0350   24.0020 H   0  0  0  0  0  0  0  0  0  0  0  0
    6.5170   -1.4950   25.7940 H   0  0  0  0  0  0  0  0  0  0  0  0
    7.9920   -1.9830   26.6750 H   0  0  0  0  0  0  0  0  0  0  0  0
    5.7380    0.8290   26.1750 H   0  0  0  0  0  0  0  0  0  0  0  0
    6.9410    2.2820   28.3550 H   0  0  0  0  0  0  0  0  0  0  0  0
    5.3900    2.6320   27.5720 H   0  0  0  0  0  0  0  0  0  0  0  0
    5.9510    1.2040   30.4980 C   0  0  0  0  0  0  0  0  0  0  0  0
    7.0010    1.4830   30.5490 H   0  0  0  0  0  0  0  0  0  0  0  0
    3.4930    0.8470   28.1850 H   0  0  0  0  0  0  0  0  0  0  0  0
    2.3200   -0.0810   30.1560 H   0  0  0  0  0  0  0  0  0  0  0  0
    3.4700   -0.1870   32.3590 H   0  0  0  0  0  0  0  0  0  0  0  0
    7.3170    2.0970   32.7710 H   0  0  0  0  0  0  0  0  0  0  0  0
    7.4600    0.8310   34.0210 H   0  0  0  0  0  0  0  0  0  0  0  0
    7.8800    0.4630   32.3270 H   0  0  0  0  0  0  0  0  0  0  0  0
  1  2  1  0  0  0  0
  1 68  1  0  0  0  0
  1 69  1  0  0  0  0
  1 70  1  0  0  0  0
  2  3  1  0  0  0  0
  3  4  2  0  0  0  0
  3 63  1  0  0  0  0
  4  5  1  0  0  0  0
  4 67  1  0  0  0  0
  5  6  2  0  0  0  0
  5 66  1  0  0  0  0
  6  7  1  0  0  0  0
  6 65  1  0  0  0  0
  7  8  1  0  0  0  0
  7 63  2  0  0  0  0
  8  9  1  0  0  0  0
  8 61  1  0  0  0  0
  8 62  1  0  0  0  0
  9 10  1  0  0  0  0
  9 60  1  0  0  0  0
 10 11  2  0  0  0  0
 10 12  1  0  0  0  0
 12 13  1  0  0  0  0
 12 58  1  0  0  0  0
 12 59  1  0  0  0  0
 13 14  1  0  0  0  0
 13 51  1  0  0  0  0
 14 15  1  0  0  0  0
 14 56  1  0  0  0  0
 14 57  1  0  0  0  0
 15 16  1  6  0  0  0
 15 36  1  0  0  0  0
 15 44  1  0  0  0  0
 16 17  2  0  0  0  0
 16 18  1  0  0  0  0
 18 19  1  0  0  0  0
 18 35  1  0  0  0  0
 19 20  2  0  0  0  0
 19 28  1  0  0  0  0
 20 21  1  0  0  0  0
 20 34  1  0  0  0  0
 21 22  2  0  0  0  0
 22 23  1  0  0  0  0
 22 33  1  0  0  0  0
 23 24  2  0  0  0  0
 23 28  1  0  0  0  0
 24 25  1  0  0  0  0
 24 32  1  0  0  0  0
 25 26  2  0  0  0  0
 25 31  1  0  0  0  0
 26 27  1  0  0  0  0
 26 30  1  0  0  0  0
 27 28  2  0  0  0  0
 27 29  1  0  0  0  0
 35 36  1  0  0  0  0
 35 42  1  0  0  0  0
 35 43  1  0  0  0  0
 36 37  1  0  0  0  0
 36 41  1  6  0  0  0
 37 38  1  0  0  0  0
 37 39  1  0  0  0  0
 37 40  1  0  0  0  0
 44 45  2  0  0  0  0
 44 50  1  0  0  0  0
 45 46  1  0  0  0  0
 45 55  1  0  0  0  0
 46 47  1  0  0  0  0
 46 48  2  0  0  0  0
 48 49  1  0  0  0  0
 48 54  1  0  0  0  0
 49 50  2  0  0  0  0
 49 53  1  0  0  0  0
 50 51  1  0  0  0  0
 51 52  2  0  0  0  0
 63 64  1  0  0  0  0
M  END
>  <MODEL>
       1

$$$$
