output/tmp_first_model_1_88.pdb
 OpenBabel07222618483D

 64 68  0  0  0  0  0  0  0  0999 V2000
   13.6020    4.5820   22.7600 C   0  0  0  0  0  0  0  0  0  0  0  0
   12.7060    4.4750   24.0020 C   0  0  0  0  0  0  0  0  0  0  0  0
   11.3710    3.7570   23.8560 C   0  0  0  0  0  0  0  0  0  0  0  0
   11.3750    2.5480   23.6630 O   0  0  0  0  0  0  0  0  0  0  0  0
   10.1900    4.4560   24.1060 N   0  0  0  0  0  0  0  0  0  0  0  0
   10.3060    5.8200   24.6540 C   0  0  0  0  0  0  0  0  0  0  0  0
    8.9670    6.5310   24.8240 C   0  0  0  0  0  0  0  0  0  0  0  0
    7.9830    5.6210   25.5510 C   0  0  0  0  0  0  0  0  0  0  0  0
    7.8580    4.3180   24.8070 C   0  0  0  0  0  0  0  0  0  0  0  0
    6.6340    3.6370   24.8280 C   0  0  0  0  0  0  0  0  0  0  0  0
    6.4820    2.4410   24.1230 C   0  0  0  0  0  0  0  0  0  0  0  0
    7.5510    1.9160   23.3960 C   0  0  0  0  0  0  0  0  0  0  0  0
    7.4050    0.6830   22.7490 N   0  0  0  0  0  0  0  0  0  0  0  0
    7.6730   -0.5000   23.5570 C   0  0  0  0  0  0  0  0  0  0  0  0
    9.1010   -0.9570   23.3490 C   0  0  0  0  0  0  0  0  0  0  0  0
    9.3510   -2.0310   22.4870 C   0  0  0  0  0  0  0  0  0  0  0  0
   10.6340   -2.5660   22.3630 C   0  0  0  0  0  0  0  0  0  0  0  0
   11.7000   -2.0070   23.0740 C   0  0  0  0  0  0  0  0  0  0  0  0
   11.4880   -0.8670   23.8530 C   0  0  0  0  0  0  0  0  0  0  0  0
   12.9630    0.0040   24.6960 Br  0  0  0  0  0  0  0  0  0  0  0  0
   10.1980   -0.3490   23.9950 C   0  0  0  0  0  0  0  0  0  0  0  0
   10.0780    0.5320   24.6170 H   0  0  0  0  0  0  0  0  0  0  0  0
   12.6950   -2.4330   22.9980 H   0  0  0  0  0  0  0  0  0  0  0  0
   10.7980   -3.4180   21.7130 H   0  0  0  0  0  0  0  0  0  0  0  0
    8.5340   -2.4560   21.9130 H   0  0  0  0  0  0  0  0  0  0  0  0
    7.5220   -0.2770   24.6190 H   0  0  0  0  0  0  0  0  0  0  0  0
    6.9860   -1.3170   23.3010 H   0  0  0  0  0  0  0  0  0  0  0  0
    7.5520    0.5510   21.3690 C   0  0  0  0  0  0  0  0  0  0  0  0
    8.0660    1.4460   20.7070 O   0  0  0  0  0  0  0  0  0  0  0  0
    6.9820   -0.6960   20.6470 C   0  0  0  0  0  0  0  0  0  0  0  0
    6.0000   -0.3290   19.5250 C   0  0  0  0  0  0  0  0  0  0  0  0
    6.3870   -0.3900   18.1700 C   0  0  0  0  0  0  0  0  0  0  0  0
    5.5920   -0.0080   17.1520 N   0  0  0  0  0  0  0  0  0  0  0  0
    4.3760    0.4710   17.4570 C   0  0  0  0  0  0  0  0  0  0  0  0
    3.8920    0.5700   18.7650 C   0  0  0  0  0  0  0  0  0  0  0  0
    2.6380    1.1360   19.0370 C   0  0  0  0  0  0  0  0  0  0  0  0
    2.1680    1.2050   20.3500 C   0  0  0  0  0  0  0  0  0  0  0  0
    2.9660    0.7500   21.4010 C   0  0  0  0  0  0  0  0  0  0  0  0
    4.2400    0.2320   21.1400 C   0  0  0  0  0  0  0  0  0  0  0  0
    4.7090    0.1420   19.8220 C   0  0  0  0  0  0  0  0  0  0  0  0
    4.8830   -0.0860   21.9540 H   0  0  0  0  0  0  0  0  0  0  0  0
    2.6190    0.8240   22.4270 H   0  0  0  0  0  0  0  0  0  0  0  0
    1.1900    1.6290   20.5540 H   0  0  0  0  0  0  0  0  0  0  0  0
    2.0470    1.5580   18.2380 H   0  0  0  0  0  0  0  0  0  0  0  0
    3.7480    0.8200   16.6460 H   0  0  0  0  0  0  0  0  0  0  0  0
    7.3940   -0.7290   17.9370 H   0  0  0  0  0  0  0  0  0  0  0  0
    6.4540   -1.3160   21.3820 H   0  0  0  0  0  0  0  0  0  0  0  0
    7.8200   -1.2870   20.2580 H   0  0  0  0  0  0  0  0  0  0  0  0
    8.7730    2.5870   23.3790 C   0  0  0  0  0  0  0  0  0  0  0  0
    8.9490    3.7890   24.0910 C   0  0  0  0  0  0  0  0  0  0  0  0
    9.5800    2.1410   22.8110 H   0  0  0  0  0  0  0  0  0  0  0  0
    5.5330    1.9140   24.1390 H   0  0  0  0  0  0  0  0  0  0  0  0
    5.8000    4.0400   25.3930 H   0  0  0  0  0  0  0  0  0  0  0  0
    8.3340    5.4340   26.5700 H   0  0  0  0  0  0  0  0  0  0  0  0
    7.0080    6.1130   25.6100 H   0  0  0  0  0  0  0  0  0  0  0  0
    9.1110    7.4540   25.3960 H   0  0  0  0  0  0  0  0  0  0  0  0
    8.5660    6.7940   23.8390 H   0  0  0  0  0  0  0  0  0  0  0  0
   10.7960    5.7670   25.6380 H   0  0  0  0  0  0  0  0  0  0  0  0
   10.9100    6.4390   23.9770 H   0  0  0  0  0  0  0  0  0  0  0  0
   13.2680    3.9880   24.7920 H   0  0  0  0  0  0  0  0  0  0  0  0
   12.4620    5.4780   24.3400 H   0  0  0  0  0  0  0  0  0  0  0  0
   13.0830    5.0550   21.9200 H   0  0  0  0  0  0  0  0  0  0  0  0
   14.4650    5.2010   23.0050 H   0  0  0  0  0  0  0  0  0  0  0  0
   13.9890    3.6040   22.4530 H   0  0  0  0  0  0  0  0  0  0  0  0
  1  2  1  0  0  0  0
  1 62  1  0  0  0  0
  1 63  1  0  0  0  0
  1 64  1  0  0  0  0
  2  3  1  0  0  0  0
  2 60  1  0  0  0  0
  2 61  1  0  0  0  0
  3  4  2  0  0  0  0
  3  5  1  0  0  0  0
  5  6  1  0  0  0  0
  5 50  1  0  0  0  0
  6  7  1  0  0  0  0
  6 58  1  0  0  0  0
  6 59  1  0  0  0  0
  7  8  1  0  0  0  0
  7 56  1  0  0  0  0
  7 57  1  0  0  0  0
  8  9  1  0  0  0  0
  8 54  1  0  0  0  0
  8 55  1  0  0  0  0
  9 10  2  0  0  0  0
  9 50  1  0  0  0  0
 10 11  1  0  0  0  0
 10 53  1  0  0  0  0
 11 12  2  0  0  0  0
 11 52  1  0  0  0  0
 12 13  1  0  0  0  0
 12 49  1  0  0  0  0
 13 14  1  0  0  0  0
 13 28  1  0  0  0  0
 14 15  1  0  0  0  0
 14 26  1  0  0  0  0
 14 27  1  0  0  0  0
 15 16  2  0  0  0  0
 15 21  1  0  0  0  0
 16 17  1  0  0  0  0
 16 25  1  0  0  0  0
 17 18  2  0  0  0  0
 17 24  1  0  0  0  0
 18 19  1  0  0  0  0
 18 23  1  0  0  0  0
 19 20  1  0  0  0  0
 19 21  2  0  0  0  0
 21 22  1  0  0  0  0
 28 29  2  0  0  0  0
 28 30  1  0  0  0  0
 30 31  1  0  0  0  0
 30 47  1  0  0  0  0
 30 48  1  0  0  0  0
 31 32  2  0  0  0  0
 31 40  1  0  0  0  0
 32 33  1  0  0  0  0
 32 46  1  0  0  0  0
 33 34  2  0  0  0  0
 34 35  1  0  0  0  0
 34 45  1  0  0  0  0
 35 36  2  0  0  0  0
 35 40  1  0  0  0  0
 36 37  1  0  0  0  0
 36 44  1  0  0  0  0
 37 38  2  0  0  0  0
 37 43  1  0  0  0  0
 38 39  1  0  0  0  0
 38 42  1  0  0  0  0
 39 40  2  0  0  0  0
 39 41  1  0  0  0  0
 49 50  2  0  0  0  0
 49 51  1  0  0  0  0
M  END
>  <MODEL>
       1

$$$$
