output/tmp_first_model_13_68.pdb
 OpenBabel07232600343D

 57 62  0  0  1  0  0  0  0  0999 V2000
    8.0750   -7.0400   24.0620 C   0  0  0  0  0  0  0  0  0  0  0  0
    6.7130   -6.7410   23.5780 C   0  0  0  0  0  0  0  0  0  0  0  0
    6.4470   -5.6510   22.9330 N   0  0  0  0  0  0  0  0  0  0  0  0
    5.1160   -5.5040   23.1720 C   0  0  0  0  0  0  0  0  0  0  0  0
    4.5450   -4.1580   22.8970 C   0  0  0  0  0  0  0  0  0  0  0  0
    5.3750   -3.1630   23.5520 N   0  0  0  0  0  0  0  0  0  0  0  0
    6.7500   -2.9290   23.1260 C   0  0  0  0  0  0  0  0  0  0  0  0
    6.9150   -1.4420   22.8030 C   0  0  2  0  0  0  0  0  0  0  0  0
    6.0930   -1.2340   21.5200 C   0  0  0  0  0  0  0  0  0  0  0  0
    4.9870   -1.6740   21.2800 O   0  0  0  0  0  0  0  0  0  0  0  0
    6.8350   -0.5070   20.6180 N   0  0  0  0  0  0  0  0  0  0  0  0
    6.1630    0.1510   19.5640 C   0  0  0  0  0  0  0  0  0  0  0  0
    6.5430   -0.0500   18.2640 C   0  0  0  0  0  0  0  0  0  0  0  0
    5.8650    0.4360   17.1960 N   0  0  0  0  0  0  0  0  0  0  0  0
    4.7970    1.1610   17.4440 C   0  0  0  0  0  0  0  0  0  0  0  0
    4.3320    1.4870   18.7500 C   0  0  0  0  0  0  0  0  0  0  0  0
    3.1780    2.2790   18.9730 C   0  0  0  0  0  0  0  0  0  0  0  0
    2.7960    2.6110   20.2430 C   0  0  0  0  0  0  0  0  0  0  0  0
    3.5520    2.1750   21.3540 C   0  0  0  0  0  0  0  0  0  0  0  0
    4.6640    1.3960   21.1730 C   0  0  0  0  0  0  0  0  0  0  0  0
    5.0570    1.0080   19.8560 C   0  0  0  0  0  0  0  0  0  0  0  0
    5.2390    1.0600   22.0370 H   0  0  0  0  0  0  0  0  0  0  0  0
    3.2440    2.4480   22.3580 H   0  0  0  0  0  0  0  0  0  0  0  0
    1.9180    3.2290   20.4070 H   0  0  0  0  0  0  0  0  0  0  0  0
    2.6220    2.6310   18.1090 H   0  0  0  0  0  0  0  0  0  0  0  0
    4.2420    1.5340   16.5830 H   0  0  0  0  0  0  0  0  0  0  0  0
    7.4200   -0.6630   18.0520 H   0  0  0  0  0  0  0  0  0  0  0  0
    8.1100   -0.0660   21.1460 C   0  0  0  0  0  0  0  0  0  0  0  0
    8.3470   -0.9800   22.3740 C   0  0  2  0  0  0  0  0  0  0  0  0
    9.3560   -2.0830   22.0290 C   0  0  0  0  0  0  0  0  0  0  0  0
    9.0540   -2.6410   21.1350 H   0  0  0  0  0  0  0  0  0  0  0  0
    9.4700   -2.7910   22.8550 H   0  0  0  0  0  0  0  0  0  0  0  0
   10.3400   -1.6360   21.8360 H   0  0  0  0  0  0  0  0  0  0  0  0
    8.7870   -0.4180   23.2040 H   0  0  0  0  0  0  0  0  0  0  0  0
    8.8940   -0.1830   20.3950 H   0  0  0  0  0  0  0  0  0  0  0  0
    8.0690    0.9970   21.4300 H   0  0  0  0  0  0  0  0  0  0  0  0
    6.4070   -0.6520   24.0150 C   0  0  0  0  0  0  0  0  0  0  0  0
    6.8140    0.6700   24.2540 C   0  0  0  0  0  0  0  0  0  0  0  0
    6.5890    1.2350   25.5010 C   0  0  0  0  0  0  0  0  0  0  0  0
    7.0560    2.4730   25.7530 F   0  0  0  0  0  0  0  0  0  0  0  0
    5.9260    0.5630   26.5250 C   0  0  0  0  0  0  0  0  0  0  0  0
    5.4050   -0.6860   26.2420 C   0  0  0  0  0  0  0  0  0  0  0  0
    5.5980   -1.2580   24.9850 C   0  0  0  0  0  0  0  0  0  0  0  0
    4.8940   -2.5350   24.6660 C   0  0  0  0  0  0  0  0  0  0  0  0
    3.9660   -2.9730   25.3270 O   0  0  0  0  0  0  0  0  0  0  0  0
    4.8400   -1.2510   26.9780 H   0  0  0  0  0  0  0  0  0  0  0  0
    5.8060    1.0300   27.4980 H   0  0  0  0  0  0  0  0  0  0  0  0
    7.3400    1.2610   23.5070 H   0  0  0  0  0  0  0  0  0  0  0  0
    7.4420   -3.2410   23.9190 H   0  0  0  0  0  0  0  0  0  0  0  0
    6.9490   -3.5270   22.2420 H   0  0  0  0  0  0  0  0  0  0  0  0
    4.5390   -3.9620   21.8210 H   0  0  0  0  0  0  0  0  0  0  0  0
    3.5500   -4.0740   23.3220 H   0  0  0  0  0  0  0  0  0  0  0  0
    4.5450   -6.5000   23.7750 N   0  0  0  0  0  0  0  0  0  0  0  0
    5.6250   -7.3420   24.0550 O   0  0  0  0  0  0  0  0  0  0  0  0
    8.7410   -6.3050   23.6290 H   0  0  0  0  0  0  0  0  0  0  0  0
    8.4070   -8.0510   23.8400 H   0  0  0  0  0  0  0  0  0  0  0  0
    8.0780   -6.8660   25.1450 H   0  0  0  0  0  0  0  0  0  0  0  0
  1  2  1  0  0  0  0
  1 55  1  0  0  0  0
  1 56  1  0  0  0  0
  1 57  1  0  0  0  0
  2  3  2  0  0  0  0
  2 54  1  0  0  0  0
  3  4  1  0  0  0  0
  4  5  1  0  0  0  0
  4 53  2  0  0  0  0
  5  6  1  0  0  0  0
  5 51  1  0  0  0  0
  5 52  1  0  0  0  0
  6  7  1  0  0  0  0
  6 44  1  0  0  0  0
  7  8  1  0  0  0  0
  7 49  1  0  0  0  0
  7 50  1  0  0  0  0
  8  9  1  6  0  0  0
  8 29  1  0  0  0  0
  8 37  1  0  0  0  0
  9 10  2  0  0  0  0
  9 11  1  0  0  0  0
 11 12  1  0  0  0  0
 11 28  1  0  0  0  0
 12 13  2  0  0  0  0
 12 21  1  0  0  0  0
 13 14  1  0  0  0  0
 13 27  1  0  0  0  0
 14 15  2  0  0  0  0
 15 16  1  0  0  0  0
 15 26  1  0  0  0  0
 16 17  2  0  0  0  0
 16 21  1  0  0  0  0
 17 18  1  0  0  0  0
 17 25  1  0  0  0  0
 18 19  2  0  0  0  0
 18 24  1  0  0  0  0
 19 20  1  0  0  0  0
 19 23  1  0  0  0  0
 20 21  2  0  0  0  0
 20 22  1  0  0  0  0
 28 29  1  0  0  0  0
 28 35  1  0  0  0  0
 28 36  1  0  0  0  0
 29 30  1  0  0  0  0
 29 34  1  1  0  0  0
 30 31  1  0  0  0  0
 30 32  1  0  0  0  0
 30 33  1  0  0  0  0
 37 38  2  0  0  0  0
 37 43  1  0  0  0  0
 38 39  1  0  0  0  0
 38 48  1  0  0  0  0
 39 40  1  0  0  0  0
 39 41  2  0  0  0  0
 41 42  1  0  0  0  0
 41 47  1  0  0  0  0
 42 43  2  0  0  0  0
 42 46  1  0  0  0  0
 43 44  1  0  0  0  0
 44 45  2  0  0  0  0
 53 54  1  0  0  0  0
M  END
>  <MODEL>
       1

$$$$
