output/tmp_first_model_15_85.pdb
 OpenBabel07232601353D

 55 60  0  0  1  0  0  0  0  0999 V2000
    7.3170   -2.5600   23.7880 C   0  0  0  0  0  0  0  0  0  0  0  0
    7.7390   -1.8440   22.5060 C   0  0  1  0  0  0  0  0  0  0  0  0
    6.5580   -1.6420   21.5420 C   0  0  0  0  0  0  0  0  0  0  0  0
    6.8960   -0.4310   20.8300 N   0  0  0  0  0  0  0  0  0  0  0  0
    6.1200    0.0930   19.7660 C   0  0  0  0  0  0  0  0  0  0  0  0
    6.4480   -0.2140   18.4720 C   0  0  0  0  0  0  0  0  0  0  0  0
    5.7720    0.2300   17.3860 N   0  0  0  0  0  0  0  0  0  0  0  0
    4.7440    1.0160   17.5940 C   0  0  0  0  0  0  0  0  0  0  0  0
    4.2910    1.4080   18.8860 C   0  0  0  0  0  0  0  0  0  0  0  0
    3.1680    2.2560   19.0600 C   0  0  0  0  0  0  0  0  0  0  0  0
    2.7530    2.6090   20.3140 C   0  0  0  0  0  0  0  0  0  0  0  0
    3.4410    2.1310   21.4520 C   0  0  0  0  0  0  0  0  0  0  0  0
    4.5320    1.3090   21.3090 C   0  0  0  0  0  0  0  0  0  0  0  0
    4.9900    0.9310   20.0160 C   0  0  0  0  0  0  0  0  0  0  0  0
    5.0560    0.9510   22.1910 H   0  0  0  0  0  0  0  0  0  0  0  0
    3.0970    2.4200   22.4410 H   0  0  0  0  0  0  0  0  0  0  0  0
    1.9000    3.2660   20.4450 H   0  0  0  0  0  0  0  0  0  0  0  0
    2.6610    2.6260   18.1740 H   0  0  0  0  0  0  0  0  0  0  0  0
    4.2080    1.3790   16.7180 H   0  0  0  0  0  0  0  0  0  0  0  0
    7.3080   -0.8520   18.2770 H   0  0  0  0  0  0  0  0  0  0  0  0
    7.8900    0.3190   21.4120 C   0  0  0  0  0  0  0  0  0  0  0  0
    8.2700    1.3880   20.9800 O   0  0  0  0  0  0  0  0  0  0  0  0
    8.4060   -0.4370   22.6610 C   0  0  1  0  0  0  0  0  0  0  0  0
    7.9400    0.2570   23.9600 C   0  0  0  0  0  0  0  0  0  0  0  0
    8.6420    1.5050   24.1970 N   0  0  0  0  0  0  0  0  0  0  0  0
    7.8860    2.6800   24.5820 C   0  0  0  0  0  0  0  0  0  0  0  0
    7.5280    3.6000   23.4560 C   0  0  0  0  0  0  0  0  0  0  0  0
    6.3590    3.8170   22.8130 C   0  0  0  0  0  0  0  0  0  0  0  0
    6.5290    4.8330   21.9280 O   0  0  0  0  0  0  0  0  0  0  0  0
    7.8190    5.1750   22.0660 C   0  0  0  0  0  0  0  0  0  0  0  0
    8.4650    4.4880   22.9480 N   0  0  0  0  0  0  0  0  0  0  0  0
    8.1590    6.0020   21.4500 H   0  0  0  0  0  0  0  0  0  0  0  0
    5.3870    3.3680   22.7880 H   0  0  0  0  0  0  0  0  0  0  0  0
    6.9870    2.3520   25.1080 H   0  0  0  0  0  0  0  0  0  0  0  0
    8.4960    3.2550   25.2760 H   0  0  0  0  0  0  0  0  0  0  0  0
   10.0120    1.5770   24.1620 C   0  0  0  0  0  0  0  0  0  0  0  0
   10.6390    2.4750   24.7090 O   0  0  0  0  0  0  0  0  0  0  0  0
   10.6820    0.4940   23.3730 C   0  0  0  0  0  0  0  0  0  0  0  0
   12.0780    0.4780   23.3170 C   0  0  0  0  0  0  0  0  0  0  0  0
   12.7390   -0.4340   22.5160 C   0  0  0  0  0  0  0  0  0  0  0  0
   11.9650   -1.3050   21.7570 C   0  0  0  0  0  0  0  0  0  0  0  0
   12.5520   -2.2090   20.9640 F   0  0  0  0  0  0  0  0  0  0  0  0
   10.5910   -1.2960   21.7810 C   0  0  0  0  0  0  0  0  0  0  0  0
    9.9210   -0.4320   22.6450 C   0  0  0  0  0  0  0  0  0  0  0  0
   10.0680   -1.9610   21.1050 H   0  0  0  0  0  0  0  0  0  0  0  0
   13.8200   -0.4720   22.4410 H   0  0  0  0  0  0  0  0  0  0  0  0
   12.6280    1.2070   23.9020 H   0  0  0  0  0  0  0  0  0  0  0  0
    8.1060   -0.4290   24.8030 H   0  0  0  0  0  0  0  0  0  0  0  0
    6.8670    0.4660   23.8940 H   0  0  0  0  0  0  0  0  0  0  0  0
    5.6060   -1.5390   22.0880 H   0  0  0  0  0  0  0  0  0  0  0  0
    6.4470   -2.4790   20.8440 H   0  0  0  0  0  0  0  0  0  0  0  0
    8.4620   -2.4900   22.0050 H   0  0  0  0  0  0  0  0  0  0  0  0
    8.1600   -2.6870   24.4770 H   0  0  0  0  0  0  0  0  0  0  0  0
    6.9230   -3.5530   23.5520 H   0  0  0  0  0  0  0  0  0  0  0  0
    6.5290   -2.0070   24.3120 H   0  0  0  0  0  0  0  0  0  0  0  0
  1  2  1  0  0  0  0
  1 53  1  0  0  0  0
  1 54  1  0  0  0  0
  1 55  1  0  0  0  0
  2  3  1  0  0  0  0
  2 23  1  0  0  0  0
  2 52  1  6  0  0  0
  3  4  1  0  0  0  0
  3 50  1  0  0  0  0
  3 51  1  0  0  0  0
  4  5  1  0  0  0  0
  4 21  1  0  0  0  0
  5  6  2  0  0  0  0
  5 14  1  0  0  0  0
  6  7  1  0  0  0  0
  6 20  1  0  0  0  0
  7  8  2  0  0  0  0
  8  9  1  0  0  0  0
  8 19  1  0  0  0  0
  9 10  2  0  0  0  0
  9 14  1  0  0  0  0
 10 11  1  0  0  0  0
 10 18  1  0  0  0  0
 11 12  2  0  0  0  0
 11 17  1  0  0  0  0
 12 13  1  0  0  0  0
 12 16  1  0  0  0  0
 13 14  2  0  0  0  0
 13 15  1  0  0  0  0
 21 22  2  0  0  0  0
 23 21  1  6  0  0  0
 23 24  1  0  0  0  0
 23 44  1  0  0  0  0
 24 25  1  0  0  0  0
 24 48  1  0  0  0  0
 24 49  1  0  0  0  0
 25 26  1  0  0  0  0
 25 36  1  0  0  0  0
 26 27  1  0  0  0  0
 26 34  1  0  0  0  0
 26 35  1  0  0  0  0
 27 28  2  0  0  0  0
 27 31  1  0  0  0  0
 28 29  1  0  0  0  0
 28 33  1  0  0  0  0
 29 30  1  0  0  0  0
 30 31  2  0  0  0  0
 30 32  1  0  0  0  0
 36 37  2  0  0  0  0
 36 38  1  0  0  0  0
 38 39  2  0  0  0  0
 38 44  1  0  0  0  0
 39 40  1  0  0  0  0
 39 47  1  0  0  0  0
 40 41  2  0  0  0  0
 40 46  1  0  0  0  0
 41 42  1  0  0  0  0
 41 43  1  0  0  0  0
 43 44  2  0  0  0  0
 43 45  1  0  0  0  0
M  END
>  <MODEL>
       1

$$$$
