output/tmp_first_model_1_1.pdb
 OpenBabel07222618483D

 51 54  0  0  0  0  0  0  0  0999 V2000
    1.2350   -4.8050   25.8570 C   0  0  0  0  0  0  0  0  0  0  0  0
    1.9700   -3.6850   26.3060 O   0  0  0  0  0  0  0  0  0  0  0  0
    3.0540   -3.3220   25.5610 C   0  0  0  0  0  0  0  0  0  0  0  0
    3.7810   -4.1930   24.7550 C   0  0  0  0  0  0  0  0  0  0  0  0
    4.8150   -3.7050   23.9570 C   0  0  0  0  0  0  0  0  0  0  0  0
    5.1310   -2.3490   23.9680 C   0  0  0  0  0  0  0  0  0  0  0  0
    6.1570   -1.7730   23.1530 N   0  0  0  0  0  0  0  0  0  0  0  0
    7.2680   -1.1900   23.8930 C   0  0  0  0  0  0  0  0  0  0  0  0
    8.2170   -2.2980   24.2670 C   0  0  0  0  0  0  0  0  0  0  0  0
    9.1450   -2.8260   23.4310 C   0  0  0  0  0  0  0  0  0  0  0  0
    9.6320   -2.6950   23.4890 C   0  0  0  0  0  0  0  0  0  0  0  0
    8.7820   -4.3360   25.3850 C   0  0  0  0  0  0  0  0  0  0  0  0
    8.8010   -5.5360   25.8970 C   0  0  0  0  0  0  0  0  0  0  0  0
    7.4460   -6.0650   26.9120 Cl  0  0  0  0  0  0  0  0  0  0  0  0
    8.0540   -3.2000   25.2740 C   0  0  0  0  0  0  0  0  0  0  0  0
    7.2520   -3.1220   25.9980 H   0  0  0  0  0  0  0  0  0  0  0  0
    9.5160   -6.3390   25.7710 H   0  0  0  0  0  0  0  0  0  0  0  0
   10.5440   -2.4710   23.9510 H   0  0  0  0  0  0  0  0  0  0  0  0
    9.5560   -3.8520   23.0360 H   0  0  0  0  0  0  0  0  0  0  0  0
    7.7980   -0.4790   23.2480 H   0  0  0  0  0  0  0  0  0  0  0  0
    6.8820   -0.6850   24.7880 H   0  0  0  0  0  0  0  0  0  0  0  0
    5.9610   -1.7900   21.7740 C   0  0  0  0  0  0  0  0  0  0  0  0
    5.2280   -2.6020   21.2400 O   0  0  0  0  0  0  0  0  0  0  0  0
    6.6370   -0.6920   20.9410 C   0  0  0  0  0  0  0  0  0  0  0  0
    5.7740   -0.3000   19.7800 C   0  0  0  0  0  0  0  0  0  0  0  0
    6.2360   -0.3710   18.4940 C   0  0  0  0  0  0  0  0  0  0  0  0
    5.5360   -0.0300   17.3830 N   0  0  0  0  0  0  0  0  0  0  0  0
    4.3320    0.4530   17.5780 C   0  0  0  0  0  0  0  0  0  0  0  0
    3.7360    0.6180   18.8590 C   0  0  0  0  0  0  0  0  0  0  0  0
    2.4760    1.2460   19.0260 C   0  0  0  0  0  0  0  0  0  0  0  0
    1.9070    1.3630   20.2660 C   0  0  0  0  0  0  0  0  0  0  0  0
    2.6110    0.9110   21.4050 C   0  0  0  0  0  0  0  0  0  0  0  0
    3.8520    0.3410   21.2780 C   0  0  0  0  0  0  0  0  0  0  0  0
    4.4570    0.1940   19.9960 C   0  0  0  0  0  0  0  0  0  0  0  0
    4.3800    0.0140   22.1710 H   0  0  0  0  0  0  0  0  0  0  0  0
    2.1660    1.0290   22.3900 H   0  0  0  0  0  0  0  0  0  0  0  0
    0.9350    1.8330   20.3860 H   0  0  0  0  0  0  0  0  0  0  0  0
    2.0140    1.6930   18.1540 H   0  0  0  0  0  0  0  0  0  0  0  0
    3.7690    0.7460   16.6920 H   0  0  0  0  0  0  0  0  0  0  0  0
    7.2510   -0.7200   18.3120 H   0  0  0  0  0  0  0  0  0  0  0  0
    6.8190    0.2000   21.5520 H   0  0  0  0  0  0  0  0  0  0  0  0
    7.5990   -1.0590   20.5660 H   0  0  0  0  0  0  0  0  0  0  0  0
    4.4460   -1.4980   24.8370 C   0  0  0  0  0  0  0  0  0  0  0  0
    3.4190   -1.9780   25.6280 C   0  0  0  0  0  0  0  0  0  0  0  0
    2.8710   -1.3260   26.2960 H   0  0  0  0  0  0  0  0  0  0  0  0
    4.7000   -0.4390   24.8490 H   0  0  0  0  0  0  0  0  0  0  0  0
    5.3260   -4.3920   23.2890 H   0  0  0  0  0  0  0  0  0  0  0  0
    3.5260   -5.2480   24.7140 H   0  0  0  0  0  0  0  0  0  0  0  0
    1.7420   -5.7460   26.1040 H   0  0  0  0  0  0  0  0  0  0  0  0
    0.2730   -4.7710   26.3700 H   0  0  0  0  0  0  0  0  0  0  0  0
    1.0720   -4.7610   24.7720 H   0  0  0  0  0  0  0  0  0  0  0  0
  1  2  1  0  0  0  0
  1 49  1  0  0  0  0
  1 50  1  0  0  0  0
  1 51  1  0  0  0  0
  2  3  1  0  0  0  0
  3  4  2  0  0  0  0
  3 44  1  0  0  0  0
  4  5  1  0  0  0  0
  4 48  1  0  0  0  0
  5  6  2  0  0  0  0
  5 47  1  0  0  0  0
  6  7  1  0  0  0  0
  6 43  1  0  0  0  0
  7  8  1  0  0  0  0
  7 22  1  0  0  0  0
  8  9  1  0  0  0  0
  8 20  1  0  0  0  0
  8 21  1  0  0  0  0
  9 10  2  0  0  0  0
  9 15  1  0  0  0  0
 10 11  1  0  0  0  0
 10 19  1  0  0  0  0
 11 12  2  0  0  0  0
 11 18  1  0  0  0  0
 12 13  1  0  0  0  0
 12 17  1  0  0  0  0
 13 14  1  0  0  0  0
 13 15  2  0  0  0  0
 15 16  1  0  0  0  0
 22 23  2  0  0  0  0
 22 24  1  0  0  0  0
 24 25  1  0  0  0  0
 24 41  1  0  0  0  0
 24 42  1  0  0  0  0
 25 26  2  0  0  0  0
 25 34  1  0  0  0  0
 26 27  1  0  0  0  0
 26 40  1  0  0  0  0
 27 28  2  0  0  0  0
 28 29  1  0  0  0  0
 28 39  1  0  0  0  0
 29 30  2  0  0  0  0
 29 34  1  0  0  0  0
 30 31  1  0  0  0  0
 30 38  1  0  0  0  0
 31 32  2  0  0  0  0
 31 37  1  0  0  0  0
 32 33  1  0  0  0  0
 32 36  1  0  0  0  0
 33 34  2  0  0  0  0
 33 35  1  0  0  0  0
 43 44  2  0  0  0  0
 43 46  1  0  0  0  0
 44 45  1  0  0  0  0
M  END
>  <MODEL>
       1

$$$$
