output/tmp_first_model_15_36.pdb
 OpenBabel07232601353D

 59 64  0  0  1  0  0  0  0  0999 V2000
    6.5770   -2.0030   23.7860 C   0  0  0  0  0  0  0  0  0  0  0  0
    7.5770   -1.7690   22.6420 C   0  0  1  0  0  0  0  0  0  0  0  0
    6.8580   -1.7720   21.2760 C   0  0  0  0  0  0  0  0  0  0  0  0
    6.8590   -0.3900   20.8730 N   0  0  0  0  0  0  0  0  0  0  0  0
    6.1180    0.1100   19.7810 C   0  0  0  0  0  0  0  0  0  0  0  0
    6.4360   -0.2340   18.4900 C   0  0  0  0  0  0  0  0  0  0  0  0
    5.7730    0.2190   17.4030 N   0  0  0  0  0  0  0  0  0  0  0  0
    4.7590    1.0300   17.6020 C   0  0  0  0  0  0  0  0  0  0  0  0
    4.3140    1.4450   18.8920 C   0  0  0  0  0  0  0  0  0  0  0  0
    3.1870    2.2910   19.0670 C   0  0  0  0  0  0  0  0  0  0  0  0
    2.7650    2.6430   20.3220 C   0  0  0  0  0  0  0  0  0  0  0  0
    3.4470    2.1640   21.4620 C   0  0  0  0  0  0  0  0  0  0  0  0
    4.5420    1.3460   21.3190 C   0  0  0  0  0  0  0  0  0  0  0  0
    5.0070    0.9720   20.0250 C   0  0  0  0  0  0  0  0  0  0  0  0
    5.0590    0.9740   22.1990 H   0  0  0  0  0  0  0  0  0  0  0  0
    3.1140    2.4530   22.4560 H   0  0  0  0  0  0  0  0  0  0  0  0
    1.9040    3.2940   20.4450 H   0  0  0  0  0  0  0  0  0  0  0  0
    2.6710    2.6510   18.1840 H   0  0  0  0  0  0  0  0  0  0  0  0
    4.2240    1.3840   16.7210 H   0  0  0  0  0  0  0  0  0  0  0  0
    7.2850   -0.8900   18.2930 H   0  0  0  0  0  0  0  0  0  0  0  0
    7.7810    0.3900   21.5240 C   0  0  0  0  0  0  0  0  0  0  0  0
    8.0830    1.5090   21.1830 O   0  0  0  0  0  0  0  0  0  0  0  0
    8.3780   -0.4280   22.6890 C   0  0  1  0  0  0  0  0  0  0  0  0
    8.2230    0.2860   24.0520 C   0  0  0  0  0  0  0  0  0  0  0  0
    9.0600    1.4610   24.1770 N   0  0  0  0  0  0  0  0  0  0  0  0
    8.4980    2.7160   24.6440 C   0  0  0  0  0  0  0  0  0  0  0  0
    8.0710    3.6460   23.5400 C   0  0  0  0  0  0  0  0  0  0  0  0
    8.8720    4.6190   22.9020 C   0  0  0  0  0  0  0  0  0  0  0  0
    8.0170    5.2430   22.0290 C   0  0  0  0  0  0  0  0  0  0  0  0
    6.8240    4.6240   22.1310 N   0  0  0  0  0  0  0  0  0  0  0  0
    5.6770    4.7900   21.2650 C   0  0  0  0  0  0  0  0  0  0  0  0
    4.7670    4.8730   21.8640 H   0  0  0  0  0  0  0  0  0  0  0  0
    5.8080    5.6980   20.6730 H   0  0  0  0  0  0  0  0  0  0  0  0
    5.5890    3.9300   20.5930 H   0  0  0  0  0  0  0  0  0  0  0  0
    6.8330    3.6450   23.0560 N   0  0  0  0  0  0  0  0  0  0  0  0
    8.1670    6.0670   21.3310 H   0  0  0  0  0  0  0  0  0  0  0  0
    9.9460    4.7420   22.9910 H   0  0  0  0  0  0  0  0  0  0  0  0
    9.2720    3.1870   25.2570 H   0  0  0  0  0  0  0  0  0  0  0  0
    7.6360    2.4850   25.2710 H   0  0  0  0  0  0  0  0  0  0  0  0
   10.3660    1.4720   23.7920 C   0  0  0  0  0  0  0  0  0  0  0  0
   11.1350    2.3780   24.0970 O   0  0  0  0  0  0  0  0  0  0  0  0
   10.7910    0.3230   22.9540 C   0  0  0  0  0  0  0  0  0  0  0  0
   12.1490    0.2330   22.6800 C   0  0  0  0  0  0  0  0  0  0  0  0
   12.6100   -0.7680   21.8600 C   0  0  0  0  0  0  0  0  0  0  0  0
   11.6970   -1.6390   21.2830 C   0  0  0  0  0  0  0  0  0  0  0  0
   12.1470   -2.5830   20.4420 F   0  0  0  0  0  0  0  0  0  0  0  0
   10.3410   -1.5580   21.5390 C   0  0  0  0  0  0  0  0  0  0  0  0
    9.8710   -0.5860   22.4260 C   0  0  0  0  0  0  0  0  0  0  0  0
    9.6770   -2.2500   21.0370 H   0  0  0  0  0  0  0  0  0  0  0  0
   13.6620   -0.8510   21.6620 H   0  0  0  0  0  0  0  0  0  0  0  0
   12.7930    0.9880   23.1220 H   0  0  0  0  0  0  0  0  0  0  0  0
    7.1890    0.6050   24.2030 H   0  0  0  0  0  0  0  0  0  0  0  0
    8.4930   -0.4370   24.8330 H   0  0  0  0  0  0  0  0  0  0  0  0
    7.3900   -2.3890   20.5480 H   0  0  0  0  0  0  0  0  0  0  0  0
    5.8290   -2.1380   21.3430 H   0  0  0  0  0  0  0  0  0  0  0  0
    8.2940   -2.5930   22.6990 H   0  0  0  0  0  0  0  0  0  0  0  0
    6.0650   -2.9610   23.6530 H   0  0  0  0  0  0  0  0  0  0  0  0
    5.8120   -1.2200   23.8220 H   0  0  0  0  0  0  0  0  0  0  0  0
    7.0730   -2.0430   24.7600 H   0  0  0  0  0  0  0  0  0  0  0  0
  1  2  1  0  0  0  0
  1 57  1  0  0  0  0
  1 58  1  0  0  0  0
  1 59  1  0  0  0  0
  2  3  1  0  0  0  0
  2 23  1  0  0  0  0
  2 56  1  1  0  0  0
  3  4  1  0  0  0  0
  3 54  1  0  0  0  0
  3 55  1  0  0  0  0
  4  5  1  0  0  0  0
  4 21  1  0  0  0  0
  5  6  2  0  0  0  0
  5 14  1  0  0  0  0
  6  7  1  0  0  0  0
  6 20  1  0  0  0  0
  7  8  2  0  0  0  0
  8  9  1  0  0  0  0
  8 19  1  0  0  0  0
  9 10  2  0  0  0  0
  9 14  1  0  0  0  0
 10 11  1  0  0  0  0
 10 18  1  0  0  0  0
 11 12  2  0  0  0  0
 11 17  1  0  0  0  0
 12 13  1  0  0  0  0
 12 16  1  0  0  0  0
 13 14  2  0  0  0  0
 13 15  1  0  0  0  0
 21 22  2  0  0  0  0
 23 21  1  6  0  0  0
 23 24  1  0  0  0  0
 23 48  1  0  0  0  0
 24 25  1  0  0  0  0
 24 52  1  0  0  0  0
 24 53  1  0  0  0  0
 25 26  1  0  0  0  0
 25 40  1  0  0  0  0
 26 27  1  0  0  0  0
 26 38  1  0  0  0  0
 26 39  1  0  0  0  0
 27 28  1  0  0  0  0
 27 35  2  0  0  0  0
 28 29  2  0  0  0  0
 28 37  1  0  0  0  0
 29 30  1  0  0  0  0
 29 36  1  0  0  0  0
 30 31  1  0  0  0  0
 30 35  1  0  0  0  0
 31 32  1  0  0  0  0
 31 33  1  0  0  0  0
 31 34  1  0  0  0  0
 40 41  2  0  0  0  0
 40 42  1  0  0  0  0
 42 43  2  0  0  0  0
 42 48  1  0  0  0  0
 43 44  1  0  0  0  0
 43 51  1  0  0  0  0
 44 45  2  0  0  0  0
 44 50  1  0  0  0  0
 45 46  1  0  0  0  0
 45 47  1  0  0  0  0
 47 48  2  0  0  0  0
 47 49  1  0  0  0  0
M  END
>  <MODEL>
       1

$$$$
