output/tmp_first_model_19_75.pdb
 OpenBabel07232603163D

 70 75  0  0  1  0  0  0  0  0999 V2000
   11.3840    5.9290   25.9200 C   0  0  0  0  0  0  0  0  0  0  0  0
   11.7560    5.3480   24.6950 O   0  0  0  0  0  0  0  0  0  0  0  0
   10.7650    4.8940   23.8860 C   0  0  0  0  0  0  0  0  0  0  0  0
   11.1920    4.1790   22.7660 C   0  0  0  0  0  0  0  0  0  0  0  0
   10.2620    3.7270   21.8580 C   0  0  0  0  0  0  0  0  0  0  0  0
    8.9020    3.9530   22.0500 C   0  0  0  0  0  0  0  0  0  0  0  0
    8.4720    4.6550   23.1680 C   0  0  0  0  0  0  0  0  0  0  0  0
    6.9780    4.7160   23.4280 C   0  0  0  0  0  0  0  0  0  0  0  0
    6.5280    3.3990   23.8580 N   0  0  0  0  0  0  0  0  0  0  0  0
    6.4250    3.1330   25.1930 C   0  0  0  0  0  0  0  0  0  0  0  0
    6.2240    3.9860   26.0420 O   0  0  0  0  0  0  0  0  0  0  0  0
    6.5390    1.6490   25.5680 C   0  0  0  0  0  0  0  0  0  0  0  0
    7.5490    0.9660   24.7720 N   0  0  0  0  0  0  0  0  0  0  0  0
    7.2520   -0.2910   24.0980 C   0  0  0  0  0  0  0  0  0  0  0  0
    8.0720   -0.5040   22.7860 C   0  0  2  0  0  0  0  0  0  0  0  0
    7.4010    0.3060   21.6520 C   0  0  0  0  0  0  0  0  0  0  0  0
    7.3470    1.5180   21.5740 O   0  0  0  0  0  0  0  0  0  0  0  0
    6.7790   -0.5530   20.7780 N   0  0  0  0  0  0  0  0  0  0  0  0
    5.9900   -0.0740   19.7010 C   0  0  0  0  0  0  0  0  0  0  0  0
    6.2950   -0.4180   18.4080 C   0  0  0  0  0  0  0  0  0  0  0  0
    5.6580    0.0700   17.3140 N   0  0  0  0  0  0  0  0  0  0  0  0
    4.6740    0.9170   17.5120 C   0  0  0  0  0  0  0  0  0  0  0  0
    4.2180    1.3100   18.8010 C   0  0  0  0  0  0  0  0  0  0  0  0
    3.1430    2.2230   18.9750 C   0  0  0  0  0  0  0  0  0  0  0  0
    2.7240    2.5800   20.2290 C   0  0  0  0  0  0  0  0  0  0  0  0
    3.3340    2.0080   21.3690 C   0  0  0  0  0  0  0  0  0  0  0  0
    4.3510    1.1000   21.2240 C   0  0  0  0  0  0  0  0  0  0  0  0
    4.8630    0.7750   19.9350 C   0  0  0  0  0  0  0  0  0  0  0  0
    4.7830    0.6200   22.0960 H   0  0  0  0  0  0  0  0  0  0  0  0
    3.0050    2.2980   22.3630 H   0  0  0  0  0  0  0  0  0  0  0  0
    1.9290    3.3100   20.3570 H   0  0  0  0  0  0  0  0  0  0  0  0
    2.6680    2.6400   18.0910 H   0  0  0  0  0  0  0  0  0  0  0  0
    4.1740    1.3230   16.6300 H   0  0  0  0  0  0  0  0  0  0  0  0
    7.1200   -1.1010   18.2080 H   0  0  0  0  0  0  0  0  0  0  0  0
    6.6690   -1.8890   21.3360 C   0  0  0  0  0  0  0  0  0  0  0  0
    7.9100   -1.9490   22.2290 C   0  0  2  0  0  0  0  0  0  0  0  0
    7.9780   -3.0690   23.2580 C   0  0  0  0  0  0  0  0  0  0  0  0
    7.1000   -3.0840   23.9130 H   0  0  0  0  0  0  0  0  0  0  0  0
    8.0510   -4.0470   22.7720 H   0  0  0  0  0  0  0  0  0  0  0  0
    8.8640   -2.9370   23.8910 H   0  0  0  0  0  0  0  0  0  0  0  0
    8.7400   -2.0880   21.5380 H   0  0  0  0  0  0  0  0  0  0  0  0
    6.6540   -2.6340   20.5410 H   0  0  0  0  0  0  0  0  0  0  0  0
    5.7450   -2.0160   21.9190 H   0  0  0  0  0  0  0  0  0  0  0  0
    9.5240   -0.1150   23.0400 C   0  0  0  0  0  0  0  0  0  0  0  0
   10.5730   -0.5900   22.2300 C   0  0  0  0  0  0  0  0  0  0  0  0
   11.8900   -0.2760   22.5130 C   0  0  0  0  0  0  0  0  0  0  0  0
   13.1720   -0.9330   21.5210 Cl  0  0  0  0  0  0  0  0  0  0  0  0
   12.2310    0.5450   23.5870 C   0  0  0  0  0  0  0  0  0  0  0  0
   11.2070    1.0500   24.3640 C   0  0  0  0  0  0  0  0  0  0  0  0
    9.8740    0.7400   24.0930 C   0  0  0  0  0  0  0  0  0  0  0  0
    8.8370    1.3980   24.9440 C   0  0  0  0  0  0  0  0  0  0  0  0
    9.1250    2.2970   25.7260 O   0  0  0  0  0  0  0  0  0  0  0  0
   11.4040    1.7140   25.1980 H   0  0  0  0  0  0  0  0  0  0  0  0
   13.2750    0.7870   23.7800 H   0  0  0  0  0  0  0  0  0  0  0  0
   10.3840   -1.1920   21.3490 H   0  0  0  0  0  0  0  0  0  0  0  0
    7.4460   -1.1170   24.7930 H   0  0  0  0  0  0  0  0  0  0  0  0
    6.1850   -0.3000   23.8550 H   0  0  0  0  0  0  0  0  0  0  0  0
    5.5780    1.1410   25.4150 H   0  0  0  0  0  0  0  0  0  0  0  0
    6.7670    1.6150   26.6410 H   0  0  0  0  0  0  0  0  0  0  0  0
    6.8040    2.6290   23.2500 H   0  0  0  0  0  0  0  0  0  0  0  0
    6.4140    4.9760   22.5220 H   0  0  0  0  0  0  0  0  0  0  0  0
    6.7180    5.4280   24.2150 H   0  0  0  0  0  0  0  0  0  0  0  0
    9.4020    5.1210   24.0990 C   0  0  0  0  0  0  0  0  0  0  0  0
    9.0600    5.6450   24.9870 H   0  0  0  0  0  0  0  0  0  0  0  0
    8.1770    3.5560   21.3490 H   0  0  0  0  0  0  0  0  0  0  0  0
   10.6080    3.1730   20.9940 H   0  0  0  0  0  0  0  0  0  0  0  0
   12.2550    4.0080   22.6120 H   0  0  0  0  0  0  0  0  0  0  0  0
   12.3170    6.1960   26.4130 H   0  0  0  0  0  0  0  0  0  0  0  0
   10.7800    6.8360   25.7910 H   0  0  0  0  0  0  0  0  0  0  0  0
   10.8300    5.2060   26.5320 H   0  0  0  0  0  0  0  0  0  0  0  0
  1  2  1  0  0  0  0
  1 68  1  0  0  0  0
  1 69  1  0  0  0  0
  1 70  1  0  0  0  0
  2  3  1  0  0  0  0
  3  4  2  0  0  0  0
  3 63  1  0  0  0  0
  4  5  1  0  0  0  0
  4 67  1  0  0  0  0
  5  6  2  0  0  0  0
  5 66  1  0  0  0  0
  6  7  1  0  0  0  0
  6 65  1  0  0  0  0
  7  8  1  0  0  0  0
  7 63  2  0  0  0  0
  8  9  1  0  0  0  0
  8 61  1  0  0  0  0
  8 62  1  0  0  0  0
  9 10  1  0  0  0  0
  9 60  1  0  0  0  0
 10 11  2  0  0  0  0
 10 12  1  0  0  0  0
 12 13  1  0  0  0  0
 12 58  1  0  0  0  0
 12 59  1  0  0  0  0
 13 14  1  0  0  0  0
 13 51  1  0  0  0  0
 14 15  1  0  0  0  0
 14 56  1  0  0  0  0
 14 57  1  0  0  0  0
 15 16  1  6  0  0  0
 15 36  1  0  0  0  0
 15 44  1  0  0  0  0
 16 17  2  0  0  0  0
 16 18  1  0  0  0  0
 18 19  1  0  0  0  0
 18 35  1  0  0  0  0
 19 20  2  0  0  0  0
 19 28  1  0  0  0  0
 20 21  1  0  0  0  0
 20 34  1  0  0  0  0
 21 22  2  0  0  0  0
 22 23  1  0  0  0  0
 22 33  1  0  0  0  0
 23 24  2  0  0  0  0
 23 28  1  0  0  0  0
 24 25  1  0  0  0  0
 24 32  1  0  0  0  0
 25 26  2  0  0  0  0
 25 31  1  0  0  0  0
 26 27  1  0  0  0  0
 26 30  1  0  0  0  0
 27 28  2  0  0  0  0
 27 29  1  0  0  0  0
 35 36  1  0  0  0  0
 35 42  1  0  0  0  0
 35 43  1  0  0  0  0
 36 37  1  0  0  0  0
 36 41  1  6  0  0  0
 37 38  1  0  0  0  0
 37 39  1  0  0  0  0
 37 40  1  0  0  0  0
 44 45  2  0  0  0  0
 44 50  1  0  0  0  0
 45 46  1  0  0  0  0
 45 55  1  0  0  0  0
 46 47  1  0  0  0  0
 46 48  2  0  0  0  0
 48 49  1  0  0  0  0
 48 54  1  0  0  0  0
 49 50  2  0  0  0  0
 49 53  1  0  0  0  0
 50 51  1  0  0  0  0
 51 52  2  0  0  0  0
 63 64  1  0  0  0  0
M  END
>  <MODEL>
       1

$$$$
