output/tmp_first_model_14_86.pdb
 OpenBabel07232601073D

 65 70  0  0  1  0  0  0  0  0999 V2000
    6.3590    4.3590   21.2580 C   0  0  0  0  0  0  0  0  0  0  0  0
    7.3150    3.8700   22.2390 N   0  0  0  0  0  0  0  0  0  0  0  0
    6.8960    3.2380   23.3670 C   0  0  0  0  0  0  0  0  0  0  0  0
    5.7170    3.0090   23.6120 O   0  0  0  0  0  0  0  0  0  0  0  0
    8.0080    2.8640   24.3480 C   0  0  0  0  0  0  0  0  0  0  0  0
    8.6920    1.6380   23.9740 N   0  0  0  0  0  0  0  0  0  0  0  0
    7.9170    0.4080   23.8590 C   0  0  0  0  0  0  0  0  0  0  0  0
    8.3180   -0.4140   22.6050 C   0  0  2  0  0  0  0  0  0  0  0  0
    7.8630    0.2830   21.3090 C   0  0  0  0  0  0  0  0  0  0  0  0
    8.3180    1.2970   20.8170 O   0  0  0  0  0  0  0  0  0  0  0  0
    6.8340   -0.4530   20.7590 N   0  0  0  0  0  0  0  0  0  0  0  0
    6.0920    0.0850   19.6830 C   0  0  0  0  0  0  0  0  0  0  0  0
    6.4520   -0.1880   18.3890 C   0  0  0  0  0  0  0  0  0  0  0  0
    5.7750    0.2640   17.3070 N   0  0  0  0  0  0  0  0  0  0  0  0
    4.7360    1.0370   17.5250 C   0  0  0  0  0  0  0  0  0  0  0  0
    4.2780    1.4190   18.8200 C   0  0  0  0  0  0  0  0  0  0  0  0
    3.1640    2.2770   19.0170 C   0  0  0  0  0  0  0  0  0  0  0  0
    2.7710    2.6310   20.2820 C   0  0  0  0  0  0  0  0  0  0  0  0
    3.4720    2.1520   21.4100 C   0  0  0  0  0  0  0  0  0  0  0  0
    4.5530    1.3210   21.2430 C   0  0  0  0  0  0  0  0  0  0  0  0
    4.9760    0.9290   19.9420 C   0  0  0  0  0  0  0  0  0  0  0  0
    5.1290    1.0150   22.1110 H   0  0  0  0  0  0  0  0  0  0  0  0
    3.1930    2.4720   22.4100 H   0  0  0  0  0  0  0  0  0  0  0  0
    1.9250    3.2950   20.4230 H   0  0  0  0  0  0  0  0  0  0  0  0
    2.6500    2.6590   18.1400 H   0  0  0  0  0  0  0  0  0  0  0  0
    4.1970    1.4060   16.6510 H   0  0  0  0  0  0  0  0  0  0  0  0
    7.3240   -0.8100   18.1930 H   0  0  0  0  0  0  0  0  0  0  0  0
    6.3530   -1.5320   21.6030 C   0  0  0  0  0  0  0  0  0  0  0  0
    7.5870   -1.7780   22.4700 C   0  0  2  0  0  0  0  0  0  0  0  0
    7.3960   -2.6010   23.7370 C   0  0  0  0  0  0  0  0  0  0  0  0
    6.2500   -2.2100   24.5400 N   0  0  0  0  0  0  0  0  0  0  0  0
    5.0890   -2.8960   24.5310 C   0  0  0  0  0  0  0  0  0  0  0  0
    4.1490   -2.5370   25.4290 N   0  0  0  0  0  0  0  0  0  0  0  0
    3.0800   -3.3140   25.4200 C   0  0  0  0  0  0  0  0  0  0  0  0
    2.8610   -4.3740   24.6370 N   0  0  0  0  0  0  0  0  0  0  0  0
    3.8210   -4.5600   23.7310 C   0  0  0  0  0  0  0  0  0  0  0  0
    4.9390   -3.8630   23.6030 N   0  0  0  0  0  0  0  0  0  0  0  0
    3.6900   -5.3860   23.0320 H   0  0  0  0  0  0  0  0  0  0  0  0
    2.2960   -3.0790   26.1410 H   0  0  0  0  0  0  0  0  0  0  0  0
    6.3570   -1.5440   25.2920 H   0  0  0  0  0  0  0  0  0  0  0  0
    7.2540   -3.6480   23.4650 H   0  0  0  0  0  0  0  0  0  0  0  0
    8.3050   -2.5280   24.3440 H   0  0  0  0  0  0  0  0  0  0  0  0
    8.2390   -2.3680   21.8290 H   0  0  0  0  0  0  0  0  0  0  0  0
    5.4590   -1.2470   22.1740 H   0  0  0  0  0  0  0  0  0  0  0  0
    6.0860   -2.4070   21.0020 H   0  0  0  0  0  0  0  0  0  0  0  0
    9.8220   -0.5250   22.5920 C   0  0  0  0  0  0  0  0  0  0  0  0
   10.4340   -1.4860   21.7890 C   0  0  0  0  0  0  0  0  0  0  0  0
   11.8050   -1.5840   21.7400 C   0  0  0  0  0  0  0  0  0  0  0  0
   12.3510   -2.8480   20.6810 Cl  0  0  0  0  0  0  0  0  0  0  0  0
   12.6260   -0.7110   22.4620 C   0  0  0  0  0  0  0  0  0  0  0  0
   12.0210    0.2900   23.1950 C   0  0  0  0  0  0  0  0  0  0  0  0
   10.6360    0.4040   23.2500 C   0  0  0  0  0  0  0  0  0  0  0  0
   10.0630    1.6030   23.9510 C   0  0  0  0  0  0  0  0  0  0  0  0
   10.7710    2.4830   24.4220 O   0  0  0  0  0  0  0  0  0  0  0  0
   12.6230    1.0160   23.7260 H   0  0  0  0  0  0  0  0  0  0  0  0
   13.7080   -0.7460   22.4660 H   0  0  0  0  0  0  0  0  0  0  0  0
    9.8810   -2.1740   21.1540 H   0  0  0  0  0  0  0  0  0  0  0  0
    8.0680   -0.2080   24.7590 H   0  0  0  0  0  0  0  0  0  0  0  0
    6.8640    0.6910   23.8040 H   0  0  0  0  0  0  0  0  0  0  0  0
    8.7680    3.6520   24.3820 H   0  0  0  0  0  0  0  0  0  0  0  0
    7.5490    2.7890   25.3440 H   0  0  0  0  0  0  0  0  0  0  0  0
    8.2480    3.6570   21.9190 H   0  0  0  0  0  0  0  0  0  0  0  0
    5.6090    4.9780   21.7590 H   0  0  0  0  0  0  0  0  0  0  0  0
    5.8370    3.5400   20.7400 H   0  0  0  0  0  0  0  0  0  0  0  0
    6.8880    4.9810   20.5290 H   0  0  0  0  0  0  0  0  0  0  0  0
  1  2  1  0  0  0  0
  1 63  1  0  0  0  0
  1 64  1  0  0  0  0
  1 65  1  0  0  0  0
  2  3  1  0  0  0  0
  2 62  1  0  0  0  0
  3  4  2  0  0  0  0
  3  5  1  0  0  0  0
  5  6  1  0  0  0  0
  5 60  1  0  0  0  0
  5 61  1  0  0  0  0
  6  7  1  0  0  0  0
  6 53  1  0  0  0  0
  7  8  1  0  0  0  0
  7 58  1  0  0  0  0
  7 59  1  0  0  0  0
  8  9  1  6  0  0  0
  8 29  1  0  0  0  0
  8 46  1  0  0  0  0
  9 10  2  0  0  0  0
  9 11  1  0  0  0  0
 11 12  1  0  0  0  0
 11 28  1  0  0  0  0
 12 13  2  0  0  0  0
 12 21  1  0  0  0  0
 13 14  1  0  0  0  0
 13 27  1  0  0  0  0
 14 15  2  0  0  0  0
 15 16  1  0  0  0  0
 15 26  1  0  0  0  0
 16 17  2  0  0  0  0
 16 21  1  0  0  0  0
 17 18  1  0  0  0  0
 17 25  1  0  0  0  0
 18 19  2  0  0  0  0
 18 24  1  0  0  0  0
 19 20  1  0  0  0  0
 19 23  1  0  0  0  0
 20 21  2  0  0  0  0
 20 22  1  0  0  0  0
 28 29  1  0  0  0  0
 28 44  1  0  0  0  0
 28 45  1  0  0  0  0
 29 30  1  0  0  0  0
 29 43  1  6  0  0  0
 30 31  1  0  0  0  0
 30 41  1  0  0  0  0
 30 42  1  0  0  0  0
 31 32  1  0  0  0  0
 31 40  1  0  0  0  0
 32 33  2  0  0  0  0
 32 37  1  0  0  0  0
 33 34  1  0  0  0  0
 34 35  2  0  0  0  0
 34 39  1  0  0  0  0
 35 36  1  0  0  0  0
 36 37  2  0  0  0  0
 36 38  1  0  0  0  0
 46 47  2  0  0  0  0
 46 52  1  0  0  0  0
 47 48  1  0  0  0  0
 47 57  1  0  0  0  0
 48 49  1  0  0  0  0
 48 50  2  0  0  0  0
 50 51  1  0  0  0  0
 50 56  1  0  0  0  0
 51 52  2  0  0  0  0
 51 55  1  0  0  0  0
 52 53  1  0  0  0  0
 53 54  2  0  0  0  0
M  END
>  <MODEL>
       1

$$$$
