output/tmp_first_model_16_51.pdb
 OpenBabel07232602073D

 67 73  0  0  1  0  0  0  0  0999 V2000
    5.5410    4.7970   22.2290 C   0  0  0  0  0  0  0  0  0  0  0  0
    5.9900    3.9080   23.3310 C   0  0  0  0  0  0  0  0  0  0  0  0
    5.2710    3.2250   24.1580 N   0  0  0  0  0  0  0  0  0  0  0  0
    6.1570    2.5210   24.9680 N   0  0  0  0  0  0  0  0  0  0  0  0
    7.3430    2.8380   24.5690 C   0  0  0  0  0  0  0  0  0  0  0  0
    8.6450    2.3130   25.0850 C   0  0  0  0  0  0  0  0  0  0  0  0
    9.2420    1.3530   24.1760 N   0  0  0  0  0  0  0  0  0  0  0  0
    8.6220    0.0440   24.0180 C   0  0  0  0  0  0  0  0  0  0  0  0
    8.6650   -0.4570   22.5550 C   0  0  2  0  0  0  0  0  0  0  0  0
    7.7640    0.4350   21.6570 C   0  0  0  0  0  0  0  0  0  0  0  0
    7.8370    1.6360   21.5510 O   0  0  0  0  0  0  0  0  0  0  0  0
    6.8370   -0.3680   20.9940 N   0  0  0  0  0  0  0  0  0  0  0  0
    6.1050    0.1170   19.8720 C   0  0  0  0  0  0  0  0  0  0  0  0
    6.4450   -0.2290   18.5840 C   0  0  0  0  0  0  0  0  0  0  0  0
    5.7980    0.2150   17.4810 N   0  0  0  0  0  0  0  0  0  0  0  0
    4.7700    1.0080   17.6510 C   0  0  0  0  0  0  0  0  0  0  0  0
    4.2940    1.4280   18.9240 C   0  0  0  0  0  0  0  0  0  0  0  0
    3.1640    2.2780   19.0660 C   0  0  0  0  0  0  0  0  0  0  0  0
    2.7210    2.6440   20.3090 C   0  0  0  0  0  0  0  0  0  0  0  0
    3.3910    2.1800   21.4630 C   0  0  0  0  0  0  0  0  0  0  0  0
    4.4930    1.3680   21.3510 C   0  0  0  0  0  0  0  0  0  0  0  0
    4.9750    0.9700   20.0750 C   0  0  0  0  0  0  0  0  0  0  0  0
    5.0180    1.0290   22.2400 H   0  0  0  0  0  0  0  0  0  0  0  0
    3.0470    2.4790   22.4480 H   0  0  0  0  0  0  0  0  0  0  0  0
    1.8540    3.2920   20.4090 H   0  0  0  0  0  0  0  0  0  0  0  0
    2.6630    2.6290   18.1680 H   0  0  0  0  0  0  0  0  0  0  0  0
    4.2590    1.3540   16.7530 H   0  0  0  0  0  0  0  0  0  0  0  0
    7.2970   -0.8770   18.3820 H   0  0  0  0  0  0  0  0  0  0  0  0
    7.1860   -1.7740   21.0780 C   0  0  0  0  0  0  0  0  0  0  0  0
    8.0560   -1.8840   22.3420 C   0  0  2  0  0  0  0  0  0  0  0  0
    7.2820   -2.5230   23.5010 C   0  0  0  0  0  0  0  0  0  0  0  0
    6.0450   -1.8410   23.8090 N   0  0  0  0  0  0  0  0  0  0  0  0
    5.2960   -2.1840   24.8900 C   0  0  0  0  0  0  0  0  0  0  0  0
    4.1540   -1.4420   25.2610 C   0  0  0  0  0  0  0  0  0  0  0  0
    3.4550   -1.9040   26.3550 C   0  0  0  0  0  0  0  0  0  0  0  0
    3.8160   -2.9800   27.0690 N   0  0  0  0  0  0  0  0  0  0  0  0
    4.9170   -3.5830   26.6440 C   0  0  0  0  0  0  0  0  0  0  0  0
    5.6820   -3.2540   25.6020 N   0  0  0  0  0  0  0  0  0  0  0  0
    5.2390   -4.4560   27.2170 H   0  0  0  0  0  0  0  0  0  0  0  0
    2.5500   -1.3940   26.6890 H   0  0  0  0  0  0  0  0  0  0  0  0
    3.8390   -0.5580   24.7110 H   0  0  0  0  0  0  0  0  0  0  0  0
    5.7200   -1.1140   23.1860 H   0  0  0  0  0  0  0  0  0  0  0  0
    7.9000   -2.5560   24.4060 H   0  0  0  0  0  0  0  0  0  0  0  0
    7.0660   -3.5720   23.2600 H   0  0  0  0  0  0  0  0  0  0  0  0
    8.8650   -2.5950   22.1760 H   0  0  0  0  0  0  0  0  0  0  0  0
    7.7360   -2.0710   20.1770 H   0  0  0  0  0  0  0  0  0  0  0  0
    6.2870   -2.3950   21.1480 H   0  0  0  0  0  0  0  0  0  0  0  0
   10.1370   -0.3580   22.1470 C   0  0  0  0  0  0  0  0  0  0  0  0
   10.7030   -1.3140   21.3040 C   0  0  0  0  0  0  0  0  0  0  0  0
   12.0550   -1.2870   21.0300 C   0  0  0  0  0  0  0  0  0  0  0  0
   12.6720   -2.5610   20.0100 Cl  0  0  0  0  0  0  0  0  0  0  0  0
   12.8670   -0.2250   21.4520 C   0  0  0  0  0  0  0  0  0  0  0  0
   12.3040    0.7630   22.2400 C   0  0  0  0  0  0  0  0  0  0  0  0
   10.9660    0.6650   22.6280 C   0  0  0  0  0  0  0  0  0  0  0  0
   10.4550    1.6540   23.6190 C   0  0  0  0  0  0  0  0  0  0  0  0
   11.0860    2.6580   23.9330 O   0  0  0  0  0  0  0  0  0  0  0  0
   12.8550    1.6380   22.5760 H   0  0  0  0  0  0  0  0  0  0  0  0
   13.9010   -0.1810   21.1290 H   0  0  0  0  0  0  0  0  0  0  0  0
   10.1070   -2.0940   20.8480 H   0  0  0  0  0  0  0  0  0  0  0  0
    7.5890    0.1180   24.3570 H   0  0  0  0  0  0  0  0  0  0  0  0
    9.1720   -0.6900   24.6220 H   0  0  0  0  0  0  0  0  0  0  0  0
    9.3750    3.1210   25.1980 H   0  0  0  0  0  0  0  0  0  0  0  0
    8.4530    1.8620   26.0660 H   0  0  0  0  0  0  0  0  0  0  0  0
    7.3210    3.7260   23.5490 O   0  0  0  0  0  0  0  0  0  0  0  0
    6.1260    5.7190   22.1950 H   0  0  0  0  0  0  0  0  0  0  0  0
    4.4880    5.0440   22.3770 H   0  0  0  0  0  0  0  0  0  0  0  0
    5.6430    4.2850   21.2650 H   0  0  0  0  0  0  0  0  0  0  0  0
  1  2  1  0  0  0  0
  1 65  1  0  0  0  0
  1 66  1  0  0  0  0
  1 67  1  0  0  0  0
  2  3  2  0  0  0  0
  2 64  1  0  0  0  0
  3  4  1  0  0  0  0
  4  5  2  0  0  0  0
  5  6  1  0  0  0  0
  5 64  1  0  0  0  0
  6  7  1  0  0  0  0
  6 62  1  0  0  0  0
  6 63  1  0  0  0  0
  7  8  1  0  0  0  0
  7 55  1  0  0  0  0
  8  9  1  0  0  0  0
  8 60  1  0  0  0  0
  8 61  1  0  0  0  0
  9 10  1  6  0  0  0
  9 30  1  0  0  0  0
  9 48  1  0  0  0  0
 10 11  2  0  0  0  0
 10 12  1  0  0  0  0
 12 13  1  0  0  0  0
 12 29  1  0  0  0  0
 13 14  2  0  0  0  0
 13 22  1  0  0  0  0
 14 15  1  0  0  0  0
 14 28  1  0  0  0  0
 15 16  2  0  0  0  0
 16 17  1  0  0  0  0
 16 27  1  0  0  0  0
 17 18  2  0  0  0  0
 17 22  1  0  0  0  0
 18 19  1  0  0  0  0
 18 26  1  0  0  0  0
 19 20  2  0  0  0  0
 19 25  1  0  0  0  0
 20 21  1  0  0  0  0
 20 24  1  0  0  0  0
 21 22  2  0  0  0  0
 21 23  1  0  0  0  0
 29 30  1  0  0  0  0
 29 46  1  0  0  0  0
 29 47  1  0  0  0  0
 30 31  1  0  0  0  0
 30 45  1  6  0  0  0
 31 32  1  0  0  0  0
 31 43  1  0  0  0  0
 31 44  1  0  0  0  0
 32 33  1  0  0  0  0
 32 42  1  0  0  0  0
 33 34  2  0  0  0  0
 33 38  1  0  0  0  0
 34 35  1  0  0  0  0
 34 41  1  0  0  0  0
 35 36  2  0  0  0  0
 35 40  1  0  0  0  0
 36 37  1  0  0  0  0
 37 38  2  0  0  0  0
 37 39  1  0  0  0  0
 48 49  2  0  0  0  0
 48 54  1  0  0  0  0
 49 50  1  0  0  0  0
 49 59  1  0  0  0  0
 50 51  1  0  0  0  0
 50 52  2  0  0  0  0
 52 53  1  0  0  0  0
 52 58  1  0  0  0  0
 53 54  2  0  0  0  0
 53 57  1  0  0  0  0
 54 55  1  0  0  0  0
 55 56  2  0  0  0  0
M  END
>  <MODEL>
       1

$$$$
