output/tmp_first_model_11_16.pdb
 OpenBabel07222623443D

 47 50  0  0  1  0  0  0  0  0999 V2000
    6.9070   -0.6100   26.4120 C   0  0  0  0  0  0  0  0  0  0  0  0
    6.9720   -1.6090   25.2680 C   0  0  1  0  0  0  0  0  0  0  0  0
    5.7410   -2.5130   25.1790 C   0  0  0  0  0  0  0  0  0  0  0  0
    5.5430   -2.8340   23.6890 C   0  0  2  0  0  0  0  0  0  0  0  0
    6.0250   -4.2230   23.3290 C   0  0  0  0  0  0  0  0  0  0  0  0
    5.1190   -5.2720   23.1780 C   0  0  0  0  0  0  0  0  0  0  0  0
    5.5520   -6.5610   22.8790 C   0  0  0  0  0  0  0  0  0  0  0  0
    6.9090   -6.8200   22.7550 C   0  0  0  0  0  0  0  0  0  0  0  0
    7.8110   -5.7870   22.9700 C   0  0  0  0  0  0  0  0  0  0  0  0
    7.3830   -4.4980   23.2410 C   0  0  0  0  0  0  0  0  0  0  0  0
    8.1220   -3.7140   23.3850 H   0  0  0  0  0  0  0  0  0  0  0  0
    8.8670   -5.9890   22.9760 H   0  0  0  0  0  0  0  0  0  0  0  0
    7.2670   -7.8160   22.5130 H   0  0  0  0  0  0  0  0  0  0  0  0
    4.8330   -7.3600   22.7420 H   0  0  0  0  0  0  0  0  0  0  0  0
    4.0560   -5.0750   23.2870 H   0  0  0  0  0  0  0  0  0  0  0  0
    6.2620   -1.7640   22.9940 N   0  0  0  0  0  0  0  0  0  0  0  0
    6.1610   -1.6470   21.6350 C   0  0  0  0  0  0  0  0  0  0  0  0
    5.4790   -2.4250   20.9850 O   0  0  0  0  0  0  0  0  0  0  0  0
    6.9070   -0.4890   20.9280 C   0  0  0  0  0  0  0  0  0  0  0  0
    6.1160    0.0890   19.7740 C   0  0  0  0  0  0  0  0  0  0  0  0
    6.4210   -0.2140   18.4710 C   0  0  0  0  0  0  0  0  0  0  0  0
    5.7550    0.2380   17.3740 N   0  0  0  0  0  0  0  0  0  0  0  0
    4.7340    1.0310   17.5790 C   0  0  0  0  0  0  0  0  0  0  0  0
    4.2840    1.4200   18.8700 C   0  0  0  0  0  0  0  0  0  0  0  0
    3.1590    2.2640   19.0480 C   0  0  0  0  0  0  0  0  0  0  0  0
    2.7470    2.6240   20.3010 C   0  0  0  0  0  0  0  0  0  0  0  0
    3.4420    2.1380   21.4340 C   0  0  0  0  0  0  0  0  0  0  0  0
    4.5310    1.3150   21.2890 C   0  0  0  0  0  0  0  0  0  0  0  0
    4.9900    0.9380   20.0000 C   0  0  0  0  0  0  0  0  0  0  0  0
    5.0490    0.9500   22.1720 H   0  0  0  0  0  0  0  0  0  0  0  0
    3.1080    2.4260   22.4240 H   0  0  0  0  0  0  0  0  0  0  0  0
    1.8940    3.2830   20.4350 H   0  0  0  0  0  0  0  0  0  0  0  0
    2.6470    2.6420   18.1660 H   0  0  0  0  0  0  0  0  0  0  0  0
    4.2010    1.3980   16.6980 H   0  0  0  0  0  0  0  0  0  0  0  0
    7.2640   -0.8660   18.2440 H   0  0  0  0  0  0  0  0  0  0  0  0
    7.8400   -0.9000   20.5200 H   0  0  0  0  0  0  0  0  0  0  0  0
    7.2030    0.3100   21.6210 H   0  0  0  0  0  0  0  0  0  0  0  0
    7.0710   -0.9490   23.8890 C   0  0  0  0  0  0  0  0  0  0  0  0
    8.1100   -0.8770   23.5530 H   0  0  0  0  0  0  0  0  0  0  0  0
    6.6830    0.0750   23.9180 H   0  0  0  0  0  0  0  0  0  0  0  0
    4.4840   -2.7800   23.4330 H   0  0  0  0  0  0  0  0  0  0  0  0
    4.8660   -1.9990   25.5870 H   0  0  0  0  0  0  0  0  0  0  0  0
    5.8560   -3.4130   25.7860 H   0  0  0  0  0  0  0  0  0  0  0  0
    7.8540   -2.2380   25.4200 H   0  0  0  0  0  0  0  0  0  0  0  0
    6.0310    0.0360   26.3040 H   0  0  0  0  0  0  0  0  0  0  0  0
    7.7870    0.0390   26.4480 H   0  0  0  0  0  0  0  0  0  0  0  0
    6.8180   -1.0980   27.3880 H   0  0  0  0  0  0  0  0  0  0  0  0
  1  2  1  0  0  0  0
  1 45  1  0  0  0  0
  1 46  1  0  0  0  0
  1 47  1  0  0  0  0
  2  3  1  0  0  0  0
  2 38  1  0  0  0  0
  2 44  1  1  0  0  0
  3  4  1  0  0  0  0
  3 42  1  0  0  0  0
  3 43  1  0  0  0  0
  4  5  1  0  0  0  0
  4 16  1  0  0  0  0
  4 41  1  6  0  0  0
  5  6  2  0  0  0  0
  5 10  1  0  0  0  0
  6  7  1  0  0  0  0
  6 15  1  0  0  0  0
  7  8  2  0  0  0  0
  7 14  1  0  0  0  0
  8  9  1  0  0  0  0
  8 13  1  0  0  0  0
  9 10  2  0  0  0  0
  9 12  1  0  0  0  0
 10 11  1  0  0  0  0
 16 17  1  0  0  0  0
 16 38  1  0  0  0  0
 17 18  2  0  0  0  0
 17 19  1  0  0  0  0
 19 20  1  0  0  0  0
 19 36  1  0  0  0  0
 19 37  1  0  0  0  0
 20 21  2  0  0  0  0
 20 29  1  0  0  0  0
 21 22  1  0  0  0  0
 21 35  1  0  0  0  0
 22 23  2  0  0  0  0
 23 24  1  0  0  0  0
 23 34  1  0  0  0  0
 24 25  2  0  0  0  0
 24 29  1  0  0  0  0
 25 26  1  0  0  0  0
 25 33  1  0  0  0  0
 26 27  2  0  0  0  0
 26 32  1  0  0  0  0
 27 28  1  0  0  0  0
 27 31  1  0  0  0  0
 28 29  2  0  0  0  0
 28 30  1  0  0  0  0
 38 39  1  0  0  0  0
 38 40  1  0  0  0  0
M  END
>  <MODEL>
       1

$$$$
