output/tmp_first_model_11_31.pdb
 OpenBabel07222623443D

 64 70  0  0  1  0  0  0  0  0999 V2000
    4.8610   -4.7030   24.7370 O   0  0  0  0  0  0  0  0  0  0  0  0
    5.6570   -3.9170   24.2380 C   0  0  0  0  0  0  0  0  0  0  0  0
    6.1740   -2.7100   24.9590 C   0  0  0  0  0  0  0  0  0  0  0  0
    5.9510   -2.5920   26.3280 C   0  0  0  0  0  0  0  0  0  0  0  0
    6.1960   -1.3980   26.9840 C   0  0  0  0  0  0  0  0  0  0  0  0
    6.6330   -0.3070   26.2330 C   0  0  0  0  0  0  0  0  0  0  0  0
    6.7930    1.2550   26.9880 Cl  0  0  0  0  0  0  0  0  0  0  0  0
    6.9620   -0.4400   24.8990 C   0  0  0  0  0  0  0  0  0  0  0  0
    6.8000   -1.6750   24.2550 C   0  0  0  0  0  0  0  0  0  0  0  0
    7.2400   -1.8660   22.8180 C   0  0  1  0  0  0  0  0  0  0  0  0
    7.3190   -3.3800   22.5160 C   0  0  0  0  0  0  0  0  0  0  0  0
    6.1030   -4.0360   22.9510 N   0  0  0  0  0  0  0  0  0  0  0  0
    5.5750   -5.0860   22.1090 C   0  0  0  0  0  0  0  0  0  0  0  0
    6.3620   -6.3420   22.2910 C   0  0  0  0  0  0  0  0  0  0  0  0
    7.3830   -6.7500   21.6140 N   0  0  0  0  0  0  0  0  0  0  0  0
    7.8600   -7.8780   22.2760 N   0  0  0  0  0  0  0  0  0  0  0  0
    7.0870   -8.0490   23.2900 C   0  0  0  0  0  0  0  0  0  0  0  0
    6.1180   -7.1120   23.3780 O   0  0  0  0  0  0  0  0  0  0  0  0
    7.1260   -8.8260   24.0410 H   0  0  0  0  0  0  0  0  0  0  0  0
    4.5300   -5.2540   22.3800 H   0  0  0  0  0  0  0  0  0  0  0  0
    5.6460   -4.7500   21.0680 H   0  0  0  0  0  0  0  0  0  0  0  0
    7.4040   -3.5130   21.4420 H   0  0  0  0  0  0  0  0  0  0  0  0
    8.2010   -3.8590   22.9520 H   0  0  0  0  0  0  0  0  0  0  0  0
    6.2100   -1.2950   21.8220 C   0  0  0  0  0  0  0  0  0  0  0  0
    5.0460   -1.6200   21.7270 O   0  0  0  0  0  0  0  0  0  0  0  0
    6.8460   -0.4230   20.9590 N   0  0  0  0  0  0  0  0  0  0  0  0
    6.1500    0.1150   19.8550 C   0  0  0  0  0  0  0  0  0  0  0  0
    6.5370   -0.1670   18.5700 C   0  0  0  0  0  0  0  0  0  0  0  0
    5.8710    0.2370   17.4640 N   0  0  0  0  0  0  0  0  0  0  0  0
    4.7980    0.9710   17.6330 C   0  0  0  0  0  0  0  0  0  0  0  0
    4.3080    1.3730   18.9080 C   0  0  0  0  0  0  0  0  0  0  0  0
    3.1600    2.1980   19.0430 C   0  0  0  0  0  0  0  0  0  0  0  0
    2.7410    2.6050   20.2800 C   0  0  0  0  0  0  0  0  0  0  0  0
    3.4480    2.2060   21.4360 C   0  0  0  0  0  0  0  0  0  0  0  0
    4.5580    1.4090   21.3300 C   0  0  0  0  0  0  0  0  0  0  0  0
    5.0070    0.9540   20.0580 C   0  0  0  0  0  0  0  0  0  0  0  0
    5.0980    1.1120   22.2220 H   0  0  0  0  0  0  0  0  0  0  0  0
    3.1130    2.5400   22.4140 H   0  0  0  0  0  0  0  0  0  0  0  0
    1.8750    3.2520   20.3820 H   0  0  0  0  0  0  0  0  0  0  0  0
    2.6450    2.5300   18.1450 H   0  0  0  0  0  0  0  0  0  0  0  0
    4.2660    1.2840   16.7340 H   0  0  0  0  0  0  0  0  0  0  0  0
    7.4180   -0.7820   18.3930 H   0  0  0  0  0  0  0  0  0  0  0  0
    8.2980   -0.5320   21.0440 C   0  0  0  0  0  0  0  0  0  0  0  0
    8.5380   -1.1060   22.4510 C   0  0  2  0  0  0  0  0  0  0  0  0
    9.8570   -1.8790   22.5520 C   0  0  0  0  0  0  0  0  0  0  0  0
   10.0020   -2.5700   23.8160 N   0  0  0  0  0  0  0  0  0  0  0  0
   11.1910   -3.0090   24.3040 C   0  0  0  0  0  0  0  0  0  0  0  0
   12.4340   -2.6110   23.7710 C   0  0  0  0  0  0  0  0  0  0  0  0
   13.5550   -3.0180   24.4580 C   0  0  0  0  0  0  0  0  0  0  0  0
   13.5080   -3.7790   25.5640 N   0  0  0  0  0  0  0  0  0  0  0  0
   12.2840   -4.1560   25.9360 C   0  0  0  0  0  0  0  0  0  0  0  0
   11.1280   -3.8480   25.3520 N   0  0  0  0  0  0  0  0  0  0  0  0
   12.2100   -4.7670   26.8350 H   0  0  0  0  0  0  0  0  0  0  0  0
   14.5390   -2.6920   24.1150 H   0  0  0  0  0  0  0  0  0  0  0  0
   12.5260   -1.9810   22.8930 H   0  0  0  0  0  0  0  0  0  0  0  0
    9.1830   -2.9120   24.3050 H   0  0  0  0  0  0  0  0  0  0  0  0
   10.6660   -1.1480   22.4860 H   0  0  0  0  0  0  0  0  0  0  0  0
    9.9750   -2.5600   21.6940 H   0  0  0  0  0  0  0  0  0  0  0  0
    8.6290   -0.2670   23.1410 H   0  0  0  0  0  0  0  0  0  0  0  0
    8.6990   -1.2110   20.2760 H   0  0  0  0  0  0  0  0  0  0  0  0
    8.7560    0.4530   20.9170 H   0  0  0  0  0  0  0  0  0  0  0  0
    7.3320    0.4270   24.3620 H   0  0  0  0  0  0  0  0  0  0  0  0
    6.0200   -1.2850   28.0480 H   0  0  0  0  0  0  0  0  0  0  0  0
    5.5600   -3.4500   26.8610 H   0  0  0  0  0  0  0  0  0  0  0  0
  1  2  2  0  0  0  0
  2  3  1  0  0  0  0
  2 12  1  0  0  0  0
  3  4  2  0  0  0  0
  3  9  1  0  0  0  0
  4  5  1  0  0  0  0
  4 64  1  0  0  0  0
  5  6  2  0  0  0  0
  5 63  1  0  0  0  0
  6  7  1  0  0  0  0
  6  8  1  0  0  0  0
  8  9  2  0  0  0  0
  8 62  1  0  0  0  0
 10  9  1  1  0  0  0
 10 11  1  0  0  0  0
 10 24  1  0  0  0  0
 10 44  1  0  0  0  0
 11 12  1  0  0  0  0
 11 22  1  0  0  0  0
 11 23  1  0  0  0  0
 12 13  1  0  0  0  0
 13 14  1  0  0  0  0
 13 20  1  0  0  0  0
 13 21  1  0  0  0  0
 14 15  2  0  0  0  0
 14 18  1  0  0  0  0
 15 16  1  0  0  0  0
 16 17  2  0  0  0  0
 17 18  1  0  0  0  0
 17 19  1  0  0  0  0
 24 25  2  0  0  0  0
 24 26  1  0  0  0  0
 26 27  1  0  0  0  0
 26 43  1  0  0  0  0
 27 28  2  0  0  0  0
 27 36  1  0  0  0  0
 28 29  1  0  0  0  0
 28 42  1  0  0  0  0
 29 30  2  0  0  0  0
 30 31  1  0  0  0  0
 30 41  1  0  0  0  0
 31 32  2  0  0  0  0
 31 36  1  0  0  0  0
 32 33  1  0  0  0  0
 32 40  1  0  0  0  0
 33 34  2  0  0  0  0
 33 39  1  0  0  0  0
 34 35  1  0  0  0  0
 34 38  1  0  0  0  0
 35 36  2  0  0  0  0
 35 37  1  0  0  0  0
 43 44  1  0  0  0  0
 43 60  1  0  0  0  0
 43 61  1  0  0  0  0
 44 45  1  0  0  0  0
 44 59  1  1  0  0  0
 45 46  1  0  0  0  0
 45 57  1  0  0  0  0
 45 58  1  0  0  0  0
 46 47  1  0  0  0  0
 46 56  1  0  0  0  0
 47 48  2  0  0  0  0
 47 52  1  0  0  0  0
 48 49  1  0  0  0  0
 48 55  1  0  0  0  0
 49 50  2  0  0  0  0
 49 54  1  0  0  0  0
 50 51  1  0  0  0  0
 51 52  2  0  0  0  0
 51 53  1  0  0  0  0
M  END
>  <MODEL>
       1

$$$$
