output/tmp_first_model_12_47.pdb
 OpenBabel07232600143D

 56 60  0  0  1  0  0  0  0  0999 V2000
    7.7170   -8.5010   22.8800 C   0  0  0  0  0  0  0  0  0  0  0  0
    6.8080   -7.3870   22.7180 N   0  0  0  0  0  0  0  0  0  0  0  0
    7.0360   -6.5080   21.7060 C   0  0  0  0  0  0  0  0  0  0  0  0
    7.8960   -6.6750   20.8560 O   0  0  0  0  0  0  0  0  0  0  0  0
    6.1530   -5.2590   21.7520 C   0  0  0  0  0  0  0  0  0  0  0  0
    6.6780   -4.3070   22.7140 N   0  0  0  0  0  0  0  0  0  0  0  0
    7.7460   -3.4030   22.3370 C   0  0  0  0  0  0  0  0  0  0  0  0
    7.3860   -1.9320   22.6580 C   0  0  2  0  0  0  0  0  0  0  0  0
    6.3000   -1.4590   21.6610 C   0  0  0  0  0  0  0  0  0  0  0  0
    5.1740   -1.9000   21.5420 O   0  0  0  0  0  0  0  0  0  0  0  0
    6.8370   -0.4690   20.8660 N   0  0  0  0  0  0  0  0  0  0  0  0
    6.1070    0.0800   19.7940 C   0  0  0  0  0  0  0  0  0  0  0  0
    6.4580   -0.2110   18.5030 C   0  0  0  0  0  0  0  0  0  0  0  0
    5.7990    0.2400   17.4120 N   0  0  0  0  0  0  0  0  0  0  0  0
    4.7600    1.0130   17.6180 C   0  0  0  0  0  0  0  0  0  0  0  0
    4.2940    1.3930   18.9070 C   0  0  0  0  0  0  0  0  0  0  0  0
    3.1650    2.2350   19.0690 C   0  0  0  0  0  0  0  0  0  0  0  0
    2.7670    2.6330   20.3140 C   0  0  0  0  0  0  0  0  0  0  0  0
    3.4720    2.1990   21.4590 C   0  0  0  0  0  0  0  0  0  0  0  0
    4.5550    1.3690   21.3320 C   0  0  0  0  0  0  0  0  0  0  0  0
    4.9890    0.9340   20.0460 C   0  0  0  0  0  0  0  0  0  0  0  0
    5.0840    1.0400   22.2220 H   0  0  0  0  0  0  0  0  0  0  0  0
    3.1500    2.5360   22.4400 H   0  0  0  0  0  0  0  0  0  0  0  0
    1.9180    3.3000   20.4260 H   0  0  0  0  0  0  0  0  0  0  0  0
    2.6420    2.5640   18.1740 H   0  0  0  0  0  0  0  0  0  0  0  0
    4.2290    1.3850   16.7410 H   0  0  0  0  0  0  0  0  0  0  0  0
    7.3060   -0.8690   18.3130 H   0  0  0  0  0  0  0  0  0  0  0  0
    8.2800   -0.3870   20.9600 C   0  0  0  0  0  0  0  0  0  0  0  0
    8.5720   -0.9640   22.3510 C   0  0  2  0  0  0  0  0  0  0  0  0
    9.9800   -1.5460   22.4330 C   0  0  0  0  0  0  0  0  0  0  0  0
   10.1200   -2.3260   21.6750 H   0  0  0  0  0  0  0  0  0  0  0  0
   10.1900   -1.9820   23.4140 H   0  0  0  0  0  0  0  0  0  0  0  0
   10.7230   -0.7640   22.2450 H   0  0  0  0  0  0  0  0  0  0  0  0
    8.5040   -0.1360   23.0590 H   0  0  0  0  0  0  0  0  0  0  0  0
    8.7860   -0.9750   20.1780 H   0  0  0  0  0  0  0  0  0  0  0  0
    8.6060    0.6540   20.8640 H   0  0  0  0  0  0  0  0  0  0  0  0
    6.8740   -1.8870   24.0880 C   0  0  0  0  0  0  0  0  0  0  0  0
    6.8220   -0.6800   24.7880 C   0  0  0  0  0  0  0  0  0  0  0  0
    6.3190   -0.6620   26.0710 C   0  0  0  0  0  0  0  0  0  0  0  0
    6.2210    0.5150   26.7070 F   0  0  0  0  0  0  0  0  0  0  0  0
    5.9000   -1.8030   26.7420 C   0  0  0  0  0  0  0  0  0  0  0  0
    5.9260   -2.9900   26.0450 C   0  0  0  0  0  0  0  0  0  0  0  0
    6.3640   -3.0290   24.7250 C   0  0  0  0  0  0  0  0  0  0  0  0
    6.1750   -4.3060   23.9780 C   0  0  0  0  0  0  0  0  0  0  0  0
    5.5620   -5.2680   24.4350 O   0  0  0  0  0  0  0  0  0  0  0  0
    5.5850   -3.9190   26.4820 H   0  0  0  0  0  0  0  0  0  0  0  0
    5.5600   -1.7380   27.7680 H   0  0  0  0  0  0  0  0  0  0  0  0
    7.1810    0.2500   24.3630 H   0  0  0  0  0  0  0  0  0  0  0  0
    8.6770   -3.6620   22.8610 H   0  0  0  0  0  0  0  0  0  0  0  0
    7.9190   -3.5210   21.2710 H   0  0  0  0  0  0  0  0  0  0  0  0
    5.1380   -5.5210   22.0720 H   0  0  0  0  0  0  0  0  0  0  0  0
    6.1050   -4.7700   20.7690 H   0  0  0  0  0  0  0  0  0  0  0  0
    6.1650   -7.1320   23.4600 H   0  0  0  0  0  0  0  0  0  0  0  0
    8.6400   -8.2240   23.4160 H   0  0  0  0  0  0  0  0  0  0  0  0
    7.1950   -9.3200   23.3680 H   0  0  0  0  0  0  0  0  0  0  0  0
    7.9900   -8.8430   21.8900 H   0  0  0  0  0  0  0  0  0  0  0  0
  1  2  1  0  0  0  0
  1 54  1  0  0  0  0
  1 55  1  0  0  0  0
  1 56  1  0  0  0  0
  2  3  1  0  0  0  0
  2 53  1  0  0  0  0
  3  4  2  0  0  0  0
  3  5  1  0  0  0  0
  5  6  1  0  0  0  0
  5 51  1  0  0  0  0
  5 52  1  0  0  0  0
  6  7  1  0  0  0  0
  6 44  1  0  0  0  0
  7  8  1  0  0  0  0
  7 49  1  0  0  0  0
  7 50  1  0  0  0  0
  8  9  1  6  0  0  0
  8 29  1  0  0  0  0
  8 37  1  0  0  0  0
  9 10  2  0  0  0  0
  9 11  1  0  0  0  0
 11 12  1  0  0  0  0
 11 28  1  0  0  0  0
 12 13  2  0  0  0  0
 12 21  1  0  0  0  0
 13 14  1  0  0  0  0
 13 27  1  0  0  0  0
 14 15  2  0  0  0  0
 15 16  1  0  0  0  0
 15 26  1  0  0  0  0
 16 17  2  0  0  0  0
 16 21  1  0  0  0  0
 17 18  1  0  0  0  0
 17 25  1  0  0  0  0
 18 19  2  0  0  0  0
 18 24  1  0  0  0  0
 19 20  1  0  0  0  0
 19 23  1  0  0  0  0
 20 21  2  0  0  0  0
 20 22  1  0  0  0  0
 28 29  1  0  0  0  0
 28 35  1  0  0  0  0
 28 36  1  0  0  0  0
 29 30  1  0  0  0  0
 29 34  1  1  0  0  0
 30 31  1  0  0  0  0
 30 32  1  0  0  0  0
 30 33  1  0  0  0  0
 37 38  2  0  0  0  0
 37 43  1  0  0  0  0
 38 39  1  0  0  0  0
 38 48  1  0  0  0  0
 39 40  1  0  0  0  0
 39 41  2  0  0  0  0
 41 42  1  0  0  0  0
 41 47  1  0  0  0  0
 42 43  2  0  0  0  0
 42 46  1  0  0  0  0
 43 44  1  0  0  0  0
 44 45  2  0  0  0  0
M  END
>  <MODEL>
       1

$$$$
