output/tmp_first_model_7_91.pdb
 OpenBabel07222621533D

 56 61  0  0  1  0  0  0  0  0999 V2000
    7.7890   -3.0140   23.2920 C   0  0  0  0  0  0  0  0  0  0  0  0
    8.0300   -1.9320   22.2500 C   0  0  1  0  0  0  0  0  0  0  0  0
    6.8410   -1.8240   21.2850 C   0  0  0  0  0  0  0  0  0  0  0  0
    6.8470   -0.4350   20.8980 N   0  0  0  0  0  0  0  0  0  0  0  0
    6.0310    0.0480   19.8480 C   0  0  0  0  0  0  0  0  0  0  0  0
    6.4150   -0.1630   18.5520 C   0  0  0  0  0  0  0  0  0  0  0  0
    5.7480    0.2880   17.4650 N   0  0  0  0  0  0  0  0  0  0  0  0
    4.6410    0.9520   17.6780 C   0  0  0  0  0  0  0  0  0  0  0  0
    4.0870    1.1800   18.9680 C   0  0  0  0  0  0  0  0  0  0  0  0
    2.8530    1.8600   19.1280 C   0  0  0  0  0  0  0  0  0  0  0  0
    2.2750    1.9790   20.3650 C   0  0  0  0  0  0  0  0  0  0  0  0
    2.9160    1.4170   21.4960 C   0  0  0  0  0  0  0  0  0  0  0  0
    4.1250    0.7750   21.3660 C   0  0  0  0  0  0  0  0  0  0  0  0
    4.7670    0.6740   20.0980 C   0  0  0  0  0  0  0  0  0  0  0  0
    4.6050    0.3380   22.2370 H   0  0  0  0  0  0  0  0  0  0  0  0
    2.4500    1.5200   22.4730 H   0  0  0  0  0  0  0  0  0  0  0  0
    1.3390    2.5150   20.4860 H   0  0  0  0  0  0  0  0  0  0  0  0
    2.3640    2.2480   18.2420 H   0  0  0  0  0  0  0  0  0  0  0  0
    4.1340    1.3600   16.8050 H   0  0  0  0  0  0  0  0  0  0  0  0
    7.3440   -0.6880   18.3410 H   0  0  0  0  0  0  0  0  0  0  0  0
    7.6660    0.3800   21.6510 C   0  0  0  0  0  0  0  0  0  0  0  0
    7.7960    1.5730   21.4710 O   0  0  0  0  0  0  0  0  0  0  0  0
    8.2850   -0.4710   22.7820 C   0  0  1  0  0  0  0  0  0  0  0  0
    7.4730   -0.0940   24.0490 C   0  0  0  0  0  0  0  0  0  0  0  0
    8.0810   -0.5520   25.2900 N   0  0  0  0  0  0  0  0  0  0  0  0
    7.2260   -0.9150   26.4110 C   0  0  0  0  0  0  0  0  0  0  0  0
    6.9710   -2.3950   26.5410 C   0  0  0  0  0  0  0  0  0  0  0  0
    5.7460   -3.0920   26.5120 C   0  0  0  0  0  0  0  0  0  0  0  0
    5.8890   -4.3890   26.7690 N   0  0  0  0  0  0  0  0  0  0  0  0
    7.2120   -4.5300   26.9410 N   0  0  0  0  0  0  0  0  0  0  0  0
    7.9060   -3.3690   26.8070 C   0  0  0  0  0  0  0  0  0  0  0  0
    8.9840   -3.3240   26.9250 H   0  0  0  0  0  0  0  0  0  0  0  0
    7.5810   -5.4170   27.2330 H   0  0  0  0  0  0  0  0  0  0  0  0
    4.7630   -2.6870   26.3040 H   0  0  0  0  0  0  0  0  0  0  0  0
    6.2750   -0.3790   26.3140 H   0  0  0  0  0  0  0  0  0  0  0  0
    7.7350   -0.5630   27.3140 H   0  0  0  0  0  0  0  0  0  0  0  0
    9.4220   -0.4450   25.5370 C   0  0  0  0  0  0  0  0  0  0  0  0
    9.9040   -0.5190   26.6620 O   0  0  0  0  0  0  0  0  0  0  0  0
   10.2860   -0.2270   24.3500 C   0  0  0  0  0  0  0  0  0  0  0  0
   11.6520   -0.0900   24.6000 C   0  0  0  0  0  0  0  0  0  0  0  0
   12.5250    0.1870   23.5740 C   0  0  0  0  0  0  0  0  0  0  0  0
   12.0040    0.2960   22.2910 C   0  0  0  0  0  0  0  0  0  0  0  0
   12.8690    0.6090   21.3120 F   0  0  0  0  0  0  0  0  0  0  0  0
   10.6600    0.0930   22.0090 C   0  0  0  0  0  0  0  0  0  0  0  0
    9.7590   -0.1730   23.0520 C   0  0  0  0  0  0  0  0  0  0  0  0
   10.3200    0.1480   20.9830 H   0  0  0  0  0  0  0  0  0  0  0  0
   13.5870    0.3190   23.7430 H   0  0  0  0  0  0  0  0  0  0  0  0
   11.9980   -0.2030   25.6230 H   0  0  0  0  0  0  0  0  0  0  0  0
    7.3680    1.0030   24.0600 H   0  0  0  0  0  0  0  0  0  0  0  0
    6.4640   -0.5220   23.9810 H   0  0  0  0  0  0  0  0  0  0  0  0
    5.8960   -2.1060   21.7790 H   0  0  0  0  0  0  0  0  0  0  0  0
    6.9340   -2.4690   20.4060 H   0  0  0  0  0  0  0  0  0  0  0  0
    8.9210   -2.1880   21.6610 H   0  0  0  0  0  0  0  0  0  0  0  0
    7.7250   -3.9920   22.8050 H   0  0  0  0  0  0  0  0  0  0  0  0
    6.8450   -2.8370   23.8170 H   0  0  0  0  0  0  0  0  0  0  0  0
    8.5880   -3.0390   24.0370 H   0  0  0  0  0  0  0  0  0  0  0  0
  1  2  1  0  0  0  0
  1 54  1  0  0  0  0
  1 55  1  0  0  0  0
  1 56  1  0  0  0  0
  2  3  1  0  0  0  0
  2 23  1  0  0  0  0
  2 53  1  6  0  0  0
  3  4  1  0  0  0  0
  3 51  1  0  0  0  0
  3 52  1  0  0  0  0
  4  5  1  0  0  0  0
  4 21  1  0  0  0  0
  5  6  2  0  0  0  0
  5 14  1  0  0  0  0
  6  7  1  0  0  0  0
  6 20  1  0  0  0  0
  7  8  2  0  0  0  0
  8  9  1  0  0  0  0
  8 19  1  0  0  0  0
  9 10  2  0  0  0  0
  9 14  1  0  0  0  0
 10 11  1  0  0  0  0
 10 18  1  0  0  0  0
 11 12  2  0  0  0  0
 11 17  1  0  0  0  0
 12 13  1  0  0  0  0
 12 16  1  0  0  0  0
 13 14  2  0  0  0  0
 13 15  1  0  0  0  0
 21 22  2  0  0  0  0
 23 21  1  6  0  0  0
 23 24  1  0  0  0  0
 23 45  1  0  0  0  0
 24 25  1  0  0  0  0
 24 49  1  0  0  0  0
 24 50  1  0  0  0  0
 25 26  1  0  0  0  0
 25 37  1  0  0  0  0
 26 27  1  0  0  0  0
 26 35  1  0  0  0  0
 26 36  1  0  0  0  0
 27 28  1  0  0  0  0
 27 31  2  0  0  0  0
 28 29  2  0  0  0  0
 28 34  1  0  0  0  0
 29 30  1  0  0  0  0
 30 31  1  0  0  0  0
 30 33  1  0  0  0  0
 31 32  1  0  0  0  0
 37 38  2  0  0  0  0
 37 39  1  0  0  0  0
 39 40  2  0  0  0  0
 39 45  1  0  0  0  0
 40 41  1  0  0  0  0
 40 48  1  0  0  0  0
 41 42  2  0  0  0  0
 41 47  1  0  0  0  0
 42 43  1  0  0  0  0
 42 44  1  0  0  0  0
 44 45  2  0  0  0  0
 44 46  1  0  0  0  0
M  END
>  <MODEL>
       1

$$$$
