output/tmp_first_model_1_41.pdb
 OpenBabel07222618483D

 68 73  0  0  1  0  0  0  0  0999 V2000
    7.7290   -2.8780   23.5400 C   0  0  0  0  0  0  0  0  0  0  0  0
    7.9190   -1.8780   22.3990 C   0  0  1  0  0  0  0  0  0  0  0  0
    6.7000   -1.8570   21.4590 C   0  0  0  0  0  0  0  0  0  0  0  0
    6.7370   -0.5250   20.8900 N   0  0  0  0  0  0  0  0  0  0  0  0
    5.8940   -0.1270   19.8250 C   0  0  0  0  0  0  0  0  0  0  0  0
    6.3720   -0.1810   18.5460 C   0  0  0  0  0  0  0  0  0  0  0  0
    5.6460    0.1070   17.4370 N   0  0  0  0  0  0  0  0  0  0  0  0
    4.4070    0.4980   17.6170 C   0  0  0  0  0  0  0  0  0  0  0  0
    3.7960    0.6510   18.8950 C   0  0  0  0  0  0  0  0  0  0  0  0
    2.5160    1.2500   19.0560 C   0  0  0  0  0  0  0  0  0  0  0  0
    1.9600    1.4010   20.2990 C   0  0  0  0  0  0  0  0  0  0  0  0
    2.6770    0.9900   21.4400 C   0  0  0  0  0  0  0  0  0  0  0  0
    3.9290    0.4350   21.3190 C   0  0  0  0  0  0  0  0  0  0  0  0
    4.5390    0.2850   20.0420 C   0  0  0  0  0  0  0  0  0  0  0  0
    4.4800    0.1650   22.2110 H   0  0  0  0  0  0  0  0  0  0  0  0
    2.2470    1.1400   22.4220 H   0  0  0  0  0  0  0  0  0  0  0  0
    0.9750    1.8400   20.4240 H   0  0  0  0  0  0  0  0  0  0  0  0
    2.0130    1.6490   18.1880 H   0  0  0  0  0  0  0  0  0  0  0  0
    3.8210    0.7140   16.7210 H   0  0  0  0  0  0  0  0  0  0  0  0
    7.4010   -0.4830   18.3710 H   0  0  0  0  0  0  0  0  0  0  0  0
    7.6630    0.3130   21.4740 C   0  0  0  0  0  0  0  0  0  0  0  0
    8.0170    1.3820   21.0160 O   0  0  0  0  0  0  0  0  0  0  0  0
    8.1440   -0.3770   22.7820 C   0  0  1  0  0  0  0  0  0  0  0  0
    7.2480    0.0180   23.9810 C   0  0  0  0  0  0  0  0  0  0  0  0
    7.5480    1.3380   24.4920 N   0  0  0  0  0  0  0  0  0  0  0  0
    6.4960    2.2890   24.8030 C   0  0  0  0  0  0  0  0  0  0  0  0
    6.4840    3.4120   23.7670 C   0  0  0  0  0  0  0  0  0  0  0  0
    5.3190    4.3200   23.8910 N   0  3  0  0  0  0  0  0  0  0  0  0
    5.1830    5.1390   22.6310 C   0  0  0  0  0  0  0  0  0  0  0  0
    4.1700    6.2830   22.7920 C   0  0  0  0  0  0  0  0  0  0  0  0
    2.9510    5.7930   24.0220 S   0  0  0  0  0  0  0  0  0  0  0  0
    1.9670    6.8530   24.2020 O   0  0  0  0  0  0  0  0  0  0  0  0
    2.5310    4.4260   23.6740 O   0  0  0  0  0  0  0  0  0  0  0  0
    3.9580    5.6370   25.5100 C   0  0  0  0  0  0  0  0  0  0  0  0
    5.3680    5.1860   25.1120 C   0  0  0  0  0  0  0  0  0  0  0  0
    5.8190    4.6310   25.9380 H   0  0  0  0  0  0  0  0  0  0  0  0
    6.0150    6.0460   24.9120 H   0  0  0  0  0  0  0  0  0  0  0  0
    3.9550    6.5840   26.0520 H   0  0  0  0  0  0  0  0  0  0  0  0
    3.4340    4.8810   26.1050 H   0  0  0  0  0  0  0  0  0  0  0  0
    4.6320    7.2250   23.1030 H   0  0  0  0  0  0  0  0  0  0  0  0
    3.6100    6.4510   21.8690 H   0  0  0  0  0  0  0  0  0  0  0  0
    4.8660    4.4630   21.8320 H   0  0  0  0  0  0  0  0  0  0  0  0
    6.1640    5.5430   22.3620 H   0  0  0  0  0  0  0  0  0  0  0  0
    4.4420    3.7640   23.9300 H   0  0  0  0  0  0  0  0  0  0  0  0
    7.4040    4.0010   23.8700 H   0  0  0  0  0  0  0  0  0  0  0  0
    6.4890    2.9750   22.7620 H   0  0  0  0  0  0  0  0  0  0  0  0
    6.6750    2.6710   25.8120 H   0  0  0  0  0  0  0  0  0  0  0  0
    5.5370    1.7590   24.7980 H   0  0  0  0  0  0  0  0  0  0  0  0
    8.8230    1.6320   24.8830 C   0  0  0  0  0  0  0  0  0  0  0  0
    9.0960    2.5410   25.6570 O   0  0  0  0  0  0  0  0  0  0  0  0
    9.8850    0.8380   24.1890 C   0  0  0  0  0  0  0  0  0  0  0  0
   11.2080    1.1550   24.4680 C   0  0  0  0  0  0  0  0  0  0  0  0
   12.2230    0.7410   23.6390 C   0  0  0  0  0  0  0  0  0  0  0  0
   11.8880    0.0340   22.4830 C   0  0  0  0  0  0  0  0  0  0  0  0
   13.1190   -0.2540   21.2980 Cl  0  0  0  0  0  0  0  0  0  0  0  0
   10.5860   -0.3480   22.2210 C   0  0  0  0  0  0  0  0  0  0  0  0
    9.5680    0.0010   23.1140 C   0  0  0  0  0  0  0  0  0  0  0  0
   10.3480   -0.8520   21.2850 H   0  0  0  0  0  0  0  0  0  0  0  0
   13.2570    1.0150   23.8250 H   0  0  0  0  0  0  0  0  0  0  0  0
   11.3840    1.7950   25.3160 H   0  0  0  0  0  0  0  0  0  0  0  0
    6.1900   -0.0220   23.6970 H   0  0  0  0  0  0  0  0  0  0  0  0
    7.4380   -0.7160   24.7740 H   0  0  0  0  0  0  0  0  0  0  0  0
    6.7540   -2.6260   20.6760 H   0  0  0  0  0  0  0  0  0  0  0  0
    5.7710   -2.0350   22.0240 H   0  0  0  0  0  0  0  0  0  0  0  0
    8.7970   -2.1870   21.8200 H   0  0  0  0  0  0  0  0  0  0  0  0
    6.8130   -2.6580   24.1030 H   0  0  0  0  0  0  0  0  0  0  0  0
    8.5670   -2.8730   24.2450 H   0  0  0  0  0  0  0  0  0  0  0  0
    7.6320   -3.8960   23.1470 H   0  0  0  0  0  0  0  0  0  0  0  0
  1  2  1  0  0  0  0
  1 66  1  0  0  0  0
  1 67  1  0  0  0  0
  1 68  1  0  0  0  0
  2  3  1  0  0  0  0
  2 23  1  0  0  0  0
  2 65  1  6  0  0  0
  3  4  1  0  0  0  0
  3 63  1  0  0  0  0
  3 64  1  0  0  0  0
  4  5  1  0  0  0  0
  4 21  1  0  0  0  0
  5  6  2  0  0  0  0
  5 14  1  0  0  0  0
  6  7  1  0  0  0  0
  6 20  1  0  0  0  0
  7  8  2  0  0  0  0
  8  9  1  0  0  0  0
  8 19  1  0  0  0  0
  9 10  2  0  0  0  0
  9 14  1  0  0  0  0
 10 11  1  0  0  0  0
 10 18  1  0  0  0  0
 11 12  2  0  0  0  0
 11 17  1  0  0  0  0
 12 13  1  0  0  0  0
 12 16  1  0  0  0  0
 13 14  2  0  0  0  0
 13 15  1  0  0  0  0
 21 22  2  0  0  0  0
 23 21  1  6  0  0  0
 23 24  1  0  0  0  0
 23 57  1  0  0  0  0
 24 25  1  0  0  0  0
 24 61  1  0  0  0  0
 24 62  1  0  0  0  0
 25 26  1  0  0  0  0
 25 49  1  0  0  0  0
 26 27  1  0  0  0  0
 26 47  1  0  0  0  0
 26 48  1  0  0  0  0
 27 28  1  0  0  0  0
 27 45  1  0  0  0  0
 27 46  1  0  0  0  0
 28 29  1  0  0  0  0
 28 35  1  0  0  0  0
 28 44  1  0  0  0  0
 29 30  1  0  0  0  0
 29 42  1  0  0  0  0
 29 43  1  0  0  0  0
 30 31  1  0  0  0  0
 30 40  1  0  0  0  0
 30 41  1  0  0  0  0
 31 32  2  0  0  0  0
 31 33  2  0  0  0  0
 31 34  1  0  0  0  0
 34 35  1  0  0  0  0
 34 38  1  0  0  0  0
 34 39  1  0  0  0  0
 35 36  1  0  0  0  0
 35 37  1  0  0  0  0
 49 50  2  0  0  0  0
 49 51  1  0  0  0  0
 51 52  2  0  0  0  0
 51 57  1  0  0  0  0
 52 53  1  0  0  0  0
 52 60  1  0  0  0  0
 53 54  2  0  0  0  0
 53 59  1  0  0  0  0
 54 55  1  0  0  0  0
 54 56  1  0  0  0  0
 56 57  2  0  0  0  0
 56 58  1  0  0  0  0
M  CHG  1  28   1
M  END
>  <MODEL>
       1

$$$$
