output/tmp_first_model_11_2.pdb
 OpenBabel07222623443D

 56 60  0  0  1  0  0  0  0  0999 V2000
    6.7260    4.4690   21.3360 C   0  0  0  0  0  0  0  0  0  0  0  0
    7.5950    4.0620   22.4210 N   0  0  0  0  0  0  0  0  0  0  0  0
    7.0460    3.3770   23.4480 C   0  0  0  0  0  0  0  0  0  0  0  0
    5.8340    3.2270   23.5600 O   0  0  0  0  0  0  0  0  0  0  0  0
    7.9870    2.8090   24.5150 C   0  0  0  0  0  0  0  0  0  0  0  0
    8.7300    1.6430   24.0860 N   0  0  0  0  0  0  0  0  0  0  0  0
    8.0140    0.3850   23.9460 C   0  0  0  0  0  0  0  0  0  0  0  0
    8.4350   -0.3670   22.6680 C   0  0  2  0  0  0  0  0  0  0  0  0
    7.9200    0.3600   21.4020 C   0  0  0  0  0  0  0  0  0  0  0  0
    8.3180    1.4110   20.9520 O   0  0  0  0  0  0  0  0  0  0  0  0
    6.9280   -0.4010   20.8300 N   0  0  0  0  0  0  0  0  0  0  0  0
    6.1430    0.1110   19.7640 C   0  0  0  0  0  0  0  0  0  0  0  0
    6.4540   -0.2120   18.4680 C   0  0  0  0  0  0  0  0  0  0  0  0
    5.7680    0.2260   17.3870 N   0  0  0  0  0  0  0  0  0  0  0  0
    4.7430    1.0160   17.5950 C   0  0  0  0  0  0  0  0  0  0  0  0
    4.2940    1.4160   18.8870 C   0  0  0  0  0  0  0  0  0  0  0  0
    3.1680    2.2660   19.0670 C   0  0  0  0  0  0  0  0  0  0  0  0
    2.7610    2.6310   20.3230 C   0  0  0  0  0  0  0  0  0  0  0  0
    3.4580    2.1550   21.4550 C   0  0  0  0  0  0  0  0  0  0  0  0
    4.5500    1.3320   21.3060 C   0  0  0  0  0  0  0  0  0  0  0  0
    5.0080    0.9470   20.0140 C   0  0  0  0  0  0  0  0  0  0  0  0
    5.0780    0.9790   22.1860 H   0  0  0  0  0  0  0  0  0  0  0  0
    3.1520    2.4580   22.4510 H   0  0  0  0  0  0  0  0  0  0  0  0
    1.9140    3.3000   20.4470 H   0  0  0  0  0  0  0  0  0  0  0  0
    2.6610    2.6390   18.1810 H   0  0  0  0  0  0  0  0  0  0  0  0
    4.2130    1.3810   16.7150 H   0  0  0  0  0  0  0  0  0  0  0  0
    7.3000   -0.8620   18.2570 H   0  0  0  0  0  0  0  0  0  0  0  0
    6.6030   -1.6150   21.5470 C   0  0  0  0  0  0  0  0  0  0  0  0
    7.7720   -1.7710   22.5340 C   0  0  2  0  0  0  0  0  0  0  0  0
    7.3300   -2.3880   23.8400 N   0  3  0  0  0  0  0  0  0  0  0  0
    6.6000   -1.7990   24.2760 H   0  0  0  0  0  0  0  0  0  0  0  0
    8.1280   -2.4830   24.4920 H   0  0  0  0  0  0  0  0  0  0  0  0
    6.9410   -3.3310   23.6680 H   0  0  0  0  0  0  0  0  0  0  0  0
    8.5130   -2.4470   22.1190 H   0  0  0  0  0  0  0  0  0  0  0  0
    5.6560   -1.5160   22.0970 H   0  0  0  0  0  0  0  0  0  0  0  0
    6.5060   -2.4510   20.8480 H   0  0  0  0  0  0  0  0  0  0  0  0
    9.9390   -0.3950   22.6240 C   0  0  0  0  0  0  0  0  0  0  0  0
   10.5680   -1.2560   21.7260 C   0  0  0  0  0  0  0  0  0  0  0  0
   11.9400   -1.2580   21.6130 C   0  0  0  0  0  0  0  0  0  0  0  0
   12.5880   -2.2960   20.3630 Cl  0  0  0  0  0  0  0  0  0  0  0  0
   12.7310   -0.4250   22.4180 C   0  0  0  0  0  0  0  0  0  0  0  0
   12.1050    0.4930   23.2300 C   0  0  0  0  0  0  0  0  0  0  0  0
   10.7180    0.5470   23.2960 C   0  0  0  0  0  0  0  0  0  0  0  0
   10.0910    1.7190   23.9690 C   0  0  0  0  0  0  0  0  0  0  0  0
   10.7460    2.6880   24.3390 O   0  0  0  0  0  0  0  0  0  0  0  0
   12.6800    1.2240   23.7820 H   0  0  0  0  0  0  0  0  0  0  0  0
   13.8140   -0.4090   22.3770 H   0  0  0  0  0  0  0  0  0  0  0  0
   10.0090   -1.9010   21.0600 H   0  0  0  0  0  0  0  0  0  0  0  0
    8.1930   -0.2630   24.8170 H   0  0  0  0  0  0  0  0  0  0  0  0
    6.9540    0.6460   23.8790 H   0  0  0  0  0  0  0  0  0  0  0  0
    7.3430    2.5540   25.3650 H   0  0  0  0  0  0  0  0  0  0  0  0
    8.7480    3.5310   24.8220 H   0  0  0  0  0  0  0  0  0  0  0  0
    8.5930    4.0120   22.2850 H   0  0  0  0  0  0  0  0  0  0  0  0
    5.9700    5.1600   21.7070 H   0  0  0  0  0  0  0  0  0  0  0  0
    7.2980    4.9680   20.5610 H   0  0  0  0  0  0  0  0  0  0  0  0
    6.2050    3.6000   20.9240 H   0  0  0  0  0  0  0  0  0  0  0  0
  1  2  1  0  0  0  0
  1 54  1  0  0  0  0
  1 55  1  0  0  0  0
  1 56  1  0  0  0  0
  2  3  1  0  0  0  0
  2 53  1  0  0  0  0
  3  4  2  0  0  0  0
  3  5  1  0  0  0  0
  5  6  1  0  0  0  0
  5 51  1  0  0  0  0
  5 52  1  0  0  0  0
  6  7  1  0  0  0  0
  6 44  1  0  0  0  0
  7  8  1  0  0  0  0
  7 49  1  0  0  0  0
  7 50  1  0  0  0  0
  8  9  1  6  0  0  0
  8 29  1  0  0  0  0
  8 37  1  0  0  0  0
  9 10  2  0  0  0  0
  9 11  1  0  0  0  0
 11 12  1  0  0  0  0
 11 28  1  0  0  0  0
 12 13  2  0  0  0  0
 12 21  1  0  0  0  0
 13 14  1  0  0  0  0
 13 27  1  0  0  0  0
 14 15  2  0  0  0  0
 15 16  1  0  0  0  0
 15 26  1  0  0  0  0
 16 17  2  0  0  0  0
 16 21  1  0  0  0  0
 17 18  1  0  0  0  0
 17 25  1  0  0  0  0
 18 19  2  0  0  0  0
 18 24  1  0  0  0  0
 19 20  1  0  0  0  0
 19 23  1  0  0  0  0
 20 21  2  0  0  0  0
 20 22  1  0  0  0  0
 28 29  1  0  0  0  0
 28 35  1  0  0  0  0
 28 36  1  0  0  0  0
 29 30  1  0  0  0  0
 29 34  1  6  0  0  0
 30 31  1  0  0  0  0
 30 32  1  0  0  0  0
 30 33  1  0  0  0  0
 37 38  2  0  0  0  0
 37 43  1  0  0  0  0
 38 39  1  0  0  0  0
 38 48  1  0  0  0  0
 39 40  1  0  0  0  0
 39 41  2  0  0  0  0
 41 42  1  0  0  0  0
 41 47  1  0  0  0  0
 42 43  2  0  0  0  0
 42 46  1  0  0  0  0
 43 44  1  0  0  0  0
 44 45  2  0  0  0  0
M  CHG  1  30   1
M  END
>  <MODEL>
       1

$$$$
