output/tmp_first_model_15_81.pdb
 OpenBabel07232601353D

 58 63  0  0  1  0  0  0  0  0999 V2000
    5.4570    4.9510   21.4150 C   0  0  0  0  0  0  0  0  0  0  0  0
    6.4430    4.5470   22.4650 C   0  0  0  0  0  0  0  0  0  0  0  0
    6.3470    3.5900   23.3390 N   0  0  0  0  0  0  0  0  0  0  0  0
    7.5830    3.5760   23.9890 C   0  0  0  0  0  0  0  0  0  0  0  0
    7.9670    2.5280   24.9920 C   0  0  0  0  0  0  0  0  0  0  0  0
    8.7150    1.4140   24.4140 N   0  0  0  0  0  0  0  0  0  0  0  0
    8.0560    0.1470   24.1610 C   0  0  0  0  0  0  0  0  0  0  0  0
    8.3520   -0.4120   22.7480 C   0  0  2  0  0  0  0  0  0  0  0  0
    7.6810    0.4360   21.6340 C   0  0  0  0  0  0  0  0  0  0  0  0
    7.8430    1.6150   21.4190 O   0  0  0  0  0  0  0  0  0  0  0  0
    6.8860   -0.3890   20.8680 N   0  0  0  0  0  0  0  0  0  0  0  0
    6.1270    0.1040   19.7780 C   0  0  0  0  0  0  0  0  0  0  0  0
    6.4420   -0.2280   18.4840 C   0  0  0  0  0  0  0  0  0  0  0  0
    5.7690    0.2210   17.4000 N   0  0  0  0  0  0  0  0  0  0  0  0
    4.7480    1.0190   17.6000 C   0  0  0  0  0  0  0  0  0  0  0  0
    4.2910    1.4180   18.8870 C   0  0  0  0  0  0  0  0  0  0  0  0
    3.1600    2.2630   19.0630 C   0  0  0  0  0  0  0  0  0  0  0  0
    2.7310    2.6030   20.3180 C   0  0  0  0  0  0  0  0  0  0  0  0
    3.4140    2.1120   21.4530 C   0  0  0  0  0  0  0  0  0  0  0  0
    4.5130    1.3040   21.3070 C   0  0  0  0  0  0  0  0  0  0  0  0
    4.9930    0.9460   20.0160 C   0  0  0  0  0  0  0  0  0  0  0  0
    5.0220    0.9250   22.1850 H   0  0  0  0  0  0  0  0  0  0  0  0
    3.0800    2.3890   22.4500 H   0  0  0  0  0  0  0  0  0  0  0  0
    1.8730    3.2580   20.4440 H   0  0  0  0  0  0  0  0  0  0  0  0
    2.6590    2.6380   18.1760 H   0  0  0  0  0  0  0  0  0  0  0  0
    4.2270    1.3830   16.7160 H   0  0  0  0  0  0  0  0  0  0  0  0
    7.2890   -0.8750   18.2620 H   0  0  0  0  0  0  0  0  0  0  0  0
    7.0710   -1.7980   21.1360 C   0  0  0  0  0  0  0  0  0  0  0  0
    7.7460   -1.8450   22.5300 C   0  0  2  0  0  0  0  0  0  0  0  0
    6.7490   -2.3350   23.5960 C   0  0  0  0  0  0  0  0  0  0  0  0
    7.2150   -2.4120   24.5840 H   0  0  0  0  0  0  0  0  0  0  0  0
    5.8780   -1.6740   23.6790 H   0  0  0  0  0  0  0  0  0  0  0  0
    6.3840   -3.3350   23.3340 H   0  0  0  0  0  0  0  0  0  0  0  0
    8.5690   -2.5690   22.5200 H   0  0  0  0  0  0  0  0  0  0  0  0
    6.0990   -2.3060   21.1280 H   0  0  0  0  0  0  0  0  0  0  0  0
    7.7050   -2.2600   20.3680 H   0  0  0  0  0  0  0  0  0  0  0  0
    9.8600   -0.3460   22.5410 C   0  0  0  0  0  0  0  0  0  0  0  0
   10.4560   -1.1600   21.5750 C   0  0  0  0  0  0  0  0  0  0  0  0
   11.8110   -1.0620   21.3500 C   0  0  0  0  0  0  0  0  0  0  0  0
   12.3520   -1.8600   20.4160 F   0  0  0  0  0  0  0  0  0  0  0  0
   12.6170   -0.1480   22.0170 C   0  0  0  0  0  0  0  0  0  0  0  0
   12.0210    0.6970   22.9340 C   0  0  0  0  0  0  0  0  0  0  0  0
   10.6510    0.6100   23.1940 C   0  0  0  0  0  0  0  0  0  0  0  0
   10.0370    1.6180   24.1240 C   0  0  0  0  0  0  0  0  0  0  0  0
   10.6560    2.5770   24.5660 O   0  0  0  0  0  0  0  0  0  0  0  0
   12.5870    1.4570   23.4630 H   0  0  0  0  0  0  0  0  0  0  0  0
   13.6720   -0.0980   21.7750 H   0  0  0  0  0  0  0  0  0  0  0  0
    9.9040   -1.8550   20.9520 H   0  0  0  0  0  0  0  0  0  0  0  0
    6.9830    0.3220   24.2560 H   0  0  0  0  0  0  0  0  0  0  0  0
    8.3760   -0.6050   24.9010 H   0  0  0  0  0  0  0  0  0  0  0  0
    7.0600    2.1270   25.4550 H   0  0  0  0  0  0  0  0  0  0  0  0
    8.6030    2.9740   25.7640 H   0  0  0  0  0  0  0  0  0  0  0  0
    8.3330    4.5880   23.5060 C   0  0  0  0  0  0  0  0  0  0  0  0
    7.6230    5.2190   22.5280 O   0  0  0  0  0  0  0  0  0  0  0  0
    9.3130    4.9730   23.7400 H   0  0  0  0  0  0  0  0  0  0  0  0
    5.6680    5.9520   21.0300 H   0  0  0  0  0  0  0  0  0  0  0  0
    4.4550    4.9210   21.8440 H   0  0  0  0  0  0  0  0  0  0  0  0
    5.4630    4.2340   20.5860 H   0  0  0  0  0  0  0  0  0  0  0  0
  1  2  1  0  0  0  0
  1 56  1  0  0  0  0
  1 57  1  0  0  0  0
  1 58  1  0  0  0  0
  2  3  2  0  0  0  0
  2 54  1  0  0  0  0
  3  4  1  0  0  0  0
  4  5  1  0  0  0  0
  4 53  2  0  0  0  0
  5  6  1  0  0  0  0
  5 51  1  0  0  0  0
  5 52  1  0  0  0  0
  6  7  1  0  0  0  0
  6 44  1  0  0  0  0
  7  8  1  0  0  0  0
  7 49  1  0  0  0  0
  7 50  1  0  0  0  0
  8  9  1  6  0  0  0
  8 29  1  0  0  0  0
  8 37  1  0  0  0  0
  9 10  2  0  0  0  0
  9 11  1  0  0  0  0
 11 12  1  0  0  0  0
 11 28  1  0  0  0  0
 12 13  2  0  0  0  0
 12 21  1  0  0  0  0
 13 14  1  0  0  0  0
 13 27  1  0  0  0  0
 14 15  2  0  0  0  0
 15 16  1  0  0  0  0
 15 26  1  0  0  0  0
 16 17  2  0  0  0  0
 16 21  1  0  0  0  0
 17 18  1  0  0  0  0
 17 25  1  0  0  0  0
 18 19  2  0  0  0  0
 18 24  1  0  0  0  0
 19 20  1  0  0  0  0
 19 23  1  0  0  0  0
 20 21  2  0  0  0  0
 20 22  1  0  0  0  0
 28 29  1  0  0  0  0
 28 35  1  0  0  0  0
 28 36  1  0  0  0  0
 29 30  1  0  0  0  0
 29 34  1  6  0  0  0
 30 31  1  0  0  0  0
 30 32  1  0  0  0  0
 30 33  1  0  0  0  0
 37 38  2  0  0  0  0
 37 43  1  0  0  0  0
 38 39  1  0  0  0  0
 38 48  1  0  0  0  0
 39 40  1  0  0  0  0
 39 41  2  0  0  0  0
 41 42  1  0  0  0  0
 41 47  1  0  0  0  0
 42 43  2  0  0  0  0
 42 46  1  0  0  0  0
 43 44  1  0  0  0  0
 44 45  2  0  0  0  0
 53 54  1  0  0  0  0
 53 55  1  0  0  0  0
M  END
>  <MODEL>
       1

$$$$
