output/tmp_first_model_7_86.pdb
 OpenBabel07222621533D

 65 70  0  0  1  0  0  0  0  0999 V2000
    6.6490    2.3080   28.8810 C   0  0  0  0  0  0  0  0  0  0  0  0
    7.1840    1.1920   28.1280 N   0  0  0  0  0  0  0  0  0  0  0  0
    6.6370    0.8540   26.9330 C   0  0  0  0  0  0  0  0  0  0  0  0
    5.7970    1.5360   26.3670 O   0  0  0  0  0  0  0  0  0  0  0  0
    7.1100   -0.4840   26.3630 C   0  0  0  0  0  0  0  0  0  0  0  0
    8.0380   -0.3390   25.2600 N   0  0  0  0  0  0  0  0  0  0  0  0
    7.5640    0.1630   23.9810 C   0  0  0  0  0  0  0  0  0  0  0  0
    8.3360   -0.4570   22.7920 C   0  0  2  0  0  0  0  0  0  0  0  0
    7.8620    0.3080   21.5270 C   0  0  0  0  0  0  0  0  0  0  0  0
    8.2560    1.3780   21.1100 O   0  0  0  0  0  0  0  0  0  0  0  0
    6.8310   -0.4200   20.9590 N   0  0  0  0  0  0  0  0  0  0  0  0
    6.0310    0.0660   19.8880 C   0  0  0  0  0  0  0  0  0  0  0  0
    6.4710   -0.0720   18.5970 C   0  0  0  0  0  0  0  0  0  0  0  0
    5.7940    0.3740   17.5090 N   0  0  0  0  0  0  0  0  0  0  0  0
    4.6290    0.9390   17.7020 C   0  0  0  0  0  0  0  0  0  0  0  0
    4.0140    1.0830   18.9770 C   0  0  0  0  0  0  0  0  0  0  0  0
    2.7480    1.7090   19.1390 C   0  0  0  0  0  0  0  0  0  0  0  0
    2.1730    1.7900   20.3770 C   0  0  0  0  0  0  0  0  0  0  0  0
    2.8220    1.2300   21.5010 C   0  0  0  0  0  0  0  0  0  0  0  0
    4.0560    0.6380   21.3720 C   0  0  0  0  0  0  0  0  0  0  0  0
    4.7110    0.5920   20.1090 C   0  0  0  0  0  0  0  0  0  0  0  0
    4.5250    0.1850   22.2420 H   0  0  0  0  0  0  0  0  0  0  0  0
    2.3500    1.2880   22.4770 H   0  0  0  0  0  0  0  0  0  0  0  0
    1.2130    2.2820   20.5130 H   0  0  0  0  0  0  0  0  0  0  0  0
    2.2510    2.1220   18.2660 H   0  0  0  0  0  0  0  0  0  0  0  0
    4.0830    1.2720   16.8160 H   0  0  0  0  0  0  0  0  0  0  0  0
    7.4160   -0.5830   18.4040 H   0  0  0  0  0  0  0  0  0  0  0  0
    6.6760   -1.7560   21.4990 C   0  0  0  0  0  0  0  0  0  0  0  0
    7.8980   -1.9140   22.4130 C   0  0  2  0  0  0  0  0  0  0  0  0
    7.6090   -2.8910   23.5620 C   0  0  0  0  0  0  0  0  0  0  0  0
    7.3570   -4.2510   23.0950 N   0  0  0  0  0  0  0  0  0  0  0  0
    6.1360   -4.8170   22.9950 C   0  0  0  0  0  0  0  0  0  0  0  0
    5.0770   -4.2250   23.5910 N   0  0  0  0  0  0  0  0  0  0  0  0
    3.9440   -4.9080   23.4870 C   0  0  0  0  0  0  0  0  0  0  0  0
    3.7520   -6.0440   22.8190 N   0  0  0  0  0  0  0  0  0  0  0  0
    4.8670   -6.5110   22.2440 C   0  0  0  0  0  0  0  0  0  0  0  0
    6.0690   -5.9710   22.2890 N   0  0  0  0  0  0  0  0  0  0  0  0
    4.7620   -7.4360   21.6760 H   0  0  0  0  0  0  0  0  0  0  0  0
    3.0950   -4.5000   24.0370 H   0  0  0  0  0  0  0  0  0  0  0  0
    8.0790   -4.7150   22.5560 H   0  0  0  0  0  0  0  0  0  0  0  0
    8.4600   -2.8950   24.2490 H   0  0  0  0  0  0  0  0  0  0  0  0
    6.7190   -2.5780   24.1170 H   0  0  0  0  0  0  0  0  0  0  0  0
    8.7400   -2.3190   21.8270 H   0  0  0  0  0  0  0  0  0  0  0  0
    6.6530   -2.5000   20.6950 H   0  0  0  0  0  0  0  0  0  0  0  0
    5.7340   -1.8670   22.0650 H   0  0  0  0  0  0  0  0  0  0  0  0
    9.8230   -0.3390   23.1020 C   0  0  0  0  0  0  0  0  0  0  0  0
   10.7740   -0.3730   22.0720 C   0  0  0  0  0  0  0  0  0  0  0  0
   12.1240   -0.3000   22.3770 C   0  0  0  0  0  0  0  0  0  0  0  0
   13.3270   -0.2930   21.1260 Cl  0  0  0  0  0  0  0  0  0  0  0  0
   12.5870   -0.2280   23.6870 C   0  0  0  0  0  0  0  0  0  0  0  0
   11.6600   -0.1980   24.7060 C   0  0  0  0  0  0  0  0  0  0  0  0
   10.2960   -0.2440   24.4220 C   0  0  0  0  0  0  0  0  0  0  0  0
    9.3630   -0.2640   25.5850 C   0  0  0  0  0  0  0  0  0  0  0  0
    9.7530   -0.2520   26.7500 O   0  0  0  0  0  0  0  0  0  0  0  0
   11.9700   -0.1470   25.7420 H   0  0  0  0  0  0  0  0  0  0  0  0
   13.6540   -0.2010   23.8810 H   0  0  0  0  0  0  0  0  0  0  0  0
   10.4620   -0.4470   21.0350 H   0  0  0  0  0  0  0  0  0  0  0  0
    7.6930    1.2530   23.9320 H   0  0  0  0  0  0  0  0  0  0  0  0
    6.4900   -0.0390   23.9010 H   0  0  0  0  0  0  0  0  0  0  0  0
    7.6220   -1.0770   27.1230 H   0  0  0  0  0  0  0  0  0  0  0  0
    6.2220   -1.0270   26.0220 H   0  0  0  0  0  0  0  0  0  0  0  0
    8.0360    0.7340   28.4170 H   0  0  0  0  0  0  0  0  0  0  0  0
    7.1430    2.3580   29.8530 H   0  0  0  0  0  0  0  0  0  0  0  0
    5.5750    2.1600   29.0390 H   0  0  0  0  0  0  0  0  0  0  0  0
    6.7830    3.2660   28.3640 H   0  0  0  0  0  0  0  0  0  0  0  0
  1  2  1  0  0  0  0
  1 63  1  0  0  0  0
  1 64  1  0  0  0  0
  1 65  1  0  0  0  0
  2  3  1  0  0  0  0
  2 62  1  0  0  0  0
  3  4  2  0  0  0  0
  3  5  1  0  0  0  0
  5  6  1  0  0  0  0
  5 60  1  0  0  0  0
  5 61  1  0  0  0  0
  6  7  1  0  0  0  0
  6 53  1  0  0  0  0
  7  8  1  0  0  0  0
  7 58  1  0  0  0  0
  7 59  1  0  0  0  0
  8  9  1  6  0  0  0
  8 29  1  0  0  0  0
  8 46  1  0  0  0  0
  9 10  2  0  0  0  0
  9 11  1  0  0  0  0
 11 12  1  0  0  0  0
 11 28  1  0  0  0  0
 12 13  2  0  0  0  0
 12 21  1  0  0  0  0
 13 14  1  0  0  0  0
 13 27  1  0  0  0  0
 14 15  2  0  0  0  0
 15 16  1  0  0  0  0
 15 26  1  0  0  0  0
 16 17  2  0  0  0  0
 16 21  1  0  0  0  0
 17 18  1  0  0  0  0
 17 25  1  0  0  0  0
 18 19  2  0  0  0  0
 18 24  1  0  0  0  0
 19 20  1  0  0  0  0
 19 23  1  0  0  0  0
 20 21  2  0  0  0  0
 20 22  1  0  0  0  0
 28 29  1  0  0  0  0
 28 44  1  0  0  0  0
 28 45  1  0  0  0  0
 29 30  1  0  0  0  0
 29 43  1  6  0  0  0
 30 31  1  0  0  0  0
 30 41  1  0  0  0  0
 30 42  1  0  0  0  0
 31 32  1  0  0  0  0
 31 40  1  0  0  0  0
 32 33  2  0  0  0  0
 32 37  1  0  0  0  0
 33 34  1  0  0  0  0
 34 35  2  0  0  0  0
 34 39  1  0  0  0  0
 35 36  1  0  0  0  0
 36 37  2  0  0  0  0
 36 38  1  0  0  0  0
 46 47  2  0  0  0  0
 46 52  1  0  0  0  0
 47 48  1  0  0  0  0
 47 57  1  0  0  0  0
 48 49  1  0  0  0  0
 48 50  2  0  0  0  0
 50 51  1  0  0  0  0
 50 56  1  0  0  0  0
 51 52  2  0  0  0  0
 51 55  1  0  0  0  0
 52 53  1  0  0  0  0
 53 54  2  0  0  0  0
M  END
>  <MODEL>
       1

$$$$
