output/tmp_first_model_2_90.pdb
 OpenBabel07222619223D

 62 67  0  0  1  0  0  0  0  0999 V2000
    7.9810   -2.9710   23.0820 C   0  0  0  0  0  0  0  0  0  0  0  0
    7.9610   -1.7950   22.1050 C   0  0  1  0  0  0  0  0  0  0  0  0
    6.6840   -1.7290   21.2500 C   0  0  0  0  0  0  0  0  0  0  0  0
    6.7080   -0.3720   20.7440 N   0  0  0  0  0  0  0  0  0  0  0  0
    5.9410    0.1190   19.6540 C   0  0  0  0  0  0  0  0  0  0  0  0
    6.2560   -0.1970   18.3530 C   0  0  0  0  0  0  0  0  0  0  0  0
    5.6090    0.3050   17.2690 N   0  0  0  0  0  0  0  0  0  0  0  0
    4.6200    1.1410   17.4640 C   0  0  0  0  0  0  0  0  0  0  0  0
    4.1710    1.5290   18.7560 C   0  0  0  0  0  0  0  0  0  0  0  0
    3.0930    2.4370   18.9400 C   0  0  0  0  0  0  0  0  0  0  0  0
    2.6730    2.7720   20.1990 C   0  0  0  0  0  0  0  0  0  0  0  0
    3.2910    2.1980   21.3310 C   0  0  0  0  0  0  0  0  0  0  0  0
    4.3250    1.3100   21.1760 C   0  0  0  0  0  0  0  0  0  0  0  0
    4.8240    0.9840   19.8850 C   0  0  0  0  0  0  0  0  0  0  0  0
    4.7910    0.8510   22.0430 H   0  0  0  0  0  0  0  0  0  0  0  0
    2.9380    2.4540   22.3260 H   0  0  0  0  0  0  0  0  0  0  0  0
    1.8600    3.4790   20.3380 H   0  0  0  0  0  0  0  0  0  0  0  0
    2.6170    2.8620   18.0590 H   0  0  0  0  0  0  0  0  0  0  0  0
    4.1160    1.5560   16.5830 H   0  0  0  0  0  0  0  0  0  0  0  0
    7.0850   -0.8680   18.1270 H   0  0  0  0  0  0  0  0  0  0  0  0
    7.4070    0.4760   21.5670 C   0  0  0  0  0  0  0  0  0  0  0  0
    7.4320    1.6860   21.4410 O   0  0  0  0  0  0  0  0  0  0  0  0
    8.1070   -0.3530   22.6810 C   0  0  1  0  0  0  0  0  0  0  0  0
    7.3540   -0.1800   24.0260 C   0  0  0  0  0  0  0  0  0  0  0  0
    7.4670    1.1710   24.5570 N   0  0  0  0  0  0  0  0  0  0  0  0
    6.3030    1.9340   24.9740 C   0  0  0  0  0  0  0  0  0  0  0  0
    5.9680    3.0590   23.9900 C   0  0  0  0  0  0  0  0  0  0  0  0
    6.8670    4.2410   24.1280 N   0  3  0  0  0  0  0  0  0  0  0  0
    7.7260    4.6290   22.9260 C   0  0  0  0  0  0  0  0  0  0  0  0
    7.1160    6.0530   22.8720 C   0  0  0  0  0  0  0  0  0  0  0  0
    6.2170    5.6100   24.0610 C   0  0  0  0  0  0  0  0  0  0  0  0
    5.1680    5.5060   23.7830 H   0  0  0  0  0  0  0  0  0  0  0  0
    6.2910    6.1460   25.0090 H   0  0  0  0  0  0  0  0  0  0  0  0
    6.5800    6.2780   21.9410 H   0  0  0  0  0  0  0  0  0  0  0  0
    7.8160    6.8630   23.0930 H   0  0  0  0  0  0  0  0  0  0  0  0
    7.5140    3.9590   22.0960 H   0  0  0  0  0  0  0  0  0  0  0  0
    8.7880    4.5740   23.1810 H   0  0  0  0  0  0  0  0  0  0  0  0
    7.4940    4.0760   24.9310 H   0  0  0  0  0  0  0  0  0  0  0  0
    6.0640    2.6880   22.9650 H   0  0  0  0  0  0  0  0  0  0  0  0
    4.9400    3.3900   24.1620 H   0  0  0  0  0  0  0  0  0  0  0  0
    5.4630    1.2440   25.0370 H   0  0  0  0  0  0  0  0  0  0  0  0
    6.4770    2.3390   25.9780 H   0  0  0  0  0  0  0  0  0  0  0  0
    8.6440    1.8230   24.5960 C   0  0  0  0  0  0  0  0  0  0  0  0
    8.7860    2.8750   25.2420 O   0  0  0  0  0  0  0  0  0  0  0  0
    9.7410    1.2380   23.7900 C   0  0  0  0  0  0  0  0  0  0  0  0
   10.9780    1.8580   23.9080 C   0  0  0  0  0  0  0  0  0  0  0  0
   12.0350    1.4390   23.1420 C   0  0  0  0  0  0  0  0  0  0  0  0
   11.8330    0.3700   22.2810 C   0  0  0  0  0  0  0  0  0  0  0  0
   13.1770   -0.1440   21.3350 Cl  0  0  0  0  0  0  0  0  0  0  0  0
   10.6180   -0.2790   22.1640 C   0  0  0  0  0  0  0  0  0  0  0  0
    9.5200    0.1660   22.9060 C   0  0  0  0  0  0  0  0  0  0  0  0
   10.5570   -1.1130   21.4770 H   0  0  0  0  0  0  0  0  0  0  0  0
   13.0010    1.9270   23.1770 H   0  0  0  0  0  0  0  0  0  0  0  0
   11.0690    2.6930   24.5900 H   0  0  0  0  0  0  0  0  0  0  0  0
    7.7680   -0.8880   24.7560 H   0  0  0  0  0  0  0  0  0  0  0  0
    6.2920   -0.4110   23.9180 H   0  0  0  0  0  0  0  0  0  0  0  0
    6.6580   -2.4420   20.4250 H   0  0  0  0  0  0  0  0  0  0  0  0
    5.7950   -1.9010   21.8770 H   0  0  0  0  0  0  0  0  0  0  0  0
    8.7880   -1.9180   21.4020 H   0  0  0  0  0  0  0  0  0  0  0  0
    7.1010   -2.9740   23.7410 H   0  0  0  0  0  0  0  0  0  0  0  0
    7.9890   -3.9170   22.5250 H   0  0  0  0  0  0  0  0  0  0  0  0
    8.8770   -2.9510   23.7140 H   0  0  0  0  0  0  0  0  0  0  0  0
  1  2  1  0  0  0  0
  1 60  1  0  0  0  0
  1 61  1  0  0  0  0
  1 62  1  0  0  0  0
  2  3  1  0  0  0  0
  2 23  1  0  0  0  0
  2 59  1  6  0  0  0
  3  4  1  0  0  0  0
  3 57  1  0  0  0  0
  3 58  1  0  0  0  0
  4  5  1  0  0  0  0
  4 21  1  0  0  0  0
  5  6  2  0  0  0  0
  5 14  1  0  0  0  0
  6  7  1  0  0  0  0
  6 20  1  0  0  0  0
  7  8  2  0  0  0  0
  8  9  1  0  0  0  0
  8 19  1  0  0  0  0
  9 10  2  0  0  0  0
  9 14  1  0  0  0  0
 10 11  1  0  0  0  0
 10 18  1  0  0  0  0
 11 12  2  0  0  0  0
 11 17  1  0  0  0  0
 12 13  1  0  0  0  0
 12 16  1  0  0  0  0
 13 14  2  0  0  0  0
 13 15  1  0  0  0  0
 21 22  2  0  0  0  0
 23 21  1  6  0  0  0
 23 24  1  0  0  0  0
 23 51  1  0  0  0  0
 24 25  1  0  0  0  0
 24 55  1  0  0  0  0
 24 56  1  0  0  0  0
 25 26  1  0  0  0  0
 25 43  1  0  0  0  0
 26 27  1  0  0  0  0
 26 41  1  0  0  0  0
 26 42  1  0  0  0  0
 27 28  1  0  0  0  0
 27 39  1  0  0  0  0
 27 40  1  0  0  0  0
 28 29  1  0  0  0  0
 28 31  1  0  0  0  0
 28 38  1  0  0  0  0
 29 30  1  0  0  0  0
 29 36  1  0  0  0  0
 29 37  1  0  0  0  0
 30 31  1  0  0  0  0
 30 34  1  0  0  0  0
 30 35  1  0  0  0  0
 31 32  1  0  0  0  0
 31 33  1  0  0  0  0
 43 44  2  0  0  0  0
 43 45  1  0  0  0  0
 45 46  2  0  0  0  0
 45 51  1  0  0  0  0
 46 47  1  0  0  0  0
 46 54  1  0  0  0  0
 47 48  2  0  0  0  0
 47 53  1  0  0  0  0
 48 49  1  0  0  0  0
 48 50  1  0  0  0  0
 50 51  2  0  0  0  0
 50 52  1  0  0  0  0
M  CHG  1  28   1
M  END
>  <MODEL>
       1

$$$$
