output/tmp_first_model_15_75.pdb
 OpenBabel07232601353D

 70 75  0  0  1  0  0  0  0  0999 V2000
   11.4370    5.5030   25.7960 C   0  0  0  0  0  0  0  0  0  0  0  0
   11.8260    5.0340   24.5260 O   0  0  0  0  0  0  0  0  0  0  0  0
   10.8070    4.6660   23.7020 C   0  0  0  0  0  0  0  0  0  0  0  0
   11.1790    3.9900   22.5390 C   0  0  0  0  0  0  0  0  0  0  0  0
   10.1950    3.5900   21.6500 C   0  0  0  0  0  0  0  0  0  0  0  0
    8.8590    3.8740   21.8940 C   0  0  0  0  0  0  0  0  0  0  0  0
    8.4880    4.5730   23.0350 C   0  0  0  0  0  0  0  0  0  0  0  0
    7.0230    4.7780   23.3550 C   0  0  0  0  0  0  0  0  0  0  0  0
    6.4760    3.5040   23.7910 N   0  0  0  0  0  0  0  0  0  0  0  0
    6.5140    3.2420   25.1330 C   0  0  0  0  0  0  0  0  0  0  0  0
    6.5250    4.1100   25.9890 O   0  0  0  0  0  0  0  0  0  0  0  0
    6.5130    1.7500   25.4810 C   0  0  0  0  0  0  0  0  0  0  0  0
    7.5670    1.0320   24.7820 N   0  0  0  0  0  0  0  0  0  0  0  0
    7.3370   -0.2510   24.1250 C   0  0  0  0  0  0  0  0  0  0  0  0
    8.1730   -0.3930   22.8120 C   0  0  2  0  0  0  0  0  0  0  0  0
    7.4210    0.4160   21.7400 C   0  0  0  0  0  0  0  0  0  0  0  0
    7.2410    1.6180   21.7720 O   0  0  0  0  0  0  0  0  0  0  0  0
    6.8840   -0.4170   20.8020 N   0  0  0  0  0  0  0  0  0  0  0  0
    6.0670    0.0410   19.7390 C   0  0  0  0  0  0  0  0  0  0  0  0
    6.3560   -0.3070   18.4430 C   0  0  0  0  0  0  0  0  0  0  0  0
    5.6960    0.1680   17.3610 N   0  0  0  0  0  0  0  0  0  0  0  0
    4.7010    0.9960   17.5680 C   0  0  0  0  0  0  0  0  0  0  0  0
    4.2470    1.3750   18.8620 C   0  0  0  0  0  0  0  0  0  0  0  0
    3.1540    2.2620   19.0460 C   0  0  0  0  0  0  0  0  0  0  0  0
    2.7430    2.6120   20.3030 C   0  0  0  0  0  0  0  0  0  0  0  0
    3.3910    2.0700   21.4360 C   0  0  0  0  0  0  0  0  0  0  0  0
    4.4320    1.1940   21.2840 C   0  0  0  0  0  0  0  0  0  0  0  0
    4.9230    0.8640   19.9880 C   0  0  0  0  0  0  0  0  0  0  0  0
    4.9040    0.7660   22.1610 H   0  0  0  0  0  0  0  0  0  0  0  0
    3.0810    2.3590   22.4340 H   0  0  0  0  0  0  0  0  0  0  0  0
    1.9180    3.3040   20.4380 H   0  0  0  0  0  0  0  0  0  0  0  0
    2.6630    2.6680   18.1660 H   0  0  0  0  0  0  0  0  0  0  0  0
    4.1990    1.4030   16.6890 H   0  0  0  0  0  0  0  0  0  0  0  0
    7.1870   -0.9800   18.2340 H   0  0  0  0  0  0  0  0  0  0  0  0
    6.9800   -1.8060   21.1910 C   0  0  0  0  0  0  0  0  0  0  0  0
    8.1250   -1.8290   22.2130 C   0  0  2  0  0  0  0  0  0  0  0  0
    8.0480   -2.9780   23.2150 C   0  0  0  0  0  0  0  0  0  0  0  0
    7.1100   -2.9440   23.7790 H   0  0  0  0  0  0  0  0  0  0  0  0
    8.0930   -3.9470   22.7080 H   0  0  0  0  0  0  0  0  0  0  0  0
    8.8740   -2.9370   23.9350 H   0  0  0  0  0  0  0  0  0  0  0  0
    9.0490   -1.9510   21.6470 H   0  0  0  0  0  0  0  0  0  0  0  0
    7.1870   -2.3950   20.3050 H   0  0  0  0  0  0  0  0  0  0  0  0
    6.0440   -2.1610   21.6420 H   0  0  0  0  0  0  0  0  0  0  0  0
    9.5940    0.1090   23.0430 C   0  0  0  0  0  0  0  0  0  0  0  0
   10.6400   -0.1540   22.1380 C   0  0  0  0  0  0  0  0  0  0  0  0
   11.9280    0.2480   22.4420 C   0  0  0  0  0  0  0  0  0  0  0  0
   13.2380   -0.0380   21.3360 Cl  0  0  0  0  0  0  0  0  0  0  0  0
   12.2390    0.8880   23.6410 C   0  0  0  0  0  0  0  0  0  0  0  0
   11.2090    1.2060   24.4900 C   0  0  0  0  0  0  0  0  0  0  0  0
    9.9020    0.8720   24.1670 C   0  0  0  0  0  0  0  0  0  0  0  0
    8.8450    1.4410   25.0450 C   0  0  0  0  0  0  0  0  0  0  0  0
    9.1160    2.2660   25.9120 O   0  0  0  0  0  0  0  0  0  0  0  0
   11.3560    1.7710   25.3940 H   0  0  0  0  0  0  0  0  0  0  0  0
   13.2650    1.1600   23.8590 H   0  0  0  0  0  0  0  0  0  0  0  0
   10.4650   -0.6590   21.1940 H   0  0  0  0  0  0  0  0  0  0  0  0
    7.5900   -1.0730   24.8110 H   0  0  0  0  0  0  0  0  0  0  0  0
    6.2740   -0.3160   23.8640 H   0  0  0  0  0  0  0  0  0  0  0  0
    5.5540    1.3190   25.1740 H   0  0  0  0  0  0  0  0  0  0  0  0
    6.6290    1.6620   26.5670 H   0  0  0  0  0  0  0  0  0  0  0  0
    6.7470    2.7290   23.1850 H   0  0  0  0  0  0  0  0  0  0  0  0
    6.4550    5.1360   22.4890 H   0  0  0  0  0  0  0  0  0  0  0  0
    6.8800    5.4860   24.1750 H   0  0  0  0  0  0  0  0  0  0  0  0
    9.4600    4.9330   23.9650 C   0  0  0  0  0  0  0  0  0  0  0  0
    9.1250    5.3810   24.8960 H   0  0  0  0  0  0  0  0  0  0  0  0
    8.1290    3.5510   21.1570 H   0  0  0  0  0  0  0  0  0  0  0  0
   10.4330    3.0850   20.7200 H   0  0  0  0  0  0  0  0  0  0  0  0
   12.2420    3.7870   22.4150 H   0  0  0  0  0  0  0  0  0  0  0  0
   12.3350    5.8320   26.3150 H   0  0  0  0  0  0  0  0  0  0  0  0
   10.7610    6.3590   25.7050 H   0  0  0  0  0  0  0  0  0  0  0  0
   10.9450    4.7000   26.3620 H   0  0  0  0  0  0  0  0  0  0  0  0
  1  2  1  0  0  0  0
  1 68  1  0  0  0  0
  1 69  1  0  0  0  0
  1 70  1  0  0  0  0
  2  3  1  0  0  0  0
  3  4  2  0  0  0  0
  3 63  1  0  0  0  0
  4  5  1  0  0  0  0
  4 67  1  0  0  0  0
  5  6  2  0  0  0  0
  5 66  1  0  0  0  0
  6  7  1  0  0  0  0
  6 65  1  0  0  0  0
  7  8  1  0  0  0  0
  7 63  2  0  0  0  0
  8  9  1  0  0  0  0
  8 61  1  0  0  0  0
  8 62  1  0  0  0  0
  9 10  1  0  0  0  0
  9 60  1  0  0  0  0
 10 11  2  0  0  0  0
 10 12  1  0  0  0  0
 12 13  1  0  0  0  0
 12 58  1  0  0  0  0
 12 59  1  0  0  0  0
 13 14  1  0  0  0  0
 13 51  1  0  0  0  0
 14 15  1  0  0  0  0
 14 56  1  0  0  0  0
 14 57  1  0  0  0  0
 15 16  1  6  0  0  0
 15 36  1  0  0  0  0
 15 44  1  0  0  0  0
 16 17  2  0  0  0  0
 16 18  1  0  0  0  0
 18 19  1  0  0  0  0
 18 35  1  0  0  0  0
 19 20  2  0  0  0  0
 19 28  1  0  0  0  0
 20 21  1  0  0  0  0
 20 34  1  0  0  0  0
 21 22  2  0  0  0  0
 22 23  1  0  0  0  0
 22 33  1  0  0  0  0
 23 24  2  0  0  0  0
 23 28  1  0  0  0  0
 24 25  1  0  0  0  0
 24 32  1  0  0  0  0
 25 26  2  0  0  0  0
 25 31  1  0  0  0  0
 26 27  1  0  0  0  0
 26 30  1  0  0  0  0
 27 28  2  0  0  0  0
 27 29  1  0  0  0  0
 35 36  1  0  0  0  0
 35 42  1  0  0  0  0
 35 43  1  0  0  0  0
 36 37  1  0  0  0  0
 36 41  1  6  0  0  0
 37 38  1  0  0  0  0
 37 39  1  0  0  0  0
 37 40  1  0  0  0  0
 44 45  2  0  0  0  0
 44 50  1  0  0  0  0
 45 46  1  0  0  0  0
 45 55  1  0  0  0  0
 46 47  1  0  0  0  0
 46 48  2  0  0  0  0
 48 49  1  0  0  0  0
 48 54  1  0  0  0  0
 49 50  2  0  0  0  0
 49 53  1  0  0  0  0
 50 51  1  0  0  0  0
 51 52  2  0  0  0  0
 63 64  1  0  0  0  0
M  END
>  <MODEL>
       1

$$$$
