output/tmp_first_model_6_20.pdb
 OpenBabel07222621163D

 66 70  0  0  0  0  0  0  0  0999 V2000
    6.7280   -2.8050   28.2180 C   0  0  0  0  0  0  0  0  0  0  0  0
    6.5130   -4.3150   28.3820 C   0  0  0  0  0  0  0  0  0  0  0  0
    6.0100   -4.8130   27.0440 C   0  0  0  0  0  0  0  0  0  0  0  0
    6.7230   -5.3610   26.2350 O   0  0  0  0  0  0  0  0  0  0  0  0
    4.6650   -4.5090   26.7490 N   0  0  0  0  0  0  0  0  0  0  0  0
    3.6440   -4.6070   27.7870 C   0  0  0  0  0  0  0  0  0  0  0  0
    2.2960   -4.8470   27.1310 C   0  0  0  0  0  0  0  0  0  0  0  0
    1.9500   -3.6310   26.2790 C   0  0  0  0  0  0  0  0  0  0  0  0
    3.1260   -3.1590   25.4450 C   0  0  0  0  0  0  0  0  0  0  0  0
    2.9390   -2.2030   24.4490 C   0  0  0  0  0  0  0  0  0  0  0  0
    3.9690   -1.8320   23.5980 C   0  0  0  0  0  0  0  0  0  0  0  0
    5.2570   -2.3200   23.8230 C   0  0  0  0  0  0  0  0  0  0  0  0
    6.3220   -1.7980   23.0310 N   0  0  0  0  0  0  0  0  0  0  0  0
    6.0930   -1.6210   21.6570 C   0  0  0  0  0  0  0  0  0  0  0  0
    5.2540   -2.2780   21.0810 O   0  0  0  0  0  0  0  0  0  0  0  0
    6.9030   -0.5390   20.9470 C   0  0  0  0  0  0  0  0  0  0  0  0
    6.1280    0.0580   19.8050 C   0  0  0  0  0  0  0  0  0  0  0  0
    6.4500   -0.2480   18.5100 C   0  0  0  0  0  0  0  0  0  0  0  0
    5.8000    0.2040   17.4040 N   0  0  0  0  0  0  0  0  0  0  0  0
    4.7760    0.9980   17.6080 C   0  0  0  0  0  0  0  0  0  0  0  0
    4.3120    1.3880   18.8930 C   0  0  0  0  0  0  0  0  0  0  0  0
    3.1940    2.2470   19.0570 C   0  0  0  0  0  0  0  0  0  0  0  0
    2.7660    2.6050   20.3050 C   0  0  0  0  0  0  0  0  0  0  0  0
    3.4420    2.1220   21.4500 C   0  0  0  0  0  0  0  0  0  0  0  0
    4.5290    1.2930   21.3160 C   0  0  0  0  0  0  0  0  0  0  0  0
    5.0000    0.9010   20.0320 C   0  0  0  0  0  0  0  0  0  0  0  0
    5.0370    0.9510   22.2160 H   0  0  0  0  0  0  0  0  0  0  0  0
    3.1040    2.4140   22.4410 H   0  0  0  0  0  0  0  0  0  0  0  0
    1.9120    3.2660   20.4260 H   0  0  0  0  0  0  0  0  0  0  0  0
    2.6950    2.6200   18.1650 H   0  0  0  0  0  0  0  0  0  0  0  0
    4.2530    1.3720   16.7270 H   0  0  0  0  0  0  0  0  0  0  0  0
    7.2930   -0.9070   18.3010 H   0  0  0  0  0  0  0  0  0  0  0  0
    7.8230   -1.0040   20.5670 H   0  0  0  0  0  0  0  0  0  0  0  0
    7.2030    0.2040   21.6920 H   0  0  0  0  0  0  0  0  0  0  0  0
    7.5160   -1.3950   23.6260 N   0  0  0  0  0  0  0  0  0  0  0  0
    8.7030   -2.1570   23.2850 C   0  0  0  0  0  0  0  0  0  0  0  0
    9.5710   -1.4900   23.2500 H   0  0  0  0  0  0  0  0  0  0  0  0
    8.5850   -2.6080   22.2970 H   0  0  0  0  0  0  0  0  0  0  0  0
    8.9200   -2.9730   23.9910 H   0  0  0  0  0  0  0  0  0  0  0  0
    7.4620   -0.6020   24.7820 C   0  0  0  0  0  0  0  0  0  0  0  0
    8.4240   -0.7100   25.7950 C   0  0  0  0  0  0  0  0  0  0  0  0
    8.3010    0.0620   26.9500 C   0  0  0  0  0  0  0  0  0  0  0  0
    7.2860    0.9960   27.0970 C   0  0  0  0  0  0  0  0  0  0  0  0
    6.3550    1.1120   26.0770 C   0  0  0  0  0  0  0  0  0  0  0  0
    5.0690    2.2790   26.2330 Cl  0  0  0  0  0  0  0  0  0  0  0  0
    6.4050    0.3130   24.9460 C   0  0  0  0  0  0  0  0  0  0  0  0
    5.6200    0.3880   24.2010 H   0  0  0  0  0  0  0  0  0  0  0  0
    7.2170    1.6060   27.9910 H   0  0  0  0  0  0  0  0  0  0  0  0
    9.0090   -0.0530   27.7660 H   0  0  0  0  0  0  0  0  0  0  0  0
    9.2380   -1.4270   25.7200 H   0  0  0  0  0  0  0  0  0  0  0  0
    5.5010   -3.1880   24.8750 C   0  0  0  0  0  0  0  0  0  0  0  0
    4.4290   -3.6380   25.6640 C   0  0  0  0  0  0  0  0  0  0  0  0
    6.5200   -3.4790   25.1110 H   0  0  0  0  0  0  0  0  0  0  0  0
    3.7920   -1.1580   22.7680 H   0  0  0  0  0  0  0  0  0  0  0  0
    1.9580   -1.7490   24.3190 H   0  0  0  0  0  0  0  0  0  0  0  0
    1.6190   -2.8120   26.9360 H   0  0  0  0  0  0  0  0  0  0  0  0
    1.0960   -3.8530   25.6280 H   0  0  0  0  0  0  0  0  0  0  0  0
    1.5260   -5.0250   27.8910 H   0  0  0  0  0  0  0  0  0  0  0  0
    2.3670   -5.7430   26.5070 H   0  0  0  0  0  0  0  0  0  0  0  0
    3.5970   -3.6810   28.3820 H   0  0  0  0  0  0  0  0  0  0  0  0
    3.8970   -5.4290   28.4610 H   0  0  0  0  0  0  0  0  0  0  0  0
    7.4360   -4.8480   28.6080 H   0  0  0  0  0  0  0  0  0  0  0  0
    5.7800   -4.5010   29.1710 H   0  0  0  0  0  0  0  0  0  0  0  0
    5.8530   -2.3890   27.7120 H   0  0  0  0  0  0  0  0  0  0  0  0
    6.8940   -2.3020   29.1790 H   0  0  0  0  0  0  0  0  0  0  0  0
    7.5780   -2.6220   27.5510 H   0  0  0  0  0  0  0  0  0  0  0  0
  1  2  1  0  0  0  0
  1 64  1  0  0  0  0
  1 65  1  0  0  0  0
  1 66  1  0  0  0  0
  2  3  1  0  0  0  0
  2 62  1  0  0  0  0
  2 63  1  0  0  0  0
  3  4  2  0  0  0  0
  3  5  1  0  0  0  0
  5  6  1  0  0  0  0
  5 52  1  0  0  0  0
  6  7  1  0  0  0  0
  6 60  1  0  0  0  0
  6 61  1  0  0  0  0
  7  8  1  0  0  0  0
  7 58  1  0  0  0  0
  7 59  1  0  0  0  0
  8  9  1  0  0  0  0
  8 56  1  0  0  0  0
  8 57  1  0  0  0  0
  9 10  2  0  0  0  0
  9 52  1  0  0  0  0
 10 11  1  0  0  0  0
 10 55  1  0  0  0  0
 11 12  2  0  0  0  0
 11 54  1  0  0  0  0
 12 13  1  0  0  0  0
 12 51  1  0  0  0  0
 13 14  1  0  0  0  0
 13 35  1  0  0  0  0
 14 15  2  0  0  0  0
 14 16  1  0  0  0  0
 16 17  1  0  0  0  0
 16 33  1  0  0  0  0
 16 34  1  0  0  0  0
 17 18  2  0  0  0  0
 17 26  1  0  0  0  0
 18 19  1  0  0  0  0
 18 32  1  0  0  0  0
 19 20  2  0  0  0  0
 20 21  1  0  0  0  0
 20 31  1  0  0  0  0
 21 22  2  0  0  0  0
 21 26  1  0  0  0  0
 22 23  1  0  0  0  0
 22 30  1  0  0  0  0
 23 24  2  0  0  0  0
 23 29  1  0  0  0  0
 24 25  1  0  0  0  0
 24 28  1  0  0  0  0
 25 26  2  0  0  0  0
 25 27  1  0  0  0  0
 35 36  1  0  0  0  0
 35 40  1  0  0  0  0
 36 37  1  0  0  0  0
 36 38  1  0  0  0  0
 36 39  1  0  0  0  0
 40 41  2  0  0  0  0
 40 46  1  0  0  0  0
 41 42  1  0  0  0  0
 41 50  1  0  0  0  0
 42 43  2  0  0  0  0
 42 49  1  0  0  0  0
 43 44  1  0  0  0  0
 43 48  1  0  0  0  0
 44 45  1  0  0  0  0
 44 46  2  0  0  0  0
 46 47  1  0  0  0  0
 51 52  2  0  0  0  0
 51 53  1  0  0  0  0
M  END
>  <MODEL>
       1

$$$$
