output/tmp_first_model_7_36.pdb
 OpenBabel07222621533D

 59 64  0  0  1  0  0  0  0  0999 V2000
    7.7720   -3.0220   23.2700 C   0  0  0  0  0  0  0  0  0  0  0  0
    8.0230   -1.9360   22.2370 C   0  0  1  0  0  0  0  0  0  0  0  0
    6.8380   -1.8240   21.2700 C   0  0  0  0  0  0  0  0  0  0  0  0
    6.8420   -0.4330   20.8940 N   0  0  0  0  0  0  0  0  0  0  0  0
    6.0320    0.0580   19.8440 C   0  0  0  0  0  0  0  0  0  0  0  0
    6.4140   -0.1560   18.5470 C   0  0  0  0  0  0  0  0  0  0  0  0
    5.7470    0.2920   17.4610 N   0  0  0  0  0  0  0  0  0  0  0  0
    4.6390    0.9550   17.6730 C   0  0  0  0  0  0  0  0  0  0  0  0
    4.0890    1.1910   18.9630 C   0  0  0  0  0  0  0  0  0  0  0  0
    2.8510    1.8670   19.1250 C   0  0  0  0  0  0  0  0  0  0  0  0
    2.2760    1.9850   20.3600 C   0  0  0  0  0  0  0  0  0  0  0  0
    2.9160    1.4230   21.4930 C   0  0  0  0  0  0  0  0  0  0  0  0
    4.1310    0.7840   21.3610 C   0  0  0  0  0  0  0  0  0  0  0  0
    4.7710    0.6890   20.0940 C   0  0  0  0  0  0  0  0  0  0  0  0
    4.6090    0.3450   22.2290 H   0  0  0  0  0  0  0  0  0  0  0  0
    2.4600    1.5330   22.4700 H   0  0  0  0  0  0  0  0  0  0  0  0
    1.3400    2.5220   20.4840 H   0  0  0  0  0  0  0  0  0  0  0  0
    2.3570    2.2490   18.2400 H   0  0  0  0  0  0  0  0  0  0  0  0
    4.1300    1.3580   16.7990 H   0  0  0  0  0  0  0  0  0  0  0  0
    7.3390   -0.6850   18.3360 H   0  0  0  0  0  0  0  0  0  0  0  0
    7.6580    0.3770   21.6550 C   0  0  0  0  0  0  0  0  0  0  0  0
    7.7880    1.5720   21.4800 O   0  0  0  0  0  0  0  0  0  0  0  0
    8.2730   -0.4790   22.7830 C   0  0  1  0  0  0  0  0  0  0  0  0
    7.4540   -0.1110   24.0500 C   0  0  0  0  0  0  0  0  0  0  0  0
    8.0580   -0.5830   25.2900 N   0  0  0  0  0  0  0  0  0  0  0  0
    7.2080   -0.9680   26.4070 C   0  0  0  0  0  0  0  0  0  0  0  0
    7.0160   -2.4510   26.5190 C   0  0  0  0  0  0  0  0  0  0  0  0
    7.9770   -3.4320   26.8290 C   0  0  0  0  0  0  0  0  0  0  0  0
    7.2680   -4.6090   26.8840 C   0  0  0  0  0  0  0  0  0  0  0  0
    5.9860   -4.3100   26.5710 N   0  0  0  0  0  0  0  0  0  0  0  0
    4.9210   -5.2410   26.2510 C   0  0  0  0  0  0  0  0  0  0  0  0
    5.0480   -5.6450   25.2370 H   0  0  0  0  0  0  0  0  0  0  0  0
    4.9350   -6.0630   26.9710 H   0  0  0  0  0  0  0  0  0  0  0  0
    3.9710   -4.7080   26.3080 H   0  0  0  0  0  0  0  0  0  0  0  0
    5.8210   -2.9960   26.3300 N   0  0  0  0  0  0  0  0  0  0  0  0
    7.5710   -5.6170   27.1510 H   0  0  0  0  0  0  0  0  0  0  0  0
    9.0460   -3.3070   26.9580 H   0  0  0  0  0  0  0  0  0  0  0  0
    7.6930   -0.5830   27.3100 H   0  0  0  0  0  0  0  0  0  0  0  0
    6.2250   -0.5030   26.3000 H   0  0  0  0  0  0  0  0  0  0  0  0
    9.3960   -0.4350   25.5460 C   0  0  0  0  0  0  0  0  0  0  0  0
    9.8690   -0.4720   26.6770 O   0  0  0  0  0  0  0  0  0  0  0  0
   10.2670   -0.2260   24.3610 C   0  0  0  0  0  0  0  0  0  0  0  0
   11.6330   -0.0870   24.6130 C   0  0  0  0  0  0  0  0  0  0  0  0
   12.5070    0.1830   23.5850 C   0  0  0  0  0  0  0  0  0  0  0  0
   11.9910    0.2880   22.2990 C   0  0  0  0  0  0  0  0  0  0  0  0
   12.8600    0.6000   21.3230 F   0  0  0  0  0  0  0  0  0  0  0  0
   10.6480    0.0860   22.0170 C   0  0  0  0  0  0  0  0  0  0  0  0
    9.7460   -0.1780   23.0600 C   0  0  0  0  0  0  0  0  0  0  0  0
   10.3080    0.1420   20.9900 H   0  0  0  0  0  0  0  0  0  0  0  0
   13.5690    0.3140   23.7550 H   0  0  0  0  0  0  0  0  0  0  0  0
   11.9810   -0.1940   25.6370 H   0  0  0  0  0  0  0  0  0  0  0  0
    7.3570    0.9860   24.0710 H   0  0  0  0  0  0  0  0  0  0  0  0
    6.4420   -0.5350   23.9720 H   0  0  0  0  0  0  0  0  0  0  0  0
    6.9310   -2.4660   20.3880 H   0  0  0  0  0  0  0  0  0  0  0  0
    5.8930   -2.1110   21.7630 H   0  0  0  0  0  0  0  0  0  0  0  0
    8.9180   -2.1870   21.6510 H   0  0  0  0  0  0  0  0  0  0  0  0
    7.7260   -4.0010   22.7820 H   0  0  0  0  0  0  0  0  0  0  0  0
    6.8120   -2.8500   23.7680 H   0  0  0  0  0  0  0  0  0  0  0  0
    8.5560   -3.0420   24.0310 H   0  0  0  0  0  0  0  0  0  0  0  0
  1  2  1  0  0  0  0
  1 57  1  0  0  0  0
  1 58  1  0  0  0  0
  1 59  1  0  0  0  0
  2  3  1  0  0  0  0
  2 23  1  0  0  0  0
  2 56  1  6  0  0  0
  3  4  1  0  0  0  0
  3 54  1  0  0  0  0
  3 55  1  0  0  0  0
  4  5  1  0  0  0  0
  4 21  1  0  0  0  0
  5  6  2  0  0  0  0
  5 14  1  0  0  0  0
  6  7  1  0  0  0  0
  6 20  1  0  0  0  0
  7  8  2  0  0  0  0
  8  9  1  0  0  0  0
  8 19  1  0  0  0  0
  9 10  2  0  0  0  0
  9 14  1  0  0  0  0
 10 11  1  0  0  0  0
 10 18  1  0  0  0  0
 11 12  2  0  0  0  0
 11 17  1  0  0  0  0
 12 13  1  0  0  0  0
 12 16  1  0  0  0  0
 13 14  2  0  0  0  0
 13 15  1  0  0  0  0
 21 22  2  0  0  0  0
 23 21  1  6  0  0  0
 23 24  1  0  0  0  0
 23 48  1  0  0  0  0
 24 25  1  0  0  0  0
 24 52  1  0  0  0  0
 24 53  1  0  0  0  0
 25 26  1  0  0  0  0
 25 40  1  0  0  0  0
 26 27  1  0  0  0  0
 26 38  1  0  0  0  0
 26 39  1  0  0  0  0
 27 28  1  0  0  0  0
 27 35  2  0  0  0  0
 28 29  2  0  0  0  0
 28 37  1  0  0  0  0
 29 30  1  0  0  0  0
 29 36  1  0  0  0  0
 30 31  1  0  0  0  0
 30 35  1  0  0  0  0
 31 32  1  0  0  0  0
 31 33  1  0  0  0  0
 31 34  1  0  0  0  0
 40 41  2  0  0  0  0
 40 42  1  0  0  0  0
 42 43  2  0  0  0  0
 42 48  1  0  0  0  0
 43 44  1  0  0  0  0
 43 51  1  0  0  0  0
 44 45  2  0  0  0  0
 44 50  1  0  0  0  0
 45 46  1  0  0  0  0
 45 47  1  0  0  0  0
 47 48  2  0  0  0  0
 47 49  1  0  0  0  0
M  END
>  <MODEL>
       1

$$$$
