output/tmp_first_model_9_59.pdb
 OpenBabel07222623023D

 60 65  0  0  1  0  0  0  0  0999 V2000
    9.1830   -3.5180   23.8210 C   0  0  0  0  0  0  0  0  0  0  0  0
    7.8060   -3.2920   24.0200 O   0  0  0  0  0  0  0  0  0  0  0  0
    6.9710   -3.5710   22.9170 C   0  0  0  0  0  0  0  0  0  0  0  0
    6.9870   -2.4760   21.8290 C   0  0  1  0  0  0  0  0  0  0  0  0
    5.7240   -2.3130   20.9490 C   0  0  0  0  0  0  0  0  0  0  0  0
    5.8980   -0.9720   20.4190 N   0  0  0  0  0  0  0  0  0  0  0  0
    5.2660   -0.3750   19.3060 C   0  0  0  0  0  0  0  0  0  0  0  0
    5.6190   -0.7160   18.0290 C   0  0  0  0  0  0  0  0  0  0  0  0
    5.1740   -0.0690   16.9230 N   0  0  0  0  0  0  0  0  0  0  0  0
    4.3600    0.9470   17.1080 C   0  0  0  0  0  0  0  0  0  0  0  0
    3.8800    1.3770   18.3810 C   0  0  0  0  0  0  0  0  0  0  0  0
    2.9840    2.4640   18.5570 C   0  0  0  0  0  0  0  0  0  0  0  0
    2.5600    2.8360   19.8060 C   0  0  0  0  0  0  0  0  0  0  0  0
    2.9860    2.1170   20.9420 C   0  0  0  0  0  0  0  0  0  0  0  0
    3.8340    1.0540   20.7980 C   0  0  0  0  0  0  0  0  0  0  0  0
    4.3340    0.6840   19.5190 C   0  0  0  0  0  0  0  0  0  0  0  0
    4.1250    0.4690   21.6620 H   0  0  0  0  0  0  0  0  0  0  0  0
    2.6360    2.3920   21.9320 H   0  0  0  0  0  0  0  0  0  0  0  0
    1.8950    3.6850   19.9330 H   0  0  0  0  0  0  0  0  0  0  0  0
    2.6320    2.9920   17.6780 H   0  0  0  0  0  0  0  0  0  0  0  0
    4.0400    1.4770   16.2140 H   0  0  0  0  0  0  0  0  0  0  0  0
    6.3190   -1.5350   17.8570 H   0  0  0  0  0  0  0  0  0  0  0  0
    6.8380   -0.2240   21.0880 C   0  0  0  0  0  0  0  0  0  0  0  0
    7.1870    0.8820   20.7320 O   0  0  0  0  0  0  0  0  0  0  0  0
    7.3020   -1.0220   22.3180 C   0  0  1  0  0  0  0  0  0  0  0  0
    6.4460   -0.6700   23.5620 C   0  0  0  0  0  0  0  0  0  0  0  0
    6.9860    0.4540   24.3280 N   0  0  0  0  0  0  0  0  0  0  0  0
    6.0490    1.2860   25.0760 C   0  0  0  0  0  0  0  0  0  0  0  0
    5.6440    0.7970   26.4440 C   0  0  0  0  0  0  0  0  0  0  0  0
    4.5310    0.1640   26.7430 N   0  0  0  0  0  0  0  0  0  0  0  0
    4.5490    0.0380   28.1130 C   0  0  0  0  0  0  0  0  0  0  0  0
    5.6730    0.6100   28.6400 C   0  0  0  0  0  0  0  0  0  0  0  0
    6.3690    1.0920   27.5590 N   0  0  0  0  0  0  0  0  0  0  0  0
    7.3260    1.4250   27.5170 H   0  0  0  0  0  0  0  0  0  0  0  0
    6.0290    0.7340   29.6550 H   0  0  0  0  0  0  0  0  0  0  0  0
    3.7350   -0.4510   28.6340 H   0  0  0  0  0  0  0  0  0  0  0  0
    6.4940    2.2830   25.1850 H   0  0  0  0  0  0  0  0  0  0  0  0
    5.1370    1.3940   24.4770 H   0  0  0  0  0  0  0  0  0  0  0  0
    8.3000    0.4480   24.7350 C   0  0  0  0  0  0  0  0  0  0  0  0
    8.6350    0.9070   25.8220 O   0  0  0  0  0  0  0  0  0  0  0  0
    9.2610   -0.1170   23.7240 C   0  0  0  0  0  0  0  0  0  0  0  0
   10.6420    0.0320   23.8870 C   0  0  0  0  0  0  0  0  0  0  0  0
   11.5330   -0.4690   22.9550 C   0  0  0  0  0  0  0  0  0  0  0  0
   11.0220   -1.0780   21.8110 C   0  0  0  0  0  0  0  0  0  0  0  0
   12.1020   -1.8330   20.6870 Cl  0  0  0  0  0  0  0  0  0  0  0  0
    9.6650   -1.1570   21.5860 C   0  0  0  0  0  0  0  0  0  0  0  0
    8.7610   -0.7430   22.5730 C   0  0  0  0  0  0  0  0  0  0  0  0
    9.3120   -1.5980   20.6580 H   0  0  0  0  0  0  0  0  0  0  0  0
   12.6070   -0.4410   23.1120 H   0  0  0  0  0  0  0  0  0  0  0  0
   11.0140    0.5760   24.7410 H   0  0  0  0  0  0  0  0  0  0  0  0
    6.3870   -1.5560   24.2080 H   0  0  0  0  0  0  0  0  0  0  0  0
    5.4300   -0.4050   23.2400 H   0  0  0  0  0  0  0  0  0  0  0  0
    4.7940   -2.3910   21.5310 H   0  0  0  0  0  0  0  0  0  0  0  0
    5.6700   -3.0290   20.1260 H   0  0  0  0  0  0  0  0  0  0  0  0
    7.7810   -2.7510   21.1340 H   0  0  0  0  0  0  0  0  0  0  0  0
    5.9720   -3.6630   23.3490 H   0  0  0  0  0  0  0  0  0  0  0  0
    7.2300   -4.5490   22.4800 H   0  0  0  0  0  0  0  0  0  0  0  0
    9.4740   -4.5380   24.1060 H   0  0  0  0  0  0  0  0  0  0  0  0
    9.7230   -2.8100   24.4540 H   0  0  0  0  0  0  0  0  0  0  0  0
    9.4830   -3.3570   22.7790 H   0  0  0  0  0  0  0  0  0  0  0  0
  1  2  1  0  0  0  0
  1 58  1  0  0  0  0
  1 59  1  0  0  0  0
  1 60  1  0  0  0  0
  2  3  1  0  0  0  0
  3  4  1  0  0  0  0
  3 56  1  0  0  0  0
  3 57  1  0  0  0  0
  4  5  1  0  0  0  0
  4 25  1  0  0  0  0
  4 55  1  6  0  0  0
  5  6  1  0  0  0  0
  5 53  1  0  0  0  0
  5 54  1  0  0  0  0
  6  7  1  0  0  0  0
  6 23  1  0  0  0  0
  7  8  2  0  0  0  0
  7 16  1  0  0  0  0
  8  9  1  0  0  0  0
  8 22  1  0  0  0  0
  9 10  2  0  0  0  0
 10 11  1  0  0  0  0
 10 21  1  0  0  0  0
 11 12  2  0  0  0  0
 11 16  1  0  0  0  0
 12 13  1  0  0  0  0
 12 20  1  0  0  0  0
 13 14  2  0  0  0  0
 13 19  1  0  0  0  0
 14 15  1  0  0  0  0
 14 18  1  0  0  0  0
 15 16  2  0  0  0  0
 15 17  1  0  0  0  0
 23 24  2  0  0  0  0
 25 23  1  6  0  0  0
 25 26  1  0  0  0  0
 25 47  1  0  0  0  0
 26 27  1  0  0  0  0
 26 51  1  0  0  0  0
 26 52  1  0  0  0  0
 27 28  1  0  0  0  0
 27 39  1  0  0  0  0
 28 29  1  0  0  0  0
 28 37  1  0  0  0  0
 28 38  1  0  0  0  0
 29 30  2  0  0  0  0
 29 33  1  0  0  0  0
 30 31  1  0  0  0  0
 31 32  2  0  0  0  0
 31 36  1  0  0  0  0
 32 33  1  0  0  0  0
 32 35  1  0  0  0  0
 33 34  1  0  0  0  0
 39 40  2  0  0  0  0
 39 41  1  0  0  0  0
 41 42  2  0  0  0  0
 41 47  1  0  0  0  0
 42 43  1  0  0  0  0
 42 50  1  0  0  0  0
 43 44  2  0  0  0  0
 43 49  1  0  0  0  0
 44 45  1  0  0  0  0
 44 46  1  0  0  0  0
 46 47  2  0  0  0  0
 46 48  1  0  0  0  0
M  END
>  <MODEL>
       1

$$$$
