output/tmp_first_model_16_77.pdb
 OpenBabel07232602073D

 57 60  0  0  0  0  0  0  0  0999 V2000
    3.7420   -7.7320   24.5210 C   0  0  0  0  0  0  0  0  0  0  0  0
    3.8240   -6.4730   25.4010 C   0  0  0  0  0  0  0  0  0  0  0  0
    4.5420   -6.8220   26.7230 C   0  0  0  0  0  0  0  0  0  0  0  0
    4.0210   -7.6410   27.2270 H   0  0  0  0  0  0  0  0  0  0  0  0
    5.5680   -7.1390   26.5140 H   0  0  0  0  0  0  0  0  0  0  0  0
    4.5810   -5.9610   27.3980 H   0  0  0  0  0  0  0  0  0  0  0  0
    2.4290   -6.0920   25.7360 C   0  0  0  0  0  0  0  0  0  0  0  0
    1.3340   -5.8320   26.0080 N   0  0  0  0  0  0  0  0  0  0  0  0
    4.5040   -5.2850   24.7060 C   0  0  0  0  0  0  0  0  0  0  0  0
    5.2880   -5.4340   23.5640 C   0  0  0  0  0  0  0  0  0  0  0  0
    5.8990   -4.3450   22.9610 C   0  0  0  0  0  0  0  0  0  0  0  0
    5.7540   -3.0760   23.5090 C   0  0  0  0  0  0  0  0  0  0  0  0
    6.3960   -1.9600   22.8980 N   0  0  0  0  0  0  0  0  0  0  0  0
    7.3270   -1.1680   23.7000 C   0  0  0  0  0  0  0  0  0  0  0  0
    8.7930   -1.3590   23.3300 C   0  0  0  0  0  0  0  0  0  0  0  0
    9.3620   -2.6090   23.5670 C   0  0  0  0  0  0  0  0  0  0  0  0
   10.7170   -2.8240   23.3630 C   0  0  0  0  0  0  0  0  0  0  0  0
   11.5020   -1.8230   22.8020 C   0  0  0  0  0  0  0  0  0  0  0  0
   10.9360   -0.5810   22.5490 C   0  0  0  0  0  0  0  0  0  0  0  0
   11.9300    0.6880   21.8950 Cl  0  0  0  0  0  0  0  0  0  0  0  0
    9.6000   -0.3190   22.8540 C   0  0  0  0  0  0  0  0  0  0  0  0
    9.2000    0.6830   22.6990 H   0  0  0  0  0  0  0  0  0  0  0  0
   12.5260   -2.0090   22.5100 H   0  0  0  0  0  0  0  0  0  0  0  0
   11.1360   -3.7760   23.6700 H   0  0  0  0  0  0  0  0  0  0  0  0
    8.7450   -3.4290   23.9290 H   0  0  0  0  0  0  0  0  0  0  0  0
    7.0530   -0.1040   23.6840 H   0  0  0  0  0  0  0  0  0  0  0  0
    7.1810   -1.5120   24.7300 H   0  0  0  0  0  0  0  0  0  0  0  0
    6.1040   -1.7110   21.5670 C   0  0  0  0  0  0  0  0  0  0  0  0
    5.3070   -2.3870   20.9430 O   0  0  0  0  0  0  0  0  0  0  0  0
    6.8340   -0.5390   20.9060 C   0  0  0  0  0  0  0  0  0  0  0  0
    6.0730    0.0640   19.7650 C   0  0  0  0  0  0  0  0  0  0  0  0
    6.4080   -0.2240   18.4690 C   0  0  0  0  0  0  0  0  0  0  0  0
    5.7640    0.2470   17.3690 N   0  0  0  0  0  0  0  0  0  0  0  0
    4.7370    1.0310   17.5750 C   0  0  0  0  0  0  0  0  0  0  0  0
    4.2740    1.4210   18.8630 C   0  0  0  0  0  0  0  0  0  0  0  0
    3.1580    2.2790   19.0350 C   0  0  0  0  0  0  0  0  0  0  0  0
    2.7420    2.6350   20.2880 C   0  0  0  0  0  0  0  0  0  0  0  0
    3.4230    2.1480   21.4250 C   0  0  0  0  0  0  0  0  0  0  0  0
    4.5040    1.3150   21.2860 C   0  0  0  0  0  0  0  0  0  0  0  0
    4.9600    0.9260   19.9970 C   0  0  0  0  0  0  0  0  0  0  0  0
    5.0090    0.9490   22.1750 H   0  0  0  0  0  0  0  0  0  0  0  0
    3.0900    2.4430   22.4160 H   0  0  0  0  0  0  0  0  0  0  0  0
    1.8920    3.2980   20.4160 H   0  0  0  0  0  0  0  0  0  0  0  0
    2.6480    2.6470   18.1480 H   0  0  0  0  0  0  0  0  0  0  0  0
    4.2120    1.4000   16.6940 H   0  0  0  0  0  0  0  0  0  0  0  0
    7.2590   -0.8750   18.2630 H   0  0  0  0  0  0  0  0  0  0  0  0
    7.7940   -0.9310   20.5410 H   0  0  0  0  0  0  0  0  0  0  0  0
    7.0530    0.2310   21.6490 H   0  0  0  0  0  0  0  0  0  0  0  0
    5.0200   -2.9150   24.6840 C   0  0  0  0  0  0  0  0  0  0  0  0
    4.3880   -4.0080   25.2620 C   0  0  0  0  0  0  0  0  0  0  0  0
    3.8090   -3.8640   26.1710 H   0  0  0  0  0  0  0  0  0  0  0  0
    4.9240   -1.9300   25.1370 H   0  0  0  0  0  0  0  0  0  0  0  0
    6.4850   -4.4720   22.0560 H   0  0  0  0  0  0  0  0  0  0  0  0
    5.4280   -6.4110   23.1140 H   0  0  0  0  0  0  0  0  0  0  0  0
    4.7400   -8.1400   24.3370 H   0  0  0  0  0  0  0  0  0  0  0  0
    3.2650   -7.5130   23.5600 H   0  0  0  0  0  0  0  0  0  0  0  0
    3.1530   -8.4980   25.0330 H   0  0  0  0  0  0  0  0  0  0  0  0
  1  2  1  0  0  0  0
  1 55  1  0  0  0  0
  1 56  1  0  0  0  0
  1 57  1  0  0  0  0
  2  3  1  0  0  0  0
  2  7  1  0  0  0  0
  2  9  1  0  0  0  0
  3  4  1  0  0  0  0
  3  5  1  0  0  0  0
  3  6  1  0  0  0  0
  7  8  3  0  0  0  0
  9 10  2  0  0  0  0
  9 50  1  0  0  0  0
 10 11  1  0  0  0  0
 10 54  1  0  0  0  0
 11 12  2  0  0  0  0
 11 53  1  0  0  0  0
 12 13  1  0  0  0  0
 12 49  1  0  0  0  0
 13 14  1  0  0  0  0
 13 28  1  0  0  0  0
 14 15  1  0  0  0  0
 14 26  1  0  0  0  0
 14 27  1  0  0  0  0
 15 16  2  0  0  0  0
 15 21  1  0  0  0  0
 16 17  1  0  0  0  0
 16 25  1  0  0  0  0
 17 18  2  0  0  0  0
 17 24  1  0  0  0  0
 18 19  1  0  0  0  0
 18 23  1  0  0  0  0
 19 20  1  0  0  0  0
 19 21  2  0  0  0  0
 21 22  1  0  0  0  0
 28 29  2  0  0  0  0
 28 30  1  0  0  0  0
 30 31  1  0  0  0  0
 30 47  1  0  0  0  0
 30 48  1  0  0  0  0
 31 32  2  0  0  0  0
 31 40  1  0  0  0  0
 32 33  1  0  0  0  0
 32 46  1  0  0  0  0
 33 34  2  0  0  0  0
 34 35  1  0  0  0  0
 34 45  1  0  0  0  0
 35 36  2  0  0  0  0
 35 40  1  0  0  0  0
 36 37  1  0  0  0  0
 36 44  1  0  0  0  0
 37 38  2  0  0  0  0
 37 43  1  0  0  0  0
 38 39  1  0  0  0  0
 38 42  1  0  0  0  0
 39 40  2  0  0  0  0
 39 41  1  0  0  0  0
 49 50  2  0  0  0  0
 49 52  1  0  0  0  0
 50 51  1  0  0  0  0
M  END
>  <MODEL>
       1

$$$$
