output/tmp_first_model_18_86.pdb
 OpenBabel07232602473D

 65 70  0  0  1  0  0  0  0  0999 V2000
    5.0870   -3.0920   18.7390 C   0  0  0  0  0  0  0  0  0  0  0  0
    5.7190   -3.6430   19.9190 N   0  0  0  0  0  0  0  0  0  0  0  0
    6.0000   -4.9640   20.0460 C   0  0  0  0  0  0  0  0  0  0  0  0
    5.5490   -5.8240   19.3110 O   0  0  0  0  0  0  0  0  0  0  0  0
    6.9910   -5.3370   21.1560 C   0  0  0  0  0  0  0  0  0  0  0  0
    7.1750   -4.3630   22.2160 N   0  0  0  0  0  0  0  0  0  0  0  0
    8.0670   -3.2220   22.0670 C   0  0  0  0  0  0  0  0  0  0  0  0
    7.4870   -1.9630   22.7450 C   0  0  2  0  0  0  0  0  0  0  0  0
    6.3080   -1.3260   21.9550 C   0  0  0  0  0  0  0  0  0  0  0  0
    5.1290   -1.5730   22.0700 O   0  0  0  0  0  0  0  0  0  0  0  0
    6.8250   -0.4380   21.0270 N   0  0  0  0  0  0  0  0  0  0  0  0
    6.1410    0.1210   19.9260 C   0  0  0  0  0  0  0  0  0  0  0  0
    6.6500   -0.0300   18.6580 C   0  0  0  0  0  0  0  0  0  0  0  0
    6.0400    0.4160   17.5390 N   0  0  0  0  0  0  0  0  0  0  0  0
    4.9230    1.0910   17.6710 C   0  0  0  0  0  0  0  0  0  0  0  0
    4.3440    1.4110   18.9330 C   0  0  0  0  0  0  0  0  0  0  0  0
    3.1990    2.2440   19.0530 C   0  0  0  0  0  0  0  0  0  0  0  0
    2.7290    2.6020   20.2880 C   0  0  0  0  0  0  0  0  0  0  0  0
    3.3690    2.1370   21.4580 C   0  0  0  0  0  0  0  0  0  0  0  0
    4.4600    1.3120   21.3710 C   0  0  0  0  0  0  0  0  0  0  0  0
    4.9690    0.9230   20.1020 C   0  0  0  0  0  0  0  0  0  0  0  0
    4.9470    0.9540   22.2700 H   0  0  0  0  0  0  0  0  0  0  0  0
    3.0070    2.4380   22.4360 H   0  0  0  0  0  0  0  0  0  0  0  0
    1.8730    3.2640   20.3790 H   0  0  0  0  0  0  0  0  0  0  0  0
    2.7350    2.6220   18.1460 H   0  0  0  0  0  0  0  0  0  0  0  0
    4.4330    1.4250   16.7560 H   0  0  0  0  0  0  0  0  0  0  0  0
    7.5780   -0.5790   18.5020 H   0  0  0  0  0  0  0  0  0  0  0  0
    8.2300   -0.1690   21.2370 C   0  0  0  0  0  0  0  0  0  0  0  0
    8.4910   -0.7840   22.6180 C   0  0  2  0  0  0  0  0  0  0  0  0
    9.9640   -1.0740   22.7510 C   0  0  0  0  0  0  0  0  0  0  0  0
   10.3470   -1.5230   24.0660 N   0  0  0  0  0  0  0  0  0  0  0  0
   11.6450   -1.7230   24.3440 C   0  0  0  0  0  0  0  0  0  0  0  0
   11.9600   -2.2220   25.5530 N   0  0  0  0  0  0  0  0  0  0  0  0
   13.2590   -2.3710   25.7370 C   0  0  0  0  0  0  0  0  0  0  0  0
   14.2400   -2.0810   24.8780 N   0  0  0  0  0  0  0  0  0  0  0  0
   13.7920   -1.6050   23.7180 C   0  0  0  0  0  0  0  0  0  0  0  0
   12.5310   -1.3830   23.3900 N   0  0  0  0  0  0  0  0  0  0  0  0
   14.5390   -1.3590   22.9660 H   0  0  0  0  0  0  0  0  0  0  0  0
   13.5610   -2.7740   26.7020 H   0  0  0  0  0  0  0  0  0  0  0  0
    9.6720   -1.8830   24.7250 H   0  0  0  0  0  0  0  0  0  0  0  0
   10.5320   -0.1680   22.5310 H   0  0  0  0  0  0  0  0  0  0  0  0
   10.2900   -1.8050   21.9970 H   0  0  0  0  0  0  0  0  0  0  0  0
    8.2020   -0.0410   23.3680 H   0  0  0  0  0  0  0  0  0  0  0  0
    8.8650   -0.6360   20.4650 H   0  0  0  0  0  0  0  0  0  0  0  0
    8.4260    0.9100   21.2370 H   0  0  0  0  0  0  0  0  0  0  0  0
    7.0610   -2.3570   24.1410 C   0  0  0  0  0  0  0  0  0  0  0  0
    6.7390   -1.3620   25.0710 C   0  0  0  0  0  0  0  0  0  0  0  0
    6.3060   -1.7080   26.3390 C   0  0  0  0  0  0  0  0  0  0  0  0
    5.8710   -0.4440   27.4610 Cl  0  0  0  0  0  0  0  0  0  0  0  0
    6.1880   -3.0410   26.7370 C   0  0  0  0  0  0  0  0  0  0  0  0
    6.4700   -4.0280   25.8130 C   0  0  0  0  0  0  0  0  0  0  0  0
    6.8600   -3.6960   24.5170 C   0  0  0  0  0  0  0  0  0  0  0  0
    6.9240   -4.7930   23.5040 C   0  0  0  0  0  0  0  0  0  0  0  0
    6.7160   -5.9640   23.7800 O   0  0  0  0  0  0  0  0  0  0  0  0
    6.3570   -5.0770   26.0610 H   0  0  0  0  0  0  0  0  0  0  0  0
    5.8490   -3.2880   27.7370 H   0  0  0  0  0  0  0  0  0  0  0  0
    6.7840   -0.3110   24.8080 H   0  0  0  0  0  0  0  0  0  0  0  0
    9.0270   -3.4580   22.5500 H   0  0  0  0  0  0  0  0  0  0  0  0
    8.3050   -3.0050   21.0270 H   0  0  0  0  0  0  0  0  0  0  0  0
    6.5990   -6.2520   21.5970 H   0  0  0  0  0  0  0  0  0  0  0  0
    7.9520   -5.6100   20.7000 H   0  0  0  0  0  0  0  0  0  0  0  0
    6.3180   -2.9990   20.4150 H   0  0  0  0  0  0  0  0  0  0  0  0
    5.6720   -3.2080   17.8180 H   0  0  0  0  0  0  0  0  0  0  0  0
    4.1390   -3.5880   18.6150 H   0  0  0  0  0  0  0  0  0  0  0  0
    4.8840   -2.0290   18.9080 H   0  0  0  0  0  0  0  0  0  0  0  0
  1  2  1  0  0  0  0
  1 63  1  0  0  0  0
  1 64  1  0  0  0  0
  1 65  1  0  0  0  0
  2  3  1  0  0  0  0
  2 62  1  0  0  0  0
  3  4  2  0  0  0  0
  3  5  1  0  0  0  0
  5  6  1  0  0  0  0
  5 60  1  0  0  0  0
  5 61  1  0  0  0  0
  6  7  1  0  0  0  0
  6 53  1  0  0  0  0
  7  8  1  0  0  0  0
  7 58  1  0  0  0  0
  7 59  1  0  0  0  0
  8  9  1  6  0  0  0
  8 29  1  0  0  0  0
  8 46  1  0  0  0  0
  9 10  2  0  0  0  0
  9 11  1  0  0  0  0
 11 12  1  0  0  0  0
 11 28  1  0  0  0  0
 12 13  2  0  0  0  0
 12 21  1  0  0  0  0
 13 14  1  0  0  0  0
 13 27  1  0  0  0  0
 14 15  2  0  0  0  0
 15 16  1  0  0  0  0
 15 26  1  0  0  0  0
 16 17  2  0  0  0  0
 16 21  1  0  0  0  0
 17 18  1  0  0  0  0
 17 25  1  0  0  0  0
 18 19  2  0  0  0  0
 18 24  1  0  0  0  0
 19 20  1  0  0  0  0
 19 23  1  0  0  0  0
 20 21  2  0  0  0  0
 20 22  1  0  0  0  0
 28 29  1  0  0  0  0
 28 44  1  0  0  0  0
 28 45  1  0  0  0  0
 29 30  1  0  0  0  0
 29 43  1  1  0  0  0
 30 31  1  0  0  0  0
 30 41  1  0  0  0  0
 30 42  1  0  0  0  0
 31 32  1  0  0  0  0
 31 40  1  0  0  0  0
 32 33  2  0  0  0  0
 32 37  1  0  0  0  0
 33 34  1  0  0  0  0
 34 35  2  0  0  0  0
 34 39  1  0  0  0  0
 35 36  1  0  0  0  0
 36 37  2  0  0  0  0
 36 38  1  0  0  0  0
 46 47  2  0  0  0  0
 46 52  1  0  0  0  0
 47 48  1  0  0  0  0
 47 57  1  0  0  0  0
 48 49  1  0  0  0  0
 48 50  2  0  0  0  0
 50 51  1  0  0  0  0
 50 56  1  0  0  0  0
 51 52  2  0  0  0  0
 51 55  1  0  0  0  0
 52 53  1  0  0  0  0
 53 54  2  0  0  0  0
M  END
>  <MODEL>
       1

$$$$
