output/tmp_first_model_15_90.pdb
 OpenBabel07232601353D

 62 67  0  0  1  0  0  0  0  0999 V2000
    7.3660   -2.6380   23.7160 C   0  0  0  0  0  0  0  0  0  0  0  0
    7.7040   -1.7400   22.5370 C   0  0  1  0  0  0  0  0  0  0  0  0
    6.6100   -1.6240   21.4800 C   0  0  0  0  0  0  0  0  0  0  0  0
    6.9110   -0.3590   20.8390 N   0  0  0  0  0  0  0  0  0  0  0  0
    6.1360    0.1270   19.7690 C   0  0  0  0  0  0  0  0  0  0  0  0
    6.4450   -0.2330   18.4860 C   0  0  0  0  0  0  0  0  0  0  0  0
    5.7670    0.2020   17.4000 N   0  0  0  0  0  0  0  0  0  0  0  0
    4.7530    1.0080   17.6030 C   0  0  0  0  0  0  0  0  0  0  0  0
    4.3150    1.4210   18.8940 C   0  0  0  0  0  0  0  0  0  0  0  0
    3.1960    2.2740   19.0670 C   0  0  0  0  0  0  0  0  0  0  0  0
    2.7760    2.6280   20.3190 C   0  0  0  0  0  0  0  0  0  0  0  0
    3.4460    2.1400   21.4640 C   0  0  0  0  0  0  0  0  0  0  0  0
    4.5310    1.3100   21.3230 C   0  0  0  0  0  0  0  0  0  0  0  0
    5.0090    0.9550   20.0260 C   0  0  0  0  0  0  0  0  0  0  0  0
    5.0230    0.9230   22.2120 H   0  0  0  0  0  0  0  0  0  0  0  0
    3.0930    2.4170   22.4530 H   0  0  0  0  0  0  0  0  0  0  0  0
    1.9170    3.2820   20.4400 H   0  0  0  0  0  0  0  0  0  0  0  0
    2.6920    2.6360   18.1760 H   0  0  0  0  0  0  0  0  0  0  0  0
    4.2100    1.3670   16.7280 H   0  0  0  0  0  0  0  0  0  0  0  0
    7.2930   -0.8900   18.3010 H   0  0  0  0  0  0  0  0  0  0  0  0
    7.6500    0.5020   21.6100 C   0  0  0  0  0  0  0  0  0  0  0  0
    7.8560    1.6780   21.3590 O   0  0  0  0  0  0  0  0  0  0  0  0
    8.1600   -0.2750   22.8330 C   0  0  1  0  0  0  0  0  0  0  0  0
    7.5970    0.2880   24.1490 C   0  0  0  0  0  0  0  0  0  0  0  0
    8.2080    1.5480   24.5380 N   0  0  0  0  0  0  0  0  0  0  0  0
    7.3100    2.5960   24.9990 C   0  0  0  0  0  0  0  0  0  0  0  0
    6.6800    3.3480   23.8330 C   0  0  0  0  0  0  0  0  0  0  0  0
    7.7060    4.1800   23.1480 N   0  3  0  0  0  0  0  0  0  0  0  0
    7.2600    5.1750   22.0830 C   0  0  0  0  0  0  0  0  0  0  0  0
    7.8370    6.3890   22.8660 C   0  0  0  0  0  0  0  0  0  0  0  0
    8.3000    5.3720   23.9450 C   0  0  0  0  0  0  0  0  0  0  0  0
    7.7900    5.4880   24.9010 H   0  0  0  0  0  0  0  0  0  0  0  0
    9.3680    5.2400   24.0850 H   0  0  0  0  0  0  0  0  0  0  0  0
    8.6330    6.9510   22.3690 H   0  0  0  0  0  0  0  0  0  0  0  0
    7.0630    7.0760   23.2230 H   0  0  0  0  0  0  0  0  0  0  0  0
    6.1810    5.1710   21.9360 H   0  0  0  0  0  0  0  0  0  0  0  0
    7.7630    4.9280   21.1540 H   0  0  0  0  0  0  0  0  0  0  0  0
    8.4070    3.5430   22.7330 H   0  0  0  0  0  0  0  0  0  0  0  0
    5.8500    3.9780   24.1670 H   0  0  0  0  0  0  0  0  0  0  0  0
    6.3040    2.6490   23.0850 H   0  0  0  0  0  0  0  0  0  0  0  0
    7.8850    3.2500   25.6580 H   0  0  0  0  0  0  0  0  0  0  0  0
    6.5260    2.1230   25.5970 H   0  0  0  0  0  0  0  0  0  0  0  0
    9.5660    1.7330   24.5300 C   0  0  0  0  0  0  0  0  0  0  0  0
   10.1200    2.6530   25.1250 O   0  0  0  0  0  0  0  0  0  0  0  0
   10.3420    0.7640   23.6600 C   0  0  0  0  0  0  0  0  0  0  0  0
   11.7400    0.7830   23.6020 C   0  0  0  0  0  0  0  0  0  0  0  0
   12.4590   -0.0510   22.7430 C   0  0  0  0  0  0  0  0  0  0  0  0
   11.7310   -0.8880   21.8910 C   0  0  0  0  0  0  0  0  0  0  0  0
   12.4220   -2.1300   20.8900 Cl  0  0  0  0  0  0  0  0  0  0  0  0
   10.3580   -0.8390   21.8730 C   0  0  0  0  0  0  0  0  0  0  0  0
    9.6540   -0.1240   22.8390 C   0  0  0  0  0  0  0  0  0  0  0  0
    9.8260   -1.3720   21.0960 H   0  0  0  0  0  0  0  0  0  0  0  0
   13.5450   -0.0470   22.7100 H   0  0  0  0  0  0  0  0  0  0  0  0
   12.2490    1.4770   24.2610 H   0  0  0  0  0  0  0  0  0  0  0  0
    7.7490   -0.4490   24.9430 H   0  0  0  0  0  0  0  0  0  0  0  0
    6.5150    0.4170   24.0630 H   0  0  0  0  0  0  0  0  0  0  0  0
    6.6500   -2.4340   20.7500 H   0  0  0  0  0  0  0  0  0  0  0  0
    5.6040   -1.6300   21.9260 H   0  0  0  0  0  0  0  0  0  0  0  0
    8.5510   -2.2200   22.0460 H   0  0  0  0  0  0  0  0  0  0  0  0
    7.1470   -3.6470   23.3510 H   0  0  0  0  0  0  0  0  0  0  0  0
    8.2230   -2.7090   24.3940 H   0  0  0  0  0  0  0  0  0  0  0  0
    6.4990   -2.2790   24.2800 H   0  0  0  0  0  0  0  0  0  0  0  0
  1  2  1  0  0  0  0
  1 60  1  0  0  0  0
  1 61  1  0  0  0  0
  1 62  1  0  0  0  0
  2  3  1  0  0  0  0
  2 23  1  0  0  0  0
  2 59  1  6  0  0  0
  3  4  1  0  0  0  0
  3 57  1  0  0  0  0
  3 58  1  0  0  0  0
  4  5  1  0  0  0  0
  4 21  1  0  0  0  0
  5  6  2  0  0  0  0
  5 14  1  0  0  0  0
  6  7  1  0  0  0  0
  6 20  1  0  0  0  0
  7  8  2  0  0  0  0
  8  9  1  0  0  0  0
  8 19  1  0  0  0  0
  9 10  2  0  0  0  0
  9 14  1  0  0  0  0
 10 11  1  0  0  0  0
 10 18  1  0  0  0  0
 11 12  2  0  0  0  0
 11 17  1  0  0  0  0
 12 13  1  0  0  0  0
 12 16  1  0  0  0  0
 13 14  2  0  0  0  0
 13 15  1  0  0  0  0
 21 22  2  0  0  0  0
 23 21  1  6  0  0  0
 23 24  1  0  0  0  0
 23 51  1  0  0  0  0
 24 25  1  0  0  0  0
 24 55  1  0  0  0  0
 24 56  1  0  0  0  0
 25 26  1  0  0  0  0
 25 43  1  0  0  0  0
 26 27  1  0  0  0  0
 26 41  1  0  0  0  0
 26 42  1  0  0  0  0
 27 28  1  0  0  0  0
 27 39  1  0  0  0  0
 27 40  1  0  0  0  0
 28 29  1  0  0  0  0
 28 31  1  0  0  0  0
 28 38  1  0  0  0  0
 29 30  1  0  0  0  0
 29 36  1  0  0  0  0
 29 37  1  0  0  0  0
 30 31  1  0  0  0  0
 30 34  1  0  0  0  0
 30 35  1  0  0  0  0
 31 32  1  0  0  0  0
 31 33  1  0  0  0  0
 43 44  2  0  0  0  0
 43 45  1  0  0  0  0
 45 46  2  0  0  0  0
 45 51  1  0  0  0  0
 46 47  1  0  0  0  0
 46 54  1  0  0  0  0
 47 48  2  0  0  0  0
 47 53  1  0  0  0  0
 48 49  1  0  0  0  0
 48 50  1  0  0  0  0
 50 51  2  0  0  0  0
 50 52  1  0  0  0  0
M  CHG  1  28   1
M  END
>  <MODEL>
       1

$$$$
