output/tmp_first_model_2_15.pdb
 OpenBabel07222619223D

 72 77  0  0  1  0  0  0  0  0999 V2000
    6.9650    7.7670   21.5670 C   0  0  0  0  0  0  0  0  0  0  0  0
    5.9750    6.6190   21.4890 C   0  0  1  0  0  0  0  0  0  0  0  0
    6.6940    5.2620   21.3940 C   0  0  0  0  0  0  0  0  0  0  0  0
    6.9220    4.6790   22.7450 N   0  3  2  0  0  0  0  0  0  0  0  0
    7.6270    3.3860   22.6470 C   0  0  0  0  0  0  0  0  0  0  0  0
    8.0490    2.8750   24.0140 C   0  0  0  0  0  0  0  0  0  0  0  0
    8.7700    1.6260   23.8810 N   0  0  0  0  0  0  0  0  0  0  0  0
    8.0530    0.3630   23.7820 C   0  0  0  0  0  0  0  0  0  0  0  0
    8.4680   -0.4560   22.5260 C   0  0  2  0  0  0  0  0  0  0  0  0
    8.0110    0.1970   21.1990 C   0  0  0  0  0  0  0  0  0  0  0  0
    8.5580    1.0880   20.5800 O   0  0  0  0  0  0  0  0  0  0  0  0
    6.8640   -0.4440   20.7890 N   0  0  0  0  0  0  0  0  0  0  0  0
    6.1020    0.0880   19.7260 C   0  0  0  0  0  0  0  0  0  0  0  0
    6.4430   -0.1910   18.4290 C   0  0  0  0  0  0  0  0  0  0  0  0
    5.7570    0.2590   17.3520 N   0  0  0  0  0  0  0  0  0  0  0  0
    4.7260    1.0320   17.5800 C   0  0  0  0  0  0  0  0  0  0  0  0
    4.2940    1.4340   18.8760 C   0  0  0  0  0  0  0  0  0  0  0  0
    3.1970    2.3130   19.0630 C   0  0  0  0  0  0  0  0  0  0  0  0
    2.8110    2.6770   20.3220 C   0  0  0  0  0  0  0  0  0  0  0  0
    3.5000    2.1860   21.4520 C   0  0  0  0  0  0  0  0  0  0  0  0
    4.5750    1.3430   21.3020 C   0  0  0  0  0  0  0  0  0  0  0  0
    4.9940    0.9420   19.9990 C   0  0  0  0  0  0  0  0  0  0  0  0
    5.1080    1.0000   22.1820 H   0  0  0  0  0  0  0  0  0  0  0  0
    3.1720    2.4790   22.4450 H   0  0  0  0  0  0  0  0  0  0  0  0
    1.9700    3.3500   20.4590 H   0  0  0  0  0  0  0  0  0  0  0  0
    2.6870    2.6840   18.1780 H   0  0  0  0  0  0  0  0  0  0  0  0
    4.1750    1.3900   16.7100 H   0  0  0  0  0  0  0  0  0  0  0  0
    7.3110   -0.8150   18.2310 H   0  0  0  0  0  0  0  0  0  0  0  0
    6.4340   -1.5190   21.6650 C   0  0  0  0  0  0  0  0  0  0  0  0
    7.7250   -1.8160   22.4370 C   0  0  2  0  0  0  0  0  0  0  0  0
    7.5540   -2.5680   23.7430 C   0  0  0  0  0  0  0  0  0  0  0  0
    7.0960   -3.5440   23.5610 H   0  0  0  0  0  0  0  0  0  0  0  0
    8.5310   -2.7200   24.2140 H   0  0  0  0  0  0  0  0  0  0  0  0
    6.9170   -2.0170   24.4440 H   0  0  0  0  0  0  0  0  0  0  0  0
    8.3040   -2.4350   21.7480 H   0  0  0  0  0  0  0  0  0  0  0  0
    5.6030   -1.2250   22.3260 H   0  0  0  0  0  0  0  0  0  0  0  0
    6.0990   -2.3850   21.0820 H   0  0  0  0  0  0  0  0  0  0  0  0
    9.9720   -0.5240   22.5060 C   0  0  0  0  0  0  0  0  0  0  0  0
   10.6020   -1.5260   21.7710 C   0  0  0  0  0  0  0  0  0  0  0  0
   11.9460   -1.4500   21.5010 C   0  0  0  0  0  0  0  0  0  0  0  0
   12.5210   -2.6970   20.4180 Cl  0  0  0  0  0  0  0  0  0  0  0  0
   12.7280   -0.3970   21.9980 C   0  0  0  0  0  0  0  0  0  0  0  0
   12.1240    0.5580   22.7870 C   0  0  0  0  0  0  0  0  0  0  0  0
   10.7490    0.5270   23.0080 C   0  0  0  0  0  0  0  0  0  0  0  0
   10.1160    1.7190   23.6610 C   0  0  0  0  0  0  0  0  0  0  0  0
   10.7620    2.7240   23.9380 O   0  0  0  0  0  0  0  0  0  0  0  0
   12.7010    1.3680   23.2160 H   0  0  0  0  0  0  0  0  0  0  0  0
   13.7750   -0.2930   21.7490 H   0  0  0  0  0  0  0  0  0  0  0  0
   10.0740   -2.3660   21.3350 H   0  0  0  0  0  0  0  0  0  0  0  0
    8.2880   -0.2430   24.6700 H   0  0  0  0  0  0  0  0  0  0  0  0
    6.9700    0.5610   23.7870 H   0  0  0  0  0  0  0  0  0  0  0  0
    8.7180    3.6070   24.4700 H   0  0  0  0  0  0  0  0  0  0  0  0
    7.1890    2.7480   24.6780 H   0  0  0  0  0  0  0  0  0  0  0  0
    8.5160    3.5100   22.0220 H   0  0  0  0  0  0  0  0  0  0  0  0
    6.9710    2.6630   22.1470 H   0  0  0  0  0  0  0  0  0  0  0  0
    5.6640    4.5990   23.6120 C   0  0  1  0  0  0  0  0  0  0  0  0
    5.9870    5.1290   25.0110 C   0  0  0  0  0  0  0  0  0  0  0  0
    5.1340    5.0090   25.6830 H   0  0  0  0  0  0  0  0  0  0  0  0
    6.2420    6.1910   24.9390 H   0  0  0  0  0  0  0  0  0  0  0  0
    6.8420    4.6140   25.4550 H   0  0  0  0  0  0  0  0  0  0  0  0
    4.5770    5.4240   22.9380 C   0  0  0  0  0  0  0  0  0  0  0  0
    5.1130    6.6890   22.6180 O   0  0  0  0  0  0  0  0  0  0  0  0
    3.7370    5.5760   23.6240 H   0  0  0  0  0  0  0  0  0  0  0  0
    4.1920    4.9160   22.0390 H   0  0  0  0  0  0  0  0  0  0  0  0
    5.3480    3.5480   23.6450 H   0  0  0  0  0  0  0  0  0  0  0  0
    7.5650    5.3330   23.2320 H   0  0  0  0  0  0  0  0  0  0  0  0
    7.6670    5.4100   20.9200 H   0  0  0  0  0  0  0  0  0  0  0  0
    6.1340    4.5450   20.7740 H   0  0  0  0  0  0  0  0  0  0  0  0
    5.3700    6.7350   20.5780 H   0  0  0  0  0  0  0  0  0  0  0  0
    6.4620    8.7370   21.5690 H   0  0  0  0  0  0  0  0  0  0  0  0
    7.5910    7.6840   22.4630 H   0  0  0  0  0  0  0  0  0  0  0  0
    7.6100    7.7010   20.6890 H   0  0  0  0  0  0  0  0  0  0  0  0
  1  2  1  0  0  0  0
  1 70  1  0  0  0  0
  1 71  1  0  0  0  0
  1 72  1  0  0  0  0
  2  3  1  0  0  0  0
  2 62  1  0  0  0  0
  2 69  1  6  0  0  0
  3  4  1  0  0  0  0
  3 67  1  0  0  0  0
  3 68  1  0  0  0  0
  4  5  1  0  0  0  0
  4 56  1  0  0  0  0
  4 66  1  1  0  0  0
  5  6  1  0  0  0  0
  5 54  1  0  0  0  0
  5 55  1  0  0  0  0
  6  7  1  0  0  0  0
  6 52  1  0  0  0  0
  6 53  1  0  0  0  0
  7  8  1  0  0  0  0
  7 45  1  0  0  0  0
  8  9  1  0  0  0  0
  8 50  1  0  0  0  0
  8 51  1  0  0  0  0
  9 10  1  6  0  0  0
  9 30  1  0  0  0  0
  9 38  1  0  0  0  0
 10 11  2  0  0  0  0
 10 12  1  0  0  0  0
 12 13  1  0  0  0  0
 12 29  1  0  0  0  0
 13 14  2  0  0  0  0
 13 22  1  0  0  0  0
 14 15  1  0  0  0  0
 14 28  1  0  0  0  0
 15 16  2  0  0  0  0
 16 17  1  0  0  0  0
 16 27  1  0  0  0  0
 17 18  2  0  0  0  0
 17 22  1  0  0  0  0
 18 19  1  0  0  0  0
 18 26  1  0  0  0  0
 19 20  2  0  0  0  0
 19 25  1  0  0  0  0
 20 21  1  0  0  0  0
 20 24  1  0  0  0  0
 21 22  2  0  0  0  0
 21 23  1  0  0  0  0
 29 30  1  0  0  0  0
 29 36  1  0  0  0  0
 29 37  1  0  0  0  0
 30 31  1  0  0  0  0
 30 35  1  6  0  0  0
 31 32  1  0  0  0  0
 31 33  1  0  0  0  0
 31 34  1  0  0  0  0
 38 39  2  0  0  0  0
 38 44  1  0  0  0  0
 39 40  1  0  0  0  0
 39 49  1  0  0  0  0
 40 41  1  0  0  0  0
 40 42  2  0  0  0  0
 42 43  1  0  0  0  0
 42 48  1  0  0  0  0
 43 44  2  0  0  0  0
 43 47  1  0  0  0  0
 44 45  1  0  0  0  0
 45 46  2  0  0  0  0
 56 57  1  0  0  0  0
 56 61  1  0  0  0  0
 56 65  1  1  0  0  0
 57 58  1  0  0  0  0
 57 59  1  0  0  0  0
 57 60  1  0  0  0  0
 61 62  1  0  0  0  0
 61 63  1  0  0  0  0
 61 64  1  0  0  0  0
M  CHG  1   4   1
M  END
>  <MODEL>
       1

$$$$
