output/tmp_first_model_11_54.pdb
 OpenBabel07222623443D

 66 71  0  0  1  0  0  0  0  0999 V2000
    7.5880   -8.2750   23.0530 C   0  0  0  0  0  0  0  0  0  0  0  0
    6.6720   -7.1770   22.8410 N   0  0  0  0  0  0  0  0  0  0  0  0
    6.7300   -6.3700   21.7550 C   0  0  0  0  0  0  0  0  0  0  0  0
    7.4330   -6.5870   20.7810 O   0  0  0  0  0  0  0  0  0  0  0  0
    5.8760   -5.0980   21.8760 C   0  0  0  0  0  0  0  0  0  0  0  0
    6.4590   -4.1580   22.8210 N   0  0  0  0  0  0  0  0  0  0  0  0
    7.6050   -3.3640   22.4310 C   0  0  0  0  0  0  0  0  0  0  0  0
    7.3600   -1.8730   22.7530 C   0  0  2  0  0  0  0  0  0  0  0  0
    6.2830   -1.3960   21.7540 C   0  0  0  0  0  0  0  0  0  0  0  0
    5.1420   -1.8050   21.6730 O   0  0  0  0  0  0  0  0  0  0  0  0
    6.8430   -0.4810   20.8880 N   0  0  0  0  0  0  0  0  0  0  0  0
    6.1040    0.0510   19.8050 C   0  0  0  0  0  0  0  0  0  0  0  0
    6.4670   -0.2210   18.5100 C   0  0  0  0  0  0  0  0  0  0  0  0
    5.8000    0.2220   17.4170 N   0  0  0  0  0  0  0  0  0  0  0  0
    4.7480    0.9800   17.6050 C   0  0  0  0  0  0  0  0  0  0  0  0
    4.2760    1.3640   18.8920 C   0  0  0  0  0  0  0  0  0  0  0  0
    3.1480    2.2140   19.0510 C   0  0  0  0  0  0  0  0  0  0  0  0
    2.7500    2.6130   20.2970 C   0  0  0  0  0  0  0  0  0  0  0  0
    3.4500    2.1690   21.4400 C   0  0  0  0  0  0  0  0  0  0  0  0
    4.5300    1.3340   21.3130 C   0  0  0  0  0  0  0  0  0  0  0  0
    4.9700    0.9000   20.0310 C   0  0  0  0  0  0  0  0  0  0  0  0
    5.0580    0.9940   22.1970 H   0  0  0  0  0  0  0  0  0  0  0  0
    3.1360    2.5020   22.4240 H   0  0  0  0  0  0  0  0  0  0  0  0
    1.9080    3.2890   20.4140 H   0  0  0  0  0  0  0  0  0  0  0  0
    2.6340    2.5720   18.1620 H   0  0  0  0  0  0  0  0  0  0  0  0
    4.2220    1.3380   16.7170 H   0  0  0  0  0  0  0  0  0  0  0  0
    7.3290   -0.8550   18.3080 H   0  0  0  0  0  0  0  0  0  0  0  0
    8.2990   -0.4580   20.9770 C   0  0  0  0  0  0  0  0  0  0  0  0
    8.5910   -0.9850   22.3960 C   0  0  2  0  0  0  0  0  0  0  0  0
    9.9800   -1.6440   22.5270 C   0  0  0  0  0  0  0  0  0  0  0  0
   10.1250   -2.3140   23.8050 N   0  0  0  0  0  0  0  0  0  0  0  0
   11.3010   -2.8220   24.2940 C   0  0  0  0  0  0  0  0  0  0  0  0
   11.2610   -3.7440   25.3760 C   0  0  0  0  0  0  0  0  0  0  0  0
   12.3560   -4.1820   25.9730 N   0  0  0  0  0  0  0  0  0  0  0  0
   13.5360   -3.7310   25.4960 C   0  0  0  0  0  0  0  0  0  0  0  0
   13.5730   -2.8960   24.3890 C   0  0  0  0  0  0  0  0  0  0  0  0
   12.4670   -2.4410   23.7770 N   0  0  0  0  0  0  0  0  0  0  0  0
   14.5180   -2.5580   23.9650 H   0  0  0  0  0  0  0  0  0  0  0  0
   14.4450   -4.1210   25.9590 H   0  0  0  0  0  0  0  0  0  0  0  0
   10.3110   -4.0550   25.8110 H   0  0  0  0  0  0  0  0  0  0  0  0
    9.2960   -2.4110   24.3770 H   0  0  0  0  0  0  0  0  0  0  0  0
   10.7740   -0.8930   22.4460 H   0  0  0  0  0  0  0  0  0  0  0  0
   10.1340   -2.3550   21.7010 H   0  0  0  0  0  0  0  0  0  0  0  0
    8.5780   -0.1310   23.0770 H   0  0  0  0  0  0  0  0  0  0  0  0
    8.7600   -1.1080   20.2190 H   0  0  0  0  0  0  0  0  0  0  0  0
    8.6680    0.5610   20.8250 H   0  0  0  0  0  0  0  0  0  0  0  0
    6.8900   -1.7770   24.2000 C   0  0  0  0  0  0  0  0  0  0  0  0
    6.9090   -0.5540   24.8900 C   0  0  0  0  0  0  0  0  0  0  0  0
    6.4840   -0.4880   26.2050 C   0  0  0  0  0  0  0  0  0  0  0  0
    6.4930    1.0380   27.0430 Cl  0  0  0  0  0  0  0  0  0  0  0  0
    6.0640   -1.6230   26.8950 C   0  0  0  0  0  0  0  0  0  0  0  0
    6.0130   -2.8270   26.2180 C   0  0  0  0  0  0  0  0  0  0  0  0
    6.3610   -2.8940   24.8700 C   0  0  0  0  0  0  0  0  0  0  0  0
    6.0880   -4.1700   24.1310 C   0  0  0  0  0  0  0  0  0  0  0  0
    5.5310   -5.1410   24.6460 O   0  0  0  0  0  0  0  0  0  0  0  0
    5.6870   -3.7420   26.7020 H   0  0  0  0  0  0  0  0  0  0  0  0
    5.7580   -1.5470   27.9310 H   0  0  0  0  0  0  0  0  0  0  0  0
    7.2530    0.3590   24.4200 H   0  0  0  0  0  0  0  0  0  0  0  0
    7.7530   -3.4900   21.3640 H   0  0  0  0  0  0  0  0  0  0  0  0
    8.5080   -3.7220   22.9390 H   0  0  0  0  0  0  0  0  0  0  0  0
    4.8640   -5.3370   22.2260 H   0  0  0  0  0  0  0  0  0  0  0  0
    5.8150   -4.6110   20.8940 H   0  0  0  0  0  0  0  0  0  0  0  0
    6.0850   -6.8830   23.6140 H   0  0  0  0  0  0  0  0  0  0  0  0
    8.5370   -7.9470   23.5010 H   0  0  0  0  0  0  0  0  0  0  0  0
    7.8060   -8.7600   22.1020 H   0  0  0  0  0  0  0  0  0  0  0  0
    7.1130   -9.0030   23.7150 H   0  0  0  0  0  0  0  0  0  0  0  0
  1  2  1  0  0  0  0
  1 64  1  0  0  0  0
  1 65  1  0  0  0  0
  1 66  1  0  0  0  0
  2  3  1  0  0  0  0
  2 63  1  0  0  0  0
  3  4  2  0  0  0  0
  3  5  1  0  0  0  0
  5  6  1  0  0  0  0
  5 61  1  0  0  0  0
  5 62  1  0  0  0  0
  6  7  1  0  0  0  0
  6 54  1  0  0  0  0
  7  8  1  0  0  0  0
  7 59  1  0  0  0  0
  7 60  1  0  0  0  0
  8  9  1  6  0  0  0
  8 29  1  0  0  0  0
  8 47  1  0  0  0  0
  9 10  2  0  0  0  0
  9 11  1  0  0  0  0
 11 12  1  0  0  0  0
 11 28  1  0  0  0  0
 12 13  2  0  0  0  0
 12 21  1  0  0  0  0
 13 14  1  0  0  0  0
 13 27  1  0  0  0  0
 14 15  2  0  0  0  0
 15 16  1  0  0  0  0
 15 26  1  0  0  0  0
 16 17  2  0  0  0  0
 16 21  1  0  0  0  0
 17 18  1  0  0  0  0
 17 25  1  0  0  0  0
 18 19  2  0  0  0  0
 18 24  1  0  0  0  0
 19 20  1  0  0  0  0
 19 23  1  0  0  0  0
 20 21  2  0  0  0  0
 20 22  1  0  0  0  0
 28 29  1  0  0  0  0
 28 45  1  0  0  0  0
 28 46  1  0  0  0  0
 29 30  1  0  0  0  0
 29 44  1  1  0  0  0
 30 31  1  0  0  0  0
 30 42  1  0  0  0  0
 30 43  1  0  0  0  0
 31 32  1  0  0  0  0
 31 41  1  0  0  0  0
 32 33  2  0  0  0  0
 32 37  1  0  0  0  0
 33 34  1  0  0  0  0
 33 40  1  0  0  0  0
 34 35  2  0  0  0  0
 35 36  1  0  0  0  0
 35 39  1  0  0  0  0
 36 37  2  0  0  0  0
 36 38  1  0  0  0  0
 47 48  2  0  0  0  0
 47 53  1  0  0  0  0
 48 49  1  0  0  0  0
 48 58  1  0  0  0  0
 49 50  1  0  0  0  0
 49 51  2  0  0  0  0
 51 52  1  0  0  0  0
 51 57  1  0  0  0  0
 52 53  2  0  0  0  0
 52 56  1  0  0  0  0
 53 54  1  0  0  0  0
 54 55  2  0  0  0  0
M  END
>  <MODEL>
       1

$$$$
