output/tmp_first_model_16_95.pdb
 OpenBabel07232602073D

 67 71  0  0  1  0  0  0  0  0999 V2000
    7.2020    3.5810   21.1680 C   0  0  0  0  0  0  0  0  0  0  0  0
    7.5500    3.0800   22.4890 N   0  0  0  0  0  0  0  0  0  0  0  0
    8.8540    3.0760   22.8850 C   0  0  0  0  0  0  0  0  0  0  0  0
    9.7300    3.6380   22.2510 O   0  0  0  0  0  0  0  0  0  0  0  0
    9.1730    2.2670   24.1490 C   0  0  0  0  0  0  0  0  0  0  0  0
    9.5560    0.9120   23.7860 N   0  0  0  0  0  0  0  0  0  0  0  0
    8.5240   -0.1050   23.6100 C   0  0  0  0  0  0  0  0  0  0  0  0
    8.6810   -0.9500   22.2770 C   0  0  2  0  0  0  0  0  0  0  0  0
    8.0910   -0.0980   21.1130 C   0  0  0  0  0  0  0  0  0  0  0  0
    8.6500    0.8150   20.5390 O   0  0  0  0  0  0  0  0  0  0  0  0
    6.7880   -0.4870   20.8850 N   0  0  0  0  0  0  0  0  0  0  0  0
    6.0310    0.0560   19.8050 C   0  0  0  0  0  0  0  0  0  0  0  0
    6.3830   -0.2130   18.4990 C   0  0  0  0  0  0  0  0  0  0  0  0
    5.7290    0.2730   17.4160 N   0  0  0  0  0  0  0  0  0  0  0  0
    4.7020    1.0580   17.6190 C   0  0  0  0  0  0  0  0  0  0  0  0
    4.2250    1.4210   18.9090 C   0  0  0  0  0  0  0  0  0  0  0  0
    3.1300    2.3130   19.0750 C   0  0  0  0  0  0  0  0  0  0  0  0
    2.7010    2.6600   20.3280 C   0  0  0  0  0  0  0  0  0  0  0  0
    3.3340    2.1180   21.4680 C   0  0  0  0  0  0  0  0  0  0  0  0
    4.3960    1.2490   21.3310 C   0  0  0  0  0  0  0  0  0  0  0  0
    4.8840    0.8840   20.0460 C   0  0  0  0  0  0  0  0  0  0  0  0
    4.8770    0.8460   22.2190 H   0  0  0  0  0  0  0  0  0  0  0  0
    2.9910    2.3990   22.4590 H   0  0  0  0  0  0  0  0  0  0  0  0
    1.8770    3.3600   20.4510 H   0  0  0  0  0  0  0  0  0  0  0  0
    2.6530    2.7160   18.1830 H   0  0  0  0  0  0  0  0  0  0  0  0
    4.1820    1.4530   16.7410 H   0  0  0  0  0  0  0  0  0  0  0  0
    7.2360   -0.8510   18.2790 H   0  0  0  0  0  0  0  0  0  0  0  0
    6.3490   -1.5800   21.7370 C   0  0  0  0  0  0  0  0  0  0  0  0
    7.6700   -2.1530   22.2850 C   0  0  2  0  0  0  0  0  0  0  0  0
    7.5490   -2.8620   23.6310 C   0  0  0  0  0  0  0  0  0  0  0  0
    6.5360   -4.3310   23.5250 S   0  0  0  0  0  0  0  0  0  0  0  0
    7.1870   -5.2540   22.6050 O   0  0  0  0  0  0  0  0  0  0  0  0
    5.1610   -3.9000   23.3180 O   0  0  0  0  0  0  0  0  0  0  0  0
    6.6110   -5.0000   25.0460 N   0  0  0  0  0  0  0  0  0  0  0  0
    6.0090   -4.2500   26.1390 C   0  0  0  0  0  0  0  0  0  0  0  0
    5.0360   -3.8680   25.8300 H   0  0  0  0  0  0  0  0  0  0  0  0
    5.8600   -4.9370   26.9770 H   0  0  0  0  0  0  0  0  0  0  0  0
    6.6390   -3.4170   26.4880 H   0  0  0  0  0  0  0  0  0  0  0  0
    7.8190   -5.7310   25.3990 C   0  0  0  0  0  0  0  0  0  0  0  0
    8.6680   -5.0760   25.6490 H   0  0  0  0  0  0  0  0  0  0  0  0
    7.5940   -6.3550   26.2690 H   0  0  0  0  0  0  0  0  0  0  0  0
    8.0930   -6.3780   24.5700 H   0  0  0  0  0  0  0  0  0  0  0  0
    7.0780   -2.2140   24.3770 H   0  0  0  0  0  0  0  0  0  0  0  0
    8.5200   -3.1810   24.0160 H   0  0  0  0  0  0  0  0  0  0  0  0
    8.0320   -2.8830   21.5570 H   0  0  0  0  0  0  0  0  0  0  0  0
    5.7060   -1.2120   22.5480 H   0  0  0  0  0  0  0  0  0  0  0  0
    5.7740   -2.3230   21.1760 H   0  0  0  0  0  0  0  0  0  0  0  0
   10.1150   -1.2710   22.0670 C   0  0  0  0  0  0  0  0  0  0  0  0
   10.7810   -2.4340   21.3250 C   0  0  0  0  0  0  0  0  0  0  0  0
   12.0070   -1.3930   20.9140 C   0  0  0  0  0  0  0  0  0  0  0  0
   12.6870   -3.7180   20.0720 F   0  0  0  0  0  0  0  0  0  0  0  0
   11.9710   -1.5260   20.9280 C   0  0  0  0  0  0  0  0  0  0  0  0
   12.5440   -0.7610   22.1170 C   0  0  0  0  0  0  0  0  0  0  0  0
   11.1820   -0.4140   22.6170 C   0  0  0  0  0  0  0  0  0  0  0  0
   10.9030    0.6520   23.5600 C   0  0  0  0  0  0  0  0  0  0  0  0
   11.7850    1.3190   24.0890 O   0  0  0  0  0  0  0  0  0  0  0  0
   13.1730    0.1540   21.9270 H   0  0  0  0  0  0  0  0  0  0  0  0
   12.2090   -2.8890   20.0560 H   0  0  0  0  0  0  0  0  0  0  0  0
   10.1800   -2.8550   20.5060 H   0  0  0  0  0  0  0  0  0  0  0  0
    8.5410   -0.7750   24.4810 H   0  0  0  0  0  0  0  0  0  0  0  0
    7.5510    0.3930   23.5930 H   0  0  0  0  0  0  0  0  0  0  0  0
   10.0410    2.7100   24.6430 H   0  0  0  0  0  0  0  0  0  0  0  0
    8.3180    2.2410   24.8390 H   0  0  0  0  0  0  0  0  0  0  0  0
    6.8620    2.5320   22.9800 H   0  0  0  0  0  0  0  0  0  0  0  0
    7.2750    4.6740   21.1310 H   0  0  0  0  0  0  0  0  0  0  0  0
    6.1750    3.2830   20.9360 H   0  0  0  0  0  0  0  0  0  0  0  0
    7.8810    3.1380   20.4310 H   0  0  0  0  0  0  0  0  0  0  0  0
  1  2  1  0  0  0  0
  1 65  1  0  0  0  0
  1 66  1  0  0  0  0
  1 67  1  0  0  0  0
  2  3  1  0  0  0  0
  2 64  1  0  0  0  0
  3  4  2  0  0  0  0
  3  5  1  0  0  0  0
  5  6  1  0  0  0  0
  5 62  1  0  0  0  0
  5 63  1  0  0  0  0
  6  7  1  0  0  0  0
  6 55  1  0  0  0  0
  7  8  1  0  0  0  0
  7 60  1  0  0  0  0
  7 61  1  0  0  0  0
  8  9  1  6  0  0  0
  8 29  1  0  0  0  0
  8 48  1  0  0  0  0
  9 10  2  0  0  0  0
  9 11  1  0  0  0  0
 11 12  1  0  0  0  0
 11 28  1  0  0  0  0
 12 13  2  0  0  0  0
 12 21  1  0  0  0  0
 13 14  1  0  0  0  0
 13 27  1  0  0  0  0
 14 15  2  0  0  0  0
 15 16  1  0  0  0  0
 15 26  1  0  0  0  0
 16 17  2  0  0  0  0
 16 21  1  0  0  0  0
 17 18  1  0  0  0  0
 17 25  1  0  0  0  0
 18 19  2  0  0  0  0
 18 24  1  0  0  0  0
 19 20  1  0  0  0  0
 19 23  1  0  0  0  0
 20 21  2  0  0  0  0
 20 22  1  0  0  0  0
 28 29  1  0  0  0  0
 28 46  1  0  0  0  0
 28 47  1  0  0  0  0
 29 30  1  0  0  0  0
 29 45  1  6  0  0  0
 30 31  1  0  0  0  0
 30 43  1  0  0  0  0
 30 44  1  0  0  0  0
 31 32  2  0  0  0  0
 31 33  2  0  0  0  0
 31 34  1  0  0  0  0
 34 35  1  0  0  0  0
 34 39  1  0  0  0  0
 35 36  1  0  0  0  0
 35 37  1  0  0  0  0
 35 38  1  0  0  0  0
 39 40  1  0  0  0  0
 39 41  1  0  0  0  0
 39 42  1  0  0  0  0
 48 49  2  0  0  0  0
 48 54  1  0  0  0  0
 49 50  1  0  0  0  0
 49 59  1  0  0  0  0
 50 51  1  0  0  0  0
 50 52  2  0  0  0  0
 52 53  1  0  0  0  0
 52 58  1  0  0  0  0
 53 54  2  0  0  0  0
 53 57  1  0  0  0  0
 54 55  1  0  0  0  0
 55 56  2  0  0  0  0
M  END
>  <MODEL>
       1

$$$$
