output/tmp_first_model_12_22.pdb
 OpenBabel07232600143D

 41 44  0  0  0  0  0  0  0  0999 V2000
    8.0520    1.6320   20.4120 O   0  0  0  0  0  0  0  0  0  0  0  0
    7.7480    0.7200   21.1580 C   0  0  0  0  0  0  0  0  0  0  0  0
    6.7650   -0.3740   20.7230 C   0  0  0  0  0  0  0  0  0  0  0  0
    5.8560    0.0550   19.6110 C   0  0  0  0  0  0  0  0  0  0  0  0
    6.0990   -0.3080   18.3130 C   0  0  0  0  0  0  0  0  0  0  0  0
    5.4070    0.1350   17.2320 N   0  0  0  0  0  0  0  0  0  0  0  0
    4.4340    0.9820   17.4600 C   0  0  0  0  0  0  0  0  0  0  0  0
    4.0280    1.4020   18.7560 C   0  0  0  0  0  0  0  0  0  0  0  0
    2.9400    2.2880   18.9580 C   0  0  0  0  0  0  0  0  0  0  0  0
    2.5580    2.6410   20.2230 C   0  0  0  0  0  0  0  0  0  0  0  0
    3.2480    2.1220   21.3410 C   0  0  0  0  0  0  0  0  0  0  0  0
    4.3150    1.2780   21.1710 C   0  0  0  0  0  0  0  0  0  0  0  0
    4.7420    0.9080   19.8700 C   0  0  0  0  0  0  0  0  0  0  0  0
    4.8390    0.8910   22.0350 H   0  0  0  0  0  0  0  0  0  0  0  0
    2.9300    2.3980   22.3410 H   0  0  0  0  0  0  0  0  0  0  0  0
    1.7280    3.3260   20.3740 H   0  0  0  0  0  0  0  0  0  0  0  0
    2.4260    2.6820   18.0840 H   0  0  0  0  0  0  0  0  0  0  0  0
    3.9100    1.3720   16.5890 H   0  0  0  0  0  0  0  0  0  0  0  0
    6.8990   -1.0130   18.0840 H   0  0  0  0  0  0  0  0  0  0  0  0
    6.1800   -0.7030   21.5840 H   0  0  0  0  0  0  0  0  0  0  0  0
    7.3620   -1.2340   20.3870 H   0  0  0  0  0  0  0  0  0  0  0  0
    8.2870    0.6160   22.4300 N   0  0  0  0  0  0  0  0  0  0  0  0
    8.3920   -0.6790   23.0960 C   0  0  0  0  0  0  0  0  0  0  0  0
    9.5370   -1.4990   22.4780 C   0  0  0  0  0  0  0  0  0  0  0  0
   10.8020   -0.6790   22.3680 C   0  0  0  0  0  0  0  0  0  0  0  0
   12.0840   -1.2640   22.1650 C   0  0  0  0  0  0  0  0  0  0  0  0
   12.0990   -2.3840   20.7610 Cl  0  0  0  0  0  0  0  0  0  0  0  0
   13.2800    0.2100   21.8140 C   0  0  0  0  0  0  0  0  0  0  0  0
   13.0820    0.2230   22.1040 C   0  0  0  0  0  0  0  0  0  0  0  0
   11.9850    1.3890   22.1510 C   0  0  0  0  0  0  0  0  0  0  0  0
   10.7610    0.7520   22.3770 C   0  0  0  0  0  0  0  0  0  0  0  0
    9.4480    1.4540   22.7310 C   0  0  0  0  0  0  0  0  0  0  0  0
    9.4170    1.6480   23.8130 H   0  0  0  0  0  0  0  0  0  0  0  0
    9.3260    2.4030   22.2060 H   0  0  0  0  0  0  0  0  0  0  0  0
   12.2780    2.2410   22.7790 H   0  0  0  0  0  0  0  0  0  0  0  0
   14.2580    0.0020   22.5520 H   0  0  0  0  0  0  0  0  0  0  0  0
   13.5670    0.1140   20.6950 H   0  0  0  0  0  0  0  0  0  0  0  0
    9.2310   -1.8410   21.4720 H   0  0  0  0  0  0  0  0  0  0  0  0
    9.7180   -2.4130   23.0550 H   0  0  0  0  0  0  0  0  0  0  0  0
    8.5960   -0.4800   24.1570 H   0  0  0  0  0  0  0  0  0  0  0  0
    7.4430   -1.2150   23.0480 H   0  0  0  0  0  0  0  0  0  0  0  0
  1  2  2  0  0  0  0
  2  3  1  0  0  0  0
  2 22  1  0  0  0  0
  3  4  1  0  0  0  0
  3 20  1  0  0  0  0
  3 21  1  0  0  0  0
  4  5  2  0  0  0  0
  4 13  1  0  0  0  0
  5  6  1  0  0  0  0
  5 19  1  0  0  0  0
  6  7  2  0  0  0  0
  7  8  1  0  0  0  0
  7 18  1  0  0  0  0
  8  9  2  0  0  0  0
  8 13  1  0  0  0  0
  9 10  1  0  0  0  0
  9 17  1  0  0  0  0
 10 11  2  0  0  0  0
 10 16  1  0  0  0  0
 11 12  1  0  0  0  0
 11 15  1  0  0  0  0
 12 13  2  0  0  0  0
 12 14  1  0  0  0  0
 22 23  1  0  0  0  0
 22 32  1  0  0  0  0
 23 24  1  0  0  0  0
 23 40  1  0  0  0  0
 23 41  1  0  0  0  0
 24 25  1  0  0  0  0
 24 38  1  0  0  0  0
 24 39  1  0  0  0  0
 25 26  2  0  0  0  0
 25 31  1  0  0  0  0
 26 27  1  0  0  0  0
 26 28  1  0  0  0  0
 28 29  2  0  0  0  0
 28 37  1  0  0  0  0
 29 30  1  0  0  0  0
 29 36  1  0  0  0  0
 30 31  2  0  0  0  0
 30 35  1  0  0  0  0
 31 32  1  0  0  0  0
 32 33  1  0  0  0  0
 32 34  1  0  0  0  0
M  END
>  <MODEL>
       1

$$$$
