output/tmp_first_model_15_4.pdb
 OpenBabel07232601353D

 41 44  0  0  1  0  0  0  0  0999 V2000
    7.3480   -0.3050   24.4580 C   0  0  0  0  0  0  0  0  0  0  0  0
    7.7870   -1.4660   23.5510 C   0  0  1  0  0  0  0  0  0  0  0  0
    8.5190   -2.5180   24.3440 C   0  0  0  0  0  0  0  0  0  0  0  0
    9.9130   -2.5880   24.6450 C   0  0  0  0  0  0  0  0  0  0  0  0
   10.2060   -3.5770   25.5320 C   0  0  0  0  0  0  0  0  0  0  0  0
    8.7880   -4.4220   26.0290 S   0  0  0  0  0  0  0  0  0  0  0  0
    7.7850   -3.4430   25.0110 C   0  0  0  0  0  0  0  0  0  0  0  0
    6.2840   -3.4080   24.8960 C   0  0  0  0  0  0  0  0  0  0  0  0
    5.8980   -3.1820   23.4410 C   0  0  0  0  0  0  0  0  0  0  0  0
    6.6380   -2.0640   22.8590 N   0  0  0  0  0  0  0  0  0  0  0  0
    6.1800   -1.6670   21.6320 C   0  0  0  0  0  0  0  0  0  0  0  0
    5.2320   -2.2340   21.1030 O   0  0  0  0  0  0  0  0  0  0  0  0
    6.8980   -0.5150   20.9300 C   0  0  0  0  0  0  0  0  0  0  0  0
    6.1050    0.0640   19.7930 C   0  0  0  0  0  0  0  0  0  0  0  0
    6.4250   -0.2320   18.4920 C   0  0  0  0  0  0  0  0  0  0  0  0
    5.7670    0.2220   17.3940 N   0  0  0  0  0  0  0  0  0  0  0  0
    4.7440    1.0140   17.5940 C   0  0  0  0  0  0  0  0  0  0  0  0
    4.2850    1.4010   18.8830 C   0  0  0  0  0  0  0  0  0  0  0  0
    3.1650    2.2560   19.0500 C   0  0  0  0  0  0  0  0  0  0  0  0
    2.7490    2.6150   20.3020 C   0  0  0  0  0  0  0  0  0  0  0  0
    3.4330    2.1350   21.4430 C   0  0  0  0  0  0  0  0  0  0  0  0
    4.5230    1.3070   21.3020 C   0  0  0  0  0  0  0  0  0  0  0  0
    4.9800    0.9160   20.0160 C   0  0  0  0  0  0  0  0  0  0  0  0
    5.0430    0.9480   22.1850 H   0  0  0  0  0  0  0  0  0  0  0  0
    3.1010    2.4270   22.4340 H   0  0  0  0  0  0  0  0  0  0  0  0
    1.8980    3.2780   20.4270 H   0  0  0  0  0  0  0  0  0  0  0  0
    2.6660    2.6280   18.1570 H   0  0  0  0  0  0  0  0  0  0  0  0
    4.2230    1.3880   16.7120 H   0  0  0  0  0  0  0  0  0  0  0  0
    7.2720   -0.8810   18.2730 H   0  0  0  0  0  0  0  0  0  0  0  0
    7.8500   -0.9050   20.5440 H   0  0  0  0  0  0  0  0  0  0  0  0
    7.1550    0.2610   21.6610 H   0  0  0  0  0  0  0  0  0  0  0  0
    4.8330   -2.9420   23.3460 H   0  0  0  0  0  0  0  0  0  0  0  0
    6.0940   -4.0870   22.8510 H   0  0  0  0  0  0  0  0  0  0  0  0
    5.9170   -2.5580   25.4880 H   0  0  0  0  0  0  0  0  0  0  0  0
    5.7680   -4.2840   25.2960 H   0  0  0  0  0  0  0  0  0  0  0  0
   11.1640   -3.7860   25.9980 H   0  0  0  0  0  0  0  0  0  0  0  0
   10.6420   -1.8770   24.2760 H   0  0  0  0  0  0  0  0  0  0  0  0
    8.4710   -1.0910   22.7790 H   0  0  0  0  0  0  0  0  0  0  0  0
    6.8180    0.4640   23.8920 H   0  0  0  0  0  0  0  0  0  0  0  0
    8.2240    0.1440   24.9370 H   0  0  0  0  0  0  0  0  0  0  0  0
    6.6690   -0.6560   25.2410 H   0  0  0  0  0  0  0  0  0  0  0  0
  1  2  1  0  0  0  0
  1 39  1  0  0  0  0
  1 40  1  0  0  0  0
  1 41  1  0  0  0  0
  2  3  1  0  0  0  0
  2 10  1  0  0  0  0
  2 38  1  6  0  0  0
  3  4  1  0  0  0  0
  3  7  2  0  0  0  0
  4  5  2  0  0  0  0
  4 37  1  0  0  0  0
  5  6  1  0  0  0  0
  5 36  1  0  0  0  0
  6  7  1  0  0  0  0
  7  8  1  0  0  0  0
  8  9  1  0  0  0  0
  8 34  1  0  0  0  0
  8 35  1  0  0  0  0
  9 10  1  0  0  0  0
  9 32  1  0  0  0  0
  9 33  1  0  0  0  0
 10 11  1  0  0  0  0
 11 12  2  0  0  0  0
 11 13  1  0  0  0  0
 13 14  1  0  0  0  0
 13 30  1  0  0  0  0
 13 31  1  0  0  0  0
 14 15  2  0  0  0  0
 14 23  1  0  0  0  0
 15 16  1  0  0  0  0
 15 29  1  0  0  0  0
 16 17  2  0  0  0  0
 17 18  1  0  0  0  0
 17 28  1  0  0  0  0
 18 19  2  0  0  0  0
 18 23  1  0  0  0  0
 19 20  1  0  0  0  0
 19 27  1  0  0  0  0
 20 21  2  0  0  0  0
 20 26  1  0  0  0  0
 21 22  1  0  0  0  0
 21 25  1  0  0  0  0
 22 23  2  0  0  0  0
 22 24  1  0  0  0  0
M  END
>  <MODEL>
       1

$$$$
