output/tmp_first_model_7_77.pdb
 OpenBabel07222621533D

 57 60  0  0  0  0  0  0  0  0999 V2000
    2.2140   -6.2820   25.0770 C   0  0  0  0  0  0  0  0  0  0  0  0
    3.7280   -6.4220   25.3640 C   0  0  0  0  0  0  0  0  0  0  0  0
    4.2050   -7.8080   24.9040 C   0  0  0  0  0  0  0  0  0  0  0  0
    3.6870   -8.5840   25.4740 H   0  0  0  0  0  0  0  0  0  0  0  0
    5.2840   -7.9280   25.0440 H   0  0  0  0  0  0  0  0  0  0  0  0
    3.9680   -7.9500   23.8450 H   0  0  0  0  0  0  0  0  0  0  0  0
    3.8570   -6.3350   26.8400 C   0  0  0  0  0  0  0  0  0  0  0  0
    3.8640   -6.2530   27.9920 N   0  0  0  0  0  0  0  0  0  0  0  0
    4.5190   -5.2710   24.7340 C   0  0  0  0  0  0  0  0  0  0  0  0
    5.3070   -5.4340   23.5950 C   0  0  0  0  0  0  0  0  0  0  0  0
    5.9260   -4.3480   22.9950 C   0  0  0  0  0  0  0  0  0  0  0  0
    5.7890   -3.0800   23.5500 C   0  0  0  0  0  0  0  0  0  0  0  0
    6.4300   -1.9670   22.9460 N   0  0  0  0  0  0  0  0  0  0  0  0
    7.4250   -1.2190   23.7160 C   0  0  0  0  0  0  0  0  0  0  0  0
    8.8520   -1.4540   23.2540 C   0  0  0  0  0  0  0  0  0  0  0  0
    9.3380   -2.7610   23.2120 C   0  0  0  0  0  0  0  0  0  0  0  0
   10.6380   -3.0100   22.7950 C   0  0  0  0  0  0  0  0  0  0  0  0
   11.4780   -1.9760   22.4010 C   0  0  0  0  0  0  0  0  0  0  0  0
   11.0000   -0.6760   22.4750 C   0  0  0  0  0  0  0  0  0  0  0  0
   12.0610    0.6410   22.0540 Cl  0  0  0  0  0  0  0  0  0  0  0  0
    9.7000   -0.4050   22.8970 C   0  0  0  0  0  0  0  0  0  0  0  0
    9.3740    0.6310   22.9470 H   0  0  0  0  0  0  0  0  0  0  0  0
   12.4850   -2.1770   22.0470 H   0  0  0  0  0  0  0  0  0  0  0  0
   11.0070   -4.0250   22.7840 H   0  0  0  0  0  0  0  0  0  0  0  0
    8.6930   -3.5890   23.5090 H   0  0  0  0  0  0  0  0  0  0  0  0
    7.3470   -1.5620   24.7530 H   0  0  0  0  0  0  0  0  0  0  0  0
    7.1830   -0.1500   23.7220 H   0  0  0  0  0  0  0  0  0  0  0  0
    6.1210   -1.7460   21.6180 C   0  0  0  0  0  0  0  0  0  0  0  0
    5.3260   -2.4460   21.0160 O   0  0  0  0  0  0  0  0  0  0  0  0
    6.7880   -0.5610   20.9410 C   0  0  0  0  0  0  0  0  0  0  0  0
    5.9550   -0.0390   19.8230 C   0  0  0  0  0  0  0  0  0  0  0  0
    6.3750   -0.1830   18.5310 C   0  0  0  0  0  0  0  0  0  0  0  0
    5.7320    0.3070   17.4420 N   0  0  0  0  0  0  0  0  0  0  0  0
    4.6230    0.9700   17.6720 C   0  0  0  0  0  0  0  0  0  0  0  0
    4.0430    1.1490   18.9600 C   0  0  0  0  0  0  0  0  0  0  0  0
    2.8250    1.8560   19.1290 C   0  0  0  0  0  0  0  0  0  0  0  0
    2.2530    1.9760   20.3710 C   0  0  0  0  0  0  0  0  0  0  0  0
    2.8850    1.3940   21.4940 C   0  0  0  0  0  0  0  0  0  0  0  0
    4.0820    0.7320   21.3590 C   0  0  0  0  0  0  0  0  0  0  0  0
    4.7040    0.6000   20.0780 C   0  0  0  0  0  0  0  0  0  0  0  0
    4.5710    0.3190   22.2370 H   0  0  0  0  0  0  0  0  0  0  0  0
    2.4350    1.5130   22.4750 H   0  0  0  0  0  0  0  0  0  0  0  0
    1.3360    2.5420   20.4920 H   0  0  0  0  0  0  0  0  0  0  0  0
    2.3640    2.2860   18.2440 H   0  0  0  0  0  0  0  0  0  0  0  0
    4.1270    1.4090   16.8070 H   0  0  0  0  0  0  0  0  0  0  0  0
    7.3260   -0.6820   18.3320 H   0  0  0  0  0  0  0  0  0  0  0  0
    6.9630    0.2430   21.6590 H   0  0  0  0  0  0  0  0  0  0  0  0
    7.7620   -0.8970   20.5630 H   0  0  0  0  0  0  0  0  0  0  0  0
    5.0340   -2.9060   24.7040 C   0  0  0  0  0  0  0  0  0  0  0  0
    4.3950   -3.9920   25.2820 C   0  0  0  0  0  0  0  0  0  0  0  0
    3.8170   -3.8410   26.1900 H   0  0  0  0  0  0  0  0  0  0  0  0
    4.9380   -1.9100   25.1290 H   0  0  0  0  0  0  0  0  0  0  0  0
    6.5040   -4.4770   22.0850 H   0  0  0  0  0  0  0  0  0  0  0  0
    5.4510   -6.4120   23.1460 H   0  0  0  0  0  0  0  0  0  0  0  0
    2.0210   -6.3370   24.0010 H   0  0  0  0  0  0  0  0  0  0  0  0
    1.6800   -7.0970   25.5740 H   0  0  0  0  0  0  0  0  0  0  0  0
    1.8280   -5.3270   25.4490 H   0  0  0  0  0  0  0  0  0  0  0  0
  1  2  1  0  0  0  0
  1 55  1  0  0  0  0
  1 56  1  0  0  0  0
  1 57  1  0  0  0  0
  2  3  1  0  0  0  0
  2  7  1  0  0  0  0
  2  9  1  0  0  0  0
  3  4  1  0  0  0  0
  3  5  1  0  0  0  0
  3  6  1  0  0  0  0
  7  8  3  0  0  0  0
  9 10  2  0  0  0  0
  9 50  1  0  0  0  0
 10 11  1  0  0  0  0
 10 54  1  0  0  0  0
 11 12  2  0  0  0  0
 11 53  1  0  0  0  0
 12 13  1  0  0  0  0
 12 49  1  0  0  0  0
 13 14  1  0  0  0  0
 13 28  1  0  0  0  0
 14 15  1  0  0  0  0
 14 26  1  0  0  0  0
 14 27  1  0  0  0  0
 15 16  2  0  0  0  0
 15 21  1  0  0  0  0
 16 17  1  0  0  0  0
 16 25  1  0  0  0  0
 17 18  2  0  0  0  0
 17 24  1  0  0  0  0
 18 19  1  0  0  0  0
 18 23  1  0  0  0  0
 19 20  1  0  0  0  0
 19 21  2  0  0  0  0
 21 22  1  0  0  0  0
 28 29  2  0  0  0  0
 28 30  1  0  0  0  0
 30 31  1  0  0  0  0
 30 47  1  0  0  0  0
 30 48  1  0  0  0  0
 31 32  2  0  0  0  0
 31 40  1  0  0  0  0
 32 33  1  0  0  0  0
 32 46  1  0  0  0  0
 33 34  2  0  0  0  0
 34 35  1  0  0  0  0
 34 45  1  0  0  0  0
 35 36  2  0  0  0  0
 35 40  1  0  0  0  0
 36 37  1  0  0  0  0
 36 44  1  0  0  0  0
 37 38  2  0  0  0  0
 37 43  1  0  0  0  0
 38 39  1  0  0  0  0
 38 42  1  0  0  0  0
 39 40  2  0  0  0  0
 39 41  1  0  0  0  0
 49 50  2  0  0  0  0
 49 52  1  0  0  0  0
 50 51  1  0  0  0  0
M  END
>  <MODEL>
       1

$$$$
