output/tmp_first_model_12_83.pdb
 OpenBabel07232600143D

 72 77  0  0  1  0  0  0  0  0999 V2000
    9.2030    6.0380   23.5230 C   0  0  0  0  0  0  0  0  0  0  0  0
    7.9800    6.0480   22.6190 C   0  0  2  0  0  0  0  0  0  0  0  0
    7.2390    7.3760   22.7130 C   0  0  0  0  0  0  0  0  0  0  0  0
    6.0600    7.3980   21.9340 O   0  0  0  0  0  0  0  0  0  0  0  0
    5.1320    6.4540   22.4250 C   0  0  0  0  0  0  0  0  0  0  0  0
    5.6760    5.0360   22.3200 C   0  0  1  0  0  0  0  0  0  0  0  0
    5.7980    4.6650   20.8500 C   0  0  0  0  0  0  0  0  0  0  0  0
    6.1870    3.6450   20.7360 H   0  0  0  0  0  0  0  0  0  0  0  0
    6.4710    5.3820   20.3610 H   0  0  0  0  0  0  0  0  0  0  0  0
    4.8380    4.7200   20.3230 H   0  0  0  0  0  0  0  0  0  0  0  0
    7.0340    4.9190   23.0000 N   0  3  1  0  0  0  0  0  0  0  0  0
    7.6590    3.5730   22.7930 C   0  0  0  0  0  0  0  0  0  0  0  0
    8.0850    2.9410   24.1130 C   0  0  0  0  0  0  0  0  0  0  0  0
    8.7730    1.6950   23.8750 N   0  0  0  0  0  0  0  0  0  0  0  0
    8.0510    0.4450   23.7820 C   0  0  0  0  0  0  0  0  0  0  0  0
    8.4940   -0.4080   22.5610 C   0  0  2  0  0  0  0  0  0  0  0  0
    8.0430    0.2330   21.2310 C   0  0  0  0  0  0  0  0  0  0  0  0
    8.5710    1.1570   20.6330 O   0  0  0  0  0  0  0  0  0  0  0  0
    6.9060   -0.4140   20.8140 N   0  0  0  0  0  0  0  0  0  0  0  0
    6.1270    0.1100   19.7640 C   0  0  0  0  0  0  0  0  0  0  0  0
    6.4650   -0.1860   18.4690 C   0  0  0  0  0  0  0  0  0  0  0  0
    5.7880    0.2580   17.3900 N   0  0  0  0  0  0  0  0  0  0  0  0
    4.7560    1.0380   17.6070 C   0  0  0  0  0  0  0  0  0  0  0  0
    4.3040    1.4230   18.9030 C   0  0  0  0  0  0  0  0  0  0  0  0
    3.1720    2.2590   19.0850 C   0  0  0  0  0  0  0  0  0  0  0  0
    2.7620    2.6140   20.3410 C   0  0  0  0  0  0  0  0  0  0  0  0
    3.4710    2.1670   21.4720 C   0  0  0  0  0  0  0  0  0  0  0  0
    4.5710    1.3530   21.3300 C   0  0  0  0  0  0  0  0  0  0  0  0
    5.0080    0.9500   20.0320 C   0  0  0  0  0  0  0  0  0  0  0  0
    5.1050    1.0290   22.2160 H   0  0  0  0  0  0  0  0  0  0  0  0
    3.1360    2.4580   22.4630 H   0  0  0  0  0  0  0  0  0  0  0  0
    1.8900    3.2490   20.4630 H   0  0  0  0  0  0  0  0  0  0  0  0
    2.6460    2.6000   18.2020 H   0  0  0  0  0  0  0  0  0  0  0  0
    4.2100    1.3990   16.7360 H   0  0  0  0  0  0  0  0  0  0  0  0
    7.3260   -0.8250   18.2840 H   0  0  0  0  0  0  0  0  0  0  0  0
    6.4940   -1.5140   21.6580 C   0  0  0  0  0  0  0  0  0  0  0  0
    7.7390   -1.7700   22.5190 C   0  0  2  0  0  0  0  0  0  0  0  0
    7.4120   -2.4180   23.8570 C   0  0  0  0  0  0  0  0  0  0  0  0
    8.3140   -2.5570   24.4600 H   0  0  0  0  0  0  0  0  0  0  0  0
    6.7080   -1.8030   24.4300 H   0  0  0  0  0  0  0  0  0  0  0  0
    6.9500   -3.3980   23.7010 H   0  0  0  0  0  0  0  0  0  0  0  0
    8.3670   -2.4610   21.9530 H   0  0  0  0  0  0  0  0  0  0  0  0
    6.2300   -2.3840   21.0500 H   0  0  0  0  0  0  0  0  0  0  0  0
    5.6120   -1.2660   22.2710 H   0  0  0  0  0  0  0  0  0  0  0  0
   10.0020   -0.4790   22.5650 C   0  0  0  0  0  0  0  0  0  0  0  0
   10.6490   -1.4650   21.8200 C   0  0  0  0  0  0  0  0  0  0  0  0
   12.0150   -1.4010   21.6470 C   0  0  0  0  0  0  0  0  0  0  0  0
   12.7640   -2.5110   20.5450 Cl  0  0  0  0  0  0  0  0  0  0  0  0
   12.7930   -0.4320   22.2820 C   0  0  0  0  0  0  0  0  0  0  0  0
   12.1630    0.5240   23.0500 C   0  0  0  0  0  0  0  0  0  0  0  0
   10.7730    0.5410   23.1360 C   0  0  0  0  0  0  0  0  0  0  0  0
   10.1270    1.7500   23.7340 C   0  0  0  0  0  0  0  0  0  0  0  0
   10.7750    2.7480   24.0340 O   0  0  0  0  0  0  0  0  0  0  0  0
   12.7140    1.3020   23.5670 H   0  0  0  0  0  0  0  0  0  0  0  0
   13.8650   -0.4200   22.1260 H   0  0  0  0  0  0  0  0  0  0  0  0
   10.0950   -2.2750   21.3600 H   0  0  0  0  0  0  0  0  0  0  0  0
    6.9760    0.6580   23.7450 H   0  0  0  0  0  0  0  0  0  0  0  0
    8.2300   -0.1440   24.6900 H   0  0  0  0  0  0  0  0  0  0  0  0
    8.7670    3.5890   24.6680 H   0  0  0  0  0  0  0  0  0  0  0  0
    7.2010    2.7600   24.7340 H   0  0  0  0  0  0  0  0  0  0  0  0
    8.5160    3.6660   22.1140 H   0  0  0  0  0  0  0  0  0  0  0  0
    6.9510    2.8910   22.3080 H   0  0  0  0  0  0  0  0  0  0  0  0
    6.8980    5.0010   24.0270 H   0  0  0  0  0  0  0  0  0  0  0  0
    5.0100    4.3490   22.8570 H   0  0  0  0  0  0  0  0  0  0  0  0
    4.2350    6.5350   21.8000 H   0  0  0  0  0  0  0  0  0  0  0  0
    4.8520    6.7000   23.4590 H   0  0  0  0  0  0  0  0  0  0  0  0
    7.0020    7.5740   23.7740 H   0  0  0  0  0  0  0  0  0  0  0  0
    7.8820    8.1820   22.3460 H   0  0  0  0  0  0  0  0  0  0  0  0
    8.2850    5.8810   21.5800 H   0  0  0  0  0  0  0  0  0  0  0  0
    9.8300    5.1550   23.3620 H   0  0  0  0  0  0  0  0  0  0  0  0
    9.8120    6.9290   23.3530 H   0  0  0  0  0  0  0  0  0  0  0  0
    8.8700    6.0460   24.5680 H   0  0  0  0  0  0  0  0  0  0  0  0
  1  2  1  0  0  0  0
  1 70  1  0  0  0  0
  1 71  1  0  0  0  0
  1 72  1  0  0  0  0
  2  3  1  0  0  0  0
  2 11  1  0  0  0  0
  2 69  1  6  0  0  0
  3  4  1  0  0  0  0
  3 67  1  0  0  0  0
  3 68  1  0  0  0  0
  4  5  1  0  0  0  0
  5  6  1  0  0  0  0
  5 65  1  0  0  0  0
  5 66  1  0  0  0  0
  6  7  1  0  0  0  0
  6 11  1  0  0  0  0
  6 64  1  1  0  0  0
  7  8  1  0  0  0  0
  7  9  1  0  0  0  0
  7 10  1  0  0  0  0
 11 12  1  0  0  0  0
 11 63  1  1  0  0  0
 12 13  1  0  0  0  0
 12 61  1  0  0  0  0
 12 62  1  0  0  0  0
 13 14  1  0  0  0  0
 13 59  1  0  0  0  0
 13 60  1  0  0  0  0
 14 15  1  0  0  0  0
 14 52  1  0  0  0  0
 15 16  1  0  0  0  0
 15 57  1  0  0  0  0
 15 58  1  0  0  0  0
 16 17  1  6  0  0  0
 16 37  1  0  0  0  0
 16 45  1  0  0  0  0
 17 18  2  0  0  0  0
 17 19  1  0  0  0  0
 19 20  1  0  0  0  0
 19 36  1  0  0  0  0
 20 21  2  0  0  0  0
 20 29  1  0  0  0  0
 21 22  1  0  0  0  0
 21 35  1  0  0  0  0
 22 23  2  0  0  0  0
 23 24  1  0  0  0  0
 23 34  1  0  0  0  0
 24 25  2  0  0  0  0
 24 29  1  0  0  0  0
 25 26  1  0  0  0  0
 25 33  1  0  0  0  0
 26 27  2  0  0  0  0
 26 32  1  0  0  0  0
 27 28  1  0  0  0  0
 27 31  1  0  0  0  0
 28 29  2  0  0  0  0
 28 30  1  0  0  0  0
 36 37  1  0  0  0  0
 36 43  1  0  0  0  0
 36 44  1  0  0  0  0
 37 38  1  0  0  0  0
 37 42  1  6  0  0  0
 38 39  1  0  0  0  0
 38 40  1  0  0  0  0
 38 41  1  0  0  0  0
 45 46  2  0  0  0  0
 45 51  1  0  0  0  0
 46 47  1  0  0  0  0
 46 56  1  0  0  0  0
 47 48  1  0  0  0  0
 47 49  2  0  0  0  0
 49 50  1  0  0  0  0
 49 55  1  0  0  0  0
 50 51  2  0  0  0  0
 50 54  1  0  0  0  0
 51 52  1  0  0  0  0
 52 53  2  0  0  0  0
M  CHG  1  11   1
M  END
>  <MODEL>
       1

$$$$
