output/tmp_first_model_18_71.pdb
 OpenBabel07232602473D

 59 64  0  0  1  0  0  0  0  0999 V2000
    9.7570   -1.9660   21.8240 C   0  0  0  0  0  0  0  0  0  0  0  0
    8.6870   -0.9720   22.3110 C   0  0  1  0  0  0  0  0  0  0  0  0
    8.2260   -0.0670   21.1400 C   0  0  0  0  0  0  0  0  0  0  0  0
    6.8730   -0.4820   20.8430 N   0  0  0  0  0  0  0  0  0  0  0  0
    6.1060    0.0630   19.7730 C   0  0  0  0  0  0  0  0  0  0  0  0
    6.4360   -0.2170   18.4740 C   0  0  0  0  0  0  0  0  0  0  0  0
    5.7660    0.2450   17.3880 N   0  0  0  0  0  0  0  0  0  0  0  0
    4.7390    1.0290   17.5870 C   0  0  0  0  0  0  0  0  0  0  0  0
    4.2910    1.4220   18.8800 C   0  0  0  0  0  0  0  0  0  0  0  0
    3.1720    2.2840   19.0540 C   0  0  0  0  0  0  0  0  0  0  0  0
    2.7790    2.6560   20.3070 C   0  0  0  0  0  0  0  0  0  0  0  0
    3.4890    2.1930   21.4430 C   0  0  0  0  0  0  0  0  0  0  0  0
    4.5690    1.3660   21.3020 C   0  0  0  0  0  0  0  0  0  0  0  0
    4.9910    0.9390   20.0080 C   0  0  0  0  0  0  0  0  0  0  0  0
    5.1110    1.0160   22.1800 H   0  0  0  0  0  0  0  0  0  0  0  0
    3.1700    2.5020   22.4340 H   0  0  0  0  0  0  0  0  0  0  0  0
    1.9270    3.3190   20.4450 H   0  0  0  0  0  0  0  0  0  0  0  0
    2.6500    2.6470   18.1720 H   0  0  0  0  0  0  0  0  0  0  0  0
    4.2080    1.3940   16.7070 H   0  0  0  0  0  0  0  0  0  0  0  0
    7.2810   -0.8720   18.2590 H   0  0  0  0  0  0  0  0  0  0  0  0
    6.3330   -1.3540   21.7550 C   0  0  0  0  0  0  0  0  0  0  0  0
    5.2280   -1.8230   21.6910 O   0  0  0  0  0  0  0  0  0  0  0  0
    7.3750   -1.6070   22.8910 C   0  0  1  0  0  0  0  0  0  0  0  0
    7.4370   -3.1660   23.1750 C   0  0  0  0  0  0  0  0  0  0  0  0
    6.1870   -3.6200   23.7240 N   0  0  0  0  0  0  0  0  0  0  0  0
    5.6550   -4.9150   23.3450 C   0  0  0  0  0  0  0  0  0  0  0  0
    6.5010   -6.0710   23.6870 C   0  0  0  0  0  0  0  0  0  0  0  0
    6.4930   -6.0230   23.7660 N   0  0  0  0  0  0  0  0  0  0  0  0
    6.8450   -7.2470   24.5840 C   0  0  0  0  0  0  0  0  0  0  0  0
    5.4470   -7.7570   24.5480 C   0  0  0  0  0  0  0  0  0  0  0  0
    5.4470   -7.7570   24.5480 N   0  0  0  0  0  0  0  0  0  0  0  0
    3.9830   -7.0930   24.8230 C   0  0  0  0  0  0  0  0  0  0  0  0
    3.4070   -7.0740   23.9020 H   0  0  0  0  0  0  0  0  0  0  0  0
    3.8080   -6.0600   25.2540 H   0  0  0  0  0  0  0  0  0  0  0  0
    3.4680   -7.7750   25.4100 H   0  0  0  0  0  0  0  0  0  0  0  0
    5.3040   -8.5160   25.2870 H   0  0  0  0  0  0  0  0  0  0  0  0
    7.8460   -7.7730   24.1310 H   0  0  0  0  0  0  0  0  0  0  0  0
    4.6120   -5.0150   23.3590 H   0  0  0  0  0  0  0  0  0  0  0  0
    5.8550   -4.9760   22.2890 H   0  0  0  0  0  0  0  0  0  0  0  0
    5.6920   -3.0610   24.8510 C   0  0  0  0  0  0  0  0  0  0  0  0
    4.9620   -3.6770   25.6040 O   0  0  0  0  0  0  0  0  0  0  0  0
    6.0990   -1.6030   25.1170 C   0  0  0  0  0  0  0  0  0  0  0  0
    5.5990   -0.9730   26.2660 C   0  0  0  0  0  0  0  0  0  0  0  0
    5.8200    0.3700   26.4620 C   0  0  0  0  0  0  0  0  0  0  0  0
    6.5250    1.0580   25.4850 C   0  0  0  0  0  0  0  0  0  0  0  0
    6.7180    2.3800   25.6580 F   0  0  0  0  0  0  0  0  0  0  0  0
    7.0310    0.4530   24.3500 C   0  0  0  0  0  0  0  0  0  0  0  0
    6.8640   -0.9180   24.1660 C   0  0  0  0  0  0  0  0  0  0  0  0
    7.5390    1.0740   23.6220 H   0  0  0  0  0  0  0  0  0  0  0  0
    5.4460    0.8830   27.3340 H   0  0  0  0  0  0  0  0  0  0  0  0
    5.0230   -1.5570   26.9720 H   0  0  0  0  0  0  0  0  0  0  0  0
    7.6430   -3.7070   22.2580 H   0  0  0  0  0  0  0  0  0  0  0  0
    8.2920   -3.3550   23.8470 H   0  0  0  0  0  0  0  0  0  0  0  0
    8.8600   -0.2130   20.2670 H   0  0  0  0  0  0  0  0  0  0  0  0
    8.2700    0.9950   21.4070 H   0  0  0  0  0  0  0  0  0  0  0  0
    9.1660   -0.3730   23.0920 H   0  0  0  0  0  0  0  0  0  0  0  0
    9.3800   -2.6150   21.0240 H   0  0  0  0  0  0  0  0  0  0  0  0
   10.1240   -2.6010   22.6380 H   0  0  0  0  0  0  0  0  0  0  0  0
   10.6210   -1.4180   21.4250 H   0  0  0  0  0  0  0  0  0  0  0  0
  1  2  1  0  0  0  0
  1 57  1  0  0  0  0
  1 58  1  0  0  0  0
  1 59  1  0  0  0  0
  2  3  1  0  0  0  0
  2 23  1  0  0  0  0
  2 56  1  1  0  0  0
  3  4  1  0  0  0  0
  3 54  1  0  0  0  0
  3 55  1  0  0  0  0
  4  5  1  0  0  0  0
  4 21  1  0  0  0  0
  5  6  2  0  0  0  0
  5 14  1  0  0  0  0
  6  7  1  0  0  0  0
  6 20  1  0  0  0  0
  7  8  2  0  0  0  0
  8  9  1  0  0  0  0
  8 19  1  0  0  0  0
  9 10  2  0  0  0  0
  9 14  1  0  0  0  0
 10 11  1  0  0  0  0
 10 18  1  0  0  0  0
 11 12  2  0  0  0  0
 11 17  1  0  0  0  0
 12 13  1  0  0  0  0
 12 16  1  0  0  0  0
 13 14  2  0  0  0  0
 13 15  1  0  0  0  0
 21 22  2  0  0  0  0
 23 21  1  6  0  0  0
 23 24  1  0  0  0  0
 23 48  1  0  0  0  0
 24 25  1  0  0  0  0
 24 52  1  0  0  0  0
 24 53  1  0  0  0  0
 25 26  1  0  0  0  0
 25 40  1  0  0  0  0
 26 27  1  0  0  0  0
 26 38  1  0  0  0  0
 26 39  1  0  0  0  0
 27 28  2  0  0  0  0
 27 31  1  0  0  0  0
 28 29  1  0  0  0  0
 29 30  2  0  0  0  0
 29 37  1  0  0  0  0
 30 31  1  0  0  0  0
 30 36  1  0  0  0  0
 31 32  1  0  0  0  0
 32 33  1  0  0  0  0
 32 34  1  0  0  0  0
 32 35  1  0  0  0  0
 40 41  2  0  0  0  0
 40 42  1  0  0  0  0
 42 43  2  0  0  0  0
 42 48  1  0  0  0  0
 43 44  1  0  0  0  0
 43 51  1  0  0  0  0
 44 45  2  0  0  0  0
 44 50  1  0  0  0  0
 45 46  1  0  0  0  0
 45 47  1  0  0  0  0
 47 48  2  0  0  0  0
 47 49  1  0  0  0  0
M  END
>  <MODEL>
       1

$$$$
