output/tmp_first_model_16_42.pdb
 OpenBabel07232602073D

 60 65  0  0  1  0  0  0  0  0999 V2000
    6.7300    4.1390   21.2730 C   0  0  0  0  0  0  0  0  0  0  0  0
    7.0390    3.6700   22.6170 N   0  0  0  0  0  0  0  0  0  0  0  0
    8.2930    3.8610   23.1170 C   0  0  0  0  0  0  0  0  0  0  0  0
    9.0490    4.7070   22.6670 O   0  0  0  0  0  0  0  0  0  0  0  0
    8.6960    2.9620   24.2920 C   0  0  0  0  0  0  0  0  0  0  0  0
    8.9910    1.6040   23.8850 N   0  0  0  0  0  0  0  0  0  0  0  0
    7.9210    0.5940   23.9080 C   0  0  0  0  0  0  0  0  0  0  0  0
    8.0170   -0.3910   22.6770 C   0  0  2  0  0  0  0  0  0  0  0  0
    7.5040    0.4430   21.4400 C   0  0  0  0  0  0  0  0  0  0  0  0
    8.1390    1.2910   20.8400 O   0  0  0  0  0  0  0  0  0  0  0  0
    6.2160    0.0840   21.1490 N   0  0  0  0  0  0  0  0  0  0  0  0
    5.5650    0.5470   19.9810 C   0  0  0  0  0  0  0  0  0  0  0  0
    6.0540    0.2090   18.7420 C   0  0  0  0  0  0  0  0  0  0  0  0
    5.4420    0.5260   17.5780 N   0  0  0  0  0  0  0  0  0  0  0  0
    4.3280    1.2070   17.6410 C   0  0  0  0  0  0  0  0  0  0  0  0
    3.7240    1.6430   18.8530 C   0  0  0  0  0  0  0  0  0  0  0  0
    2.5170    2.3910   18.8670 C   0  0  0  0  0  0  0  0  0  0  0  0
    1.9790    2.8160   20.0480 C   0  0  0  0  0  0  0  0  0  0  0  0
    2.6260    2.5250   21.2690 C   0  0  0  0  0  0  0  0  0  0  0  0
    3.7990    1.8050   21.2820 C   0  0  0  0  0  0  0  0  0  0  0  0
    4.3670    1.3230   20.0720 C   0  0  0  0  0  0  0  0  0  0  0  0
    4.3020    1.6120   22.2260 H   0  0  0  0  0  0  0  0  0  0  0  0
    2.1980    2.8760   22.2010 H   0  0  0  0  0  0  0  0  0  0  0  0
    1.0550    3.3890   20.0570 H   0  0  0  0  0  0  0  0  0  0  0  0
    2.0440    2.6180   17.9170 H   0  0  0  0  0  0  0  0  0  0  0  0
    3.8460    1.4530   16.6960 H   0  0  0  0  0  0  0  0  0  0  0  0
    6.9720   -0.3670   18.6500 H   0  0  0  0  0  0  0  0  0  0  0  0
    5.6880   -0.9540   22.0030 C   0  0  0  0  0  0  0  0  0  0  0  0
    6.9270   -1.5160   22.6890 C   0  0  2  0  0  0  0  0  0  0  0  0
    6.5360   -2.2800   23.9580 C   0  0  0  0  0  0  0  0  0  0  0  0
    5.9790   -3.5890   23.4770 C   0  0  0  0  0  0  0  0  0  0  0  0
    4.6990   -3.9200   23.4290 N   0  0  0  0  0  0  0  0  0  0  0  0
    4.6690   -5.0910   22.7940 N   0  0  0  0  0  0  0  0  0  0  0  0
    5.8860   -5.4470   22.4830 N   0  5  0  0  0  0  0  0  0  0  0  0
    6.7370   -4.5160   22.8990 N   0  0  0  0  0  0  0  0  0  0  0  0
    7.3700   -2.4840   24.6330 H   0  0  0  0  0  0  0  0  0  0  0  0
    5.7710   -1.7490   24.5290 H   0  0  0  0  0  0  0  0  0  0  0  0
    7.3760   -2.2580   22.0160 H   0  0  0  0  0  0  0  0  0  0  0  0
    4.9690   -0.5480   22.7320 H   0  0  0  0  0  0  0  0  0  0  0  0
    5.1720   -1.7290   21.4290 H   0  0  0  0  0  0  0  0  0  0  0  0
    9.4470   -0.8350   22.5580 C   0  0  0  0  0  0  0  0  0  0  0  0
   10.2690   -2.2000   21.9980 C   0  0  0  0  0  0  0  0  0  0  0  0
   11.7520   -1.8400   21.9890 C   0  0  0  0  0  0  0  0  0  0  0  0
   13.0430   -3.3040   19.8380 Cl  0  0  0  0  0  0  0  0  0  0  0  0
   11.6180   -2.0940   22.1950 C   0  0  0  0  0  0  0  0  0  0  0  0
   11.9380   -0.6760   22.7050 C   0  0  0  0  0  0  0  0  0  0  0  0
   10.5080    0.0180   22.9360 C   0  0  0  0  0  0  0  0  0  0  0  0
   10.3080    1.3260   23.5300 C   0  0  0  0  0  0  0  0  0  0  0  0
   11.2130    2.1320   23.6960 O   0  0  0  0  0  0  0  0  0  0  0  0
   12.6590    0.0350   22.3940 H   0  0  0  0  0  0  0  0  0  0  0  0
   12.6480   -2.0900   19.7960 H   0  0  0  0  0  0  0  0  0  0  0  0
    9.8300   -2.9880   22.5550 H   0  0  0  0  0  0  0  0  0  0  0  0
    6.9660    1.1130   23.8760 H   0  0  0  0  0  0  0  0  0  0  0  0
    7.9650    0.0160   24.8430 H   0  0  0  0  0  0  0  0  0  0  0  0
    7.9170    2.9430   25.0620 H   0  0  0  0  0  0  0  0  0  0  0  0
    9.6130    3.3780   24.7170 H   0  0  0  0  0  0  0  0  0  0  0  0
    6.4760    2.9110   22.9660 H   0  0  0  0  0  0  0  0  0  0  0  0
    5.6910    3.8810   21.0430 H   0  0  0  0  0  0  0  0  0  0  0  0
    6.8650    5.2220   21.2080 H   0  0  0  0  0  0  0  0  0  0  0  0
    7.3900    3.6400   20.5550 H   0  0  0  0  0  0  0  0  0  0  0  0
  1  2  1  0  0  0  0
  1 58  1  0  0  0  0
  1 59  1  0  0  0  0
  1 60  1  0  0  0  0
  2  3  1  0  0  0  0
  2 57  1  0  0  0  0
  3  4  2  0  0  0  0
  3  5  1  0  0  0  0
  5  6  1  0  0  0  0
  5 55  1  0  0  0  0
  5 56  1  0  0  0  0
  6  7  1  0  0  0  0
  6 48  1  0  0  0  0
  7  8  1  0  0  0  0
  7 53  1  0  0  0  0
  7 54  1  0  0  0  0
  8  9  1  6  0  0  0
  8 29  1  0  0  0  0
  8 41  1  0  0  0  0
  9 10  2  0  0  0  0
  9 11  1  0  0  0  0
 11 12  1  0  0  0  0
 11 28  1  0  0  0  0
 12 13  2  0  0  0  0
 12 21  1  0  0  0  0
 13 14  1  0  0  0  0
 13 27  1  0  0  0  0
 14 15  2  0  0  0  0
 15 16  1  0  0  0  0
 15 26  1  0  0  0  0
 16 17  2  0  0  0  0
 16 21  1  0  0  0  0
 17 18  1  0  0  0  0
 17 25  1  0  0  0  0
 18 19  2  0  0  0  0
 18 24  1  0  0  0  0
 19 20  1  0  0  0  0
 19 23  1  0  0  0  0
 20 21  2  0  0  0  0
 20 22  1  0  0  0  0
 28 29  1  0  0  0  0
 28 39  1  0  0  0  0
 28 40  1  0  0  0  0
 29 30  1  0  0  0  0
 29 38  1  6  0  0  0
 30 31  1  0  0  0  0
 30 36  1  0  0  0  0
 30 37  1  0  0  0  0
 31 32  1  0  0  0  0
 31 35  2  0  0  0  0
 32 33  2  0  0  0  0
 33 34  1  0  0  0  0
 34 35  1  0  0  0  0
 41 42  2  0  0  0  0
 41 47  1  0  0  0  0
 42 43  1  0  0  0  0
 42 52  1  0  0  0  0
 43 44  1  0  0  0  0
 43 45  2  0  0  0  0
 45 46  1  0  0  0  0
 45 51  1  0  0  0  0
 46 47  2  0  0  0  0
 46 50  1  0  0  0  0
 47 48  1  0  0  0  0
 48 49  2  0  0  0  0
M  CHG  1  34  -1
M  END
>  <MODEL>
       1

$$$$
