output/tmp_first_model_9_46.pdb
 OpenBabel07222623023D

 64 68  0  0  1  0  0  0  0  0999 V2000
   12.0960    0.1500   24.2020 C   0  0  0  0  0  0  0  0  0  0  0  0
   11.8550   -1.2640   23.6780 C   0  0  0  0  0  0  0  0  0  0  0  0
   11.1930   -1.2020   22.0000 S   0  0  0  0  0  0  0  0  0  0  0  0
   11.0450    0.2070   21.6580 O   0  0  0  0  0  0  0  0  0  0  0  0
   11.9010   -2.1270   21.1370 O   0  0  0  0  0  0  0  0  0  0  0  0
    9.6650   -1.8780   22.1740 N   0  0  0  0  0  0  0  0  0  0  0  0
    8.5590   -0.9320   22.3800 C   0  0  1  0  0  0  0  0  0  0  0  0
    8.1840   -0.1120   21.1260 C   0  0  0  0  0  0  0  0  0  0  0  0
    6.8290   -0.5040   20.8390 N   0  0  0  0  0  0  0  0  0  0  0  0
    6.0930    0.0530   19.7720 C   0  0  0  0  0  0  0  0  0  0  0  0
    6.4620   -0.2090   18.4770 C   0  0  0  0  0  0  0  0  0  0  0  0
    5.8090    0.2530   17.3830 N   0  0  0  0  0  0  0  0  0  0  0  0
    4.7670    1.0220   17.5940 C   0  0  0  0  0  0  0  0  0  0  0  0
    4.3050    1.4070   18.8850 C   0  0  0  0  0  0  0  0  0  0  0  0
    3.1890    2.2700   19.0430 C   0  0  0  0  0  0  0  0  0  0  0  0
    2.7910    2.6620   20.2900 C   0  0  0  0  0  0  0  0  0  0  0  0
    3.4940    2.2190   21.4360 C   0  0  0  0  0  0  0  0  0  0  0  0
    4.5740    1.3810   21.3150 C   0  0  0  0  0  0  0  0  0  0  0  0
    4.9910    0.9310   20.0240 C   0  0  0  0  0  0  0  0  0  0  0  0
    5.1140    1.0640   22.2100 H   0  0  0  0  0  0  0  0  0  0  0  0
    3.1670    2.5460   22.4190 H   0  0  0  0  0  0  0  0  0  0  0  0
    1.9390    3.3260   20.4100 H   0  0  0  0  0  0  0  0  0  0  0  0
    2.6800    2.6200   18.1490 H   0  0  0  0  0  0  0  0  0  0  0  0
    4.2330    1.3900   16.7160 H   0  0  0  0  0  0  0  0  0  0  0  0
    7.3220   -0.8490   18.2840 H   0  0  0  0  0  0  0  0  0  0  0  0
    6.2810   -1.4070   21.7170 C   0  0  0  0  0  0  0  0  0  0  0  0
    5.1880   -1.9170   21.5780 O   0  0  0  0  0  0  0  0  0  0  0  0
    7.2690   -1.6280   22.8790 C   0  0  1  0  0  0  0  0  0  0  0  0
    7.4890   -3.1450   23.1220 C   0  0  0  0  0  0  0  0  0  0  0  0
    6.4080   -3.7850   23.8600 N   0  0  0  0  0  0  0  0  0  0  0  0
    6.0400   -5.1540   23.5070 C   0  0  0  0  0  0  0  0  0  0  0  0
    4.7550   -5.1440   22.6690 C   0  0  0  0  0  0  0  0  0  0  0  0
    4.7850   -5.1810   21.4480 O   0  0  0  0  0  0  0  0  0  0  0  0
    3.6010   -5.0250   23.3830 N   0  0  0  0  0  0  0  0  0  0  0  0
    2.4090   -4.5620   22.6920 C   0  0  0  0  0  0  0  0  0  0  0  0
    2.6810   -3.7930   21.9610 H   0  0  0  0  0  0  0  0  0  0  0  0
    1.6970   -4.1510   23.4160 H   0  0  0  0  0  0  0  0  0  0  0  0
    1.9150   -5.3820   22.1630 H   0  0  0  0  0  0  0  0  0  0  0  0
    3.7170   -4.7630   24.3560 H   0  0  0  0  0  0  0  0  0  0  0  0
    5.9440   -5.7610   24.4120 H   0  0  0  0  0  0  0  0  0  0  0  0
    6.8350   -5.5740   22.8910 H   0  0  0  0  0  0  0  0  0  0  0  0
    5.7250   -3.1640   24.8580 C   0  0  0  0  0  0  0  0  0  0  0  0
    4.8760   -3.7550   25.5310 O   0  0  0  0  0  0  0  0  0  0  0  0
    6.0220   -1.7130   25.0840 C   0  0  0  0  0  0  0  0  0  0  0  0
    5.5450   -1.1100   26.2500 C   0  0  0  0  0  0  0  0  0  0  0  0
    5.7460    0.2360   26.4880 C   0  0  0  0  0  0  0  0  0  0  0  0
    6.4120    0.9920   25.5250 C   0  0  0  0  0  0  0  0  0  0  0  0
    6.6710    2.6930   25.7980 Cl  0  0  0  0  0  0  0  0  0  0  0  0
    6.8920    0.4120   24.3630 C   0  0  0  0  0  0  0  0  0  0  0  0
    6.7330   -0.9680   24.1420 C   0  0  0  0  0  0  0  0  0  0  0  0
    7.4000    1.0560   23.6470 H   0  0  0  0  0  0  0  0  0  0  0  0
    5.3880    0.7070   27.3980 H   0  0  0  0  0  0  0  0  0  0  0  0
    5.0210   -1.7240   26.9730 H   0  0  0  0  0  0  0  0  0  0  0  0
    7.5400   -3.6370   22.1460 H   0  0  0  0  0  0  0  0  0  0  0  0
    8.4390   -3.2870   23.6430 H   0  0  0  0  0  0  0  0  0  0  0  0
    8.8460   -0.3410   20.2920 H   0  0  0  0  0  0  0  0  0  0  0  0
    8.2520    0.9680   21.3140 H   0  0  0  0  0  0  0  0  0  0  0  0
    8.9290   -0.2600   23.1530 H   0  0  0  0  0  0  0  0  0  0  0  0
    9.5180   -2.5510   21.4210 H   0  0  0  0  0  0  0  0  0  0  0  0
   11.1060   -1.8100   24.2670 H   0  0  0  0  0  0  0  0  0  0  0  0
   12.7820   -1.8520   23.6300 H   0  0  0  0  0  0  0  0  0  0  0  0
   12.8380    0.6750   23.5930 H   0  0  0  0  0  0  0  0  0  0  0  0
   12.4540    0.1020   25.2320 H   0  0  0  0  0  0  0  0  0  0  0  0
   11.1750    0.7440   24.1790 H   0  0  0  0  0  0  0  0  0  0  0  0
  1  2  1  0  0  0  0
  1 62  1  0  0  0  0
  1 63  1  0  0  0  0
  1 64  1  0  0  0  0
  2  3  1  0  0  0  0
  2 60  1  0  0  0  0
  2 61  1  0  0  0  0
  3  4  2  0  0  0  0
  3  5  2  0  0  0  0
  3  6  1  0  0  0  0
  6  7  1  0  0  0  0
  6 59  1  0  0  0  0
  7  8  1  0  0  0  0
  7 28  1  0  0  0  0
  7 58  1  1  0  0  0
  8  9  1  0  0  0  0
  8 56  1  0  0  0  0
  8 57  1  0  0  0  0
  9 10  1  0  0  0  0
  9 26  1  0  0  0  0
 10 11  2  0  0  0  0
 10 19  1  0  0  0  0
 11 12  1  0  0  0  0
 11 25  1  0  0  0  0
 12 13  2  0  0  0  0
 13 14  1  0  0  0  0
 13 24  1  0  0  0  0
 14 15  2  0  0  0  0
 14 19  1  0  0  0  0
 15 16  1  0  0  0  0
 15 23  1  0  0  0  0
 16 17  2  0  0  0  0
 16 22  1  0  0  0  0
 17 18  1  0  0  0  0
 17 21  1  0  0  0  0
 18 19  2  0  0  0  0
 18 20  1  0  0  0  0
 26 27  2  0  0  0  0
 28 26  1  6  0  0  0
 28 29  1  0  0  0  0
 28 50  1  0  0  0  0
 29 30  1  0  0  0  0
 29 54  1  0  0  0  0
 29 55  1  0  0  0  0
 30 31  1  0  0  0  0
 30 42  1  0  0  0  0
 31 32  1  0  0  0  0
 31 40  1  0  0  0  0
 31 41  1  0  0  0  0
 32 33  2  0  0  0  0
 32 34  1  0  0  0  0
 34 35  1  0  0  0  0
 34 39  1  0  0  0  0
 35 36  1  0  0  0  0
 35 37  1  0  0  0  0
 35 38  1  0  0  0  0
 42 43  2  0  0  0  0
 42 44  1  0  0  0  0
 44 45  2  0  0  0  0
 44 50  1  0  0  0  0
 45 46  1  0  0  0  0
 45 53  1  0  0  0  0
 46 47  2  0  0  0  0
 46 52  1  0  0  0  0
 47 48  1  0  0  0  0
 47 49  1  0  0  0  0
 49 50  2  0  0  0  0
 49 51  1  0  0  0  0
M  END
>  <MODEL>
       1

$$$$
