output/tmp_first_model_15_67.pdb
 OpenBabel07232601353D

 69 74  0  0  1  0  0  0  0  0999 V2000
    6.6240    4.3730   21.3950 C   0  0  0  0  0  0  0  0  0  0  0  0
    7.0370    3.3630   22.3750 N   0  3  0  0  0  0  0  0  0  0  0  0
    8.0950    3.8070   23.3100 C   0  0  0  0  0  0  0  0  0  0  0  0
    8.3690    2.7670   24.3970 C   0  0  0  0  0  0  0  0  0  0  0  0
    8.9920    1.5600   23.8730 N   0  0  0  0  0  0  0  0  0  0  0  0
    8.2400    0.3230   23.7770 C   0  0  0  0  0  0  0  0  0  0  0  0
    8.5680   -0.4450   22.4770 C   0  0  2  0  0  0  0  0  0  0  0  0
    7.9590    0.3180   21.2890 C   0  0  0  0  0  0  0  0  0  0  0  0
    8.2380    1.4590   20.9300 O   0  0  0  0  0  0  0  0  0  0  0  0
    6.9340   -0.4100   20.7670 N   0  0  0  0  0  0  0  0  0  0  0  0
    6.1370    0.1190   19.7220 C   0  0  0  0  0  0  0  0  0  0  0  0
    6.4590   -0.1850   18.4260 C   0  0  0  0  0  0  0  0  0  0  0  0
    5.7590    0.2500   17.3560 N   0  0  0  0  0  0  0  0  0  0  0  0
    4.7310    1.0280   17.5870 C   0  0  0  0  0  0  0  0  0  0  0  0
    4.3080    1.4350   18.8860 C   0  0  0  0  0  0  0  0  0  0  0  0
    3.1950    2.2950   19.0850 C   0  0  0  0  0  0  0  0  0  0  0  0
    2.8220    2.6720   20.3450 C   0  0  0  0  0  0  0  0  0  0  0  0
    3.5320    2.2050   21.4720 C   0  0  0  0  0  0  0  0  0  0  0  0
    4.6140    1.3690   21.3050 C   0  0  0  0  0  0  0  0  0  0  0  0
    5.0300    0.9660   20.0040 C   0  0  0  0  0  0  0  0  0  0  0  0
    5.1410    1.0000   22.1800 H   0  0  0  0  0  0  0  0  0  0  0  0
    3.2220    2.5090   22.4680 H   0  0  0  0  0  0  0  0  0  0  0  0
    1.9760    3.3380   20.4850 H   0  0  0  0  0  0  0  0  0  0  0  0
    2.6630    2.6520   18.2070 H   0  0  0  0  0  0  0  0  0  0  0  0
    4.1710    1.3780   16.7200 H   0  0  0  0  0  0  0  0  0  0  0  0
    7.3260   -0.8110   18.2270 H   0  0  0  0  0  0  0  0  0  0  0  0
    6.5250   -1.5130   21.6140 C   0  0  0  0  0  0  0  0  0  0  0  0
    7.8160   -1.7980   22.3870 C   0  0  2  0  0  0  0  0  0  0  0  0
    7.5680   -2.5510   23.6850 C   0  0  0  0  0  0  0  0  0  0  0  0
    6.9570   -3.7880   23.3910 O   0  0  0  0  0  0  0  0  0  0  0  0
    7.8940   -4.8180   23.2470 C   0  0  0  0  0  0  0  0  0  0  0  0
    7.2180   -6.0440   22.6930 C   0  0  0  0  0  0  0  0  0  0  0  0
    5.9050   -6.1720   23.0530 F   0  0  0  0  0  0  0  0  0  0  0  0
    7.9870   -7.3090   22.5720 C   0  0  0  0  0  0  0  0  0  0  0  0
    7.5290   -6.5520   21.3340 C   0  0  0  0  0  0  0  0  0  0  0  0
    6.6940   -6.9800   20.7920 H   0  0  0  0  0  0  0  0  0  0  0  0
    8.2070   -5.9780   20.7150 H   0  0  0  0  0  0  0  0  0  0  0  0
    7.4250   -8.2060   22.7970 H   0  0  0  0  0  0  0  0  0  0  0  0
    9.0300   -7.3390   22.8880 H   0  0  0  0  0  0  0  0  0  0  0  0
    8.3790   -5.0010   24.2170 H   0  0  0  0  0  0  0  0  0  0  0  0
    8.7230   -4.5340   22.5790 H   0  0  0  0  0  0  0  0  0  0  0  0
    6.8750   -1.9840   24.3240 H   0  0  0  0  0  0  0  0  0  0  0  0
    8.5110   -2.6940   24.2440 H   0  0  0  0  0  0  0  0  0  0  0  0
    8.4010   -2.4460   21.7340 H   0  0  0  0  0  0  0  0  0  0  0  0
    6.1890   -2.3550   21.0050 H   0  0  0  0  0  0  0  0  0  0  0  0
    5.7040   -1.2330   22.2940 H   0  0  0  0  0  0  0  0  0  0  0  0
   10.0690   -0.5500   22.3420 C   0  0  0  0  0  0  0  0  0  0  0  0
   10.6290   -1.5070   21.4890 C   0  0  0  0  0  0  0  0  0  0  0  0
   11.9880   -1.5240   21.2610 C   0  0  0  0  0  0  0  0  0  0  0  0
   12.5740   -2.5790   20.0030 Cl  0  0  0  0  0  0  0  0  0  0  0  0
   12.8340   -0.6410   21.9310 C   0  0  0  0  0  0  0  0  0  0  0  0
   12.2950    0.3070   22.7760 C   0  0  0  0  0  0  0  0  0  0  0  0
   10.9120    0.3860   22.9510 C   0  0  0  0  0  0  0  0  0  0  0  0
   10.3460    1.5750   23.6730 C   0  0  0  0  0  0  0  0  0  0  0  0
   11.0610    2.5040   24.0380 O   0  0  0  0  0  0  0  0  0  0  0  0
   12.9460    1.0280   23.2570 H   0  0  0  0  0  0  0  0  0  0  0  0
   13.9060   -0.6660   21.7790 H   0  0  0  0  0  0  0  0  0  0  0  0
   10.0080   -2.2020   20.9330 H   0  0  0  0  0  0  0  0  0  0  0  0
    8.4770   -0.3290   24.6310 H   0  0  0  0  0  0  0  0  0  0  0  0
    7.1680    0.5550   23.7920 H   0  0  0  0  0  0  0  0  0  0  0  0
    9.0320    3.1890   25.1570 H   0  0  0  0  0  0  0  0  0  0  0  0
    7.4300    2.4770   24.8840 H   0  0  0  0  0  0  0  0  0  0  0  0
    9.0200    3.9950   22.7540 H   0  0  0  0  0  0  0  0  0  0  0  0
    7.7970    4.7510   23.7780 H   0  0  0  0  0  0  0  0  0  0  0  0
    7.3810    2.5340   21.8550 H   0  0  0  0  0  0  0  0  0  0  0  0
    6.1970    3.0810   22.9070 H   0  0  0  0  0  0  0  0  0  0  0  0
    5.7160    4.0380   20.8860 H   0  0  0  0  0  0  0  0  0  0  0  0
    7.4100    4.5230   20.6510 H   0  0  0  0  0  0  0  0  0  0  0  0
    6.4270    5.3330   21.8810 H   0  0  0  0  0  0  0  0  0  0  0  0
  1  2  1  0  0  0  0
  1 67  1  0  0  0  0
  1 68  1  0  0  0  0
  1 69  1  0  0  0  0
  2  3  1  0  0  0  0
  2 65  1  0  0  0  0
  2 66  1  0  0  0  0
  3  4  1  0  0  0  0
  3 63  1  0  0  0  0
  3 64  1  0  0  0  0
  4  5  1  0  0  0  0
  4 61  1  0  0  0  0
  4 62  1  0  0  0  0
  5  6  1  0  0  0  0
  5 54  1  0  0  0  0
  6  7  1  0  0  0  0
  6 59  1  0  0  0  0
  6 60  1  0  0  0  0
  7  8  1  6  0  0  0
  7 28  1  0  0  0  0
  7 47  1  0  0  0  0
  8  9  2  0  0  0  0
  8 10  1  0  0  0  0
 10 11  1  0  0  0  0
 10 27  1  0  0  0  0
 11 12  2  0  0  0  0
 11 20  1  0  0  0  0
 12 13  1  0  0  0  0
 12 26  1  0  0  0  0
 13 14  2  0  0  0  0
 14 15  1  0  0  0  0
 14 25  1  0  0  0  0
 15 16  2  0  0  0  0
 15 20  1  0  0  0  0
 16 17  1  0  0  0  0
 16 24  1  0  0  0  0
 17 18  2  0  0  0  0
 17 23  1  0  0  0  0
 18 19  1  0  0  0  0
 18 22  1  0  0  0  0
 19 20  2  0  0  0  0
 19 21  1  0  0  0  0
 27 28  1  0  0  0  0
 27 45  1  0  0  0  0
 27 46  1  0  0  0  0
 28 29  1  0  0  0  0
 28 44  1  6  0  0  0
 29 30  1  0  0  0  0
 29 42  1  0  0  0  0
 29 43  1  0  0  0  0
 30 31  1  0  0  0  0
 31 32  1  0  0  0  0
 31 40  1  0  0  0  0
 31 41  1  0  0  0  0
 32 33  1  0  0  0  0
 32 34  1  0  0  0  0
 32 35  1  0  0  0  0
 34 35  1  0  0  0  0
 34 38  1  0  0  0  0
 34 39  1  0  0  0  0
 35 36  1  0  0  0  0
 35 37  1  0  0  0  0
 47 48  2  0  0  0  0
 47 53  1  0  0  0  0
 48 49  1  0  0  0  0
 48 58  1  0  0  0  0
 49 50  1  0  0  0  0
 49 51  2  0  0  0  0
 51 52  1  0  0  0  0
 51 57  1  0  0  0  0
 52 53  2  0  0  0  0
 52 56  1  0  0  0  0
 53 54  1  0  0  0  0
 54 55  2  0  0  0  0
M  CHG  1   2   1
M  END
>  <MODEL>
       1

$$$$
