output/tmp_first_model_16_92.pdb
 OpenBabel07232602073D

 47 50  0  0  1  0  0  0  0  0999 V2000
    8.1610    1.5370   20.6480 O   0  0  0  0  0  0  0  0  0  0  0  0
    7.9390    0.5260   21.2830 C   0  0  0  0  0  0  0  0  0  0  0  0
    6.8570   -0.4760   20.8430 C   0  0  0  0  0  0  0  0  0  0  0  0
    6.0500    0.0760   19.7170 C   0  0  0  0  0  0  0  0  0  0  0  0
    6.3970   -0.1820   18.4170 C   0  0  0  0  0  0  0  0  0  0  0  0
    5.7400    0.2920   17.3300 N   0  0  0  0  0  0  0  0  0  0  0  0
    4.7080    1.0660   17.5530 C   0  0  0  0  0  0  0  0  0  0  0  0
    4.2570    1.4450   18.8470 C   0  0  0  0  0  0  0  0  0  0  0  0
    3.1490    2.3060   19.0400 C   0  0  0  0  0  0  0  0  0  0  0  0
    2.7570    2.6630   20.3000 C   0  0  0  0  0  0  0  0  0  0  0  0
    3.4620    2.1840   21.4270 C   0  0  0  0  0  0  0  0  0  0  0  0
    4.5430    1.3510   21.2710 C   0  0  0  0  0  0  0  0  0  0  0  0
    4.9570    0.9520   19.9700 C   0  0  0  0  0  0  0  0  0  0  0  0
    5.0880    1.0070   22.1480 H   0  0  0  0  0  0  0  0  0  0  0  0
    3.1460    2.4750   22.4250 H   0  0  0  0  0  0  0  0  0  0  0  0
    1.9050    3.3190   20.4440 H   0  0  0  0  0  0  0  0  0  0  0  0
    2.6250    2.6720   18.1630 H   0  0  0  0  0  0  0  0  0  0  0  0
    4.1750    1.4370   16.6780 H   0  0  0  0  0  0  0  0  0  0  0  0
    7.2630   -0.8100   18.2020 H   0  0  0  0  0  0  0  0  0  0  0  0
    7.3660   -1.3940   20.5150 H   0  0  0  0  0  0  0  0  0  0  0  0
    6.2120   -0.7640   21.6800 H   0  0  0  0  0  0  0  0  0  0  0  0
    8.7260    0.2280   22.4070 N   0  0  0  0  0  0  0  0  0  0  0  0
    9.9720    0.9280   22.4180 C   0  0  0  0  0  0  0  0  0  0  0  0
   10.3300    1.8480   23.3360 C   0  0  0  0  0  0  0  0  0  0  0  0
    9.8030    1.7900   24.7080 C   0  0  0  0  0  0  0  0  0  0  0  0
    9.1980    0.6740   25.1200 C   0  0  0  0  0  0  0  0  0  0  0  0
   10.0640   -0.9890   24.4710 C   0  0  0  0  0  0  0  0  0  0  0  0
    9.8750   -1.0240   24.7050 C   0  0  0  0  0  0  0  0  0  0  0  0
    8.3760   -0.8780   23.2990 C   0  0  1  0  0  0  0  0  0  0  0  0
    7.1400   -0.7090   24.1240 C   0  0  0  0  0  0  0  0  0  0  0  0
    6.4860    0.5160   24.3050 C   0  0  0  0  0  0  0  0  0  0  0  0
    5.3190    0.6250   25.0640 C   0  0  0  0  0  0  0  0  0  0  0  0
    4.7310   -0.5190   25.5970 C   0  0  0  0  0  0  0  0  0  0  0  0
    5.3130   -1.7580   25.3460 C   0  0  0  0  0  0  0  0  0  0  0  0
    6.5040   -1.8440   24.6290 C   0  0  0  0  0  0  0  0  0  0  0  0
    6.9420   -2.8260   24.4610 H   0  0  0  0  0  0  0  0  0  0  0  0
    4.8510   -2.6670   25.7220 H   0  0  0  0  0  0  0  0  0  0  0  0
    3.8370   -0.4430   26.2130 H   0  0  0  0  0  0  0  0  0  0  0  0
    4.8850    1.6030   25.2640 H   0  0  0  0  0  0  0  0  0  0  0  0
    6.9250    1.3970   23.8500 H   0  0  0  0  0  0  0  0  0  0  0  0
    8.1830   -1.7450   22.6360 H   0  0  0  0  0  0  0  0  0  0  0  0
    9.9520   -2.1350   24.1700 H   0  0  0  0  0  0  0  0  0  0  0  0
   11.0090   -0.9170   25.1930 H   0  0  0  0  0  0  0  0  0  0  0  0
    8.3310    0.6690   25.7880 H   0  0  0  0  0  0  0  0  0  0  0  0
    9.8510    2.6820   25.3340 H   0  0  0  0  0  0  0  0  0  0  0  0
   11.0110    2.6540   23.0770 H   0  0  0  0  0  0  0  0  0  0  0  0
   10.5980    0.7200   21.5540 H   0  0  0  0  0  0  0  0  0  0  0  0
  1  2  2  0  0  0  0
  2  3  1  0  0  0  0
  2 22  1  0  0  0  0
  3  4  1  0  0  0  0
  3 20  1  0  0  0  0
  3 21  1  0  0  0  0
  4  5  2  0  0  0  0
  4 13  1  0  0  0  0
  5  6  1  0  0  0  0
  5 19  1  0  0  0  0
  6  7  2  0  0  0  0
  7  8  1  0  0  0  0
  7 18  1  0  0  0  0
  8  9  2  0  0  0  0
  8 13  1  0  0  0  0
  9 10  1  0  0  0  0
  9 17  1  0  0  0  0
 10 11  2  0  0  0  0
 10 16  1  0  0  0  0
 11 12  1  0  0  0  0
 11 15  1  0  0  0  0
 12 13  2  0  0  0  0
 12 14  1  0  0  0  0
 22 23  1  0  0  0  0
 22 29  1  0  0  0  0
 23 24  2  0  0  0  0
 23 47  1  0  0  0  0
 24 25  1  0  0  0  0
 24 46  1  0  0  0  0
 25 26  2  0  0  0  0
 25 45  1  0  0  0  0
 26 27  1  0  0  0  0
 26 44  1  0  0  0  0
 27 28  2  3  0  0  0
 27 43  1  0  0  0  0
 28 29  1  0  0  0  0
 28 42  1  0  0  0  0
 29 30  1  0  0  0  0
 29 41  1  6  0  0  0
 30 31  2  0  0  0  0
 30 35  1  0  0  0  0
 31 32  1  0  0  0  0
 31 40  1  0  0  0  0
 32 33  2  0  0  0  0
 32 39  1  0  0  0  0
 33 34  1  0  0  0  0
 33 38  1  0  0  0  0
 34 35  2  0  0  0  0
 34 37  1  0  0  0  0
 35 36  1  0  0  0  0
M  END
>  <MODEL>
       1

$$$$
