output/tmp_first_model_5_95.pdb
 OpenBabel07222620423D

 67 71  0  0  1  0  0  0  0  0999 V2000
    7.0990    3.7120   21.1510 C   0  0  0  0  0  0  0  0  0  0  0  0
    7.4950    3.2170   22.4570 N   0  0  0  0  0  0  0  0  0  0  0  0
    8.7650    3.4180   22.9220 C   0  0  0  0  0  0  0  0  0  0  0  0
    9.4770    4.3210   22.5240 O   0  0  0  0  0  0  0  0  0  0  0  0
    9.2140    2.4390   24.0200 C   0  0  0  0  0  0  0  0  0  0  0  0
    9.4330    1.0870   23.5450 N   0  0  0  0  0  0  0  0  0  0  0  0
    8.3000    0.1370   23.5650 C   0  0  0  0  0  0  0  0  0  0  0  0
    8.3670   -0.8780   22.3390 C   0  0  2  0  0  0  0  0  0  0  0  0
    7.8720   -0.0110   21.1200 C   0  0  0  0  0  0  0  0  0  0  0  0
    8.4940    0.8990   20.6050 O   0  0  0  0  0  0  0  0  0  0  0  0
    6.6040   -0.4020   20.7620 N   0  0  0  0  0  0  0  0  0  0  0  0
    5.9140    0.1710   19.6570 C   0  0  0  0  0  0  0  0  0  0  0  0
    6.3110   -0.1130   18.3730 C   0  0  0  0  0  0  0  0  0  0  0  0
    5.6960    0.3610   17.2610 N   0  0  0  0  0  0  0  0  0  0  0  0
    4.6660    1.1560   17.4300 C   0  0  0  0  0  0  0  0  0  0  0  0
    4.1370    1.5230   18.7000 C   0  0  0  0  0  0  0  0  0  0  0  0
    3.0100    2.3820   18.8330 C   0  0  0  0  0  0  0  0  0  0  0  0
    2.5330    2.7160   20.0710 C   0  0  0  0  0  0  0  0  0  0  0  0
    3.1590    2.2130   21.2320 C   0  0  0  0  0  0  0  0  0  0  0  0
    4.2560    1.3900   21.1290 C   0  0  0  0  0  0  0  0  0  0  0  0
    4.7720    1.0110   19.8600 C   0  0  0  0  0  0  0  0  0  0  0  0
    4.7450    1.0390   22.0330 H   0  0  0  0  0  0  0  0  0  0  0  0
    2.7820    2.4850   22.2130 H   0  0  0  0  0  0  0  0  0  0  0  0
    1.6780    3.3790   20.1720 H   0  0  0  0  0  0  0  0  0  0  0  0
    2.5470    2.7690   17.9270 H   0  0  0  0  0  0  0  0  0  0  0  0
    4.1850    1.5500   16.5320 H   0  0  0  0  0  0  0  0  0  0  0  0
    7.1570   -0.7740   18.1980 H   0  0  0  0  0  0  0  0  0  0  0  0
    6.0280   -1.3890   21.6460 C   0  0  0  0  0  0  0  0  0  0  0  0
    7.2420   -1.9680   22.3740 C   0  0  2  0  0  0  0  0  0  0  0  0
    6.8640   -2.5890   23.7180 C   0  0  0  0  0  0  0  0  0  0  0  0
    6.3360   -4.2820   23.4510 S   0  0  0  0  0  0  0  0  0  0  0  0
    5.0010   -4.2510   22.8690 O   0  0  0  0  0  0  0  0  0  0  0  0
    7.4040   -5.0020   22.7660 O   0  0  0  0  0  0  0  0  0  0  0  0
    6.2210   -4.8200   25.0380 N   0  0  0  0  0  0  0  0  0  0  0  0
    7.5000   -5.2440   25.6110 C   0  0  0  0  0  0  0  0  0  0  0  0
    7.9620   -6.0580   25.0390 H   0  0  0  0  0  0  0  0  0  0  0  0
    7.3130   -5.5680   26.6380 H   0  0  0  0  0  0  0  0  0  0  0  0
    8.2030   -4.4090   25.6600 H   0  0  0  0  0  0  0  0  0  0  0  0
    5.1240   -5.7640   25.2630 C   0  0  0  0  0  0  0  0  0  0  0  0
    5.2500   -6.7070   24.7120 H   0  0  0  0  0  0  0  0  0  0  0  0
    5.0810   -5.9730   26.3360 H   0  0  0  0  0  0  0  0  0  0  0  0
    4.1890   -5.2940   24.9570 H   0  0  0  0  0  0  0  0  0  0  0  0
    6.0310   -2.0620   24.1960 H   0  0  0  0  0  0  0  0  0  0  0  0
    7.6750   -2.6250   24.4520 H   0  0  0  0  0  0  0  0  0  0  0  0
    7.6620   -2.7640   21.7510 H   0  0  0  0  0  0  0  0  0  0  0  0
    5.3340   -0.9300   22.3620 H   0  0  0  0  0  0  0  0  0  0  0  0
    5.4710   -2.1480   21.0910 H   0  0  0  0  0  0  0  0  0  0  0  0
    9.7910   -1.3970   22.2040 C   0  0  0  0  0  0  0  0  0  0  0  0
   10.4220   -2.7690   21.8200 C   0  0  0  0  0  0  0  0  0  0  0  0
   11.8060   -2.6660   21.6940 C   0  0  0  0  0  0  0  0  0  0  0  0
   12.3650   -3.1660   19.4460 F   0  0  0  0  0  0  0  0  0  0  0  0
   11.9540   -2.6180   21.9920 C   0  0  0  0  0  0  0  0  0  0  0  0
   12.2620   -1.2350   22.1530 C   0  0  0  0  0  0  0  0  0  0  0  0
   10.9060   -0.5640   22.5360 C   0  0  0  0  0  0  0  0  0  0  0  0
   10.7360    0.7530   23.1590 C   0  0  0  0  0  0  0  0  0  0  0  0
   11.6680    1.5260   23.3330 O   0  0  0  0  0  0  0  0  0  0  0  0
   12.9940   -1.1190   22.9490 H   0  0  0  0  0  0  0  0  0  0  0  0
   11.7790   -3.8820   19.5600 H   0  0  0  0  0  0  0  0  0  0  0  0
    9.8340   -3.4090   21.1820 H   0  0  0  0  0  0  0  0  0  0  0  0
    8.3000   -0.4050   24.5180 H   0  0  0  0  0  0  0  0  0  0  0  0
    7.3610    0.6840   23.5150 H   0  0  0  0  0  0  0  0  0  0  0  0
   10.1620    2.8090   24.4160 H   0  0  0  0  0  0  0  0  0  0  0  0
    8.4650    2.4270   24.8230 H   0  0  0  0  0  0  0  0  0  0  0  0
    6.9910    2.4030   22.7700 H   0  0  0  0  0  0  0  0  0  0  0  0
    7.2490    4.7930   21.0880 H   0  0  0  0  0  0  0  0  0  0  0  0
    7.6780    3.2000   20.3710 H   0  0  0  0  0  0  0  0  0  0  0  0
    6.0380    3.4860   21.0070 H   0  0  0  0  0  0  0  0  0  0  0  0
  1  2  1  0  0  0  0
  1 65  1  0  0  0  0
  1 66  1  0  0  0  0
  1 67  1  0  0  0  0
  2  3  1  0  0  0  0
  2 64  1  0  0  0  0
  3  4  2  0  0  0  0
  3  5  1  0  0  0  0
  5  6  1  0  0  0  0
  5 62  1  0  0  0  0
  5 63  1  0  0  0  0
  6  7  1  0  0  0  0
  6 55  1  0  0  0  0
  7  8  1  0  0  0  0
  7 60  1  0  0  0  0
  7 61  1  0  0  0  0
  8  9  1  6  0  0  0
  8 29  1  0  0  0  0
  8 48  1  0  0  0  0
  9 10  2  0  0  0  0
  9 11  1  0  0  0  0
 11 12  1  0  0  0  0
 11 28  1  0  0  0  0
 12 13  2  0  0  0  0
 12 21  1  0  0  0  0
 13 14  1  0  0  0  0
 13 27  1  0  0  0  0
 14 15  2  0  0  0  0
 15 16  1  0  0  0  0
 15 26  1  0  0  0  0
 16 17  2  0  0  0  0
 16 21  1  0  0  0  0
 17 18  1  0  0  0  0
 17 25  1  0  0  0  0
 18 19  2  0  0  0  0
 18 24  1  0  0  0  0
 19 20  1  0  0  0  0
 19 23  1  0  0  0  0
 20 21  2  0  0  0  0
 20 22  1  0  0  0  0
 28 29  1  0  0  0  0
 28 46  1  0  0  0  0
 28 47  1  0  0  0  0
 29 30  1  0  0  0  0
 29 45  1  6  0  0  0
 30 31  1  0  0  0  0
 30 43  1  0  0  0  0
 30 44  1  0  0  0  0
 31 32  2  0  0  0  0
 31 33  2  0  0  0  0
 31 34  1  0  0  0  0
 34 35  1  0  0  0  0
 34 39  1  0  0  0  0
 35 36  1  0  0  0  0
 35 37  1  0  0  0  0
 35 38  1  0  0  0  0
 39 40  1  0  0  0  0
 39 41  1  0  0  0  0
 39 42  1  0  0  0  0
 48 49  2  0  0  0  0
 48 54  1  0  0  0  0
 49 50  1  0  0  0  0
 49 59  1  0  0  0  0
 50 51  1  0  0  0  0
 50 52  2  0  0  0  0
 52 53  1  0  0  0  0
 52 58  1  0  0  0  0
 53 54  2  0  0  0  0
 53 57  1  0  0  0  0
 54 55  1  0  0  0  0
 55 56  2  0  0  0  0
M  END
>  <MODEL>
       1

$$$$
