output/tmp_first_model_7_61.pdb
 OpenBabel07222621533D

 64 70  0  0  1  0  0  0  0  0999 V2000
   11.4320   -3.6870   24.2010 O   0  0  0  0  0  0  0  0  0  0  0  0
   10.5060   -3.3370   23.4790 C   0  0  0  0  0  0  0  0  0  0  0  0
    9.0810   -3.5540   23.8750 C   0  0  0  0  0  0  0  0  0  0  0  0
    8.8250   -4.5130   24.8510 C   0  0  0  0  0  0  0  0  0  0  0  0
    7.5340   -4.7420   25.2890 C   0  0  0  0  0  0  0  0  0  0  0  0
    6.5060   -3.9550   24.7740 C   0  0  0  0  0  0  0  0  0  0  0  0
    4.8960   -4.1770   25.3920 Cl  0  0  0  0  0  0  0  0  0  0  0  0
    6.7430   -3.0080   23.7930 C   0  0  0  0  0  0  0  0  0  0  0  0
    8.0400   -2.8170   23.2990 C   0  0  0  0  0  0  0  0  0  0  0  0
    8.3150   -1.8290   22.1820 C   0  0  1  0  0  0  0  0  0  0  0  0
    9.5760   -2.3410   21.4230 C   0  0  0  0  0  0  0  0  0  0  0  0
   10.7040   -2.7000   22.2850 N   0  0  0  0  0  0  0  0  0  0  0  0
   12.0780   -2.6250   21.7770 C   0  0  0  0  0  0  0  0  0  0  0  0
   12.7980   -1.3190   22.0160 C   0  0  0  0  0  0  0  0  0  0  0  0
   13.1510   -0.8990   23.2720 C   0  0  0  0  0  0  0  0  0  0  0  0
   13.8590    0.2910   23.3660 C   0  0  0  0  0  0  0  0  0  0  0  0
   14.2100    1.0510   22.3320 N   0  0  0  0  0  0  0  0  0  0  0  0
   13.8920    0.6370   21.1150 N   0  0  0  0  0  0  0  0  0  0  0  0
   13.2450   -0.5140   20.9680 C   0  0  0  0  0  0  0  0  0  0  0  0
   13.0990   -0.8390   19.9360 H   0  0  0  0  0  0  0  0  0  0  0  0
   14.1500    0.6370   24.3440 H   0  0  0  0  0  0  0  0  0  0  0  0
   12.9110   -1.4850   24.1610 H   0  0  0  0  0  0  0  0  0  0  0  0
   12.1260   -2.8390   20.7050 H   0  0  0  0  0  0  0  0  0  0  0  0
   12.6480   -3.3940   22.3010 H   0  0  0  0  0  0  0  0  0  0  0  0
    9.9260   -1.5690   20.7330 H   0  0  0  0  0  0  0  0  0  0  0  0
    9.2630   -3.2230   20.8540 H   0  0  0  0  0  0  0  0  0  0  0  0
    7.1320   -1.7430   21.1880 C   0  0  0  0  0  0  0  0  0  0  0  0
    6.5160   -2.6720   20.7090 O   0  0  0  0  0  0  0  0  0  0  0  0
    6.8490   -0.4150   20.9370 N   0  0  0  0  0  0  0  0  0  0  0  0
    5.9930   -0.0380   19.8650 C   0  0  0  0  0  0  0  0  0  0  0  0
    6.4240   -0.1690   18.5700 C   0  0  0  0  0  0  0  0  0  0  0  0
    5.7710    0.3420   17.4970 N   0  0  0  0  0  0  0  0  0  0  0  0
    4.6190    0.9280   17.7040 C   0  0  0  0  0  0  0  0  0  0  0  0
    4.0080    1.0550   18.9830 C   0  0  0  0  0  0  0  0  0  0  0  0
    2.7410    1.6760   19.1510 C   0  0  0  0  0  0  0  0  0  0  0  0
    2.1550    1.7200   20.3870 C   0  0  0  0  0  0  0  0  0  0  0  0
    2.8130    1.1560   21.5050 C   0  0  0  0  0  0  0  0  0  0  0  0
    4.0430    0.5580   21.3670 C   0  0  0  0  0  0  0  0  0  0  0  0
    4.6910    0.5230   20.1030 C   0  0  0  0  0  0  0  0  0  0  0  0
    4.5410    0.1180   22.2250 H   0  0  0  0  0  0  0  0  0  0  0  0
    2.3320    1.1870   22.4800 H   0  0  0  0  0  0  0  0  0  0  0  0
    1.1930    2.2080   20.5260 H   0  0  0  0  0  0  0  0  0  0  0  0
    2.2550    2.1130   18.2810 H   0  0  0  0  0  0  0  0  0  0  0  0
    4.0980    1.3290   16.8320 H   0  0  0  0  0  0  0  0  0  0  0  0
    7.3440   -0.7100   18.3500 H   0  0  0  0  0  0  0  0  0  0  0  0
    7.8100    0.4990   21.5380 C   0  0  0  0  0  0  0  0  0  0  0  0
    8.4010   -0.3480   22.6770 C   0  0  2  0  0  0  0  0  0  0  0  0
    9.7940    0.0840   23.1440 C   0  0  0  0  0  0  0  0  0  0  0  0
    9.8000    1.3510   23.8510 N   0  0  0  0  0  0  0  0  0  0  0  0
   10.2020    2.4700   23.2110 C   0  0  0  0  0  0  0  0  0  0  0  0
   10.4710    2.4850   21.9290 N   0  0  0  0  0  0  0  0  0  0  0  0
   10.8760    3.7080   21.4820 N   0  0  0  0  0  0  0  0  0  0  0  0
   10.8970    4.6010   22.4110 C   0  0  0  0  0  0  0  0  0  0  0  0
   10.4320    4.0200   23.9850 S   0  0  0  0  0  0  0  0  0  0  0  0
   11.1720    5.6340   22.2340 H   0  0  0  0  0  0  0  0  0  0  0  0
    9.5460    1.3650   24.8240 H   0  0  0  0  0  0  0  0  0  0  0  0
   10.4430    0.1950   22.2770 H   0  0  0  0  0  0  0  0  0  0  0  0
   10.2120   -0.6940   23.7900 H   0  0  0  0  0  0  0  0  0  0  0  0
    7.7180   -0.2730   23.5350 H   0  0  0  0  0  0  0  0  0  0  0  0
    8.5680    0.8190   20.8070 H   0  0  0  0  0  0  0  0  0  0  0  0
    7.3100    1.4020   21.8990 H   0  0  0  0  0  0  0  0  0  0  0  0
    5.9050   -2.4540   23.3890 H   0  0  0  0  0  0  0  0  0  0  0  0
    7.3240   -5.5100   26.0250 H   0  0  0  0  0  0  0  0  0  0  0  0
    9.6720   -5.0680   25.2420 H   0  0  0  0  0  0  0  0  0  0  0  0
  1  2  2  0  0  0  0
  2  3  1  0  0  0  0
  2 12  1  0  0  0  0
  3  4  2  0  0  0  0
  3  9  1  0  0  0  0
  4  5  1  0  0  0  0
  4 64  1  0  0  0  0
  5  6  2  0  0  0  0
  5 63  1  0  0  0  0
  6  7  1  0  0  0  0
  6  8  1  0  0  0  0
  8  9  2  0  0  0  0
  8 62  1  0  0  0  0
 10  9  1  1  0  0  0
 10 11  1  0  0  0  0
 10 27  1  0  0  0  0
 10 47  1  0  0  0  0
 11 12  1  0  0  0  0
 11 25  1  0  0  0  0
 11 26  1  0  0  0  0
 12 13  1  0  0  0  0
 13 14  1  0  0  0  0
 13 23  1  0  0  0  0
 13 24  1  0  0  0  0
 14 15  2  0  0  0  0
 14 19  1  0  0  0  0
 15 16  1  0  0  0  0
 15 22  1  0  0  0  0
 16 17  2  0  0  0  0
 16 21  1  0  0  0  0
 17 18  1  0  0  0  0
 18 19  2  0  0  0  0
 19 20  1  0  0  0  0
 27 28  2  0  0  0  0
 27 29  1  0  0  0  0
 29 30  1  0  0  0  0
 29 46  1  0  0  0  0
 30 31  2  0  0  0  0
 30 39  1  0  0  0  0
 31 32  1  0  0  0  0
 31 45  1  0  0  0  0
 32 33  2  0  0  0  0
 33 34  1  0  0  0  0
 33 44  1  0  0  0  0
 34 35  2  0  0  0  0
 34 39  1  0  0  0  0
 35 36  1  0  0  0  0
 35 43  1  0  0  0  0
 36 37  2  0  0  0  0
 36 42  1  0  0  0  0
 37 38  1  0  0  0  0
 37 41  1  0  0  0  0
 38 39  2  0  0  0  0
 38 40  1  0  0  0  0
 46 47  1  0  0  0  0
 46 60  1  0  0  0  0
 46 61  1  0  0  0  0
 47 48  1  0  0  0  0
 47 59  1  1  0  0  0
 48 49  1  0  0  0  0
 48 57  1  0  0  0  0
 48 58  1  0  0  0  0
 49 50  1  0  0  0  0
 49 56  1  0  0  0  0
 50 51  2  0  0  0  0
 50 54  1  0  0  0  0
 51 52  1  0  0  0  0
 52 53  2  0  0  0  0
 53 54  1  0  0  0  0
 53 55  1  0  0  0  0
M  END
>  <MODEL>
       1

$$$$
