output/tmp_first_model_1_95.pdb
 OpenBabel07222618483D

 67 71  0  0  1  0  0  0  0  0999 V2000
    5.1020   -3.1300   18.5520 C   0  0  0  0  0  0  0  0  0  0  0  0
    6.1020   -3.6540   19.4530 N   0  0  0  0  0  0  0  0  0  0  0  0
    6.0060   -4.8760   20.0320 C   0  0  0  0  0  0  0  0  0  0  0  0
    5.1140   -5.6550   19.7460 O   0  0  0  0  0  0  0  0  0  0  0  0
    7.1280   -5.2730   21.0190 C   0  0  0  0  0  0  0  0  0  0  0  0
    7.3060   -4.4090   22.1660 N   0  0  0  0  0  0  0  0  0  0  0  0
    8.1470   -3.2220   22.1130 C   0  0  0  0  0  0  0  0  0  0  0  0
    7.4080   -1.9960   22.7040 C   0  0  2  0  0  0  0  0  0  0  0  0
    6.2530   -1.6190   21.7570 C   0  0  0  0  0  0  0  0  0  0  0  0
    5.1720   -2.1670   21.6640 O   0  0  0  0  0  0  0  0  0  0  0  0
    6.6580   -0.5690   20.9580 N   0  0  0  0  0  0  0  0  0  0  0  0
    5.8880   -0.0860   19.8900 C   0  0  0  0  0  0  0  0  0  0  0  0
    6.4500    0.0450   18.6410 C   0  0  0  0  0  0  0  0  0  0  0  0
    5.7470    0.3420   17.5250 N   0  0  0  0  0  0  0  0  0  0  0  0
    4.4660    0.5970   17.6790 C   0  0  0  0  0  0  0  0  0  0  0  0
    3.8080    0.6620   18.9340 C   0  0  0  0  0  0  0  0  0  0  0  0
    2.4990    1.2050   19.0590 C   0  0  0  0  0  0  0  0  0  0  0  0
    1.8950    1.2940   20.2830 C   0  0  0  0  0  0  0  0  0  0  0  0
    2.6080    0.9230   21.4410 C   0  0  0  0  0  0  0  0  0  0  0  0
    3.8870    0.4320   21.3570 C   0  0  0  0  0  0  0  0  0  0  0  0
    4.5210    0.2920   20.0910 C   0  0  0  0  0  0  0  0  0  0  0  0
    4.4250    0.1670   22.2600 H   0  0  0  0  0  0  0  0  0  0  0  0
    2.1360    0.9870   22.4140 H   0  0  0  0  0  0  0  0  0  0  0  0
    0.8800    1.6770   20.3760 H   0  0  0  0  0  0  0  0  0  0  0  0
    2.0420    1.6310   18.1720 H   0  0  0  0  0  0  0  0  0  0  0  0
    3.8860    0.7890   16.7760 H   0  0  0  0  0  0  0  0  0  0  0  0
    7.5060   -0.1710   18.4810 H   0  0  0  0  0  0  0  0  0  0  0  0
    8.0250   -0.1450   21.2130 C   0  0  0  0  0  0  0  0  0  0  0  0
    8.2580   -0.6870   22.6350 C   0  0  2  0  0  0  0  0  0  0  0  0
    9.7290   -0.8060   23.0430 C   0  0  0  0  0  0  0  0  0  0  0  0
   10.4380    0.7700   23.5510 S   0  0  0  0  0  0  0  0  0  0  0  0
   10.1200    0.9880   24.9590 O   0  0  0  0  0  0  0  0  0  0  0  0
   10.0110    1.7550   22.5670 O   0  0  0  0  0  0  0  0  0  0  0  0
   12.1100    0.4720   23.4160 N   0  0  0  0  0  0  0  0  0  0  0  0
   12.5960   -0.3620   24.5210 C   0  0  0  0  0  0  0  0  0  0  0  0
   12.2120   -1.3820   24.4120 H   0  0  0  0  0  0  0  0  0  0  0  0
   12.3030    0.0570   25.4930 H   0  0  0  0  0  0  0  0  0  0  0  0
   13.6870   -0.4280   24.4610 H   0  0  0  0  0  0  0  0  0  0  0  0
   12.9740    1.6350   23.1520 C   0  0  0  0  0  0  0  0  0  0  0  0
   12.7880    2.4840   23.8280 H   0  0  0  0  0  0  0  0  0  0  0  0
   14.0070    1.2990   23.2820 H   0  0  0  0  0  0  0  0  0  0  0  0
   12.8870    1.9500   22.1130 H   0  0  0  0  0  0  0  0  0  0  0  0
   10.3320   -1.1670   22.2020 H   0  0  0  0  0  0  0  0  0  0  0  0
    9.8360   -1.4890   23.8920 H   0  0  0  0  0  0  0  0  0  0  0  0
    7.7730    0.0350   23.2930 H   0  0  0  0  0  0  0  0  0  0  0  0
    8.1080    0.9410   21.1550 H   0  0  0  0  0  0  0  0  0  0  0  0
    8.7350   -0.5850   20.4950 H   0  0  0  0  0  0  0  0  0  0  0  0
    6.8780   -2.3900   24.0690 C   0  0  0  0  0  0  0  0  0  0  0  0
    6.5360   -1.4240   25.0220 C   0  0  0  0  0  0  0  0  0  0  0  0
    5.9760   -1.8190   26.2190 C   0  0  0  0  0  0  0  0  0  0  0  0
    5.6300   -0.8690   27.1040 F   0  0  0  0  0  0  0  0  0  0  0  0
    5.7480   -3.1490   26.5520 C   0  0  0  0  0  0  0  0  0  0  0  0
    6.0870   -4.1050   25.6170 C   0  0  0  0  0  0  0  0  0  0  0  0
    6.6070   -3.7320   24.3780 C   0  0  0  0  0  0  0  0  0  0  0  0
    6.7780   -4.8170   23.3630 C   0  0  0  0  0  0  0  0  0  0  0  0
    6.4340   -5.9700   23.5760 O   0  0  0  0  0  0  0  0  0  0  0  0
    5.9470   -5.1620   25.8080 H   0  0  0  0  0  0  0  0  0  0  0  0
    5.3120   -3.4000   27.5120 H   0  0  0  0  0  0  0  0  0  0  0  0
    6.6970   -0.3650   24.8570 H   0  0  0  0  0  0  0  0  0  0  0  0
    9.0700   -3.3870   22.6840 H   0  0  0  0  0  0  0  0  0  0  0  0
    8.4350   -3.0410   21.0790 H   0  0  0  0  0  0  0  0  0  0  0  0
    8.0970   -5.3440   20.5170 H   0  0  0  0  0  0  0  0  0  0  0  0
    6.8810   -6.2670   21.3990 H   0  0  0  0  0  0  0  0  0  0  0  0
    6.7950   -3.0050   19.7850 H   0  0  0  0  0  0  0  0  0  0  0  0
    5.0750   -3.7010   17.6260 H   0  0  0  0  0  0  0  0  0  0  0  0
    4.1230   -3.1160   19.0280 H   0  0  0  0  0  0  0  0  0  0  0  0
    5.3460   -2.1030   18.2830 H   0  0  0  0  0  0  0  0  0  0  0  0
  1  2  1  0  0  0  0
  1 65  1  0  0  0  0
  1 66  1  0  0  0  0
  1 67  1  0  0  0  0
  2  3  1  0  0  0  0
  2 64  1  0  0  0  0
  3  4  2  0  0  0  0
  3  5  1  0  0  0  0
  5  6  1  0  0  0  0
  5 62  1  0  0  0  0
  5 63  1  0  0  0  0
  6  7  1  0  0  0  0
  6 55  1  0  0  0  0
  7  8  1  0  0  0  0
  7 60  1  0  0  0  0
  7 61  1  0  0  0  0
  8  9  1  6  0  0  0
  8 29  1  0  0  0  0
  8 48  1  0  0  0  0
  9 10  2  0  0  0  0
  9 11  1  0  0  0  0
 11 12  1  0  0  0  0
 11 28  1  0  0  0  0
 12 13  2  0  0  0  0
 12 21  1  0  0  0  0
 13 14  1  0  0  0  0
 13 27  1  0  0  0  0
 14 15  2  0  0  0  0
 15 16  1  0  0  0  0
 15 26  1  0  0  0  0
 16 17  2  0  0  0  0
 16 21  1  0  0  0  0
 17 18  1  0  0  0  0
 17 25  1  0  0  0  0
 18 19  2  0  0  0  0
 18 24  1  0  0  0  0
 19 20  1  0  0  0  0
 19 23  1  0  0  0  0
 20 21  2  0  0  0  0
 20 22  1  0  0  0  0
 28 29  1  0  0  0  0
 28 46  1  0  0  0  0
 28 47  1  0  0  0  0
 29 30  1  0  0  0  0
 29 45  1  1  0  0  0
 30 31  1  0  0  0  0
 30 43  1  0  0  0  0
 30 44  1  0  0  0  0
 31 32  2  0  0  0  0
 31 33  2  0  0  0  0
 31 34  1  0  0  0  0
 34 35  1  0  0  0  0
 34 39  1  0  0  0  0
 35 36  1  0  0  0  0
 35 37  1  0  0  0  0
 35 38  1  0  0  0  0
 39 40  1  0  0  0  0
 39 41  1  0  0  0  0
 39 42  1  0  0  0  0
 48 49  2  0  0  0  0
 48 54  1  0  0  0  0
 49 50  1  0  0  0  0
 49 59  1  0  0  0  0
 50 51  1  0  0  0  0
 50 52  2  0  0  0  0
 52 53  1  0  0  0  0
 52 58  1  0  0  0  0
 53 54  2  0  0  0  0
 53 57  1  0  0  0  0
 54 55  1  0  0  0  0
 55 56  2  0  0  0  0
M  END
>  <MODEL>
       1

$$$$
