output/tmp_first_model_18_24.pdb
 OpenBabel07232602473D

 70 75  0  0  1  0  0  0  0  0999 V2000
    4.6530   -7.8240   23.9420 C   0  0  0  0  0  0  0  0  0  0  0  0
    6.0160   -7.4510   23.5080 N   0  3  0  0  0  0  0  0  0  0  0  0
    6.4400   -6.1050   24.0120 C   0  0  0  0  0  0  0  0  0  0  0  0
    5.7500   -4.9280   23.3030 C   0  0  0  0  0  0  0  0  0  0  0  0
    6.2520   -3.6480   23.7680 N   0  0  0  0  0  0  0  0  0  0  0  0
    7.4720   -3.1080   23.1930 C   0  0  0  0  0  0  0  0  0  0  0  0
    7.3460   -1.5990   22.8810 C   0  0  2  0  0  0  0  0  0  0  0  0
    6.3440   -1.3890   21.7230 C   0  0  0  0  0  0  0  0  0  0  0  0
    5.2550   -1.9110   21.5970 O   0  0  0  0  0  0  0  0  0  0  0  0
    6.8700   -0.4810   20.8390 N   0  0  0  0  0  0  0  0  0  0  0  0
    6.1050    0.0660   19.7780 C   0  0  0  0  0  0  0  0  0  0  0  0
    6.4470   -0.2170   18.4820 C   0  0  0  0  0  0  0  0  0  0  0  0
    5.7790    0.2410   17.3980 N   0  0  0  0  0  0  0  0  0  0  0  0
    4.7490    1.0250   17.6010 C   0  0  0  0  0  0  0  0  0  0  0  0
    4.2980    1.4120   18.8940 C   0  0  0  0  0  0  0  0  0  0  0  0
    3.1830    2.2770   19.0590 C   0  0  0  0  0  0  0  0  0  0  0  0
    2.7830    2.6560   20.3100 C   0  0  0  0  0  0  0  0  0  0  0  0
    3.4830    2.1950   21.4500 C   0  0  0  0  0  0  0  0  0  0  0  0
    4.5650    1.3610   21.3200 C   0  0  0  0  0  0  0  0  0  0  0  0
    4.9930    0.9330   20.0280 C   0  0  0  0  0  0  0  0  0  0  0  0
    5.0990    1.0260   22.2090 H   0  0  0  0  0  0  0  0  0  0  0  0
    3.1600    2.5120   22.4370 H   0  0  0  0  0  0  0  0  0  0  0  0
    1.9320    3.3200   20.4370 H   0  0  0  0  0  0  0  0  0  0  0  0
    2.6720    2.6380   18.1700 H   0  0  0  0  0  0  0  0  0  0  0  0
    4.2170    1.3950   16.7210 H   0  0  0  0  0  0  0  0  0  0  0  0
    7.2930   -0.8710   18.2740 H   0  0  0  0  0  0  0  0  0  0  0  0
    8.2030   -0.0310   21.1670 C   0  0  0  0  0  0  0  0  0  0  0  0
    8.6680   -0.9390   22.3340 C   0  0  2  0  0  0  0  0  0  0  0  0
    9.7750   -1.8910   21.7930 C   0  0  0  0  0  0  0  0  0  0  0  0
   10.3420   -2.7330   22.7350 O   0  0  0  0  0  0  0  0  0  0  0  0
   11.5020   -2.1150   23.5330 C   0  0  0  0  0  0  0  0  0  0  0  0
   12.0030   -2.8780   24.7710 C   0  0  0  0  0  0  0  0  0  0  0  0
   12.0150   -2.9940   24.5140 C   0  0  0  0  0  0  0  0  0  0  0  0
   14.5250   -3.1660   25.5720 O   0  0  0  0  0  0  0  0  0  0  0  0
   13.3100   -2.4850   25.1710 C   0  0  0  0  0  0  0  0  0  0  0  0
   13.1740   -2.1260   26.1590 H   0  0  0  0  0  0  0  0  0  0  0  0
   13.9250   -1.7540   24.6490 H   0  0  0  0  0  0  0  0  0  0  0  0
   11.4540   -4.3130   25.2430 H   0  0  0  0  0  0  0  0  0  0  0  0
   12.2520   -3.7640   23.5620 H   0  0  0  0  0  0  0  0  0  0  0  0
   11.5710   -2.4030   25.7990 H   0  0  0  0  0  0  0  0  0  0  0  0
   12.2090   -2.1200   22.6950 H   0  0  0  0  0  0  0  0  0  0  0  0
   11.1200   -1.0860   23.6940 H   0  0  0  0  0  0  0  0  0  0  0  0
   10.5580   -1.2910   21.2960 H   0  0  0  0  0  0  0  0  0  0  0  0
    9.3040   -2.5160   21.0060 H   0  0  0  0  0  0  0  0  0  0  0  0
    9.1210   -0.3470   23.1400 H   0  0  0  0  0  0  0  0  0  0  0  0
    8.8550   -0.1440   20.2990 H   0  0  0  0  0  0  0  0  0  0  0  0
    8.2110    1.0390   21.4290 H   0  0  0  0  0  0  0  0  0  0  0  0
    6.7970   -0.9070   24.1330 C   0  0  0  0  0  0  0  0  0  0  0  0
    6.9710    0.4690   24.3250 C   0  0  0  0  0  0  0  0  0  0  0  0
    6.4430    1.0850   25.4480 C   0  0  0  0  0  0  0  0  0  0  0  0
    6.6800    2.7950   25.6770 Cl  0  0  0  0  0  0  0  0  0  0  0  0
    5.7170    0.3720   26.3990 C   0  0  0  0  0  0  0  0  0  0  0  0
    5.5040   -0.9760   26.1890 C   0  0  0  0  0  0  0  0  0  0  0  0
    6.0190   -1.6130   25.0610 C   0  0  0  0  0  0  0  0  0  0  0  0
    5.6580   -3.0550   24.8420 C   0  0  0  0  0  0  0  0  0  0  0  0
    4.8570   -3.6410   25.5610 O   0  0  0  0  0  0  0  0  0  0  0  0
    4.9210   -1.5680   26.8840 H   0  0  0  0  0  0  0  0  0  0  0  0
    5.3180    0.8800   27.2710 H   0  0  0  0  0  0  0  0  0  0  0  0
    7.5100    1.0830   23.6100 H   0  0  0  0  0  0  0  0  0  0  0  0
    7.6830   -3.6580   22.2730 H   0  0  0  0  0  0  0  0  0  0  0  0
    8.3090   -3.2570   23.8850 H   0  0  0  0  0  0  0  0  0  0  0  0
    5.9170   -4.9590   22.2170 H   0  0  0  0  0  0  0  0  0  0  0  0
    4.6710   -4.9330   23.4820 H   0  0  0  0  0  0  0  0  0  0  0  0
    7.5170   -6.0330   23.8860 H   0  0  0  0  0  0  0  0  0  0  0  0
    6.2120   -6.0480   25.0780 H   0  0  0  0  0  0  0  0  0  0  0  0
    6.0300   -7.4190   22.4610 H   0  0  0  0  0  0  0  0  0  0  0  0
    6.6770   -8.1840   23.8320 H   0  0  0  0  0  0  0  0  0  0  0  0
    4.5470   -7.6820   25.0180 H   0  0  0  0  0  0  0  0  0  0  0  0
    3.9010   -7.2110   23.4460 H   0  0  0  0  0  0  0  0  0  0  0  0
    4.4480   -8.8670   23.7200 H   0  0  0  0  0  0  0  0  0  0  0  0
  1  2  1  0  0  0  0
  1 68  1  0  0  0  0
  1 69  1  0  0  0  0
  1 70  1  0  0  0  0
  2  3  1  0  0  0  0
  2 66  1  0  0  0  0
  2 67  1  0  0  0  0
  3  4  1  0  0  0  0
  3 64  1  0  0  0  0
  3 65  1  0  0  0  0
  4  5  1  0  0  0  0
  4 62  1  0  0  0  0
  4 63  1  0  0  0  0
  5  6  1  0  0  0  0
  5 55  1  0  0  0  0
  6  7  1  0  0  0  0
  6 60  1  0  0  0  0
  6 61  1  0  0  0  0
  7  8  1  6  0  0  0
  7 28  1  0  0  0  0
  7 48  1  0  0  0  0
  8  9  2  0  0  0  0
  8 10  1  0  0  0  0
 10 11  1  0  0  0  0
 10 27  1  0  0  0  0
 11 12  2  0  0  0  0
 11 20  1  0  0  0  0
 12 13  1  0  0  0  0
 12 26  1  0  0  0  0
 13 14  2  0  0  0  0
 14 15  1  0  0  0  0
 14 25  1  0  0  0  0
 15 16  2  0  0  0  0
 15 20  1  0  0  0  0
 16 17  1  0  0  0  0
 16 24  1  0  0  0  0
 17 18  2  0  0  0  0
 17 23  1  0  0  0  0
 18 19  1  0  0  0  0
 18 22  1  0  0  0  0
 19 20  2  0  0  0  0
 19 21  1  0  0  0  0
 27 28  1  0  0  0  0
 27 46  1  0  0  0  0
 27 47  1  0  0  0  0
 28 29  1  0  0  0  0
 28 45  1  1  0  0  0
 29 30  1  0  0  0  0
 29 43  1  0  0  0  0
 29 44  1  0  0  0  0
 30 31  1  0  0  0  0
 31 32  1  0  0  0  0
 31 41  1  0  0  0  0
 31 42  1  0  0  0  0
 32 33  1  0  0  0  0
 32 35  1  0  0  0  0
 32 40  1  0  0  0  0
 33 34  1  0  0  0  0
 33 38  1  0  0  0  0
 33 39  1  0  0  0  0
 34 35  1  0  0  0  0
 35 36  1  0  0  0  0
 35 37  1  0  0  0  0
 48 49  2  0  0  0  0
 48 54  1  0  0  0  0
 49 50  1  0  0  0  0
 49 59  1  0  0  0  0
 50 51  1  0  0  0  0
 50 52  2  0  0  0  0
 52 53  1  0  0  0  0
 52 58  1  0  0  0  0
 53 54  2  0  0  0  0
 53 57  1  0  0  0  0
 54 55  1  0  0  0  0
 55 56  2  0  0  0  0
M  CHG  1   2   1
M  END
>  <MODEL>
       1

$$$$
