output/tmp_first_model_6_81.pdb
 OpenBabel07222621163D

 58 63  0  0  1  0  0  0  0  0999 V2000
    9.2820   -7.9710   24.2510 C   0  0  0  0  0  0  0  0  0  0  0  0
    7.9490   -7.3300   24.0450 C   0  0  0  0  0  0  0  0  0  0  0  0
    7.5810   -6.3480   23.2860 N   0  0  0  0  0  0  0  0  0  0  0  0
    6.3170   -5.9950   23.7640 C   0  0  0  0  0  0  0  0  0  0  0  0
    5.5950   -4.7930   23.2380 C   0  0  0  0  0  0  0  0  0  0  0  0
    6.1820   -3.5560   23.7250 N   0  0  0  0  0  0  0  0  0  0  0  0
    7.4340   -3.0790   23.1590 C   0  0  0  0  0  0  0  0  0  0  0  0
    7.3240   -1.5810   22.8500 C   0  0  2  0  0  0  0  0  0  0  0  0
    6.3350   -1.3930   21.6800 C   0  0  0  0  0  0  0  0  0  0  0  0
    5.2580   -1.9400   21.5150 O   0  0  0  0  0  0  0  0  0  0  0  0
    6.8800   -0.4860   20.8090 N   0  0  0  0  0  0  0  0  0  0  0  0
    6.1200    0.0690   19.7590 C   0  0  0  0  0  0  0  0  0  0  0  0
    6.4630   -0.2120   18.4630 C   0  0  0  0  0  0  0  0  0  0  0  0
    5.7990    0.2420   17.3740 N   0  0  0  0  0  0  0  0  0  0  0  0
    4.7670    1.0210   17.5990 C   0  0  0  0  0  0  0  0  0  0  0  0
    4.3150    1.4020   18.8950 C   0  0  0  0  0  0  0  0  0  0  0  0
    3.2000    2.2630   19.0550 C   0  0  0  0  0  0  0  0  0  0  0  0
    2.7960    2.6440   20.3020 C   0  0  0  0  0  0  0  0  0  0  0  0
    3.4930    2.1900   21.4460 C   0  0  0  0  0  0  0  0  0  0  0  0
    4.5760    1.3540   21.3240 C   0  0  0  0  0  0  0  0  0  0  0  0
    5.0080    0.9280   20.0290 C   0  0  0  0  0  0  0  0  0  0  0  0
    5.0990    1.0200   22.2210 H   0  0  0  0  0  0  0  0  0  0  0  0
    3.1690    2.5210   22.4270 H   0  0  0  0  0  0  0  0  0  0  0  0
    1.9500    3.3150   20.4190 H   0  0  0  0  0  0  0  0  0  0  0  0
    2.6980    2.6200   18.1590 H   0  0  0  0  0  0  0  0  0  0  0  0
    4.2280    1.3930   16.7290 H   0  0  0  0  0  0  0  0  0  0  0  0
    7.3160   -0.8640   18.2770 H   0  0  0  0  0  0  0  0  0  0  0  0
    8.2180   -0.0460   21.1400 C   0  0  0  0  0  0  0  0  0  0  0  0
    8.6510   -0.9610   22.3020 C   0  0  2  0  0  0  0  0  0  0  0  0
    9.7010   -1.9750   21.8270 C   0  0  0  0  0  0  0  0  0  0  0  0
   10.0380   -2.6130   22.6490 H   0  0  0  0  0  0  0  0  0  0  0  0
   10.5770   -1.4460   21.4400 H   0  0  0  0  0  0  0  0  0  0  0  0
    9.3160   -2.6180   21.0280 H   0  0  0  0  0  0  0  0  0  0  0  0
    9.1250   -0.3720   23.0960 H   0  0  0  0  0  0  0  0  0  0  0  0
    8.8750   -0.1720   20.2810 H   0  0  0  0  0  0  0  0  0  0  0  0
    8.2390    1.0210   21.4040 H   0  0  0  0  0  0  0  0  0  0  0  0
    6.8060   -0.8860   24.1120 C   0  0  0  0  0  0  0  0  0  0  0  0
    7.0200    0.4820   24.3290 C   0  0  0  0  0  0  0  0  0  0  0  0
    6.5380    1.0790   25.4810 C   0  0  0  0  0  0  0  0  0  0  0  0
    6.7580    2.3890   25.6860 F   0  0  0  0  0  0  0  0  0  0  0  0
    5.8420    0.3800   26.4570 C   0  0  0  0  0  0  0  0  0  0  0  0
    5.6180   -0.9610   26.2400 C   0  0  0  0  0  0  0  0  0  0  0  0
    6.0710   -1.5850   25.0810 C   0  0  0  0  0  0  0  0  0  0  0  0
    5.6830   -3.0120   24.8770 C   0  0  0  0  0  0  0  0  0  0  0  0
    4.9320   -3.6220   25.6250 O   0  0  0  0  0  0  0  0  0  0  0  0
    5.0750   -1.5670   26.9520 H   0  0  0  0  0  0  0  0  0  0  0  0
    5.4860    0.8800   27.3490 H   0  0  0  0  0  0  0  0  0  0  0  0
    7.5830    1.0990   23.6370 H   0  0  0  0  0  0  0  0  0  0  0  0
    7.6310   -3.6440   22.2470 H   0  0  0  0  0  0  0  0  0  0  0  0
    8.2800   -3.2510   23.8430 H   0  0  0  0  0  0  0  0  0  0  0  0
    4.5310   -4.7990   23.5150 H   0  0  0  0  0  0  0  0  0  0  0  0
    5.6540   -4.7910   22.1430 H   0  0  0  0  0  0  0  0  0  0  0  0
    5.9800   -6.8250   24.7730 C   0  0  0  0  0  0  0  0  0  0  0  0
    7.0040   -7.7070   24.9340 O   0  0  0  0  0  0  0  0  0  0  0  0
    5.1880   -6.8700   25.5080 H   0  0  0  0  0  0  0  0  0  0  0  0
    9.9340   -7.2710   24.7930 H   0  0  0  0  0  0  0  0  0  0  0  0
    9.1380   -8.8480   24.8790 H   0  0  0  0  0  0  0  0  0  0  0  0
    9.8060   -8.2490   23.3350 H   0  0  0  0  0  0  0  0  0  0  0  0
  1  2  1  0  0  0  0
  1 56  1  0  0  0  0
  1 57  1  0  0  0  0
  1 58  1  0  0  0  0
  2  3  2  0  0  0  0
  2 54  1  0  0  0  0
  3  4  1  0  0  0  0
  4  5  1  0  0  0  0
  4 53  2  0  0  0  0
  5  6  1  0  0  0  0
  5 51  1  0  0  0  0
  5 52  1  0  0  0  0
  6  7  1  0  0  0  0
  6 44  1  0  0  0  0
  7  8  1  0  0  0  0
  7 49  1  0  0  0  0
  7 50  1  0  0  0  0
  8  9  1  6  0  0  0
  8 29  1  0  0  0  0
  8 37  1  0  0  0  0
  9 10  2  0  0  0  0
  9 11  1  0  0  0  0
 11 12  1  0  0  0  0
 11 28  1  0  0  0  0
 12 13  2  0  0  0  0
 12 21  1  0  0  0  0
 13 14  1  0  0  0  0
 13 27  1  0  0  0  0
 14 15  2  0  0  0  0
 15 16  1  0  0  0  0
 15 26  1  0  0  0  0
 16 17  2  0  0  0  0
 16 21  1  0  0  0  0
 17 18  1  0  0  0  0
 17 25  1  0  0  0  0
 18 19  2  0  0  0  0
 18 24  1  0  0  0  0
 19 20  1  0  0  0  0
 19 23  1  0  0  0  0
 20 21  2  0  0  0  0
 20 22  1  0  0  0  0
 28 29  1  0  0  0  0
 28 35  1  0  0  0  0
 28 36  1  0  0  0  0
 29 30  1  0  0  0  0
 29 34  1  1  0  0  0
 30 31  1  0  0  0  0
 30 32  1  0  0  0  0
 30 33  1  0  0  0  0
 37 38  2  0  0  0  0
 37 43  1  0  0  0  0
 38 39  1  0  0  0  0
 38 48  1  0  0  0  0
 39 40  1  0  0  0  0
 39 41  2  0  0  0  0
 41 42  1  0  0  0  0
 41 47  1  0  0  0  0
 42 43  2  0  0  0  0
 42 46  1  0  0  0  0
 43 44  1  0  0  0  0
 44 45  2  0  0  0  0
 53 54  1  0  0  0  0
 53 55  1  0  0  0  0
M  END
>  <MODEL>
       1

$$$$
