output/tmp_first_model_8_38.pdb
 OpenBabel07222622353D

 72 77  0  0  1  0  0  0  0  0999 V2000
    5.9890    4.3940   23.1900 C   0  0  0  0  0  0  0  0  0  0  0  0
    6.6520    3.2490   23.8210 N   0  3  0  0  0  0  0  0  0  0  0  0
    7.9290    3.6120   24.4770 C   0  0  0  0  0  0  0  0  0  0  0  0
    8.5530    2.4270   25.2100 C   0  0  0  0  0  0  0  0  0  0  0  0
    9.0850    1.4230   24.2970 N   0  0  0  0  0  0  0  0  0  0  0  0
    8.4420    0.1260   24.1610 C   0  0  0  0  0  0  0  0  0  0  0  0
    8.4990   -0.4150   22.7110 C   0  0  2  0  0  0  0  0  0  0  0  0
    7.5910    0.4160   21.7750 C   0  0  0  0  0  0  0  0  0  0  0  0
    7.4410    1.6300   21.8210 O   0  0  0  0  0  0  0  0  0  0  0  0
    6.9240   -0.4340   20.9310 N   0  0  0  0  0  0  0  0  0  0  0  0
    6.0050   -0.0770   19.9110 C   0  0  0  0  0  0  0  0  0  0  0  0
    6.2670   -0.4310   18.6100 C   0  0  0  0  0  0  0  0  0  0  0  0
    5.3960   -0.3200   17.5810 N   0  0  0  0  0  0  0  0  0  0  0  0
    4.2120    0.1730   17.8560 C   0  0  0  0  0  0  0  0  0  0  0  0
    3.8210    0.6190   19.1500 C   0  0  0  0  0  0  0  0  0  0  0  0
    2.5770    1.2750   19.3630 C   0  0  0  0  0  0  0  0  0  0  0  0
    2.2980    1.8850   20.5530 C   0  0  0  0  0  0  0  0  0  0  0  0
    3.2310    1.8340   21.6090 C   0  0  0  0  0  0  0  0  0  0  0  0
    4.4070    1.1440   21.4560 C   0  0  0  0  0  0  0  0  0  0  0  0
    4.7570    0.5620   20.2030 C   0  0  0  0  0  0  0  0  0  0  0  0
    5.0900    1.0540   22.2860 H   0  0  0  0  0  0  0  0  0  0  0  0
    3.0260    2.3550   22.5410 H   0  0  0  0  0  0  0  0  0  0  0  0
    1.3710    2.4330   20.6810 H   0  0  0  0  0  0  0  0  0  0  0  0
    1.8990    1.3770   18.5280 H   0  0  0  0  0  0  0  0  0  0  0  0
    3.4990    0.2460   17.0360 H   0  0  0  0  0  0  0  0  0  0  0  0
    7.2460   -0.8230   18.3480 H   0  0  0  0  0  0  0  0  0  0  0  0
    7.2260   -1.8340   21.1750 C   0  0  0  0  0  0  0  0  0  0  0  0
    7.8930   -1.8400   22.5620 C   0  0  2  0  0  0  0  0  0  0  0  0
    6.8890   -2.2140   23.6630 C   0  0  0  0  0  0  0  0  0  0  0  0
    6.3470   -3.4960   23.4620 O   0  0  0  0  0  0  0  0  0  0  0  0
    7.1160   -4.5350   24.0250 C   0  0  0  0  0  0  0  0  0  0  0  0
    6.5030   -5.8180   23.5170 C   0  0  0  0  0  0  0  0  0  0  0  0
    6.6790   -5.9700   21.9900 C   0  0  0  0  0  0  0  0  0  0  0  0
    6.7850   -8.3790   22.9620 S   0  0  0  0  0  0  0  0  0  0  0  0
    7.2530   -7.2570   21.7540 O   0  0  0  0  0  0  0  0  0  0  0  0
    7.8740   -9.3640   23.0340 O   0  0  0  0  0  0  0  0  0  0  0  0
    7.1060   -7.0640   24.1500 C   0  0  0  0  0  0  0  0  0  0  0  0
    8.2000   -7.0430   24.2170 H   0  0  0  0  0  0  0  0  0  0  0  0
    6.6900   -7.3290   25.1260 H   0  0  0  0  0  0  0  0  0  0  0  0
    5.7310   -5.8790   21.4540 H   0  0  0  0  0  0  0  0  0  0  0  0
    7.3460   -5.2140   21.5770 H   0  0  0  0  0  0  0  0  0  0  0  0
    5.4340   -5.7950   23.7380 H   0  0  0  0  0  0  0  0  0  0  0  0
    7.0960   -4.4810   25.1260 H   0  0  0  0  0  0  0  0  0  0  0  0
    8.1760   -4.4660   23.7150 H   0  0  0  0  0  0  0  0  0  0  0  0
    6.0400   -1.5180   23.6580 H   0  0  0  0  0  0  0  0  0  0  0  0
    7.3680   -2.1760   24.6540 H   0  0  0  0  0  0  0  0  0  0  0  0
    8.6940   -2.5850   22.6040 H   0  0  0  0  0  0  0  0  0  0  0  0
    6.3020   -2.4170   21.1390 H   0  0  0  0  0  0  0  0  0  0  0  0
    7.9010   -2.2160   20.4050 H   0  0  0  0  0  0  0  0  0  0  0  0
    9.9690   -0.3700   22.2990 C   0  0  0  0  0  0  0  0  0  0  0  0
   10.5330   -1.3340   21.4540 C   0  0  0  0  0  0  0  0  0  0  0  0
   11.8780   -1.3000   21.1430 C   0  0  0  0  0  0  0  0  0  0  0  0
   12.5070   -2.5660   20.1150 Cl  0  0  0  0  0  0  0  0  0  0  0  0
   12.7000   -0.2690   21.6050 C   0  0  0  0  0  0  0  0  0  0  0  0
   12.1480    0.7010   22.4150 C   0  0  0  0  0  0  0  0  0  0  0  0
   10.8070    0.6410   22.7820 C   0  0  0  0  0  0  0  0  0  0  0  0
   10.3030    1.6750   23.7370 C   0  0  0  0  0  0  0  0  0  0  0  0
   10.9570    2.6800   24.0100 O   0  0  0  0  0  0  0  0  0  0  0  0
   12.7470    1.5230   22.7940 H   0  0  0  0  0  0  0  0  0  0  0  0
   13.7440   -0.2130   21.3220 H   0  0  0  0  0  0  0  0  0  0  0  0
    9.9460   -2.1360   21.0290 H   0  0  0  0  0  0  0  0  0  0  0  0
    8.9500   -0.6040   24.8140 H   0  0  0  0  0  0  0  0  0  0  0  0
    7.4090    0.2240   24.4970 H   0  0  0  0  0  0  0  0  0  0  0  0
    9.3760    2.7770   25.8390 H   0  0  0  0  0  0  0  0  0  0  0  0
    7.8160    1.9390   25.8570 H   0  0  0  0  0  0  0  0  0  0  0  0
    8.6340    3.9700   23.7210 H   0  0  0  0  0  0  0  0  0  0  0  0
    7.7680    4.4300   25.1880 H   0  0  0  0  0  0  0  0  0  0  0  0
    6.8400    2.5240   23.0990 H   0  0  0  0  0  0  0  0  0  0  0  0
    6.0140    2.8460   24.5350 H   0  0  0  0  0  0  0  0  0  0  0  0
    4.9520    4.1510   22.9500 H   0  0  0  0  0  0  0  0  0  0  0  0
    5.9960    5.2680   23.8520 H   0  0  0  0  0  0  0  0  0  0  0  0
    6.5100    4.6690   22.2680 H   0  0  0  0  0  0  0  0  0  0  0  0
  1  2  1  0  0  0  0
  1 70  1  0  0  0  0
  1 71  1  0  0  0  0
  1 72  1  0  0  0  0
  2  3  1  0  0  0  0
  2 68  1  0  0  0  0
  2 69  1  0  0  0  0
  3  4  1  0  0  0  0
  3 66  1  0  0  0  0
  3 67  1  0  0  0  0
  4  5  1  0  0  0  0
  4 64  1  0  0  0  0
  4 65  1  0  0  0  0
  5  6  1  0  0  0  0
  5 57  1  0  0  0  0
  6  7  1  0  0  0  0
  6 62  1  0  0  0  0
  6 63  1  0  0  0  0
  7  8  1  6  0  0  0
  7 28  1  0  0  0  0
  7 50  1  0  0  0  0
  8  9  2  0  0  0  0
  8 10  1  0  0  0  0
 10 11  1  0  0  0  0
 10 27  1  0  0  0  0
 11 12  2  0  0  0  0
 11 20  1  0  0  0  0
 12 13  1  0  0  0  0
 12 26  1  0  0  0  0
 13 14  2  0  0  0  0
 14 15  1  0  0  0  0
 14 25  1  0  0  0  0
 15 16  2  0  0  0  0
 15 20  1  0  0  0  0
 16 17  1  0  0  0  0
 16 24  1  0  0  0  0
 17 18  2  0  0  0  0
 17 23  1  0  0  0  0
 18 19  1  0  0  0  0
 18 22  1  0  0  0  0
 19 20  2  0  0  0  0
 19 21  1  0  0  0  0
 27 28  1  0  0  0  0
 27 48  1  0  0  0  0
 27 49  1  0  0  0  0
 28 29  1  0  0  0  0
 28 47  1  6  0  0  0
 29 30  1  0  0  0  0
 29 45  1  0  0  0  0
 29 46  1  0  0  0  0
 30 31  1  0  0  0  0
 31 32  1  0  0  0  0
 31 43  1  0  0  0  0
 31 44  1  0  0  0  0
 32 33  1  0  0  0  0
 32 37  1  0  0  0  0
 32 42  1  0  0  0  0
 33 34  1  0  0  0  0
 33 40  1  0  0  0  0
 33 41  1  0  0  0  0
 34 35  2  0  0  0  0
 34 36  2  0  0  0  0
 34 37  1  0  0  0  0
 37 38  1  0  0  0  0
 37 39  1  0  0  0  0
 50 51  2  0  0  0  0
 50 56  1  0  0  0  0
 51 52  1  0  0  0  0
 51 61  1  0  0  0  0
 52 53  1  0  0  0  0
 52 54  2  0  0  0  0
 54 55  1  0  0  0  0
 54 60  1  0  0  0  0
 55 56  2  0  0  0  0
 55 59  1  0  0  0  0
 56 57  1  0  0  0  0
 57 58  2  0  0  0  0
M  CHG  1   2   1
M  END
>  <MODEL>
       1

$$$$
