output/tmp_first_model_15_30.pdb
 OpenBabel07232601353D

 66 71  0  0  1  0  0  0  0  0999 V2000
    6.5700    4.3590   21.3630 C   0  0  0  0  0  0  0  0  0  0  0  0
    7.5770    3.9620   22.3360 N   0  0  0  0  0  0  0  0  0  0  0  0
    7.1370    3.3080   23.4540 C   0  0  0  0  0  0  0  0  0  0  0  0
    5.9460    3.1150   23.6590 O   0  0  0  0  0  0  0  0  0  0  0  0
    8.1990    2.8190   24.4480 C   0  0  0  0  0  0  0  0  0  0  0  0
    8.8660    1.6280   23.9630 N   0  0  0  0  0  0  0  0  0  0  0  0
    8.0700    0.4100   23.8500 C   0  0  0  0  0  0  0  0  0  0  0  0
    8.4620   -0.3950   22.5930 C   0  0  2  0  0  0  0  0  0  0  0  0
    7.9770    0.2980   21.2980 C   0  0  0  0  0  0  0  0  0  0  0  0
    8.4660    1.2580   20.7420 O   0  0  0  0  0  0  0  0  0  0  0  0
    6.8900   -0.3980   20.8280 N   0  0  0  0  0  0  0  0  0  0  0  0
    6.1230    0.1080   19.7580 C   0  0  0  0  0  0  0  0  0  0  0  0
    6.4710   -0.1940   18.4680 C   0  0  0  0  0  0  0  0  0  0  0  0
    5.7860    0.2360   17.3840 N   0  0  0  0  0  0  0  0  0  0  0  0
    4.7470    1.0030   17.5980 C   0  0  0  0  0  0  0  0  0  0  0  0
    4.2880    1.3980   18.8870 C   0  0  0  0  0  0  0  0  0  0  0  0
    3.1690    2.2510   19.0680 C   0  0  0  0  0  0  0  0  0  0  0  0
    2.7720    2.6240   20.3210 C   0  0  0  0  0  0  0  0  0  0  0  0
    3.4730    2.1640   21.4610 C   0  0  0  0  0  0  0  0  0  0  0  0
    4.5580    1.3340   21.3150 C   0  0  0  0  0  0  0  0  0  0  0  0
    4.9930    0.9330   20.0200 C   0  0  0  0  0  0  0  0  0  0  0  0
    5.1180    1.0260   22.1950 H   0  0  0  0  0  0  0  0  0  0  0  0
    3.1740    2.4900   22.4520 H   0  0  0  0  0  0  0  0  0  0  0  0
    1.9200    3.2860   20.4470 H   0  0  0  0  0  0  0  0  0  0  0  0
    2.6610    2.6140   18.1790 H   0  0  0  0  0  0  0  0  0  0  0  0
    4.2090    1.3600   16.7210 H   0  0  0  0  0  0  0  0  0  0  0  0
    7.3420   -0.8200   18.2840 H   0  0  0  0  0  0  0  0  0  0  0  0
    6.4930   -1.5240   21.6400 C   0  0  0  0  0  0  0  0  0  0  0  0
    7.7370   -1.7710   22.4950 C   0  0  2  0  0  0  0  0  0  0  0  0
    7.4560   -2.5590   23.7820 C   0  0  0  0  0  0  0  0  0  0  0  0
    6.9280   -3.9490   23.4850 C   0  0  0  0  0  0  0  0  0  0  0  0
    5.5530   -4.2050   23.4560 C   0  0  0  0  0  0  0  0  0  0  0  0
    5.0640   -5.4730   23.1530 C   0  0  0  0  0  0  0  0  0  0  0  0
    5.9480   -6.5070   22.8500 C   0  0  0  0  0  0  0  0  0  0  0  0
    7.3190   -6.2620   22.8570 C   0  0  0  0  0  0  0  0  0  0  0  0
    7.8020   -4.9960   23.1750 C   0  0  0  0  0  0  0  0  0  0  0  0
    8.8780   -4.8220   23.1980 H   0  0  0  0  0  0  0  0  0  0  0  0
    8.0180   -7.0700   22.6500 H   0  0  0  0  0  0  0  0  0  0  0  0
    5.5700   -7.5030   22.6330 H   0  0  0  0  0  0  0  0  0  0  0  0
    3.9930   -5.6590   23.1700 H   0  0  0  0  0  0  0  0  0  0  0  0
    4.8550   -3.3940   23.6670 H   0  0  0  0  0  0  0  0  0  0  0  0
    6.7300   -2.0110   24.3960 H   0  0  0  0  0  0  0  0  0  0  0  0
    8.3860   -2.6330   24.3610 H   0  0  0  0  0  0  0  0  0  0  0  0
    8.3890   -2.4100   21.8990 H   0  0  0  0  0  0  0  0  0  0  0  0
    5.6070   -1.2930   22.2540 H   0  0  0  0  0  0  0  0  0  0  0  0
    6.2480   -2.3950   21.0200 H   0  0  0  0  0  0  0  0  0  0  0  0
    9.9630   -0.4800   22.5120 C   0  0  0  0  0  0  0  0  0  0  0  0
   10.5260   -1.3850   21.6090 C   0  0  0  0  0  0  0  0  0  0  0  0
   11.8850   -1.4220   21.4210 C   0  0  0  0  0  0  0  0  0  0  0  0
   12.4510   -2.5020   20.1840 Cl  0  0  0  0  0  0  0  0  0  0  0  0
   12.7400   -0.6070   22.1610 C   0  0  0  0  0  0  0  0  0  0  0  0
   12.1900    0.3030   23.0460 C   0  0  0  0  0  0  0  0  0  0  0  0
   10.8040    0.4250   23.1650 C   0  0  0  0  0  0  0  0  0  0  0  0
   10.2400    1.5950   23.9160 C   0  0  0  0  0  0  0  0  0  0  0  0
   10.9470    2.4590   24.4090 O   0  0  0  0  0  0  0  0  0  0  0  0
   12.8240    0.9570   23.6350 H   0  0  0  0  0  0  0  0  0  0  0  0
   13.8080   -0.6770   21.9980 H   0  0  0  0  0  0  0  0  0  0  0  0
    9.9370   -2.0650   21.0050 H   0  0  0  0  0  0  0  0  0  0  0  0
    8.2310   -0.2200   24.7390 H   0  0  0  0  0  0  0  0  0  0  0  0
    7.0090    0.6890   23.8070 H   0  0  0  0  0  0  0  0  0  0  0  0
    8.9740    3.5650   24.6530 H   0  0  0  0  0  0  0  0  0  0  0  0
    7.6740    2.6180   25.3870 H   0  0  0  0  0  0  0  0  0  0  0  0
    8.4790    3.7150   21.9460 H   0  0  0  0  0  0  0  0  0  0  0  0
    5.7870    4.9270   21.8680 H   0  0  0  0  0  0  0  0  0  0  0  0
    6.0990    3.4800   20.9030 H   0  0  0  0  0  0  0  0  0  0  0  0
    7.0100    4.9940   20.5940 H   0  0  0  0  0  0  0  0  0  0  0  0
  1  2  1  0  0  0  0
  1 64  1  0  0  0  0
  1 65  1  0  0  0  0
  1 66  1  0  0  0  0
  2  3  1  0  0  0  0
  2 63  1  0  0  0  0
  3  4  2  0  0  0  0
  3  5  1  0  0  0  0
  5  6  1  0  0  0  0
  5 61  1  0  0  0  0
  5 62  1  0  0  0  0
  6  7  1  0  0  0  0
  6 54  1  0  0  0  0
  7  8  1  0  0  0  0
  7 59  1  0  0  0  0
  7 60  1  0  0  0  0
  8  9  1  6  0  0  0
  8 29  1  0  0  0  0
  8 47  1  0  0  0  0
  9 10  2  0  0  0  0
  9 11  1  0  0  0  0
 11 12  1  0  0  0  0
 11 28  1  0  0  0  0
 12 13  2  0  0  0  0
 12 21  1  0  0  0  0
 13 14  1  0  0  0  0
 13 27  1  0  0  0  0
 14 15  2  0  0  0  0
 15 16  1  0  0  0  0
 15 26  1  0  0  0  0
 16 17  2  0  0  0  0
 16 21  1  0  0  0  0
 17 18  1  0  0  0  0
 17 25  1  0  0  0  0
 18 19  2  0  0  0  0
 18 24  1  0  0  0  0
 19 20  1  0  0  0  0
 19 23  1  0  0  0  0
 20 21  2  0  0  0  0
 20 22  1  0  0  0  0
 28 29  1  0  0  0  0
 28 45  1  0  0  0  0
 28 46  1  0  0  0  0
 29 30  1  0  0  0  0
 29 44  1  6  0  0  0
 30 31  1  0  0  0  0
 30 42  1  0  0  0  0
 30 43  1  0  0  0  0
 31 32  2  0  0  0  0
 31 36  1  0  0  0  0
 32 33  1  0  0  0  0
 32 41  1  0  0  0  0
 33 34  2  0  0  0  0
 33 40  1  0  0  0  0
 34 35  1  0  0  0  0
 34 39  1  0  0  0  0
 35 36  2  0  0  0  0
 35 38  1  0  0  0  0
 36 37  1  0  0  0  0
 47 48  2  0  0  0  0
 47 53  1  0  0  0  0
 48 49  1  0  0  0  0
 48 58  1  0  0  0  0
 49 50  1  0  0  0  0
 49 51  2  0  0  0  0
 51 52  1  0  0  0  0
 51 57  1  0  0  0  0
 52 53  2  0  0  0  0
 52 56  1  0  0  0  0
 53 54  1  0  0  0  0
 54 55  2  0  0  0  0
M  END
>  <MODEL>
       1

$$$$
