output/tmp_first_model_7_74.pdb
 OpenBabel07222621533D

 55 60  0  0  1  0  0  0  0  0999 V2000
    7.7350   -3.0210   23.2860 C   0  0  0  0  0  0  0  0  0  0  0  0
    8.0060   -1.9440   22.2470 C   0  0  1  0  0  0  0  0  0  0  0  0
    6.8320   -1.8230   21.2670 C   0  0  0  0  0  0  0  0  0  0  0  0
    6.8540   -0.4360   20.8780 N   0  0  0  0  0  0  0  0  0  0  0  0
    6.0310    0.0460   19.8340 C   0  0  0  0  0  0  0  0  0  0  0  0
    6.4110   -0.1770   18.5370 C   0  0  0  0  0  0  0  0  0  0  0  0
    5.7340    0.2720   17.4580 N   0  0  0  0  0  0  0  0  0  0  0  0
    4.6540    0.9780   17.6750 C   0  0  0  0  0  0  0  0  0  0  0  0
    4.0970    1.1990   18.9620 C   0  0  0  0  0  0  0  0  0  0  0  0
    2.8690    1.8910   19.1240 C   0  0  0  0  0  0  0  0  0  0  0  0
    2.3110    2.0330   20.3660 C   0  0  0  0  0  0  0  0  0  0  0  0
    2.9460    1.4720   21.5000 C   0  0  0  0  0  0  0  0  0  0  0  0
    4.1460    0.8120   21.3670 C   0  0  0  0  0  0  0  0  0  0  0  0
    4.7690    0.6780   20.0880 C   0  0  0  0  0  0  0  0  0  0  0  0
    4.6490    0.4060   22.2400 H   0  0  0  0  0  0  0  0  0  0  0  0
    2.4900    1.6000   22.4810 H   0  0  0  0  0  0  0  0  0  0  0  0
    1.3860    2.5940   20.4790 H   0  0  0  0  0  0  0  0  0  0  0  0
    2.4040    2.2990   18.2310 H   0  0  0  0  0  0  0  0  0  0  0  0
    4.1500    1.3750   16.7970 H   0  0  0  0  0  0  0  0  0  0  0  0
    7.3430   -0.7050   18.3350 H   0  0  0  0  0  0  0  0  0  0  0  0
    7.6490    0.3750   21.6590 C   0  0  0  0  0  0  0  0  0  0  0  0
    7.7740    1.5740   21.5000 O   0  0  0  0  0  0  0  0  0  0  0  0
    8.2610   -0.4860   22.7850 C   0  0  1  0  0  0  0  0  0  0  0  0
    7.4530   -0.1190   24.0580 C   0  0  0  0  0  0  0  0  0  0  0  0
    8.0620   -0.5930   25.2940 N   0  0  0  0  0  0  0  0  0  0  0  0
    7.2130   -0.9300   26.4170 C   0  0  0  0  0  0  0  0  0  0  0  0
    6.9910   -2.4060   26.5560 C   0  0  0  0  0  0  0  0  0  0  0  0
    7.9280   -3.4490   26.8050 C   0  0  0  0  0  0  0  0  0  0  0  0
    7.1380   -4.5370   26.9520 C   0  0  0  0  0  0  0  0  0  0  0  0
    5.8510   -4.2140   26.7770 O   0  0  0  0  0  0  0  0  0  0  0  0
    5.7650   -2.8590   26.5220 N   0  0  0  0  0  0  0  0  0  0  0  0
    7.3220   -5.5690   27.2100 H   0  0  0  0  0  0  0  0  0  0  0  0
    9.0050   -3.3990   26.8870 H   0  0  0  0  0  0  0  0  0  0  0  0
    6.2380   -0.4540   26.2960 H   0  0  0  0  0  0  0  0  0  0  0  0
    7.7020   -0.5470   27.3170 H   0  0  0  0  0  0  0  0  0  0  0  0
    9.3990   -0.4550   25.5420 C   0  0  0  0  0  0  0  0  0  0  0  0
    9.8800   -0.5070   26.6680 O   0  0  0  0  0  0  0  0  0  0  0  0
   10.2580   -0.2460   24.3520 C   0  0  0  0  0  0  0  0  0  0  0  0
   11.6230   -0.1150   24.6000 C   0  0  0  0  0  0  0  0  0  0  0  0
   12.5070    0.1480   23.5820 C   0  0  0  0  0  0  0  0  0  0  0  0
   11.9790    0.2550   22.3040 C   0  0  0  0  0  0  0  0  0  0  0  0
   12.8410    0.5520   21.3220 F   0  0  0  0  0  0  0  0  0  0  0  0
   10.6360    0.0630   22.0180 C   0  0  0  0  0  0  0  0  0  0  0  0
    9.7330   -0.1970   23.0560 C   0  0  0  0  0  0  0  0  0  0  0  0
   10.2950    0.1150   20.9930 H   0  0  0  0  0  0  0  0  0  0  0  0
   13.5720    0.2760   23.7510 H   0  0  0  0  0  0  0  0  0  0  0  0
   11.9670   -0.2220   25.6200 H   0  0  0  0  0  0  0  0  0  0  0  0
    7.3430    0.9750   24.0820 H   0  0  0  0  0  0  0  0  0  0  0  0
    6.4450   -0.5450   23.9840 H   0  0  0  0  0  0  0  0  0  0  0  0
    5.8800   -2.1110   21.7460 H   0  0  0  0  0  0  0  0  0  0  0  0
    6.9360   -2.4580   20.3840 H   0  0  0  0  0  0  0  0  0  0  0  0
    8.9050   -2.2130   21.6740 H   0  0  0  0  0  0  0  0  0  0  0  0
    7.6870   -4.0020   22.8010 H   0  0  0  0  0  0  0  0  0  0  0  0
    8.5080   -3.0360   24.0580 H   0  0  0  0  0  0  0  0  0  0  0  0
    6.7720   -2.8350   23.7730 H   0  0  0  0  0  0  0  0  0  0  0  0
  1  2  1  0  0  0  0
  1 53  1  0  0  0  0
  1 54  1  0  0  0  0
  1 55  1  0  0  0  0
  2  3  1  0  0  0  0
  2 23  1  0  0  0  0
  2 52  1  6  0  0  0
  3  4  1  0  0  0  0
  3 50  1  0  0  0  0
  3 51  1  0  0  0  0
  4  5  1  0  0  0  0
  4 21  1  0  0  0  0
  5  6  2  0  0  0  0
  5 14  1  0  0  0  0
  6  7  1  0  0  0  0
  6 20  1  0  0  0  0
  7  8  2  0  0  0  0
  8  9  1  0  0  0  0
  8 19  1  0  0  0  0
  9 10  2  0  0  0  0
  9 14  1  0  0  0  0
 10 11  1  0  0  0  0
 10 18  1  0  0  0  0
 11 12  2  0  0  0  0
 11 17  1  0  0  0  0
 12 13  1  0  0  0  0
 12 16  1  0  0  0  0
 13 14  2  0  0  0  0
 13 15  1  0  0  0  0
 21 22  2  0  0  0  0
 23 21  1  6  0  0  0
 23 24  1  0  0  0  0
 23 44  1  0  0  0  0
 24 25  1  0  0  0  0
 24 48  1  0  0  0  0
 24 49  1  0  0  0  0
 25 26  1  0  0  0  0
 25 36  1  0  0  0  0
 26 27  1  0  0  0  0
 26 34  1  0  0  0  0
 26 35  1  0  0  0  0
 27 28  1  0  0  0  0
 27 31  2  0  0  0  0
 28 29  2  0  0  0  0
 28 33  1  0  0  0  0
 29 30  1  0  0  0  0
 29 32  1  0  0  0  0
 30 31  1  0  0  0  0
 36 37  2  0  0  0  0
 36 38  1  0  0  0  0
 38 39  2  0  0  0  0
 38 44  1  0  0  0  0
 39 40  1  0  0  0  0
 39 47  1  0  0  0  0
 40 41  2  0  0  0  0
 40 46  1  0  0  0  0
 41 42  1  0  0  0  0
 41 43  1  0  0  0  0
 43 44  2  0  0  0  0
 43 45  1  0  0  0  0
M  END
>  <MODEL>
       1

$$$$
