output/tmp_first_model_15_42.pdb
 OpenBabel07232601353D

 60 65  0  0  1  0  0  0  0  0999 V2000
    6.5980    4.3710   21.3390 C   0  0  0  0  0  0  0  0  0  0  0  0
    7.5910    3.9940   22.3320 N   0  0  0  0  0  0  0  0  0  0  0  0
    7.1320    3.3330   23.4380 C   0  0  0  0  0  0  0  0  0  0  0  0
    5.9430    3.1280   23.6210 O   0  0  0  0  0  0  0  0  0  0  0  0
    8.1600    2.8400   24.4550 C   0  0  0  0  0  0  0  0  0  0  0  0
    8.8360    1.6530   23.9800 N   0  0  0  0  0  0  0  0  0  0  0  0
    8.0560    0.4270   23.8730 C   0  0  0  0  0  0  0  0  0  0  0  0
    8.4540   -0.3700   22.6150 C   0  0  2  0  0  0  0  0  0  0  0  0
    7.9510    0.2980   21.3160 C   0  0  0  0  0  0  0  0  0  0  0  0
    8.4190    1.2740   20.7580 O   0  0  0  0  0  0  0  0  0  0  0  0
    6.8920   -0.4350   20.8310 N   0  0  0  0  0  0  0  0  0  0  0  0
    6.1120    0.0730   19.7690 C   0  0  0  0  0  0  0  0  0  0  0  0
    6.4660   -0.2120   18.4760 C   0  0  0  0  0  0  0  0  0  0  0  0
    5.7910    0.2290   17.3920 N   0  0  0  0  0  0  0  0  0  0  0  0
    4.7530    1.0000   17.6060 C   0  0  0  0  0  0  0  0  0  0  0  0
    4.2930    1.3920   18.8950 C   0  0  0  0  0  0  0  0  0  0  0  0
    3.1760    2.2470   19.0710 C   0  0  0  0  0  0  0  0  0  0  0  0
    2.7770    2.6230   20.3240 C   0  0  0  0  0  0  0  0  0  0  0  0
    3.4770    2.1630   21.4620 C   0  0  0  0  0  0  0  0  0  0  0  0
    4.5600    1.3290   21.3210 C   0  0  0  0  0  0  0  0  0  0  0  0
    4.9930    0.9180   20.0280 C   0  0  0  0  0  0  0  0  0  0  0  0
    5.1160    1.0200   22.2020 H   0  0  0  0  0  0  0  0  0  0  0  0
    3.1740    2.4900   22.4520 H   0  0  0  0  0  0  0  0  0  0  0  0
    1.9230    3.2810   20.4460 H   0  0  0  0  0  0  0  0  0  0  0  0
    2.6660    2.6080   18.1830 H   0  0  0  0  0  0  0  0  0  0  0  0
    4.2180    1.3580   16.7290 H   0  0  0  0  0  0  0  0  0  0  0  0
    7.3380   -0.8360   18.2930 H   0  0  0  0  0  0  0  0  0  0  0  0
    6.5280   -1.5730   21.6450 C   0  0  0  0  0  0  0  0  0  0  0  0
    7.7540   -1.7510   22.5460 C   0  0  2  0  0  0  0  0  0  0  0  0
    7.4270   -2.4980   23.8440 C   0  0  0  0  0  0  0  0  0  0  0  0
    6.8890   -3.8340   23.4320 C   0  0  0  0  0  0  0  0  0  0  0  0
    5.5960   -4.1220   23.3660 N   0  0  0  0  0  0  0  0  0  0  0  0
    5.5450   -5.3470   22.8460 N   0  0  0  0  0  0  0  0  0  0  0  0
    6.7580   -5.7660   22.6030 N   0  5  0  0  0  0  0  0  0  0  0  0
    7.6320   -4.8270   22.9620 N   0  0  0  0  0  0  0  0  0  0  0  0
    6.6600   -1.9820   24.4300 H   0  0  0  0  0  0  0  0  0  0  0  0
    8.3300   -2.6340   24.4490 H   0  0  0  0  0  0  0  0  0  0  0  0
    8.4350   -2.4240   22.0190 H   0  0  0  0  0  0  0  0  0  0  0  0
    6.3510   -2.4790   21.0530 H   0  0  0  0  0  0  0  0  0  0  0  0
    5.6150   -1.3800   22.2330 H   0  0  0  0  0  0  0  0  0  0  0  0
    9.9580   -0.4420   22.5340 C   0  0  0  0  0  0  0  0  0  0  0  0
   10.5220   -1.3370   21.6240 C   0  0  0  0  0  0  0  0  0  0  0  0
   11.8820   -1.3780   21.4450 C   0  0  0  0  0  0  0  0  0  0  0  0
   12.4590   -2.4610   20.2190 Cl  0  0  0  0  0  0  0  0  0  0  0  0
   12.7350   -0.5740   22.2000 C   0  0  0  0  0  0  0  0  0  0  0  0
   12.1850    0.3450   23.0780 C   0  0  0  0  0  0  0  0  0  0  0  0
   10.7960    0.4590   23.1940 C   0  0  0  0  0  0  0  0  0  0  0  0
   10.2120    1.6250   23.9380 C   0  0  0  0  0  0  0  0  0  0  0  0
   10.9140    2.4970   24.4280 O   0  0  0  0  0  0  0  0  0  0  0  0
   12.8120    1.0150   23.6590 H   0  0  0  0  0  0  0  0  0  0  0  0
   13.8040   -0.6510   22.0590 H   0  0  0  0  0  0  0  0  0  0  0  0
    9.9260   -2.0070   21.0170 H   0  0  0  0  0  0  0  0  0  0  0  0
    6.9890    0.6850   23.8270 H   0  0  0  0  0  0  0  0  0  0  0  0
    8.2300   -0.2090   24.7570 H   0  0  0  0  0  0  0  0  0  0  0  0
    7.6140    2.6210   25.3780 H   0  0  0  0  0  0  0  0  0  0  0  0
    8.9290    3.5780   24.6840 H   0  0  0  0  0  0  0  0  0  0  0  0
    8.5130    3.7860   21.9710 H   0  0  0  0  0  0  0  0  0  0  0  0
    6.1200    3.4760   20.9170 H   0  0  0  0  0  0  0  0  0  0  0  0
    5.8250    4.9750   21.8210 H   0  0  0  0  0  0  0  0  0  0  0  0
    7.0710    4.9670   20.5500 H   0  0  0  0  0  0  0  0  0  0  0  0
  1  2  1  0  0  0  0
  1 58  1  0  0  0  0
  1 59  1  0  0  0  0
  1 60  1  0  0  0  0
  2  3  1  0  0  0  0
  2 57  1  0  0  0  0
  3  4  2  0  0  0  0
  3  5  1  0  0  0  0
  5  6  1  0  0  0  0
  5 55  1  0  0  0  0
  5 56  1  0  0  0  0
  6  7  1  0  0  0  0
  6 48  1  0  0  0  0
  7  8  1  0  0  0  0
  7 53  1  0  0  0  0
  7 54  1  0  0  0  0
  8  9  1  6  0  0  0
  8 29  1  0  0  0  0
  8 41  1  0  0  0  0
  9 10  2  0  0  0  0
  9 11  1  0  0  0  0
 11 12  1  0  0  0  0
 11 28  1  0  0  0  0
 12 13  2  0  0  0  0
 12 21  1  0  0  0  0
 13 14  1  0  0  0  0
 13 27  1  0  0  0  0
 14 15  2  0  0  0  0
 15 16  1  0  0  0  0
 15 26  1  0  0  0  0
 16 17  2  0  0  0  0
 16 21  1  0  0  0  0
 17 18  1  0  0  0  0
 17 25  1  0  0  0  0
 18 19  2  0  0  0  0
 18 24  1  0  0  0  0
 19 20  1  0  0  0  0
 19 23  1  0  0  0  0
 20 21  2  0  0  0  0
 20 22  1  0  0  0  0
 28 29  1  0  0  0  0
 28 39  1  0  0  0  0
 28 40  1  0  0  0  0
 29 30  1  0  0  0  0
 29 38  1  6  0  0  0
 30 31  1  0  0  0  0
 30 36  1  0  0  0  0
 30 37  1  0  0  0  0
 31 32  1  0  0  0  0
 31 35  2  0  0  0  0
 32 33  2  0  0  0  0
 33 34  1  0  0  0  0
 34 35  1  0  0  0  0
 41 42  2  0  0  0  0
 41 47  1  0  0  0  0
 42 43  1  0  0  0  0
 42 52  1  0  0  0  0
 43 44  1  0  0  0  0
 43 45  2  0  0  0  0
 45 46  1  0  0  0  0
 45 51  1  0  0  0  0
 46 47  2  0  0  0  0
 46 50  1  0  0  0  0
 47 48  1  0  0  0  0
 48 49  2  0  0  0  0
M  CHG  1  34  -1
M  END
>  <MODEL>
       1

$$$$
