output/tmp_first_model_12_0.pdb
 OpenBabel07232600143D

 63 69  0  0  1  0  0  0  0  0999 V2000
   10.4840    2.7890   24.2460 O   0  0  0  0  0  0  0  0  0  0  0  0
    9.8850    1.7680   23.9230 C   0  0  0  0  0  0  0  0  0  0  0  0
   10.5960    0.5900   23.3290 C   0  0  0  0  0  0  0  0  0  0  0  0
   11.9890    0.5790   23.3520 C   0  0  0  0  0  0  0  0  0  0  0  0
   12.6910   -0.3380   22.5970 C   0  0  0  0  0  0  0  0  0  0  0  0
   11.9650   -1.2360   21.8130 C   0  0  0  0  0  0  0  0  0  0  0  0
   12.7580   -2.2100   20.6150 Cl  0  0  0  0  0  0  0  0  0  0  0  0
   10.5910   -1.3230   21.8860 C   0  0  0  0  0  0  0  0  0  0  0  0
    9.8800   -0.4240   22.6840 C   0  0  0  0  0  0  0  0  0  0  0  0
    8.3670   -0.4110   22.6670 C   0  0  1  0  0  0  0  0  0  0  0  0
    7.8770    0.3460   23.9280 C   0  0  0  0  0  0  0  0  0  0  0  0
    8.5270    1.6410   24.0480 N   0  0  0  0  0  0  0  0  0  0  0  0
    7.7660    2.8230   24.3990 C   0  0  0  0  0  0  0  0  0  0  0  0
    7.5200    3.7310   23.2330 C   0  0  0  0  0  0  0  0  0  0  0  0
    8.0100    4.8950   22.9650 N   0  0  0  0  0  0  0  0  0  0  0  0
    7.3610    5.3460   21.8210 N   0  0  0  0  0  0  0  0  0  0  0  0
    6.5270    4.4190   21.4950 C   0  0  0  0  0  0  0  0  0  0  0  0
    6.5710    3.3640   22.3410 O   0  0  0  0  0  0  0  0  0  0  0  0
    5.7820    4.4420   20.7070 H   0  0  0  0  0  0  0  0  0  0  0  0
    6.7980    2.5120   24.8030 H   0  0  0  0  0  0  0  0  0  0  0  0
    8.3040    3.3680   25.1780 H   0  0  0  0  0  0  0  0  0  0  0  0
    6.7940    0.5100   23.8620 H   0  0  0  0  0  0  0  0  0  0  0  0
    8.0880   -0.2670   24.8160 H   0  0  0  0  0  0  0  0  0  0  0  0
    7.8980    0.3290   21.3900 C   0  0  0  0  0  0  0  0  0  0  0  0
    8.2930    1.3870   20.9590 O   0  0  0  0  0  0  0  0  0  0  0  0
    6.9160   -0.4390   20.7960 N   0  0  0  0  0  0  0  0  0  0  0  0
    6.1270    0.0920   19.7480 C   0  0  0  0  0  0  0  0  0  0  0  0
    6.4600   -0.1990   18.4540 C   0  0  0  0  0  0  0  0  0  0  0  0
    5.7780    0.2490   17.3770 N   0  0  0  0  0  0  0  0  0  0  0  0
    4.7470    1.0250   17.5960 C   0  0  0  0  0  0  0  0  0  0  0  0
    4.2960    1.4050   18.8930 C   0  0  0  0  0  0  0  0  0  0  0  0
    3.1700    2.2490   19.0770 C   0  0  0  0  0  0  0  0  0  0  0  0
    2.7610    2.5980   20.3320 C   0  0  0  0  0  0  0  0  0  0  0  0
    3.4460    2.1040   21.4620 C   0  0  0  0  0  0  0  0  0  0  0  0
    4.5380    1.2840   21.3150 C   0  0  0  0  0  0  0  0  0  0  0  0
    4.9950    0.9180   20.0160 C   0  0  0  0  0  0  0  0  0  0  0  0
    5.0660    0.9360   22.1980 H   0  0  0  0  0  0  0  0  0  0  0  0
    3.1090    2.3910   22.4540 H   0  0  0  0  0  0  0  0  0  0  0  0
    1.9090    3.2580   20.4610 H   0  0  0  0  0  0  0  0  0  0  0  0
    2.6520    2.6050   18.1910 H   0  0  0  0  0  0  0  0  0  0  0  0
    4.2070    1.3930   16.7230 H   0  0  0  0  0  0  0  0  0  0  0  0
    7.3240   -0.8310   18.2600 H   0  0  0  0  0  0  0  0  0  0  0  0
    6.4840   -1.5660   21.5940 C   0  0  0  0  0  0  0  0  0  0  0  0
    7.6920   -1.8030   22.5040 C   0  0  2  0  0  0  0  0  0  0  0  0
    7.4170   -2.6420   23.7600 C   0  0  0  0  0  0  0  0  0  0  0  0
    6.2020   -2.3090   24.4860 N   0  0  0  0  0  0  0  0  0  0  0  0
    5.0170   -2.9270   24.2780 C   0  0  0  0  0  0  0  0  0  0  0  0
    3.9970   -2.5400   25.0760 N   0  0  0  0  0  0  0  0  0  0  0  0
    2.8320   -3.0810   24.7650 C   0  0  0  0  0  0  0  0  0  0  0  0
    2.6000   -3.9720   23.7960 N   0  0  0  0  0  0  0  0  0  0  0  0
    3.6900   -4.3200   23.1140 C   0  0  0  0  0  0  0  0  0  0  0  0
    4.9200   -3.8480   23.2910 N   0  0  0  0  0  0  0  0  0  0  0  0
    3.5600   -5.0670   22.3230 H   0  0  0  0  0  0  0  0  0  0  0  0
    1.9600   -2.7680   25.3490 H   0  0  0  0  0  0  0  0  0  0  0  0
    6.2310   -1.6620   25.2660 H   0  0  0  0  0  0  0  0  0  0  0  0
    7.3220   -3.6890   23.4630 H   0  0  0  0  0  0  0  0  0  0  0  0
    8.2710   -2.5610   24.4440 H   0  0  0  0  0  0  0  0  0  0  0  0
    8.3920   -2.4040   21.9180 H   0  0  0  0  0  0  0  0  0  0  0  0
    6.2760   -2.4370   20.9680 H   0  0  0  0  0  0  0  0  0  0  0  0
    5.5600   -1.3300   22.1380 H   0  0  0  0  0  0  0  0  0  0  0  0
   10.1070   -2.0810   21.2790 H   0  0  0  0  0  0  0  0  0  0  0  0
   13.7740   -0.3340   22.5660 H   0  0  0  0  0  0  0  0  0  0  0  0
   12.4940    1.3420   23.9320 H   0  0  0  0  0  0  0  0  0  0  0  0
  1  2  2  0  0  0  0
  2  3  1  0  0  0  0
  2 12  1  0  0  0  0
  3  4  2  0  0  0  0
  3  9  1  0  0  0  0
  4  5  1  0  0  0  0
  4 63  1  0  0  0  0
  5  6  2  0  0  0  0
  5 62  1  0  0  0  0
  6  7  1  0  0  0  0
  6  8  1  0  0  0  0
  8  9  2  0  0  0  0
  8 61  1  0  0  0  0
 10  9  1  1  0  0  0
 10 11  1  0  0  0  0
 10 24  1  0  0  0  0
 10 44  1  0  0  0  0
 11 12  1  0  0  0  0
 11 22  1  0  0  0  0
 11 23  1  0  0  0  0
 12 13  1  0  0  0  0
 13 14  1  0  0  0  0
 13 20  1  0  0  0  0
 13 21  1  0  0  0  0
 14 15  2  0  0  0  0
 14 18  1  0  0  0  0
 15 16  1  0  0  0  0
 16 17  2  0  0  0  0
 17 18  1  0  0  0  0
 17 19  1  0  0  0  0
 24 25  2  0  0  0  0
 24 26  1  0  0  0  0
 26 27  1  0  0  0  0
 26 43  1  0  0  0  0
 27 28  2  0  0  0  0
 27 36  1  0  0  0  0
 28 29  1  0  0  0  0
 28 42  1  0  0  0  0
 29 30  2  0  0  0  0
 30 31  1  0  0  0  0
 30 41  1  0  0  0  0
 31 32  2  0  0  0  0
 31 36  1  0  0  0  0
 32 33  1  0  0  0  0
 32 40  1  0  0  0  0
 33 34  2  0  0  0  0
 33 39  1  0  0  0  0
 34 35  1  0  0  0  0
 34 38  1  0  0  0  0
 35 36  2  0  0  0  0
 35 37  1  0  0  0  0
 43 44  1  0  0  0  0
 43 59  1  0  0  0  0
 43 60  1  0  0  0  0
 44 45  1  0  0  0  0
 44 58  1  6  0  0  0
 45 46  1  0  0  0  0
 45 56  1  0  0  0  0
 45 57  1  0  0  0  0
 46 47  1  0  0  0  0
 46 55  1  0  0  0  0
 47 48  2  0  0  0  0
 47 52  1  0  0  0  0
 48 49  1  0  0  0  0
 49 50  2  0  0  0  0
 49 54  1  0  0  0  0
 50 51  1  0  0  0  0
 51 52  2  0  0  0  0
 51 53  1  0  0  0  0
M  END
>  <MODEL>
       1

$$$$
