output/tmp_first_model_6_64.pdb
 OpenBabel07222621163D

 66 71  0  0  1  0  0  0  0  0999 V2000
    7.8930   -3.0280   23.1970 C   0  0  0  0  0  0  0  0  0  0  0  0
    8.0860   -1.9070   22.1830 C   0  0  1  0  0  0  0  0  0  0  0  0
    6.9050   -1.7720   21.2190 C   0  0  0  0  0  0  0  0  0  0  0  0
    6.9560   -0.3810   20.8240 N   0  0  0  0  0  0  0  0  0  0  0  0
    6.1570    0.1290   19.7790 C   0  0  0  0  0  0  0  0  0  0  0  0
    6.4520   -0.2250   18.4870 C   0  0  0  0  0  0  0  0  0  0  0  0
    5.7870    0.2120   17.3940 N   0  0  0  0  0  0  0  0  0  0  0  0
    4.7720    1.0200   17.6030 C   0  0  0  0  0  0  0  0  0  0  0  0
    4.3270    1.4210   18.8930 C   0  0  0  0  0  0  0  0  0  0  0  0
    3.2040    2.2730   19.0460 C   0  0  0  0  0  0  0  0  0  0  0  0
    2.7610    2.6170   20.2920 C   0  0  0  0  0  0  0  0  0  0  0  0
    3.4180    2.1240   21.4420 C   0  0  0  0  0  0  0  0  0  0  0  0
    4.5160    1.3100   21.3200 C   0  0  0  0  0  0  0  0  0  0  0  0
    5.0150    0.9530   20.0330 C   0  0  0  0  0  0  0  0  0  0  0  0
    5.0140    0.9490   22.2150 H   0  0  0  0  0  0  0  0  0  0  0  0
    3.0490    2.3970   22.4250 H   0  0  0  0  0  0  0  0  0  0  0  0
    1.8970    3.2640   20.4050 H   0  0  0  0  0  0  0  0  0  0  0  0
    2.7150    2.6400   18.1480 H   0  0  0  0  0  0  0  0  0  0  0  0
    4.2360    1.3830   16.7280 H   0  0  0  0  0  0  0  0  0  0  0  0
    7.2950   -0.8900   18.3010 H   0  0  0  0  0  0  0  0  0  0  0  0
    7.7320    0.4170   21.6380 C   0  0  0  0  0  0  0  0  0  0  0  0
    7.8420    1.6200   21.5070 O   0  0  0  0  0  0  0  0  0  0  0  0
    8.3260   -0.4600   22.7450 C   0  0  1  0  0  0  0  0  0  0  0  0
    7.5070   -0.1290   24.0320 C   0  0  0  0  0  0  0  0  0  0  0  0
    8.0830   -0.7510   25.2100 N   0  0  0  0  0  0  0  0  0  0  0  0
    7.2730   -1.2350   26.3190 C   0  0  0  0  0  0  0  0  0  0  0  0
    7.0230   -0.1530   27.3720 C   0  0  0  0  0  0  0  0  0  0  0  0
    6.0650   -0.5950   28.4270 N   0  3  0  0  0  0  0  0  0  0  0  0
    6.6540   -1.5950   29.4030 C   0  0  0  0  0  0  0  0  0  0  0  0
    5.6600   -1.9480   30.4980 C   0  0  0  0  0  0  0  0  0  0  0  0
    5.2270   -0.7960   31.1990 O   0  0  0  0  0  0  0  0  0  0  0  0
    4.5970    0.1090   30.3110 C   0  0  0  0  0  0  0  0  0  0  0  0
    5.5260    0.5730   29.2010 C   0  0  0  0  0  0  0  0  0  0  0  0
    5.0030    1.2440   28.5120 H   0  0  0  0  0  0  0  0  0  0  0  0
    6.3750    1.1110   29.6310 H   0  0  0  0  0  0  0  0  0  0  0  0
    4.2670    0.9670   30.9020 H   0  0  0  0  0  0  0  0  0  0  0  0
    3.7140   -0.3690   29.8570 H   0  0  0  0  0  0  0  0  0  0  0  0
    6.1350   -2.6110   31.2270 H   0  0  0  0  0  0  0  0  0  0  0  0
    4.7930   -2.4690   30.0620 H   0  0  0  0  0  0  0  0  0  0  0  0
    7.5130   -1.1170   29.8760 H   0  0  0  0  0  0  0  0  0  0  0  0
    6.9820   -2.4900   28.8690 H   0  0  0  0  0  0  0  0  0  0  0  0
    5.2670   -1.0530   27.9410 H   0  0  0  0  0  0  0  0  0  0  0  0
    7.9760    0.1190   27.8400 H   0  0  0  0  0  0  0  0  0  0  0  0
    6.6140    0.7430   26.8850 H   0  0  0  0  0  0  0  0  0  0  0  0
    7.7930   -2.0860   26.7690 H   0  0  0  0  0  0  0  0  0  0  0  0
    6.3140   -1.6070   25.9340 H   0  0  0  0  0  0  0  0  0  0  0  0
    9.4240   -0.6590   25.4270 C   0  0  0  0  0  0  0  0  0  0  0  0
    9.9440   -0.9660   26.4820 O   0  0  0  0  0  0  0  0  0  0  0  0
   10.2830   -0.2390   24.3020 C   0  0  0  0  0  0  0  0  0  0  0  0
   11.6230   -0.0300   24.6110 C   0  0  0  0  0  0  0  0  0  0  0  0
   12.5350    0.1540   23.6090 C   0  0  0  0  0  0  0  0  0  0  0  0
   12.0980    0.0840   22.2910 C   0  0  0  0  0  0  0  0  0  0  0  0
   13.3390    0.1310   21.0780 Cl  0  0  0  0  0  0  0  0  0  0  0  0
   10.7510   -0.0600   21.9720 C   0  0  0  0  0  0  0  0  0  0  0  0
    9.8050   -0.2020   22.9990 C   0  0  0  0  0  0  0  0  0  0  0  0
   10.4460   -0.0540   20.9350 H   0  0  0  0  0  0  0  0  0  0  0  0
   13.5780    0.3560   23.8190 H   0  0  0  0  0  0  0  0  0  0  0  0
   11.8990   -0.0260   25.6580 H   0  0  0  0  0  0  0  0  0  0  0  0
    7.4810    0.9680   24.1400 H   0  0  0  0  0  0  0  0  0  0  0  0
    6.4670   -0.4640   23.9190 H   0  0  0  0  0  0  0  0  0  0  0  0
    5.9500   -2.0320   21.7050 H   0  0  0  0  0  0  0  0  0  0  0  0
    6.9990   -2.4130   20.3400 H   0  0  0  0  0  0  0  0  0  0  0  0
    8.9800   -2.1330   21.5860 H   0  0  0  0  0  0  0  0  0  0  0  0
    6.9770   -2.8630   23.7770 H   0  0  0  0  0  0  0  0  0  0  0  0
    8.7300   -3.0700   23.9000 H   0  0  0  0  0  0  0  0  0  0  0  0
    7.8070   -3.9950   22.6870 H   0  0  0  0  0  0  0  0  0  0  0  0
  1  2  1  0  0  0  0
  1 64  1  0  0  0  0
  1 65  1  0  0  0  0
  1 66  1  0  0  0  0
  2  3  1  0  0  0  0
  2 23  1  0  0  0  0
  2 63  1  6  0  0  0
  3  4  1  0  0  0  0
  3 61  1  0  0  0  0
  3 62  1  0  0  0  0
  4  5  1  0  0  0  0
  4 21  1  0  0  0  0
  5  6  2  0  0  0  0
  5 14  1  0  0  0  0
  6  7  1  0  0  0  0
  6 20  1  0  0  0  0
  7  8  2  0  0  0  0
  8  9  1  0  0  0  0
  8 19  1  0  0  0  0
  9 10  2  0  0  0  0
  9 14  1  0  0  0  0
 10 11  1  0  0  0  0
 10 18  1  0  0  0  0
 11 12  2  0  0  0  0
 11 17  1  0  0  0  0
 12 13  1  0  0  0  0
 12 16  1  0  0  0  0
 13 14  2  0  0  0  0
 13 15  1  0  0  0  0
 21 22  2  0  0  0  0
 23 21  1  6  0  0  0
 23 24  1  0  0  0  0
 23 55  1  0  0  0  0
 24 25  1  0  0  0  0
 24 59  1  0  0  0  0
 24 60  1  0  0  0  0
 25 26  1  0  0  0  0
 25 47  1  0  0  0  0
 26 27  1  0  0  0  0
 26 45  1  0  0  0  0
 26 46  1  0  0  0  0
 27 28  1  0  0  0  0
 27 43  1  0  0  0  0
 27 44  1  0  0  0  0
 28 29  1  0  0  0  0
 28 33  1  0  0  0  0
 28 42  1  0  0  0  0
 29 30  1  0  0  0  0
 29 40  1  0  0  0  0
 29 41  1  0  0  0  0
 30 31  1  0  0  0  0
 30 38  1  0  0  0  0
 30 39  1  0  0  0  0
 31 32  1  0  0  0  0
 32 33  1  0  0  0  0
 32 36  1  0  0  0  0
 32 37  1  0  0  0  0
 33 34  1  0  0  0  0
 33 35  1  0  0  0  0
 47 48  2  0  0  0  0
 47 49  1  0  0  0  0
 49 50  2  0  0  0  0
 49 55  1  0  0  0  0
 50 51  1  0  0  0  0
 50 58  1  0  0  0  0
 51 52  2  0  0  0  0
 51 57  1  0  0  0  0
 52 53  1  0  0  0  0
 52 54  1  0  0  0  0
 54 55  2  0  0  0  0
 54 56  1  0  0  0  0
M  CHG  1  28   1
M  END
>  <MODEL>
       1

$$$$
