output/tmp_first_model_11_79.pdb
 OpenBabel07222623443D

 40 42  0  0  0  0  0  0  0  0999 V2000
    9.7780   -3.8300   24.7440 C   0  0  0  0  0  0  0  0  0  0  0  0
    8.2750   -3.6050   24.8980 C   0  0  0  0  0  0  0  0  0  0  0  0
    7.9120   -2.1140   24.9660 C   0  0  0  0  0  0  0  0  0  0  0  0
    7.7110   -1.4610   23.5990 C   0  0  0  0  0  0  0  0  0  0  0  0
    6.7390   -2.1820   22.7750 N   0  0  0  0  0  0  0  0  0  0  0  0
    6.2120   -1.6820   21.6130 C   0  0  0  0  0  0  0  0  0  0  0  0
    5.2140   -2.1700   21.0980 O   0  0  0  0  0  0  0  0  0  0  0  0
    6.9220   -0.4900   20.9150 C   0  0  0  0  0  0  0  0  0  0  0  0
    6.1180    0.0870   19.7740 C   0  0  0  0  0  0  0  0  0  0  0  0
    6.4210   -0.2130   18.4680 C   0  0  0  0  0  0  0  0  0  0  0  0
    5.7570    0.2370   17.3730 N   0  0  0  0  0  0  0  0  0  0  0  0
    4.7330    1.0320   17.5760 C   0  0  0  0  0  0  0  0  0  0  0  0
    4.2860    1.4200   18.8730 C   0  0  0  0  0  0  0  0  0  0  0  0
    3.1590    2.2690   19.0440 C   0  0  0  0  0  0  0  0  0  0  0  0
    2.7490    2.6240   20.3040 C   0  0  0  0  0  0  0  0  0  0  0  0
    3.4380    2.1380   21.4320 C   0  0  0  0  0  0  0  0  0  0  0  0
    4.5280    1.3130   21.2890 C   0  0  0  0  0  0  0  0  0  0  0  0
    4.9870    0.9350   19.9960 C   0  0  0  0  0  0  0  0  0  0  0  0
    5.0400    0.9430   22.1670 H   0  0  0  0  0  0  0  0  0  0  0  0
    3.1020    2.4210   22.4250 H   0  0  0  0  0  0  0  0  0  0  0  0
    1.8930    3.2800   20.4370 H   0  0  0  0  0  0  0  0  0  0  0  0
    2.6420    2.6450   18.1670 H   0  0  0  0  0  0  0  0  0  0  0  0
    4.1980    1.4000   16.7010 H   0  0  0  0  0  0  0  0  0  0  0  0
    7.2650   -0.8670   18.2490 H   0  0  0  0  0  0  0  0  0  0  0  0
    7.8800   -0.8550   20.5150 H   0  0  0  0  0  0  0  0  0  0  0  0
    7.1750    0.3090   21.6250 H   0  0  0  0  0  0  0  0  0  0  0  0
    6.3040   -3.4980   23.2630 C   0  0  0  0  0  0  0  0  0  0  0  0
    7.4920   -4.3090   23.7710 C   0  0  0  0  0  0  0  0  0  0  0  0
    7.1520   -5.2930   24.1140 H   0  0  0  0  0  0  0  0  0  0  0  0
    8.1490   -4.5100   22.9180 H   0  0  0  0  0  0  0  0  0  0  0  0
    5.8100   -4.0280   22.4470 H   0  0  0  0  0  0  0  0  0  0  0  0
    5.5570   -3.3890   24.0590 H   0  0  0  0  0  0  0  0  0  0  0  0
    7.3650   -0.4340   23.7720 H   0  0  0  0  0  0  0  0  0  0  0  0
    8.6770   -1.3810   23.0830 H   0  0  0  0  0  0  0  0  0  0  0  0
    8.6920   -1.5610   25.4990 H   0  0  0  0  0  0  0  0  0  0  0  0
    7.0100   -1.9730   25.5740 H   0  0  0  0  0  0  0  0  0  0  0  0
    7.9750   -4.0520   25.8530 H   0  0  0  0  0  0  0  0  0  0  0  0
   10.1570   -3.3620   23.8300 H   0  0  0  0  0  0  0  0  0  0  0  0
   10.0150   -4.8950   24.6970 H   0  0  0  0  0  0  0  0  0  0  0  0
   10.3360   -3.4090   25.5830 H   0  0  0  0  0  0  0  0  0  0  0  0
  1  2  1  0  0  0  0
  1 38  1  0  0  0  0
  1 39  1  0  0  0  0
  1 40  1  0  0  0  0
  2  3  1  0  0  0  0
  2 28  1  0  0  0  0
  2 37  1  0  0  0  0
  3  4  1  0  0  0  0
  3 35  1  0  0  0  0
  3 36  1  0  0  0  0
  4  5  1  0  0  0  0
  4 33  1  0  0  0  0
  4 34  1  0  0  0  0
  5  6  1  0  0  0  0
  5 27  1  0  0  0  0
  6  7  2  0  0  0  0
  6  8  1  0  0  0  0
  8  9  1  0  0  0  0
  8 25  1  0  0  0  0
  8 26  1  0  0  0  0
  9 10  2  0  0  0  0
  9 18  1  0  0  0  0
 10 11  1  0  0  0  0
 10 24  1  0  0  0  0
 11 12  2  0  0  0  0
 12 13  1  0  0  0  0
 12 23  1  0  0  0  0
 13 14  2  0  0  0  0
 13 18  1  0  0  0  0
 14 15  1  0  0  0  0
 14 22  1  0  0  0  0
 15 16  2  0  0  0  0
 15 21  1  0  0  0  0
 16 17  1  0  0  0  0
 16 20  1  0  0  0  0
 17 18  2  0  0  0  0
 17 19  1  0  0  0  0
 27 28  1  0  0  0  0
 27 31  1  0  0  0  0
 27 32  1  0  0  0  0
 28 29  1  0  0  0  0
 28 30  1  0  0  0  0
M  END
>  <MODEL>
       1

$$$$
