output/tmp_first_model_1_28.pdb
 OpenBabel07222618483D

 70 75  0  0  1  0  0  0  0  0999 V2000
    5.5890    5.4600   24.8160 C   0  0  0  0  0  0  0  0  0  0  0  0
    5.2930    4.4510   23.7780 N   0  3  0  0  0  0  0  0  0  0  0  0
    6.3820    3.4320   23.6180 C   0  0  0  0  0  0  0  0  0  0  0  0
    6.4280    2.4010   24.7580 C   0  0  0  0  0  0  0  0  0  0  0  0
    7.4300    1.3930   24.4730 N   0  0  0  0  0  0  0  0  0  0  0  0
    7.0280    0.1590   23.8350 C   0  0  0  0  0  0  0  0  0  0  0  0
    7.9720   -0.2880   22.6760 C   0  0  2  0  0  0  0  0  0  0  0  0
    7.5590    0.4030   21.3610 C   0  0  0  0  0  0  0  0  0  0  0  0
    7.8410    1.5320   21.0150 O   0  0  0  0  0  0  0  0  0  0  0  0
    6.8000   -0.4800   20.6200 N   0  0  0  0  0  0  0  0  0  0  0  0
    5.9270   -0.0740   19.5850 C   0  0  0  0  0  0  0  0  0  0  0  0
    6.3730   -0.0790   18.2940 C   0  0  0  0  0  0  0  0  0  0  0  0
    5.6010    0.2070   17.2160 N   0  0  0  0  0  0  0  0  0  0  0  0
    4.3640    0.5740   17.4550 C   0  0  0  0  0  0  0  0  0  0  0  0
    3.7890    0.6760   18.7580 C   0  0  0  0  0  0  0  0  0  0  0  0
    2.4990    1.2300   18.9820 C   0  0  0  0  0  0  0  0  0  0  0  0
    1.9680    1.2890   20.2410 C   0  0  0  0  0  0  0  0  0  0  0  0
    2.7220    0.8260   21.3440 C   0  0  0  0  0  0  0  0  0  0  0  0
    3.9810    0.3160   21.1600 C   0  0  0  0  0  0  0  0  0  0  0  0
    4.5680    0.2750   19.8620 C   0  0  0  0  0  0  0  0  0  0  0  0
    4.5290   -0.0390   22.0250 H   0  0  0  0  0  0  0  0  0  0  0  0
    2.3100    0.8960   22.3440 H   0  0  0  0  0  0  0  0  0  0  0  0
    0.9750    1.6910   20.4020 H   0  0  0  0  0  0  0  0  0  0  0  0
    1.9870    1.6770   18.1390 H   0  0  0  0  0  0  0  0  0  0  0  0
    3.7460    0.8050   16.5890 H   0  0  0  0  0  0  0  0  0  0  0  0
    7.4070   -0.3460   18.0940 H   0  0  0  0  0  0  0  0  0  0  0  0
    6.6200   -1.7710   21.2390 C   0  0  0  0  0  0  0  0  0  0  0  0
    7.7020   -1.7910   22.3180 C   0  0  2  0  0  0  0  0  0  0  0  0
    7.2510   -2.7250   23.4450 C   0  0  0  0  0  0  0  0  0  0  0  0
    8.0160   -2.6030   24.6000 O   0  0  0  0  0  0  0  0  0  0  0  0
    9.2760   -3.2640   24.4620 C   0  0  0  0  0  0  0  0  0  0  0  0
   10.3110   -3.0410   25.5210 C   0  0  0  0  0  0  0  0  0  0  0  0
    8.6550   -2.8930   27.6840 F   0  0  0  0  0  0  0  0  0  0  0  0
   10.1540   -3.1540   25.8900 C   0  0  0  0  0  0  0  0  0  0  0  0
   12.8130   -3.1320   25.0960 O   0  0  0  0  0  0  0  0  0  0  0  0
   11.7390   -3.7790   25.0540 C   0  0  0  0  0  0  0  0  0  0  0  0
   11.5450   -3.9470   23.9430 H   0  0  0  0  0  0  0  0  0  0  0  0
   11.7410   -4.7670   25.6180 H   0  0  0  0  0  0  0  0  0  0  0  0
    9.3870   -3.1170   26.9310 H   0  0  0  0  0  0  0  0  0  0  0  0
   10.6380   -1.8940   25.7590 H   0  0  0  0  0  0  0  0  0  0  0  0
    9.0730   -4.3300   24.2950 H   0  0  0  0  0  0  0  0  0  0  0  0
    9.6920   -2.8750   23.4900 H   0  0  0  0  0  0  0  0  0  0  0  0
    6.2190   -2.4850   23.7350 H   0  0  0  0  0  0  0  0  0  0  0  0
    7.2350   -3.7750   23.0960 H   0  0  0  0  0  0  0  0  0  0  0  0
    8.6240   -2.1860   21.8720 H   0  0  0  0  0  0  0  0  0  0  0  0
    5.6120   -1.8700   21.6750 H   0  0  0  0  0  0  0  0  0  0  0  0
    6.7290   -2.5750   20.5010 H   0  0  0  0  0  0  0  0  0  0  0  0
    9.4120    0.0920   22.9800 C   0  0  0  0  0  0  0  0  0  0  0  0
   10.4410   -0.2380   22.0770 C   0  0  0  0  0  0  0  0  0  0  0  0
   11.7530    0.1180   22.3570 C   0  0  0  0  0  0  0  0  0  0  0  0
   13.0360   -0.2870   21.2550 Cl  0  0  0  0  0  0  0  0  0  0  0  0
   12.1000    0.7960   23.5270 C   0  0  0  0  0  0  0  0  0  0  0  0
   11.0880    1.1660   24.3860 C   0  0  0  0  0  0  0  0  0  0  0  0
    9.7580    0.8830   24.0840 C   0  0  0  0  0  0  0  0  0  0  0  0
    8.7160    1.6070   24.8810 C   0  0  0  0  0  0  0  0  0  0  0  0
    9.0090    2.3870   25.7760 O   0  0  0  0  0  0  0  0  0  0  0  0
   11.2920    1.7550   25.2710 H   0  0  0  0  0  0  0  0  0  0  0  0
   13.1420    1.0220   23.7310 H   0  0  0  0  0  0  0  0  0  0  0  0
   10.2210   -0.7230   21.1270 H   0  0  0  0  0  0  0  0  0  0  0  0
    7.0020   -0.6400   24.5830 H   0  0  0  0  0  0  0  0  0  0  0  0
    6.0100    0.2740   23.4450 H   0  0  0  0  0  0  0  0  0  0  0  0
    6.6960    2.8560   25.7170 H   0  0  0  0  0  0  0  0  0  0  0  0
    5.4560    1.9000   24.8650 H   0  0  0  0  0  0  0  0  0  0  0  0
    7.3400    3.9520   23.5760 H   0  0  0  0  0  0  0  0  0  0  0  0
    6.2350    2.9280   22.6640 H   0  0  0  0  0  0  0  0  0  0  0  0
    4.4280    3.9240   24.0460 H   0  0  0  0  0  0  0  0  0  0  0  0
    5.1300    4.9400   22.8730 H   0  0  0  0  0  0  0  0  0  0  0  0
    4.8530    6.2600   24.7840 H   0  0  0  0  0  0  0  0  0  0  0  0
    5.5820    5.0160   25.8120 H   0  0  0  0  0  0  0  0  0  0  0  0
    6.5810    5.8850   24.6540 H   0  0  0  0  0  0  0  0  0  0  0  0
  1  2  1  0  0  0  0
  1 68  1  0  0  0  0
  1 69  1  0  0  0  0
  1 70  1  0  0  0  0
  2  3  1  0  0  0  0
  2 66  1  0  0  0  0
  2 67  1  0  0  0  0
  3  4  1  0  0  0  0
  3 64  1  0  0  0  0
  3 65  1  0  0  0  0
  4  5  1  0  0  0  0
  4 62  1  0  0  0  0
  4 63  1  0  0  0  0
  5  6  1  0  0  0  0
  5 55  1  0  0  0  0
  6  7  1  0  0  0  0
  6 60  1  0  0  0  0
  6 61  1  0  0  0  0
  7  8  1  6  0  0  0
  7 28  1  0  0  0  0
  7 48  1  0  0  0  0
  8  9  2  0  0  0  0
  8 10  1  0  0  0  0
 10 11  1  0  0  0  0
 10 27  1  0  0  0  0
 11 12  2  0  0  0  0
 11 20  1  0  0  0  0
 12 13  1  0  0  0  0
 12 26  1  0  0  0  0
 13 14  2  0  0  0  0
 14 15  1  0  0  0  0
 14 25  1  0  0  0  0
 15 16  2  0  0  0  0
 15 20  1  0  0  0  0
 16 17  1  0  0  0  0
 16 24  1  0  0  0  0
 17 18  2  0  0  0  0
 17 23  1  0  0  0  0
 18 19  1  0  0  0  0
 18 22  1  0  0  0  0
 19 20  2  0  0  0  0
 19 21  1  0  0  0  0
 27 28  1  0  0  0  0
 27 46  1  0  0  0  0
 27 47  1  0  0  0  0
 28 29  1  0  0  0  0
 28 45  1  6  0  0  0
 29 30  1  0  0  0  0
 29 43  1  0  0  0  0
 29 44  1  0  0  0  0
 30 31  1  0  0  0  0
 31 32  1  0  0  0  0
 31 41  1  0  0  0  0
 31 42  1  0  0  0  0
 32 33  1  0  0  0  0
 32 34  1  0  0  0  0
 32 36  1  0  0  0  0
 34 35  1  0  0  0  0
 34 39  1  0  0  0  0
 34 40  1  0  0  0  0
 35 36  1  0  0  0  0
 36 37  1  0  0  0  0
 36 38  1  0  0  0  0
 48 49  2  0  0  0  0
 48 54  1  0  0  0  0
 49 50  1  0  0  0  0
 49 59  1  0  0  0  0
 50 51  1  0  0  0  0
 50 52  2  0  0  0  0
 52 53  1  0  0  0  0
 52 58  1  0  0  0  0
 53 54  2  0  0  0  0
 53 57  1  0  0  0  0
 54 55  1  0  0  0  0
 55 56  2  0  0  0  0
M  CHG  1   2   1
M  END
>  <MODEL>
       1

$$$$
