output/tmp_first_model_13_38.pdb
 OpenBabel07232600343D

 72 77  0  0  1  0  0  0  0  0999 V2000
    2.8790   -5.4590   23.2650 C   0  0  0  0  0  0  0  0  0  0  0  0
    3.7400   -4.5280   22.4840 N   0  3  0  0  0  0  0  0  0  0  0  0
    5.0590   -5.1460   22.1420 C   0  0  0  0  0  0  0  0  0  0  0  0
    5.9820   -5.1720   23.3600 C   0  0  0  0  0  0  0  0  0  0  0  0
    6.2790   -3.8100   23.7760 N   0  0  0  0  0  0  0  0  0  0  0  0
    7.4200   -3.1730   23.1500 C   0  0  0  0  0  0  0  0  0  0  0  0
    7.1880   -1.6670   22.8810 C   0  0  2  0  0  0  0  0  0  0  0  0
    6.2260   -1.5060   21.6850 C   0  0  0  0  0  0  0  0  0  0  0  0
    5.1490   -2.0670   21.5400 O   0  0  0  0  0  0  0  0  0  0  0  0
    6.7800   -0.6120   20.8030 N   0  0  0  0  0  0  0  0  0  0  0  0
    6.0530   -0.0070   19.7550 C   0  0  0  0  0  0  0  0  0  0  0  0
    6.4470   -0.2290   18.4620 C   0  0  0  0  0  0  0  0  0  0  0  0
    5.8080    0.2630   17.3750 N   0  0  0  0  0  0  0  0  0  0  0  0
    4.7690    1.0320   17.6000 C   0  0  0  0  0  0  0  0  0  0  0  0
    4.2980    1.3850   18.8970 C   0  0  0  0  0  0  0  0  0  0  0  0
    3.1880    2.2480   19.0650 C   0  0  0  0  0  0  0  0  0  0  0  0
    2.7970    2.6340   20.3140 C   0  0  0  0  0  0  0  0  0  0  0  0
    3.4970    2.1770   21.4550 C   0  0  0  0  0  0  0  0  0  0  0  0
    4.5640    1.3200   21.3310 C   0  0  0  0  0  0  0  0  0  0  0  0
    4.9710    0.8850   20.0300 C   0  0  0  0  0  0  0  0  0  0  0  0
    5.0970    0.9820   22.2230 H   0  0  0  0  0  0  0  0  0  0  0  0
    3.1780    2.5080   22.4380 H   0  0  0  0  0  0  0  0  0  0  0  0
    1.9540    3.3070   20.4370 H   0  0  0  0  0  0  0  0  0  0  0  0
    2.6850    2.6080   18.1730 H   0  0  0  0  0  0  0  0  0  0  0  0
    4.2410    1.4240   16.7320 H   0  0  0  0  0  0  0  0  0  0  0  0
    7.3150   -0.8610   18.2710 H   0  0  0  0  0  0  0  0  0  0  0  0
    8.0920   -0.1230   21.1690 C   0  0  0  0  0  0  0  0  0  0  0  0
    8.4790   -0.9270   22.4190 C   0  0  2  0  0  0  0  0  0  0  0  0
    9.7130   -1.7940   22.1990 C   0  0  0  0  0  0  0  0  0  0  0  0
   10.2060   -2.2640   23.4420 O   0  0  0  0  0  0  0  0  0  0  0  0
   11.2650   -1.4760   23.9430 C   0  0  0  0  0  0  0  0  0  0  0  0
   12.5160   -1.7350   23.1330 C   0  0  0  0  0  0  0  0  0  0  0  0
   13.8420   -1.2430   23.7580 C   0  0  0  0  0  0  0  0  0  0  0  0
   14.2680   -2.9540   24.1670 S   0  0  0  0  0  0  0  0  0  0  0  0
   15.4990   -3.4100   23.5450 O   0  0  0  0  0  0  0  0  0  0  0  0
   13.9750   -3.2430   25.5590 O   0  0  0  0  0  0  0  0  0  0  0  0
   12.8310   -3.2350   23.1170 C   0  0  0  0  0  0  0  0  0  0  0  0
   12.0720   -3.8400   23.6030 H   0  0  0  0  0  0  0  0  0  0  0  0
   13.1260   -3.6180   22.1380 H   0  0  0  0  0  0  0  0  0  0  0  0
   13.8030   -0.6030   24.6420 H   0  0  0  0  0  0  0  0  0  0  0  0
   14.5210   -0.8490   23.0010 H   0  0  0  0  0  0  0  0  0  0  0  0
   12.4160   -1.4240   22.0980 H   0  0  0  0  0  0  0  0  0  0  0  0
   11.4180   -1.7980   24.9760 H   0  0  0  0  0  0  0  0  0  0  0  0
   11.0120   -0.4080   23.9590 H   0  0  0  0  0  0  0  0  0  0  0  0
    9.5110   -2.6450   21.5390 H   0  0  0  0  0  0  0  0  0  0  0  0
   10.4760   -1.1830   21.7250 H   0  0  0  0  0  0  0  0  0  0  0  0
    8.7930   -0.2510   23.2220 H   0  0  0  0  0  0  0  0  0  0  0  0
    8.0590    0.9570   21.3810 H   0  0  0  0  0  0  0  0  0  0  0  0
    8.8020   -0.2590   20.3470 H   0  0  0  0  0  0  0  0  0  0  0  0
    6.5930   -1.0160   24.1260 C   0  0  0  0  0  0  0  0  0  0  0  0
    6.7450    0.3640   24.3520 C   0  0  0  0  0  0  0  0  0  0  0  0
    6.2320    0.9480   25.4980 C   0  0  0  0  0  0  0  0  0  0  0  0
    6.4770    2.6550   25.7690 Cl  0  0  0  0  0  0  0  0  0  0  0  0
    5.5540    0.1850   26.4460 C   0  0  0  0  0  0  0  0  0  0  0  0
    5.3650   -1.1660   26.2090 C   0  0  0  0  0  0  0  0  0  0  0  0
    5.8590   -1.7680   25.0480 C   0  0  0  0  0  0  0  0  0  0  0  0
    5.5640   -3.2220   24.7790 C   0  0  0  0  0  0  0  0  0  0  0  0
    4.6770   -3.8210   25.3790 O   0  0  0  0  0  0  0  0  0  0  0  0
    4.8360   -1.7830   26.9250 H   0  0  0  0  0  0  0  0  0  0  0  0
    5.1790    0.6520   27.3500 H   0  0  0  0  0  0  0  0  0  0  0  0
    7.2730    1.0040   23.6490 H   0  0  0  0  0  0  0  0  0  0  0  0
    7.5990   -3.6590   22.1840 H   0  0  0  0  0  0  0  0  0  0  0  0
    8.3120   -3.2910   23.7740 H   0  0  0  0  0  0  0  0  0  0  0  0
    5.5370   -5.6970   24.2070 H   0  0  0  0  0  0  0  0  0  0  0  0
    6.9240   -5.6720   23.1090 H   0  0  0  0  0  0  0  0  0  0  0  0
    4.8960   -6.1520   21.7450 H   0  0  0  0  0  0  0  0  0  0  0  0
    5.5010   -4.5200   21.3720 H   0  0  0  0  0  0  0  0  0  0  0  0
    3.2450   -4.2680   21.6080 H   0  0  0  0  0  0  0  0  0  0  0  0
    3.9010   -3.6360   22.9980 H   0  0  0  0  0  0  0  0  0  0  0  0
    3.2690   -5.5800   24.2750 H   0  0  0  0  0  0  0  0  0  0  0  0
    2.8660   -6.4390   22.7760 H   0  0  0  0  0  0  0  0  0  0  0  0
    1.8610   -5.0750   23.3170 H   0  0  0  0  0  0  0  0  0  0  0  0
  1  2  1  0  0  0  0
  1 70  1  0  0  0  0
  1 71  1  0  0  0  0
  1 72  1  0  0  0  0
  2  3  1  0  0  0  0
  2 68  1  0  0  0  0
  2 69  1  0  0  0  0
  3  4  1  0  0  0  0
  3 66  1  0  0  0  0
  3 67  1  0  0  0  0
  4  5  1  0  0  0  0
  4 64  1  0  0  0  0
  4 65  1  0  0  0  0
  5  6  1  0  0  0  0
  5 57  1  0  0  0  0
  6  7  1  0  0  0  0
  6 62  1  0  0  0  0
  6 63  1  0  0  0  0
  7  8  1  6  0  0  0
  7 28  1  0  0  0  0
  7 50  1  0  0  0  0
  8  9  2  0  0  0  0
  8 10  1  0  0  0  0
 10 11  1  0  0  0  0
 10 27  1  0  0  0  0
 11 12  2  0  0  0  0
 11 20  1  0  0  0  0
 12 13  1  0  0  0  0
 12 26  1  0  0  0  0
 13 14  2  0  0  0  0
 14 15  1  0  0  0  0
 14 25  1  0  0  0  0
 15 16  2  0  0  0  0
 15 20  1  0  0  0  0
 16 17  1  0  0  0  0
 16 24  1  0  0  0  0
 17 18  2  0  0  0  0
 17 23  1  0  0  0  0
 18 19  1  0  0  0  0
 18 22  1  0  0  0  0
 19 20  2  0  0  0  0
 19 21  1  0  0  0  0
 27 28  1  0  0  0  0
 27 48  1  0  0  0  0
 27 49  1  0  0  0  0
 28 29  1  0  0  0  0
 28 47  1  1  0  0  0
 29 30  1  0  0  0  0
 29 45  1  0  0  0  0
 29 46  1  0  0  0  0
 30 31  1  0  0  0  0
 31 32  1  0  0  0  0
 31 43  1  0  0  0  0
 31 44  1  0  0  0  0
 32 33  1  0  0  0  0
 32 37  1  0  0  0  0
 32 42  1  0  0  0  0
 33 34  1  0  0  0  0
 33 40  1  0  0  0  0
 33 41  1  0  0  0  0
 34 35  2  0  0  0  0
 34 36  2  0  0  0  0
 34 37  1  0  0  0  0
 37 38  1  0  0  0  0
 37 39  1  0  0  0  0
 50 51  2  0  0  0  0
 50 56  1  0  0  0  0
 51 52  1  0  0  0  0
 51 61  1  0  0  0  0
 52 53  1  0  0  0  0
 52 54  2  0  0  0  0
 54 55  1  0  0  0  0
 54 60  1  0  0  0  0
 55 56  2  0  0  0  0
 55 59  1  0  0  0  0
 56 57  1  0  0  0  0
 57 58  2  0  0  0  0
M  CHG  1   2   1
M  END
>  <MODEL>
       1

$$$$
