output/tmp_first_model_15_14.pdb
 OpenBabel07232601353D

 67 73  0  0  1  0  0  0  0  0999 V2000
    7.4960   -2.3950   23.8860 C   0  0  0  0  0  0  0  0  0  0  0  0
    7.8250   -1.6910   22.5660 C   0  0  1  0  0  0  0  0  0  0  0  0
    6.5980   -1.5370   21.6440 C   0  0  0  0  0  0  0  0  0  0  0  0
    6.9350   -0.3870   20.8260 N   0  0  0  0  0  0  0  0  0  0  0  0
    6.1350    0.1060   19.7610 C   0  0  0  0  0  0  0  0  0  0  0  0
    6.4560   -0.2100   18.4670 C   0  0  0  0  0  0  0  0  0  0  0  0
    5.7700    0.2260   17.3840 N   0  0  0  0  0  0  0  0  0  0  0  0
    4.7450    1.0140   17.5960 C   0  0  0  0  0  0  0  0  0  0  0  0
    4.2960    1.4190   18.8860 C   0  0  0  0  0  0  0  0  0  0  0  0
    3.1760    2.2730   19.0640 C   0  0  0  0  0  0  0  0  0  0  0  0
    2.7720    2.6410   20.3180 C   0  0  0  0  0  0  0  0  0  0  0  0
    3.4650    2.1670   21.4540 C   0  0  0  0  0  0  0  0  0  0  0  0
    4.5480    1.3320   21.3080 C   0  0  0  0  0  0  0  0  0  0  0  0
    5.0040    0.9460   20.0150 C   0  0  0  0  0  0  0  0  0  0  0  0
    5.0660    0.9790   22.1940 H   0  0  0  0  0  0  0  0  0  0  0  0
    3.1500    2.4780   22.4460 H   0  0  0  0  0  0  0  0  0  0  0  0
    1.9280    3.3140   20.4450 H   0  0  0  0  0  0  0  0  0  0  0  0
    2.6670    2.6410   18.1780 H   0  0  0  0  0  0  0  0  0  0  0  0
    4.2130    1.3760   16.7170 H   0  0  0  0  0  0  0  0  0  0  0  0
    7.3120   -0.8530   18.2670 H   0  0  0  0  0  0  0  0  0  0  0  0
    7.9910    0.3530   21.3060 C   0  0  0  0  0  0  0  0  0  0  0  0
    8.4630    1.3200   20.7390 O   0  0  0  0  0  0  0  0  0  0  0  0
    8.4440   -0.2570   22.6520 C   0  0  1  0  0  0  0  0  0  0  0  0
    7.8550    0.5360   23.8460 C   0  0  0  0  0  0  0  0  0  0  0  0
    8.3880    1.8820   23.9180 N   0  0  0  0  0  0  0  0  0  0  0  0
    7.4840    3.0090   24.0400 C   0  0  0  0  0  0  0  0  0  0  0  0
    7.1860    3.6470   22.6790 C   0  0  0  0  0  0  0  0  0  0  0  0
    6.2250    4.7880   22.7920 N   0  3  2  0  0  0  0  0  0  0  0  0
    5.6070    5.2020   21.4560 C   0  0  0  0  0  0  0  0  0  0  0  0
    5.9580    6.6950   21.3570 C   0  0  2  0  0  0  0  0  0  0  0  0
    7.3620    6.7370   21.9590 C   0  0  0  0  0  0  0  0  0  0  0  0
    6.8620    6.1160   23.2640 C   0  0  1  0  0  0  0  0  0  0  0  0
    5.7210    7.0690   23.5950 C   0  0  0  0  0  0  0  0  0  0  0  0
    5.1710    7.4100   22.3150 O   0  0  0  0  0  0  0  0  0  0  0  0
    6.0790    7.9800   24.0910 H   0  0  0  0  0  0  0  0  0  0  0  0
    4.9520    6.6000   24.2210 H   0  0  0  0  0  0  0  0  0  0  0  0
    7.5720    5.9350   24.0640 H   0  0  0  0  0  0  0  0  0  0  0  0
    7.7320    7.7560   22.0870 H   0  0  0  0  0  0  0  0  0  0  0  0
    8.1130    6.1420   21.4320 H   0  0  0  0  0  0  0  0  0  0  0  0
    5.7780    7.1390   20.3800 H   0  0  0  0  0  0  0  0  0  0  0  0
    4.5310    5.0240   21.4660 H   0  0  0  0  0  0  0  0  0  0  0  0
    6.0670    4.6040   20.6670 H   0  0  0  0  0  0  0  0  0  0  0  0
    5.4750    4.4780   23.4390 H   0  0  0  0  0  0  0  0  0  0  0  0
    6.7570    2.8930   22.0100 H   0  0  0  0  0  0  0  0  0  0  0  0
    8.1210    3.9930   22.2200 H   0  0  0  0  0  0  0  0  0  0  0  0
    6.5570    2.6380   24.4980 H   0  0  0  0  0  0  0  0  0  0  0  0
    7.9580    3.7240   24.7150 H   0  0  0  0  0  0  0  0  0  0  0  0
    9.7290    2.1330   23.8140 C   0  0  0  0  0  0  0  0  0  0  0  0
   10.2220    3.2190   24.0970 O   0  0  0  0  0  0  0  0  0  0  0  0
   10.5550    0.9820   23.3140 C   0  0  0  0  0  0  0  0  0  0  0  0
   11.9440    1.0880   23.3680 C   0  0  0  0  0  0  0  0  0  0  0  0
   12.7400    0.0530   22.9210 C   0  0  0  0  0  0  0  0  0  0  0  0
   12.1260   -1.0900   22.4190 C   0  0  0  0  0  0  0  0  0  0  0  0
   13.0530   -2.5130   22.0870 Cl  0  0  0  0  0  0  0  0  0  0  0  0
   10.7590   -1.1770   22.2690 C   0  0  0  0  0  0  0  0  0  0  0  0
    9.9490   -0.1610   22.7650 C   0  0  0  0  0  0  0  0  0  0  0  0
   10.3380   -2.0290   21.7450 H   0  0  0  0  0  0  0  0  0  0  0  0
   13.8200    0.1160   22.9300 H   0  0  0  0  0  0  0  0  0  0  0  0
   12.3690    1.9900   23.7890 H   0  0  0  0  0  0  0  0  0  0  0  0
    8.1050   -0.0170   24.7650 H   0  0  0  0  0  0  0  0  0  0  0  0
    6.7610    0.6000   23.7580 H   0  0  0  0  0  0  0  0  0  0  0  0
    5.6860   -1.3590   22.2330 H   0  0  0  0  0  0  0  0  0  0  0  0
    6.4230   -2.4200   21.0140 H   0  0  0  0  0  0  0  0  0  0  0  0
    8.5470   -2.3030   22.0230 H   0  0  0  0  0  0  0  0  0  0  0  0
    8.3660   -2.4620   24.5500 H   0  0  0  0  0  0  0  0  0  0  0  0
    7.1370   -3.4160   23.7100 H   0  0  0  0  0  0  0  0  0  0  0  0
    6.7030   -1.8630   24.4240 H   0  0  0  0  0  0  0  0  0  0  0  0
  1  2  1  0  0  0  0
  1 65  1  0  0  0  0
  1 66  1  0  0  0  0
  1 67  1  0  0  0  0
  2  3  1  0  0  0  0
  2 23  1  0  0  0  0
  2 64  1  6  0  0  0
  3  4  1  0  0  0  0
  3 62  1  0  0  0  0
  3 63  1  0  0  0  0
  4  5  1  0  0  0  0
  4 21  1  0  0  0  0
  5  6  2  0  0  0  0
  5 14  1  0  0  0  0
  6  7  1  0  0  0  0
  6 20  1  0  0  0  0
  7  8  2  0  0  0  0
  8  9  1  0  0  0  0
  8 19  1  0  0  0  0
  9 10  2  0  0  0  0
  9 14  1  0  0  0  0
 10 11  1  0  0  0  0
 10 18  1  0  0  0  0
 11 12  2  0  0  0  0
 11 17  1  0  0  0  0
 12 13  1  0  0  0  0
 12 16  1  0  0  0  0
 13 14  2  0  0  0  0
 13 15  1  0  0  0  0
 21 22  2  0  0  0  0
 23 21  1  6  0  0  0
 23 24  1  0  0  0  0
 23 56  1  0  0  0  0
 24 25  1  0  0  0  0
 24 60  1  0  0  0  0
 24 61  1  0  0  0  0
 25 26  1  0  0  0  0
 25 48  1  0  0  0  0
 26 27  1  0  0  0  0
 26 46  1  0  0  0  0
 26 47  1  0  0  0  0
 27 28  1  0  0  0  0
 27 44  1  0  0  0  0
 27 45  1  0  0  0  0
 28 29  1  0  0  0  0
 28 32  1  0  0  0  0
 28 43  1  1  0  0  0
 29 30  1  0  0  0  0
 29 41  1  0  0  0  0
 29 42  1  0  0  0  0
 30 31  1  0  0  0  0
 30 34  1  0  0  0  0
 30 40  1  6  0  0  0
 31 32  1  0  0  0  0
 31 38  1  0  0  0  0
 31 39  1  0  0  0  0
 32 33  1  0  0  0  0
 32 37  1  1  0  0  0
 33 34  1  0  0  0  0
 33 35  1  0  0  0  0
 33 36  1  0  0  0  0
 48 49  2  0  0  0  0
 48 50  1  0  0  0  0
 50 51  2  0  0  0  0
 50 56  1  0  0  0  0
 51 52  1  0  0  0  0
 51 59  1  0  0  0  0
 52 53  2  0  0  0  0
 52 58  1  0  0  0  0
 53 54  1  0  0  0  0
 53 55  1  0  0  0  0
 55 56  2  0  0  0  0
 55 57  1  0  0  0  0
M  CHG  1  28   1
M  END
>  <MODEL>
       1

$$$$
