output/tmp_first_model_16_37.pdb
 OpenBabel07232602073D

 48 51  0  0  0  0  0  0  0  0999 V2000
    3.2630   -7.2230   25.8310 N   0  0  0  0  0  0  0  0  0  0  0  0
    3.8200   -6.3290   25.3490 C   0  0  0  0  0  0  0  0  0  0  0  0
    4.4930   -5.2090   24.7420 C   0  0  0  0  0  0  0  0  0  0  0  0
    4.3600   -3.9290   25.2900 C   0  0  0  0  0  0  0  0  0  0  0  0
    4.9960   -2.8540   24.6910 C   0  0  0  0  0  0  0  0  0  0  0  0
    5.7390   -3.0430   23.5240 C   0  0  0  0  0  0  0  0  0  0  0  0
    6.3910   -1.9390   22.9050 N   0  0  0  0  0  0  0  0  0  0  0  0
    7.3270   -1.1510   23.7040 C   0  0  0  0  0  0  0  0  0  0  0  0
    8.7880   -1.3430   23.3350 C   0  0  0  0  0  0  0  0  0  0  0  0
    9.3530   -2.5950   23.5580 C   0  0  0  0  0  0  0  0  0  0  0  0
   10.7050   -2.8050   23.3280 C   0  0  0  0  0  0  0  0  0  0  0  0
   11.4960   -1.8040   22.7780 C   0  0  0  0  0  0  0  0  0  0  0  0
   10.9280   -0.5590   22.5590 C   0  0  0  0  0  0  0  0  0  0  0  0
   11.9200    0.7120   21.9030 Cl  0  0  0  0  0  0  0  0  0  0  0  0
    9.5940   -0.3030   22.8690 C   0  0  0  0  0  0  0  0  0  0  0  0
    9.1990    0.6950   22.7070 H   0  0  0  0  0  0  0  0  0  0  0  0
   12.5280   -1.9900   22.5020 H   0  0  0  0  0  0  0  0  0  0  0  0
   11.1160   -3.7620   23.6230 H   0  0  0  0  0  0  0  0  0  0  0  0
    8.7440   -3.4200   23.9310 H   0  0  0  0  0  0  0  0  0  0  0  0
    7.0550   -0.0910   23.6920 H   0  0  0  0  0  0  0  0  0  0  0  0
    7.1870   -1.4940   24.7300 H   0  0  0  0  0  0  0  0  0  0  0  0
    6.1080   -1.6960   21.5730 C   0  0  0  0  0  0  0  0  0  0  0  0
    5.3050   -2.3730   20.9500 O   0  0  0  0  0  0  0  0  0  0  0  0
    6.8410   -0.5300   20.9040 C   0  0  0  0  0  0  0  0  0  0  0  0
    6.0760    0.0670   19.7620 C   0  0  0  0  0  0  0  0  0  0  0  0
    6.4070   -0.2240   18.4660 C   0  0  0  0  0  0  0  0  0  0  0  0
    5.7610    0.2460   17.3680 N   0  0  0  0  0  0  0  0  0  0  0  0
    4.7350    1.0320   17.5740 C   0  0  0  0  0  0  0  0  0  0  0  0
    4.2740    1.4210   18.8620 C   0  0  0  0  0  0  0  0  0  0  0  0
    3.1580    2.2790   19.0340 C   0  0  0  0  0  0  0  0  0  0  0  0
    2.7430    2.6360   20.2870 C   0  0  0  0  0  0  0  0  0  0  0  0
    3.4240    2.1480   21.4240 C   0  0  0  0  0  0  0  0  0  0  0  0
    4.5050    1.3140   21.2850 C   0  0  0  0  0  0  0  0  0  0  0  0
    4.9610    0.9270   19.9950 C   0  0  0  0  0  0  0  0  0  0  0  0
    5.0100    0.9480   22.1730 H   0  0  0  0  0  0  0  0  0  0  0  0
    3.0910    2.4420   22.4160 H   0  0  0  0  0  0  0  0  0  0  0  0
    1.8920    3.2990   20.4170 H   0  0  0  0  0  0  0  0  0  0  0  0
    2.6480    2.6470   18.1480 H   0  0  0  0  0  0  0  0  0  0  0  0
    4.2100    1.4010   16.6930 H   0  0  0  0  0  0  0  0  0  0  0  0
    7.2570   -0.8750   18.2580 H   0  0  0  0  0  0  0  0  0  0  0  0
    7.7990   -0.9240   20.5390 H   0  0  0  0  0  0  0  0  0  0  0  0
    7.0640    0.2430   21.6430 H   0  0  0  0  0  0  0  0  0  0  0  0
    5.8860   -4.3210   22.9860 C   0  0  0  0  0  0  0  0  0  0  0  0
    5.2740   -5.4020   23.5970 C   0  0  0  0  0  0  0  0  0  0  0  0
    5.3960   -6.3990   23.1860 H   0  0  0  0  0  0  0  0  0  0  0  0
    6.4740   -4.4570   22.0840 H   0  0  0  0  0  0  0  0  0  0  0  0
    4.9030   -1.8560   25.1160 H   0  0  0  0  0  0  0  0  0  0  0  0
    3.7850   -3.7880   26.1980 H   0  0  0  0  0  0  0  0  0  0  0  0
  1  2  3  0  0  0  0
  2  3  1  0  0  0  0
  3  4  2  0  0  0  0
  3 44  1  0  0  0  0
  4  5  1  0  0  0  0
  4 48  1  0  0  0  0
  5  6  2  0  0  0  0
  5 47  1  0  0  0  0
  6  7  1  0  0  0  0
  6 43  1  0  0  0  0
  7  8  1  0  0  0  0
  7 22  1  0  0  0  0
  8  9  1  0  0  0  0
  8 20  1  0  0  0  0
  8 21  1  0  0  0  0
  9 10  2  0  0  0  0
  9 15  1  0  0  0  0
 10 11  1  0  0  0  0
 10 19  1  0  0  0  0
 11 12  2  0  0  0  0
 11 18  1  0  0  0  0
 12 13  1  0  0  0  0
 12 17  1  0  0  0  0
 13 14  1  0  0  0  0
 13 15  2  0  0  0  0
 15 16  1  0  0  0  0
 22 23  2  0  0  0  0
 22 24  1  0  0  0  0
 24 25  1  0  0  0  0
 24 41  1  0  0  0  0
 24 42  1  0  0  0  0
 25 26  2  0  0  0  0
 25 34  1  0  0  0  0
 26 27  1  0  0  0  0
 26 40  1  0  0  0  0
 27 28  2  0  0  0  0
 28 29  1  0  0  0  0
 28 39  1  0  0  0  0
 29 30  2  0  0  0  0
 29 34  1  0  0  0  0
 30 31  1  0  0  0  0
 30 38  1  0  0  0  0
 31 32  2  0  0  0  0
 31 37  1  0  0  0  0
 32 33  1  0  0  0  0
 32 36  1  0  0  0  0
 33 34  2  0  0  0  0
 33 35  1  0  0  0  0
 43 44  2  0  0  0  0
 43 46  1  0  0  0  0
 44 45  1  0  0  0  0
M  END
>  <MODEL>
       1

$$$$
