output/tmp_first_model_5_5.pdb
 OpenBabel07222620423D

 50 54  0  0  1  0  0  0  0  0999 V2000
    9.7560   -1.9750   21.8240 C   0  0  0  0  0  0  0  0  0  0  0  0
    8.6890   -0.9830   22.3120 C   0  0  1  0  0  0  0  0  0  0  0  0
    8.2320   -0.0760   21.1360 C   0  0  0  0  0  0  0  0  0  0  0  0
    6.8690   -0.4790   20.8500 N   0  0  0  0  0  0  0  0  0  0  0  0
    6.1080    0.0720   19.7670 C   0  0  0  0  0  0  0  0  0  0  0  0
    6.4330   -0.2110   18.4680 C   0  0  0  0  0  0  0  0  0  0  0  0
    5.7590    0.2390   17.3720 N   0  0  0  0  0  0  0  0  0  0  0  0
    4.7360    1.0300   17.5770 C   0  0  0  0  0  0  0  0  0  0  0  0
    4.2870    1.4260   18.8670 C   0  0  0  0  0  0  0  0  0  0  0  0
    3.1690    2.2890   19.0510 C   0  0  0  0  0  0  0  0  0  0  0  0
    2.7820    2.6550   20.3040 C   0  0  0  0  0  0  0  0  0  0  0  0
    3.4900    2.1900   21.4370 C   0  0  0  0  0  0  0  0  0  0  0  0
    4.5670    1.3640   21.2920 C   0  0  0  0  0  0  0  0  0  0  0  0
    4.9900    0.9440   20.0010 C   0  0  0  0  0  0  0  0  0  0  0  0
    5.1180    1.0180   22.1680 H   0  0  0  0  0  0  0  0  0  0  0  0
    3.1760    2.5000   22.4310 H   0  0  0  0  0  0  0  0  0  0  0  0
    1.9300    3.3170   20.4490 H   0  0  0  0  0  0  0  0  0  0  0  0
    2.6360    2.6540   18.1730 H   0  0  0  0  0  0  0  0  0  0  0  0
    4.1940    1.4040   16.7010 H   0  0  0  0  0  0  0  0  0  0  0  0
    7.2760   -0.8730   18.2650 H   0  0  0  0  0  0  0  0  0  0  0  0
    6.3350   -1.3550   21.7780 C   0  0  0  0  0  0  0  0  0  0  0  0
    5.2370   -1.8230   21.7440 O   0  0  0  0  0  0  0  0  0  0  0  0
    7.3770   -1.6140   22.9010 C   0  0  1  0  0  0  0  0  0  0  0  0
    7.4770   -3.1560   23.1660 C   0  0  0  0  0  0  0  0  0  0  0  0
    6.2500   -3.7360   23.7420 N   0  0  0  0  0  0  0  0  0  0  0  0
    5.6530   -4.8860   23.2050 C   0  0  0  0  0  0  0  0  0  0  0  0
    6.0050   -6.1630   24.0620 C   0  0  0  0  0  0  0  0  0  0  0  0
    6.0050   -6.1630   24.0620 N   0  0  0  0  0  0  0  0  0  0  0  0
    6.0290   -5.1240   22.2200 H   0  0  0  0  0  0  0  0  0  0  0  0
    4.6090   -4.8680   23.2630 H   0  0  0  0  0  0  0  0  0  0  0  0
    5.7080   -3.1160   24.8650 C   0  0  0  0  0  0  0  0  0  0  0  0
    4.9160   -3.6570   25.6030 O   0  0  0  0  0  0  0  0  0  0  0  0
    6.0800   -1.6290   25.1070 C   0  0  0  0  0  0  0  0  0  0  0  0
    5.5870   -0.9530   26.2480 C   0  0  0  0  0  0  0  0  0  0  0  0
    5.8200    0.3990   26.4510 C   0  0  0  0  0  0  0  0  0  0  0  0
    6.5350    1.0990   25.4860 C   0  0  0  0  0  0  0  0  0  0  0  0
    6.7350    2.4220   25.6540 F   0  0  0  0  0  0  0  0  0  0  0  0
    7.0330    0.4680   24.3580 C   0  0  0  0  0  0  0  0  0  0  0  0
    6.8540   -0.9150   24.1750 C   0  0  0  0  0  0  0  0  0  0  0  0
    7.5490    1.0810   23.6230 H   0  0  0  0  0  0  0  0  0  0  0  0
    5.4380    0.9150   27.3280 H   0  0  0  0  0  0  0  0  0  0  0  0
    4.9960   -1.4910   26.9890 H   0  0  0  0  0  0  0  0  0  0  0  0
    8.3200   -3.3380   23.8530 H   0  0  0  0  0  0  0  0  0  0  0  0
    7.6970   -3.6860   22.2330 H   0  0  0  0  0  0  0  0  0  0  0  0
    8.8590   -0.2140   20.2550 H   0  0  0  0  0  0  0  0  0  0  0  0
    8.2790    0.9860   21.4120 H   0  0  0  0  0  0  0  0  0  0  0  0
    9.1790   -0.3750   23.0820 H   0  0  0  0  0  0  0  0  0  0  0  0
   10.1260   -2.6020   22.6410 H   0  0  0  0  0  0  0  0  0  0  0  0
    9.3710   -2.6160   21.0220 H   0  0  0  0  0  0  0  0  0  0  0  0
   10.6170   -1.4250   21.4250 H   0  0  0  0  0  0  0  0  0  0  0  0
  1  2  1  0  0  0  0
  1 48  1  0  0  0  0
  1 49  1  0  0  0  0
  1 50  1  0  0  0  0
  2  3  1  0  0  0  0
  2 23  1  0  0  0  0
  2 47  1  1  0  0  0
  3  4  1  0  0  0  0
  3 45  1  0  0  0  0
  3 46  1  0  0  0  0
  4  5  1  0  0  0  0
  4 21  1  0  0  0  0
  5  6  2  0  0  0  0
  5 14  1  0  0  0  0
  6  7  1  0  0  0  0
  6 20  1  0  0  0  0
  7  8  2  0  0  0  0
  8  9  1  0  0  0  0
  8 19  1  0  0  0  0
  9 10  2  0  0  0  0
  9 14  1  0  0  0  0
 10 11  1  0  0  0  0
 10 18  1  0  0  0  0
 11 12  2  0  0  0  0
 11 17  1  0  0  0  0
 12 13  1  0  0  0  0
 12 16  1  0  0  0  0
 13 14  2  0  0  0  0
 13 15  1  0  0  0  0
 21 22  2  0  0  0  0
 23 21  1  6  0  0  0
 23 24  1  0  0  0  0
 23 39  1  0  0  0  0
 24 25  1  0  0  0  0
 24 43  1  0  0  0  0
 24 44  1  0  0  0  0
 25 26  1  0  0  0  0
 25 31  1  0  0  0  0
 26 27  1  0  0  0  0
 26 29  1  0  0  0  0
 26 30  1  0  0  0  0
 27 28  3  0  0  0  0
 31 32  2  0  0  0  0
 31 33  1  0  0  0  0
 33 34  2  0  0  0  0
 33 39  1  0  0  0  0
 34 35  1  0  0  0  0
 34 42  1  0  0  0  0
 35 36  2  0  0  0  0
 35 41  1  0  0  0  0
 36 37  1  0  0  0  0
 36 38  1  0  0  0  0
 38 39  2  0  0  0  0
 38 40  1  0  0  0  0
M  END
>  <MODEL>
       1

$$$$
