output/tmp_first_model_8_88.pdb
 OpenBabel07222622353D

 64 68  0  0  0  0  0  0  0  0999 V2000
   11.2040   -4.7450   25.9350 C   0  0  0  0  0  0  0  0  0  0  0  0
   10.4950   -4.1900   24.7090 C   0  0  0  0  0  0  0  0  0  0  0  0
    9.6660   -2.9430   24.9480 C   0  0  0  0  0  0  0  0  0  0  0  0
   10.2020   -1.8640   24.7250 O   0  0  0  0  0  0  0  0  0  0  0  0
    8.2950   -3.0430   25.1850 N   0  0  0  0  0  0  0  0  0  0  0  0
    7.7490   -4.2260   25.8730 C   0  0  0  0  0  0  0  0  0  0  0  0
    6.2680   -4.0590   26.2590 C   0  0  0  0  0  0  0  0  0  0  0  0
    5.9910   -2.6680   26.8440 C   0  0  0  0  0  0  0  0  0  0  0  0
    6.4170   -1.6360   25.8310 C   0  0  0  0  0  0  0  0  0  0  0  0
    5.7260   -0.4290   25.6870 C   0  0  0  0  0  0  0  0  0  0  0  0
    6.1210    0.4970   24.7080 C   0  0  0  0  0  0  0  0  0  0  0  0
    7.1850    0.2040   23.8480 C   0  0  0  0  0  0  0  0  0  0  0  0
    7.6370    1.1050   22.8850 N   0  0  0  0  0  0  0  0  0  0  0  0
    8.4540    2.2260   23.3510 C   0  0  0  0  0  0  0  0  0  0  0  0
    9.8750    1.7740   23.6230 C   0  0  0  0  0  0  0  0  0  0  0  0
   10.1630    0.8920   24.6780 C   0  0  0  0  0  0  0  0  0  0  0  0
   11.4770    0.4690   24.9160 C   0  0  0  0  0  0  0  0  0  0  0  0
   12.5170    0.9310   24.1070 C   0  0  0  0  0  0  0  0  0  0  0  0
   12.2520    1.8260   23.0680 C   0  0  0  0  0  0  0  0  0  0  0  0
   13.7000    2.4830   22.0070 Br  0  0  0  0  0  0  0  0  0  0  0  0
   10.9330    2.2360   22.8220 C   0  0  0  0  0  0  0  0  0  0  0  0
   10.7350    2.9200   22.0020 H   0  0  0  0  0  0  0  0  0  0  0  0
   13.5400    0.6030   24.2660 H   0  0  0  0  0  0  0  0  0  0  0  0
   11.6830   -0.2300   25.7210 H   0  0  0  0  0  0  0  0  0  0  0  0
    9.3630    0.5130   25.3040 H   0  0  0  0  0  0  0  0  0  0  0  0
    8.0280    2.6540   24.2640 H   0  0  0  0  0  0  0  0  0  0  0  0
    8.4550    3.0210   22.5960 H   0  0  0  0  0  0  0  0  0  0  0  0
    7.7050    0.7300   21.5440 C   0  0  0  0  0  0  0  0  0  0  0  0
    8.3230    1.4280   20.7430 O   0  0  0  0  0  0  0  0  0  0  0  0
    7.0130   -0.5280   21.0020 C   0  0  0  0  0  0  0  0  0  0  0  0
    6.0000   -0.2620   19.8960 C   0  0  0  0  0  0  0  0  0  0  0  0
    6.2170   -0.7320   18.5870 C   0  0  0  0  0  0  0  0  0  0  0  0
    5.3130   -0.6210   17.6010 N   0  0  0  0  0  0  0  0  0  0  0  0
    4.1450   -0.0150   17.8910 C   0  0  0  0  0  0  0  0  0  0  0  0
    3.8360    0.4970   19.1590 C   0  0  0  0  0  0  0  0  0  0  0  0
    2.6190    1.1450   19.4380 C   0  0  0  0  0  0  0  0  0  0  0  0
    2.3730    1.6990   20.6970 C   0  0  0  0  0  0  0  0  0  0  0  0
    3.3400    1.6330   21.6980 C   0  0  0  0  0  0  0  0  0  0  0  0
    4.5540    0.9990   21.4220 C   0  0  0  0  0  0  0  0  0  0  0  0
    4.8010    0.4060   20.1770 C   0  0  0  0  0  0  0  0  0  0  0  0
    5.3170    0.9800   22.1890 H   0  0  0  0  0  0  0  0  0  0  0  0
    3.1400    2.0660   22.6720 H   0  0  0  0  0  0  0  0  0  0  0  0
    1.4420    2.2160   20.8930 H   0  0  0  0  0  0  0  0  0  0  0  0
    1.8640    1.2640   18.6700 H   0  0  0  0  0  0  0  0  0  0  0  0
    3.4060    0.0570   17.0940 H   0  0  0  0  0  0  0  0  0  0  0  0
    7.1500   -1.2400   18.3620 H   0  0  0  0  0  0  0  0  0  0  0  0
    6.4910   -1.0200   21.8220 H   0  0  0  0  0  0  0  0  0  0  0  0
    7.7810   -1.2200   20.6520 H   0  0  0  0  0  0  0  0  0  0  0  0
    7.8650   -0.9930   24.0000 C   0  0  0  0  0  0  0  0  0  0  0  0
    7.5160   -1.8980   25.0040 C   0  0  0  0  0  0  0  0  0  0  0  0
    8.7060   -1.2060   23.3490 H   0  0  0  0  0  0  0  0  0  0  0  0
    5.6030    1.4420   24.6120 H   0  0  0  0  0  0  0  0  0  0  0  0
    4.8870   -0.2240   26.3470 H   0  0  0  0  0  0  0  0  0  0  0  0
    6.5330   -2.5340   27.7870 H   0  0  0  0  0  0  0  0  0  0  0  0
    4.9210   -2.5600   27.0500 H   0  0  0  0  0  0  0  0  0  0  0  0
    5.6460   -4.1970   25.3680 H   0  0  0  0  0  0  0  0  0  0  0  0
    5.9900   -4.8280   26.9880 H   0  0  0  0  0  0  0  0  0  0  0  0
    7.8440   -5.1120   25.2330 H   0  0  0  0  0  0  0  0  0  0  0  0
    8.3230   -4.4050   26.7900 H   0  0  0  0  0  0  0  0  0  0  0  0
    9.8020   -4.9390   24.3230 H   0  0  0  0  0  0  0  0  0  0  0  0
   11.2570   -3.9520   23.9600 H   0  0  0  0  0  0  0  0  0  0  0  0
   11.7530   -5.6510   25.6610 H   0  0  0  0  0  0  0  0  0  0  0  0
   11.9270   -4.0110   26.3070 H   0  0  0  0  0  0  0  0  0  0  0  0
   10.4780   -4.9810   26.7200 H   0  0  0  0  0  0  0  0  0  0  0  0
  1  2  1  0  0  0  0
  1 62  1  0  0  0  0
  1 63  1  0  0  0  0
  1 64  1  0  0  0  0
  2  3  1  0  0  0  0
  2 60  1  0  0  0  0
  2 61  1  0  0  0  0
  3  4  2  0  0  0  0
  3  5  1  0  0  0  0
  5  6  1  0  0  0  0
  5 50  1  0  0  0  0
  6  7  1  0  0  0  0
  6 58  1  0  0  0  0
  6 59  1  0  0  0  0
  7  8  1  0  0  0  0
  7 56  1  0  0  0  0
  7 57  1  0  0  0  0
  8  9  1  0  0  0  0
  8 54  1  0  0  0  0
  8 55  1  0  0  0  0
  9 10  2  0  0  0  0
  9 50  1  0  0  0  0
 10 11  1  0  0  0  0
 10 53  1  0  0  0  0
 11 12  2  0  0  0  0
 11 52  1  0  0  0  0
 12 13  1  0  0  0  0
 12 49  1  0  0  0  0
 13 14  1  0  0  0  0
 13 28  1  0  0  0  0
 14 15  1  0  0  0  0
 14 26  1  0  0  0  0
 14 27  1  0  0  0  0
 15 16  2  0  0  0  0
 15 21  1  0  0  0  0
 16 17  1  0  0  0  0
 16 25  1  0  0  0  0
 17 18  2  0  0  0  0
 17 24  1  0  0  0  0
 18 19  1  0  0  0  0
 18 23  1  0  0  0  0
 19 20  1  0  0  0  0
 19 21  2  0  0  0  0
 21 22  1  0  0  0  0
 28 29  2  0  0  0  0
 28 30  1  0  0  0  0
 30 31  1  0  0  0  0
 30 47  1  0  0  0  0
 30 48  1  0  0  0  0
 31 32  2  0  0  0  0
 31 40  1  0  0  0  0
 32 33  1  0  0  0  0
 32 46  1  0  0  0  0
 33 34  2  0  0  0  0
 34 35  1  0  0  0  0
 34 45  1  0  0  0  0
 35 36  2  0  0  0  0
 35 40  1  0  0  0  0
 36 37  1  0  0  0  0
 36 44  1  0  0  0  0
 37 38  2  0  0  0  0
 37 43  1  0  0  0  0
 38 39  1  0  0  0  0
 38 42  1  0  0  0  0
 39 40  2  0  0  0  0
 39 41  1  0  0  0  0
 49 50  2  0  0  0  0
 49 51  1  0  0  0  0
M  END
>  <MODEL>
       1

$$$$
