output/tmp_first_model_16_38.pdb
 OpenBabel07232602073D

 72 77  0  0  1  0  0  0  0  0999 V2000
    4.8630   -7.5020   20.2010 C   0  0  0  0  0  0  0  0  0  0  0  0
    5.4610   -6.2890   19.5980 N   0  3  0  0  0  0  0  0  0  0  0  0
    5.6240   -5.1570   20.5710 C   0  0  0  0  0  0  0  0  0  0  0  0
    6.5990   -5.5170   21.7000 C   0  0  0  0  0  0  0  0  0  0  0  0
    6.8020   -4.3970   22.5970 N   0  0  0  0  0  0  0  0  0  0  0  0
    7.8330   -3.4200   22.3230 C   0  0  0  0  0  0  0  0  0  0  0  0
    7.3500   -1.9720   22.6090 C   0  0  2  0  0  0  0  0  0  0  0  0
    6.2240   -1.6170   21.6050 C   0  0  0  0  0  0  0  0  0  0  0  0
    5.1080   -2.0990   21.5640 O   0  0  0  0  0  0  0  0  0  0  0  0
    6.6990   -0.6720   20.7190 N   0  0  0  0  0  0  0  0  0  0  0  0
    5.9350   -0.0890   19.6840 C   0  0  0  0  0  0  0  0  0  0  0  0
    6.2890   -0.3200   18.3790 C   0  0  0  0  0  0  0  0  0  0  0  0
    5.6590    0.2100   17.3040 N   0  0  0  0  0  0  0  0  0  0  0  0
    4.6610    1.0260   17.5300 C   0  0  0  0  0  0  0  0  0  0  0  0
    4.2080    1.3810   18.8320 C   0  0  0  0  0  0  0  0  0  0  0  0
    3.1480    2.3080   19.0140 C   0  0  0  0  0  0  0  0  0  0  0  0
    2.7420    2.6520   20.2730 C   0  0  0  0  0  0  0  0  0  0  0  0
    3.3740    2.0870   21.4030 C   0  0  0  0  0  0  0  0  0  0  0  0
    4.4030    1.1880   21.2540 C   0  0  0  0  0  0  0  0  0  0  0  0
    4.8490    0.8100   19.9540 C   0  0  0  0  0  0  0  0  0  0  0  0
    4.8880    0.7620   22.1280 H   0  0  0  0  0  0  0  0  0  0  0  0
    3.0460    2.3760   22.3970 H   0  0  0  0  0  0  0  0  0  0  0  0
    1.9390    3.3710   20.4130 H   0  0  0  0  0  0  0  0  0  0  0  0
    2.6830    2.7400   18.1320 H   0  0  0  0  0  0  0  0  0  0  0  0
    4.1610    1.4570   16.6620 H   0  0  0  0  0  0  0  0  0  0  0  0
    7.1200   -0.9870   18.1590 H   0  0  0  0  0  0  0  0  0  0  0  0
    8.1360   -0.5050   20.7970 C   0  0  0  0  0  0  0  0  0  0  0  0
    8.4360   -0.9190   22.2480 C   0  0  2  0  0  0  0  0  0  0  0  0
    9.8890   -1.3420   22.4670 C   0  0  0  0  0  0  0  0  0  0  0  0
   10.7400   -0.2250   22.5140 O   0  0  0  0  0  0  0  0  0  0  0  0
   11.5450   -0.2170   23.6690 C   0  0  0  0  0  0  0  0  0  0  0  0
   12.0100    1.1790   23.7100 C   0  0  0  0  0  0  0  0  0  0  0  0
   10.9380    2.0610   23.6800 C   0  0  0  0  0  0  0  0  0  0  0  0
   10.9590    3.8090   24.1350 S   0  0  0  0  0  0  0  0  0  0  0  0
   12.0270    4.5650   23.4880 O   0  0  0  0  0  0  0  0  0  0  0  0
   10.6160    3.9590   25.5470 O   0  0  0  0  0  0  0  0  0  0  0  0
   12.1610    1.1450   24.0210 C   0  0  0  0  0  0  0  0  0  0  0  0
   13.1960    0.8450   24.7680 H   0  0  0  0  0  0  0  0  0  0  0  0
   12.0940    1.1630   25.2340 H   0  0  0  0  0  0  0  0  0  0  0  0
   10.8860    2.0420   22.6070 H   0  0  0  0  0  0  0  0  0  0  0  0
   10.0090    1.6430   24.0340 H   0  0  0  0  0  0  0  0  0  0  0  0
   13.0770    1.6650   22.9870 H   0  0  0  0  0  0  0  0  0  0  0  0
   10.9190   -0.4420   24.5320 H   0  0  0  0  0  0  0  0  0  0  0  0
   12.3150   -0.9920   23.5410 H   0  0  0  0  0  0  0  0  0  0  0  0
   10.1930   -2.0140   21.6480 H   0  0  0  0  0  0  0  0  0  0  0  0
    9.9730   -1.9100   23.4040 H   0  0  0  0  0  0  0  0  0  0  0  0
    8.2410   -0.0400   22.8620 H   0  0  0  0  0  0  0  0  0  0  0  0
    8.3970    0.5340   20.5830 H   0  0  0  0  0  0  0  0  0  0  0  0
    8.6700   -1.1450   20.0760 H   0  0  0  0  0  0  0  0  0  0  0  0
    6.8740   -1.9600   24.0560 C   0  0  0  0  0  0  0  0  0  0  0  0
    7.0000   -0.8500   24.9030 C   0  0  0  0  0  0  0  0  0  0  0  0
    6.6090   -0.9370   26.2270 C   0  0  0  0  0  0  0  0  0  0  0  0
    6.8640    0.4320   27.2760 Cl  0  0  0  0  0  0  0  0  0  0  0  0
    6.0230   -2.0880   26.7490 C   0  0  0  0  0  0  0  0  0  0  0  0
    5.8290   -3.1630   25.9030 C   0  0  0  0  0  0  0  0  0  0  0  0
    6.2550   -3.1070   24.5770 C   0  0  0  0  0  0  0  0  0  0  0  0
    6.0320   -4.3200   23.7200 C   0  0  0  0  0  0  0  0  0  0  0  0
    5.2170   -5.1830   24.0200 O   0  0  0  0  0  0  0  0  0  0  0  0
    5.3500   -4.0730   26.2500 H   0  0  0  0  0  0  0  0  0  0  0  0
    5.7290   -2.1250   27.7930 H   0  0  0  0  0  0  0  0  0  0  0  0
    7.3790    0.1010   24.5510 H   0  0  0  0  0  0  0  0  0  0  0  0
    8.7180   -3.6310   22.9410 H   0  0  0  0  0  0  0  0  0  0  0  0
    8.1310   -3.4970   21.2790 H   0  0  0  0  0  0  0  0  0  0  0  0
    7.5740   -5.8180   21.2880 H   0  0  0  0  0  0  0  0  0  0  0  0
    6.2130   -6.3340   22.3180 H   0  0  0  0  0  0  0  0  0  0  0  0
    4.6550   -4.9020   20.9990 H   0  0  0  0  0  0  0  0  0  0  0  0
    5.9790   -4.2900   20.0200 H   0  0  0  0  0  0  0  0  0  0  0  0
    6.4230   -6.5320   19.2600 H   0  0  0  0  0  0  0  0  0  0  0  0
    4.8820   -6.0280   18.7760 H   0  0  0  0  0  0  0  0  0  0  0  0
    4.1460   -7.2280   20.9760 H   0  0  0  0  0  0  0  0  0  0  0  0
    4.3420   -8.0750   19.4370 H   0  0  0  0  0  0  0  0  0  0  0  0
    5.6180   -8.1330   20.6690 H   0  0  0  0  0  0  0  0  0  0  0  0
  1  2  1  0  0  0  0
  1 70  1  0  0  0  0
  1 71  1  0  0  0  0
  1 72  1  0  0  0  0
  2  3  1  0  0  0  0
  2 68  1  0  0  0  0
  2 69  1  0  0  0  0
  3  4  1  0  0  0  0
  3 66  1  0  0  0  0
  3 67  1  0  0  0  0
  4  5  1  0  0  0  0
  4 64  1  0  0  0  0
  4 65  1  0  0  0  0
  5  6  1  0  0  0  0
  5 57  1  0  0  0  0
  6  7  1  0  0  0  0
  6 62  1  0  0  0  0
  6 63  1  0  0  0  0
  7  8  1  6  0  0  0
  7 28  1  0  0  0  0
  7 50  1  0  0  0  0
  8  9  2  0  0  0  0
  8 10  1  0  0  0  0
 10 11  1  0  0  0  0
 10 27  1  0  0  0  0
 11 12  2  0  0  0  0
 11 20  1  0  0  0  0
 12 13  1  0  0  0  0
 12 26  1  0  0  0  0
 13 14  2  0  0  0  0
 14 15  1  0  0  0  0
 14 25  1  0  0  0  0
 15 16  2  0  0  0  0
 15 20  1  0  0  0  0
 16 17  1  0  0  0  0
 16 24  1  0  0  0  0
 17 18  2  0  0  0  0
 17 23  1  0  0  0  0
 18 19  1  0  0  0  0
 18 22  1  0  0  0  0
 19 20  2  0  0  0  0
 19 21  1  0  0  0  0
 27 28  1  0  0  0  0
 27 48  1  0  0  0  0
 27 49  1  0  0  0  0
 28 29  1  0  0  0  0
 28 47  1  1  0  0  0
 29 30  1  0  0  0  0
 29 45  1  0  0  0  0
 29 46  1  0  0  0  0
 30 31  1  0  0  0  0
 31 32  1  0  0  0  0
 31 43  1  0  0  0  0
 31 44  1  0  0  0  0
 32 33  1  0  0  0  0
 32 37  1  0  0  0  0
 32 42  1  0  0  0  0
 33 34  1  0  0  0  0
 33 40  1  0  0  0  0
 33 41  1  0  0  0  0
 34 35  2  0  0  0  0
 34 36  2  0  0  0  0
 34 37  1  0  0  0  0
 37 38  1  0  0  0  0
 37 39  1  0  0  0  0
 50 51  2  0  0  0  0
 50 56  1  0  0  0  0
 51 52  1  0  0  0  0
 51 61  1  0  0  0  0
 52 53  1  0  0  0  0
 52 54  2  0  0  0  0
 54 55  1  0  0  0  0
 54 60  1  0  0  0  0
 55 56  2  0  0  0  0
 55 59  1  0  0  0  0
 56 57  1  0  0  0  0
 57 58  2  0  0  0  0
M  CHG  1   2   1
M  END
>  <MODEL>
       1

$$$$
