output/tmp_first_model_5_69.pdb
 OpenBabel07222620423D

 64 68  0  0  0  0  0  0  0  0999 V2000
    3.3980    3.9480   26.8110 C   0  0  0  0  0  0  0  0  0  0  0  0
    3.7210    2.4560   26.6880 C   0  0  0  0  0  0  0  0  0  0  0  0
    4.5620    2.1210   25.4640 C   0  0  0  0  0  0  0  0  0  0  0  0
    4.0310    2.0920   24.3650 O   0  0  0  0  0  0  0  0  0  0  0  0
    5.9110    1.8460   25.6660 N   0  0  0  0  0  0  0  0  0  0  0  0
    6.6800    2.4210   26.7800 C   0  0  0  0  0  0  0  0  0  0  0  0
    7.9870    2.9750   26.2250 C   0  0  0  0  0  0  0  0  0  0  0  0
    8.8280    1.8540   25.6080 C   0  0  0  0  0  0  0  0  0  0  0  0
    8.0020    0.9160   24.7750 C   0  0  0  0  0  0  0  0  0  0  0  0
    8.6680   -0.0610   24.0440 C   0  0  0  0  0  0  0  0  0  0  0  0
    7.9790   -0.9730   23.2700 C   0  0  0  0  0  0  0  0  0  0  0  0
    6.5880   -0.8860   23.2530 C   0  0  0  0  0  0  0  0  0  0  0  0
    5.8450   -1.7380   22.4030 N   0  0  0  0  0  0  0  0  0  0  0  0
    5.1380   -2.8090   23.0880 C   0  0  0  0  0  0  0  0  0  0  0  0
    6.0790   -3.8780   23.6120 C   0  0  0  0  0  0  0  0  0  0  0  0
    6.7370   -3.7570   24.8360 C   0  0  0  0  0  0  0  0  0  0  0  0
    7.6010   -4.7540   25.2710 C   0  0  0  0  0  0  0  0  0  0  0  0
    7.8110   -5.8940   24.5020 C   0  0  0  0  0  0  0  0  0  0  0  0
    7.1320   -6.0220   23.3010 C   0  0  0  0  0  0  0  0  0  0  0  0
    7.2250   -7.5130   22.4050 Cl  0  0  0  0  0  0  0  0  0  0  0  0
    6.3190   -5.0030   22.8280 C   0  0  0  0  0  0  0  0  0  0  0  0
    5.8760   -5.0780   21.8420 H   0  0  0  0  0  0  0  0  0  0  0  0
    8.4820   -6.6750   24.8430 H   0  0  0  0  0  0  0  0  0  0  0  0
    8.1250   -4.6440   26.2170 H   0  0  0  0  0  0  0  0  0  0  0  0
    6.5860   -2.8650   25.4410 H   0  0  0  0  0  0  0  0  0  0  0  0
    4.5870   -2.3480   23.9170 H   0  0  0  0  0  0  0  0  0  0  0  0
    4.4310   -3.2390   22.3760 H   0  0  0  0  0  0  0  0  0  0  0  0
    5.9640   -1.7440   21.0280 C   0  0  0  0  0  0  0  0  0  0  0  0
    5.4070   -2.5830   20.3440 O   0  0  0  0  0  0  0  0  0  0  0  0
    6.8060   -0.6300   20.3770 C   0  0  0  0  0  0  0  0  0  0  0  0
    6.0310    0.1090   19.3230 C   0  0  0  0  0  0  0  0  0  0  0  0
    6.2780   -0.1100   17.9950 C   0  0  0  0  0  0  0  0  0  0  0  0
    5.5860    0.4370   16.9640 N   0  0  0  0  0  0  0  0  0  0  0  0
    4.5930    1.2400   17.2750 C   0  0  0  0  0  0  0  0  0  0  0  0
    4.2250    1.5490   18.6130 C   0  0  0  0  0  0  0  0  0  0  0  0
    3.1250    2.3730   18.9360 C   0  0  0  0  0  0  0  0  0  0  0  0
    2.3810    2.8380   17.9170 F   0  0  0  0  0  0  0  0  0  0  0  0
    2.7900    2.6990   20.2170 C   0  0  0  0  0  0  0  0  0  0  0  0
    3.5850    2.2010   21.2680 C   0  0  0  0  0  0  0  0  0  0  0  0
    4.6590    1.3860   21.0060 C   0  0  0  0  0  0  0  0  0  0  0  0
    4.9840    1.0090   19.6750 C   0  0  0  0  0  0  0  0  0  0  0  0
    5.2650    1.0380   21.8370 H   0  0  0  0  0  0  0  0  0  0  0  0
    3.3540    2.4540   22.2960 H   0  0  0  0  0  0  0  0  0  0  0  0
    1.9260    3.3290   20.4020 H   0  0  0  0  0  0  0  0  0  0  0  0
    4.0290    1.6820   16.4590 H   0  0  0  0  0  0  0  0  0  0  0  0
    7.0950   -0.7730   17.7090 H   0  0  0  0  0  0  0  0  0  0  0  0
    7.6650   -1.1250   19.9050 H   0  0  0  0  0  0  0  0  0  0  0  0
    7.1980    0.0730   21.1170 H   0  0  0  0  0  0  0  0  0  0  0  0
    5.8960    0.0080   24.0540 C   0  0  0  0  0  0  0  0  0  0  0  0
    6.6000    0.9460   24.8130 C   0  0  0  0  0  0  0  0  0  0  0  0
    4.8130    0.0370   24.0270 H   0  0  0  0  0  0  0  0  0  0  0  0
    8.5130   -1.6880   22.6500 H   0  0  0  0  0  0  0  0  0  0  0  0
    9.7550   -0.0930   24.0780 H   0  0  0  0  0  0  0  0  0  0  0  0
    9.3440    1.2220   26.3480 H   0  0  0  0  0  0  0  0  0  0  0  0
    9.6510    2.2730   25.0120 H   0  0  0  0  0  0  0  0  0  0  0  0
    8.5460    3.5100   27.0010 H   0  0  0  0  0  0  0  0  0  0  0  0
    7.7130    3.6890   25.4380 H   0  0  0  0  0  0  0  0  0  0  0  0
    6.0830    3.2220   27.2250 H   0  0  0  0  0  0  0  0  0  0  0  0
    6.8590    1.6570   27.5530 H   0  0  0  0  0  0  0  0  0  0  0  0
    4.1800    2.0650   27.6020 H   0  0  0  0  0  0  0  0  0  0  0  0
    2.7820    1.9150   26.5360 H   0  0  0  0  0  0  0  0  0  0  0  0
    2.9570    4.3230   25.8830 H   0  0  0  0  0  0  0  0  0  0  0  0
    4.2850    4.5530   27.0270 H   0  0  0  0  0  0  0  0  0  0  0  0
    2.6790    4.1130   27.6210 H   0  0  0  0  0  0  0  0  0  0  0  0
  1  2  1  0  0  0  0
  1 62  1  0  0  0  0
  1 63  1  0  0  0  0
  1 64  1  0  0  0  0
  2  3  1  0  0  0  0
  2 60  1  0  0  0  0
  2 61  1  0  0  0  0
  3  4  2  0  0  0  0
  3  5  1  0  0  0  0
  5  6  1  0  0  0  0
  5 50  1  0  0  0  0
  6  7  1  0  0  0  0
  6 58  1  0  0  0  0
  6 59  1  0  0  0  0
  7  8  1  0  0  0  0
  7 56  1  0  0  0  0
  7 57  1  0  0  0  0
  8  9  1  0  0  0  0
  8 54  1  0  0  0  0
  8 55  1  0  0  0  0
  9 10  2  0  0  0  0
  9 50  1  0  0  0  0
 10 11  1  0  0  0  0
 10 53  1  0  0  0  0
 11 12  2  0  0  0  0
 11 52  1  0  0  0  0
 12 13  1  0  0  0  0
 12 49  1  0  0  0  0
 13 14  1  0  0  0  0
 13 28  1  0  0  0  0
 14 15  1  0  0  0  0
 14 26  1  0  0  0  0
 14 27  1  0  0  0  0
 15 16  2  0  0  0  0
 15 21  1  0  0  0  0
 16 17  1  0  0  0  0
 16 25  1  0  0  0  0
 17 18  2  0  0  0  0
 17 24  1  0  0  0  0
 18 19  1  0  0  0  0
 18 23  1  0  0  0  0
 19 20  1  0  0  0  0
 19 21  2  0  0  0  0
 21 22  1  0  0  0  0
 28 29  2  0  0  0  0
 28 30  1  0  0  0  0
 30 31  1  0  0  0  0
 30 47  1  0  0  0  0
 30 48  1  0  0  0  0
 31 32  2  0  0  0  0
 31 41  1  0  0  0  0
 32 33  1  0  0  0  0
 32 46  1  0  0  0  0
 33 34  2  0  0  0  0
 34 35  1  0  0  0  0
 34 45  1  0  0  0  0
 35 36  2  0  0  0  0
 35 41  1  0  0  0  0
 36 37  1  0  0  0  0
 36 38  1  0  0  0  0
 38 39  2  0  0  0  0
 38 44  1  0  0  0  0
 39 40  1  0  0  0  0
 39 43  1  0  0  0  0
 40 41  2  0  0  0  0
 40 42  1  0  0  0  0
 49 50  2  0  0  0  0
 49 51  1  0  0  0  0
M  END
>  <MODEL>
       1

$$$$
