output/tmp_first_model_15_29.pdb
 OpenBabel07232601353D

 67 72  0  0  1  0  0  0  0  0999 V2000
    6.6470    4.3640   21.3120 C   0  0  0  0  0  0  0  0  0  0  0  0
    7.0310    3.3750   22.3230 N   0  3  0  0  0  0  0  0  0  0  0  0
    8.1140    3.8120   23.2350 C   0  0  0  0  0  0  0  0  0  0  0  0
    8.3550    2.8040   24.3600 C   0  0  0  0  0  0  0  0  0  0  0  0
    8.9670    1.5630   23.9060 N   0  0  0  0  0  0  0  0  0  0  0  0
    8.1910    0.3380   23.8140 C   0  0  0  0  0  0  0  0  0  0  0  0
    8.5300   -0.4820   22.5470 C   0  0  2  0  0  0  0  0  0  0  0  0
    7.9550    0.2810   21.3350 C   0  0  0  0  0  0  0  0  0  0  0  0
    8.2490    1.4220   20.9740 O   0  0  0  0  0  0  0  0  0  0  0  0
    6.9290   -0.4380   20.8010 N   0  0  0  0  0  0  0  0  0  0  0  0
    6.1430    0.1070   19.7500 C   0  0  0  0  0  0  0  0  0  0  0  0
    6.4710   -0.1950   18.4540 C   0  0  0  0  0  0  0  0  0  0  0  0
    5.7790    0.2420   17.3790 N   0  0  0  0  0  0  0  0  0  0  0  0
    4.7510    1.0230   17.5990 C   0  0  0  0  0  0  0  0  0  0  0  0
    4.3200    1.4320   18.8950 C   0  0  0  0  0  0  0  0  0  0  0  0
    3.2040    2.2890   19.0840 C   0  0  0  0  0  0  0  0  0  0  0  0
    2.8230    2.6710   20.3410 C   0  0  0  0  0  0  0  0  0  0  0  0
    3.5290    2.2100   21.4720 C   0  0  0  0  0  0  0  0  0  0  0  0
    4.6120    1.3750   21.3150 C   0  0  0  0  0  0  0  0  0  0  0  0
    5.0370    0.9650   20.0190 C   0  0  0  0  0  0  0  0  0  0  0  0
    5.1300    1.0070   22.1960 H   0  0  0  0  0  0  0  0  0  0  0  0
    3.2140    2.5170   22.4650 H   0  0  0  0  0  0  0  0  0  0  0  0
    1.9760    3.3360   20.4740 H   0  0  0  0  0  0  0  0  0  0  0  0
    2.6750    2.6400   18.2040 H   0  0  0  0  0  0  0  0  0  0  0  0
    4.1950    1.3730   16.7290 H   0  0  0  0  0  0  0  0  0  0  0  0
    7.3340   -0.8270   18.2570 H   0  0  0  0  0  0  0  0  0  0  0  0
    6.4930   -1.5260   21.6540 C   0  0  0  0  0  0  0  0  0  0  0  0
    7.7560   -1.8340   22.4650 C   0  0  2  0  0  0  0  0  0  0  0  0
    7.4760   -2.5590   23.7900 C   0  0  0  0  0  0  0  0  0  0  0  0
    6.8570   -3.8600   23.6070 N   0  0  0  0  0  0  0  0  0  0  0  0
    5.5270   -4.0840   23.6190 C   0  0  0  0  0  0  0  0  0  0  0  0
    4.6990   -3.0760   23.9610 N   0  0  0  0  0  0  0  0  0  0  0  0
    3.4130   -3.4080   23.9700 C   0  0  0  0  0  0  0  0  0  0  0  0
    2.8940   -4.5970   23.6730 N   0  0  0  0  0  0  0  0  0  0  0  0
    3.8170   -5.5100   23.3470 C   0  0  0  0  0  0  0  0  0  0  0  0
    5.1220   -5.3310   23.2890 N   0  0  0  0  0  0  0  0  0  0  0  0
    3.4550   -6.5100   23.1030 H   0  0  0  0  0  0  0  0  0  0  0  0
    2.7130   -2.6200   24.2520 H   0  0  0  0  0  0  0  0  0  0  0  0
    7.4310   -4.6420   23.3290 H   0  0  0  0  0  0  0  0  0  0  0  0
    6.7930   -1.9640   24.4000 H   0  0  0  0  0  0  0  0  0  0  0  0
    8.4160   -2.6820   24.3440 H   0  0  0  0  0  0  0  0  0  0  0  0
    8.3610   -2.5050   21.8540 H   0  0  0  0  0  0  0  0  0  0  0  0
    5.6650   -1.2230   22.3100 H   0  0  0  0  0  0  0  0  0  0  0  0
    6.1520   -2.3650   21.0480 H   0  0  0  0  0  0  0  0  0  0  0  0
   10.0340   -0.6120   22.4630 C   0  0  0  0  0  0  0  0  0  0  0  0
   10.6050   -1.5700   21.6230 C   0  0  0  0  0  0  0  0  0  0  0  0
   11.9650   -1.5980   21.4050 C   0  0  0  0  0  0  0  0  0  0  0  0
   12.5310   -2.5760   20.0780 Cl  0  0  0  0  0  0  0  0  0  0  0  0
   12.8240   -0.7740   22.1380 C   0  0  0  0  0  0  0  0  0  0  0  0
   12.2660    0.1800   22.9680 C   0  0  0  0  0  0  0  0  0  0  0  0
   10.8820    0.3230   23.0700 C   0  0  0  0  0  0  0  0  0  0  0  0
   10.3220    1.5550   23.7250 C   0  0  0  0  0  0  0  0  0  0  0  0
   11.0340    2.5000   24.0490 O   0  0  0  0  0  0  0  0  0  0  0  0
   12.9030    0.8600   23.5210 H   0  0  0  0  0  0  0  0  0  0  0  0
   13.9010   -0.8480   22.0200 H   0  0  0  0  0  0  0  0  0  0  0  0
    9.9950   -2.2480   21.0420 H   0  0  0  0  0  0  0  0  0  0  0  0
    7.1250    0.5930   23.8030 H   0  0  0  0  0  0  0  0  0  0  0  0
    8.3920   -0.2890   24.6900 H   0  0  0  0  0  0  0  0  0  0  0  0
    9.0150    3.2430   25.1120 H   0  0  0  0  0  0  0  0  0  0  0  0
    7.4070    2.5490   24.8440 H   0  0  0  0  0  0  0  0  0  0  0  0
    9.0370    3.9440   22.6630 H   0  0  0  0  0  0  0  0  0  0  0  0
    7.8550    4.7810   23.6740 H   0  0  0  0  0  0  0  0  0  0  0  0
    7.3410    2.5210   21.8280 H   0  0  0  0  0  0  0  0  0  0  0  0
    6.1870    3.1370   22.8730 H   0  0  0  0  0  0  0  0  0  0  0  0
    7.4230    4.4380   20.5500 H   0  0  0  0  0  0  0  0  0  0  0  0
    6.5080    5.3520   21.7600 H   0  0  0  0  0  0  0  0  0  0  0  0
    5.7140    4.0540   20.8350 H   0  0  0  0  0  0  0  0  0  0  0  0
  1  2  1  0  0  0  0
  1 65  1  0  0  0  0
  1 66  1  0  0  0  0
  1 67  1  0  0  0  0
  2  3  1  0  0  0  0
  2 63  1  0  0  0  0
  2 64  1  0  0  0  0
  3  4  1  0  0  0  0
  3 61  1  0  0  0  0
  3 62  1  0  0  0  0
  4  5  1  0  0  0  0
  4 59  1  0  0  0  0
  4 60  1  0  0  0  0
  5  6  1  0  0  0  0
  5 52  1  0  0  0  0
  6  7  1  0  0  0  0
  6 57  1  0  0  0  0
  6 58  1  0  0  0  0
  7  8  1  6  0  0  0
  7 28  1  0  0  0  0
  7 45  1  0  0  0  0
  8  9  2  0  0  0  0
  8 10  1  0  0  0  0
 10 11  1  0  0  0  0
 10 27  1  0  0  0  0
 11 12  2  0  0  0  0
 11 20  1  0  0  0  0
 12 13  1  0  0  0  0
 12 26  1  0  0  0  0
 13 14  2  0  0  0  0
 14 15  1  0  0  0  0
 14 25  1  0  0  0  0
 15 16  2  0  0  0  0
 15 20  1  0  0  0  0
 16 17  1  0  0  0  0
 16 24  1  0  0  0  0
 17 18  2  0  0  0  0
 17 23  1  0  0  0  0
 18 19  1  0  0  0  0
 18 22  1  0  0  0  0
 19 20  2  0  0  0  0
 19 21  1  0  0  0  0
 27 28  1  0  0  0  0
 27 43  1  0  0  0  0
 27 44  1  0  0  0  0
 28 29  1  0  0  0  0
 28 42  1  6  0  0  0
 29 30  1  0  0  0  0
 29 40  1  0  0  0  0
 29 41  1  0  0  0  0
 30 31  1  0  0  0  0
 30 39  1  0  0  0  0
 31 32  2  0  0  0  0
 31 36  1  0  0  0  0
 32 33  1  0  0  0  0
 33 34  2  0  0  0  0
 33 38  1  0  0  0  0
 34 35  1  0  0  0  0
 35 36  2  0  0  0  0
 35 37  1  0  0  0  0
 45 46  2  0  0  0  0
 45 51  1  0  0  0  0
 46 47  1  0  0  0  0
 46 56  1  0  0  0  0
 47 48  1  0  0  0  0
 47 49  2  0  0  0  0
 49 50  1  0  0  0  0
 49 55  1  0  0  0  0
 50 51  2  0  0  0  0
 50 54  1  0  0  0  0
 51 52  1  0  0  0  0
 52 53  2  0  0  0  0
M  CHG  1   2   1
M  END
>  <MODEL>
       1

$$$$
