output/tmp_first_model_14_70.pdb
 OpenBabel07232601073D

 57 62  0  0  1  0  0  0  0  0999 V2000
    9.6580    0.0320   23.1020 C   0  0  0  0  0  0  0  0  0  0  0  0
    8.2580   -0.3860   22.6810 C   0  0  1  0  0  0  0  0  0  0  0  0
    7.7650    0.4170   21.4710 C   0  0  0  0  0  0  0  0  0  0  0  0
    6.7810   -0.4560   20.8630 N   0  0  0  0  0  0  0  0  0  0  0  0
    6.0210   -0.0150   19.7500 C   0  0  0  0  0  0  0  0  0  0  0  0
    6.3630   -0.3370   18.4600 C   0  0  0  0  0  0  0  0  0  0  0  0
    5.7450    0.1720   17.3600 N   0  0  0  0  0  0  0  0  0  0  0  0
    4.7600    1.0180   17.5470 C   0  0  0  0  0  0  0  0  0  0  0  0
    4.2880    1.4180   18.8320 C   0  0  0  0  0  0  0  0  0  0  0  0
    3.1930    2.3070   19.0040 C   0  0  0  0  0  0  0  0  0  0  0  0
    2.7720    2.6530   20.2600 C   0  0  0  0  0  0  0  0  0  0  0  0
    3.4270    2.1370   21.4010 C   0  0  0  0  0  0  0  0  0  0  0  0
    4.4890    1.2790   21.2610 C   0  0  0  0  0  0  0  0  0  0  0  0
    4.9410    0.8960   19.9700 C   0  0  0  0  0  0  0  0  0  0  0  0
    4.9890    0.8750   22.1350 H   0  0  0  0  0  0  0  0  0  0  0  0
    3.0910    2.4230   22.3930 H   0  0  0  0  0  0  0  0  0  0  0  0
    1.9290    3.3270   20.3900 H   0  0  0  0  0  0  0  0  0  0  0  0
    2.7040    2.7090   18.1210 H   0  0  0  0  0  0  0  0  0  0  0  0
    4.2760    1.4290   16.6580 H   0  0  0  0  0  0  0  0  0  0  0  0
    7.1800   -1.0280   18.2610 H   0  0  0  0  0  0  0  0  0  0  0  0
    6.8920   -1.7770   21.2520 C   0  0  0  0  0  0  0  0  0  0  0  0
    6.2070   -2.6810   20.8160 O   0  0  0  0  0  0  0  0  0  0  0  0
    8.0420   -1.8930   22.2800 C   0  0  1  0  0  0  0  0  0  0  0  0
    9.2220   -2.5660   21.5340 C   0  0  0  0  0  0  0  0  0  0  0  0
   10.3610   -2.8360   22.4070 N   0  0  0  0  0  0  0  0  0  0  0  0
   11.6650   -2.5710   21.9640 C   0  0  0  0  0  0  0  0  0  0  0  0
   12.4890   -1.6600   22.6260 C   0  0  0  0  0  0  0  0  0  0  0  0
   13.3260   -1.7050   23.7070 N   0  0  0  0  0  0  0  0  0  0  0  0
   13.9450   -0.5690   23.8260 N   0  0  0  0  0  0  0  0  0  0  0  0
   13.5850    0.2130   22.8360 N   0  0  0  0  0  0  0  0  0  0  0  0
   13.8430    1.6190   22.6890 C   0  0  0  0  0  0  0  0  0  0  0  0
   14.9110    1.7960   22.5830 H   0  0  0  0  0  0  0  0  0  0  0  0
   13.3200    1.9230   21.7940 H   0  0  0  0  0  0  0  0  0  0  0  0
   13.4260    2.2120   23.5010 H   0  0  0  0  0  0  0  0  0  0  0  0
   12.6760   -0.4280   22.0830 N   0  0  0  0  0  0  0  0  0  0  0  0
   11.9270   -2.8110   20.9310 H   0  0  0  0  0  0  0  0  0  0  0  0
   12.1170    0.0320   21.3960 H   0  0  0  0  0  0  0  0  0  0  0  0
   10.1920   -3.4610   23.6210 C   0  0  0  0  0  0  0  0  0  0  0  0
   11.1290   -3.9070   24.2570 O   0  0  0  0  0  0  0  0  0  0  0  0
    8.7850   -3.5060   24.1050 C   0  0  0  0  0  0  0  0  0  0  0  0
    8.5570   -4.2620   25.2510 C   0  0  0  0  0  0  0  0  0  0  0  0
    7.2820   -4.3790   25.7620 C   0  0  0  0  0  0  0  0  0  0  0  0
    6.2520   -3.7130   25.1130 C   0  0  0  0  0  0  0  0  0  0  0  0
    5.0090   -3.8280   25.6090 F   0  0  0  0  0  0  0  0  0  0  0  0
    6.4560   -2.9430   23.9840 C   0  0  0  0  0  0  0  0  0  0  0  0
    7.7470   -2.8080   23.4640 C   0  0  0  0  0  0  0  0  0  0  0  0
    5.6030   -2.4700   23.5160 H   0  0  0  0  0  0  0  0  0  0  0  0
    7.0760   -4.9900   26.6280 H   0  0  0  0  0  0  0  0  0  0  0  0
    9.4130   -4.7430   25.7140 H   0  0  0  0  0  0  0  0  0  0  0  0
    9.5900   -1.9450   20.7170 H   0  0  0  0  0  0  0  0  0  0  0  0
    8.8280   -3.5060   21.1310 H   0  0  0  0  0  0  0  0  0  0  0  0
    7.3220    1.3850   21.7410 H   0  0  0  0  0  0  0  0  0  0  0  0
    8.5840    0.6330   20.7660 H   0  0  0  0  0  0  0  0  0  0  0  0
    7.5680   -0.2010   23.5120 H   0  0  0  0  0  0  0  0  0  0  0  0
   10.3230   -0.0470   22.2410 H   0  0  0  0  0  0  0  0  0  0  0  0
   10.0380   -0.6080   23.9050 H   0  0  0  0  0  0  0  0  0  0  0  0
    9.6770    1.0770   23.4350 H   0  0  0  0  0  0  0  0  0  0  0  0
  1  2  1  0  0  0  0
  1 55  1  0  0  0  0
  1 56  1  0  0  0  0
  1 57  1  0  0  0  0
  2  3  1  0  0  0  0
  2 23  1  0  0  0  0
  2 54  1  1  0  0  0
  3  4  1  0  0  0  0
  3 52  1  0  0  0  0
  3 53  1  0  0  0  0
  4  5  1  0  0  0  0
  4 21  1  0  0  0  0
  5  6  2  0  0  0  0
  5 14  1  0  0  0  0
  6  7  1  0  0  0  0
  6 20  1  0  0  0  0
  7  8  2  0  0  0  0
  8  9  1  0  0  0  0
  8 19  1  0  0  0  0
  9 10  2  0  0  0  0
  9 14  1  0  0  0  0
 10 11  1  0  0  0  0
 10 18  1  0  0  0  0
 11 12  2  0  0  0  0
 11 17  1  0  0  0  0
 12 13  1  0  0  0  0
 12 16  1  0  0  0  0
 13 14  2  0  0  0  0
 13 15  1  0  0  0  0
 21 22  2  0  0  0  0
 23 21  1  6  0  0  0
 23 24  1  0  0  0  0
 23 46  1  0  0  0  0
 24 25  1  0  0  0  0
 24 50  1  0  0  0  0
 24 51  1  0  0  0  0
 25 26  1  0  0  0  0
 25 38  1  0  0  0  0
 26 27  1  0  0  0  0
 26 36  1  0  0  0  0
 26 37  1  0  0  0  0
 27 28  1  0  0  0  0
 27 35  2  0  0  0  0
 28 29  2  0  0  0  0
 29 30  1  0  0  0  0
 30 31  1  0  0  0  0
 30 35  1  0  0  0  0
 31 32  1  0  0  0  0
 31 33  1  0  0  0  0
 31 34  1  0  0  0  0
 38 39  2  0  0  0  0
 38 40  1  0  0  0  0
 40 41  2  0  0  0  0
 40 46  1  0  0  0  0
 41 42  1  0  0  0  0
 41 49  1  0  0  0  0
 42 43  2  0  0  0  0
 42 48  1  0  0  0  0
 43 44  1  0  0  0  0
 43 45  1  0  0  0  0
 45 46  2  0  0  0  0
 45 47  1  0  0  0  0
M  END
>  <MODEL>
       1

$$$$
