output/tmp_first_model_5_2.pdb
 OpenBabel07222620423D

 56 60  0  0  1  0  0  0  0  0999 V2000
   13.8050   -0.1570   23.9470 C   0  0  0  0  0  0  0  0  0  0  0  0
   12.9320   -1.2750   23.6400 N   0  0  0  0  0  0  0  0  0  0  0  0
   12.3240   -1.2590   22.4300 C   0  0  0  0  0  0  0  0  0  0  0  0
   12.1160   -0.2110   21.8280 O   0  0  0  0  0  0  0  0  0  0  0  0
   11.8540   -2.5900   21.8630 C   0  0  0  0  0  0  0  0  0  0  0  0
   10.4900   -2.8700   22.2880 N   0  0  0  0  0  0  0  0  0  0  0  0
    9.3590   -2.5380   21.4390 C   0  0  0  0  0  0  0  0  0  0  0  0
    8.1790   -1.8850   22.1970 C   0  0  2  0  0  0  0  0  0  0  0  0
    7.0290   -1.7570   21.1810 C   0  0  0  0  0  0  0  0  0  0  0  0
    6.3850   -2.6670   20.6900 O   0  0  0  0  0  0  0  0  0  0  0  0
    6.8430   -0.4250   20.8810 N   0  0  0  0  0  0  0  0  0  0  0  0
    6.0820    0.0090   19.7750 C   0  0  0  0  0  0  0  0  0  0  0  0
    6.4260   -0.3220   18.4910 C   0  0  0  0  0  0  0  0  0  0  0  0
    5.8000    0.1710   17.3920 N   0  0  0  0  0  0  0  0  0  0  0  0
    4.8030    1.0040   17.5810 C   0  0  0  0  0  0  0  0  0  0  0  0
    4.3300    1.4040   18.8650 C   0  0  0  0  0  0  0  0  0  0  0  0
    3.2240    2.2780   19.0340 C   0  0  0  0  0  0  0  0  0  0  0  0
    2.7980    2.6200   20.2890 C   0  0  0  0  0  0  0  0  0  0  0  0
    3.4590    2.1160   21.4330 C   0  0  0  0  0  0  0  0  0  0  0  0
    4.5350    1.2750   21.2940 C   0  0  0  0  0  0  0  0  0  0  0  0
    4.9910    0.8990   20.0020 C   0  0  0  0  0  0  0  0  0  0  0  0
    5.0400    0.8750   22.1670 H   0  0  0  0  0  0  0  0  0  0  0  0
    3.1150    2.3960   22.4250 H   0  0  0  0  0  0  0  0  0  0  0  0
    1.9460    3.2820   20.4190 H   0  0  0  0  0  0  0  0  0  0  0  0
    2.7270    2.6630   18.1470 H   0  0  0  0  0  0  0  0  0  0  0  0
    4.3080    1.3970   16.6920 H   0  0  0  0  0  0  0  0  0  0  0  0
    7.2520   -1.0030   18.2970 H   0  0  0  0  0  0  0  0  0  0  0  0
    7.8180    0.4540   21.4890 C   0  0  0  0  0  0  0  0  0  0  0  0
    8.3590   -0.3960   22.6390 C   0  0  2  0  0  0  0  0  0  0  0  0
    9.7360    0.0070   23.0220 N   0  3  0  0  0  0  0  0  0  0  0  0
   10.1190   -0.6870   23.6910 H   0  0  0  0  0  0  0  0  0  0  0  0
   10.3690    0.0520   22.1870 H   0  0  0  0  0  0  0  0  0  0  0  0
    9.7390    0.9350   23.4880 H   0  0  0  0  0  0  0  0  0  0  0  0
    7.7060   -0.2660   23.5030 H   0  0  0  0  0  0  0  0  0  0  0  0
    8.6210    0.7120   20.7820 H   0  0  0  0  0  0  0  0  0  0  0  0
    7.3490    1.3880   21.8160 H   0  0  0  0  0  0  0  0  0  0  0  0
    7.8710   -2.8350   23.3420 C   0  0  0  0  0  0  0  0  0  0  0  0
    6.5710   -2.9430   23.8410 C   0  0  0  0  0  0  0  0  0  0  0  0
    6.2900   -3.8410   24.8550 C   0  0  0  0  0  0  0  0  0  0  0  0
    4.6740   -3.9610   25.4790 Cl  0  0  0  0  0  0  0  0  0  0  0  0
    7.2790   -4.6590   25.3950 C   0  0  0  0  0  0  0  0  0  0  0  0
    8.5790   -4.5220   24.9400 C   0  0  0  0  0  0  0  0  0  0  0  0
    8.8830   -3.6140   23.9290 C   0  0  0  0  0  0  0  0  0  0  0  0
   10.3140   -3.4450   23.5120 C   0  0  0  0  0  0  0  0  0  0  0  0
   11.2670   -3.7520   24.2260 O   0  0  0  0  0  0  0  0  0  0  0  0
    9.3940   -5.1120   25.3500 H   0  0  0  0  0  0  0  0  0  0  0  0
    7.0340   -5.3930   26.1540 H   0  0  0  0  0  0  0  0  0  0  0  0
    5.7650   -2.3600   23.4140 H   0  0  0  0  0  0  0  0  0  0  0  0
    9.7110   -1.8990   20.6270 H   0  0  0  0  0  0  0  0  0  0  0  0
    8.9360   -3.4600   21.0320 H   0  0  0  0  0  0  0  0  0  0  0  0
   12.5130   -3.3930   22.2050 H   0  0  0  0  0  0  0  0  0  0  0  0
   11.9090   -2.5240   20.7720 H   0  0  0  0  0  0  0  0  0  0  0  0
   12.9380   -2.1330   24.1720 H   0  0  0  0  0  0  0  0  0  0  0  0
   13.2410    0.7790   23.8800 H   0  0  0  0  0  0  0  0  0  0  0  0
   14.5750   -0.1040   23.1670 H   0  0  0  0  0  0  0  0  0  0  0  0
   14.2230   -0.2890   24.9510 H   0  0  0  0  0  0  0  0  0  0  0  0
  1  2  1  0  0  0  0
  1 54  1  0  0  0  0
  1 55  1  0  0  0  0
  1 56  1  0  0  0  0
  2  3  1  0  0  0  0
  2 53  1  0  0  0  0
  3  4  2  0  0  0  0
  3  5  1  0  0  0  0
  5  6  1  0  0  0  0
  5 51  1  0  0  0  0
  5 52  1  0  0  0  0
  6  7  1  0  0  0  0
  6 44  1  0  0  0  0
  7  8  1  0  0  0  0
  7 49  1  0  0  0  0
  7 50  1  0  0  0  0
  8  9  1  6  0  0  0
  8 29  1  0  0  0  0
  8 37  1  0  0  0  0
  9 10  2  0  0  0  0
  9 11  1  0  0  0  0
 11 12  1  0  0  0  0
 11 28  1  0  0  0  0
 12 13  2  0  0  0  0
 12 21  1  0  0  0  0
 13 14  1  0  0  0  0
 13 27  1  0  0  0  0
 14 15  2  0  0  0  0
 15 16  1  0  0  0  0
 15 26  1  0  0  0  0
 16 17  2  0  0  0  0
 16 21  1  0  0  0  0
 17 18  1  0  0  0  0
 17 25  1  0  0  0  0
 18 19  2  0  0  0  0
 18 24  1  0  0  0  0
 19 20  1  0  0  0  0
 19 23  1  0  0  0  0
 20 21  2  0  0  0  0
 20 22  1  0  0  0  0
 28 29  1  0  0  0  0
 28 35  1  0  0  0  0
 28 36  1  0  0  0  0
 29 30  1  0  0  0  0
 29 34  1  1  0  0  0
 30 31  1  0  0  0  0
 30 32  1  0  0  0  0
 30 33  1  0  0  0  0
 37 38  2  0  0  0  0
 37 43  1  0  0  0  0
 38 39  1  0  0  0  0
 38 48  1  0  0  0  0
 39 40  1  0  0  0  0
 39 41  2  0  0  0  0
 41 42  1  0  0  0  0
 41 47  1  0  0  0  0
 42 43  2  0  0  0  0
 42 46  1  0  0  0  0
 43 44  1  0  0  0  0
 44 45  2  0  0  0  0
M  CHG  1  30   1
M  END
>  <MODEL>
       1

$$$$
