output/tmp_first_model_11_73.pdb
 OpenBabel07222623443D

 56 61  0  0  1  0  0  0  0  0999 V2000
    9.7690   -1.9270   21.8580 C   0  0  0  0  0  0  0  0  0  0  0  0
    8.6710   -0.9510   22.3240 C   0  0  1  0  0  0  0  0  0  0  0  0
    8.2190   -0.0590   21.1440 C   0  0  0  0  0  0  0  0  0  0  0  0
    6.8670   -0.4830   20.8430 N   0  0  0  0  0  0  0  0  0  0  0  0
    6.1040    0.0590   19.7770 C   0  0  0  0  0  0  0  0  0  0  0  0
    6.4430   -0.2210   18.4780 C   0  0  0  0  0  0  0  0  0  0  0  0
    5.7760    0.2400   17.3930 N   0  0  0  0  0  0  0  0  0  0  0  0
    4.7460    1.0210   17.6030 C   0  0  0  0  0  0  0  0  0  0  0  0
    4.2910    1.4070   18.8940 C   0  0  0  0  0  0  0  0  0  0  0  0
    3.1730    2.2660   19.0640 C   0  0  0  0  0  0  0  0  0  0  0  0
    2.7780    2.6510   20.3130 C   0  0  0  0  0  0  0  0  0  0  0  0
    3.4860    2.1970   21.4510 C   0  0  0  0  0  0  0  0  0  0  0  0
    4.5690    1.3650   21.3170 C   0  0  0  0  0  0  0  0  0  0  0  0
    4.9910    0.9290   20.0270 C   0  0  0  0  0  0  0  0  0  0  0  0
    5.1050    1.0280   22.2050 H   0  0  0  0  0  0  0  0  0  0  0  0
    3.1640    2.5110   22.4380 H   0  0  0  0  0  0  0  0  0  0  0  0
    1.9300    3.3180   20.4380 H   0  0  0  0  0  0  0  0  0  0  0  0
    2.6620    2.6290   18.1740 H   0  0  0  0  0  0  0  0  0  0  0  0
    4.2160    1.3850   16.7220 H   0  0  0  0  0  0  0  0  0  0  0  0
    7.2910   -0.8720   18.2660 H   0  0  0  0  0  0  0  0  0  0  0  0
    6.3350   -1.3740   21.7450 C   0  0  0  0  0  0  0  0  0  0  0  0
    5.2270   -1.8670   21.6530 O   0  0  0  0  0  0  0  0  0  0  0  0
    7.3590   -1.6060   22.8780 C   0  0  1  0  0  0  0  0  0  0  0  0
    7.5060   -3.1170   23.1580 C   0  0  0  0  0  0  0  0  0  0  0  0
    6.3110   -3.6730   23.7600 N   0  0  0  0  0  0  0  0  0  0  0  0
    5.6880   -4.8380   23.1600 C   0  0  0  0  0  0  0  0  0  0  0  0
    5.5660   -6.1210   24.0360 C   0  0  0  0  0  0  0  0  0  0  0  0
    4.0420   -6.0580   23.9830 N   0  3  0  0  0  0  0  0  0  0  0  0
    4.1310   -4.8490   23.0550 C   0  0  0  0  0  0  0  0  0  0  0  0
    3.6330   -3.9760   23.4660 H   0  0  0  0  0  0  0  0  0  0  0  0
    3.7130   -5.0630   22.0750 H   0  0  0  0  0  0  0  0  0  0  0  0
    3.6540   -5.7920   24.9090 H   0  0  0  0  0  0  0  0  0  0  0  0
    3.5690   -6.8980   23.5990 H   0  0  0  0  0  0  0  0  0  0  0  0
    5.9350   -6.0200   25.0520 H   0  0  0  0  0  0  0  0  0  0  0  0
    5.9440   -7.0440   23.6040 H   0  0  0  0  0  0  0  0  0  0  0  0
    6.2040   -4.9640   22.1980 H   0  0  0  0  0  0  0  0  0  0  0  0
    5.7750   -3.1150   24.8880 C   0  0  0  0  0  0  0  0  0  0  0  0
    5.0140   -3.7450   25.6240 O   0  0  0  0  0  0  0  0  0  0  0  0
    6.1200   -1.6670   25.1120 C   0  0  0  0  0  0  0  0  0  0  0  0
    5.6330   -1.0300   26.2550 C   0  0  0  0  0  0  0  0  0  0  0  0
    5.8190    0.3280   26.4420 C   0  0  0  0  0  0  0  0  0  0  0  0
    6.4880    1.0590   25.4630 C   0  0  0  0  0  0  0  0  0  0  0  0
    6.6890    2.7770   25.6750 Cl  0  0  0  0  0  0  0  0  0  0  0  0
    6.9890    0.4450   24.3270 C   0  0  0  0  0  0  0  0  0  0  0  0
    6.8410   -0.9390   24.1520 C   0  0  0  0  0  0  0  0  0  0  0  0
    7.4790    1.0670   23.5820 H   0  0  0  0  0  0  0  0  0  0  0  0
    5.4390    0.8340   27.3220 H   0  0  0  0  0  0  0  0  0  0  0  0
    5.0870   -1.6270   26.9790 H   0  0  0  0  0  0  0  0  0  0  0  0
    7.6950   -3.6400   22.2190 H   0  0  0  0  0  0  0  0  0  0  0  0
    8.3630   -3.2650   23.8310 H   0  0  0  0  0  0  0  0  0  0  0  0
    8.2500    1.0140   21.3850 H   0  0  0  0  0  0  0  0  0  0  0  0
    8.8650   -0.2150   20.2780 H   0  0  0  0  0  0  0  0  0  0  0  0
    9.1220   -0.3420   23.1170 H   0  0  0  0  0  0  0  0  0  0  0  0
   10.6290   -1.3680   21.4700 H   0  0  0  0  0  0  0  0  0  0  0  0
   10.1360   -2.5500   22.6780 H   0  0  0  0  0  0  0  0  0  0  0  0
    9.4160   -2.5870   21.0560 H   0  0  0  0  0  0  0  0  0  0  0  0
  1  2  1  0  0  0  0
  1 54  1  0  0  0  0
  1 55  1  0  0  0  0
  1 56  1  0  0  0  0
  2  3  1  0  0  0  0
  2 23  1  0  0  0  0
  2 53  1  1  0  0  0
  3  4  1  0  0  0  0
  3 51  1  0  0  0  0
  3 52  1  0  0  0  0
  4  5  1  0  0  0  0
  4 21  1  0  0  0  0
  5  6  2  0  0  0  0
  5 14  1  0  0  0  0
  6  7  1  0  0  0  0
  6 20  1  0  0  0  0
  7  8  2  0  0  0  0
  8  9  1  0  0  0  0
  8 19  1  0  0  0  0
  9 10  2  0  0  0  0
  9 14  1  0  0  0  0
 10 11  1  0  0  0  0
 10 18  1  0  0  0  0
 11 12  2  0  0  0  0
 11 17  1  0  0  0  0
 12 13  1  0  0  0  0
 12 16  1  0  0  0  0
 13 14  2  0  0  0  0
 13 15  1  0  0  0  0
 21 22  2  0  0  0  0
 23 21  1  6  0  0  0
 23 24  1  0  0  0  0
 23 45  1  0  0  0  0
 24 25  1  0  0  0  0
 24 49  1  0  0  0  0
 24 50  1  0  0  0  0
 25 26  1  0  0  0  0
 25 37  1  0  0  0  0
 26 27  1  0  0  0  0
 26 29  1  0  0  0  0
 26 36  1  0  0  0  0
 27 28  1  0  0  0  0
 27 34  1  0  0  0  0
 27 35  1  0  0  0  0
 28 29  1  0  0  0  0
 28 32  1  0  0  0  0
 28 33  1  0  0  0  0
 29 30  1  0  0  0  0
 29 31  1  0  0  0  0
 37 38  2  0  0  0  0
 37 39  1  0  0  0  0
 39 40  2  0  0  0  0
 39 45  1  0  0  0  0
 40 41  1  0  0  0  0
 40 48  1  0  0  0  0
 41 42  2  0  0  0  0
 41 47  1  0  0  0  0
 42 43  1  0  0  0  0
 42 44  1  0  0  0  0
 44 45  2  0  0  0  0
 44 46  1  0  0  0  0
M  CHG  1  28   1
M  END
>  <MODEL>
       1

$$$$
