output/tmp_first_model_7_31.pdb
 OpenBabel07222621533D

 64 70  0  0  1  0  0  0  0  0999 V2000
    4.8590   -4.8730   24.5850 O   0  0  0  0  0  0  0  0  0  0  0  0
    5.5990   -4.0240   24.1090 C   0  0  0  0  0  0  0  0  0  0  0  0
    5.9940   -2.7880   24.8560 C   0  0  0  0  0  0  0  0  0  0  0  0
    5.7630   -2.7610   26.2300 C   0  0  0  0  0  0  0  0  0  0  0  0
    6.0320   -1.6250   26.9680 C   0  0  0  0  0  0  0  0  0  0  0  0
    6.5040   -0.5010   26.2940 C   0  0  0  0  0  0  0  0  0  0  0  0
    6.8020    0.9630   27.1880 Cl  0  0  0  0  0  0  0  0  0  0  0  0
    6.7560   -0.5140   24.9340 C   0  0  0  0  0  0  0  0  0  0  0  0
    6.5550   -1.6880   24.1890 C   0  0  0  0  0  0  0  0  0  0  0  0
    6.9690   -1.8090   22.7290 C   0  0  1  0  0  0  0  0  0  0  0  0
    7.2700   -3.3090   22.4770 C   0  0  0  0  0  0  0  0  0  0  0  0
    6.1230   -4.1140   22.8500 N   0  0  0  0  0  0  0  0  0  0  0  0
    5.7330   -5.2180   21.9960 C   0  0  0  0  0  0  0  0  0  0  0  0
    6.7120   -6.3430   22.0950 C   0  0  0  0  0  0  0  0  0  0  0  0
    7.7710   -6.5390   21.3880 N   0  0  0  0  0  0  0  0  0  0  0  0
    8.4130   -7.6350   21.9540 N   0  0  0  0  0  0  0  0  0  0  0  0
    7.6800   -8.0100   22.9380 C   0  0  0  0  0  0  0  0  0  0  0  0
    6.5800   -7.2440   23.0980 O   0  0  0  0  0  0  0  0  0  0  0  0
    7.8400   -8.8340   23.6190 H   0  0  0  0  0  0  0  0  0  0  0  0
    5.6940   -4.8600   20.9620 H   0  0  0  0  0  0  0  0  0  0  0  0
    4.7430   -5.5530   22.3100 H   0  0  0  0  0  0  0  0  0  0  0  0
    7.4730   -3.4850   21.4180 H   0  0  0  0  0  0  0  0  0  0  0  0
    8.1520   -3.6230   23.0550 H   0  0  0  0  0  0  0  0  0  0  0  0
    5.8780   -1.4300   21.7010 C   0  0  0  0  0  0  0  0  0  0  0  0
    4.7670   -1.9060   21.6320 O   0  0  0  0  0  0  0  0  0  0  0  0
    6.4260   -0.5360   20.7900 N   0  0  0  0  0  0  0  0  0  0  0  0
    5.7110    0.0460   19.7370 C   0  0  0  0  0  0  0  0  0  0  0  0
    6.2580    0.0900   18.4730 C   0  0  0  0  0  0  0  0  0  0  0  0
    5.6220    0.5620   17.3790 N   0  0  0  0  0  0  0  0  0  0  0  0
    4.4130    1.0360   17.5470 C   0  0  0  0  0  0  0  0  0  0  0  0
    3.7530    1.1040   18.8040 C   0  0  0  0  0  0  0  0  0  0  0  0
    2.4560    1.6670   18.9190 C   0  0  0  0  0  0  0  0  0  0  0  0
    1.8530    1.7850   20.1410 C   0  0  0  0  0  0  0  0  0  0  0  0
    2.5340    1.3590   21.3050 C   0  0  0  0  0  0  0  0  0  0  0  0
    3.7860    0.8050   21.2220 C   0  0  0  0  0  0  0  0  0  0  0  0
    4.4170    0.6310   19.9520 C   0  0  0  0  0  0  0  0  0  0  0  0
    4.2970    0.5160   22.1310 H   0  0  0  0  0  0  0  0  0  0  0  0
    2.0660    1.4830   22.2760 H   0  0  0  0  0  0  0  0  0  0  0  0
    0.8660    2.2290   20.2300 H   0  0  0  0  0  0  0  0  0  0  0  0
    1.9760    2.0220   18.0140 H   0  0  0  0  0  0  0  0  0  0  0  0
    3.9040    1.4120   16.6620 H   0  0  0  0  0  0  0  0  0  0  0  0
    7.2650   -0.2890   18.3030 H   0  0  0  0  0  0  0  0  0  0  0  0
    7.8840   -0.5560   20.8450 C   0  0  0  0  0  0  0  0  0  0  0  0
    8.1310   -0.8700   22.3180 C   0  0  2  0  0  0  0  0  0  0  0  0
    9.5200   -1.4250   22.6060 C   0  0  0  0  0  0  0  0  0  0  0  0
   10.5830   -0.4760   22.2630 N   0  0  0  0  0  0  0  0  0  0  0  0
   11.8370   -0.9020   22.2560 C   0  0  0  0  0  0  0  0  0  0  0  0
   13.1750    0.1000   22.4160 C   0  0  0  0  0  0  0  0  0  0  0  0
   12.9510   -0.1280   22.6490 C   0  0  0  0  0  0  0  0  0  0  0  0
   14.2290   -1.4330   23.0090 N   0  0  0  0  0  0  0  0  0  0  0  0
   13.3570   -2.3630   22.6350 C   0  0  0  0  0  0  0  0  0  0  0  0
   12.1070   -2.1710   22.2730 N   0  0  0  0  0  0  0  0  0  0  0  0
   13.7140   -3.3910   22.7140 H   0  0  0  0  0  0  0  0  0  0  0  0
   14.1190   -0.5250   22.2220 H   0  0  0  0  0  0  0  0  0  0  0  0
   13.8440    0.4030   21.5490 H   0  0  0  0  0  0  0  0  0  0  0  0
   10.5100    0.4560   22.6590 H   0  0  0  0  0  0  0  0  0  0  0  0
    9.5810   -1.7580   23.6570 H   0  0  0  0  0  0  0  0  0  0  0  0
    9.6810   -2.3150   21.9910 H   0  0  0  0  0  0  0  0  0  0  0  0
    7.9900    0.0760   22.8470 H   0  0  0  0  0  0  0  0  0  0  0  0
    8.3070   -1.3400   20.1970 H   0  0  0  0  0  0  0  0  0  0  0  0
    8.2860    0.4060   20.5260 H   0  0  0  0  0  0  0  0  0  0  0  0
    7.1030    0.4030   24.4700 H   0  0  0  0  0  0  0  0  0  0  0  0
    5.8720   -1.5910   28.0400 H   0  0  0  0  0  0  0  0  0  0  0  0
    5.3680   -3.6560   26.6950 H   0  0  0  0  0  0  0  0  0  0  0  0
  1  2  2  0  0  0  0
  2  3  1  0  0  0  0
  2 12  1  0  0  0  0
  3  4  2  0  0  0  0
  3  9  1  0  0  0  0
  4  5  1  0  0  0  0
  4 64  1  0  0  0  0
  5  6  2  0  0  0  0
  5 63  1  0  0  0  0
  6  7  1  0  0  0  0
  6  8  1  0  0  0  0
  8  9  2  0  0  0  0
  8 62  1  0  0  0  0
 10  9  1  1  0  0  0
 10 11  1  0  0  0  0
 10 24  1  0  0  0  0
 10 44  1  0  0  0  0
 11 12  1  0  0  0  0
 11 22  1  0  0  0  0
 11 23  1  0  0  0  0
 12 13  1  0  0  0  0
 13 14  1  0  0  0  0
 13 20  1  0  0  0  0
 13 21  1  0  0  0  0
 14 15  2  0  0  0  0
 14 18  1  0  0  0  0
 15 16  1  0  0  0  0
 16 17  2  0  0  0  0
 17 18  1  0  0  0  0
 17 19  1  0  0  0  0
 24 25  2  0  0  0  0
 24 26  1  0  0  0  0
 26 27  1  0  0  0  0
 26 43  1  0  0  0  0
 27 28  2  0  0  0  0
 27 36  1  0  0  0  0
 28 29  1  0  0  0  0
 28 42  1  0  0  0  0
 29 30  2  0  0  0  0
 30 31  1  0  0  0  0
 30 41  1  0  0  0  0
 31 32  2  0  0  0  0
 31 36  1  0  0  0  0
 32 33  1  0  0  0  0
 32 40  1  0  0  0  0
 33 34  2  0  0  0  0
 33 39  1  0  0  0  0
 34 35  1  0  0  0  0
 34 38  1  0  0  0  0
 35 36  2  0  0  0  0
 35 37  1  0  0  0  0
 43 44  1  0  0  0  0
 43 60  1  0  0  0  0
 43 61  1  0  0  0  0
 44 45  1  0  0  0  0
 44 59  1  1  0  0  0
 45 46  1  0  0  0  0
 45 57  1  0  0  0  0
 45 58  1  0  0  0  0
 46 47  1  0  0  0  0
 46 56  1  0  0  0  0
 47 48  2  0  0  0  0
 47 52  1  0  0  0  0
 48 49  1  0  0  0  0
 48 55  1  0  0  0  0
 49 50  2  0  0  0  0
 49 54  1  0  0  0  0
 50 51  1  0  0  0  0
 51 52  2  0  0  0  0
 51 53  1  0  0  0  0
M  END
>  <MODEL>
       1

$$$$
