output/tmp_first_model_20_9.pdb
 OpenBabel07232603433D

 58 63  0  0  1  0  0  0  0  0999 V2000
    6.1880    2.6960   29.8040 C   0  0  0  0  0  0  0  0  0  0  0  0
    6.1660    2.3980   28.3390 C   0  0  0  0  0  0  0  0  0  0  0  0
    6.9630    2.9430   27.2880 C   0  0  0  0  0  0  0  0  0  0  0  0
    6.4760    2.3320   26.1750 C   0  0  0  0  0  0  0  0  0  0  0  0
    6.8240    2.3780   24.7180 C   0  0  0  0  0  0  0  0  0  0  0  0
    7.8180    1.3930   24.3370 N   0  0  0  0  0  0  0  0  0  0  0  0
    7.4630    0.0140   24.0720 C   0  0  0  0  0  0  0  0  0  0  0  0
    8.2940   -0.5220   22.8700 C   0  0  2  0  0  0  0  0  0  0  0  0
    7.9360    0.3290   21.6210 C   0  0  0  0  0  0  0  0  0  0  0  0
    8.3420    1.4280   21.3130 O   0  0  0  0  0  0  0  0  0  0  0  0
    6.9930   -0.3810   20.9080 N   0  0  0  0  0  0  0  0  0  0  0  0
    6.2440    0.1780   19.8510 C   0  0  0  0  0  0  0  0  0  0  0  0
    6.5650   -0.1510   18.5610 C   0  0  0  0  0  0  0  0  0  0  0  0
    5.8920    0.2790   17.4700 N   0  0  0  0  0  0  0  0  0  0  0  0
    4.8400    1.0320   17.6650 C   0  0  0  0  0  0  0  0  0  0  0  0
    4.3830    1.4330   18.9510 C   0  0  0  0  0  0  0  0  0  0  0  0
    3.2370    2.2570   19.0960 C   0  0  0  0  0  0  0  0  0  0  0  0
    2.7830    2.5980   20.3400 C   0  0  0  0  0  0  0  0  0  0  0  0
    3.4550    2.1280   21.4910 C   0  0  0  0  0  0  0  0  0  0  0  0
    4.5780    1.3450   21.3750 C   0  0  0  0  0  0  0  0  0  0  0  0
    5.0850    0.9870   20.0910 C   0  0  0  0  0  0  0  0  0  0  0  0
    5.0750    0.9840   22.2710 H   0  0  0  0  0  0  0  0  0  0  0  0
    3.0760    2.3940   22.4750 H   0  0  0  0  0  0  0  0  0  0  0  0
    1.9050    3.2310   20.4470 H   0  0  0  0  0  0  0  0  0  0  0  0
    2.7390    2.6000   18.1940 H   0  0  0  0  0  0  0  0  0  0  0  0
    4.2840    1.3590   16.7850 H   0  0  0  0  0  0  0  0  0  0  0  0
    7.4180   -0.8000   18.3660 H   0  0  0  0  0  0  0  0  0  0  0  0
    6.7240   -1.7130   21.4080 C   0  0  0  0  0  0  0  0  0  0  0  0
    7.8560   -1.9380   22.4180 C   0  0  2  0  0  0  0  0  0  0  0  0
    7.5460   -2.8940   23.5630 C   0  0  0  0  0  0  0  0  0  0  0  0
    6.6630   -2.5710   24.1250 H   0  0  0  0  0  0  0  0  0  0  0  0
    8.3920   -2.9180   24.2600 H   0  0  0  0  0  0  0  0  0  0  0  0
    7.3610   -3.9060   23.1950 H   0  0  0  0  0  0  0  0  0  0  0  0
    8.6840   -2.3430   21.8260 H   0  0  0  0  0  0  0  0  0  0  0  0
    5.7250   -1.7790   21.8590 H   0  0  0  0  0  0  0  0  0  0  0  0
    6.7550   -2.4300   20.5830 H   0  0  0  0  0  0  0  0  0  0  0  0
    9.7480   -0.4120   23.2980 C   0  0  0  0  0  0  0  0  0  0  0  0
   10.7640   -1.2940   22.8780 C   0  0  0  0  0  0  0  0  0  0  0  0
   12.0630   -1.0970   23.3050 C   0  0  0  0  0  0  0  0  0  0  0  0
   13.0510   -1.8810   22.8360 F   0  0  0  0  0  0  0  0  0  0  0  0
   12.4070   -0.1180   24.2260 C   0  0  0  0  0  0  0  0  0  0  0  0
   11.4110    0.7480   24.6440 C   0  0  0  0  0  0  0  0  0  0  0  0
   10.1130    0.6530   24.1380 C   0  0  0  0  0  0  0  0  0  0  0  0
    9.1350    1.7480   24.4530 C   0  0  0  0  0  0  0  0  0  0  0  0
    9.4870    2.8660   24.8000 O   0  0  0  0  0  0  0  0  0  0  0  0
   11.6170    1.5360   25.3490 H   0  0  0  0  0  0  0  0  0  0  0  0
   13.4370   -0.0600   24.5610 H   0  0  0  0  0  0  0  0  0  0  0  0
   10.6050   -2.1420   22.2240 H   0  0  0  0  0  0  0  0  0  0  0  0
    7.6620   -0.6070   24.9590 H   0  0  0  0  0  0  0  0  0  0  0  0
    6.3910   -0.0370   23.8720 H   0  0  0  0  0  0  0  0  0  0  0  0
    7.2720    3.3440   24.4870 H   0  0  0  0  0  0  0  0  0  0  0  0
    5.9110    2.2620   24.1220 H   0  0  0  0  0  0  0  0  0  0  0  0
    5.4910    1.4930   26.5130 O   0  0  0  0  0  0  0  0  0  0  0  0
    5.2970    1.5350   27.8750 N   0  0  0  0  0  0  0  0  0  0  0  0
    7.7940    3.6310   27.3680 H   0  0  0  0  0  0  0  0  0  0  0  0
    7.2080    2.8360   30.1720 H   0  0  0  0  0  0  0  0  0  0  0  0
    5.7150    1.8810   30.3580 H   0  0  0  0  0  0  0  0  0  0  0  0
    5.6260    3.6140   30.0080 H   0  0  0  0  0  0  0  0  0  0  0  0
  1  2  1  0  0  0  0
  1 56  1  0  0  0  0
  1 57  1  0  0  0  0
  1 58  1  0  0  0  0
  2  3  1  0  0  0  0
  2 54  2  0  0  0  0
  3  4  2  0  0  0  0
  3 55  1  0  0  0  0
  4  5  1  0  0  0  0
  4 53  1  0  0  0  0
  5  6  1  0  0  0  0
  5 51  1  0  0  0  0
  5 52  1  0  0  0  0
  6  7  1  0  0  0  0
  6 44  1  0  0  0  0
  7  8  1  0  0  0  0
  7 49  1  0  0  0  0
  7 50  1  0  0  0  0
  8  9  1  6  0  0  0
  8 29  1  0  0  0  0
  8 37  1  0  0  0  0
  9 10  2  0  0  0  0
  9 11  1  0  0  0  0
 11 12  1  0  0  0  0
 11 28  1  0  0  0  0
 12 13  2  0  0  0  0
 12 21  1  0  0  0  0
 13 14  1  0  0  0  0
 13 27  1  0  0  0  0
 14 15  2  0  0  0  0
 15 16  1  0  0  0  0
 15 26  1  0  0  0  0
 16 17  2  0  0  0  0
 16 21  1  0  0  0  0
 17 18  1  0  0  0  0
 17 25  1  0  0  0  0
 18 19  2  0  0  0  0
 18 24  1  0  0  0  0
 19 20  1  0  0  0  0
 19 23  1  0  0  0  0
 20 21  2  0  0  0  0
 20 22  1  0  0  0  0
 28 29  1  0  0  0  0
 28 35  1  0  0  0  0
 28 36  1  0  0  0  0
 29 30  1  0  0  0  0
 29 34  1  6  0  0  0
 30 31  1  0  0  0  0
 30 32  1  0  0  0  0
 30 33  1  0  0  0  0
 37 38  2  0  0  0  0
 37 43  1  0  0  0  0
 38 39  1  0  0  0  0
 38 48  1  0  0  0  0
 39 40  1  0  0  0  0
 39 41  2  0  0  0  0
 41 42  1  0  0  0  0
 41 47  1  0  0  0  0
 42 43  2  0  0  0  0
 42 46  1  0  0  0  0
 43 44  1  0  0  0  0
 44 45  2  0  0  0  0
 53 54  1  0  0  0  0
M  END
>  <MODEL>
       1

$$$$
