output/tmp_first_model_15_1.pdb
 OpenBabel07232601353D

 51 54  0  0  0  0  0  0  0  0999 V2000
   13.3630   -2.2390   23.5030 C   0  0  0  0  0  0  0  0  0  0  0  0
   12.2480   -1.5340   24.0010 O   0  0  0  0  0  0  0  0  0  0  0  0
   11.0410   -1.8570   23.4610 C   0  0  0  0  0  0  0  0  0  0  0  0
   10.8620   -2.8020   22.4600 C   0  0  0  0  0  0  0  0  0  0  0  0
    9.5840   -3.1080   22.0010 C   0  0  0  0  0  0  0  0  0  0  0  0
    8.4870   -2.3970   22.4600 C   0  0  0  0  0  0  0  0  0  0  0  0
    7.1810   -2.7060   21.9720 N   0  0  0  0  0  0  0  0  0  0  0  0
    6.5850   -3.9670   22.3900 C   0  0  0  0  0  0  0  0  0  0  0  0
    6.0400   -3.8800   23.7990 C   0  0  0  0  0  0  0  0  0  0  0  0
    4.6690   -3.7710   24.0330 C   0  0  0  0  0  0  0  0  0  0  0  0
    4.1840   -3.7670   25.3350 C   0  0  0  0  0  0  0  0  0  0  0  0
    5.0600   -3.8870   26.4070 C   0  0  0  0  0  0  0  0  0  0  0  0
    6.4310   -3.9110   26.1630 C   0  0  0  0  0  0  0  0  0  0  0  0
    7.5380   -3.9840   27.5060 Cl  0  0  0  0  0  0  0  0  0  0  0  0
    6.9320   -3.8810   24.8710 C   0  0  0  0  0  0  0  0  0  0  0  0
    8.0100   -3.8960   24.6940 H   0  0  0  0  0  0  0  0  0  0  0  0
    4.6980   -3.9360   27.4300 H   0  0  0  0  0  0  0  0  0  0  0  0
    3.1110   -3.7590   25.5120 H   0  0  0  0  0  0  0  0  0  0  0  0
    3.9810   -3.7010   23.1900 H   0  0  0  0  0  0  0  0  0  0  0  0
    5.7840   -4.1760   21.6790 H   0  0  0  0  0  0  0  0  0  0  0  0
    7.3470   -4.7540   22.3200 H   0  0  0  0  0  0  0  0  0  0  0  0
    6.3090   -1.7870   21.4240 C   0  0  0  0  0  0  0  0  0  0  0  0
    5.1130   -2.0110   21.3340 O   0  0  0  0  0  0  0  0  0  0  0  0
    6.9300   -0.5050   20.8820 C   0  0  0  0  0  0  0  0  0  0  0  0
    6.1220    0.0840   19.7630 C   0  0  0  0  0  0  0  0  0  0  0  0
    6.4340   -0.2180   18.4640 C   0  0  0  0  0  0  0  0  0  0  0  0
    5.7650    0.2280   17.3700 N   0  0  0  0  0  0  0  0  0  0  0  0
    4.7410    1.0180   17.5820 C   0  0  0  0  0  0  0  0  0  0  0  0
    4.2890    1.3980   18.8730 C   0  0  0  0  0  0  0  0  0  0  0  0
    3.1700    2.2520   19.0480 C   0  0  0  0  0  0  0  0  0  0  0  0
    2.7560    2.6060   20.3040 C   0  0  0  0  0  0  0  0  0  0  0  0
    3.4380    2.1140   21.4380 C   0  0  0  0  0  0  0  0  0  0  0  0
    4.5220    1.2820   21.2960 C   0  0  0  0  0  0  0  0  0  0  0  0
    4.9860    0.9120   20.0030 C   0  0  0  0  0  0  0  0  0  0  0  0
    5.0220    0.8960   22.1790 H   0  0  0  0  0  0  0  0  0  0  0  0
    3.1050    2.4070   22.4320 H   0  0  0  0  0  0  0  0  0  0  0  0
    1.9040    3.2680   20.4340 H   0  0  0  0  0  0  0  0  0  0  0  0
    2.6660    2.6280   18.1630 H   0  0  0  0  0  0  0  0  0  0  0  0
    4.2040    1.3960   16.7100 H   0  0  0  0  0  0  0  0  0  0  0  0
    7.2810   -0.8700   18.2480 H   0  0  0  0  0  0  0  0  0  0  0  0
    7.9360   -0.7680   20.5410 H   0  0  0  0  0  0  0  0  0  0  0  0
    7.0430    0.2010   21.7160 H   0  0  0  0  0  0  0  0  0  0  0  0
    8.6750   -1.4330   23.4530 C   0  0  0  0  0  0  0  0  0  0  0  0
    9.9350   -1.1780   23.9620 C   0  0  0  0  0  0  0  0  0  0  0  0
   10.1060   -0.4470   24.7410 H   0  0  0  0  0  0  0  0  0  0  0  0
    7.8130   -0.9210   23.8700 H   0  0  0  0  0  0  0  0  0  0  0  0
    9.4380   -3.9120   21.2840 H   0  0  0  0  0  0  0  0  0  0  0  0
   11.7270   -3.2670   22.0250 H   0  0  0  0  0  0  0  0  0  0  0  0
   14.2370   -1.8370   24.0170 H   0  0  0  0  0  0  0  0  0  0  0  0
   13.2740   -3.3140   23.7090 H   0  0  0  0  0  0  0  0  0  0  0  0
   13.4780   -2.0980   22.4200 H   0  0  0  0  0  0  0  0  0  0  0  0
  1  2  1  0  0  0  0
  1 49  1  0  0  0  0
  1 50  1  0  0  0  0
  1 51  1  0  0  0  0
  2  3  1  0  0  0  0
  3  4  2  0  0  0  0
  3 44  1  0  0  0  0
  4  5  1  0  0  0  0
  4 48  1  0  0  0  0
  5  6  2  0  0  0  0
  5 47  1  0  0  0  0
  6  7  1  0  0  0  0
  6 43  1  0  0  0  0
  7  8  1  0  0  0  0
  7 22  1  0  0  0  0
  8  9  1  0  0  0  0
  8 20  1  0  0  0  0
  8 21  1  0  0  0  0
  9 10  2  0  0  0  0
  9 15  1  0  0  0  0
 10 11  1  0  0  0  0
 10 19  1  0  0  0  0
 11 12  2  0  0  0  0
 11 18  1  0  0  0  0
 12 13  1  0  0  0  0
 12 17  1  0  0  0  0
 13 14  1  0  0  0  0
 13 15  2  0  0  0  0
 15 16  1  0  0  0  0
 22 23  2  0  0  0  0
 22 24  1  0  0  0  0
 24 25  1  0  0  0  0
 24 41  1  0  0  0  0
 24 42  1  0  0  0  0
 25 26  2  0  0  0  0
 25 34  1  0  0  0  0
 26 27  1  0  0  0  0
 26 40  1  0  0  0  0
 27 28  2  0  0  0  0
 28 29  1  0  0  0  0
 28 39  1  0  0  0  0
 29 30  2  0  0  0  0
 29 34  1  0  0  0  0
 30 31  1  0  0  0  0
 30 38  1  0  0  0  0
 31 32  2  0  0  0  0
 31 37  1  0  0  0  0
 32 33  1  0  0  0  0
 32 36  1  0  0  0  0
 33 34  2  0  0  0  0
 33 35  1  0  0  0  0
 43 44  2  0  0  0  0
 43 46  1  0  0  0  0
 44 45  1  0  0  0  0
M  END
>  <MODEL>
       1

$$$$
