output/tmp_first_model_18_65.pdb
 OpenBabel07232602473D

 54 59  0  0  1  0  0  0  0  0999 V2000
    9.1230    0.4030   27.2190 C   0  0  0  0  0  0  0  0  0  0  0  0
    8.9310   -0.9760   26.8940 N   0  0  0  0  0  0  0  0  0  0  0  0
    7.6740   -1.4880   26.8490 C   0  0  0  0  0  0  0  0  0  0  0  0
    6.6570   -0.8950   27.1740 O   0  0  0  0  0  0  0  0  0  0  0  0
    7.6580   -2.9060   26.2860 C   0  0  0  0  0  0  0  0  0  0  0  0
    8.3980   -3.0000   25.0390 N   0  0  0  0  0  0  0  0  0  0  0  0
    9.7780   -2.9120   24.9530 C   0  0  0  0  0  0  0  0  0  0  0  0
   10.5410   -2.9670   25.9080 O   0  0  0  0  0  0  0  0  0  0  0  0
   10.1120   -2.7630   23.5190 C   0  0  0  0  0  0  0  0  0  0  0  0
   11.3230   -2.4630   22.9340 C   0  0  0  0  0  0  0  0  0  0  0  0
   11.4710   -2.6500   21.5320 C   0  0  0  0  0  0  0  0  0  0  0  0
   10.4500   -3.2040   20.8160 C   0  0  0  0  0  0  0  0  0  0  0  0
   10.8530   -4.0810   19.2860 Cl  0  0  0  0  0  0  0  0  0  0  0  0
    9.0660   -3.3950   21.3480 C   0  0  0  0  0  0  0  0  0  0  0  0
    8.8920   -2.8870   22.7540 C   0  0  1  0  0  0  0  0  0  0  0  0
    7.7700   -2.9760   23.7520 C   0  0  2  0  0  0  0  0  0  0  0  0
    7.8210   -1.7520   22.8810 C   0  0  2  0  0  0  0  0  0  0  0  0
    6.6780   -1.6710   21.8840 C   0  0  0  0  0  0  0  0  0  0  0  0
    5.8610   -2.5290   21.6140 O   0  0  0  0  0  0  0  0  0  0  0  0
    6.7410   -0.4140   21.3120 N   0  0  0  0  0  0  0  0  0  0  0  0
    6.0350   -0.0620   20.1340 C   0  0  0  0  0  0  0  0  0  0  0  0
    6.4410   -0.4740   18.8920 C   0  0  0  0  0  0  0  0  0  0  0  0
    5.8890   -0.0380   17.7340 N   0  0  0  0  0  0  0  0  0  0  0  0
    4.9080    0.8280   17.8090 C   0  0  0  0  0  0  0  0  0  0  0  0
    4.3670    1.3140   19.0360 C   0  0  0  0  0  0  0  0  0  0  0  0
    3.2890    2.2350   19.1040 C   0  0  0  0  0  0  0  0  0  0  0  0
    2.8080    2.6450   20.3190 C   0  0  0  0  0  0  0  0  0  0  0  0
    3.3710    2.1610   21.5220 C   0  0  0  0  0  0  0  0  0  0  0  0
    4.4180    1.2770   21.4820 C   0  0  0  0  0  0  0  0  0  0  0  0
    4.9390    0.8450   20.2360 C   0  0  0  0  0  0  0  0  0  0  0  0
    4.8680    0.8850   22.3890 H   0  0  0  0  0  0  0  0  0  0  0  0
    2.9740    2.4920   22.4780 H   0  0  0  0  0  0  0  0  0  0  0  0
    1.9820    3.3480   20.3700 H   0  0  0  0  0  0  0  0  0  0  0  0
    2.8570    2.6030   18.1770 H   0  0  0  0  0  0  0  0  0  0  0  0
    4.4900    1.1810   16.8660 H   0  0  0  0  0  0  0  0  0  0  0  0
    7.2600   -1.1840   18.7840 H   0  0  0  0  0  0  0  0  0  0  0  0
    7.8860    0.3660   21.7570 C   0  0  0  0  0  0  0  0  0  0  0  0
    8.3130   -0.3640   23.0010 C   0  0  0  0  0  0  0  0  0  0  0  0
    9.1170    0.1640   23.9220 C   0  0  0  0  0  0  0  0  0  0  0  0
    9.3730    1.4850   23.9680 F   0  0  0  0  0  0  0  0  0  0  0  0
    9.6430   -0.3960   24.6840 H   0  0  0  0  0  0  0  0  0  0  0  0
    8.6910    0.3310   21.0000 H   0  0  0  0  0  0  0  0  0  0  0  0
    7.6310    1.4120   21.9500 H   0  0  0  0  0  0  0  0  0  0  0  0
    6.9030   -3.6130   23.6210 H   0  0  0  0  0  0  0  0  0  0  0  0
    8.7560   -4.4490   21.2670 H   0  0  0  0  0  0  0  0  0  0  0  0
    8.3630   -2.7810   20.7730 H   0  0  0  0  0  0  0  0  0  0  0  0
   12.4060   -2.4230   21.0180 H   0  0  0  0  0  0  0  0  0  0  0  0
   12.1470   -2.0930   23.5310 H   0  0  0  0  0  0  0  0  0  0  0  0
    8.1010   -3.5670   27.0370 H   0  0  0  0  0  0  0  0  0  0  0  0
    6.6190   -3.2000   26.1280 H   0  0  0  0  0  0  0  0  0  0  0  0
    9.7170   -1.6130   26.8750 H   0  0  0  0  0  0  0  0  0  0  0  0
    9.5630    0.9500   26.3730 H   0  0  0  0  0  0  0  0  0  0  0  0
    8.1050    0.7490   27.4330 H   0  0  0  0  0  0  0  0  0  0  0  0
    9.7770    0.5540   28.0860 H   0  0  0  0  0  0  0  0  0  0  0  0
  1  2  1  0  0  0  0
  1 52  1  0  0  0  0
  1 53  1  0  0  0  0
  1 54  1  0  0  0  0
  2  3  1  0  0  0  0
  2 51  1  0  0  0  0
  3  4  2  0  0  0  0
  3  5  1  0  0  0  0
  5  6  1  0  0  0  0
  5 49  1  0  0  0  0
  5 50  1  0  0  0  0
  6  7  1  0  0  0  0
  6 16  1  0  0  0  0
  7  8  2  0  0  0  0
  7  9  1  0  0  0  0
  9 10  2  0  0  0  0
 10 11  1  0  0  0  0
 10 48  1  0  0  0  0
 11 12  2  0  0  0  0
 11 47  1  0  0  0  0
 12 13  1  0  0  0  0
 12 14  1  0  0  0  0
 14 15  1  0  0  0  0
 14 45  1  0  0  0  0
 14 46  1  0  0  0  0
 15  9  1  1  0  0  0
 15 16  1  0  0  0  0
 15 17  1  0  0  0  0
 16 17  1  0  0  0  0
 16 44  1  6  0  0  0
 17 18  1  6  0  0  0
 17 38  1  0  0  0  0
 18 19  2  0  0  0  0
 18 20  1  0  0  0  0
 20 21  1  0  0  0  0
 20 37  1  0  0  0  0
 21 22  2  0  0  0  0
 21 30  1  0  0  0  0
 22 23  1  0  0  0  0
 22 36  1  0  0  0  0
 23 24  2  0  0  0  0
 24 25  1  0  0  0  0
 24 35  1  0  0  0  0
 25 26  2  0  0  0  0
 25 30  1  0  0  0  0
 26 27  1  0  0  0  0
 26 34  1  0  0  0  0
 27 28  2  0  0  0  0
 27 33  1  0  0  0  0
 28 29  1  0  0  0  0
 28 32  1  0  0  0  0
 29 30  2  0  0  0  0
 29 31  1  0  0  0  0
 37 38  1  0  0  0  0
 37 42  1  0  0  0  0
 37 43  1  0  0  0  0
 38 39  2  0  0  0  0
 39 40  1  0  0  0  0
 39 41  1  0  0  0  0
M  END
>  <MODEL>
       1

$$$$
