output/tmp_first_model_13_83.pdb
 OpenBabel07232600343D

 72 77  0  0  1  0  0  0  0  0999 V2000
    3.8520   -7.1520   25.2320 C   0  0  0  0  0  0  0  0  0  0  0  0
    5.3910   -7.2560   25.6780 C   0  0  2  0  0  0  0  0  0  0  0  0
    5.5740   -7.1380   27.0450 C   0  0  0  0  0  0  0  0  0  0  0  0
    7.8860   -6.9730   27.5460 O   0  0  0  0  0  0  0  0  0  0  0  0
    8.2250   -5.9970   26.7740 C   0  0  0  0  0  0  0  0  0  0  0  0
    7.6330   -5.7440   25.3090 C   0  0  1  0  0  0  0  0  0  0  0  0
    8.5790   -6.2840   24.2310 C   0  0  0  0  0  0  0  0  0  0  0  0
    8.5760   -5.5700   23.4030 H   0  0  0  0  0  0  0  0  0  0  0  0
    9.6060   -6.3350   24.6030 H   0  0  0  0  0  0  0  0  0  0  0  0
    8.2860   -7.2840   23.8870 H   0  0  0  0  0  0  0  0  0  0  0  0
    6.1600   -6.0240   24.9940 N   0  3  1  0  0  0  0  0  0  0  0  0
    5.8630   -5.9090   23.5310 C   0  0  0  0  0  0  0  0  0  0  0  0
    5.1330   -4.6050   23.2450 C   0  0  0  0  0  0  0  0  0  0  0  0
    5.8600   -3.4630   23.7730 N   0  0  0  0  0  0  0  0  0  0  0  0
    7.1070   -3.0640   23.1480 C   0  0  0  0  0  0  0  0  0  0  0  0
    7.0940   -1.5530   22.8840 C   0  0  2  0  0  0  0  0  0  0  0  0
    6.1820   -1.3450   21.6610 C   0  0  0  0  0  0  0  0  0  0  0  0
    5.0820   -1.8300   21.4720 O   0  0  0  0  0  0  0  0  0  0  0  0
    6.8340   -0.5490   20.7530 N   0  0  0  0  0  0  0  0  0  0  0  0
    6.1210    0.0510   19.6930 C   0  0  0  0  0  0  0  0  0  0  0  0
    6.4890   -0.1840   18.3930 C   0  0  0  0  0  0  0  0  0  0  0  0
    5.8280    0.2990   17.3130 N   0  0  0  0  0  0  0  0  0  0  0  0
    4.7820    1.0600   17.5430 C   0  0  0  0  0  0  0  0  0  0  0  0
    4.3200    1.4120   18.8440 C   0  0  0  0  0  0  0  0  0  0  0  0
    3.1970    2.2590   19.0330 C   0  0  0  0  0  0  0  0  0  0  0  0
    2.8050    2.6210   20.2930 C   0  0  0  0  0  0  0  0  0  0  0  0
    3.5180    2.1520   21.4200 C   0  0  0  0  0  0  0  0  0  0  0  0
    4.5970    1.3220   21.2690 C   0  0  0  0  0  0  0  0  0  0  0  0
    5.0140    0.9150   19.9640 C   0  0  0  0  0  0  0  0  0  0  0  0
    5.1340    0.9720   22.1500 H   0  0  0  0  0  0  0  0  0  0  0  0
    3.1980    2.4470   22.4160 H   0  0  0  0  0  0  0  0  0  0  0  0
    1.9540    3.2790   20.4350 H   0  0  0  0  0  0  0  0  0  0  0  0
    2.6730    2.6240   18.1550 H   0  0  0  0  0  0  0  0  0  0  0  0
    4.2450    1.4440   16.6750 H   0  0  0  0  0  0  0  0  0  0  0  0
    7.3470   -0.8220   18.1860 H   0  0  0  0  0  0  0  0  0  0  0  0
    8.1370   -0.0980   21.1880 C   0  0  0  0  0  0  0  0  0  0  0  0
    8.4730   -0.9880   22.4080 C   0  0  2  0  0  0  0  0  0  0  0  0
    9.5420   -2.0270   22.0310 C   0  0  0  0  0  0  0  0  0  0  0  0
   10.4970   -1.5270   21.8400 H   0  0  0  0  0  0  0  0  0  0  0  0
    9.7230   -2.7440   22.8340 H   0  0  0  0  0  0  0  0  0  0  0  0
    9.2630   -2.5850   21.1300 H   0  0  0  0  0  0  0  0  0  0  0  0
    8.9010   -0.3940   23.2230 H   0  0  0  0  0  0  0  0  0  0  0  0
    8.8700   -0.2220   20.3870 H   0  0  0  0  0  0  0  0  0  0  0  0
    8.1150    0.9720   21.4420 H   0  0  0  0  0  0  0  0  0  0  0  0
    6.5760   -0.8380   24.1370 C   0  0  0  0  0  0  0  0  0  0  0  0
    6.7830    0.5400   24.2970 C   0  0  0  0  0  0  0  0  0  0  0  0
    6.3770    1.1820   25.4570 C   0  0  0  0  0  0  0  0  0  0  0  0
    6.6640    2.8900   25.6400 Cl  0  0  0  0  0  0  0  0  0  0  0  0
    5.7570    0.4910   26.4960 C   0  0  0  0  0  0  0  0  0  0  0  0
    5.5220   -0.8600   26.3380 C   0  0  0  0  0  0  0  0  0  0  0  0
    5.8950   -1.5150   25.1630 C   0  0  0  0  0  0  0  0  0  0  0  0
    5.5160   -2.9460   24.9810 C   0  0  0  0  0  0  0  0  0  0  0  0
    4.9240   -3.6270   25.8290 O   0  0  0  0  0  0  0  0  0  0  0  0
    5.0390   -1.4410   27.1170 H   0  0  0  0  0  0  0  0  0  0  0  0
    5.4600    1.0190   27.3960 H   0  0  0  0  0  0  0  0  0  0  0  0
    7.2650    1.1310   23.5230 H   0  0  0  0  0  0  0  0  0  0  0  0
    7.2160   -3.6050   22.2040 H   0  0  0  0  0  0  0  0  0  0  0  0
    7.9660   -3.3000   23.7910 H   0  0  0  0  0  0  0  0  0  0  0  0
    4.1650   -4.6230   23.7500 H   0  0  0  0  0  0  0  0  0  0  0  0
    4.9750   -4.4390   22.1740 H   0  0  0  0  0  0  0  0  0  0  0  0
    6.7850   -5.9390   22.9580 H   0  0  0  0  0  0  0  0  0  0  0  0
    5.2780   -6.7680   23.1960 H   0  0  0  0  0  0  0  0  0  0  0  0
    5.6350   -5.2590   25.4710 H   0  0  0  0  0  0  0  0  0  0  0  0
    7.7050   -4.6520   25.2660 H   0  0  0  0  0  0  0  0  0  0  0  0
    9.3280   -6.0020   26.5430 H   0  0  0  0  0  0  0  0  0  0  0  0
    8.1180   -4.9990   27.2700 H   0  0  0  0  0  0  0  0  0  0  0  0
    5.6380   -7.9640   27.7270 H   0  0  0  0  0  0  0  0  0  0  0  0
    5.5780   -6.1350   27.4400 H   0  0  0  0  0  0  0  0  0  0  0  0
    5.8140   -8.1890   25.2360 H   0  0  0  0  0  0  0  0  0  0  0  0
    3.4760   -6.1510   25.4860 H   0  0  0  0  0  0  0  0  0  0  0  0
    3.2340   -7.8770   25.7780 H   0  0  0  0  0  0  0  0  0  0  0  0
    3.6780   -7.3230   24.1620 H   0  0  0  0  0  0  0  0  0  0  0  0
  1  2  1  0  0  0  0
  1 70  1  0  0  0  0
  1 71  1  0  0  0  0
  1 72  1  0  0  0  0
  2  3  1  0  0  0  0
  2 11  1  0  0  0  0
  2 69  1  6  0  0  0
  3  4  1  0  0  0  0
  3 67  1  0  0  0  0
  3 68  1  0  0  0  0
  4  5  1  0  0  0  0
  5  6  1  0  0  0  0
  5 65  1  0  0  0  0
  5 66  1  0  0  0  0
  6  7  1  0  0  0  0
  6 11  1  0  0  0  0
  6 64  1  6  0  0  0
  7  8  1  0  0  0  0
  7  9  1  0  0  0  0
  7 10  1  0  0  0  0
 11 12  1  0  0  0  0
 11 63  1  1  0  0  0
 12 13  1  0  0  0  0
 12 61  1  0  0  0  0
 12 62  1  0  0  0  0
 13 14  1  0  0  0  0
 13 59  1  0  0  0  0
 13 60  1  0  0  0  0
 14 15  1  0  0  0  0
 14 52  1  0  0  0  0
 15 16  1  0  0  0  0
 15 57  1  0  0  0  0
 15 58  1  0  0  0  0
 16 17  1  6  0  0  0
 16 37  1  0  0  0  0
 16 45  1  0  0  0  0
 17 18  2  0  0  0  0
 17 19  1  0  0  0  0
 19 20  1  0  0  0  0
 19 36  1  0  0  0  0
 20 21  2  0  0  0  0
 20 29  1  0  0  0  0
 21 22  1  0  0  0  0
 21 35  1  0  0  0  0
 22 23  2  0  0  0  0
 23 24  1  0  0  0  0
 23 34  1  0  0  0  0
 24 25  2  0  0  0  0
 24 29  1  0  0  0  0
 25 26  1  0  0  0  0
 25 33  1  0  0  0  0
 26 27  2  0  0  0  0
 26 32  1  0  0  0  0
 27 28  1  0  0  0  0
 27 31  1  0  0  0  0
 28 29  2  0  0  0  0
 28 30  1  0  0  0  0
 36 37  1  0  0  0  0
 36 43  1  0  0  0  0
 36 44  1  0  0  0  0
 37 38  1  0  0  0  0
 37 42  1  1  0  0  0
 38 39  1  0  0  0  0
 38 40  1  0  0  0  0
 38 41  1  0  0  0  0
 45 46  2  0  0  0  0
 45 51  1  0  0  0  0
 46 47  1  0  0  0  0
 46 56  1  0  0  0  0
 47 48  1  0  0  0  0
 47 49  2  0  0  0  0
 49 50  1  0  0  0  0
 49 55  1  0  0  0  0
 50 51  2  0  0  0  0
 50 54  1  0  0  0  0
 51 52  1  0  0  0  0
 52 53  2  0  0  0  0
M  CHG  1  11   1
M  END
>  <MODEL>
       1

$$$$
