output/tmp_first_model_15_25.pdb
 OpenBabel07232601353D

 68 73  0  0  1  0  0  0  0  0999 V2000
    6.5850    4.3320   21.3920 C   0  0  0  0  0  0  0  0  0  0  0  0
    7.6270    3.9470   22.3340 N   0  0  0  0  0  0  0  0  0  0  0  0
    7.2160    3.2710   23.4500 C   0  0  0  0  0  0  0  0  0  0  0  0
    6.0300    3.0530   23.6680 O   0  0  0  0  0  0  0  0  0  0  0  0
    8.2930    2.7850   24.4290 C   0  0  0  0  0  0  0  0  0  0  0  0
    8.9110    1.5680   23.9390 N   0  0  0  0  0  0  0  0  0  0  0  0
    8.0740    0.3760   23.8430 C   0  0  0  0  0  0  0  0  0  0  0  0
    8.4530   -0.4690   22.6080 C   0  0  2  0  0  0  0  0  0  0  0  0
    7.9920    0.2350   21.3100 C   0  0  0  0  0  0  0  0  0  0  0  0
    8.4900    1.2070   20.7730 O   0  0  0  0  0  0  0  0  0  0  0  0
    6.8910   -0.4310   20.8350 N   0  0  0  0  0  0  0  0  0  0  0  0
    6.1320    0.0940   19.7700 C   0  0  0  0  0  0  0  0  0  0  0  0
    6.4800   -0.2030   18.4790 C   0  0  0  0  0  0  0  0  0  0  0  0
    5.8010    0.2320   17.3950 N   0  0  0  0  0  0  0  0  0  0  0  0
    4.7590    0.9980   17.6080 C   0  0  0  0  0  0  0  0  0  0  0  0
    4.3000    1.3900   18.8990 C   0  0  0  0  0  0  0  0  0  0  0  0
    3.1830    2.2460   19.0750 C   0  0  0  0  0  0  0  0  0  0  0  0
    2.7850    2.6230   20.3290 C   0  0  0  0  0  0  0  0  0  0  0  0
    3.4860    2.1660   21.4680 C   0  0  0  0  0  0  0  0  0  0  0  0
    4.5710    1.3330   21.3260 C   0  0  0  0  0  0  0  0  0  0  0  0
    5.0020    0.9220   20.0310 C   0  0  0  0  0  0  0  0  0  0  0  0
    5.1310    1.0340   22.2070 H   0  0  0  0  0  0  0  0  0  0  0  0
    3.1850    2.4970   22.4570 H   0  0  0  0  0  0  0  0  0  0  0  0
    1.9360    3.2890   20.4500 H   0  0  0  0  0  0  0  0  0  0  0  0
    2.6750    2.6070   18.1860 H   0  0  0  0  0  0  0  0  0  0  0  0
    4.2200    1.3550   16.7320 H   0  0  0  0  0  0  0  0  0  0  0  0
    7.3510   -0.8270   18.2960 H   0  0  0  0  0  0  0  0  0  0  0  0
    6.4660   -1.5550   21.6350 C   0  0  0  0  0  0  0  0  0  0  0  0
    7.6800   -1.8220   22.5210 C   0  0  2  0  0  0  0  0  0  0  0  0
    7.2790   -2.5070   23.8170 C   0  0  0  0  0  0  0  0  0  0  0  0
    8.4500   -2.9610   24.5160 N   0  0  0  0  0  0  0  0  0  0  0  0
    8.3620   -3.4690   25.7990 C   0  0  0  0  0  0  0  0  0  0  0  0
    7.2310   -3.7660   26.6070 C   0  0  0  0  0  0  0  0  0  0  0  0
    7.5960   -4.2860   27.7770 N   0  0  0  0  0  0  0  0  0  0  0  0
    8.9320   -4.3180   27.7430 N   0  0  0  0  0  0  0  0  0  0  0  0
    9.6810   -4.8380   28.8600 C   0  0  0  0  0  0  0  0  0  0  0  0
    9.1930   -4.5200   29.7770 H   0  0  0  0  0  0  0  0  0  0  0  0
    9.7200   -5.9320   28.8330 H   0  0  0  0  0  0  0  0  0  0  0  0
   10.6990   -4.4390   28.8460 H   0  0  0  0  0  0  0  0  0  0  0  0
    9.4390   -3.8460   26.5770 C   0  0  0  0  0  0  0  0  0  0  0  0
   10.5050   -3.7620   26.3950 H   0  0  0  0  0  0  0  0  0  0  0  0
    6.1700   -3.6420   26.3970 H   0  0  0  0  0  0  0  0  0  0  0  0
    9.3540   -2.5800   24.2580 H   0  0  0  0  0  0  0  0  0  0  0  0
    6.6460   -3.3770   23.5880 H   0  0  0  0  0  0  0  0  0  0  0  0
    6.6620   -1.8240   24.4310 H   0  0  0  0  0  0  0  0  0  0  0  0
    8.3310   -2.5220   21.9870 H   0  0  0  0  0  0  0  0  0  0  0  0
    5.5720   -1.3130   22.2310 H   0  0  0  0  0  0  0  0  0  0  0  0
    6.2200   -2.4200   21.0070 H   0  0  0  0  0  0  0  0  0  0  0  0
    9.9540   -0.5940   22.5310 C   0  0  0  0  0  0  0  0  0  0  0  0
   10.5030   -1.4820   21.5990 C   0  0  0  0  0  0  0  0  0  0  0  0
   11.8680   -1.5350   21.4200 C   0  0  0  0  0  0  0  0  0  0  0  0
   12.4590   -2.5350   20.1330 Cl  0  0  0  0  0  0  0  0  0  0  0  0
   12.7420   -0.7540   22.1800 C   0  0  0  0  0  0  0  0  0  0  0  0
   12.1990    0.1430   23.0830 C   0  0  0  0  0  0  0  0  0  0  0  0
   10.8160    0.2820   23.2050 C   0  0  0  0  0  0  0  0  0  0  0  0
   10.2800    1.4800   23.9280 C   0  0  0  0  0  0  0  0  0  0  0  0
   11.0050    2.3370   24.4170 O   0  0  0  0  0  0  0  0  0  0  0  0
   12.8280    0.7850   23.6920 H   0  0  0  0  0  0  0  0  0  0  0  0
   13.8150   -0.8140   22.0240 H   0  0  0  0  0  0  0  0  0  0  0  0
    9.8980   -2.1120   20.9530 H   0  0  0  0  0  0  0  0  0  0  0  0
    8.1770   -0.2260   24.7580 H   0  0  0  0  0  0  0  0  0  0  0  0
    7.0290    0.6930   23.7670 H   0  0  0  0  0  0  0  0  0  0  0  0
    9.0970    3.5140   24.5820 H   0  0  0  0  0  0  0  0  0  0  0  0
    7.7970    2.6170   25.3950 H   0  0  0  0  0  0  0  0  0  0  0  0
    8.5190    3.7060   21.9160 H   0  0  0  0  0  0  0  0  0  0  0  0
    6.1290    3.4440   20.9320 H   0  0  0  0  0  0  0  0  0  0  0  0
    7.0060    4.9740   20.6170 H   0  0  0  0  0  0  0  0  0  0  0  0
    5.8080    4.8930   21.9160 H   0  0  0  0  0  0  0  0  0  0  0  0
  1  2  1  0  0  0  0
  1 66  1  0  0  0  0
  1 67  1  0  0  0  0
  1 68  1  0  0  0  0
  2  3  1  0  0  0  0
  2 65  1  0  0  0  0
  3  4  2  0  0  0  0
  3  5  1  0  0  0  0
  5  6  1  0  0  0  0
  5 63  1  0  0  0  0
  5 64  1  0  0  0  0
  6  7  1  0  0  0  0
  6 56  1  0  0  0  0
  7  8  1  0  0  0  0
  7 61  1  0  0  0  0
  7 62  1  0  0  0  0
  8  9  1  6  0  0  0
  8 29  1  0  0  0  0
  8 49  1  0  0  0  0
  9 10  2  0  0  0  0
  9 11  1  0  0  0  0
 11 12  1  0  0  0  0
 11 28  1  0  0  0  0
 12 13  2  0  0  0  0
 12 21  1  0  0  0  0
 13 14  1  0  0  0  0
 13 27  1  0  0  0  0
 14 15  2  0  0  0  0
 15 16  1  0  0  0  0
 15 26  1  0  0  0  0
 16 17  2  0  0  0  0
 16 21  1  0  0  0  0
 17 18  1  0  0  0  0
 17 25  1  0  0  0  0
 18 19  2  0  0  0  0
 18 24  1  0  0  0  0
 19 20  1  0  0  0  0
 19 23  1  0  0  0  0
 20 21  2  0  0  0  0
 20 22  1  0  0  0  0
 28 29  1  0  0  0  0
 28 47  1  0  0  0  0
 28 48  1  0  0  0  0
 29 30  1  0  0  0  0
 29 46  1  6  0  0  0
 30 31  1  0  0  0  0
 30 44  1  0  0  0  0
 30 45  1  0  0  0  0
 31 32  1  0  0  0  0
 31 43  1  0  0  0  0
 32 33  1  0  0  0  0
 32 40  2  0  0  0  0
 33 34  2  0  0  0  0
 33 42  1  0  0  0  0
 34 35  1  0  0  0  0
 35 36  1  0  0  0  0
 35 40  1  0  0  0  0
 36 37  1  0  0  0  0
 36 38  1  0  0  0  0
 36 39  1  0  0  0  0
 40 41  1  0  0  0  0
 49 50  2  0  0  0  0
 49 55  1  0  0  0  0
 50 51  1  0  0  0  0
 50 60  1  0  0  0  0
 51 52  1  0  0  0  0
 51 53  2  0  0  0  0
 53 54  1  0  0  0  0
 53 59  1  0  0  0  0
 54 55  2  0  0  0  0
 54 58  1  0  0  0  0
 55 56  1  0  0  0  0
 56 57  2  0  0  0  0
M  END
>  <MODEL>
       1

$$$$
