output/tmp_first_model_11_40.pdb
 OpenBabel07222623443D

 57 61  0  0  1  0  0  0  0  0999 V2000
    7.6760    2.5240   28.8100 C   0  0  0  0  0  0  0  0  0  0  0  0
    8.0040    2.5310   27.3940 N   0  0  0  0  0  0  0  0  0  0  0  0
    7.1400    2.3270   26.3910 C   0  0  0  0  0  0  0  0  0  0  0  0
    6.0160    1.9120   26.6080 O   0  0  0  0  0  0  0  0  0  0  0  0
    7.6430    2.5430   24.9330 C   0  0  0  0  0  0  0  0  0  0  0  0
    8.5130    1.4240   24.5050 N   0  0  0  0  0  0  0  0  0  0  0  0
    7.8770    0.1240   24.2370 C   0  0  0  0  0  0  0  0  0  0  0  0
    8.2560   -0.4700   22.8360 C   0  0  2  0  0  0  0  0  0  0  0  0
    7.6140    0.3890   21.7230 C   0  0  0  0  0  0  0  0  0  0  0  0
    7.7360    1.5970   21.6300 O   0  0  0  0  0  0  0  0  0  0  0  0
    6.8880   -0.4080   20.8700 N   0  0  0  0  0  0  0  0  0  0  0  0
    6.1270    0.0970   19.7690 C   0  0  0  0  0  0  0  0  0  0  0  0
    6.4280   -0.2210   18.4710 C   0  0  0  0  0  0  0  0  0  0  0  0
    5.7560    0.2380   17.3800 N   0  0  0  0  0  0  0  0  0  0  0  0
    4.7370    1.0300   17.5790 C   0  0  0  0  0  0  0  0  0  0  0  0
    4.2870    1.4230   18.8700 C   0  0  0  0  0  0  0  0  0  0  0  0
    3.1600    2.2760   19.0520 C   0  0  0  0  0  0  0  0  0  0  0  0
    2.7560    2.6250   20.3040 C   0  0  0  0  0  0  0  0  0  0  0  0
    3.4410    2.1300   21.4390 C   0  0  0  0  0  0  0  0  0  0  0  0
    4.5170    1.3060   21.2950 C   0  0  0  0  0  0  0  0  0  0  0  0
    4.9870    0.9430   20.0020 C   0  0  0  0  0  0  0  0  0  0  0  0
    5.0340    0.9220   22.1700 H   0  0  0  0  0  0  0  0  0  0  0  0
    3.1020    2.4100   22.4340 H   0  0  0  0  0  0  0  0  0  0  0  0
    1.9020    3.2840   20.4470 H   0  0  0  0  0  0  0  0  0  0  0  0
    2.6380    2.6520   18.1720 H   0  0  0  0  0  0  0  0  0  0  0  0
    4.1960    1.4010   16.7010 H   0  0  0  0  0  0  0  0  0  0  0  0
    7.2820   -0.8650   18.2610 H   0  0  0  0  0  0  0  0  0  0  0  0
    7.0670   -1.8290   21.1350 C   0  0  0  0  0  0  0  0  0  0  0  0
    7.6660   -1.8980   22.5670 C   0  0  2  0  0  0  0  0  0  0  0  0
    6.6410   -2.4700   23.6010 C   0  0  0  0  0  0  0  0  0  0  0  0
    5.3580   -1.6680   23.6380 C   0  0  0  0  0  0  0  0  0  0  0  0
    5.3650   -1.7900   23.7490 N   0  0  0  0  0  0  0  0  0  0  0  0
    7.1780   -2.5350   24.5720 H   0  0  0  0  0  0  0  0  0  0  0  0
    6.5140   -3.5180   23.2950 H   0  0  0  0  0  0  0  0  0  0  0  0
    8.5140   -2.6080   22.5420 H   0  0  0  0  0  0  0  0  0  0  0  0
    7.7580   -2.2540   20.3890 H   0  0  0  0  0  0  0  0  0  0  0  0
    6.1200   -2.3660   21.0410 H   0  0  0  0  0  0  0  0  0  0  0  0
    9.7880   -0.3700   22.6740 C   0  0  0  0  0  0  0  0  0  0  0  0
   10.4620   -1.0890   21.6790 C   0  0  0  0  0  0  0  0  0  0  0  0
   11.8330   -0.9840   21.5260 C   0  0  0  0  0  0  0  0  0  0  0  0
   12.6210   -1.9110   20.2720 Cl  0  0  0  0  0  0  0  0  0  0  0  0
   12.5730   -0.1340   22.3500 C   0  0  0  0  0  0  0  0  0  0  0  0
   11.9170    0.6870   23.2310 C   0  0  0  0  0  0  0  0  0  0  0  0
   10.5340    0.5440   23.4090 C   0  0  0  0  0  0  0  0  0  0  0  0
    9.8250    1.6350   24.1470 C   0  0  0  0  0  0  0  0  0  0  0  0
   10.4390    2.6910   24.3020 O   0  0  0  0  0  0  0  0  0  0  0  0
   12.4930    1.4230   23.7920 H   0  0  0  0  0  0  0  0  0  0  0  0
   13.6590   -0.0910   22.2860 H   0  0  0  0  0  0  0  0  0  0  0  0
    9.9300   -1.7550   21.0100 H   0  0  0  0  0  0  0  0  0  0  0  0
    8.1950   -0.5830   25.0150 H   0  0  0  0  0  0  0  0  0  0  0  0
    6.7910    0.2210   24.3180 H   0  0  0  0  0  0  0  0  0  0  0  0
    8.1850    3.4850   24.7980 H   0  0  0  0  0  0  0  0  0  0  0  0
    6.7440    2.5920   24.2890 H   0  0  0  0  0  0  0  0  0  0  0  0
    8.9510    2.8430   27.1940 H   0  0  0  0  0  0  0  0  0  0  0  0
    8.5190    2.8850   29.4170 H   0  0  0  0  0  0  0  0  0  0  0  0
    6.8060    3.1490   29.0320 H   0  0  0  0  0  0  0  0  0  0  0  0
    7.4730    1.4870   29.0610 H   0  0  0  0  0  0  0  0  0  0  0  0
  1  2  1  0  0  0  0
  1 55  1  0  0  0  0
  1 56  1  0  0  0  0
  1 57  1  0  0  0  0
  2  3  1  0  0  0  0
  2 54  1  0  0  0  0
  3  4  2  0  0  0  0
  3  5  1  0  0  0  0
  5  6  1  0  0  0  0
  5 52  1  0  0  0  0
  5 53  1  0  0  0  0
  6  7  1  0  0  0  0
  6 45  1  0  0  0  0
  7  8  1  0  0  0  0
  7 50  1  0  0  0  0
  7 51  1  0  0  0  0
  8  9  1  6  0  0  0
  8 29  1  0  0  0  0
  8 38  1  0  0  0  0
  9 10  2  0  0  0  0
  9 11  1  0  0  0  0
 11 12  1  0  0  0  0
 11 28  1  0  0  0  0
 12 13  2  0  0  0  0
 12 21  1  0  0  0  0
 13 14  1  0  0  0  0
 13 27  1  0  0  0  0
 14 15  2  0  0  0  0
 15 16  1  0  0  0  0
 15 26  1  0  0  0  0
 16 17  2  0  0  0  0
 16 21  1  0  0  0  0
 17 18  1  0  0  0  0
 17 25  1  0  0  0  0
 18 19  2  0  0  0  0
 18 24  1  0  0  0  0
 19 20  1  0  0  0  0
 19 23  1  0  0  0  0
 20 21  2  0  0  0  0
 20 22  1  0  0  0  0
 28 29  1  0  0  0  0
 28 36  1  0  0  0  0
 28 37  1  0  0  0  0
 29 30  1  0  0  0  0
 29 35  1  6  0  0  0
 30 31  1  0  0  0  0
 30 33  1  0  0  0  0
 30 34  1  0  0  0  0
 31 32  3  0  0  0  0
 38 39  2  0  0  0  0
 38 44  1  0  0  0  0
 39 40  1  0  0  0  0
 39 49  1  0  0  0  0
 40 41  1  0  0  0  0
 40 42  2  0  0  0  0
 42 43  1  0  0  0  0
 42 48  1  0  0  0  0
 43 44  2  0  0  0  0
 43 47  1  0  0  0  0
 44 45  1  0  0  0  0
 45 46  2  0  0  0  0
M  END
>  <MODEL>
       1

$$$$
