output/tmp_first_model_1_79.pdb
 OpenBabel07222618483D

 40 42  0  0  0  0  0  0  0  0999 V2000
    9.8620   -1.8460   25.1830 C   0  0  0  0  0  0  0  0  0  0  0  0
    9.5860   -0.3360   25.1920 C   0  0  0  0  0  0  0  0  0  0  0  0
   10.3150    0.3750   24.0240 C   0  0  0  0  0  0  0  0  0  0  0  0
    9.3810    1.2590   23.1950 C   0  0  0  0  0  0  0  0  0  0  0  0
    8.2170    0.4940   22.7450 N   0  0  0  0  0  0  0  0  0  0  0  0
    7.8760    0.5100   21.4180 C   0  0  0  0  0  0  0  0  0  0  0  0
    8.4170    1.2650   20.6160 O   0  0  0  0  0  0  0  0  0  0  0  0
    6.8690   -0.5620   20.9500 C   0  0  0  0  0  0  0  0  0  0  0  0
    5.9420   -0.1450   19.8380 C   0  0  0  0  0  0  0  0  0  0  0  0
    6.3790   -0.2380   18.5400 C   0  0  0  0  0  0  0  0  0  0  0  0
    5.6850    0.1080   17.4280 N   0  0  0  0  0  0  0  0  0  0  0  0
    4.4700    0.5570   17.6190 C   0  0  0  0  0  0  0  0  0  0  0  0
    3.8680    0.6980   18.8970 C   0  0  0  0  0  0  0  0  0  0  0  0
    2.5800    1.2780   19.0470 C   0  0  0  0  0  0  0  0  0  0  0  0
    2.0550    1.4910   20.2900 C   0  0  0  0  0  0  0  0  0  0  0  0
    2.7970    1.1440   21.4460 C   0  0  0  0  0  0  0  0  0  0  0  0
    4.0380    0.5610   21.3380 C   0  0  0  0  0  0  0  0  0  0  0  0
    4.6200    0.3450   20.0540 C   0  0  0  0  0  0  0  0  0  0  0  0
    4.5740    0.2530   22.2330 H   0  0  0  0  0  0  0  0  0  0  0  0
    2.3730    1.3870   22.4170 H   0  0  0  0  0  0  0  0  0  0  0  0
    1.0650    1.9330   20.4030 H   0  0  0  0  0  0  0  0  0  0  0  0
    2.0290    1.6000   18.1690 H   0  0  0  0  0  0  0  0  0  0  0  0
    3.9060    0.8470   16.7300 H   0  0  0  0  0  0  0  0  0  0  0  0
    7.3840   -0.6000   18.3470 H   0  0  0  0  0  0  0  0  0  0  0  0
    6.2970   -0.9850   21.7800 H   0  0  0  0  0  0  0  0  0  0  0  0
    7.5080   -1.3780   20.5750 H   0  0  0  0  0  0  0  0  0  0  0  0
    7.5000   -0.2860   23.7520 C   0  0  0  0  0  0  0  0  0  0  0  0
    8.0830   -0.0290   25.1380 C   0  0  0  0  0  0  0  0  0  0  0  0
    7.5340   -0.6160   25.8820 H   0  0  0  0  0  0  0  0  0  0  0  0
    7.9180    1.0240   25.3930 H   0  0  0  0  0  0  0  0  0  0  0  0
    6.4350   -0.0110   23.7490 H   0  0  0  0  0  0  0  0  0  0  0  0
    7.5540   -1.3580   23.5140 H   0  0  0  0  0  0  0  0  0  0  0  0
    9.8790    1.6340   22.3010 H   0  0  0  0  0  0  0  0  0  0  0  0
    9.0560    2.1270   23.7850 H   0  0  0  0  0  0  0  0  0  0  0  0
   10.7550   -0.3720   23.3520 H   0  0  0  0  0  0  0  0  0  0  0  0
   11.1430    0.9750   24.4160 H   0  0  0  0  0  0  0  0  0  0  0  0
    9.9680    0.0580   26.1430 H   0  0  0  0  0  0  0  0  0  0  0  0
   10.9280   -2.0590   25.0770 H   0  0  0  0  0  0  0  0  0  0  0  0
    9.3660   -2.3500   24.3470 H   0  0  0  0  0  0  0  0  0  0  0  0
    9.5210   -2.3230   26.1070 H   0  0  0  0  0  0  0  0  0  0  0  0
  1  2  1  0  0  0  0
  1 38  1  0  0  0  0
  1 39  1  0  0  0  0
  1 40  1  0  0  0  0
  2  3  1  0  0  0  0
  2 28  1  0  0  0  0
  2 37  1  0  0  0  0
  3  4  1  0  0  0  0
  3 35  1  0  0  0  0
  3 36  1  0  0  0  0
  4  5  1  0  0  0  0
  4 33  1  0  0  0  0
  4 34  1  0  0  0  0
  5  6  1  0  0  0  0
  5 27  1  0  0  0  0
  6  7  2  0  0  0  0
  6  8  1  0  0  0  0
  8  9  1  0  0  0  0
  8 25  1  0  0  0  0
  8 26  1  0  0  0  0
  9 10  2  0  0  0  0
  9 18  1  0  0  0  0
 10 11  1  0  0  0  0
 10 24  1  0  0  0  0
 11 12  2  0  0  0  0
 12 13  1  0  0  0  0
 12 23  1  0  0  0  0
 13 14  2  0  0  0  0
 13 18  1  0  0  0  0
 14 15  1  0  0  0  0
 14 22  1  0  0  0  0
 15 16  2  0  0  0  0
 15 21  1  0  0  0  0
 16 17  1  0  0  0  0
 16 20  1  0  0  0  0
 17 18  2  0  0  0  0
 17 19  1  0  0  0  0
 27 28  1  0  0  0  0
 27 31  1  0  0  0  0
 27 32  1  0  0  0  0
 28 29  1  0  0  0  0
 28 30  1  0  0  0  0
M  END
>  <MODEL>
       1

$$$$
