output/tmp_first_model_4_7.pdb
 OpenBabel07222620063D

 37 39  0  0  0  0  0  0  0  0999 V2000
    8.1850    1.6790   20.8420 O   0  0  0  0  0  0  0  0  0  0  0  0
    8.1780    0.5340   21.2700 C   0  0  0  0  0  0  0  0  0  0  0  0
    7.0430   -0.4380   20.8960 C   0  0  0  0  0  0  0  0  0  0  0  0
    6.1670    0.0780   19.7870 C   0  0  0  0  0  0  0  0  0  0  0  0
    6.4760   -0.2320   18.4890 C   0  0  0  0  0  0  0  0  0  0  0  0
    5.8110    0.2030   17.3840 N   0  0  0  0  0  0  0  0  0  0  0  0
    4.7860    0.9900   17.5940 C   0  0  0  0  0  0  0  0  0  0  0  0
    4.3400    1.4000   18.8790 C   0  0  0  0  0  0  0  0  0  0  0  0
    3.2180    2.2500   19.0440 C   0  0  0  0  0  0  0  0  0  0  0  0
    2.8080    2.6170   20.2950 C   0  0  0  0  0  0  0  0  0  0  0  0
    3.5070    2.1600   21.4310 C   0  0  0  0  0  0  0  0  0  0  0  0
    4.6070    1.3510   21.2990 C   0  0  0  0  0  0  0  0  0  0  0  0
    5.0500    0.9380   20.0150 C   0  0  0  0  0  0  0  0  0  0  0  0
    5.1460    1.0250   22.1830 H   0  0  0  0  0  0  0  0  0  0  0  0
    3.1670    2.4590   22.4200 H   0  0  0  0  0  0  0  0  0  0  0  0
    1.9490    3.2730   20.4200 H   0  0  0  0  0  0  0  0  0  0  0  0
    2.6970    2.6040   18.1580 H   0  0  0  0  0  0  0  0  0  0  0  0
    4.2460    1.3510   16.7170 H   0  0  0  0  0  0  0  0  0  0  0  0
    7.3270   -0.8830   18.2900 H   0  0  0  0  0  0  0  0  0  0  0  0
    7.5150   -1.3750   20.5650 H   0  0  0  0  0  0  0  0  0  0  0  0
    6.4540   -0.6620   21.7980 H   0  0  0  0  0  0  0  0  0  0  0  0
    9.1660    0.0330   22.0880 N   0  0  0  0  0  0  0  0  0  0  0  0
   10.3000    0.8790   22.4530 C   0  0  0  0  0  0  0  0  0  0  0  0
   11.5840    0.0910   22.1800 C   0  0  0  0  0  0  0  0  0  0  0  0
   11.6690   -1.1230   23.0960 C   0  0  0  0  0  0  0  0  0  0  0  0
   10.4540   -1.9880   22.7440 C   0  0  0  0  0  0  0  0  0  0  0  0
    9.1420   -1.1990   22.8890 C   0  0  0  0  0  0  0  0  0  0  0  0
    8.9960   -0.9100   23.9430 H   0  0  0  0  0  0  0  0  0  0  0  0
    8.2950   -1.8440   22.6390 H   0  0  0  0  0  0  0  0  0  0  0  0
   10.5670   -2.2920   21.6910 H   0  0  0  0  0  0  0  0  0  0  0  0
   10.4120   -2.9080   23.3380 H   0  0  0  0  0  0  0  0  0  0  0  0
   11.6650   -0.8120   24.1510 H   0  0  0  0  0  0  0  0  0  0  0  0
   12.6130   -1.6570   22.9290 H   0  0  0  0  0  0  0  0  0  0  0  0
   12.4480    0.7550   22.2280 H   0  0  0  0  0  0  0  0  0  0  0  0
   11.5550   -0.3400   21.1680 H   0  0  0  0  0  0  0  0  0  0  0  0
   10.2120    1.1320   23.5280 H   0  0  0  0  0  0  0  0  0  0  0  0
   10.2530    1.8240   21.9090 H   0  0  0  0  0  0  0  0  0  0  0  0
  1  2  2  0  0  0  0
  2  3  1  0  0  0  0
  2 22  1  0  0  0  0
  3  4  1  0  0  0  0
  3 20  1  0  0  0  0
  3 21  1  0  0  0  0
  4  5  2  0  0  0  0
  4 13  1  0  0  0  0
  5  6  1  0  0  0  0
  5 19  1  0  0  0  0
  6  7  2  0  0  0  0
  7  8  1  0  0  0  0
  7 18  1  0  0  0  0
  8  9  2  0  0  0  0
  8 13  1  0  0  0  0
  9 10  1  0  0  0  0
  9 17  1  0  0  0  0
 10 11  2  0  0  0  0
 10 16  1  0  0  0  0
 11 12  1  0  0  0  0
 11 15  1  0  0  0  0
 12 13  2  0  0  0  0
 12 14  1  0  0  0  0
 22 23  1  0  0  0  0
 22 27  1  0  0  0  0
 23 24  1  0  0  0  0
 23 36  1  0  0  0  0
 23 37  1  0  0  0  0
 24 25  1  0  0  0  0
 24 34  1  0  0  0  0
 24 35  1  0  0  0  0
 25 26  1  0  0  0  0
 25 32  1  0  0  0  0
 25 33  1  0  0  0  0
 26 27  1  0  0  0  0
 26 30  1  0  0  0  0
 26 31  1  0  0  0  0
 27 28  1  0  0  0  0
 27 29  1  0  0  0  0
M  END
>  <MODEL>
       1

$$$$
