output/tmp_first_model_1_59.pdb
 OpenBabel07222618483D

 60 65  0  0  1  0  0  0  0  0999 V2000
    6.7620   -5.0680   23.6660 C   0  0  0  0  0  0  0  0  0  0  0  0
    7.4770   -4.2420   22.7800 O   0  0  0  0  0  0  0  0  0  0  0  0
    7.7350   -2.9860   23.3740 C   0  0  0  0  0  0  0  0  0  0  0  0
    7.9990   -1.9690   22.2730 C   0  0  1  0  0  0  0  0  0  0  0  0
    6.8240   -1.9200   21.2790 C   0  0  0  0  0  0  0  0  0  0  0  0
    6.7700   -0.5290   20.8650 N   0  0  0  0  0  0  0  0  0  0  0  0
    5.9110   -0.1050   19.8120 C   0  0  0  0  0  0  0  0  0  0  0  0
    6.3570   -0.1880   18.5170 C   0  0  0  0  0  0  0  0  0  0  0  0
    5.6260    0.1130   17.4140 N   0  0  0  0  0  0  0  0  0  0  0  0
    4.3990    0.5270   17.6080 C   0  0  0  0  0  0  0  0  0  0  0  0
    3.7940    0.6750   18.8900 C   0  0  0  0  0  0  0  0  0  0  0  0
    2.5070    1.2570   19.0510 C   0  0  0  0  0  0  0  0  0  0  0  0
    1.9380    1.3640   20.2900 C   0  0  0  0  0  0  0  0  0  0  0  0
    2.6590    0.9340   21.4260 C   0  0  0  0  0  0  0  0  0  0  0  0
    3.9300    0.4260   21.3090 C   0  0  0  0  0  0  0  0  0  0  0  0
    4.5520    0.3130   20.0340 C   0  0  0  0  0  0  0  0  0  0  0  0
    4.4900    0.1580   22.1980 H   0  0  0  0  0  0  0  0  0  0  0  0
    2.2110    1.0500   22.4070 H   0  0  0  0  0  0  0  0  0  0  0  0
    0.9310    1.7530   20.4130 H   0  0  0  0  0  0  0  0  0  0  0  0
    2.0170    1.6920   18.1860 H   0  0  0  0  0  0  0  0  0  0  0  0
    3.8020    0.7350   16.7210 H   0  0  0  0  0  0  0  0  0  0  0  0
    7.3700   -0.5340   18.3270 H   0  0  0  0  0  0  0  0  0  0  0  0
    7.6720    0.2960   21.5160 C   0  0  0  0  0  0  0  0  0  0  0  0
    7.9180    1.4420   21.1940 O   0  0  0  0  0  0  0  0  0  0  0  0
    8.2360   -0.4870   22.7280 C   0  0  1  0  0  0  0  0  0  0  0  0
    7.3700   -0.0560   23.9450 C   0  0  0  0  0  0  0  0  0  0  0  0
    7.9150   -0.4880   25.2280 N   0  0  0  0  0  0  0  0  0  0  0  0
    7.0300   -0.8200   26.3360 C   0  0  0  0  0  0  0  0  0  0  0  0
    6.7930   -2.2970   26.5130 C   0  0  0  0  0  0  0  0  0  0  0  0
    5.6380   -2.9110   26.3680 N   0  0  0  0  0  0  0  0  0  0  0  0
    5.8580   -4.2100   26.7530 C   0  0  0  0  0  0  0  0  0  0  0  0
    7.1670   -4.3980   27.1160 C   0  0  0  0  0  0  0  0  0  0  0  0
    7.7600   -3.1630   26.9430 N   0  0  0  0  0  0  0  0  0  0  0  0
    8.7230   -2.9330   27.1370 H   0  0  0  0  0  0  0  0  0  0  0  0
    7.6980   -5.2720   27.4720 H   0  0  0  0  0  0  0  0  0  0  0  0
    5.0520   -4.9330   26.7270 H   0  0  0  0  0  0  0  0  0  0  0  0
    7.4980   -0.4300   27.2470 H   0  0  0  0  0  0  0  0  0  0  0  0
    6.0570   -0.3390   26.2130 H   0  0  0  0  0  0  0  0  0  0  0  0
    9.2320   -0.2680   25.5260 C   0  0  0  0  0  0  0  0  0  0  0  0
    9.6460   -0.2310   26.6760 O   0  0  0  0  0  0  0  0  0  0  0  0
   10.1480   -0.1140   24.3580 C   0  0  0  0  0  0  0  0  0  0  0  0
   11.4960    0.0740   24.6520 C   0  0  0  0  0  0  0  0  0  0  0  0
   12.4220    0.2230   23.6470 C   0  0  0  0  0  0  0  0  0  0  0  0
   11.9780    0.2130   22.3290 C   0  0  0  0  0  0  0  0  0  0  0  0
   13.2110    0.5080   21.1340 Cl  0  0  0  0  0  0  0  0  0  0  0  0
   10.6400    0.0100   22.0090 C   0  0  0  0  0  0  0  0  0  0  0  0
    9.6930   -0.1720   23.0340 C   0  0  0  0  0  0  0  0  0  0  0  0
   10.3230   -0.0030   20.9720 H   0  0  0  0  0  0  0  0  0  0  0  0
   13.4820    0.3360   23.8510 H   0  0  0  0  0  0  0  0  0  0  0  0
   11.7980    0.1000   25.6880 H   0  0  0  0  0  0  0  0  0  0  0  0
    6.3560   -0.4650   23.8520 H   0  0  0  0  0  0  0  0  0  0  0  0
    7.2900    1.0400   23.9090 H   0  0  0  0  0  0  0  0  0  0  0  0
    6.9790   -2.5820   20.4170 H   0  0  0  0  0  0  0  0  0  0  0  0
    5.8770   -2.2300   21.7490 H   0  0  0  0  0  0  0  0  0  0  0  0
    8.9020   -2.2900   21.7400 H   0  0  0  0  0  0  0  0  0  0  0  0
    6.8710   -2.6750   23.9720 H   0  0  0  0  0  0  0  0  0  0  0  0
    8.5970   -3.0590   24.0470 H   0  0  0  0  0  0  0  0  0  0  0  0
    7.3150   -5.2230   24.6060 H   0  0  0  0  0  0  0  0  0  0  0  0
    5.7910   -4.6160   23.9210 H   0  0  0  0  0  0  0  0  0  0  0  0
    6.5910   -6.0330   23.1850 H   0  0  0  0  0  0  0  0  0  0  0  0
  1  2  1  0  0  0  0
  1 58  1  0  0  0  0
  1 59  1  0  0  0  0
  1 60  1  0  0  0  0
  2  3  1  0  0  0  0
  3  4  1  0  0  0  0
  3 56  1  0  0  0  0
  3 57  1  0  0  0  0
  4  5  1  0  0  0  0
  4 25  1  0  0  0  0
  4 55  1  6  0  0  0
  5  6  1  0  0  0  0
  5 53  1  0  0  0  0
  5 54  1  0  0  0  0
  6  7  1  0  0  0  0
  6 23  1  0  0  0  0
  7  8  2  0  0  0  0
  7 16  1  0  0  0  0
  8  9  1  0  0  0  0
  8 22  1  0  0  0  0
  9 10  2  0  0  0  0
 10 11  1  0  0  0  0
 10 21  1  0  0  0  0
 11 12  2  0  0  0  0
 11 16  1  0  0  0  0
 12 13  1  0  0  0  0
 12 20  1  0  0  0  0
 13 14  2  0  0  0  0
 13 19  1  0  0  0  0
 14 15  1  0  0  0  0
 14 18  1  0  0  0  0
 15 16  2  0  0  0  0
 15 17  1  0  0  0  0
 23 24  2  0  0  0  0
 25 23  1  6  0  0  0
 25 26  1  0  0  0  0
 25 47  1  0  0  0  0
 26 27  1  0  0  0  0
 26 51  1  0  0  0  0
 26 52  1  0  0  0  0
 27 28  1  0  0  0  0
 27 39  1  0  0  0  0
 28 29  1  0  0  0  0
 28 37  1  0  0  0  0
 28 38  1  0  0  0  0
 29 30  2  0  0  0  0
 29 33  1  0  0  0  0
 30 31  1  0  0  0  0
 31 32  2  0  0  0  0
 31 36  1  0  0  0  0
 32 33  1  0  0  0  0
 32 35  1  0  0  0  0
 33 34  1  0  0  0  0
 39 40  2  0  0  0  0
 39 41  1  0  0  0  0
 41 42  2  0  0  0  0
 41 47  1  0  0  0  0
 42 43  1  0  0  0  0
 42 50  1  0  0  0  0
 43 44  2  0  0  0  0
 43 49  1  0  0  0  0
 44 45  1  0  0  0  0
 44 46  1  0  0  0  0
 46 47  2  0  0  0  0
 46 48  1  0  0  0  0
M  END
>  <MODEL>
       1

$$$$
