output/tmp_first_model_16_54.pdb
 OpenBabel07232602073D

 66 71  0  0  1  0  0  0  0  0999 V2000
    6.5080    4.2690   21.2090 C   0  0  0  0  0  0  0  0  0  0  0  0
    7.4860    3.9060   22.2240 N   0  0  0  0  0  0  0  0  0  0  0  0
    7.0610    3.3330   23.3790 C   0  0  0  0  0  0  0  0  0  0  0  0
    5.8740    3.1650   23.6310 O   0  0  0  0  0  0  0  0  0  0  0  0
    8.1490    2.9090   24.3720 C   0  0  0  0  0  0  0  0  0  0  0  0
    8.7980    1.6660   23.9780 N   0  0  0  0  0  0  0  0  0  0  0  0
    8.0000    0.4580   23.8230 C   0  0  0  0  0  0  0  0  0  0  0  0
    8.4230   -0.3910   22.5940 C   0  0  2  0  0  0  0  0  0  0  0  0
    7.9620    0.3010   21.2870 C   0  0  0  0  0  0  0  0  0  0  0  0
    8.4540    1.2810   20.7680 O   0  0  0  0  0  0  0  0  0  0  0  0
    6.8850   -0.3870   20.7810 N   0  0  0  0  0  0  0  0  0  0  0  0
    6.1160    0.1300   19.7140 C   0  0  0  0  0  0  0  0  0  0  0  0
    6.4550   -0.1630   18.4200 C   0  0  0  0  0  0  0  0  0  0  0  0
    5.7600    0.2760   17.3460 N   0  0  0  0  0  0  0  0  0  0  0  0
    4.7150    1.0350   17.5620 C   0  0  0  0  0  0  0  0  0  0  0  0
    4.2640    1.4240   18.8570 C   0  0  0  0  0  0  0  0  0  0  0  0
    3.1520    2.2850   19.0520 C   0  0  0  0  0  0  0  0  0  0  0  0
    2.7660    2.6500   20.3150 C   0  0  0  0  0  0  0  0  0  0  0  0
    3.4660    2.1670   21.4440 C   0  0  0  0  0  0  0  0  0  0  0  0
    4.5410    1.3260   21.2780 C   0  0  0  0  0  0  0  0  0  0  0  0
    4.9740    0.9410   19.9780 C   0  0  0  0  0  0  0  0  0  0  0  0
    5.1110    1.0090   22.1460 H   0  0  0  0  0  0  0  0  0  0  0  0
    3.1880    2.4910   22.4430 H   0  0  0  0  0  0  0  0  0  0  0  0
    1.9280    3.3260   20.4570 H   0  0  0  0  0  0  0  0  0  0  0  0
    2.6320    2.6590   18.1750 H   0  0  0  0  0  0  0  0  0  0  0  0
    4.1700    1.3930   16.6880 H   0  0  0  0  0  0  0  0  0  0  0  0
    7.3260   -0.7830   18.2170 H   0  0  0  0  0  0  0  0  0  0  0  0
    6.4400   -1.4900   21.5950 C   0  0  0  0  0  0  0  0  0  0  0  0
    7.6540   -1.7530   22.4920 C   0  0  2  0  0  0  0  0  0  0  0  0
    7.2560   -2.4750   23.7710 C   0  0  0  0  0  0  0  0  0  0  0  0
    8.4220   -3.0150   24.4310 N   0  0  0  0  0  0  0  0  0  0  0  0
    8.3250   -3.4040   25.7410 C   0  0  0  0  0  0  0  0  0  0  0  0
    9.4810   -3.7580   26.4690 C   0  0  0  0  0  0  0  0  0  0  0  0
    9.4340   -4.0680   27.7460 N   0  0  0  0  0  0  0  0  0  0  0  0
    8.2280   -4.0540   28.3340 C   0  0  0  0  0  0  0  0  0  0  0  0
    7.0830   -3.7870   27.6030 C   0  0  0  0  0  0  0  0  0  0  0  0
    7.1190   -3.4510   26.3080 N   0  0  0  0  0  0  0  0  0  0  0  0
    6.0910   -3.8330   28.0540 H   0  0  0  0  0  0  0  0  0  0  0  0
    8.2010   -4.2390   29.4020 H   0  0  0  0  0  0  0  0  0  0  0  0
   10.4620   -3.7530   25.9940 H   0  0  0  0  0  0  0  0  0  0  0  0
    9.3230   -2.6310   24.1680 H   0  0  0  0  0  0  0  0  0  0  0  0
    6.5700   -3.3020   23.5480 H   0  0  0  0  0  0  0  0  0  0  0  0
    6.7000   -1.8150   24.4540 H   0  0  0  0  0  0  0  0  0  0  0  0
    8.3130   -2.4250   21.9360 H   0  0  0  0  0  0  0  0  0  0  0  0
    6.1950   -2.3510   20.9640 H   0  0  0  0  0  0  0  0  0  0  0  0
    5.5310   -1.2420   22.1680 H   0  0  0  0  0  0  0  0  0  0  0  0
    9.9400   -0.4790   22.5410 C   0  0  0  0  0  0  0  0  0  0  0  0
   10.5460   -1.3600   21.6330 C   0  0  0  0  0  0  0  0  0  0  0  0
   11.9010   -1.2710   21.3790 C   0  0  0  0  0  0  0  0  0  0  0  0
   12.5730   -2.2730   20.1190 Cl  0  0  0  0  0  0  0  0  0  0  0  0
   12.7100   -0.3530   22.0510 C   0  0  0  0  0  0  0  0  0  0  0  0
   12.1340    0.4800   22.9860 C   0  0  0  0  0  0  0  0  0  0  0  0
   10.7520    0.4660   23.1860 C   0  0  0  0  0  0  0  0  0  0  0  0
   10.1660    1.6110   23.9630 C   0  0  0  0  0  0  0  0  0  0  0  0
   10.8710    2.4700   24.4750 O   0  0  0  0  0  0  0  0  0  0  0  0
   12.7260    1.1900   23.5550 H   0  0  0  0  0  0  0  0  0  0  0  0
   13.7650   -0.2740   21.8090 H   0  0  0  0  0  0  0  0  0  0  0  0
    9.9740   -2.0800   21.0570 H   0  0  0  0  0  0  0  0  0  0  0  0
    6.9600    0.7710   23.7210 H   0  0  0  0  0  0  0  0  0  0  0  0
    8.0840   -0.1510   24.7330 H   0  0  0  0  0  0  0  0  0  0  0  0
    8.9420    3.6600   24.4270 H   0  0  0  0  0  0  0  0  0  0  0  0
    7.6920    2.8340   25.3680 H   0  0  0  0  0  0  0  0  0  0  0  0
    8.4290    3.6940   21.9320 H   0  0  0  0  0  0  0  0  0  0  0  0
    7.0180    4.7540   20.3760 H   0  0  0  0  0  0  0  0  0  0  0  0
    5.7820    4.9720   21.6300 H   0  0  0  0  0  0  0  0  0  0  0  0
    5.9680    3.3860   20.8380 H   0  0  0  0  0  0  0  0  0  0  0  0
  1  2  1  0  0  0  0
  1 64  1  0  0  0  0
  1 65  1  0  0  0  0
  1 66  1  0  0  0  0
  2  3  1  0  0  0  0
  2 63  1  0  0  0  0
  3  4  2  0  0  0  0
  3  5  1  0  0  0  0
  5  6  1  0  0  0  0
  5 61  1  0  0  0  0
  5 62  1  0  0  0  0
  6  7  1  0  0  0  0
  6 54  1  0  0  0  0
  7  8  1  0  0  0  0
  7 59  1  0  0  0  0
  7 60  1  0  0  0  0
  8  9  1  6  0  0  0
  8 29  1  0  0  0  0
  8 47  1  0  0  0  0
  9 10  2  0  0  0  0
  9 11  1  0  0  0  0
 11 12  1  0  0  0  0
 11 28  1  0  0  0  0
 12 13  2  0  0  0  0
 12 21  1  0  0  0  0
 13 14  1  0  0  0  0
 13 27  1  0  0  0  0
 14 15  2  0  0  0  0
 15 16  1  0  0  0  0
 15 26  1  0  0  0  0
 16 17  2  0  0  0  0
 16 21  1  0  0  0  0
 17 18  1  0  0  0  0
 17 25  1  0  0  0  0
 18 19  2  0  0  0  0
 18 24  1  0  0  0  0
 19 20  1  0  0  0  0
 19 23  1  0  0  0  0
 20 21  2  0  0  0  0
 20 22  1  0  0  0  0
 28 29  1  0  0  0  0
 28 45  1  0  0  0  0
 28 46  1  0  0  0  0
 29 30  1  0  0  0  0
 29 44  1  6  0  0  0
 30 31  1  0  0  0  0
 30 42  1  0  0  0  0
 30 43  1  0  0  0  0
 31 32  1  0  0  0  0
 31 41  1  0  0  0  0
 32 33  2  0  0  0  0
 32 37  1  0  0  0  0
 33 34  1  0  0  0  0
 33 40  1  0  0  0  0
 34 35  2  0  0  0  0
 35 36  1  0  0  0  0
 35 39  1  0  0  0  0
 36 37  2  0  0  0  0
 36 38  1  0  0  0  0
 47 48  2  0  0  0  0
 47 53  1  0  0  0  0
 48 49  1  0  0  0  0
 48 58  1  0  0  0  0
 49 50  1  0  0  0  0
 49 51  2  0  0  0  0
 51 52  1  0  0  0  0
 51 57  1  0  0  0  0
 52 53  2  0  0  0  0
 52 56  1  0  0  0  0
 53 54  1  0  0  0  0
 54 55  2  0  0  0  0
M  END
>  <MODEL>
       1

$$$$
