output/tmp_first_model_7_24.pdb
 OpenBabel07222621533D

 70 75  0  0  1  0  0  0  0  0999 V2000
    7.0550    5.0510   22.6540 C   0  0  0  0  0  0  0  0  0  0  0  0
    7.4250    3.7920   23.3050 N   0  3  0  0  0  0  0  0  0  0  0  0
    6.3110    3.1130   24.0040 C   0  0  0  0  0  0  0  0  0  0  0  0
    6.8310    2.1830   25.1060 C   0  0  0  0  0  0  0  0  0  0  0  0
    7.8890    1.3000   24.6260 N   0  0  0  0  0  0  0  0  0  0  0  0
    7.5560   -0.0440   24.2010 C   0  0  0  0  0  0  0  0  0  0  0  0
    8.1680   -0.4130   22.8200 C   0  0  2  0  0  0  0  0  0  0  0  0
    7.4730    0.4200   21.7210 C   0  0  0  0  0  0  0  0  0  0  0  0
    7.5900    1.6260   21.5730 O   0  0  0  0  0  0  0  0  0  0  0  0
    6.6800   -0.4080   20.9660 N   0  0  0  0  0  0  0  0  0  0  0  0
    5.8710    0.0300   19.8800 C   0  0  0  0  0  0  0  0  0  0  0  0
    6.3720    0.0410   18.6010 C   0  0  0  0  0  0  0  0  0  0  0  0
    5.6860    0.4640   17.5100 N   0  0  0  0  0  0  0  0  0  0  0  0
    4.4660    0.9000   17.6950 C   0  0  0  0  0  0  0  0  0  0  0  0
    3.8040    0.9020   18.9550 C   0  0  0  0  0  0  0  0  0  0  0  0
    2.4880    1.4170   19.0970 C   0  0  0  0  0  0  0  0  0  0  0  0
    1.8770    1.4260   20.3210 C   0  0  0  0  0  0  0  0  0  0  0  0
    2.5560    0.9140   21.4480 C   0  0  0  0  0  0  0  0  0  0  0  0
    3.8290    0.4010   21.3360 C   0  0  0  0  0  0  0  0  0  0  0  0
    4.5060    0.4210   20.0830 C   0  0  0  0  0  0  0  0  0  0  0  0
    4.3170   -0.0270   22.2070 H   0  0  0  0  0  0  0  0  0  0  0  0
    2.0620    0.9130   22.4160 H   0  0  0  0  0  0  0  0  0  0  0  0
    0.8620    1.8010   20.4330 H   0  0  0  0  0  0  0  0  0  0  0  0
    2.0020    1.8250   18.2160 H   0  0  0  0  0  0  0  0  0  0  0  0
    3.9100    1.2620   16.8270 H   0  0  0  0  0  0  0  0  0  0  0  0
    7.3860   -0.3090   18.4160 H   0  0  0  0  0  0  0  0  0  0  0  0
    6.5960   -1.7610   21.4800 C   0  0  0  0  0  0  0  0  0  0  0  0
    7.8180   -1.8680   22.4040 C   0  0  2  0  0  0  0  0  0  0  0  0
    7.6440   -2.8560   23.5540 C   0  0  0  0  0  0  0  0  0  0  0  0
    7.2820   -4.1160   23.0360 O   0  0  0  0  0  0  0  0  0  0  0  0
    6.9510   -5.0480   24.0460 C   0  0  0  0  0  0  0  0  0  0  0  0
    6.5910   -6.3540   23.3680 C   0  0  0  0  0  0  0  0  0  0  0  0
    6.7290   -7.6010   24.2510 C   0  0  0  0  0  0  0  0  0  0  0  0
    7.9390   -7.9940   23.5880 O   0  0  0  0  0  0  0  0  0  0  0  0
    7.7780   -6.9580   22.6090 C   0  0  0  0  0  0  0  0  0  0  0  0
    7.5600   -7.3480   21.6100 H   0  0  0  0  0  0  0  0  0  0  0  0
    8.6470   -6.2980   22.5650 H   0  0  0  0  0  0  0  0  0  0  0  0
    6.8820   -7.4330   25.3250 H   0  0  0  0  0  0  0  0  0  0  0  0
    5.9440   -8.3550   24.1260 H   0  0  0  0  0  0  0  0  0  0  0  0
    5.6680   -6.2490   22.7960 H   0  0  0  0  0  0  0  0  0  0  0  0
    7.8070   -5.2080   24.7220 H   0  0  0  0  0  0  0  0  0  0  0  0
    6.1170   -4.6730   24.6620 H   0  0  0  0  0  0  0  0  0  0  0  0
    8.5820   -2.9250   24.1300 H   0  0  0  0  0  0  0  0  0  0  0  0
    6.8590   -2.5030   24.2430 H   0  0  0  0  0  0  0  0  0  0  0  0
    8.6300   -2.2400   21.7820 H   0  0  0  0  0  0  0  0  0  0  0  0
    5.6570   -1.9320   22.0220 H   0  0  0  0  0  0  0  0  0  0  0  0
    6.6240   -2.4690   20.6490 H   0  0  0  0  0  0  0  0  0  0  0  0
    9.6490   -0.1010   22.8840 C   0  0  0  0  0  0  0  0  0  0  0  0
   10.6020   -0.8180   22.1550 C   0  0  0  0  0  0  0  0  0  0  0  0
   11.9400   -0.5150   22.2890 C   0  0  0  0  0  0  0  0  0  0  0  0
   13.0830   -1.5570   21.5120 Cl  0  0  0  0  0  0  0  0  0  0  0  0
   12.3870    0.5580   23.0550 C   0  0  0  0  0  0  0  0  0  0  0  0
   11.4470    1.3070   23.7350 C   0  0  0  0  0  0  0  0  0  0  0  0
   10.0980    0.9670   23.6720 C   0  0  0  0  0  0  0  0  0  0  0  0
    9.1340    1.8030   24.4470 C   0  0  0  0  0  0  0  0  0  0  0  0
    9.4640    2.9140   24.8760 O   0  0  0  0  0  0  0  0  0  0  0  0
   11.7270    2.1560   24.3460 H   0  0  0  0  0  0  0  0  0  0  0  0
   13.4410    0.8010   23.0920 H   0  0  0  0  0  0  0  0  0  0  0  0
   10.3400   -1.6110   21.4640 H   0  0  0  0  0  0  0  0  0  0  0  0
    6.4660   -0.1050   24.1370 H   0  0  0  0  0  0  0  0  0  0  0  0
    7.9190   -0.7580   24.9540 H   0  0  0  0  0  0  0  0  0  0  0  0
    6.0160    1.5540   25.4750 H   0  0  0  0  0  0  0  0  0  0  0  0
    7.2210    2.7460   25.9590 H   0  0  0  0  0  0  0  0  0  0  0  0
    5.7450    2.5280   23.2710 H   0  0  0  0  0  0  0  0  0  0  0  0
    5.6290    3.8560   24.4320 H   0  0  0  0  0  0  0  0  0  0  0  0
    8.1970    3.9430   23.9710 H   0  0  0  0  0  0  0  0  0  0  0  0
    7.7430    3.1270   22.5850 H   0  0  0  0  0  0  0  0  0  0  0  0
    6.3220    5.5850   23.2640 H   0  0  0  0  0  0  0  0  0  0  0  0
    7.9230    5.6970   22.5110 H   0  0  0  0  0  0  0  0  0  0  0  0
    6.5940    4.8490   21.6850 H   0  0  0  0  0  0  0  0  0  0  0  0
  1  2  1  0  0  0  0
  1 68  1  0  0  0  0
  1 69  1  0  0  0  0
  1 70  1  0  0  0  0
  2  3  1  0  0  0  0
  2 66  1  0  0  0  0
  2 67  1  0  0  0  0
  3  4  1  0  0  0  0
  3 64  1  0  0  0  0
  3 65  1  0  0  0  0
  4  5  1  0  0  0  0
  4 62  1  0  0  0  0
  4 63  1  0  0  0  0
  5  6  1  0  0  0  0
  5 55  1  0  0  0  0
  6  7  1  0  0  0  0
  6 60  1  0  0  0  0
  6 61  1  0  0  0  0
  7  8  1  6  0  0  0
  7 28  1  0  0  0  0
  7 48  1  0  0  0  0
  8  9  2  0  0  0  0
  8 10  1  0  0  0  0
 10 11  1  0  0  0  0
 10 27  1  0  0  0  0
 11 12  2  0  0  0  0
 11 20  1  0  0  0  0
 12 13  1  0  0  0  0
 12 26  1  0  0  0  0
 13 14  2  0  0  0  0
 14 15  1  0  0  0  0
 14 25  1  0  0  0  0
 15 16  2  0  0  0  0
 15 20  1  0  0  0  0
 16 17  1  0  0  0  0
 16 24  1  0  0  0  0
 17 18  2  0  0  0  0
 17 23  1  0  0  0  0
 18 19  1  0  0  0  0
 18 22  1  0  0  0  0
 19 20  2  0  0  0  0
 19 21  1  0  0  0  0
 27 28  1  0  0  0  0
 27 46  1  0  0  0  0
 27 47  1  0  0  0  0
 28 29  1  0  0  0  0
 28 45  1  6  0  0  0
 29 30  1  0  0  0  0
 29 43  1  0  0  0  0
 29 44  1  0  0  0  0
 30 31  1  0  0  0  0
 31 32  1  0  0  0  0
 31 41  1  0  0  0  0
 31 42  1  0  0  0  0
 32 33  1  0  0  0  0
 32 35  1  0  0  0  0
 32 40  1  0  0  0  0
 33 34  1  0  0  0  0
 33 38  1  0  0  0  0
 33 39  1  0  0  0  0
 34 35  1  0  0  0  0
 35 36  1  0  0  0  0
 35 37  1  0  0  0  0
 48 49  2  0  0  0  0
 48 54  1  0  0  0  0
 49 50  1  0  0  0  0
 49 59  1  0  0  0  0
 50 51  1  0  0  0  0
 50 52  2  0  0  0  0
 52 53  1  0  0  0  0
 52 58  1  0  0  0  0
 53 54  2  0  0  0  0
 53 57  1  0  0  0  0
 54 55  1  0  0  0  0
 55 56  2  0  0  0  0
M  CHG  1   2   1
M  END
>  <MODEL>
       1

$$$$
