output/tmp_first_model_5_75.pdb
 OpenBabel07222620423D

 70 75  0  0  1  0  0  0  0  0999 V2000
   11.2490    5.7010   26.0680 C   0  0  0  0  0  0  0  0  0  0  0  0
   11.6660    5.2200   24.8130 O   0  0  0  0  0  0  0  0  0  0  0  0
   10.6910    4.8110   23.9620 C   0  0  0  0  0  0  0  0  0  0  0  0
   11.1320    4.1310   22.8280 C   0  0  0  0  0  0  0  0  0  0  0  0
   10.2090    3.6860   21.9000 C   0  0  0  0  0  0  0  0  0  0  0  0
    8.8560    3.9530   22.0570 C   0  0  0  0  0  0  0  0  0  0  0  0
    8.4190    4.6250   23.1930 C   0  0  0  0  0  0  0  0  0  0  0  0
    6.9290    4.7660   23.4180 C   0  0  0  0  0  0  0  0  0  0  0  0
    6.3590    3.4510   23.6890 N   0  0  0  0  0  0  0  0  0  0  0  0
    6.2180    3.0770   25.0050 C   0  0  0  0  0  0  0  0  0  0  0  0
    6.0310    3.8630   25.9180 O   0  0  0  0  0  0  0  0  0  0  0  0
    6.2520    1.5630   25.2300 C   0  0  0  0  0  0  0  0  0  0  0  0
    7.3490    0.9300   24.5150 N   0  0  0  0  0  0  0  0  0  0  0  0
    7.2030   -0.3600   23.8620 C   0  0  0  0  0  0  0  0  0  0  0  0
    8.1200   -0.4970   22.6100 C   0  0  2  0  0  0  0  0  0  0  0  0
    7.4690    0.2880   21.4510 C   0  0  0  0  0  0  0  0  0  0  0  0
    7.5110    1.4880   21.2570 O   0  0  0  0  0  0  0  0  0  0  0  0
    6.7510   -0.5780   20.6660 N   0  0  0  0  0  0  0  0  0  0  0  0
    5.9740   -0.0780   19.5940 C   0  0  0  0  0  0  0  0  0  0  0  0
    6.2930   -0.3570   18.2890 C   0  0  0  0  0  0  0  0  0  0  0  0
    5.6620    0.1820   17.2150 N   0  0  0  0  0  0  0  0  0  0  0  0
    4.6810    1.0250   17.4480 C   0  0  0  0  0  0  0  0  0  0  0  0
    4.2290    1.3750   18.7520 C   0  0  0  0  0  0  0  0  0  0  0  0
    3.1670    2.2950   18.9650 C   0  0  0  0  0  0  0  0  0  0  0  0
    2.7770    2.6280   20.2340 C   0  0  0  0  0  0  0  0  0  0  0  0
    3.4310    2.0630   21.3530 C   0  0  0  0  0  0  0  0  0  0  0  0
    4.4550    1.1720   21.1700 C   0  0  0  0  0  0  0  0  0  0  0  0
    4.8880    0.8100   19.8620 C   0  0  0  0  0  0  0  0  0  0  0  0
    4.9650    0.7480   22.0280 H   0  0  0  0  0  0  0  0  0  0  0  0
    3.1350    2.3480   22.3590 H   0  0  0  0  0  0  0  0  0  0  0  0
    1.9690    3.3360   20.3950 H   0  0  0  0  0  0  0  0  0  0  0  0
    2.6850    2.7420   18.0990 H   0  0  0  0  0  0  0  0  0  0  0  0
    4.1970    1.4800   16.5820 H   0  0  0  0  0  0  0  0  0  0  0  0
    7.1290   -1.0180   18.0630 H   0  0  0  0  0  0  0  0  0  0  0  0
    6.7780   -1.9420   21.1550 C   0  0  0  0  0  0  0  0  0  0  0  0
    8.0410   -1.9530   22.0420 C   0  0  2  0  0  0  0  0  0  0  0  0
    8.0530   -3.0800   23.0730 C   0  0  0  0  0  0  0  0  0  0  0  0
    7.1390   -3.0680   23.6790 H   0  0  0  0  0  0  0  0  0  0  0  0
    8.1070   -4.0650   22.5970 H   0  0  0  0  0  0  0  0  0  0  0  0
    8.9030   -2.9930   23.7600 H   0  0  0  0  0  0  0  0  0  0  0  0
    8.9020   -2.0710   21.3770 H   0  0  0  0  0  0  0  0  0  0  0  0
    6.8020   -2.6380   20.3180 H   0  0  0  0  0  0  0  0  0  0  0  0
    5.8850   -2.1880   21.7530 H   0  0  0  0  0  0  0  0  0  0  0  0
    9.5170    0.0230   22.9470 C   0  0  0  0  0  0  0  0  0  0  0  0
   10.6290   -0.1850   22.1100 C   0  0  0  0  0  0  0  0  0  0  0  0
   11.8720    0.3150   22.4760 C   0  0  0  0  0  0  0  0  0  0  0  0
   13.2340    0.2230   21.3890 Cl  0  0  0  0  0  0  0  0  0  0  0  0
   12.0910    0.9520   23.6980 C   0  0  0  0  0  0  0  0  0  0  0  0
   10.9980    1.2020   24.4940 C   0  0  0  0  0  0  0  0  0  0  0  0
    9.7270    0.8150   24.0820 C   0  0  0  0  0  0  0  0  0  0  0  0
    8.5910    1.3940   24.8440 C   0  0  0  0  0  0  0  0  0  0  0  0
    8.7410    2.3090   25.6460 O   0  0  0  0  0  0  0  0  0  0  0  0
   11.0860    1.7820   25.4030 H   0  0  0  0  0  0  0  0  0  0  0  0
   13.0870    1.3020   23.9530 H   0  0  0  0  0  0  0  0  0  0  0  0
   10.5370   -0.7150   21.1660 H   0  0  0  0  0  0  0  0  0  0  0  0
    7.4470   -1.1630   24.5690 H   0  0  0  0  0  0  0  0  0  0  0  0
    6.1600   -0.4890   23.5540 H   0  0  0  0  0  0  0  0  0  0  0  0
    5.3140    1.1460   24.8530 H   0  0  0  0  0  0  0  0  0  0  0  0
    6.3050    1.4030   26.3130 H   0  0  0  0  0  0  0  0  0  0  0  0
    6.7030    2.7220   23.0640 H   0  0  0  0  0  0  0  0  0  0  0  0
    6.4260    5.1980   22.5450 H   0  0  0  0  0  0  0  0  0  0  0  0
    6.6930    5.3900   24.2830 H   0  0  0  0  0  0  0  0  0  0  0  0
    9.3290    5.0260   24.1680 C   0  0  0  0  0  0  0  0  0  0  0  0
    8.9590    5.4510   25.0950 H   0  0  0  0  0  0  0  0  0  0  0  0
    8.1650    3.5960   21.2960 H   0  0  0  0  0  0  0  0  0  0  0  0
   10.5020    3.0880   21.0460 H   0  0  0  0  0  0  0  0  0  0  0  0
   12.1920    3.9010   22.7700 H   0  0  0  0  0  0  0  0  0  0  0  0
   12.1500    6.0350   26.5770 H   0  0  0  0  0  0  0  0  0  0  0  0
   10.5660    6.5550   25.9780 H   0  0  0  0  0  0  0  0  0  0  0  0
   10.7710    4.8980   26.6430 H   0  0  0  0  0  0  0  0  0  0  0  0
  1  2  1  0  0  0  0
  1 68  1  0  0  0  0
  1 69  1  0  0  0  0
  1 70  1  0  0  0  0
  2  3  1  0  0  0  0
  3  4  2  0  0  0  0
  3 63  1  0  0  0  0
  4  5  1  0  0  0  0
  4 67  1  0  0  0  0
  5  6  2  0  0  0  0
  5 66  1  0  0  0  0
  6  7  1  0  0  0  0
  6 65  1  0  0  0  0
  7  8  1  0  0  0  0
  7 63  2  0  0  0  0
  8  9  1  0  0  0  0
  8 61  1  0  0  0  0
  8 62  1  0  0  0  0
  9 10  1  0  0  0  0
  9 60  1  0  0  0  0
 10 11  2  0  0  0  0
 10 12  1  0  0  0  0
 12 13  1  0  0  0  0
 12 58  1  0  0  0  0
 12 59  1  0  0  0  0
 13 14  1  0  0  0  0
 13 51  1  0  0  0  0
 14 15  1  0  0  0  0
 14 56  1  0  0  0  0
 14 57  1  0  0  0  0
 15 16  1  6  0  0  0
 15 36  1  0  0  0  0
 15 44  1  0  0  0  0
 16 17  2  0  0  0  0
 16 18  1  0  0  0  0
 18 19  1  0  0  0  0
 18 35  1  0  0  0  0
 19 20  2  0  0  0  0
 19 28  1  0  0  0  0
 20 21  1  0  0  0  0
 20 34  1  0  0  0  0
 21 22  2  0  0  0  0
 22 23  1  0  0  0  0
 22 33  1  0  0  0  0
 23 24  2  0  0  0  0
 23 28  1  0  0  0  0
 24 25  1  0  0  0  0
 24 32  1  0  0  0  0
 25 26  2  0  0  0  0
 25 31  1  0  0  0  0
 26 27  1  0  0  0  0
 26 30  1  0  0  0  0
 27 28  2  0  0  0  0
 27 29  1  0  0  0  0
 35 36  1  0  0  0  0
 35 42  1  0  0  0  0
 35 43  1  0  0  0  0
 36 37  1  0  0  0  0
 36 41  1  6  0  0  0
 37 38  1  0  0  0  0
 37 39  1  0  0  0  0
 37 40  1  0  0  0  0
 44 45  2  0  0  0  0
 44 50  1  0  0  0  0
 45 46  1  0  0  0  0
 45 55  1  0  0  0  0
 46 47  1  0  0  0  0
 46 48  2  0  0  0  0
 48 49  1  0  0  0  0
 48 54  1  0  0  0  0
 49 50  2  0  0  0  0
 49 53  1  0  0  0  0
 50 51  1  0  0  0  0
 51 52  2  0  0  0  0
 63 64  1  0  0  0  0
M  END
>  <MODEL>
       1

$$$$
