output/tmp_first_model_15_80.pdb
 OpenBabel07232601353D

 59 64  0  0  1  0  0  0  0  0999 V2000
    7.7120   -2.9320   23.3990 C   0  0  0  0  0  0  0  0  0  0  0  0
    8.0110   -1.8730   22.3300 C   0  0  1  0  0  0  0  0  0  0  0  0
    6.8970   -1.7680   21.2710 C   0  0  0  0  0  0  0  0  0  0  0  0
    6.9410   -0.3870   20.8350 N   0  0  0  0  0  0  0  0  0  0  0  0
    6.1460    0.1160   19.7740 C   0  0  0  0  0  0  0  0  0  0  0  0
    6.4430   -0.2220   18.4780 C   0  0  0  0  0  0  0  0  0  0  0  0
    5.7620    0.2220   17.3960 N   0  0  0  0  0  0  0  0  0  0  0  0
    4.7440    1.0200   17.6000 C   0  0  0  0  0  0  0  0  0  0  0  0
    4.2960    1.4160   18.8910 C   0  0  0  0  0  0  0  0  0  0  0  0
    3.1670    2.2630   19.0650 C   0  0  0  0  0  0  0  0  0  0  0  0
    2.7440    2.6110   20.3180 C   0  0  0  0  0  0  0  0  0  0  0  0
    3.4210    2.1130   21.4550 C   0  0  0  0  0  0  0  0  0  0  0  0
    4.5100    1.2920   21.3130 C   0  0  0  0  0  0  0  0  0  0  0  0
    5.0000    0.9410   20.0220 C   0  0  0  0  0  0  0  0  0  0  0  0
    5.0160    0.9020   22.1910 H   0  0  0  0  0  0  0  0  0  0  0  0
    3.0790    2.3950   22.4480 H   0  0  0  0  0  0  0  0  0  0  0  0
    1.8920    3.2740   20.4430 H   0  0  0  0  0  0  0  0  0  0  0  0
    2.6640    2.6390   18.1770 H   0  0  0  0  0  0  0  0  0  0  0  0
    4.2180    1.3860   16.7170 H   0  0  0  0  0  0  0  0  0  0  0  0
    7.2870   -0.8760   18.2630 H   0  0  0  0  0  0  0  0  0  0  0  0
    7.6570    0.4380   21.6680 C   0  0  0  0  0  0  0  0  0  0  0  0
    7.7720    1.6360   21.5160 O   0  0  0  0  0  0  0  0  0  0  0  0
    8.2420   -0.4090   22.8230 C   0  0  1  0  0  0  0  0  0  0  0  0
    7.4450   -0.1030   24.1200 C   0  0  0  0  0  0  0  0  0  0  0  0
    7.6990    1.2360   24.6160 N   0  0  0  0  0  0  0  0  0  0  0  0
    6.5720    2.1270   24.8550 C   0  0  0  0  0  0  0  0  0  0  0  0
    5.5540    1.5720   25.8030 C   0  0  0  0  0  0  0  0  0  0  0  0
    4.2830    1.0870   25.5670 C   0  0  0  0  0  0  0  0  0  0  0  0
    3.8420    0.6130   26.8170 C   0  0  0  0  0  0  0  0  0  0  0  0
    4.7610    0.7990   27.7560 N   0  0  0  0  0  0  0  0  0  0  0  0
    5.7910    1.3860   27.1260 N   0  0  0  0  0  0  0  0  0  0  0  0
    7.0010    1.7040   27.8590 C   0  0  0  0  0  0  0  0  0  0  0  0
    7.3230    2.7270   27.6420 H   0  0  0  0  0  0  0  0  0  0  0  0
    6.7670    1.6050   28.9210 H   0  0  0  0  0  0  0  0  0  0  0  0
    7.8130    1.0170   27.5960 H   0  0  0  0  0  0  0  0  0  0  0  0
    2.9090    0.1270   27.0790 H   0  0  0  0  0  0  0  0  0  0  0  0
    3.7920    1.0500   24.6020 H   0  0  0  0  0  0  0  0  0  0  0  0
    6.0680    2.3150   23.8960 H   0  0  0  0  0  0  0  0  0  0  0  0
    6.9920    3.0720   25.2110 H   0  0  0  0  0  0  0  0  0  0  0  0
    8.9770    1.6610   24.8130 C   0  0  0  0  0  0  0  0  0  0  0  0
    9.2650    2.5950   25.5560 O   0  0  0  0  0  0  0  0  0  0  0  0
   10.0230    0.9220   24.0290 C   0  0  0  0  0  0  0  0  0  0  0  0
   11.3460    1.2820   24.2480 C   0  0  0  0  0  0  0  0  0  0  0  0
   12.3640    0.7790   23.4660 C   0  0  0  0  0  0  0  0  0  0  0  0
   12.0100   -0.0780   22.4300 C   0  0  0  0  0  0  0  0  0  0  0  0
   12.9740   -0.5320   21.6160 F   0  0  0  0  0  0  0  0  0  0  0  0
   10.7070   -0.4730   22.1990 C   0  0  0  0  0  0  0  0  0  0  0  0
    9.6880   -0.0180   23.0480 C   0  0  0  0  0  0  0  0  0  0  0  0
   10.5120   -1.1020   21.3370 H   0  0  0  0  0  0  0  0  0  0  0  0
   13.4040    1.0530   23.6010 H   0  0  0  0  0  0  0  0  0  0  0  0
   11.4950    1.9970   25.0350 H   0  0  0  0  0  0  0  0  0  0  0  0
    6.3760   -0.1890   23.9170 H   0  0  0  0  0  0  0  0  0  0  0  0
    7.7200   -0.8320   24.8960 H   0  0  0  0  0  0  0  0  0  0  0  0
    5.9160   -2.0290   21.6950 H   0  0  0  0  0  0  0  0  0  0  0  0
    7.0650   -2.4190   20.4150 H   0  0  0  0  0  0  0  0  0  0  0  0
    8.9320   -2.1670   21.8210 H   0  0  0  0  0  0  0  0  0  0  0  0
    8.4850   -2.9640   24.1760 H   0  0  0  0  0  0  0  0  0  0  0  0
    7.6490   -3.9310   22.9520 H   0  0  0  0  0  0  0  0  0  0  0  0
    6.7530   -2.7370   23.8950 H   0  0  0  0  0  0  0  0  0  0  0  0
  1  2  1  0  0  0  0
  1 57  1  0  0  0  0
  1 58  1  0  0  0  0
  1 59  1  0  0  0  0
  2  3  1  0  0  0  0
  2 23  1  0  0  0  0
  2 56  1  6  0  0  0
  3  4  1  0  0  0  0
  3 54  1  0  0  0  0
  3 55  1  0  0  0  0
  4  5  1  0  0  0  0
  4 21  1  0  0  0  0
  5  6  2  0  0  0  0
  5 14  1  0  0  0  0
  6  7  1  0  0  0  0
  6 20  1  0  0  0  0
  7  8  2  0  0  0  0
  8  9  1  0  0  0  0
  8 19  1  0  0  0  0
  9 10  2  0  0  0  0
  9 14  1  0  0  0  0
 10 11  1  0  0  0  0
 10 18  1  0  0  0  0
 11 12  2  0  0  0  0
 11 17  1  0  0  0  0
 12 13  1  0  0  0  0
 12 16  1  0  0  0  0
 13 14  2  0  0  0  0
 13 15  1  0  0  0  0
 21 22  2  0  0  0  0
 23 21  1  6  0  0  0
 23 24  1  0  0  0  0
 23 48  1  0  0  0  0
 24 25  1  0  0  0  0
 24 52  1  0  0  0  0
 24 53  1  0  0  0  0
 25 26  1  0  0  0  0
 25 40  1  0  0  0  0
 26 27  1  0  0  0  0
 26 38  1  0  0  0  0
 26 39  1  0  0  0  0
 27 28  2  0  0  0  0
 27 31  1  0  0  0  0
 28 29  1  0  0  0  0
 28 37  1  0  0  0  0
 29 30  2  0  0  0  0
 29 36  1  0  0  0  0
 30 31  1  0  0  0  0
 31 32  1  0  0  0  0
 32 33  1  0  0  0  0
 32 34  1  0  0  0  0
 32 35  1  0  0  0  0
 40 41  2  0  0  0  0
 40 42  1  0  0  0  0
 42 43  2  0  0  0  0
 42 48  1  0  0  0  0
 43 44  1  0  0  0  0
 43 51  1  0  0  0  0
 44 45  2  0  0  0  0
 44 50  1  0  0  0  0
 45 46  1  0  0  0  0
 45 47  1  0  0  0  0
 47 48  2  0  0  0  0
 47 49  1  0  0  0  0
M  END
>  <MODEL>
       1

$$$$
