output/tmp_first_model_16_9.pdb
 OpenBabel07232602073D

 58 63  0  0  1  0  0  0  0  0999 V2000
    5.4430    5.0250   21.9910 C   0  0  0  0  0  0  0  0  0  0  0  0
    6.0420    4.2010   23.0860 C   0  0  0  0  0  0  0  0  0  0  0  0
    7.4280    3.9970   23.3280 C   0  0  0  0  0  0  0  0  0  0  0  0
    7.4500    3.1140   24.3570 C   0  0  0  0  0  0  0  0  0  0  0  0
    8.5660    2.3990   25.0520 C   0  0  0  0  0  0  0  0  0  0  0  0
    9.2140    1.4270   24.1870 N   0  0  0  0  0  0  0  0  0  0  0  0
    8.5730    0.1380   23.9970 C   0  0  0  0  0  0  0  0  0  0  0  0
    8.6630   -0.3810   22.5380 C   0  0  2  0  0  0  0  0  0  0  0  0
    7.8260    0.4880   21.5650 C   0  0  0  0  0  0  0  0  0  0  0  0
    7.9640    1.6740   21.3580 O   0  0  0  0  0  0  0  0  0  0  0  0
    6.9210   -0.3230   20.9050 N   0  0  0  0  0  0  0  0  0  0  0  0
    6.1480    0.1430   19.8120 C   0  0  0  0  0  0  0  0  0  0  0  0
    6.4560   -0.2150   18.5230 C   0  0  0  0  0  0  0  0  0  0  0  0
    5.7860    0.2190   17.4300 N   0  0  0  0  0  0  0  0  0  0  0  0
    4.7630    1.0150   17.6120 C   0  0  0  0  0  0  0  0  0  0  0  0
    4.3060    1.4280   18.8950 C   0  0  0  0  0  0  0  0  0  0  0  0
    3.1760    2.2730   19.0540 C   0  0  0  0  0  0  0  0  0  0  0  0
    2.7420    2.6210   20.3050 C   0  0  0  0  0  0  0  0  0  0  0  0
    3.4070    2.1320   21.4520 C   0  0  0  0  0  0  0  0  0  0  0  0
    4.5080    1.3190   21.3250 C   0  0  0  0  0  0  0  0  0  0  0  0
    5.0000    0.9670   20.0380 C   0  0  0  0  0  0  0  0  0  0  0  0
    5.0060    0.9160   22.2000 H   0  0  0  0  0  0  0  0  0  0  0  0
    3.0480    2.4100   22.4390 H   0  0  0  0  0  0  0  0  0  0  0  0
    1.8800    3.2730   20.4220 H   0  0  0  0  0  0  0  0  0  0  0  0
    2.6700    2.6340   18.1640 H   0  0  0  0  0  0  0  0  0  0  0  0
    4.2290    1.3650   16.7250 H   0  0  0  0  0  0  0  0  0  0  0  0
    7.3040   -0.8680   18.3140 H   0  0  0  0  0  0  0  0  0  0  0  0
    7.2220   -1.7290   21.0630 C   0  0  0  0  0  0  0  0  0  0  0  0
    8.0480   -1.8100   22.3620 C   0  0  2  0  0  0  0  0  0  0  0  0
    7.2150   -2.3460   23.5310 C   0  0  0  0  0  0  0  0  0  0  0  0
    6.8500   -3.3520   23.2990 H   0  0  0  0  0  0  0  0  0  0  0  0
    7.8150   -2.4270   24.4420 H   0  0  0  0  0  0  0  0  0  0  0  0
    6.3500   -1.7100   23.7380 H   0  0  0  0  0  0  0  0  0  0  0  0
    8.8580   -2.5310   22.2370 H   0  0  0  0  0  0  0  0  0  0  0  0
    7.8070   -2.0850   20.2080 H   0  0  0  0  0  0  0  0  0  0  0  0
    6.2950   -2.3070   21.1110 H   0  0  0  0  0  0  0  0  0  0  0  0
   10.1370   -0.3040   22.1580 C   0  0  0  0  0  0  0  0  0  0  0  0
   10.7080   -1.2430   21.2970 C   0  0  0  0  0  0  0  0  0  0  0  0
   12.0600   -1.2020   21.0460 C   0  0  0  0  0  0  0  0  0  0  0  0
   12.5610   -2.1300   20.2140 F   0  0  0  0  0  0  0  0  0  0  0  0
   12.8640   -0.1460   21.4890 C   0  0  0  0  0  0  0  0  0  0  0  0
   12.2740    0.8470   22.2460 C   0  0  0  0  0  0  0  0  0  0  0  0
   10.9410    0.7380   22.6430 C   0  0  0  0  0  0  0  0  0  0  0  0
   10.4150    1.7480   23.6170 C   0  0  0  0  0  0  0  0  0  0  0  0
   11.0170    2.7770   23.8910 O   0  0  0  0  0  0  0  0  0  0  0  0
   12.8730    1.7030   22.5380 H   0  0  0  0  0  0  0  0  0  0  0  0
   13.8970   -0.0450   21.1760 H   0  0  0  0  0  0  0  0  0  0  0  0
   10.1060   -1.9700   20.7680 H   0  0  0  0  0  0  0  0  0  0  0  0
    7.5260    0.2370   24.3020 H   0  0  0  0  0  0  0  0  0  0  0  0
    9.0520   -0.6140   24.6430 H   0  0  0  0  0  0  0  0  0  0  0  0
    9.3510    3.1030   25.3350 H   0  0  0  0  0  0  0  0  0  0  0  0
    8.1850    1.8980   25.9470 H   0  0  0  0  0  0  0  0  0  0  0  0
    6.1960    2.8330   24.7400 O   0  0  0  0  0  0  0  0  0  0  0  0
    5.3040    3.5190   23.9380 N   0  0  0  0  0  0  0  0  0  0  0  0
    8.2630    4.4030   22.7700 H   0  0  0  0  0  0  0  0  0  0  0  0
    6.0120    5.9470   21.8450 H   0  0  0  0  0  0  0  0  0  0  0  0
    4.4040    5.2800   22.2060 H   0  0  0  0  0  0  0  0  0  0  0  0
    5.4670    4.4660   21.0480 H   0  0  0  0  0  0  0  0  0  0  0  0
  1  2  1  0  0  0  0
  1 56  1  0  0  0  0
  1 57  1  0  0  0  0
  1 58  1  0  0  0  0
  2  3  1  0  0  0  0
  2 54  2  0  0  0  0
  3  4  2  0  0  0  0
  3 55  1  0  0  0  0
  4  5  1  0  0  0  0
  4 53  1  0  0  0  0
  5  6  1  0  0  0  0
  5 51  1  0  0  0  0
  5 52  1  0  0  0  0
  6  7  1  0  0  0  0
  6 44  1  0  0  0  0
  7  8  1  0  0  0  0
  7 49  1  0  0  0  0
  7 50  1  0  0  0  0
  8  9  1  6  0  0  0
  8 29  1  0  0  0  0
  8 37  1  0  0  0  0
  9 10  2  0  0  0  0
  9 11  1  0  0  0  0
 11 12  1  0  0  0  0
 11 28  1  0  0  0  0
 12 13  2  0  0  0  0
 12 21  1  0  0  0  0
 13 14  1  0  0  0  0
 13 27  1  0  0  0  0
 14 15  2  0  0  0  0
 15 16  1  0  0  0  0
 15 26  1  0  0  0  0
 16 17  2  0  0  0  0
 16 21  1  0  0  0  0
 17 18  1  0  0  0  0
 17 25  1  0  0  0  0
 18 19  2  0  0  0  0
 18 24  1  0  0  0  0
 19 20  1  0  0  0  0
 19 23  1  0  0  0  0
 20 21  2  0  0  0  0
 20 22  1  0  0  0  0
 28 29  1  0  0  0  0
 28 35  1  0  0  0  0
 28 36  1  0  0  0  0
 29 30  1  0  0  0  0
 29 34  1  6  0  0  0
 30 31  1  0  0  0  0
 30 32  1  0  0  0  0
 30 33  1  0  0  0  0
 37 38  2  0  0  0  0
 37 43  1  0  0  0  0
 38 39  1  0  0  0  0
 38 48  1  0  0  0  0
 39 40  1  0  0  0  0
 39 41  2  0  0  0  0
 41 42  1  0  0  0  0
 41 47  1  0  0  0  0
 42 43  2  0  0  0  0
 42 46  1  0  0  0  0
 43 44  1  0  0  0  0
 44 45  2  0  0  0  0
 53 54  1  0  0  0  0
M  END
>  <MODEL>
       1

$$$$
