output/tmp_first_model_11_74.pdb
 OpenBabel07222623443D

 55 60  0  0  1  0  0  0  0  0999 V2000
    9.7360   -1.9900   21.8200 C   0  0  0  0  0  0  0  0  0  0  0  0
    8.6660   -0.9940   22.3070 C   0  0  1  0  0  0  0  0  0  0  0  0
    8.2160   -0.0810   21.1430 C   0  0  0  0  0  0  0  0  0  0  0  0
    6.8600   -0.4900   20.8400 N   0  0  0  0  0  0  0  0  0  0  0  0
    6.1020    0.0550   19.7760 C   0  0  0  0  0  0  0  0  0  0  0  0
    6.4460   -0.2250   18.4790 C   0  0  0  0  0  0  0  0  0  0  0  0
    5.7820    0.2390   17.3940 N   0  0  0  0  0  0  0  0  0  0  0  0
    4.7510    1.0180   17.6080 C   0  0  0  0  0  0  0  0  0  0  0  0
    4.2920    1.4010   18.9000 C   0  0  0  0  0  0  0  0  0  0  0  0
    3.1740    2.2600   19.0680 C   0  0  0  0  0  0  0  0  0  0  0  0
    2.7780    2.6490   20.3160 C   0  0  0  0  0  0  0  0  0  0  0  0
    3.4860    2.1970   21.4550 C   0  0  0  0  0  0  0  0  0  0  0  0
    4.5660    1.3610   21.3230 C   0  0  0  0  0  0  0  0  0  0  0  0
    4.9890    0.9230   20.0310 C   0  0  0  0  0  0  0  0  0  0  0  0
    5.1000    1.0220   22.2100 H   0  0  0  0  0  0  0  0  0  0  0  0
    3.1640    2.5140   22.4420 H   0  0  0  0  0  0  0  0  0  0  0  0
    1.9300    3.3160   20.4360 H   0  0  0  0  0  0  0  0  0  0  0  0
    2.6670    2.6200   18.1750 H   0  0  0  0  0  0  0  0  0  0  0  0
    4.2210    1.3800   16.7280 H   0  0  0  0  0  0  0  0  0  0  0  0
    7.2960   -0.8730   18.2680 H   0  0  0  0  0  0  0  0  0  0  0  0
    6.3200   -1.3850   21.7290 C   0  0  0  0  0  0  0  0  0  0  0  0
    5.2170   -1.8890   21.6200 O   0  0  0  0  0  0  0  0  0  0  0  0
    7.3450   -1.6170   22.8660 C   0  0  1  0  0  0  0  0  0  0  0  0
    7.4430   -3.1220   23.1510 C   0  0  0  0  0  0  0  0  0  0  0  0
    6.2000   -3.5890   23.7210 N   0  0  0  0  0  0  0  0  0  0  0  0
    5.6960   -4.8500   23.2540 C   0  0  0  0  0  0  0  0  0  0  0  0
    6.4660   -5.9990   23.8280 C   0  0  0  0  0  0  0  0  0  0  0  0
    7.6860   -6.5880   23.3840 C   0  0  0  0  0  0  0  0  0  0  0  0
    7.8300   -7.6430   24.2090 C   0  0  0  0  0  0  0  0  0  0  0  0
    6.8210   -7.6820   25.0850 O   0  0  0  0  0  0  0  0  0  0  0  0
    5.9730   -6.6350   24.8480 N   0  0  0  0  0  0  0  0  0  0  0  0
    8.5520   -8.4380   24.3160 H   0  0  0  0  0  0  0  0  0  0  0  0
    8.3030   -6.2870   22.5630 H   0  0  0  0  0  0  0  0  0  0  0  0
    4.6510   -4.9180   23.5650 H   0  0  0  0  0  0  0  0  0  0  0  0
    5.7680   -4.8520   22.1580 H   0  0  0  0  0  0  0  0  0  0  0  0
    5.6910   -3.0510   24.8650 C   0  0  0  0  0  0  0  0  0  0  0  0
    4.9260   -3.6510   25.6080 O   0  0  0  0  0  0  0  0  0  0  0  0
    6.0960   -1.6360   25.0990 C   0  0  0  0  0  0  0  0  0  0  0  0
    5.6120   -1.0180   26.2490 C   0  0  0  0  0  0  0  0  0  0  0  0
    5.8380    0.3290   26.4450 C   0  0  0  0  0  0  0  0  0  0  0  0
    6.5410    1.0310   25.4740 C   0  0  0  0  0  0  0  0  0  0  0  0
    6.7440    2.3470   25.6620 F   0  0  0  0  0  0  0  0  0  0  0  0
    7.0380    0.4340   24.3330 C   0  0  0  0  0  0  0  0  0  0  0  0
    6.8440   -0.9380   24.1420 C   0  0  0  0  0  0  0  0  0  0  0  0
    7.5570    1.0560   23.6120 H   0  0  0  0  0  0  0  0  0  0  0  0
    5.4660    0.8490   27.3150 H   0  0  0  0  0  0  0  0  0  0  0  0
    5.0390   -1.6370   26.9360 H   0  0  0  0  0  0  0  0  0  0  0  0
    7.5970   -3.6720   22.2180 H   0  0  0  0  0  0  0  0  0  0  0  0
    8.2880   -3.3090   23.8340 H   0  0  0  0  0  0  0  0  0  0  0  0
    8.2490    0.9870   21.4030 H   0  0  0  0  0  0  0  0  0  0  0  0
    8.8610   -0.2300   20.2750 H   0  0  0  0  0  0  0  0  0  0  0  0
    9.1310   -0.4050   23.1070 H   0  0  0  0  0  0  0  0  0  0  0  0
   10.5990   -1.4410   21.4260 H   0  0  0  0  0  0  0  0  0  0  0  0
    9.3590   -2.6360   21.0180 H   0  0  0  0  0  0  0  0  0  0  0  0
   10.0990   -2.6260   22.6320 H   0  0  0  0  0  0  0  0  0  0  0  0
  1  2  1  0  0  0  0
  1 53  1  0  0  0  0
  1 54  1  0  0  0  0
  1 55  1  0  0  0  0
  2  3  1  0  0  0  0
  2 23  1  0  0  0  0
  2 52  1  1  0  0  0
  3  4  1  0  0  0  0
  3 50  1  0  0  0  0
  3 51  1  0  0  0  0
  4  5  1  0  0  0  0
  4 21  1  0  0  0  0
  5  6  2  0  0  0  0
  5 14  1  0  0  0  0
  6  7  1  0  0  0  0
  6 20  1  0  0  0  0
  7  8  2  0  0  0  0
  8  9  1  0  0  0  0
  8 19  1  0  0  0  0
  9 10  2  0  0  0  0
  9 14  1  0  0  0  0
 10 11  1  0  0  0  0
 10 18  1  0  0  0  0
 11 12  2  0  0  0  0
 11 17  1  0  0  0  0
 12 13  1  0  0  0  0
 12 16  1  0  0  0  0
 13 14  2  0  0  0  0
 13 15  1  0  0  0  0
 21 22  2  0  0  0  0
 23 21  1  6  0  0  0
 23 24  1  0  0  0  0
 23 44  1  0  0  0  0
 24 25  1  0  0  0  0
 24 48  1  0  0  0  0
 24 49  1  0  0  0  0
 25 26  1  0  0  0  0
 25 36  1  0  0  0  0
 26 27  1  0  0  0  0
 26 34  1  0  0  0  0
 26 35  1  0  0  0  0
 27 28  1  0  0  0  0
 27 31  2  0  0  0  0
 28 29  2  0  0  0  0
 28 33  1  0  0  0  0
 29 30  1  0  0  0  0
 29 32  1  0  0  0  0
 30 31  1  0  0  0  0
 36 37  2  0  0  0  0
 36 38  1  0  0  0  0
 38 39  2  0  0  0  0
 38 44  1  0  0  0  0
 39 40  1  0  0  0  0
 39 47  1  0  0  0  0
 40 41  2  0  0  0  0
 40 46  1  0  0  0  0
 41 42  1  0  0  0  0
 41 43  1  0  0  0  0
 43 44  2  0  0  0  0
 43 45  1  0  0  0  0
M  END
>  <MODEL>
       1

$$$$
