output/tmp_first_model_11_71.pdb
 OpenBabel07222623443D

 59 64  0  0  1  0  0  0  0  0999 V2000
    9.7230   -1.9690   21.8260 C   0  0  0  0  0  0  0  0  0  0  0  0
    8.6600   -0.9720   22.3100 C   0  0  1  0  0  0  0  0  0  0  0  0
    8.2160   -0.0550   21.1490 C   0  0  0  0  0  0  0  0  0  0  0  0
    6.8730   -0.4870   20.8360 N   0  0  0  0  0  0  0  0  0  0  0  0
    6.1120    0.0620   19.7790 C   0  0  0  0  0  0  0  0  0  0  0  0
    6.4560   -0.2150   18.4800 C   0  0  0  0  0  0  0  0  0  0  0  0
    5.7840    0.2360   17.3960 N   0  0  0  0  0  0  0  0  0  0  0  0
    4.7480    1.0100   17.6110 C   0  0  0  0  0  0  0  0  0  0  0  0
    4.2960    1.3890   18.9070 C   0  0  0  0  0  0  0  0  0  0  0  0
    3.1760    2.2430   19.0700 C   0  0  0  0  0  0  0  0  0  0  0  0
    2.7810    2.6350   20.3190 C   0  0  0  0  0  0  0  0  0  0  0  0
    3.4840    2.1840   21.4590 C   0  0  0  0  0  0  0  0  0  0  0  0
    4.5650    1.3460   21.3340 C   0  0  0  0  0  0  0  0  0  0  0  0
    4.9940    0.9190   20.0390 C   0  0  0  0  0  0  0  0  0  0  0  0
    5.0960    1.0120   22.2260 H   0  0  0  0  0  0  0  0  0  0  0  0
    3.1670    2.5150   22.4430 H   0  0  0  0  0  0  0  0  0  0  0  0
    1.9370    3.3070   20.4390 H   0  0  0  0  0  0  0  0  0  0  0  0
    2.6660    2.6000   18.1800 H   0  0  0  0  0  0  0  0  0  0  0  0
    4.2120    1.3820   16.7390 H   0  0  0  0  0  0  0  0  0  0  0  0
    7.3100   -0.8640   18.2840 H   0  0  0  0  0  0  0  0  0  0  0  0
    6.3500   -1.4040   21.7070 C   0  0  0  0  0  0  0  0  0  0  0  0
    5.2720   -1.9600   21.5570 O   0  0  0  0  0  0  0  0  0  0  0  0
    7.3400   -1.6050   22.8680 C   0  0  1  0  0  0  0  0  0  0  0  0
    7.4540   -3.1170   23.1750 C   0  0  0  0  0  0  0  0  0  0  0  0
    6.2400   -3.6350   23.7790 N   0  0  0  0  0  0  0  0  0  0  0  0
    5.6070   -4.8290   23.2580 C   0  0  0  0  0  0  0  0  0  0  0  0
    6.0840   -6.1030   23.8950 C   0  0  0  0  0  0  0  0  0  0  0  0
    7.3100   -6.5380   23.7220 N   0  0  0  0  0  0  0  0  0  0  0  0
    7.3620   -7.7510   24.3620 C   0  0  0  0  0  0  0  0  0  0  0  0
    6.1380   -8.0520   24.8960 C   0  0  0  0  0  0  0  0  0  0  0  0
    5.3420   -6.9460   24.6740 N   0  0  0  0  0  0  0  0  0  0  0  0
    3.8960   -6.9260   24.8410 C   0  0  0  0  0  0  0  0  0  0  0  0
    3.4440   -7.0440   23.8460 H   0  0  0  0  0  0  0  0  0  0  0  0
    3.5650   -5.9920   25.3130 H   0  0  0  0  0  0  0  0  0  0  0  0
    3.5900   -7.7660   25.4770 H   0  0  0  0  0  0  0  0  0  0  0  0
    5.7440   -8.9020   25.4140 H   0  0  0  0  0  0  0  0  0  0  0  0
    8.2610   -8.3480   24.3910 H   0  0  0  0  0  0  0  0  0  0  0  0
    4.5290   -4.7160   23.3440 H   0  0  0  0  0  0  0  0  0  0  0  0
    5.8570   -4.8990   22.1940 H   0  0  0  0  0  0  0  0  0  0  0  0
    5.6790   -3.0410   24.8770 C   0  0  0  0  0  0  0  0  0  0  0  0
    4.8780   -3.6170   25.5950 O   0  0  0  0  0  0  0  0  0  0  0  0
    6.0740   -1.6100   25.0880 C   0  0  0  0  0  0  0  0  0  0  0  0
    5.6040   -0.9790   26.2390 C   0  0  0  0  0  0  0  0  0  0  0  0
    5.8350    0.3650   26.4600 C   0  0  0  0  0  0  0  0  0  0  0  0
    6.5380    1.0680   25.4900 C   0  0  0  0  0  0  0  0  0  0  0  0
    6.7540    2.3830   25.6860 F   0  0  0  0  0  0  0  0  0  0  0  0
    7.0200    0.4670   24.3390 C   0  0  0  0  0  0  0  0  0  0  0  0
    6.8160   -0.9060   24.1280 C   0  0  0  0  0  0  0  0  0  0  0  0
    7.5570    1.0880   23.6280 H   0  0  0  0  0  0  0  0  0  0  0  0
    5.4680    0.8760   27.3450 H   0  0  0  0  0  0  0  0  0  0  0  0
    5.0460   -1.5780   26.9510 H   0  0  0  0  0  0  0  0  0  0  0  0
    7.6280   -3.6740   22.2520 H   0  0  0  0  0  0  0  0  0  0  0  0
    8.3090   -3.2790   23.8450 H   0  0  0  0  0  0  0  0  0  0  0  0
    8.8680   -0.1790   20.2850 H   0  0  0  0  0  0  0  0  0  0  0  0
    8.2420    1.0100   21.4150 H   0  0  0  0  0  0  0  0  0  0  0  0
    9.1360   -0.3820   23.1010 H   0  0  0  0  0  0  0  0  0  0  0  0
    9.3450   -2.6090   21.0210 H   0  0  0  0  0  0  0  0  0  0  0  0
   10.0800   -2.6080   22.6380 H   0  0  0  0  0  0  0  0  0  0  0  0
   10.5920   -1.4290   21.4360 H   0  0  0  0  0  0  0  0  0  0  0  0
  1  2  1  0  0  0  0
  1 57  1  0  0  0  0
  1 58  1  0  0  0  0
  1 59  1  0  0  0  0
  2  3  1  0  0  0  0
  2 23  1  0  0  0  0
  2 56  1  1  0  0  0
  3  4  1  0  0  0  0
  3 54  1  0  0  0  0
  3 55  1  0  0  0  0
  4  5  1  0  0  0  0
  4 21  1  0  0  0  0
  5  6  2  0  0  0  0
  5 14  1  0  0  0  0
  6  7  1  0  0  0  0
  6 20  1  0  0  0  0
  7  8  2  0  0  0  0
  8  9  1  0  0  0  0
  8 19  1  0  0  0  0
  9 10  2  0  0  0  0
  9 14  1  0  0  0  0
 10 11  1  0  0  0  0
 10 18  1  0  0  0  0
 11 12  2  0  0  0  0
 11 17  1  0  0  0  0
 12 13  1  0  0  0  0
 12 16  1  0  0  0  0
 13 14  2  0  0  0  0
 13 15  1  0  0  0  0
 21 22  2  0  0  0  0
 23 21  1  6  0  0  0
 23 24  1  0  0  0  0
 23 48  1  0  0  0  0
 24 25  1  0  0  0  0
 24 52  1  0  0  0  0
 24 53  1  0  0  0  0
 25 26  1  0  0  0  0
 25 40  1  0  0  0  0
 26 27  1  0  0  0  0
 26 38  1  0  0  0  0
 26 39  1  0  0  0  0
 27 28  2  0  0  0  0
 27 31  1  0  0  0  0
 28 29  1  0  0  0  0
 29 30  2  0  0  0  0
 29 37  1  0  0  0  0
 30 31  1  0  0  0  0
 30 36  1  0  0  0  0
 31 32  1  0  0  0  0
 32 33  1  0  0  0  0
 32 34  1  0  0  0  0
 32 35  1  0  0  0  0
 40 41  2  0  0  0  0
 40 42  1  0  0  0  0
 42 43  2  0  0  0  0
 42 48  1  0  0  0  0
 43 44  1  0  0  0  0
 43 51  1  0  0  0  0
 44 45  2  0  0  0  0
 44 50  1  0  0  0  0
 45 46  1  0  0  0  0
 45 47  1  0  0  0  0
 47 48  2  0  0  0  0
 47 49  1  0  0  0  0
M  END
>  <MODEL>
       1

$$$$
