output/tmp_first_model_16_57.pdb
 OpenBabel07232602073D

 67 72  0  0  1  0  0  0  0  0999 V2000
    6.5070    4.2960   21.2630 C   0  0  0  0  0  0  0  0  0  0  0  0
    7.4810    3.9310   22.2840 N   0  0  0  0  0  0  0  0  0  0  0  0
    7.0270    3.3310   23.4190 C   0  0  0  0  0  0  0  0  0  0  0  0
    5.8340    3.1520   23.6200 O   0  0  0  0  0  0  0  0  0  0  0  0
    8.0710    2.8570   24.4490 C   0  0  0  0  0  0  0  0  0  0  0  0
    8.7400    1.6410   23.9990 N   0  0  0  0  0  0  0  0  0  0  0  0
    7.9800    0.3990   23.8760 C   0  0  0  0  0  0  0  0  0  0  0  0
    8.3970   -0.4130   22.6210 C   0  0  2  0  0  0  0  0  0  0  0  0
    7.8960    0.2660   21.3260 C   0  0  0  0  0  0  0  0  0  0  0  0
    8.3600    1.2470   20.7790 O   0  0  0  0  0  0  0  0  0  0  0  0
    6.8200   -0.4440   20.8460 N   0  0  0  0  0  0  0  0  0  0  0  0
    6.0760    0.0750   19.7640 C   0  0  0  0  0  0  0  0  0  0  0  0
    6.4500   -0.1990   18.4740 C   0  0  0  0  0  0  0  0  0  0  0  0
    5.7850    0.2530   17.3890 N   0  0  0  0  0  0  0  0  0  0  0  0
    4.7380    1.0160   17.5930 C   0  0  0  0  0  0  0  0  0  0  0  0
    4.2690    1.4070   18.8810 C   0  0  0  0  0  0  0  0  0  0  0  0
    3.1610    2.2750   19.0570 C   0  0  0  0  0  0  0  0  0  0  0  0
    2.7640    2.6460   20.3140 C   0  0  0  0  0  0  0  0  0  0  0  0
    3.4580    2.1760   21.4500 C   0  0  0  0  0  0  0  0  0  0  0  0
    4.5340    1.3320   21.3060 C   0  0  0  0  0  0  0  0  0  0  0  0
    4.9590    0.9230   20.0110 C   0  0  0  0  0  0  0  0  0  0  0  0
    5.1070    1.0270   22.1770 H   0  0  0  0  0  0  0  0  0  0  0  0
    3.1690    2.5100   22.4420 H   0  0  0  0  0  0  0  0  0  0  0  0
    1.9180    3.3160   20.4420 H   0  0  0  0  0  0  0  0  0  0  0  0
    2.6520    2.6430   18.1710 H   0  0  0  0  0  0  0  0  0  0  0  0
    4.2150    1.3780   16.7100 H   0  0  0  0  0  0  0  0  0  0  0  0
    7.3280   -0.8140   18.2860 H   0  0  0  0  0  0  0  0  0  0  0  0
    6.4380   -1.5890   21.6460 C   0  0  0  0  0  0  0  0  0  0  0  0
    7.6910   -1.7970   22.5100 C   0  0  2  0  0  0  0  0  0  0  0  0
    7.4220   -2.5830   23.7930 C   0  0  0  0  0  0  0  0  0  0  0  0
    7.0240   -3.9380   23.4910 N   0  0  0  0  0  0  0  0  0  0  0  0
    5.7100   -4.3230   23.4600 C   0  0  0  0  0  0  0  0  0  0  0  0
    4.6370   -3.7410   24.0680 C   0  0  0  0  0  0  0  0  0  0  0  0
    3.4340   -4.3910   23.9400 N   0  0  0  0  0  0  0  0  0  0  0  0
    3.5470   -5.4620   23.2210 C   0  0  0  0  0  0  0  0  0  0  0  0
    2.3740   -6.3040   22.8340 C   0  0  0  0  0  0  0  0  0  0  0  0
    2.1370   -6.1630   21.7720 H   0  0  0  0  0  0  0  0  0  0  0  0
    2.5470   -7.3700   23.0220 H   0  0  0  0  0  0  0  0  0  0  0  0
    1.5080   -5.9630   23.4080 H   0  0  0  0  0  0  0  0  0  0  0  0
    5.1770   -5.7920   22.6700 S   0  0  0  0  0  0  0  0  0  0  0  0
    4.6690   -2.8450   24.6800 H   0  0  0  0  0  0  0  0  0  0  0  0
    7.7310   -4.6510   23.3930 H   0  0  0  0  0  0  0  0  0  0  0  0
    8.3190   -2.5990   24.4220 H   0  0  0  0  0  0  0  0  0  0  0  0
    6.6150   -2.1030   24.3580 H   0  0  0  0  0  0  0  0  0  0  0  0
    8.3570   -2.4180   21.9120 H   0  0  0  0  0  0  0  0  0  0  0  0
    5.5360   -1.3960   22.2500 H   0  0  0  0  0  0  0  0  0  0  0  0
    6.2120   -2.4660   21.0290 H   0  0  0  0  0  0  0  0  0  0  0  0
    9.9080   -0.4630   22.5520 C   0  0  0  0  0  0  0  0  0  0  0  0
   10.5270   -1.3280   21.6400 C   0  0  0  0  0  0  0  0  0  0  0  0
   11.8900   -1.2850   21.4370 C   0  0  0  0  0  0  0  0  0  0  0  0
   12.5400   -2.2920   20.1610 Cl  0  0  0  0  0  0  0  0  0  0  0  0
   12.6910   -0.4100   22.1780 C   0  0  0  0  0  0  0  0  0  0  0  0
   12.0930    0.4320   23.0890 C   0  0  0  0  0  0  0  0  0  0  0  0
   10.7090    0.4660   23.2220 C   0  0  0  0  0  0  0  0  0  0  0  0
   10.1090    1.6140   23.9750 C   0  0  0  0  0  0  0  0  0  0  0  0
   10.7990    2.4900   24.4820 O   0  0  0  0  0  0  0  0  0  0  0  0
   12.6810    1.1190   23.6850 H   0  0  0  0  0  0  0  0  0  0  0  0
   13.7570   -0.3260   22.0320 H   0  0  0  0  0  0  0  0  0  0  0  0
    9.9770   -2.0110   21.0040 H   0  0  0  0  0  0  0  0  0  0  0  0
    6.9210    0.6610   23.8110 H   0  0  0  0  0  0  0  0  0  0  0  0
    8.1330   -0.2110   24.7810 H   0  0  0  0  0  0  0  0  0  0  0  0
    8.8610    3.5990   24.6220 H   0  0  0  0  0  0  0  0  0  0  0  0
    7.5550    2.7010   25.4090 H   0  0  0  0  0  0  0  0  0  0  0  0
    8.4190    3.7090   21.9690 H   0  0  0  0  0  0  0  0  0  0  0  0
    5.9780    3.4080   20.8890 H   0  0  0  0  0  0  0  0  0  0  0  0
    5.7640    4.9790   21.6880 H   0  0  0  0  0  0  0  0  0  0  0  0
    7.0270    4.7970   20.4430 H   0  0  0  0  0  0  0  0  0  0  0  0
  1  2  1  0  0  0  0
  1 65  1  0  0  0  0
  1 66  1  0  0  0  0
  1 67  1  0  0  0  0
  2  3  1  0  0  0  0
  2 64  1  0  0  0  0
  3  4  2  0  0  0  0
  3  5  1  0  0  0  0
  5  6  1  0  0  0  0
  5 62  1  0  0  0  0
  5 63  1  0  0  0  0
  6  7  1  0  0  0  0
  6 55  1  0  0  0  0
  7  8  1  0  0  0  0
  7 60  1  0  0  0  0
  7 61  1  0  0  0  0
  8  9  1  6  0  0  0
  8 29  1  0  0  0  0
  8 48  1  0  0  0  0
  9 10  2  0  0  0  0
  9 11  1  0  0  0  0
 11 12  1  0  0  0  0
 11 28  1  0  0  0  0
 12 13  2  0  0  0  0
 12 21  1  0  0  0  0
 13 14  1  0  0  0  0
 13 27  1  0  0  0  0
 14 15  2  0  0  0  0
 15 16  1  0  0  0  0
 15 26  1  0  0  0  0
 16 17  2  0  0  0  0
 16 21  1  0  0  0  0
 17 18  1  0  0  0  0
 17 25  1  0  0  0  0
 18 19  2  0  0  0  0
 18 24  1  0  0  0  0
 19 20  1  0  0  0  0
 19 23  1  0  0  0  0
 20 21  2  0  0  0  0
 20 22  1  0  0  0  0
 28 29  1  0  0  0  0
 28 46  1  0  0  0  0
 28 47  1  0  0  0  0
 29 30  1  0  0  0  0
 29 45  1  6  0  0  0
 30 31  1  0  0  0  0
 30 43  1  0  0  0  0
 30 44  1  0  0  0  0
 31 32  1  0  0  0  0
 31 42  1  0  0  0  0
 32 33  2  0  0  0  0
 32 40  1  0  0  0  0
 33 34  1  0  0  0  0
 33 41  1  0  0  0  0
 34 35  2  0  0  0  0
 35 36  1  0  0  0  0
 35 40  1  0  0  0  0
 36 37  1  0  0  0  0
 36 38  1  0  0  0  0
 36 39  1  0  0  0  0
 48 49  2  0  0  0  0
 48 54  1  0  0  0  0
 49 50  1  0  0  0  0
 49 59  1  0  0  0  0
 50 51  1  0  0  0  0
 50 52  2  0  0  0  0
 52 53  1  0  0  0  0
 52 58  1  0  0  0  0
 53 54  2  0  0  0  0
 53 57  1  0  0  0  0
 54 55  1  0  0  0  0
 55 56  2  0  0  0  0
M  END
>  <MODEL>
       1

$$$$
