output/tmp_first_model_20_70.pdb
 OpenBabel07232603433D

 57 62  0  0  1  0  0  0  0  0999 V2000
    9.8080   -1.2220   22.8130 C   0  0  0  0  0  0  0  0  0  0  0  0
    8.4410   -0.7030   22.3840 C   0  0  1  0  0  0  0  0  0  0  0  0
    8.2830   -0.4350   20.8830 C   0  0  0  0  0  0  0  0  0  0  0  0
    6.8430   -0.5020   20.7110 N   0  0  0  0  0  0  0  0  0  0  0  0
    6.1530    0.1460   19.6680 C   0  0  0  0  0  0  0  0  0  0  0  0
    6.6150    0.0660   18.3760 C   0  0  0  0  0  0  0  0  0  0  0  0
    5.9820    0.5950   17.3020 N   0  0  0  0  0  0  0  0  0  0  0  0
    4.8680    1.2490   17.5200 C   0  0  0  0  0  0  0  0  0  0  0  0
    4.3350    1.5000   18.8140 C   0  0  0  0  0  0  0  0  0  0  0  0
    3.1810    2.3080   18.9950 C   0  0  0  0  0  0  0  0  0  0  0  0
    2.7310    2.5960   20.2540 C   0  0  0  0  0  0  0  0  0  0  0  0
    3.4150    2.0900   21.3830 C   0  0  0  0  0  0  0  0  0  0  0  0
    4.5230    1.2950   21.2330 C   0  0  0  0  0  0  0  0  0  0  0  0
    5.0000    0.9600   19.9340 C   0  0  0  0  0  0  0  0  0  0  0  0
    5.0430    0.9080   22.1040 H   0  0  0  0  0  0  0  0  0  0  0  0
    3.0660    2.3450   22.3790 H   0  0  0  0  0  0  0  0  0  0  0  0
    1.8620    3.2320   20.3940 H   0  0  0  0  0  0  0  0  0  0  0  0
    2.6820    2.7010   18.1140 H   0  0  0  0  0  0  0  0  0  0  0  0
    4.3430    1.6540   16.6540 H   0  0  0  0  0  0  0  0  0  0  0  0
    7.5330   -0.4790   18.1570 H   0  0  0  0  0  0  0  0  0  0  0  0
    6.2570   -1.3920   21.6000 C   0  0  0  0  0  0  0  0  0  0  0  0
    5.1690   -1.8990   21.4370 O   0  0  0  0  0  0  0  0  0  0  0  0
    7.2710   -1.6570   22.7480 C   0  0  1  0  0  0  0  0  0  0  0  0
    7.7180   -3.1610   22.6550 C   0  0  0  0  0  0  0  0  0  0  0  0
    6.5670   -4.0560   22.8350 N   0  0  0  0  0  0  0  0  0  0  0  0
    5.9300   -4.7510   21.7100 C   0  0  0  0  0  0  0  0  0  0  0  0
    6.1550   -6.1950   21.7430 C   0  0  0  0  0  0  0  0  0  0  0  0
    7.5430   -6.6170   21.7710 N   0  0  0  0  0  0  0  0  0  0  0  0
    7.5180   -6.7100   21.8940 N   0  0  0  0  0  0  0  0  0  0  0  0
    6.7880   -7.9230   22.1420 N   0  0  0  0  0  0  0  0  0  0  0  0
    7.4690   -8.9780   23.0020 C   0  0  0  0  0  0  0  0  0  0  0  0
    7.4750   -9.9300   22.4600 H   0  0  0  0  0  0  0  0  0  0  0  0
    6.9550   -9.1310   23.9590 H   0  0  0  0  0  0  0  0  0  0  0  0
    8.4900   -8.5860   23.1390 H   0  0  0  0  0  0  0  0  0  0  0  0
    5.4730   -7.2630   22.0840 N   0  0  0  0  0  0  0  0  0  0  0  0
    6.3460   -4.3220   20.7830 H   0  0  0  0  0  0  0  0  0  0  0  0
    4.8620   -4.5090   21.7360 H   0  0  0  0  0  0  0  0  0  0  0  0
    5.8210   -3.6890   23.8660 C   0  0  0  0  0  0  0  0  0  0  0  0
    4.6950   -3.0140   23.9610 O   0  0  0  0  0  0  0  0  0  0  0  0
    5.9300   -2.5590   24.7330 C   0  0  0  0  0  0  0  0  0  0  0  0
    5.8220   -2.6930   26.1570 C   0  0  0  0  0  0  0  0  0  0  0  0
    6.3600   -1.7380   26.9890 C   0  0  0  0  0  0  0  0  0  0  0  0
    6.9750   -0.6250   26.4170 C   0  0  0  0  0  0  0  0  0  0  0  0
    7.4600    0.3210   27.2360 F   0  0  0  0  0  0  0  0  0  0  0  0
    7.1390   -0.4690   25.0480 C   0  0  0  0  0  0  0  0  0  0  0  0
    6.7340   -1.4600   24.1590 C   0  0  0  0  0  0  0  0  0  0  0  0
    7.5930    0.4510   24.7130 H   0  0  0  0  0  0  0  0  0  0  0  0
    6.3100   -1.8370   28.0660 H   0  0  0  0  0  0  0  0  0  0  0  0
    5.2650   -3.5450   26.5320 H   0  0  0  0  0  0  0  0  0  0  0  0
    8.1860   -3.3990   21.6950 H   0  0  0  0  0  0  0  0  0  0  0  0
    8.4110   -3.3500   23.4870 H   0  0  0  0  0  0  0  0  0  0  0  0
    8.8060   -1.1980   20.2810 H   0  0  0  0  0  0  0  0  0  0  0  0
    8.6410    0.5540   20.5910 H   0  0  0  0  0  0  0  0  0  0  0  0
    8.2410    0.2590   22.8710 H   0  0  0  0  0  0  0  0  0  0  0  0
    9.7990   -1.4810   23.8780 H   0  0  0  0  0  0  0  0  0  0  0  0
   10.0740   -2.1260   22.2510 H   0  0  0  0  0  0  0  0  0  0  0  0
   10.6030   -0.4930   22.6580 H   0  0  0  0  0  0  0  0  0  0  0  0
  1  2  1  0  0  0  0
  1 55  1  0  0  0  0
  1 56  1  0  0  0  0
  1 57  1  0  0  0  0
  2  3  1  0  0  0  0
  2 23  1  0  0  0  0
  2 54  1  1  0  0  0
  3  4  1  0  0  0  0
  3 52  1  0  0  0  0
  3 53  1  0  0  0  0
  4  5  1  0  0  0  0
  4 21  1  0  0  0  0
  5  6  2  0  0  0  0
  5 14  1  0  0  0  0
  6  7  1  0  0  0  0
  6 20  1  0  0  0  0
  7  8  2  0  0  0  0
  8  9  1  0  0  0  0
  8 19  1  0  0  0  0
  9 10  2  0  0  0  0
  9 14  1  0  0  0  0
 10 11  1  0  0  0  0
 10 18  1  0  0  0  0
 11 12  2  0  0  0  0
 11 17  1  0  0  0  0
 12 13  1  0  0  0  0
 12 16  1  0  0  0  0
 13 14  2  0  0  0  0
 13 15  1  0  0  0  0
 21 22  2  0  0  0  0
 23 21  1  6  0  0  0
 23 24  1  0  0  0  0
 23 46  1  0  0  0  0
 24 25  1  0  0  0  0
 24 50  1  0  0  0  0
 24 51  1  0  0  0  0
 25 26  1  0  0  0  0
 25 38  1  0  0  0  0
 26 27  1  0  0  0  0
 26 36  1  0  0  0  0
 26 37  1  0  0  0  0
 27 28  1  0  0  0  0
 27 35  2  0  0  0  0
 28 29  2  0  0  0  0
 29 30  1  0  0  0  0
 30 31  1  0  0  0  0
 30 35  1  0  0  0  0
 31 32  1  0  0  0  0
 31 33  1  0  0  0  0
 31 34  1  0  0  0  0
 38 39  2  0  0  0  0
 38 40  1  0  0  0  0
 40 41  2  0  0  0  0
 40 46  1  0  0  0  0
 41 42  1  0  0  0  0
 41 49  1  0  0  0  0
 42 43  2  0  0  0  0
 42 48  1  0  0  0  0
 43 44  1  0  0  0  0
 43 45  1  0  0  0  0
 45 46  2  0  0  0  0
 45 47  1  0  0  0  0
M  END
>  <MODEL>
       1

$$$$
