output/tmp_first_model_20_67.pdb
 OpenBabel07232603433D

 69 74  0  0  1  0  0  0  0  0999 V2000
    9.1380    4.9150   22.7800 C   0  0  0  0  0  0  0  0  0  0  0  0
    8.3600    3.7360   22.3360 N   0  3  0  0  0  0  0  0  0  0  0  0
    7.2360    3.4380   23.2560 C   0  0  0  0  0  0  0  0  0  0  0  0
    7.7270    2.8560   24.5880 C   0  0  0  0  0  0  0  0  0  0  0  0
    8.4860    1.6330   24.3870 N   0  0  0  0  0  0  0  0  0  0  0  0
    7.7590    0.3970   24.1890 C   0  0  0  0  0  0  0  0  0  0  0  0
    8.3380   -0.4300   23.0080 C   0  0  2  0  0  0  0  0  0  0  0  0
    8.0770    0.3180   21.6770 C   0  0  0  0  0  0  0  0  0  0  0  0
    8.6430    1.3320   21.2880 O   0  0  0  0  0  0  0  0  0  0  0  0
    7.0190   -0.2820   21.0330 N   0  0  0  0  0  0  0  0  0  0  0  0
    6.3320    0.2930   19.9300 C   0  0  0  0  0  0  0  0  0  0  0  0
    6.7720    0.0660   18.6510 C   0  0  0  0  0  0  0  0  0  0  0  0
    6.1100    0.4650   17.5350 N   0  0  0  0  0  0  0  0  0  0  0  0
    4.9860    1.1170   17.6990 C   0  0  0  0  0  0  0  0  0  0  0  0
    4.4400    1.4660   18.9670 C   0  0  0  0  0  0  0  0  0  0  0  0
    3.2540    2.2390   19.0890 C   0  0  0  0  0  0  0  0  0  0  0  0
    2.7760    2.5900   20.3200 C   0  0  0  0  0  0  0  0  0  0  0  0
    3.4460    2.1610   21.4870 C   0  0  0  0  0  0  0  0  0  0  0  0
    4.5830    1.3930   21.3930 C   0  0  0  0  0  0  0  0  0  0  0  0
    5.1240    1.0400   20.1250 C   0  0  0  0  0  0  0  0  0  0  0  0
    5.0800    1.0680   22.3030 H   0  0  0  0  0  0  0  0  0  0  0  0
    3.0660    2.4470   22.4600 H   0  0  0  0  0  0  0  0  0  0  0  0
    1.8820    3.2020   20.4080 H   0  0  0  0  0  0  0  0  0  0  0  0
    2.7530    2.5520   18.1770 H   0  0  0  0  0  0  0  0  0  0  0  0
    4.4490    1.4210   16.8000 H   0  0  0  0  0  0  0  0  0  0  0  0
    7.6970   -0.4830   18.4940 H   0  0  0  0  0  0  0  0  0  0  0  0
    6.4280   -1.3760   21.7860 C   0  0  0  0  0  0  0  0  0  0  0  0
    7.5440   -1.7490   22.7640 C   0  0  2  0  0  0  0  0  0  0  0  0
    7.0380   -2.4910   23.9950 C   0  0  0  0  0  0  0  0  0  0  0  0
    5.9750   -1.7510   24.5680 O   0  0  0  0  0  0  0  0  0  0  0  0
    5.6920   -2.0350   25.9180 C   0  0  0  0  0  0  0  0  0  0  0  0
    4.5090   -2.9650   26.0410 C   0  0  0  0  0  0  0  0  0  0  0  0
    3.3320   -2.3110   25.7540 F   0  0  0  0  0  0  0  0  0  0  0  0
    4.6140   -4.3960   25.6260 C   0  0  0  0  0  0  0  0  0  0  0  0
    4.4770   -4.0160   27.0920 C   0  0  0  0  0  0  0  0  0  0  0  0
    3.5270   -4.2350   27.5680 H   0  0  0  0  0  0  0  0  0  0  0  0
    5.3440   -4.1230   27.7400 H   0  0  0  0  0  0  0  0  0  0  0  0
    3.7520   -4.8530   25.1430 H   0  0  0  0  0  0  0  0  0  0  0  0
    5.5810   -4.7400   25.2710 H   0  0  0  0  0  0  0  0  0  0  0  0
    6.5770   -2.4560   26.4290 H   0  0  0  0  0  0  0  0  0  0  0  0
    5.4540   -1.0810   26.4030 H   0  0  0  0  0  0  0  0  0  0  0  0
    7.8580   -2.6160   24.7210 H   0  0  0  0  0  0  0  0  0  0  0  0
    6.6710   -3.4950   23.7340 H   0  0  0  0  0  0  0  0  0  0  0  0
    8.2210   -2.4180   22.2300 H   0  0  0  0  0  0  0  0  0  0  0  0
    5.5250   -1.0630   22.3240 H   0  0  0  0  0  0  0  0  0  0  0  0
    6.1450   -2.1930   21.1110 H   0  0  0  0  0  0  0  0  0  0  0  0
    9.8120   -0.6090   23.3020 C   0  0  0  0  0  0  0  0  0  0  0  0
   10.5550   -1.6560   22.7430 C   0  0  0  0  0  0  0  0  0  0  0  0
   11.8420   -1.8850   23.1890 C   0  0  0  0  0  0  0  0  0  0  0  0
   12.7480   -3.2040   22.5110 Cl  0  0  0  0  0  0  0  0  0  0  0  0
   12.4500   -1.0810   24.1510 C   0  0  0  0  0  0  0  0  0  0  0  0
   11.7690    0.0350   24.6010 C   0  0  0  0  0  0  0  0  0  0  0  0
   10.4810    0.2990   24.1360 C   0  0  0  0  0  0  0  0  0  0  0  0
    9.8470    1.6230   24.4500 C   0  0  0  0  0  0  0  0  0  0  0  0
   10.5210    2.6140   24.7070 O   0  0  0  0  0  0  0  0  0  0  0  0
   12.2270    0.7250   25.2980 H   0  0  0  0  0  0  0  0  0  0  0  0
   13.4400   -1.3310   24.5210 H   0  0  0  0  0  0  0  0  0  0  0  0
   10.1500   -2.3120   21.9820 H   0  0  0  0  0  0  0  0  0  0  0  0
    6.7100    0.6220   23.9960 H   0  0  0  0  0  0  0  0  0  0  0  0
    7.8170   -0.2050   25.1060 H   0  0  0  0  0  0  0  0  0  0  0  0
    6.8620    2.6200   25.2180 H   0  0  0  0  0  0  0  0  0  0  0  0
    8.3650    3.5500   25.1390 H   0  0  0  0  0  0  0  0  0  0  0  0
    6.5860    2.7180   22.7580 H   0  0  0  0  0  0  0  0  0  0  0  0
    6.6490    4.3490   23.4180 H   0  0  0  0  0  0  0  0  0  0  0  0
    7.9990    3.9070   21.3830 H   0  0  0  0  0  0  0  0  0  0  0  0
    8.9420    2.8840   22.2430 H   0  0  0  0  0  0  0  0  0  0  0  0
    9.6700    5.3710   21.9450 H   0  0  0  0  0  0  0  0  0  0  0  0
    8.4530    5.6610   23.2010 H   0  0  0  0  0  0  0  0  0  0  0  0
    9.8520    4.6360   23.5550 H   0  0  0  0  0  0  0  0  0  0  0  0
  1  2  1  0  0  0  0
  1 67  1  0  0  0  0
  1 68  1  0  0  0  0
  1 69  1  0  0  0  0
  2  3  1  0  0  0  0
  2 65  1  0  0  0  0
  2 66  1  0  0  0  0
  3  4  1  0  0  0  0
  3 63  1  0  0  0  0
  3 64  1  0  0  0  0
  4  5  1  0  0  0  0
  4 61  1  0  0  0  0
  4 62  1  0  0  0  0
  5  6  1  0  0  0  0
  5 54  1  0  0  0  0
  6  7  1  0  0  0  0
  6 59  1  0  0  0  0
  6 60  1  0  0  0  0
  7  8  1  6  0  0  0
  7 28  1  0  0  0  0
  7 47  1  0  0  0  0
  8  9  2  0  0  0  0
  8 10  1  0  0  0  0
 10 11  1  0  0  0  0
 10 27  1  0  0  0  0
 11 12  2  0  0  0  0
 11 20  1  0  0  0  0
 12 13  1  0  0  0  0
 12 26  1  0  0  0  0
 13 14  2  0  0  0  0
 14 15  1  0  0  0  0
 14 25  1  0  0  0  0
 15 16  2  0  0  0  0
 15 20  1  0  0  0  0
 16 17  1  0  0  0  0
 16 24  1  0  0  0  0
 17 18  2  0  0  0  0
 17 23  1  0  0  0  0
 18 19  1  0  0  0  0
 18 22  1  0  0  0  0
 19 20  2  0  0  0  0
 19 21  1  0  0  0  0
 27 28  1  0  0  0  0
 27 45  1  0  0  0  0
 27 46  1  0  0  0  0
 28 29  1  0  0  0  0
 28 44  1  6  0  0  0
 29 30  1  0  0  0  0
 29 42  1  0  0  0  0
 29 43  1  0  0  0  0
 30 31  1  0  0  0  0
 31 32  1  0  0  0  0
 31 40  1  0  0  0  0
 31 41  1  0  0  0  0
 32 33  1  0  0  0  0
 32 34  1  0  0  0  0
 32 35  1  0  0  0  0
 34 35  1  0  0  0  0
 34 38  1  0  0  0  0
 34 39  1  0  0  0  0
 35 36  1  0  0  0  0
 35 37  1  0  0  0  0
 47 48  2  0  0  0  0
 47 53  1  0  0  0  0
 48 49  1  0  0  0  0
 48 58  1  0  0  0  0
 49 50  1  0  0  0  0
 49 51  2  0  0  0  0
 51 52  1  0  0  0  0
 51 57  1  0  0  0  0
 52 53  2  0  0  0  0
 52 56  1  0  0  0  0
 53 54  1  0  0  0  0
 54 55  2  0  0  0  0
M  CHG  1   2   1
M  END
>  <MODEL>
       1

$$$$
