output/tmp_first_model_1_6.pdb
 OpenBabel07222618483D

 65 69  0  0  0  0  0  0  0  0999 V2000
    1.0540   -5.2730   28.2320 C   0  0  0  0  0  0  0  0  0  0  0  0
    0.6740   -3.8490   27.8140 C   0  0  0  0  0  0  0  0  0  0  0  0
    1.9240   -3.1150   27.3810 C   0  0  0  0  0  0  0  0  0  0  0  0
    2.7810   -2.7490   28.1390 O   0  0  0  0  0  0  0  0  0  0  0  0
    2.0410   -2.8320   25.8930 N   0  3  0  0  0  0  0  0  0  0  0  0
    1.5180   -1.3960   25.4960 C   0  0  0  0  0  0  0  0  0  0  0  0
    2.6340   -0.3880   25.6750 C   0  0  0  0  0  0  0  0  0  0  0  0
    3.9200   -0.7460   24.9100 C   0  0  0  0  0  0  0  0  0  0  0  0
    4.2550   -2.2230   24.7680 C   0  0  0  0  0  0  0  0  0  0  0  0
    5.2920   -2.6630   23.9090 C   0  0  0  0  0  0  0  0  0  0  0  0
    6.0570   -1.7000   23.1690 N   0  0  0  0  0  0  0  0  0  0  0  0
    7.0600   -0.9270   23.8940 C   0  0  0  0  0  0  0  0  0  0  0  0
    8.4470   -1.5210   23.7990 C   0  0  0  0  0  0  0  0  0  0  0  0
    8.7200   -2.7250   24.4460 C   0  0  0  0  0  0  0  0  0  0  0  0
    9.9960   -3.2730   24.4000 C   0  0  0  0  0  0  0  0  0  0  0  0
   11.0160   -2.6400   23.6960 C   0  0  0  0  0  0  0  0  0  0  0  0
   10.7290   -1.4530   23.0360 C   0  0  0  0  0  0  0  0  0  0  0  0
   11.9910   -0.6400   22.1500 Cl  0  0  0  0  0  0  0  0  0  0  0  0
    9.4580   -0.8890   23.0790 C   0  0  0  0  0  0  0  0  0  0  0  0
    9.2710    0.0400   22.5460 H   0  0  0  0  0  0  0  0  0  0  0  0
   12.0210   -3.0510   23.6690 H   0  0  0  0  0  0  0  0  0  0  0  0
   10.2040   -4.1990   24.9290 H   0  0  0  0  0  0  0  0  0  0  0  0
    7.9270   -3.2340   24.9940 H   0  0  0  0  0  0  0  0  0  0  0  0
    7.0660    0.1070   23.5360 H   0  0  0  0  0  0  0  0  0  0  0  0
    6.7470   -0.9010   24.9410 H   0  0  0  0  0  0  0  0  0  0  0  0
    6.0160   -1.7680   21.7790 C   0  0  0  0  0  0  0  0  0  0  0  0
    5.4450   -2.6660   21.1910 O   0  0  0  0  0  0  0  0  0  0  0  0
    6.6610   -0.6210   20.9830 C   0  0  0  0  0  0  0  0  0  0  0  0
    5.8010   -0.2400   19.7980 C   0  0  0  0  0  0  0  0  0  0  0  0
    6.2590   -0.3300   18.5140 C   0  0  0  0  0  0  0  0  0  0  0  0
    5.5540    0.0020   17.3990 N   0  0  0  0  0  0  0  0  0  0  0  0
    4.3420    0.4680   17.5800 C   0  0  0  0  0  0  0  0  0  0  0  0
    3.7390    0.6490   18.8480 C   0  0  0  0  0  0  0  0  0  0  0  0
    2.4610    1.2560   19.0080 C   0  0  0  0  0  0  0  0  0  0  0  0
    1.8730    1.3000   20.2420 C   0  0  0  0  0  0  0  0  0  0  0  0
    2.5990    0.8840   21.3810 C   0  0  0  0  0  0  0  0  0  0  0  0
    3.8710    0.3910   21.2550 C   0  0  0  0  0  0  0  0  0  0  0  0
    4.4680    0.2280   19.9840 C   0  0  0  0  0  0  0  0  0  0  0  0
    4.4610    0.1820   22.1350 H   0  0  0  0  0  0  0  0  0  0  0  0
    2.1260    0.9420   22.3580 H   0  0  0  0  0  0  0  0  0  0  0  0
    0.8560    1.6680   20.3570 H   0  0  0  0  0  0  0  0  0  0  0  0
    2.0050    1.7500   18.1500 H   0  0  0  0  0  0  0  0  0  0  0  0
    3.7670    0.7290   16.6920 H   0  0  0  0  0  0  0  0  0  0  0  0
    7.2720   -0.6870   18.3360 H   0  0  0  0  0  0  0  0  0  0  0  0
    6.8430    0.2440   21.6290 H   0  0  0  0  0  0  0  0  0  0  0  0
    7.6350   -0.9760   20.6230 H   0  0  0  0  0  0  0  0  0  0  0  0
    5.5640   -4.0170   23.7480 C   0  0  0  0  0  0  0  0  0  0  0  0
    4.7410   -4.9750   24.3370 C   0  0  0  0  0  0  0  0  0  0  0  0
    3.6510   -4.5580   25.0910 C   0  0  0  0  0  0  0  0  0  0  0  0
    3.4030   -3.1970   25.2770 C   0  0  0  0  0  0  0  0  0  0  0  0
    2.9540   -5.2900   25.4890 H   0  0  0  0  0  0  0  0  0  0  0  0
    4.9200   -6.0340   24.1660 H   0  0  0  0  0  0  0  0  0  0  0  0
    6.4120   -4.3190   23.1370 H   0  0  0  0  0  0  0  0  0  0  0  0
    4.7510   -0.2110   25.3780 H   0  0  0  0  0  0  0  0  0  0  0  0
    3.8200   -0.3420   23.8980 H   0  0  0  0  0  0  0  0  0  0  0  0
    2.8360   -0.2770   26.7420 H   0  0  0  0  0  0  0  0  0  0  0  0
    2.2780    0.5850   25.3140 H   0  0  0  0  0  0  0  0  0  0  0  0
    1.1840   -1.4330   24.4580 H   0  0  0  0  0  0  0  0  0  0  0  0
    0.6520   -1.1520   26.1130 H   0  0  0  0  0  0  0  0  0  0  0  0
    1.3970   -3.5150   25.4500 H   0  0  0  0  0  0  0  0  0  0  0  0
   -0.0850   -3.8530   27.0230 H   0  0  0  0  0  0  0  0  0  0  0  0
    0.2850   -3.2720   28.6560 H   0  0  0  0  0  0  0  0  0  0  0  0
    1.8660   -5.2390   28.9620 H   0  0  0  0  0  0  0  0  0  0  0  0
    0.2070   -5.8140   28.6640 H   0  0  0  0  0  0  0  0  0  0  0  0
    1.4130   -5.8370   27.3630 H   0  0  0  0  0  0  0  0  0  0  0  0
  1  2  1  0  0  0  0
  1 63  1  0  0  0  0
  1 64  1  0  0  0  0
  1 65  1  0  0  0  0
  2  3  1  0  0  0  0
  2 61  1  0  0  0  0
  2 62  1  0  0  0  0
  3  4  2  0  0  0  0
  3  5  1  0  0  0  0
  5  6  1  0  0  0  0
  5 50  1  0  0  0  0
  5 60  1  0  0  0  0
  6  7  1  0  0  0  0
  6 58  1  0  0  0  0
  6 59  1  0  0  0  0
  7  8  1  0  0  0  0
  7 56  1  0  0  0  0
  7 57  1  0  0  0  0
  8  9  1  0  0  0  0
  8 54  1  0  0  0  0
  8 55  1  0  0  0  0
  9 10  2  0  0  0  0
  9 50  1  0  0  0  0
 10 11  1  0  0  0  0
 10 47  1  0  0  0  0
 11 12  1  0  0  0  0
 11 26  1  0  0  0  0
 12 13  1  0  0  0  0
 12 24  1  0  0  0  0
 12 25  1  0  0  0  0
 13 14  2  0  0  0  0
 13 19  1  0  0  0  0
 14 15  1  0  0  0  0
 14 23  1  0  0  0  0
 15 16  2  0  0  0  0
 15 22  1  0  0  0  0
 16 17  1  0  0  0  0
 16 21  1  0  0  0  0
 17 18  1  0  0  0  0
 17 19  2  0  0  0  0
 19 20  1  0  0  0  0
 26 27  2  0  0  0  0
 26 28  1  0  0  0  0
 28 29  1  0  0  0  0
 28 45  1  0  0  0  0
 28 46  1  0  0  0  0
 29 30  2  0  0  0  0
 29 38  1  0  0  0  0
 30 31  1  0  0  0  0
 30 44  1  0  0  0  0
 31 32  2  0  0  0  0
 32 33  1  0  0  0  0
 32 43  1  0  0  0  0
 33 34  2  0  0  0  0
 33 38  1  0  0  0  0
 34 35  1  0  0  0  0
 34 42  1  0  0  0  0
 35 36  2  0  0  0  0
 35 41  1  0  0  0  0
 36 37  1  0  0  0  0
 36 40  1  0  0  0  0
 37 38  2  0  0  0  0
 37 39  1  0  0  0  0
 47 48  2  0  0  0  0
 47 53  1  0  0  0  0
 48 49  1  0  0  0  0
 48 52  1  0  0  0  0
 49 50  2  0  0  0  0
 49 51  1  0  0  0  0
M  CHG  1   5   1
M  END
>  <MODEL>
       1

$$$$
