output/tmp_first_model_11_59.pdb
 OpenBabel07222623443D

 60 65  0  0  1  0  0  0  0  0999 V2000
   11.7980   -0.4490   22.7030 C   0  0  0  0  0  0  0  0  0  0  0  0
   10.8890   -0.6160   21.6410 O   0  0  0  0  0  0  0  0  0  0  0  0
    9.8690   -1.5580   21.9040 C   0  0  0  0  0  0  0  0  0  0  0  0
    8.5930   -0.8550   22.4200 C   0  0  1  0  0  0  0  0  0  0  0  0
    8.0790    0.1340   21.3460 C   0  0  0  0  0  0  0  0  0  0  0  0
    6.8760   -0.4880   20.8330 N   0  0  0  0  0  0  0  0  0  0  0  0
    6.1030    0.0550   19.7690 C   0  0  0  0  0  0  0  0  0  0  0  0
    6.4400   -0.2280   18.4710 C   0  0  0  0  0  0  0  0  0  0  0  0
    5.7770    0.2460   17.3910 N   0  0  0  0  0  0  0  0  0  0  0  0
    4.7470    1.0250   17.6020 C   0  0  0  0  0  0  0  0  0  0  0  0
    4.2870    1.4040   18.8950 C   0  0  0  0  0  0  0  0  0  0  0  0
    3.1670    2.2600   19.0690 C   0  0  0  0  0  0  0  0  0  0  0  0
    2.7630    2.6260   20.3220 C   0  0  0  0  0  0  0  0  0  0  0  0
    3.4630    2.1530   21.4570 C   0  0  0  0  0  0  0  0  0  0  0  0
    4.5470    1.3210   21.3170 C   0  0  0  0  0  0  0  0  0  0  0  0
    4.9840    0.9150   20.0220 C   0  0  0  0  0  0  0  0  0  0  0  0
    5.0770    0.9650   22.2010 H   0  0  0  0  0  0  0  0  0  0  0  0
    3.1350    2.4520   22.4480 H   0  0  0  0  0  0  0  0  0  0  0  0
    1.9140    3.2920   20.4490 H   0  0  0  0  0  0  0  0  0  0  0  0
    2.6610    2.6320   18.1820 H   0  0  0  0  0  0  0  0  0  0  0  0
    4.2210    1.3860   16.7190 H   0  0  0  0  0  0  0  0  0  0  0  0
    7.2870   -0.8740   18.2480 H   0  0  0  0  0  0  0  0  0  0  0  0
    6.4130   -1.5560   21.5660 C   0  0  0  0  0  0  0  0  0  0  0  0
    5.4010   -2.1720   21.3120 O   0  0  0  0  0  0  0  0  0  0  0  0
    7.3820   -1.7850   22.7540 C   0  0  1  0  0  0  0  0  0  0  0  0
    7.7490   -3.2780   22.8470 C   0  0  0  0  0  0  0  0  0  0  0  0
    6.5850   -4.0600   23.1990 N   0  0  0  0  0  0  0  0  0  0  0  0
    6.4040   -5.3490   22.5740 C   0  0  0  0  0  0  0  0  0  0  0  0
    7.2590   -6.4120   23.1850 C   0  0  0  0  0  0  0  0  0  0  0  0
    8.5220   -6.6010   22.9170 N   0  0  0  0  0  0  0  0  0  0  0  0
    8.9080   -7.7000   23.6300 C   0  0  0  0  0  0  0  0  0  0  0  0
    7.8440   -8.1740   24.3450 C   0  0  0  0  0  0  0  0  0  0  0  0
    6.7930   -7.3330   24.0670 N   0  0  0  0  0  0  0  0  0  0  0  0
    5.9070   -7.2750   24.5540 H   0  0  0  0  0  0  0  0  0  0  0  0
    7.7330   -8.9790   25.0340 H   0  0  0  0  0  0  0  0  0  0  0  0
    9.9470   -8.0080   23.6210 H   0  0  0  0  0  0  0  0  0  0  0  0
    5.3480   -5.6220   22.6530 H   0  0  0  0  0  0  0  0  0  0  0  0
    6.6720   -5.2280   21.5190 H   0  0  0  0  0  0  0  0  0  0  0  0
    5.8740   -3.8050   24.3310 C   0  0  0  0  0  0  0  0  0  0  0  0
    5.2120   -4.6830   24.8740 O   0  0  0  0  0  0  0  0  0  0  0  0
    5.9620   -2.3810   24.7970 C   0  0  0  0  0  0  0  0  0  0  0  0
    5.2670   -2.0200   25.9480 C   0  0  0  0  0  0  0  0  0  0  0  0
    5.2200   -0.7030   26.3580 C   0  0  0  0  0  0  0  0  0  0  0  0
    5.8680    0.2600   25.5910 C   0  0  0  0  0  0  0  0  0  0  0  0
    5.7700    1.9300   26.0760 Cl  0  0  0  0  0  0  0  0  0  0  0  0
    6.5770   -0.0790   24.4520 C   0  0  0  0  0  0  0  0  0  0  0  0
    6.6630   -1.4190   24.0520 C   0  0  0  0  0  0  0  0  0  0  0  0
    7.0300    0.7280   23.8820 H   0  0  0  0  0  0  0  0  0  0  0  0
    4.6790   -0.4040   27.2480 H   0  0  0  0  0  0  0  0  0  0  0  0
    4.7500   -2.8040   26.4870 H   0  0  0  0  0  0  0  0  0  0  0  0
    8.1020   -3.6590   21.8900 H   0  0  0  0  0  0  0  0  0  0  0  0
    8.5490   -3.4120   23.5950 H   0  0  0  0  0  0  0  0  0  0  0  0
    7.8760    1.1340   21.7600 H   0  0  0  0  0  0  0  0  0  0  0  0
    8.8120    0.2730   20.5470 H   0  0  0  0  0  0  0  0  0  0  0  0
    8.9130   -0.3270   23.3270 H   0  0  0  0  0  0  0  0  0  0  0  0
   10.2330   -2.2960   22.6370 H   0  0  0  0  0  0  0  0  0  0  0  0
    9.6590   -2.0790   20.9600 H   0  0  0  0  0  0  0  0  0  0  0  0
   11.2980   -0.1810   23.6490 H   0  0  0  0  0  0  0  0  0  0  0  0
   12.4620    0.3680   22.4150 H   0  0  0  0  0  0  0  0  0  0  0  0
   12.3990   -1.3560   22.8890 H   0  0  0  0  0  0  0  0  0  0  0  0
  1  2  1  0  0  0  0
  1 58  1  0  0  0  0
  1 59  1  0  0  0  0
  1 60  1  0  0  0  0
  2  3  1  0  0  0  0
  3  4  1  0  0  0  0
  3 56  1  0  0  0  0
  3 57  1  0  0  0  0
  4  5  1  0  0  0  0
  4 25  1  0  0  0  0
  4 55  1  1  0  0  0
  5  6  1  0  0  0  0
  5 53  1  0  0  0  0
  5 54  1  0  0  0  0
  6  7  1  0  0  0  0
  6 23  1  0  0  0  0
  7  8  2  0  0  0  0
  7 16  1  0  0  0  0
  8  9  1  0  0  0  0
  8 22  1  0  0  0  0
  9 10  2  0  0  0  0
 10 11  1  0  0  0  0
 10 21  1  0  0  0  0
 11 12  2  0  0  0  0
 11 16  1  0  0  0  0
 12 13  1  0  0  0  0
 12 20  1  0  0  0  0
 13 14  2  0  0  0  0
 13 19  1  0  0  0  0
 14 15  1  0  0  0  0
 14 18  1  0  0  0  0
 15 16  2  0  0  0  0
 15 17  1  0  0  0  0
 23 24  2  0  0  0  0
 25 23  1  6  0  0  0
 25 26  1  0  0  0  0
 25 47  1  0  0  0  0
 26 27  1  0  0  0  0
 26 51  1  0  0  0  0
 26 52  1  0  0  0  0
 27 28  1  0  0  0  0
 27 39  1  0  0  0  0
 28 29  1  0  0  0  0
 28 37  1  0  0  0  0
 28 38  1  0  0  0  0
 29 30  2  0  0  0  0
 29 33  1  0  0  0  0
 30 31  1  0  0  0  0
 31 32  2  0  0  0  0
 31 36  1  0  0  0  0
 32 33  1  0  0  0  0
 32 35  1  0  0  0  0
 33 34  1  0  0  0  0
 39 40  2  0  0  0  0
 39 41  1  0  0  0  0
 41 42  2  0  0  0  0
 41 47  1  0  0  0  0
 42 43  1  0  0  0  0
 42 50  1  0  0  0  0
 43 44  2  0  0  0  0
 43 49  1  0  0  0  0
 44 45  1  0  0  0  0
 44 46  1  0  0  0  0
 46 47  2  0  0  0  0
 46 48  1  0  0  0  0
M  END
>  <MODEL>
       1

$$$$
