output/tmp_first_model_7_23.pdb
 OpenBabel07222621533D

 69 74  0  0  1  0  0  0  0  0999 V2000
    8.7870    7.6090   24.3460 C   0  0  0  0  0  0  0  0  0  0  0  0
    8.3110    6.3910   23.5740 C   0  0  1  0  0  0  0  0  0  0  0  0
    7.8370    5.2460   24.4660 C   0  0  0  0  0  0  0  0  0  0  0  0
    7.2640    4.0920   23.6630 N   0  3  1  0  0  0  0  0  0  0  0  0
    6.6810    3.0470   24.5590 C   0  0  0  0  0  0  0  0  0  0  0  0
    7.7490    2.3000   25.3550 C   0  0  0  0  0  0  0  0  0  0  0  0
    8.5720    1.4730   24.4930 N   0  0  0  0  0  0  0  0  0  0  0  0
    8.0830    0.1410   24.1900 C   0  0  0  0  0  0  0  0  0  0  0  0
    8.3850   -0.2790   22.7380 C   0  0  2  0  0  0  0  0  0  0  0  0
    7.5360    0.5530   21.7480 C   0  0  0  0  0  0  0  0  0  0  0  0
    7.4700    1.7700   21.7150 O   0  0  0  0  0  0  0  0  0  0  0  0
    6.8480   -0.3200   20.9350 N   0  0  0  0  0  0  0  0  0  0  0  0
    6.0290    0.0830   19.8620 C   0  0  0  0  0  0  0  0  0  0  0  0
    6.4020   -0.1790   18.5700 C   0  0  0  0  0  0  0  0  0  0  0  0
    5.7290    0.2530   17.4820 N   0  0  0  0  0  0  0  0  0  0  0  0
    4.6480    0.9610   17.6830 C   0  0  0  0  0  0  0  0  0  0  0  0
    4.0920    1.2030   18.9660 C   0  0  0  0  0  0  0  0  0  0  0  0
    2.8720    1.9070   19.1280 C   0  0  0  0  0  0  0  0  0  0  0  0
    2.3050    2.0410   20.3660 C   0  0  0  0  0  0  0  0  0  0  0  0
    2.9330    1.4810   21.5020 C   0  0  0  0  0  0  0  0  0  0  0  0
    4.1330    0.8220   21.3710 C   0  0  0  0  0  0  0  0  0  0  0  0
    4.7670    0.7060   20.1010 C   0  0  0  0  0  0  0  0  0  0  0  0
    4.6130    0.3870   22.2410 H   0  0  0  0  0  0  0  0  0  0  0  0
    2.4710    1.5950   22.4790 H   0  0  0  0  0  0  0  0  0  0  0  0
    1.3790    2.5950   20.4810 H   0  0  0  0  0  0  0  0  0  0  0  0
    2.3910    2.2950   18.2350 H   0  0  0  0  0  0  0  0  0  0  0  0
    4.1490    1.3540   16.8020 H   0  0  0  0  0  0  0  0  0  0  0  0
    7.3280   -0.7090   18.3620 H   0  0  0  0  0  0  0  0  0  0  0  0
    7.3260   -1.6820   21.0230 C   0  0  0  0  0  0  0  0  0  0  0  0
    7.9870   -1.7560   22.4110 C   0  0  2  0  0  0  0  0  0  0  0  0
    7.1130   -2.4650   23.4390 C   0  0  0  0  0  0  0  0  0  0  0  0
    7.6380   -2.5400   24.3960 H   0  0  0  0  0  0  0  0  0  0  0  0
    6.1580   -1.9590   23.6000 H   0  0  0  0  0  0  0  0  0  0  0  0
    6.9140   -3.4860   23.0980 H   0  0  0  0  0  0  0  0  0  0  0  0
    8.8880   -2.3720   22.3590 H   0  0  0  0  0  0  0  0  0  0  0  0
    6.4910   -2.3800   20.9000 H   0  0  0  0  0  0  0  0  0  0  0  0
    8.0530   -1.8890   20.2260 H   0  0  0  0  0  0  0  0  0  0  0  0
    9.8640   -0.0180   22.5190 C   0  0  0  0  0  0  0  0  0  0  0  0
   10.6050   -0.8670   21.7000 C   0  0  0  0  0  0  0  0  0  0  0  0
   11.9680   -0.7050   21.5820 C   0  0  0  0  0  0  0  0  0  0  0  0
   12.8150   -1.9740   20.7560 Cl  0  0  0  0  0  0  0  0  0  0  0  0
   12.6400    0.3910   22.1220 C   0  0  0  0  0  0  0  0  0  0  0  0
   11.8960    1.2790   22.8850 C   0  0  0  0  0  0  0  0  0  0  0  0
   10.5360    1.0470   23.1350 C   0  0  0  0  0  0  0  0  0  0  0  0
    9.8090    1.9110   24.1210 C   0  0  0  0  0  0  0  0  0  0  0  0
   10.3060    2.9410   24.5700 O   0  0  0  0  0  0  0  0  0  0  0  0
   12.3730    2.1460   23.3370 H   0  0  0  0  0  0  0  0  0  0  0  0
   13.7130    0.5210   21.9660 H   0  0  0  0  0  0  0  0  0  0  0  0
   10.1560   -1.7090   21.1850 H   0  0  0  0  0  0  0  0  0  0  0  0
    8.5280   -0.5890   24.8810 H   0  0  0  0  0  0  0  0  0  0  0  0
    7.0060    0.1280   24.3580 H   0  0  0  0  0  0  0  0  0  0  0  0
    7.2620    1.6610   26.1000 H   0  0  0  0  0  0  0  0  0  0  0  0
    8.4080    2.9860   25.8870 H   0  0  0  0  0  0  0  0  0  0  0  0
    5.9530    3.5160   25.2370 H   0  0  0  0  0  0  0  0  0  0  0  0
    6.1350    2.3360   23.9280 H   0  0  0  0  0  0  0  0  0  0  0  0
    6.2430    4.6140   22.6850 C   0  0  0  0  0  0  0  0  0  0  0  0
    6.8190    5.7830   21.9030 C   0  0  0  0  0  0  0  0  0  0  0  0
    7.2430    6.8280   22.7470 O   0  0  0  0  0  0  0  0  0  0  0  0
    6.0690    6.1930   21.2170 H   0  0  0  0  0  0  0  0  0  0  0  0
    7.6800    5.4220   21.3180 H   0  0  0  0  0  0  0  0  0  0  0  0
    5.9730    3.8030   22.0040 H   0  0  0  0  0  0  0  0  0  0  0  0
    5.3510    4.9300   23.2400 H   0  0  0  0  0  0  0  0  0  0  0  0
    7.9930    3.6280   23.0850 H   0  0  0  0  0  0  0  0  0  0  0  0
    7.0500    5.6160   25.1360 H   0  0  0  0  0  0  0  0  0  0  0  0
    8.6690    4.8830   25.0690 H   0  0  0  0  0  0  0  0  0  0  0  0
    9.1290    6.0170   22.9310 H   0  0  0  0  0  0  0  0  0  0  0  0
    9.6120    7.3710   25.0270 H   0  0  0  0  0  0  0  0  0  0  0  0
    9.1320    8.3650   23.6340 H   0  0  0  0  0  0  0  0  0  0  0  0
    7.9560    8.0270   24.9240 H   0  0  0  0  0  0  0  0  0  0  0  0
  1  2  1  0  0  0  0
  1 67  1  0  0  0  0
  1 68  1  0  0  0  0
  1 69  1  0  0  0  0
  2  3  1  0  0  0  0
  2 58  1  0  0  0  0
  2 66  1  6  0  0  0
  3  4  1  0  0  0  0
  3 64  1  0  0  0  0
  3 65  1  0  0  0  0
  4  5  1  0  0  0  0
  4 56  1  0  0  0  0
  4 63  1  6  0  0  0
  5  6  1  0  0  0  0
  5 54  1  0  0  0  0
  5 55  1  0  0  0  0
  6  7  1  0  0  0  0
  6 52  1  0  0  0  0
  6 53  1  0  0  0  0
  7  8  1  0  0  0  0
  7 45  1  0  0  0  0
  8  9  1  0  0  0  0
  8 50  1  0  0  0  0
  8 51  1  0  0  0  0
  9 10  1  6  0  0  0
  9 30  1  0  0  0  0
  9 38  1  0  0  0  0
 10 11  2  0  0  0  0
 10 12  1  0  0  0  0
 12 13  1  0  0  0  0
 12 29  1  0  0  0  0
 13 14  2  0  0  0  0
 13 22  1  0  0  0  0
 14 15  1  0  0  0  0
 14 28  1  0  0  0  0
 15 16  2  0  0  0  0
 16 17  1  0  0  0  0
 16 27  1  0  0  0  0
 17 18  2  0  0  0  0
 17 22  1  0  0  0  0
 18 19  1  0  0  0  0
 18 26  1  0  0  0  0
 19 20  2  0  0  0  0
 19 25  1  0  0  0  0
 20 21  1  0  0  0  0
 20 24  1  0  0  0  0
 21 22  2  0  0  0  0
 21 23  1  0  0  0  0
 29 30  1  0  0  0  0
 29 36  1  0  0  0  0
 29 37  1  0  0  0  0
 30 31  1  0  0  0  0
 30 35  1  6  0  0  0
 31 32  1  0  0  0  0
 31 33  1  0  0  0  0
 31 34  1  0  0  0  0
 38 39  2  0  0  0  0
 38 44  1  0  0  0  0
 39 40  1  0  0  0  0
 39 49  1  0  0  0  0
 40 41  1  0  0  0  0
 40 42  2  0  0  0  0
 42 43  1  0  0  0  0
 42 48  1  0  0  0  0
 43 44  2  0  0  0  0
 43 47  1  0  0  0  0
 44 45  1  0  0  0  0
 45 46  2  0  0  0  0
 56 57  1  0  0  0  0
 56 61  1  0  0  0  0
 56 62  1  0  0  0  0
 57 58  1  0  0  0  0
 57 59  1  0  0  0  0
 57 60  1  0  0  0  0
M  CHG  1   4   1
M  END
>  <MODEL>
       1

$$$$
