output/tmp_first_model_11_62.pdb
 OpenBabel07222623443D

 70 76  0  0  1  0  0  0  0  0999 V2000
    9.7340   -1.9280   21.8700 C   0  0  0  0  0  0  0  0  0  0  0  0
    8.6570   -0.9320   22.3250 C   0  0  1  0  0  0  0  0  0  0  0  0
    8.2210   -0.0520   21.1350 C   0  0  0  0  0  0  0  0  0  0  0  0
    6.8770   -0.4800   20.8360 N   0  0  0  0  0  0  0  0  0  0  0  0
    6.1100    0.0640   19.7830 C   0  0  0  0  0  0  0  0  0  0  0  0
    6.4570   -0.2170   18.4870 C   0  0  0  0  0  0  0  0  0  0  0  0
    5.7860    0.2320   17.4030 N   0  0  0  0  0  0  0  0  0  0  0  0
    4.7500    1.0060   17.6150 C   0  0  0  0  0  0  0  0  0  0  0  0
    4.2990    1.3910   18.9090 C   0  0  0  0  0  0  0  0  0  0  0  0
    3.1820    2.2480   19.0710 C   0  0  0  0  0  0  0  0  0  0  0  0
    2.7840    2.6450   20.3150 C   0  0  0  0  0  0  0  0  0  0  0  0
    3.4850    2.1970   21.4600 C   0  0  0  0  0  0  0  0  0  0  0  0
    4.5670    1.3610   21.3370 C   0  0  0  0  0  0  0  0  0  0  0  0
    4.9950    0.9220   20.0460 C   0  0  0  0  0  0  0  0  0  0  0  0
    5.1010    1.0440   22.2360 H   0  0  0  0  0  0  0  0  0  0  0  0
    3.1630    2.5310   22.4430 H   0  0  0  0  0  0  0  0  0  0  0  0
    1.9370    3.3150   20.4330 H   0  0  0  0  0  0  0  0  0  0  0  0
    2.6750    2.6030   18.1770 H   0  0  0  0  0  0  0  0  0  0  0  0
    4.2150    1.3820   16.7420 H   0  0  0  0  0  0  0  0  0  0  0  0
    7.3090   -0.8690   18.2920 H   0  0  0  0  0  0  0  0  0  0  0  0
    6.3460   -1.3740   21.7290 C   0  0  0  0  0  0  0  0  0  0  0  0
    5.2650   -1.9080   21.5980 O   0  0  0  0  0  0  0  0  0  0  0  0
    7.3430   -1.5510   22.8880 C   0  0  1  0  0  0  0  0  0  0  0  0
    7.4840   -3.0390   23.2310 C   0  0  0  0  0  0  0  0  0  0  0  0
    6.3030   -3.5490   23.8830 N   0  0  0  0  0  0  0  0  0  0  0  0
    5.7730   -4.8190   23.4570 C   0  0  0  0  0  0  0  0  0  0  0  0
    6.4990   -5.9670   24.1470 C   0  0  0  0  0  0  0  0  0  0  0  0
    5.9130   -7.3080   23.8100 N   0  3  2  0  0  0  0  0  0  0  0  0
    5.9010   -7.5420   22.3260 C   0  0  0  0  0  0  0  0  0  0  0  0
    4.4570   -7.3130   21.8610 C   0  0  0  0  0  0  0  0  0  0  0  0
    3.5420   -7.5110   23.0800 C   0  0  0  0  0  0  0  0  0  0  0  0
    2.4560   -8.6150   23.0950 C   0  0  0  0  0  0  0  0  0  0  0  0
    1.3890   -7.6670   23.1820 O   0  0  0  0  0  0  0  0  0  0  0  0
    2.3160   -6.5810   23.1460 C   0  0  0  0  0  0  0  0  0  0  0  0
    2.2470   -5.9630   24.0490 H   0  0  0  0  0  0  0  0  0  0  0  0
    2.1680   -5.9580   22.2530 H   0  0  0  0  0  0  0  0  0  0  0  0
    2.4790   -9.2670   23.9780 H   0  0  0  0  0  0  0  0  0  0  0  0
    2.3720   -9.2280   22.1890 H   0  0  0  0  0  0  0  0  0  0  0  0
    4.4900   -7.5200   24.2920 C   0  0  0  0  0  0  0  0  0  0  0  0
    4.4740   -8.4780   24.8120 H   0  0  0  0  0  0  0  0  0  0  0  0
    4.2500   -6.7380   25.0160 H   0  0  0  0  0  0  0  0  0  0  0  0
    4.3760   -6.2840   21.5040 H   0  0  0  0  0  0  0  0  0  0  0  0
    4.2050   -7.9650   21.0160 H   0  0  0  0  0  0  0  0  0  0  0  0
    6.6110   -6.8720   21.8510 H   0  0  0  0  0  0  0  0  0  0  0  0
    6.2680   -8.5470   22.1310 H   0  0  0  0  0  0  0  0  0  0  0  0
    6.5210   -8.0000   24.2610 H   0  0  0  0  0  0  0  0  0  0  0  0
    7.5590   -5.9650   23.8620 H   0  0  0  0  0  0  0  0  0  0  0  0
    6.4560   -5.8270   25.2280 H   0  0  0  0  0  0  0  0  0  0  0  0
    5.8840   -4.8550   22.3660 H   0  0  0  0  0  0  0  0  0  0  0  0
    4.7030   -4.8180   23.6800 H   0  0  0  0  0  0  0  0  0  0  0  0
    5.7450   -2.9430   24.9590 C   0  0  0  0  0  0  0  0  0  0  0  0
    4.9810   -3.5240   25.7240 O   0  0  0  0  0  0  0  0  0  0  0  0
    6.0960   -1.5030   25.1110 C   0  0  0  0  0  0  0  0  0  0  0  0
    5.6130   -0.8520   26.2390 C   0  0  0  0  0  0  0  0  0  0  0  0
    5.8280    0.4990   26.4100 C   0  0  0  0  0  0  0  0  0  0  0  0
    6.5250    1.1850   25.4170 C   0  0  0  0  0  0  0  0  0  0  0  0
    6.7820    2.8980   25.5970 Cl  0  0  0  0  0  0  0  0  0  0  0  0
    7.0180    0.5470   24.2890 C   0  0  0  0  0  0  0  0  0  0  0  0
    6.8300   -0.8290   24.1290 C   0  0  0  0  0  0  0  0  0  0  0  0
    7.5540    1.1310   23.5440 H   0  0  0  0  0  0  0  0  0  0  0  0
    5.4500    1.0300   27.2770 H   0  0  0  0  0  0  0  0  0  0  0  0
    5.0590   -1.4420   26.9600 H   0  0  0  0  0  0  0  0  0  0  0  0
    8.3620   -3.1690   23.8780 H   0  0  0  0  0  0  0  0  0  0  0  0
    7.6480   -3.6140   22.3190 H   0  0  0  0  0  0  0  0  0  0  0  0
    8.2550    1.0220   21.3570 H   0  0  0  0  0  0  0  0  0  0  0  0
    8.8680   -0.2180   20.2750 H   0  0  0  0  0  0  0  0  0  0  0  0
    9.1200   -0.3240   23.1080 H   0  0  0  0  0  0  0  0  0  0  0  0
   10.5990   -1.3910   21.4620 H   0  0  0  0  0  0  0  0  0  0  0  0
   10.1010   -2.5430   22.6990 H   0  0  0  0  0  0  0  0  0  0  0  0
    9.3610   -2.5960   21.0850 H   0  0  0  0  0  0  0  0  0  0  0  0
  1  2  1  0  0  0  0
  1 68  1  0  0  0  0
  1 69  1  0  0  0  0
  1 70  1  0  0  0  0
  2  3  1  0  0  0  0
  2 23  1  0  0  0  0
  2 67  1  1  0  0  0
  3  4  1  0  0  0  0
  3 65  1  0  0  0  0
  3 66  1  0  0  0  0
  4  5  1  0  0  0  0
  4 21  1  0  0  0  0
  5  6  2  0  0  0  0
  5 14  1  0  0  0  0
  6  7  1  0  0  0  0
  6 20  1  0  0  0  0
  7  8  2  0  0  0  0
  8  9  1  0  0  0  0
  8 19  1  0  0  0  0
  9 10  2  0  0  0  0
  9 14  1  0  0  0  0
 10 11  1  0  0  0  0
 10 18  1  0  0  0  0
 11 12  2  0  0  0  0
 11 17  1  0  0  0  0
 12 13  1  0  0  0  0
 12 16  1  0  0  0  0
 13 14  2  0  0  0  0
 13 15  1  0  0  0  0
 21 22  2  0  0  0  0
 23 21  1  6  0  0  0
 23 24  1  0  0  0  0
 23 59  1  0  0  0  0
 24 25  1  0  0  0  0
 24 63  1  0  0  0  0
 24 64  1  0  0  0  0
 25 26  1  0  0  0  0
 25 51  1  0  0  0  0
 26 27  1  0  0  0  0
 26 49  1  0  0  0  0
 26 50  1  0  0  0  0
 27 28  1  0  0  0  0
 27 47  1  0  0  0  0
 27 48  1  0  0  0  0
 28 29  1  0  0  0  0
 28 39  1  0  0  0  0
 28 46  1  1  0  0  0
 29 30  1  0  0  0  0
 29 44  1  0  0  0  0
 29 45  1  0  0  0  0
 30 31  1  0  0  0  0
 30 42  1  0  0  0  0
 30 43  1  0  0  0  0
 31 32  1  0  0  0  0
 31 34  1  0  0  0  0
 31 39  1  0  0  0  0
 32 33  1  0  0  0  0
 32 37  1  0  0  0  0
 32 38  1  0  0  0  0
 33 34  1  0  0  0  0
 34 35  1  0  0  0  0
 34 36  1  0  0  0  0
 39 40  1  0  0  0  0
 39 41  1  0  0  0  0
 51 52  2  0  0  0  0
 51 53  1  0  0  0  0
 53 54  2  0  0  0  0
 53 59  1  0  0  0  0
 54 55  1  0  0  0  0
 54 62  1  0  0  0  0
 55 56  2  0  0  0  0
 55 61  1  0  0  0  0
 56 57  1  0  0  0  0
 56 58  1  0  0  0  0
 58 59  2  0  0  0  0
 58 60  1  0  0  0  0
M  CHG  1  28   1
M  END
>  <MODEL>
       1

$$$$
