output/tmp_first_model_13_43.pdb
 OpenBabel07232600343D

 62 67  0  0  1  0  0  0  0  0999 V2000
    8.5020   -5.7350   25.4930 C   0  0  0  0  0  0  0  0  0  0  0  0
    7.7980   -6.3630   24.2940 C   0  0  0  0  0  0  0  0  0  0  0  0
    6.3640   -6.5900   24.4770 N   0  0  0  0  0  0  0  0  0  0  0  0
    5.9630   -7.6210   25.2360 N   0  0  0  0  0  0  0  0  0  0  0  0
    4.6410   -7.5490   25.2690 C   0  0  0  0  0  0  0  0  0  0  0  0
    4.1680   -6.4540   24.5280 C   0  0  0  0  0  0  0  0  0  0  0  0
    5.3050   -5.8730   24.0130 C   0  0  0  0  0  0  0  0  0  0  0  0
    5.5040   -4.6900   23.1330 C   0  0  0  0  0  0  0  0  0  0  0  0
    6.2230   -3.6220   23.8140 N   0  0  0  0  0  0  0  0  0  0  0  0
    7.4350   -3.0830   23.2410 C   0  0  0  0  0  0  0  0  0  0  0  0
    7.2900   -1.5940   22.8800 C   0  0  2  0  0  0  0  0  0  0  0  0
    6.3040   -1.4430   21.7030 C   0  0  0  0  0  0  0  0  0  0  0  0
    5.2240   -1.9890   21.5640 O   0  0  0  0  0  0  0  0  0  0  0  0
    6.8560   -0.5710   20.7980 N   0  0  0  0  0  0  0  0  0  0  0  0
    6.0990    0.0200   19.7600 C   0  0  0  0  0  0  0  0  0  0  0  0
    6.4570   -0.2260   18.4600 C   0  0  0  0  0  0  0  0  0  0  0  0
    5.8020    0.2490   17.3730 N   0  0  0  0  0  0  0  0  0  0  0  0
    4.7670    1.0220   17.6040 C   0  0  0  0  0  0  0  0  0  0  0  0
    4.3090    1.3850   18.9030 C   0  0  0  0  0  0  0  0  0  0  0  0
    3.1950    2.2470   19.0630 C   0  0  0  0  0  0  0  0  0  0  0  0
    2.7980    2.6370   20.3090 C   0  0  0  0  0  0  0  0  0  0  0  0
    3.5010    2.1860   21.4490 C   0  0  0  0  0  0  0  0  0  0  0  0
    4.5760    1.3380   21.3280 C   0  0  0  0  0  0  0  0  0  0  0  0
    4.9990    0.8990   20.0360 C   0  0  0  0  0  0  0  0  0  0  0  0
    5.1010    1.0090   22.2260 H   0  0  0  0  0  0  0  0  0  0  0  0
    3.1810    2.5230   22.4300 H   0  0  0  0  0  0  0  0  0  0  0  0
    1.9530    3.3090   20.4270 H   0  0  0  0  0  0  0  0  0  0  0  0
    2.6870    2.6000   18.1680 H   0  0  0  0  0  0  0  0  0  0  0  0
    4.2310    1.4080   16.7370 H   0  0  0  0  0  0  0  0  0  0  0  0
    7.3140   -0.8690   18.2710 H   0  0  0  0  0  0  0  0  0  0  0  0
    8.1860   -0.1140   21.1430 C   0  0  0  0  0  0  0  0  0  0  0  0
    8.6160   -0.9930   22.3340 C   0  0  2  0  0  0  0  0  0  0  0  0
    9.6950   -2.0190   21.9510 C   0  0  0  0  0  0  0  0  0  0  0  0
    9.4280   -2.5560   21.0300 H   0  0  0  0  0  0  0  0  0  0  0  0
   10.6590   -1.5230   21.8160 H   0  0  0  0  0  0  0  0  0  0  0  0
    9.8530   -2.7440   22.7520 H   0  0  0  0  0  0  0  0  0  0  0  0
    9.0530   -0.3730   23.1230 H   0  0  0  0  0  0  0  0  0  0  0  0
    8.1720    0.9550   21.4040 H   0  0  0  0  0  0  0  0  0  0  0  0
    8.8650   -0.2340   20.2980 H   0  0  0  0  0  0  0  0  0  0  0  0
    6.7700   -0.8660   24.1190 C   0  0  0  0  0  0  0  0  0  0  0  0
    7.0040    0.4990   24.3340 C   0  0  0  0  0  0  0  0  0  0  0  0
    6.5250    1.1040   25.4830 C   0  0  0  0  0  0  0  0  0  0  0  0
    6.7690    2.4110   25.6860 F   0  0  0  0  0  0  0  0  0  0  0  0
    5.8080    0.4140   26.4540 C   0  0  0  0  0  0  0  0  0  0  0  0
    5.5540   -0.9240   26.2310 C   0  0  0  0  0  0  0  0  0  0  0  0
    6.0070   -1.5520   25.0700 C   0  0  0  0  0  0  0  0  0  0  0  0
    5.5670   -2.9580   24.8160 C   0  0  0  0  0  0  0  0  0  0  0  0
    4.6390   -3.4430   25.4530 O   0  0  0  0  0  0  0  0  0  0  0  0
    4.9900   -1.5170   26.9440 H   0  0  0  0  0  0  0  0  0  0  0  0
    5.4480    0.9220   27.3420 H   0  0  0  0  0  0  0  0  0  0  0  0
    7.5770    1.1030   23.6400 H   0  0  0  0  0  0  0  0  0  0  0  0
    8.2750   -3.1890   23.9460 H   0  0  0  0  0  0  0  0  0  0  0  0
    7.6670   -3.6470   22.3370 H   0  0  0  0  0  0  0  0  0  0  0  0
    6.0680   -4.9630   22.2330 H   0  0  0  0  0  0  0  0  0  0  0  0
    4.5560   -4.2850   22.7720 H   0  0  0  0  0  0  0  0  0  0  0  0
    3.1600   -6.0640   24.4810 H   0  0  0  0  0  0  0  0  0  0  0  0
    4.0710   -8.2960   25.8090 H   0  0  0  0  0  0  0  0  0  0  0  0
    8.2520   -7.3360   24.0890 H   0  0  0  0  0  0  0  0  0  0  0  0
    7.9510   -5.7330   23.4130 H   0  0  0  0  0  0  0  0  0  0  0  0
    8.4340   -6.3940   26.3630 H   0  0  0  0  0  0  0  0  0  0  0  0
    8.0980   -4.7500   25.7590 H   0  0  0  0  0  0  0  0  0  0  0  0
    9.5560   -5.6120   25.2210 H   0  0  0  0  0  0  0  0  0  0  0  0
  1  2  1  0  0  0  0
  1 60  1  0  0  0  0
  1 61  1  0  0  0  0
  1 62  1  0  0  0  0
  2  3  1  0  0  0  0
  2 58  1  0  0  0  0
  2 59  1  0  0  0  0
  3  4  1  0  0  0  0
  3  7  1  0  0  0  0
  4  5  2  0  0  0  0
  5  6  1  0  0  0  0
  5 57  1  0  0  0  0
  6  7  2  0  0  0  0
  6 56  1  0  0  0  0
  7  8  1  0  0  0  0
  8  9  1  0  0  0  0
  8 54  1  0  0  0  0
  8 55  1  0  0  0  0
  9 10  1  0  0  0  0
  9 47  1  0  0  0  0
 10 11  1  0  0  0  0
 10 52  1  0  0  0  0
 10 53  1  0  0  0  0
 11 12  1  6  0  0  0
 11 32  1  0  0  0  0
 11 40  1  0  0  0  0
 12 13  2  0  0  0  0
 12 14  1  0  0  0  0
 14 15  1  0  0  0  0
 14 31  1  0  0  0  0
 15 16  2  0  0  0  0
 15 24  1  0  0  0  0
 16 17  1  0  0  0  0
 16 30  1  0  0  0  0
 17 18  2  0  0  0  0
 18 19  1  0  0  0  0
 18 29  1  0  0  0  0
 19 20  2  0  0  0  0
 19 24  1  0  0  0  0
 20 21  1  0  0  0  0
 20 28  1  0  0  0  0
 21 22  2  0  0  0  0
 21 27  1  0  0  0  0
 22 23  1  0  0  0  0
 22 26  1  0  0  0  0
 23 24  2  0  0  0  0
 23 25  1  0  0  0  0
 31 32  1  0  0  0  0
 31 38  1  0  0  0  0
 31 39  1  0  0  0  0
 32 33  1  0  0  0  0
 32 37  1  1  0  0  0
 33 34  1  0  0  0  0
 33 35  1  0  0  0  0
 33 36  1  0  0  0  0
 40 41  2  0  0  0  0
 40 46  1  0  0  0  0
 41 42  1  0  0  0  0
 41 51  1  0  0  0  0
 42 43  1  0  0  0  0
 42 44  2  0  0  0  0
 44 45  1  0  0  0  0
 44 50  1  0  0  0  0
 45 46  2  0  0  0  0
 45 49  1  0  0  0  0
 46 47  1  0  0  0  0
 47 48  2  0  0  0  0
M  END
>  <MODEL>
       1

$$$$
