output/tmp_first_model_6_94.pdb
 OpenBabel07222621163D

 65 69  0  0  0  0  0  0  0  0999 V2000
   13.6240   -0.0180   22.6100 C   0  0  0  0  0  0  0  0  0  0  0  0
   12.6350    0.6740   23.5640 C   0  0  0  0  0  0  0  0  0  0  0  0
   11.1960    0.2630   23.2780 C   0  0  0  0  0  0  0  0  0  0  0  0
   10.6070    0.5260   22.2700 O   0  0  0  0  0  0  0  0  0  0  0  0
   10.5480   -0.6550   24.3340 N   0  3  0  0  0  0  0  0  0  0  0  0
   10.9950   -2.1310   24.1370 C   0  0  0  0  0  0  0  0  0  0  0  0
   10.3330   -2.6990   22.8860 C   0  0  0  0  0  0  0  0  0  0  0  0
    8.8200   -2.7770   23.0780 C   0  0  0  0  0  0  0  0  0  0  0  0
    8.2260   -1.4900   23.6220 C   0  0  0  0  0  0  0  0  0  0  0  0
    6.8380   -1.2380   23.5780 C   0  0  0  0  0  0  0  0  0  0  0  0
    5.9660   -2.0030   22.7470 N   0  0  0  0  0  0  0  0  0  0  0  0
    5.0170   -2.8690   23.4520 C   0  0  0  0  0  0  0  0  0  0  0  0
    5.7400   -4.0680   24.0230 C   0  0  0  0  0  0  0  0  0  0  0  0
    6.2480   -4.0870   25.3240 C   0  0  0  0  0  0  0  0  0  0  0  0
    7.0160   -5.1630   25.7610 C   0  0  0  0  0  0  0  0  0  0  0  0
    7.2660   -6.2410   24.9150 C   0  0  0  0  0  0  0  0  0  0  0  0
    6.7560   -6.2110   23.6230 C   0  0  0  0  0  0  0  0  0  0  0  0
    7.0800   -7.5380   22.5420 Cl  0  0  0  0  0  0  0  0  0  0  0  0
    6.0280   -5.1230   23.1620 C   0  0  0  0  0  0  0  0  0  0  0  0
    5.7260   -5.0610   22.1200 H   0  0  0  0  0  0  0  0  0  0  0  0
    7.8780   -7.0790   25.2350 H   0  0  0  0  0  0  0  0  0  0  0  0
    7.4660   -5.1520   26.7530 H   0  0  0  0  0  0  0  0  0  0  0  0
    6.0880   -3.2330   25.9810 H   0  0  0  0  0  0  0  0  0  0  0  0
    4.5540   -2.2990   24.2670 H   0  0  0  0  0  0  0  0  0  0  0  0
    4.2470   -3.1710   22.7360 H   0  0  0  0  0  0  0  0  0  0  0  0
    5.8950   -1.8660   21.3760 C   0  0  0  0  0  0  0  0  0  0  0  0
    5.1900   -2.5910   20.6910 O   0  0  0  0  0  0  0  0  0  0  0  0
    6.7410   -0.7400   20.7590 C   0  0  0  0  0  0  0  0  0  0  0  0
    6.0440   -0.0240   19.6400 C   0  0  0  0  0  0  0  0  0  0  0  0
    6.3820   -0.2570   18.3350 C   0  0  0  0  0  0  0  0  0  0  0  0
    5.7520    0.2750   17.2530 N   0  0  0  0  0  0  0  0  0  0  0  0
    4.7430    1.0750   17.4950 C   0  0  0  0  0  0  0  0  0  0  0  0
    4.2890    1.4190   18.7980 C   0  0  0  0  0  0  0  0  0  0  0  0
    3.1860    2.2850   18.9990 C   0  0  0  0  0  0  0  0  0  0  0  0
    2.7850    2.6170   20.2630 C   0  0  0  0  0  0  0  0  0  0  0  0
    3.4890    2.1160   21.3840 C   0  0  0  0  0  0  0  0  0  0  0  0
    4.5650    1.2770   21.2180 C   0  0  0  0  0  0  0  0  0  0  0  0
    4.9750    0.8820   19.9120 C   0  0  0  0  0  0  0  0  0  0  0  0
    5.1120    0.9320   22.0950 H   0  0  0  0  0  0  0  0  0  0  0  0
    3.1730    2.4030   22.3840 H   0  0  0  0  0  0  0  0  0  0  0  0
    1.9340    3.2770   20.4140 H   0  0  0  0  0  0  0  0  0  0  0  0
    2.6780    2.6770   18.1210 H   0  0  0  0  0  0  0  0  0  0  0  0
    4.2240    1.4920   16.6310 H   0  0  0  0  0  0  0  0  0  0  0  0
    7.2250   -0.9100   18.1040 H   0  0  0  0  0  0  0  0  0  0  0  0
    7.0380   -0.0200   21.5280 H   0  0  0  0  0  0  0  0  0  0  0  0
    7.6610   -1.2100   20.3900 H   0  0  0  0  0  0  0  0  0  0  0  0
    6.2470   -0.2580   24.3710 C   0  0  0  0  0  0  0  0  0  0  0  0
    7.0300    0.4720   25.2550 C   0  0  0  0  0  0  0  0  0  0  0  0
    8.4010    0.2500   25.2820 C   0  0  0  0  0  0  0  0  0  0  0  0
    9.0130   -0.6280   24.3940 C   0  0  0  0  0  0  0  0  0  0  0  0
    8.9860    0.8050   25.9910 H   0  0  0  0  0  0  0  0  0  0  0  0
    6.5980    1.2300   25.9040 H   0  0  0  0  0  0  0  0  0  0  0  0
    5.1780   -0.0710   24.2560 H   0  0  0  0  0  0  0  0  0  0  0  0
    8.3090   -3.0690   22.1570 H   0  0  0  0  0  0  0  0  0  0  0  0
    8.6140   -3.5520   23.8270 H   0  0  0  0  0  0  0  0  0  0  0  0
   10.5780   -2.0880   22.0080 H   0  0  0  0  0  0  0  0  0  0  0  0
   10.7480   -3.6930   22.7440 H   0  0  0  0  0  0  0  0  0  0  0  0
   10.6530   -2.6730   25.0220 H   0  0  0  0  0  0  0  0  0  0  0  0
   12.0860   -2.1650   24.1080 H   0  0  0  0  0  0  0  0  0  0  0  0
   10.8780   -0.3350   25.2650 H   0  0  0  0  0  0  0  0  0  0  0  0
   12.9070    0.4640   24.6040 H   0  0  0  0  0  0  0  0  0  0  0  0
   12.7030    1.7520   23.3990 H   0  0  0  0  0  0  0  0  0  0  0  0
   13.1040   -0.3610   21.7120 H   0  0  0  0  0  0  0  0  0  0  0  0
   14.4160    0.6560   22.2780 H   0  0  0  0  0  0  0  0  0  0  0  0
   14.0870   -0.8960   23.0660 H   0  0  0  0  0  0  0  0  0  0  0  0
  1  2  1  0  0  0  0
  1 63  1  0  0  0  0
  1 64  1  0  0  0  0
  1 65  1  0  0  0  0
  2  3  1  0  0  0  0
  2 61  1  0  0  0  0
  2 62  1  0  0  0  0
  3  4  2  0  0  0  0
  3  5  1  0  0  0  0
  5  6  1  0  0  0  0
  5 50  1  0  0  0  0
  5 60  1  0  0  0  0
  6  7  1  0  0  0  0
  6 58  1  0  0  0  0
  6 59  1  0  0  0  0
  7  8  1  0  0  0  0
  7 56  1  0  0  0  0
  7 57  1  0  0  0  0
  8  9  1  0  0  0  0
  8 54  1  0  0  0  0
  8 55  1  0  0  0  0
  9 10  2  0  0  0  0
  9 50  1  0  0  0  0
 10 11  1  0  0  0  0
 10 47  1  0  0  0  0
 11 12  1  0  0  0  0
 11 26  1  0  0  0  0
 12 13  1  0  0  0  0
 12 24  1  0  0  0  0
 12 25  1  0  0  0  0
 13 14  2  0  0  0  0
 13 19  1  0  0  0  0
 14 15  1  0  0  0  0
 14 23  1  0  0  0  0
 15 16  2  0  0  0  0
 15 22  1  0  0  0  0
 16 17  1  0  0  0  0
 16 21  1  0  0  0  0
 17 18  1  0  0  0  0
 17 19  2  0  0  0  0
 19 20  1  0  0  0  0
 26 27  2  0  0  0  0
 26 28  1  0  0  0  0
 28 29  1  0  0  0  0
 28 45  1  0  0  0  0
 28 46  1  0  0  0  0
 29 30  2  0  0  0  0
 29 38  1  0  0  0  0
 30 31  1  0  0  0  0
 30 44  1  0  0  0  0
 31 32  2  0  0  0  0
 32 33  1  0  0  0  0
 32 43  1  0  0  0  0
 33 34  2  0  0  0  0
 33 38  1  0  0  0  0
 34 35  1  0  0  0  0
 34 42  1  0  0  0  0
 35 36  2  0  0  0  0
 35 41  1  0  0  0  0
 36 37  1  0  0  0  0
 36 40  1  0  0  0  0
 37 38  2  0  0  0  0
 37 39  1  0  0  0  0
 47 48  2  0  0  0  0
 47 53  1  0  0  0  0
 48 49  1  0  0  0  0
 48 52  1  0  0  0  0
 49 50  2  0  0  0  0
 49 51  1  0  0  0  0
M  CHG  1   5   1
M  END
>  <MODEL>
       1

$$$$
