output/tmp_first_model_11_4.pdb
 OpenBabel07222623443D

 41 44  0  0  1  0  0  0  0  0999 V2000
    9.0780    2.1750   23.9930 C   0  0  0  0  0  0  0  0  0  0  0  0
    9.7310    1.2350   22.9760 C   0  0  1  0  0  0  0  0  0  0  0  0
   10.9850    0.6510   23.5460 C   0  0  0  0  0  0  0  0  0  0  0  0
   12.2980    1.2400   23.5960 C   0  0  0  0  0  0  0  0  0  0  0  0
   13.2060    0.3790   24.1420 C   0  0  0  0  0  0  0  0  0  0  0  0
   12.4690   -1.0920   24.6300 S   0  0  0  0  0  0  0  0  0  0  0  0
   10.9190   -0.5770   24.1090 C   0  0  0  0  0  0  0  0  0  0  0  0
    9.6470   -1.3510   24.2750 C   0  0  0  0  0  0  0  0  0  0  0  0
    8.8050   -1.1920   23.0090 C   0  0  0  0  0  0  0  0  0  0  0  0
    8.7940    0.1880   22.5110 N   0  0  0  0  0  0  0  0  0  0  0  0
    7.9530    0.5870   21.5010 C   0  0  0  0  0  0  0  0  0  0  0  0
    7.9930    1.7290   21.0680 O   0  0  0  0  0  0  0  0  0  0  0  0
    6.9660   -0.4480   20.9190 C   0  0  0  0  0  0  0  0  0  0  0  0
    6.1310    0.0940   19.7840 C   0  0  0  0  0  0  0  0  0  0  0  0
    6.4390   -0.2080   18.4850 C   0  0  0  0  0  0  0  0  0  0  0  0
    5.7680    0.2400   17.3910 N   0  0  0  0  0  0  0  0  0  0  0  0
    4.7420    1.0230   17.5960 C   0  0  0  0  0  0  0  0  0  0  0  0
    4.2910    1.4120   18.8820 C   0  0  0  0  0  0  0  0  0  0  0  0
    3.1690    2.2600   19.0550 C   0  0  0  0  0  0  0  0  0  0  0  0
    2.7670    2.6340   20.3060 C   0  0  0  0  0  0  0  0  0  0  0  0
    3.4710    2.1680   21.4400 C   0  0  0  0  0  0  0  0  0  0  0  0
    4.5620    1.3460   21.2980 C   0  0  0  0  0  0  0  0  0  0  0  0
    5.0040    0.9430   20.0110 C   0  0  0  0  0  0  0  0  0  0  0  0
    5.1030    0.9950   22.1720 H   0  0  0  0  0  0  0  0  0  0  0  0
    3.1460    2.4730   22.4300 H   0  0  0  0  0  0  0  0  0  0  0  0
    1.9220    3.3060   20.4280 H   0  0  0  0  0  0  0  0  0  0  0  0
    2.6660    2.6230   18.1630 H   0  0  0  0  0  0  0  0  0  0  0  0
    4.2140    1.3830   16.7110 H   0  0  0  0  0  0  0  0  0  0  0  0
    7.2790   -0.8590   18.2430 H   0  0  0  0  0  0  0  0  0  0  0  0
    6.3240   -0.8400   21.7210 H   0  0  0  0  0  0  0  0  0  0  0  0
    7.5470   -1.3080   20.5550 H   0  0  0  0  0  0  0  0  0  0  0  0
    9.1990   -1.8710   22.2350 H   0  0  0  0  0  0  0  0  0  0  0  0
    7.7770   -1.4890   23.2300 H   0  0  0  0  0  0  0  0  0  0  0  0
    9.8420   -2.4140   24.4420 H   0  0  0  0  0  0  0  0  0  0  0  0
    9.0990   -0.9750   25.1560 H   0  0  0  0  0  0  0  0  0  0  0  0
   14.2790    0.4340   24.2250 H   0  0  0  0  0  0  0  0  0  0  0  0
   12.5430    2.2250   23.2050 H   0  0  0  0  0  0  0  0  0  0  0  0
    9.9790    1.8000   22.0710 H   0  0  0  0  0  0  0  0  0  0  0  0
    8.7780    1.6050   24.8810 H   0  0  0  0  0  0  0  0  0  0  0  0
    9.8340    2.9080   24.2940 H   0  0  0  0  0  0  0  0  0  0  0  0
    8.2170    2.6920   23.5590 H   0  0  0  0  0  0  0  0  0  0  0  0
  1  2  1  0  0  0  0
  1 39  1  0  0  0  0
  1 40  1  0  0  0  0
  1 41  1  0  0  0  0
  2  3  1  0  0  0  0
  2 10  1  0  0  0  0
  2 38  1  6  0  0  0
  3  4  1  0  0  0  0
  3  7  2  0  0  0  0
  4  5  2  0  0  0  0
  4 37  1  0  0  0  0
  5  6  1  0  0  0  0
  5 36  1  0  0  0  0
  6  7  1  0  0  0  0
  7  8  1  0  0  0  0
  8  9  1  0  0  0  0
  8 34  1  0  0  0  0
  8 35  1  0  0  0  0
  9 10  1  0  0  0  0
  9 32  1  0  0  0  0
  9 33  1  0  0  0  0
 10 11  1  0  0  0  0
 11 12  2  0  0  0  0
 11 13  1  0  0  0  0
 13 14  1  0  0  0  0
 13 30  1  0  0  0  0
 13 31  1  0  0  0  0
 14 15  2  0  0  0  0
 14 23  1  0  0  0  0
 15 16  1  0  0  0  0
 15 29  1  0  0  0  0
 16 17  2  0  0  0  0
 17 18  1  0  0  0  0
 17 28  1  0  0  0  0
 18 19  2  0  0  0  0
 18 23  1  0  0  0  0
 19 20  1  0  0  0  0
 19 27  1  0  0  0  0
 20 21  2  0  0  0  0
 20 26  1  0  0  0  0
 21 22  1  0  0  0  0
 21 25  1  0  0  0  0
 22 23  2  0  0  0  0
 22 24  1  0  0  0  0
M  END
>  <MODEL>
       1

$$$$
