output/tmp_first_model_18_46.pdb
 OpenBabel07232602473D

 64 68  0  0  1  0  0  0  0  0999 V2000
   13.0190   -1.8130   24.1580 C   0  0  0  0  0  0  0  0  0  0  0  0
   12.5370   -1.2720   22.8190 C   0  0  0  0  0  0  0  0  0  0  0  0
   11.0250   -0.3100   22.9460 S   0  0  0  0  0  0  0  0  0  0  0  0
   10.9850    0.6180   21.8290 O   0  0  0  0  0  0  0  0  0  0  0  0
   10.9020    0.1830   24.3130 O   0  0  0  0  0  0  0  0  0  0  0  0
    9.8270   -1.5050   22.7250 N   0  0  0  0  0  0  0  0  0  0  0  0
    8.4860   -0.9630   22.4280 C   0  0  1  0  0  0  0  0  0  0  0  0
    8.2940   -0.4550   20.9970 C   0  0  0  0  0  0  0  0  0  0  0  0
    6.8490   -0.5120   20.8710 N   0  0  0  0  0  0  0  0  0  0  0  0
    6.1290    0.0640   19.8010 C   0  0  0  0  0  0  0  0  0  0  0  0
    6.4830   -0.2130   18.5040 C   0  0  0  0  0  0  0  0  0  0  0  0
    5.8250    0.2420   17.4130 N   0  0  0  0  0  0  0  0  0  0  0  0
    4.7900    1.0190   17.6140 C   0  0  0  0  0  0  0  0  0  0  0  0
    4.3290    1.4090   18.9040 C   0  0  0  0  0  0  0  0  0  0  0  0
    3.2070    2.2670   19.0520 C   0  0  0  0  0  0  0  0  0  0  0  0
    2.7940    2.6540   20.2980 C   0  0  0  0  0  0  0  0  0  0  0  0
    3.4850    2.2030   21.4450 C   0  0  0  0  0  0  0  0  0  0  0  0
    4.5700    1.3680   21.3260 C   0  0  0  0  0  0  0  0  0  0  0  0
    5.0160    0.9360   20.0420 C   0  0  0  0  0  0  0  0  0  0  0  0
    5.0960    1.0300   22.2140 H   0  0  0  0  0  0  0  0  0  0  0  0
    3.1510    2.5250   22.4280 H   0  0  0  0  0  0  0  0  0  0  0  0
    1.9390    3.3160   20.4090 H   0  0  0  0  0  0  0  0  0  0  0  0
    2.7040    2.6140   18.1530 H   0  0  0  0  0  0  0  0  0  0  0  0
    4.2560    1.3760   16.7340 H   0  0  0  0  0  0  0  0  0  0  0  0
    7.3300   -0.8690   18.3070 H   0  0  0  0  0  0  0  0  0  0  0  0
    6.2800   -1.4870   21.6710 C   0  0  0  0  0  0  0  0  0  0  0  0
    5.1570   -1.9180   21.5330 O   0  0  0  0  0  0  0  0  0  0  0  0
    7.3410   -1.9700   22.6800 C   0  0  1  0  0  0  0  0  0  0  0  0
    7.7200   -3.4170   22.2780 C   0  0  0  0  0  0  0  0  0  0  0  0
    6.6350   -4.3350   22.6080 N   0  0  0  0  0  0  0  0  0  0  0  0
    6.1060   -5.2700   21.6270 C   0  0  0  0  0  0  0  0  0  0  0  0
    6.9150   -6.5640   21.6070 C   0  0  0  0  0  0  0  0  0  0  0  0
    7.7020   -6.8050   20.7100 O   0  0  0  0  0  0  0  0  0  0  0  0
    6.6990   -7.3880   22.6600 N   0  0  0  0  0  0  0  0  0  0  0  0
    7.6410   -8.4480   22.9320 C   0  0  0  0  0  0  0  0  0  0  0  0
    8.4760   -8.0930   23.5530 H   0  0  0  0  0  0  0  0  0  0  0  0
    8.0500   -8.8050   21.9910 H   0  0  0  0  0  0  0  0  0  0  0  0
    7.1270   -9.2740   23.4260 H   0  0  0  0  0  0  0  0  0  0  0  0
    6.1670   -6.9940   23.4300 H   0  0  0  0  0  0  0  0  0  0  0  0
    6.1530   -4.8210   20.6310 H   0  0  0  0  0  0  0  0  0  0  0  0
    5.0580   -5.4790   21.8780 H   0  0  0  0  0  0  0  0  0  0  0  0
    6.1660   -4.4040   23.8790 C   0  0  0  0  0  0  0  0  0  0  0  0
    5.5600   -5.3920   24.3090 O   0  0  0  0  0  0  0  0  0  0  0  0
    6.3660   -3.1760   24.6960 C   0  0  0  0  0  0  0  0  0  0  0  0
    5.9770   -3.2250   26.0340 C   0  0  0  0  0  0  0  0  0  0  0  0
    5.9970   -2.0840   26.8110 C   0  0  0  0  0  0  0  0  0  0  0  0
    6.4170   -0.8930   26.2220 C   0  0  0  0  0  0  0  0  0  0  0  0
    6.4050    0.5750   27.1620 Cl  0  0  0  0  0  0  0  0  0  0  0  0
    6.8390   -0.8350   24.9060 C   0  0  0  0  0  0  0  0  0  0  0  0
    6.8530   -1.9940   24.1180 C   0  0  0  0  0  0  0  0  0  0  0  0
    7.1450    0.1260   24.5150 H   0  0  0  0  0  0  0  0  0  0  0  0
    5.6810   -2.0980   27.8490 H   0  0  0  0  0  0  0  0  0  0  0  0
    5.6380   -4.1700   26.4430 H   0  0  0  0  0  0  0  0  0  0  0  0
    7.8900   -3.4570   21.2080 H   0  0  0  0  0  0  0  0  0  0  0  0
    8.6500   -3.7210   22.7720 H   0  0  0  0  0  0  0  0  0  0  0  0
    8.6650    0.5650   20.8720 H   0  0  0  0  0  0  0  0  0  0  0  0
    8.8140   -1.1030   20.2790 H   0  0  0  0  0  0  0  0  0  0  0  0
    8.3110   -0.0990   23.0700 H   0  0  0  0  0  0  0  0  0  0  0  0
    9.7820   -2.0160   23.6090 H   0  0  0  0  0  0  0  0  0  0  0  0
   12.3340   -2.0640   22.0880 H   0  0  0  0  0  0  0  0  0  0  0  0
   13.2760   -0.5810   22.4010 H   0  0  0  0  0  0  0  0  0  0  0  0
   12.3770   -2.6190   24.5330 H   0  0  0  0  0  0  0  0  0  0  0  0
   13.0470   -1.0080   24.9020 H   0  0  0  0  0  0  0  0  0  0  0  0
   14.0260   -2.2220   24.0200 H   0  0  0  0  0  0  0  0  0  0  0  0
  1  2  1  0  0  0  0
  1 62  1  0  0  0  0
  1 63  1  0  0  0  0
  1 64  1  0  0  0  0
  2  3  1  0  0  0  0
  2 60  1  0  0  0  0
  2 61  1  0  0  0  0
  3  4  2  0  0  0  0
  3  5  2  0  0  0  0
  3  6  1  0  0  0  0
  6  7  1  0  0  0  0
  6 59  1  0  0  0  0
  7  8  1  0  0  0  0
  7 28  1  0  0  0  0
  7 58  1  1  0  0  0
  8  9  1  0  0  0  0
  8 56  1  0  0  0  0
  8 57  1  0  0  0  0
  9 10  1  0  0  0  0
  9 26  1  0  0  0  0
 10 11  2  0  0  0  0
 10 19  1  0  0  0  0
 11 12  1  0  0  0  0
 11 25  1  0  0  0  0
 12 13  2  0  0  0  0
 13 14  1  0  0  0  0
 13 24  1  0  0  0  0
 14 15  2  0  0  0  0
 14 19  1  0  0  0  0
 15 16  1  0  0  0  0
 15 23  1  0  0  0  0
 16 17  2  0  0  0  0
 16 22  1  0  0  0  0
 17 18  1  0  0  0  0
 17 21  1  0  0  0  0
 18 19  2  0  0  0  0
 18 20  1  0  0  0  0
 26 27  2  0  0  0  0
 28 26  1  6  0  0  0
 28 29  1  0  0  0  0
 28 50  1  0  0  0  0
 29 30  1  0  0  0  0
 29 54  1  0  0  0  0
 29 55  1  0  0  0  0
 30 31  1  0  0  0  0
 30 42  1  0  0  0  0
 31 32  1  0  0  0  0
 31 40  1  0  0  0  0
 31 41  1  0  0  0  0
 32 33  2  0  0  0  0
 32 34  1  0  0  0  0
 34 35  1  0  0  0  0
 34 39  1  0  0  0  0
 35 36  1  0  0  0  0
 35 37  1  0  0  0  0
 35 38  1  0  0  0  0
 42 43  2  0  0  0  0
 42 44  1  0  0  0  0
 44 45  2  0  0  0  0
 44 50  1  0  0  0  0
 45 46  1  0  0  0  0
 45 53  1  0  0  0  0
 46 47  2  0  0  0  0
 46 52  1  0  0  0  0
 47 48  1  0  0  0  0
 47 49  1  0  0  0  0
 49 50  2  0  0  0  0
 49 51  1  0  0  0  0
M  END
>  <MODEL>
       1

$$$$
