output/tmp_first_model_18_58.pdb
 OpenBabel07232602473D

 57 62  0  0  1  0  0  0  0  0999 V2000
    7.3890   -2.9780   23.5570 C   0  0  0  0  0  0  0  0  0  0  0  0
    7.4850   -2.3560   22.1820 C   0  0  1  0  0  0  0  0  0  0  0  0
    6.2760   -1.5500   21.6820 C   0  0  0  0  0  0  0  0  0  0  0  0
    6.8480   -0.4900   20.8380 N   0  0  0  0  0  0  0  0  0  0  0  0
    6.1360    0.1070   19.7710 C   0  0  0  0  0  0  0  0  0  0  0  0
    6.4550   -0.1990   18.4710 C   0  0  0  0  0  0  0  0  0  0  0  0
    5.7740    0.2420   17.3910 N   0  0  0  0  0  0  0  0  0  0  0  0
    4.7450    1.0270   17.5900 C   0  0  0  0  0  0  0  0  0  0  0  0
    4.2980    1.4220   18.8820 C   0  0  0  0  0  0  0  0  0  0  0  0
    3.1770    2.2780   19.0540 C   0  0  0  0  0  0  0  0  0  0  0  0
    2.7770    2.6490   20.3100 C   0  0  0  0  0  0  0  0  0  0  0  0
    3.4810    2.1830   21.4430 C   0  0  0  0  0  0  0  0  0  0  0  0
    4.5700    1.3560   21.2990 C   0  0  0  0  0  0  0  0  0  0  0  0
    5.0050    0.9480   20.0120 C   0  0  0  0  0  0  0  0  0  0  0  0
    5.1230    1.0220   22.1710 H   0  0  0  0  0  0  0  0  0  0  0  0
    3.1660    2.4910   22.4370 H   0  0  0  0  0  0  0  0  0  0  0  0
    1.9260    3.3100   20.4430 H   0  0  0  0  0  0  0  0  0  0  0  0
    2.6570    2.6420   18.1690 H   0  0  0  0  0  0  0  0  0  0  0  0
    4.2110    1.3830   16.7050 H   0  0  0  0  0  0  0  0  0  0  0  0
    7.2930   -0.8540   18.2470 H   0  0  0  0  0  0  0  0  0  0  0  0
    8.2220   -0.3250   20.9990 C   0  0  0  0  0  0  0  0  0  0  0  0
    8.9180    0.5500   20.5230 O   0  0  0  0  0  0  0  0  0  0  0  0
    8.6400   -1.3320   22.0060 C   0  0  1  0  0  0  0  0  0  0  0  0
    9.1720   -0.5490   23.2460 C   0  0  0  0  0  0  0  0  0  0  0  0
    9.9270   -1.2750   24.2630 N   0  0  0  0  0  0  0  0  0  0  0  0
    9.8410   -0.9220   25.6840 C   0  0  0  0  0  0  0  0  0  0  0  0
    9.0900   -1.9750   26.4540 C   0  0  0  0  0  0  0  0  0  0  0  0
    7.7960   -1.7510   26.9080 C   0  0  0  0  0  0  0  0  0  0  0  0
    7.1900   -2.7930   27.5910 C   0  0  0  0  0  0  0  0  0  0  0  0
    7.7930   -3.9610   27.8150 N   0  0  0  0  0  0  0  0  0  0  0  0
    9.0320   -4.0640   27.3360 C   0  0  0  0  0  0  0  0  0  0  0  0
    9.7090   -3.1400   26.6610 N   0  0  0  0  0  0  0  0  0  0  0  0
    9.5380   -5.0110   27.5060 H   0  0  0  0  0  0  0  0  0  0  0  0
    6.1790   -2.6920   27.9780 H   0  0  0  0  0  0  0  0  0  0  0  0
    7.3030   -0.7960   26.7420 H   0  0  0  0  0  0  0  0  0  0  0  0
   10.8650   -0.8600   26.0580 H   0  0  0  0  0  0  0  0  0  0  0  0
    9.3550    0.0560   25.7610 H   0  0  0  0  0  0  0  0  0  0  0  0
   10.9700   -2.0440   23.8330 C   0  0  0  0  0  0  0  0  0  0  0  0
   11.8210   -2.4780   24.6020 O   0  0  0  0  0  0  0  0  0  0  0  0
   11.1310   -2.2370   22.3840 C   0  0  0  0  0  0  0  0  0  0  0  0
   12.4030   -2.3040   21.8980 C   0  0  0  0  0  0  0  0  0  0  0  0
   11.9340   -2.3590   20.6160 C   0  0  0  0  0  0  0  0  0  0  0  0
   12.3960   -3.1280   19.6690 C   0  0  0  0  0  0  0  0  0  0  0  0
   11.5220   -3.9810   19.0640 F   0  0  0  0  0  0  0  0  0  0  0  0
    9.9900   -2.2460   21.2060 C   0  0  0  0  0  0  0  0  0  0  0  0
    9.9890   -2.2460   21.2050 C   0  0  0  0  0  0  0  0  0  0  0  0
    9.1260   -1.8930   20.1760 H   0  0  0  0  0  0  0  0  0  0  0  0
   13.4080   -3.4320   19.6020 H   0  0  0  0  0  0  0  0  0  0  0  0
   13.1330   -3.0410   22.2560 H   0  0  0  0  0  0  0  0  0  0  0  0
    8.2730   -0.1870   23.7740 H   0  0  0  0  0  0  0  0  0  0  0  0
    9.7080    0.3670   22.9130 H   0  0  0  0  0  0  0  0  0  0  0  0
    5.6730   -1.1460   22.5030 H   0  0  0  0  0  0  0  0  0  0  0  0
    5.6340   -2.1700   21.0790 H   0  0  0  0  0  0  0  0  0  0  0  0
    7.5800   -3.1740   21.4640 H   0  0  0  0  0  0  0  0  0  0  0  0
    6.6120   -3.7430   23.5310 H   0  0  0  0  0  0  0  0  0  0  0  0
    8.3160   -3.4620   23.8940 H   0  0  0  0  0  0  0  0  0  0  0  0
    7.1100   -2.2400   24.3160 H   0  0  0  0  0  0  0  0  0  0  0  0
  1  2  1  0  0  0  0
  1 55  1  0  0  0  0
  1 56  1  0  0  0  0
  1 57  1  0  0  0  0
  2  3  1  0  0  0  0
  2 23  1  0  0  0  0
  2 54  1  6  0  0  0
  3  4  1  0  0  0  0
  3 52  1  0  0  0  0
  3 53  1  0  0  0  0
  4  5  1  0  0  0  0
  4 21  1  0  0  0  0
  5  6  2  0  0  0  0
  5 14  1  0  0  0  0
  6  7  1  0  0  0  0
  6 20  1  0  0  0  0
  7  8  2  0  0  0  0
  8  9  1  0  0  0  0
  8 19  1  0  0  0  0
  9 10  2  0  0  0  0
  9 14  1  0  0  0  0
 10 11  1  0  0  0  0
 10 18  1  0  0  0  0
 11 12  2  0  0  0  0
 11 17  1  0  0  0  0
 12 13  1  0  0  0  0
 12 16  1  0  0  0  0
 13 14  2  0  0  0  0
 13 15  1  0  0  0  0
 21 22  2  0  0  0  0
 23 21  1  6  0  0  0
 23 24  1  0  0  0  0
 23 46  1  0  0  0  0
 24 25  1  0  0  0  0
 24 50  1  0  0  0  0
 24 51  1  0  0  0  0
 25 26  1  0  0  0  0
 25 38  1  0  0  0  0
 26 27  1  0  0  0  0
 26 36  1  0  0  0  0
 26 37  1  0  0  0  0
 27 28  2  0  0  0  0
 27 32  1  0  0  0  0
 28 29  1  0  0  0  0
 28 35  1  0  0  0  0
 29 30  2  0  0  0  0
 29 34  1  0  0  0  0
 30 31  1  0  0  0  0
 31 32  2  0  0  0  0
 31 33  1  0  0  0  0
 38 39  2  0  0  0  0
 38 40  1  0  0  0  0
 40 41  2  0  0  0  0
 40 46  1  0  0  0  0
 41 42  1  0  0  0  0
 41 49  1  0  0  0  0
 42 43  2  0  0  0  0
 42 48  1  0  0  0  0
 43 44  1  0  0  0  0
 43 45  1  0  0  0  0
 45 46  2  0  0  0  0
 45 47  1  0  0  0  0
M  END
>  <MODEL>
       1

$$$$
