output/tmp_first_model_15_92.pdb
 OpenBabel07232601353D

 47 50  0  0  1  0  0  0  0  0999 V2000
    8.2810    1.5910   20.8600 O   0  0  0  0  0  0  0  0  0  0  0  0
    7.8680    0.6560   21.5190 C   0  0  0  0  0  0  0  0  0  0  0  0
    6.9580   -0.4230   20.9160 C   0  0  0  0  0  0  0  0  0  0  0  0
    6.1140    0.0910   19.7790 C   0  0  0  0  0  0  0  0  0  0  0  0
    6.4330   -0.2060   18.4820 C   0  0  0  0  0  0  0  0  0  0  0  0
    5.7680    0.2410   17.3870 N   0  0  0  0  0  0  0  0  0  0  0  0
    4.7410    1.0250   17.5890 C   0  0  0  0  0  0  0  0  0  0  0  0
    4.2830    1.4130   18.8760 C   0  0  0  0  0  0  0  0  0  0  0  0
    3.1680    2.2680   19.0490 C   0  0  0  0  0  0  0  0  0  0  0  0
    2.7660    2.6360   20.3030 C   0  0  0  0  0  0  0  0  0  0  0  0
    3.4620    2.1660   21.4380 C   0  0  0  0  0  0  0  0  0  0  0  0
    4.5490    1.3400   21.2980 C   0  0  0  0  0  0  0  0  0  0  0  0
    4.9880    0.9370   20.0070 C   0  0  0  0  0  0  0  0  0  0  0  0
    5.0860    0.9950   22.1810 H   0  0  0  0  0  0  0  0  0  0  0  0
    3.1350    2.4650   22.4300 H   0  0  0  0  0  0  0  0  0  0  0  0
    1.9190    3.3020   20.4300 H   0  0  0  0  0  0  0  0  0  0  0  0
    2.6620    2.6340   18.1590 H   0  0  0  0  0  0  0  0  0  0  0  0
    4.2130    1.3870   16.7050 H   0  0  0  0  0  0  0  0  0  0  0  0
    7.2810   -0.8530   18.2520 H   0  0  0  0  0  0  0  0  0  0  0  0
    6.3440   -0.8560   21.7110 H   0  0  0  0  0  0  0  0  0  0  0  0
    7.6010   -1.2310   20.5430 H   0  0  0  0  0  0  0  0  0  0  0  0
    8.1890    0.5050   22.8610 N   0  0  0  0  0  0  0  0  0  0  0  0
    7.8500   -0.6380   23.6120 C   0  0  0  0  0  0  0  0  0  0  0  0
    6.8050   -0.6580   24.4580 C   0  0  0  0  0  0  0  0  0  0  0  0
    6.0480    0.5230   24.8850 C   0  0  0  0  0  0  0  0  0  0  0  0
    6.5910    1.6240   25.4400 C   0  0  0  0  0  0  0  0  0  0  0  0
    8.0120    1.7490   25.8100 C   0  0  0  0  0  0  0  0  0  0  0  0
    9.0350    1.6170   24.9650 C   0  0  0  0  0  0  0  0  0  0  0  0
    8.9710    1.6270   23.4450 C   0  0  1  0  0  0  0  0  0  0  0  0
   10.3810    1.6290   22.8740 C   0  0  0  0  0  0  0  0  0  0  0  0
   10.9300    2.7710   22.2940 C   0  0  0  0  0  0  0  0  0  0  0  0
   12.2600    2.7740   21.8760 C   0  0  0  0  0  0  0  0  0  0  0  0
   13.0460    1.6350   22.0650 C   0  0  0  0  0  0  0  0  0  0  0  0
   12.4650    0.4670   22.5520 C   0  0  0  0  0  0  0  0  0  0  0  0
   11.1400    0.4700   22.9800 C   0  0  0  0  0  0  0  0  0  0  0  0
   10.6840   -0.4070   23.4500 H   0  0  0  0  0  0  0  0  0  0  0  0
   13.0420   -0.4530   22.5630 H   0  0  0  0  0  0  0  0  0  0  0  0
   14.1130    1.6310   21.8210 H   0  0  0  0  0  0  0  0  0  0  0  0
   12.6620    3.6420   21.3560 H   0  0  0  0  0  0  0  0  0  0  0  0
   10.3110    3.6650   22.1880 H   0  0  0  0  0  0  0  0  0  0  0  0
    8.4590    2.5280   23.0920 H   0  0  0  0  0  0  0  0  0  0  0  0
   10.0500    1.5870   25.3630 H   0  0  0  0  0  0  0  0  0  0  0  0
    8.2070    1.9940   26.8590 H   0  0  0  0  0  0  0  0  0  0  0  0
    5.9540    2.4580   25.7260 H   0  0  0  0  0  0  0  0  0  0  0  0
    4.9570    0.4600   24.8320 H   0  0  0  0  0  0  0  0  0  0  0  0
    6.5180   -1.6050   24.9090 H   0  0  0  0  0  0  0  0  0  0  0  0
    8.4290   -1.5380   23.3790 H   0  0  0  0  0  0  0  0  0  0  0  0
  1  2  2  0  0  0  0
  2  3  1  0  0  0  0
  2 22  1  0  0  0  0
  3  4  1  0  0  0  0
  3 20  1  0  0  0  0
  3 21  1  0  0  0  0
  4  5  2  0  0  0  0
  4 13  1  0  0  0  0
  5  6  1  0  0  0  0
  5 19  1  0  0  0  0
  6  7  2  0  0  0  0
  7  8  1  0  0  0  0
  7 18  1  0  0  0  0
  8  9  2  0  0  0  0
  8 13  1  0  0  0  0
  9 10  1  0  0  0  0
  9 17  1  0  0  0  0
 10 11  2  0  0  0  0
 10 16  1  0  0  0  0
 11 12  1  0  0  0  0
 11 15  1  0  0  0  0
 12 13  2  0  0  0  0
 12 14  1  0  0  0  0
 22 23  1  0  0  0  0
 22 29  1  0  0  0  0
 23 24  2  0  0  0  0
 23 47  1  0  0  0  0
 24 25  1  0  0  0  0
 24 46  1  0  0  0  0
 25 26  2  0  0  0  0
 25 45  1  0  0  0  0
 26 27  1  0  0  0  0
 26 44  1  0  0  0  0
 27 28  2  0  0  0  0
 27 43  1  0  0  0  0
 28 29  1  0  0  0  0
 28 42  1  0  0  0  0
 29 30  1  0  0  0  0
 29 41  1  6  0  0  0
 30 31  2  0  0  0  0
 30 35  1  0  0  0  0
 31 32  1  0  0  0  0
 31 40  1  0  0  0  0
 32 33  2  0  0  0  0
 32 39  1  0  0  0  0
 33 34  1  0  0  0  0
 33 38  1  0  0  0  0
 34 35  2  0  0  0  0
 34 37  1  0  0  0  0
 35 36  1  0  0  0  0
M  END
>  <MODEL>
       1

$$$$
