output/tmp_first_model_13_71.pdb
 OpenBabel07232600343D

 59 64  0  0  1  0  0  0  0  0999 V2000
    9.7130   -2.0030   21.8590 C   0  0  0  0  0  0  0  0  0  0  0  0
    8.6670   -0.9890   22.3150 C   0  0  1  0  0  0  0  0  0  0  0  0
    8.2130   -0.0800   21.1460 C   0  0  0  0  0  0  0  0  0  0  0  0
    6.8620   -0.4910   20.8410 N   0  0  0  0  0  0  0  0  0  0  0  0
    6.1010    0.0610   19.7720 C   0  0  0  0  0  0  0  0  0  0  0  0
    6.4370   -0.2130   18.4700 C   0  0  0  0  0  0  0  0  0  0  0  0
    5.7680    0.2420   17.3790 N   0  0  0  0  0  0  0  0  0  0  0  0
    4.7370    1.0290   17.5810 C   0  0  0  0  0  0  0  0  0  0  0  0
    4.2900    1.4230   18.8750 C   0  0  0  0  0  0  0  0  0  0  0  0
    3.1700    2.2820   19.0520 C   0  0  0  0  0  0  0  0  0  0  0  0
    2.7790    2.6560   20.3070 C   0  0  0  0  0  0  0  0  0  0  0  0
    3.4870    2.1950   21.4380 C   0  0  0  0  0  0  0  0  0  0  0  0
    4.5700    1.3660   21.2970 C   0  0  0  0  0  0  0  0  0  0  0  0
    4.9940    0.9420   20.0080 C   0  0  0  0  0  0  0  0  0  0  0  0
    5.1150    1.0150   22.1730 H   0  0  0  0  0  0  0  0  0  0  0  0
    3.1730    2.4990   22.4320 H   0  0  0  0  0  0  0  0  0  0  0  0
    1.9280    3.3180   20.4480 H   0  0  0  0  0  0  0  0  0  0  0  0
    2.6420    2.6490   18.1730 H   0  0  0  0  0  0  0  0  0  0  0  0
    4.1990    1.4000   16.7010 H   0  0  0  0  0  0  0  0  0  0  0  0
    7.2780   -0.8730   18.2590 H   0  0  0  0  0  0  0  0  0  0  0  0
    6.3350   -1.3600   21.7710 C   0  0  0  0  0  0  0  0  0  0  0  0
    5.2220   -1.8410   21.7170 O   0  0  0  0  0  0  0  0  0  0  0  0
    7.3650   -1.6030   22.8900 C   0  0  1  0  0  0  0  0  0  0  0  0
    7.4700   -3.1240   23.1570 C   0  0  0  0  0  0  0  0  0  0  0  0
    6.2330   -3.6200   23.7270 N   0  0  0  0  0  0  0  0  0  0  0  0
    5.6350   -4.8390   23.2000 C   0  0  0  0  0  0  0  0  0  0  0  0
    6.0480   -5.9680   23.9690 C   0  0  0  0  0  0  0  0  0  0  0  0
    5.3100   -6.4410   24.8960 N   0  0  0  0  0  0  0  0  0  0  0  0
    6.1040   -7.3910   25.3850 C   0  0  0  0  0  0  0  0  0  0  0  0
    7.3720   -7.2540   24.8230 C   0  0  0  0  0  0  0  0  0  0  0  0
    7.3910   -6.4880   23.4740 N   0  0  0  0  0  0  0  0  0  0  0  0
    7.3910   -6.4880   23.4740 C   0  0  0  0  0  0  0  0  0  0  0  0
    7.3300   -6.3420   22.3110 H   0  0  0  0  0  0  0  0  0  0  0  0
    8.5190   -5.8260   23.5500 H   0  0  0  0  0  0  0  0  0  0  0  0
    8.6740   -7.5910   23.4320 H   0  0  0  0  0  0  0  0  0  0  0  0
    9.1470   -6.8140   23.5010 H   0  0  0  0  0  0  0  0  0  0  0  0
    5.8220   -8.0050   26.2630 H   0  0  0  0  0  0  0  0  0  0  0  0
    5.9520   -5.0630   22.1900 H   0  0  0  0  0  0  0  0  0  0  0  0
    4.5630   -4.8500   23.2960 H   0  0  0  0  0  0  0  0  0  0  0  0
    5.6960   -3.0610   24.8560 C   0  0  0  0  0  0  0  0  0  0  0  0
    4.9010   -3.6490   25.5760 O   0  0  0  0  0  0  0  0  0  0  0  0
    6.0890   -1.6330   25.1020 C   0  0  0  0  0  0  0  0  0  0  0  0
    5.5930   -0.9860   26.2410 C   0  0  0  0  0  0  0  0  0  0  0  0
    5.8150    0.3600   26.4590 C   0  0  0  0  0  0  0  0  0  0  0  0
    6.5280    1.0570   25.4930 C   0  0  0  0  0  0  0  0  0  0  0  0
    6.7260    2.3740   25.6720 F   0  0  0  0  0  0  0  0  0  0  0  0
    7.0330    0.4500   24.3580 C   0  0  0  0  0  0  0  0  0  0  0  0
    6.8610   -0.9270   24.1650 C   0  0  0  0  0  0  0  0  0  0  0  0
    7.5470    1.0700   23.6320 H   0  0  0  0  0  0  0  0  0  0  0  0
    5.4370    0.8780   27.3380 H   0  0  0  0  0  0  0  0  0  0  0  0
    5.0080   -1.5410   26.9660 H   0  0  0  0  0  0  0  0  0  0  0  0
    7.6750   -3.6460   22.2200 H   0  0  0  0  0  0  0  0  0  0  0  0
    8.3190   -3.3100   23.8360 H   0  0  0  0  0  0  0  0  0  0  0  0
    8.2550    0.9860   21.4060 H   0  0  0  0  0  0  0  0  0  0  0  0
    8.8510   -0.2090   20.2760 H   0  0  0  0  0  0  0  0  0  0  0  0
    9.1580   -0.3960   23.0930 H   0  0  0  0  0  0  0  0  0  0  0  0
   10.0970   -2.6390   22.6550 H   0  0  0  0  0  0  0  0  0  0  0  0
   10.6150   -1.4860   21.5830 H   0  0  0  0  0  0  0  0  0  0  0  0
    9.3800   -2.6180   21.0170 H   0  0  0  0  0  0  0  0  0  0  0  0
  1  2  1  0  0  0  0
  1 57  1  0  0  0  0
  1 58  1  0  0  0  0
  1 59  1  0  0  0  0
  2  3  1  0  0  0  0
  2 23  1  0  0  0  0
  2 56  1  1  0  0  0
  3  4  1  0  0  0  0
  3 54  1  0  0  0  0
  3 55  1  0  0  0  0
  4  5  1  0  0  0  0
  4 21  1  0  0  0  0
  5  6  2  0  0  0  0
  5 14  1  0  0  0  0
  6  7  1  0  0  0  0
  6 20  1  0  0  0  0
  7  8  2  0  0  0  0
  8  9  1  0  0  0  0
  8 19  1  0  0  0  0
  9 10  2  0  0  0  0
  9 14  1  0  0  0  0
 10 11  1  0  0  0  0
 10 18  1  0  0  0  0
 11 12  2  0  0  0  0
 11 17  1  0  0  0  0
 12 13  1  0  0  0  0
 12 16  1  0  0  0  0
 13 14  2  0  0  0  0
 13 15  1  0  0  0  0
 21 22  2  0  0  0  0
 23 21  1  6  0  0  0
 23 24  1  0  0  0  0
 23 48  1  0  0  0  0
 24 25  1  0  0  0  0
 24 52  1  0  0  0  0
 24 53  1  0  0  0  0
 25 26  1  0  0  0  0
 25 40  1  0  0  0  0
 26 27  1  0  0  0  0
 26 38  1  0  0  0  0
 26 39  1  0  0  0  0
 27 28  2  0  0  0  0
 27 31  1  0  0  0  0
 28 29  1  0  0  0  0
 29 30  2  0  0  0  0
 29 37  1  0  0  0  0
 30 31  1  0  0  0  0
 30 36  1  0  0  0  0
 31 32  1  0  0  0  0
 32 33  1  0  0  0  0
 32 34  1  0  0  0  0
 32 35  1  0  0  0  0
 40 41  2  0  0  0  0
 40 42  1  0  0  0  0
 42 43  2  0  0  0  0
 42 48  1  0  0  0  0
 43 44  1  0  0  0  0
 43 51  1  0  0  0  0
 44 45  2  0  0  0  0
 44 50  1  0  0  0  0
 45 46  1  0  0  0  0
 45 47  1  0  0  0  0
 47 48  2  0  0  0  0
 47 49  1  0  0  0  0
M  END
>  <MODEL>
       1

$$$$
