output/tmp_first_model_19_45.pdb
 OpenBabel07232603163D

 60 64  0  0  1  0  0  0  0  0999 V2000
    6.5070    4.4020   21.4390 C   0  0  0  0  0  0  0  0  0  0  0  0
    7.4680    4.0070   22.4560 N   0  0  0  0  0  0  0  0  0  0  0  0
    7.0090    3.3370   23.5540 C   0  0  0  0  0  0  0  0  0  0  0  0
    5.8200    3.1130   23.7420 O   0  0  0  0  0  0  0  0  0  0  0  0
    8.1070    2.8790   24.5270 C   0  0  0  0  0  0  0  0  0  0  0  0
    8.8480    1.7700   23.9410 N   0  0  0  0  0  0  0  0  0  0  0  0
    8.1210    0.5260   23.7350 C   0  0  0  0  0  0  0  0  0  0  0  0
    8.5790   -0.2400   22.4680 C   0  0  2  0  0  0  0  0  0  0  0  0
    8.0540    0.4620   21.1880 C   0  0  0  0  0  0  0  0  0  0  0  0
    8.4690    1.4730   20.6610 O   0  0  0  0  0  0  0  0  0  0  0  0
    6.9960   -0.2670   20.7050 N   0  0  0  0  0  0  0  0  0  0  0  0
    6.1710    0.2010   19.6640 C   0  0  0  0  0  0  0  0  0  0  0  0
    6.4700   -0.1480   18.3780 C   0  0  0  0  0  0  0  0  0  0  0  0
    5.7480    0.2410   17.3020 N   0  0  0  0  0  0  0  0  0  0  0  0
    4.7010    1.0020   17.5280 C   0  0  0  0  0  0  0  0  0  0  0  0
    4.2590    1.3980   18.8260 C   0  0  0  0  0  0  0  0  0  0  0  0
    3.1300    2.2370   19.0290 C   0  0  0  0  0  0  0  0  0  0  0  0
    2.7510    2.6060   20.2940 C   0  0  0  0  0  0  0  0  0  0  0  0
    3.4740    2.1520   21.4200 C   0  0  0  0  0  0  0  0  0  0  0  0
    4.5710    1.3400   21.2520 C   0  0  0  0  0  0  0  0  0  0  0  0
    5.0030    0.9660   19.9450 C   0  0  0  0  0  0  0  0  0  0  0  0
    5.1480    1.0260   22.1190 H   0  0  0  0  0  0  0  0  0  0  0  0
    3.1930    2.4780   22.4190 H   0  0  0  0  0  0  0  0  0  0  0  0
    1.9000    3.2690   20.4360 H   0  0  0  0  0  0  0  0  0  0  0  0
    2.6020    2.6050   18.1560 H   0  0  0  0  0  0  0  0  0  0  0  0
    4.1430    1.3450   16.6570 H   0  0  0  0  0  0  0  0  0  0  0  0
    7.3420   -0.7710   18.1860 H   0  0  0  0  0  0  0  0  0  0  0  0
    6.6390   -1.4250   21.4750 C   0  0  0  0  0  0  0  0  0  0  0  0
    7.8720   -1.6330   22.3590 C   0  0  2  0  0  0  0  0  0  0  0  0
    7.4370   -2.3110   23.6470 C   0  0  0  0  0  0  0  0  0  0  0  0
    6.6740   -3.4400   23.2970 O   0  0  0  0  0  0  0  0  0  0  0  0
    6.2240   -4.1070   24.4410 C   0  0  0  0  0  0  0  0  0  0  0  0
    7.0840   -4.3710   25.0750 H   0  0  0  0  0  0  0  0  0  0  0  0
    5.7080   -5.0140   24.1160 H   0  0  0  0  0  0  0  0  0  0  0  0
    5.5290   -3.5030   25.0510 H   0  0  0  0  0  0  0  0  0  0  0  0
    8.2990   -2.5810   24.2790 H   0  0  0  0  0  0  0  0  0  0  0  0
    6.8040   -1.6350   24.2440 H   0  0  0  0  0  0  0  0  0  0  0  0
    8.5460   -2.3100   21.8290 H   0  0  0  0  0  0  0  0  0  0  0  0
    6.4270   -2.2750   20.8210 H   0  0  0  0  0  0  0  0  0  0  0  0
    5.7310   -1.2540   22.0740 H   0  0  0  0  0  0  0  0  0  0  0  0
   10.0960   -0.2720   22.4680 C   0  0  0  0  0  0  0  0  0  0  0  0
   10.7730   -1.1810   21.6450 C   0  0  0  0  0  0  0  0  0  0  0  0
   12.1540   -1.1830   21.5970 C   0  0  0  0  0  0  0  0  0  0  0  0
   12.9460   -2.2420   20.4620 Cl  0  0  0  0  0  0  0  0  0  0  0  0
   12.9100   -0.3350   22.4040 C   0  0  0  0  0  0  0  0  0  0  0  0
   12.2510    0.5720   23.2120 C   0  0  0  0  0  0  0  0  0  0  0  0
   10.8590    0.6500   23.2040 C   0  0  0  0  0  0  0  0  0  0  0  0
   10.2170    1.7720   23.9730 C   0  0  0  0  0  0  0  0  0  0  0  0
   10.8690    2.6310   24.5530 O   0  0  0  0  0  0  0  0  0  0  0  0
   12.8020    1.2440   23.8600 H   0  0  0  0  0  0  0  0  0  0  0  0
   13.9910   -0.3780   22.3760 H   0  0  0  0  0  0  0  0  0  0  0  0
   10.2400   -1.8960   21.0260 H   0  0  0  0  0  0  0  0  0  0  0  0
    7.0570    0.7680   23.6590 H   0  0  0  0  0  0  0  0  0  0  0  0
    8.2720   -0.1260   24.6060 H   0  0  0  0  0  0  0  0  0  0  0  0
    8.8380    3.6610   24.7660 H   0  0  0  0  0  0  0  0  0  0  0  0
    7.6240    2.5880   25.4670 H   0  0  0  0  0  0  0  0  0  0  0  0
    8.3930    3.7740   22.1210 H   0  0  0  0  0  0  0  0  0  0  0  0
    5.6760    4.9290   21.9050 H   0  0  0  0  0  0  0  0  0  0  0  0
    6.0780    3.5420   20.9100 H   0  0  0  0  0  0  0  0  0  0  0  0
    6.9790    5.0670   20.7140 H   0  0  0  0  0  0  0  0  0  0  0  0
  1  2  1  0  0  0  0
  1 58  1  0  0  0  0
  1 59  1  0  0  0  0
  1 60  1  0  0  0  0
  2  3  1  0  0  0  0
  2 57  1  0  0  0  0
  3  4  2  0  0  0  0
  3  5  1  0  0  0  0
  5  6  1  0  0  0  0
  5 55  1  0  0  0  0
  5 56  1  0  0  0  0
  6  7  1  0  0  0  0
  6 48  1  0  0  0  0
  7  8  1  0  0  0  0
  7 53  1  0  0  0  0
  7 54  1  0  0  0  0
  8  9  1  6  0  0  0
  8 29  1  0  0  0  0
  8 41  1  0  0  0  0
  9 10  2  0  0  0  0
  9 11  1  0  0  0  0
 11 12  1  0  0  0  0
 11 28  1  0  0  0  0
 12 13  2  0  0  0  0
 12 21  1  0  0  0  0
 13 14  1  0  0  0  0
 13 27  1  0  0  0  0
 14 15  2  0  0  0  0
 15 16  1  0  0  0  0
 15 26  1  0  0  0  0
 16 17  2  0  0  0  0
 16 21  1  0  0  0  0
 17 18  1  0  0  0  0
 17 25  1  0  0  0  0
 18 19  2  0  0  0  0
 18 24  1  0  0  0  0
 19 20  1  0  0  0  0
 19 23  1  0  0  0  0
 20 21  2  0  0  0  0
 20 22  1  0  0  0  0
 28 29  1  0  0  0  0
 28 39  1  0  0  0  0
 28 40  1  0  0  0  0
 29 30  1  0  0  0  0
 29 38  1  6  0  0  0
 30 31  1  0  0  0  0
 30 36  1  0  0  0  0
 30 37  1  0  0  0  0
 31 32  1  0  0  0  0
 32 33  1  0  0  0  0
 32 34  1  0  0  0  0
 32 35  1  0  0  0  0
 41 42  2  0  0  0  0
 41 47  1  0  0  0  0
 42 43  1  0  0  0  0
 42 52  1  0  0  0  0
 43 44  1  0  0  0  0
 43 45  2  0  0  0  0
 45 46  1  0  0  0  0
 45 51  1  0  0  0  0
 46 47  2  0  0  0  0
 46 50  1  0  0  0  0
 47 48  1  0  0  0  0
 48 49  2  0  0  0  0
M  END
>  <MODEL>
       1

$$$$
