output/tmp_first_model_7_5.pdb
 OpenBabel07222621533D

 50 54  0  0  1  0  0  0  0  0999 V2000
    7.6000   -2.9470   23.5330 C   0  0  0  0  0  0  0  0  0  0  0  0
    7.8360   -2.0580   22.3180 C   0  0  1  0  0  0  0  0  0  0  0  0
    6.5080   -1.6140   21.6930 C   0  0  0  0  0  0  0  0  0  0  0  0
    6.8280   -0.3830   20.9840 N   0  0  0  0  0  0  0  0  0  0  0  0
    6.0340    0.1020   19.9120 C   0  0  0  0  0  0  0  0  0  0  0  0
    6.5390    0.1360   18.6350 C   0  0  0  0  0  0  0  0  0  0  0  0
    5.8340    0.5390   17.5510 N   0  0  0  0  0  0  0  0  0  0  0  0
    4.6020    0.9440   17.7260 C   0  0  0  0  0  0  0  0  0  0  0  0
    3.9490    0.9620   18.9870 C   0  0  0  0  0  0  0  0  0  0  0  0
    2.6300    1.4660   19.1380 C   0  0  0  0  0  0  0  0  0  0  0  0
    2.0090    1.4390   20.3560 C   0  0  0  0  0  0  0  0  0  0  0  0
    2.7020    0.9400   21.4830 C   0  0  0  0  0  0  0  0  0  0  0  0
    3.9860    0.4600   21.3640 C   0  0  0  0  0  0  0  0  0  0  0  0
    4.6600    0.4820   20.1110 C   0  0  0  0  0  0  0  0  0  0  0  0
    4.5150    0.1130   22.2450 H   0  0  0  0  0  0  0  0  0  0  0  0
    2.2000    0.9080   22.4480 H   0  0  0  0  0  0  0  0  0  0  0  0
    0.9960    1.8220   20.4770 H   0  0  0  0  0  0  0  0  0  0  0  0
    2.1320    1.8730   18.2650 H   0  0  0  0  0  0  0  0  0  0  0  0
    4.0580    1.2670   16.8380 H   0  0  0  0  0  0  0  0  0  0  0  0
    7.5690   -0.1540   18.4370 H   0  0  0  0  0  0  0  0  0  0  0  0
    8.1130    0.0590   21.2550 C   0  0  0  0  0  0  0  0  0  0  0  0
    8.6910    0.9420   20.6470 O   0  0  0  0  0  0  0  0  0  0  0  0
    8.6440   -0.7200   22.4860 C   0  0  1  0  0  0  0  0  0  0  0  0
    8.2810    0.0970   23.7420 C   0  0  0  0  0  0  0  0  0  0  0  0
    8.9240   -0.4230   24.9430 N   0  0  0  0  0  0  0  0  0  0  0  0
    8.2260   -0.3130   26.2040 C   0  0  0  0  0  0  0  0  0  0  0  0
    7.5490   -1.5510   26.6310 C   0  0  0  0  0  0  0  0  0  0  0  0
    7.0410   -2.5080   27.0410 N   0  0  0  0  0  0  0  0  0  0  0  0
    8.9720   -0.0710   26.9630 H   0  0  0  0  0  0  0  0  0  0  0  0
    7.4860    0.4910   26.1590 H   0  0  0  0  0  0  0  0  0  0  0  0
   10.2860   -0.6460   24.9850 C   0  0  0  0  0  0  0  0  0  0  0  0
   10.9330   -0.5720   26.0190 O   0  0  0  0  0  0  0  0  0  0  0  0
   10.8840   -1.0410   23.6730 C   0  0  0  0  0  0  0  0  0  0  0  0
   12.1710   -1.5850   23.6680 C   0  0  0  0  0  0  0  0  0  0  0  0
   12.7490   -2.0060   22.4820 C   0  0  0  0  0  0  0  0  0  0  0  0
   12.0410   -1.7810   21.3060 C   0  0  0  0  0  0  0  0  0  0  0  0
   12.5820   -2.1830   20.1460 F   0  0  0  0  0  0  0  0  0  0  0  0
   10.8020   -1.1720   21.2820 C   0  0  0  0  0  0  0  0  0  0  0  0
   10.1440   -0.9280   22.4860 C   0  0  0  0  0  0  0  0  0  0  0  0
   10.3460   -0.8760   20.3460 H   0  0  0  0  0  0  0  0  0  0  0  0
   13.7170   -2.4970   22.4370 H   0  0  0  0  0  0  0  0  0  0  0  0
   12.6770   -1.6650   24.6260 H   0  0  0  0  0  0  0  0  0  0  0  0
    7.1980    0.0700   23.9040 H   0  0  0  0  0  0  0  0  0  0  0  0
    8.5780    1.1420   23.5590 H   0  0  0  0  0  0  0  0  0  0  0  0
    6.0980   -2.3490   20.9950 H   0  0  0  0  0  0  0  0  0  0  0  0
    5.7690   -1.4480   22.4890 H   0  0  0  0  0  0  0  0  0  0  0  0
    8.3980   -2.6370   21.5730 H   0  0  0  0  0  0  0  0  0  0  0  0
    7.0920   -3.8660   23.2120 H   0  0  0  0  0  0  0  0  0  0  0  0
    8.5410   -3.2340   24.0120 H   0  0  0  0  0  0  0  0  0  0  0  0
    6.9600   -2.4530   24.2730 H   0  0  0  0  0  0  0  0  0  0  0  0
  1  2  1  0  0  0  0
  1 48  1  0  0  0  0
  1 49  1  0  0  0  0
  1 50  1  0  0  0  0
  2  3  1  0  0  0  0
  2 23  1  0  0  0  0
  2 47  1  6  0  0  0
  3  4  1  0  0  0  0
  3 45  1  0  0  0  0
  3 46  1  0  0  0  0
  4  5  1  0  0  0  0
  4 21  1  0  0  0  0
  5  6  2  0  0  0  0
  5 14  1  0  0  0  0
  6  7  1  0  0  0  0
  6 20  1  0  0  0  0
  7  8  2  0  0  0  0
  8  9  1  0  0  0  0
  8 19  1  0  0  0  0
  9 10  2  0  0  0  0
  9 14  1  0  0  0  0
 10 11  1  0  0  0  0
 10 18  1  0  0  0  0
 11 12  2  0  0  0  0
 11 17  1  0  0  0  0
 12 13  1  0  0  0  0
 12 16  1  0  0  0  0
 13 14  2  0  0  0  0
 13 15  1  0  0  0  0
 21 22  2  0  0  0  0
 23 21  1  6  0  0  0
 23 24  1  0  0  0  0
 23 39  1  0  0  0  0
 24 25  1  0  0  0  0
 24 43  1  0  0  0  0
 24 44  1  0  0  0  0
 25 26  1  0  0  0  0
 25 31  1  0  0  0  0
 26 27  1  0  0  0  0
 26 29  1  0  0  0  0
 26 30  1  0  0  0  0
 27 28  3  0  0  0  0
 31 32  2  0  0  0  0
 31 33  1  0  0  0  0
 33 34  2  0  0  0  0
 33 39  1  0  0  0  0
 34 35  1  0  0  0  0
 34 42  1  0  0  0  0
 35 36  2  0  0  0  0
 35 41  1  0  0  0  0
 36 37  1  0  0  0  0
 36 38  1  0  0  0  0
 38 39  2  0  0  0  0
 38 40  1  0  0  0  0
M  END
>  <MODEL>
       1

$$$$
