output/tmp_first_model_1_67.pdb
 OpenBabel07222618483D

 69 74  0  0  1  0  0  0  0  0999 V2000
    6.1820   -7.2020   21.6380 C   0  0  0  0  0  0  0  0  0  0  0  0
    5.6840   -7.1100   23.0220 N   0  3  0  0  0  0  0  0  0  0  0  0
    6.1470   -5.9180   23.7900 C   0  0  0  0  0  0  0  0  0  0  0  0
    5.6700   -4.6000   23.1900 C   0  0  0  0  0  0  0  0  0  0  0  0
    6.3000   -3.4810   23.8620 N   0  0  0  0  0  0  0  0  0  0  0  0
    7.4750   -2.8660   23.2780 C   0  0  0  0  0  0  0  0  0  0  0  0
    7.1880   -1.4150   22.8380 C   0  0  2  0  0  0  0  0  0  0  0  0
    6.2040   -1.4590   21.6520 C   0  0  0  0  0  0  0  0  0  0  0  0
    5.2510   -2.2000   21.5160 O   0  0  0  0  0  0  0  0  0  0  0  0
    6.5980   -0.5320   20.7150 N   0  0  0  0  0  0  0  0  0  0  0  0
    5.7350   -0.1560   19.6610 C   0  0  0  0  0  0  0  0  0  0  0  0
    6.1950   -0.1770   18.3690 C   0  0  0  0  0  0  0  0  0  0  0  0
    5.4640    0.1760   17.2840 N   0  0  0  0  0  0  0  0  0  0  0  0
    4.2520    0.6240   17.5100 C   0  0  0  0  0  0  0  0  0  0  0  0
    3.6640    0.7440   18.8000 C   0  0  0  0  0  0  0  0  0  0  0  0
    2.3970    1.3580   19.0000 C   0  0  0  0  0  0  0  0  0  0  0  0
    1.8690    1.4860   20.2560 C   0  0  0  0  0  0  0  0  0  0  0  0
    2.5980    1.0300   21.3780 C   0  0  0  0  0  0  0  0  0  0  0  0
    3.8320    0.4600   21.2180 C   0  0  0  0  0  0  0  0  0  0  0  0
    4.4030    0.3010   19.9180 C   0  0  0  0  0  0  0  0  0  0  0  0
    4.3810    0.1290   22.0930 H   0  0  0  0  0  0  0  0  0  0  0  0
    2.1840    1.1590   22.3750 H   0  0  0  0  0  0  0  0  0  0  0  0
    0.8940    1.9420   20.4010 H   0  0  0  0  0  0  0  0  0  0  0  0
    1.9030    1.8040   18.1430 H   0  0  0  0  0  0  0  0  0  0  0  0
    3.6590    0.9160   16.6450 H   0  0  0  0  0  0  0  0  0  0  0  0
    7.1970   -0.5510   18.1700 H   0  0  0  0  0  0  0  0  0  0  0  0
    7.7610    0.2390   21.1320 C   0  0  0  0  0  0  0  0  0  0  0  0
    8.4030   -0.6710   22.2030 C   0  0  2  0  0  0  0  0  0  0  0  0
    9.4820   -1.5500   21.5390 C   0  0  0  0  0  0  0  0  0  0  0  0
   10.6210   -0.7480   21.2830 O   0  0  0  0  0  0  0  0  0  0  0  0
   11.8700   -1.0050   21.8970 C   0  0  0  0  0  0  0  0  0  0  0  0
   11.8130   -1.6770   23.2550 C   0  0  0  0  0  0  0  0  0  0  0  0
   10.9240   -1.0450   24.1000 F   0  0  0  0  0  0  0  0  0  0  0  0
   11.8800   -3.1590   23.3250 C   0  0  0  0  0  0  0  0  0  0  0  0
   12.9590   -2.3310   23.9600 C   0  0  0  0  0  0  0  0  0  0  0  0
   11.1990   -3.6780   23.9930 H   0  0  0  0  0  0  0  0  0  0  0  0
   12.9620   -2.3320   25.0270 H   0  0  0  0  0  0  0  0  0  0  0  0
   13.9840   -2.3410   23.6320 H   0  0  0  0  0  0  0  0  0  0  0  0
   12.1240   -3.6370   22.3860 H   0  0  0  0  0  0  0  0  0  0  0  0
   12.4860   -1.6010   21.2080 H   0  0  0  0  0  0  0  0  0  0  0  0
   12.3530   -0.0230   21.9560 H   0  0  0  0  0  0  0  0  0  0  0  0
    9.1040   -1.9230   20.5760 H   0  0  0  0  0  0  0  0  0  0  0  0
    9.7310   -2.4180   22.1500 H   0  0  0  0  0  0  0  0  0  0  0  0
    8.9320   -0.1020   22.9660 H   0  0  0  0  0  0  0  0  0  0  0  0
    8.4370    0.4150   20.2940 H   0  0  0  0  0  0  0  0  0  0  0  0
    7.4630    1.2230   21.5220 H   0  0  0  0  0  0  0  0  0  0  0  0
    6.6270   -0.6970   24.0800 C   0  0  0  0  0  0  0  0  0  0  0  0
    6.8130    0.6740   24.3110 C   0  0  0  0  0  0  0  0  0  0  0  0
    6.3650    1.2580   25.4870 C   0  0  0  0  0  0  0  0  0  0  0  0
    6.6360    2.9620   25.7480 Cl  0  0  0  0  0  0  0  0  0  0  0  0
    5.7090    0.5250   26.4720 C   0  0  0  0  0  0  0  0  0  0  0  0
    5.4880   -0.8190   26.2400 C   0  0  0  0  0  0  0  0  0  0  0  0
    5.9340   -1.4220   25.0650 C   0  0  0  0  0  0  0  0  0  0  0  0
    5.6120   -2.8700   24.8650 C   0  0  0  0  0  0  0  0  0  0  0  0
    4.7620   -3.4560   25.5300 O   0  0  0  0  0  0  0  0  0  0  0  0
    4.9660   -1.4340   26.9670 H   0  0  0  0  0  0  0  0  0  0  0  0
    5.3910    1.0080   27.3910 H   0  0  0  0  0  0  0  0  0  0  0  0
    7.3260    1.3070   23.5970 H   0  0  0  0  0  0  0  0  0  0  0  0
    7.7660   -3.4650   22.4140 H   0  0  0  0  0  0  0  0  0  0  0  0
    8.3100   -2.8590   23.9970 H   0  0  0  0  0  0  0  0  0  0  0  0
    4.5850   -4.4930   23.3070 H   0  0  0  0  0  0  0  0  0  0  0  0
    5.9070   -4.5080   22.1230 H   0  0  0  0  0  0  0  0  0  0  0  0
    5.7850   -5.9950   24.8120 H   0  0  0  0  0  0  0  0  0  0  0  0
    7.2350   -5.9270   23.8180 H   0  0  0  0  0  0  0  0  0  0  0  0
    4.6370   -7.0980   23.0180 H   0  0  0  0  0  0  0  0  0  0  0  0
    6.0210   -7.9700   23.5000 H   0  0  0  0  0  0  0  0  0  0  0  0
    5.7100   -6.4630   20.9930 H   0  0  0  0  0  0  0  0  0  0  0  0
    7.2620   -7.0360   21.6140 H   0  0  0  0  0  0  0  0  0  0  0  0
    5.9620   -8.1950   21.2510 H   0  0  0  0  0  0  0  0  0  0  0  0
  1  2  1  0  0  0  0
  1 67  1  0  0  0  0
  1 68  1  0  0  0  0
  1 69  1  0  0  0  0
  2  3  1  0  0  0  0
  2 65  1  0  0  0  0
  2 66  1  0  0  0  0
  3  4  1  0  0  0  0
  3 63  1  0  0  0  0
  3 64  1  0  0  0  0
  4  5  1  0  0  0  0
  4 61  1  0  0  0  0
  4 62  1  0  0  0  0
  5  6  1  0  0  0  0
  5 54  1  0  0  0  0
  6  7  1  0  0  0  0
  6 59  1  0  0  0  0
  6 60  1  0  0  0  0
  7  8  1  6  0  0  0
  7 28  1  0  0  0  0
  7 47  1  0  0  0  0
  8  9  2  0  0  0  0
  8 10  1  0  0  0  0
 10 11  1  0  0  0  0
 10 27  1  0  0  0  0
 11 12  2  0  0  0  0
 11 20  1  0  0  0  0
 12 13  1  0  0  0  0
 12 26  1  0  0  0  0
 13 14  2  0  0  0  0
 14 15  1  0  0  0  0
 14 25  1  0  0  0  0
 15 16  2  0  0  0  0
 15 20  1  0  0  0  0
 16 17  1  0  0  0  0
 16 24  1  0  0  0  0
 17 18  2  0  0  0  0
 17 23  1  0  0  0  0
 18 19  1  0  0  0  0
 18 22  1  0  0  0  0
 19 20  2  0  0  0  0
 19 21  1  0  0  0  0
 27 28  1  0  0  0  0
 27 45  1  0  0  0  0
 27 46  1  0  0  0  0
 28 29  1  0  0  0  0
 28 44  1  1  0  0  0
 29 30  1  0  0  0  0
 29 42  1  0  0  0  0
 29 43  1  0  0  0  0
 30 31  1  0  0  0  0
 31 32  1  0  0  0  0
 31 40  1  0  0  0  0
 31 41  1  0  0  0  0
 32 33  1  0  0  0  0
 32 34  1  0  0  0  0
 32 35  1  0  0  0  0
 34 35  1  0  0  0  0
 34 38  1  0  0  0  0
 34 39  1  0  0  0  0
 35 36  1  0  0  0  0
 35 37  1  0  0  0  0
 47 48  2  0  0  0  0
 47 53  1  0  0  0  0
 48 49  1  0  0  0  0
 48 58  1  0  0  0  0
 49 50  1  0  0  0  0
 49 51  2  0  0  0  0
 51 52  1  0  0  0  0
 51 57  1  0  0  0  0
 52 53  2  0  0  0  0
 52 56  1  0  0  0  0
 53 54  1  0  0  0  0
 54 55  2  0  0  0  0
M  CHG  1   2   1
M  END
>  <MODEL>
       1

$$$$
