output/tmp_first_model_16_87.pdb
 OpenBabel07232602073D

 63 68  0  0  1  0  0  0  0  0999 V2000
    6.6870    4.1900   21.3300 C   0  0  0  0  0  0  0  0  0  0  0  0
    7.0190    3.6790   22.6510 N   0  0  0  0  0  0  0  0  0  0  0  0
    8.2640    3.9010   23.1630 C   0  0  0  0  0  0  0  0  0  0  0  0
    9.0060    4.7590   22.7210 O   0  0  0  0  0  0  0  0  0  0  0  0
    8.6640    3.0000   24.3420 C   0  0  0  0  0  0  0  0  0  0  0  0
    8.9290    1.6310   23.9340 N   0  0  0  0  0  0  0  0  0  0  0  0
    7.8470    0.6330   23.9300 C   0  0  0  0  0  0  0  0  0  0  0  0
    7.9380   -0.3440   22.6870 C   0  0  2  0  0  0  0  0  0  0  0  0
    7.4280    0.4920   21.4500 C   0  0  0  0  0  0  0  0  0  0  0  0
    8.0570    1.3380   20.8470 O   0  0  0  0  0  0  0  0  0  0  0  0
    6.1400    0.1320   21.1620 N   0  0  0  0  0  0  0  0  0  0  0  0
    5.5020    0.5820   19.9790 C   0  0  0  0  0  0  0  0  0  0  0  0
    6.0110    0.2530   18.7470 C   0  0  0  0  0  0  0  0  0  0  0  0
    5.4190    0.5830   17.5760 N   0  0  0  0  0  0  0  0  0  0  0  0
    4.3050    1.2680   17.6260 C   0  0  0  0  0  0  0  0  0  0  0  0
    3.6820    1.6950   18.8320 C   0  0  0  0  0  0  0  0  0  0  0  0
    2.4800    2.4510   18.8420 C   0  0  0  0  0  0  0  0  0  0  0  0
    1.9400    2.8800   20.0230 C   0  0  0  0  0  0  0  0  0  0  0  0
    2.5780    2.5820   21.2470 C   0  0  0  0  0  0  0  0  0  0  0  0
    3.7410    1.8470   21.2630 C   0  0  0  0  0  0  0  0  0  0  0  0
    4.3080    1.3640   20.0550 C   0  0  0  0  0  0  0  0  0  0  0  0
    4.2420    1.6470   22.2060 H   0  0  0  0  0  0  0  0  0  0  0  0
    2.1520    2.9390   22.1790 H   0  0  0  0  0  0  0  0  0  0  0  0
    1.0230    3.4640   20.0290 H   0  0  0  0  0  0  0  0  0  0  0  0
    2.0110    2.6850   17.8910 H   0  0  0  0  0  0  0  0  0  0  0  0
    3.8440    1.5270   16.6740 H   0  0  0  0  0  0  0  0  0  0  0  0
    6.9310   -0.3220   18.6650 H   0  0  0  0  0  0  0  0  0  0  0  0
    5.5940   -0.8690   22.0530 C   0  0  0  0  0  0  0  0  0  0  0  0
    6.8360   -1.4570   22.7250 C   0  0  2  0  0  0  0  0  0  0  0  0
    6.4970   -2.1130   24.0700 C   0  0  0  0  0  0  0  0  0  0  0  0
    5.9260   -3.4340   23.8520 N   0  0  0  0  0  0  0  0  0  0  0  0
    4.6620   -3.8740   24.0590 C   0  0  0  0  0  0  0  0  0  0  0  0
    4.5920   -5.1480   23.5360 C   0  0  0  0  0  0  0  0  0  0  0  0
    5.8910   -5.3940   23.0530 C   0  0  0  0  0  0  0  0  0  0  0  0
    6.6930   -4.3530   23.2490 N   0  0  0  0  0  0  0  0  0  0  0  0
    6.2820   -6.2790   22.5660 H   0  0  0  0  0  0  0  0  0  0  0  0
    3.7290   -5.7990   23.4970 H   0  0  0  0  0  0  0  0  0  0  0  0
    3.9250   -3.2640   24.5670 H   0  0  0  0  0  0  0  0  0  0  0  0
    7.3650   -2.2510   24.7190 H   0  0  0  0  0  0  0  0  0  0  0  0
    5.7810   -1.4980   24.6240 H   0  0  0  0  0  0  0  0  0  0  0  0
    7.2420   -2.2390   22.0730 H   0  0  0  0  0  0  0  0  0  0  0  0
    5.0280   -1.6160   21.4880 H   0  0  0  0  0  0  0  0  0  0  0  0
    4.9130   -0.4170   22.7910 H   0  0  0  0  0  0  0  0  0  0  0  0
    9.3680   -0.7960   22.5650 C   0  0  0  0  0  0  0  0  0  0  0  0
   10.1720   -2.1490   21.9400 C   0  0  0  0  0  0  0  0  0  0  0  0
   11.6600   -1.8080   21.9370 C   0  0  0  0  0  0  0  0  0  0  0  0
   13.1410   -3.2660   19.8970 Cl  0  0  0  0  0  0  0  0  0  0  0  0
   11.5240   -2.0670   22.1340 C   0  0  0  0  0  0  0  0  0  0  0  0
   11.8640   -0.6720   22.6940 C   0  0  0  0  0  0  0  0  0  0  0  0
   10.4380    0.0340   22.9610 C   0  0  0  0  0  0  0  0  0  0  0  0
   10.2440    1.3400   23.5730 C   0  0  0  0  0  0  0  0  0  0  0  0
   11.1540    2.1410   23.7490 O   0  0  0  0  0  0  0  0  0  0  0  0
   12.5730    0.0500   22.3860 H   0  0  0  0  0  0  0  0  0  0  0  0
   12.5280   -2.1640   19.7270 H   0  0  0  0  0  0  0  0  0  0  0  0
    9.7250   -2.9410   22.4810 H   0  0  0  0  0  0  0  0  0  0  0  0
    7.8920    0.0470   24.8540 H   0  0  0  0  0  0  0  0  0  0  0  0
    6.8850    1.1410   23.9130 H   0  0  0  0  0  0  0  0  0  0  0  0
    7.9040    3.0200   25.1350 H   0  0  0  0  0  0  0  0  0  0  0  0
    9.5990    3.4040   24.7380 H   0  0  0  0  0  0  0  0  0  0  0  0
    6.4940    2.8840   22.9750 H   0  0  0  0  0  0  0  0  0  0  0  0
    5.6420    3.9360   21.1150 H   0  0  0  0  0  0  0  0  0  0  0  0
    7.3310    3.7250   20.5780 H   0  0  0  0  0  0  0  0  0  0  0  0
    6.8220    5.2730   21.3070 H   0  0  0  0  0  0  0  0  0  0  0  0
  1  2  1  0  0  0  0
  1 61  1  0  0  0  0
  1 62  1  0  0  0  0
  1 63  1  0  0  0  0
  2  3  1  0  0  0  0
  2 60  1  0  0  0  0
  3  4  2  0  0  0  0
  3  5  1  0  0  0  0
  5  6  1  0  0  0  0
  5 58  1  0  0  0  0
  5 59  1  0  0  0  0
  6  7  1  0  0  0  0
  6 51  1  0  0  0  0
  7  8  1  0  0  0  0
  7 56  1  0  0  0  0
  7 57  1  0  0  0  0
  8  9  1  6  0  0  0
  8 29  1  0  0  0  0
  8 44  1  0  0  0  0
  9 10  2  0  0  0  0
  9 11  1  0  0  0  0
 11 12  1  0  0  0  0
 11 28  1  0  0  0  0
 12 13  2  0  0  0  0
 12 21  1  0  0  0  0
 13 14  1  0  0  0  0
 13 27  1  0  0  0  0
 14 15  2  0  0  0  0
 15 16  1  0  0  0  0
 15 26  1  0  0  0  0
 16 17  2  0  0  0  0
 16 21  1  0  0  0  0
 17 18  1  0  0  0  0
 17 25  1  0  0  0  0
 18 19  2  0  0  0  0
 18 24  1  0  0  0  0
 19 20  1  0  0  0  0
 19 23  1  0  0  0  0
 20 21  2  0  0  0  0
 20 22  1  0  0  0  0
 28 29  1  0  0  0  0
 28 42  1  0  0  0  0
 28 43  1  0  0  0  0
 29 30  1  0  0  0  0
 29 41  1  6  0  0  0
 30 31  1  0  0  0  0
 30 39  1  0  0  0  0
 30 40  1  0  0  0  0
 31 32  1  0  0  0  0
 31 35  1  0  0  0  0
 32 33  2  0  0  0  0
 32 38  1  0  0  0  0
 33 34  1  0  0  0  0
 33 37  1  0  0  0  0
 34 35  2  0  0  0  0
 34 36  1  0  0  0  0
 44 45  2  0  0  0  0
 44 50  1  0  0  0  0
 45 46  1  0  0  0  0
 45 55  1  0  0  0  0
 46 47  1  0  0  0  0
 46 48  2  0  0  0  0
 48 49  1  0  0  0  0
 48 54  1  0  0  0  0
 49 50  2  0  0  0  0
 49 53  1  0  0  0  0
 50 51  1  0  0  0  0
 51 52  2  0  0  0  0
M  END
>  <MODEL>
       1

$$$$
