output/tmp_first_model_12_49.pdb
 OpenBabel07232600143D

 42 45  0  0  1  0  0  0  0  0999 V2000
   10.4550   -3.4700   23.6290 C   0  0  0  0  0  0  0  0  0  0  0  0
    9.3630   -2.5430   23.4340 N   0  0  0  0  0  0  0  0  0  0  0  0
    8.9590   -2.0500   22.1420 C   0  0  0  0  0  0  0  0  0  0  0  0
    8.8440   -0.5310   22.2010 C   0  0  1  0  0  0  0  0  0  0  0  0
    8.1330    0.0240   20.9740 C   0  0  0  0  0  0  0  0  0  0  0  0
    8.5890    0.9240   20.2950 O   0  0  0  0  0  0  0  0  0  0  0  0
    6.8820   -0.5030   20.7220 N   0  0  0  0  0  0  0  0  0  0  0  0
    6.0810    0.0280   19.6850 C   0  0  0  0  0  0  0  0  0  0  0  0
    6.4120   -0.2150   18.3780 C   0  0  0  0  0  0  0  0  0  0  0  0
    5.7070    0.2600   17.3260 N   0  0  0  0  0  0  0  0  0  0  0  0
    4.6680    1.0150   17.5800 C   0  0  0  0  0  0  0  0  0  0  0  0
    4.2300    1.3640   18.8860 C   0  0  0  0  0  0  0  0  0  0  0  0
    3.1150    2.2130   19.0990 C   0  0  0  0  0  0  0  0  0  0  0  0
    2.7660    2.5930   20.3630 C   0  0  0  0  0  0  0  0  0  0  0  0
    3.5160    2.1320   21.4700 C   0  0  0  0  0  0  0  0  0  0  0  0
    4.5860    1.2870   21.2920 C   0  0  0  0  0  0  0  0  0  0  0  0
    4.9620    0.8720   19.9850 C   0  0  0  0  0  0  0  0  0  0  0  0
    5.1620    0.9520   22.1500 H   0  0  0  0  0  0  0  0  0  0  0  0
    3.2500    2.4590   22.4700 H   0  0  0  0  0  0  0  0  0  0  0  0
    1.9260    3.2630   20.5210 H   0  0  0  0  0  0  0  0  0  0  0  0
    2.5730    2.5660   18.2260 H   0  0  0  0  0  0  0  0  0  0  0  0
    4.1230    1.4120   16.7260 H   0  0  0  0  0  0  0  0  0  0  0  0
    7.2850   -0.8180   18.1330 H   0  0  0  0  0  0  0  0  0  0  0  0
    6.4320   -1.0930   21.4070 H   0  0  0  0  0  0  0  0  0  0  0  0
    8.1110   -0.0870   23.4490 C   0  0  0  0  0  0  0  0  0  0  0  0
    7.6140    1.2200   23.5230 C   0  0  0  0  0  0  0  0  0  0  0  0
    6.8450    1.5810   24.6150 C   0  0  0  0  0  0  0  0  0  0  0  0
    6.1160    3.1640   24.7260 Cl  0  0  0  0  0  0  0  0  0  0  0  0
    6.5690    0.6800   25.6400 C   0  0  0  0  0  0  0  0  0  0  0  0
    7.0640   -0.6090   25.5650 C   0  0  0  0  0  0  0  0  0  0  0  0
    7.8750   -0.9740   24.4960 C   0  0  0  0  0  0  0  0  0  0  0  0
    8.5400   -2.3140   24.5030 C   0  0  0  0  0  0  0  0  0  0  0  0
    8.4110   -3.1170   25.4130 O   0  0  0  0  0  0  0  0  0  0  0  0
    6.8300   -1.3590   26.3130 H   0  0  0  0  0  0  0  0  0  0  0  0
    6.0240    1.0300   26.5050 H   0  0  0  0  0  0  0  0  0  0  0  0
    7.8150    1.9380   22.7310 H   0  0  0  0  0  0  0  0  0  0  0  0
    9.8540   -0.1070   22.1960 H   0  0  0  0  0  0  0  0  0  0  0  0
    7.9860   -2.4710   21.8570 H   0  0  0  0  0  0  0  0  0  0  0  0
    9.6980   -2.3320   21.3880 H   0  0  0  0  0  0  0  0  0  0  0  0
   11.1620   -3.0440   24.3520 H   0  0  0  0  0  0  0  0  0  0  0  0
   10.0670   -4.4090   24.0330 H   0  0  0  0  0  0  0  0  0  0  0  0
   10.9650   -3.6340   22.6760 H   0  0  0  0  0  0  0  0  0  0  0  0
  1  2  1  0  0  0  0
  1 40  1  0  0  0  0
  1 41  1  0  0  0  0
  1 42  1  0  0  0  0
  2  3  1  0  0  0  0
  2 32  1  0  0  0  0
  3  4  1  0  0  0  0
  3 38  1  0  0  0  0
  3 39  1  0  0  0  0
  4  5  1  0  0  0  0
  4 25  1  0  0  0  0
  4 37  1  1  0  0  0
  5  6  2  0  0  0  0
  5  7  1  0  0  0  0
  7  8  1  0  0  0  0
  7 24  1  0  0  0  0
  8  9  2  0  0  0  0
  8 17  1  0  0  0  0
  9 10  1  0  0  0  0
  9 23  1  0  0  0  0
 10 11  2  0  0  0  0
 11 12  1  0  0  0  0
 11 22  1  0  0  0  0
 12 13  2  0  0  0  0
 12 17  1  0  0  0  0
 13 14  1  0  0  0  0
 13 21  1  0  0  0  0
 14 15  2  0  0  0  0
 14 20  1  0  0  0  0
 15 16  1  0  0  0  0
 15 19  1  0  0  0  0
 16 17  2  0  0  0  0
 16 18  1  0  0  0  0
 25 26  2  0  0  0  0
 25 31  1  0  0  0  0
 26 27  1  0  0  0  0
 26 36  1  0  0  0  0
 27 28  1  0  0  0  0
 27 29  2  0  0  0  0
 29 30  1  0  0  0  0
 29 35  1  0  0  0  0
 30 31  2  0  0  0  0
 30 34  1  0  0  0  0
 31 32  1  0  0  0  0
 32 33  2  0  0  0  0
M  END
>  <MODEL>
       1

$$$$
