output/tmp_first_model_2_75.pdb
 OpenBabel07222619223D

 70 75  0  0  1  0  0  0  0  0999 V2000
    6.8630    8.1920   31.6410 C   0  0  0  0  0  0  0  0  0  0  0  0
    6.3280    7.0680   30.9810 O   0  0  0  0  0  0  0  0  0  0  0  0
    7.1630    6.0470   30.6580 C   0  0  0  0  0  0  0  0  0  0  0  0
    8.5220    6.0130   30.9610 C   0  0  0  0  0  0  0  0  0  0  0  0
    9.2560    4.8940   30.5730 C   0  0  0  0  0  0  0  0  0  0  0  0
    8.6530    3.8430   29.8980 C   0  0  0  0  0  0  0  0  0  0  0  0
    7.2900    3.8760   29.5790 C   0  0  0  0  0  0  0  0  0  0  0  0
    6.6540    2.7290   28.8120 C   0  0  0  0  0  0  0  0  0  0  0  0
    6.7890    2.8720   27.3640 N   0  0  0  0  0  0  0  0  0  0  0  0
    6.3400    1.8710   26.5600 C   0  0  0  0  0  0  0  0  0  0  0  0
    5.7600    0.8900   26.9930 O   0  0  0  0  0  0  0  0  0  0  0  0
    6.5770    2.0670   25.0600 C   0  0  0  0  0  0  0  0  0  0  0  0
    7.6760    1.2830   24.5590 N   0  0  0  0  0  0  0  0  0  0  0  0
    7.4880   -0.0830   24.1080 C   0  0  0  0  0  0  0  0  0  0  0  0
    8.2590   -0.3600   22.7950 C   0  0  2  0  0  0  0  0  0  0  0  0
    7.6450    0.4760   21.6530 C   0  0  0  0  0  0  0  0  0  0  0  0
    7.7610    1.6690   21.4850 O   0  0  0  0  0  0  0  0  0  0  0  0
    6.9420   -0.3670   20.8310 N   0  0  0  0  0  0  0  0  0  0  0  0
    6.1460    0.1210   19.7700 C   0  0  0  0  0  0  0  0  0  0  0  0
    6.4460   -0.2220   18.4760 C   0  0  0  0  0  0  0  0  0  0  0  0
    5.7680    0.2230   17.3950 N   0  0  0  0  0  0  0  0  0  0  0  0
    4.7480    1.0170   17.6030 C   0  0  0  0  0  0  0  0  0  0  0  0
    4.3010    1.4180   18.8930 C   0  0  0  0  0  0  0  0  0  0  0  0
    3.1750    2.2680   19.0600 C   0  0  0  0  0  0  0  0  0  0  0  0
    2.7450    2.6150   20.3100 C   0  0  0  0  0  0  0  0  0  0  0  0
    3.4210    2.1230   21.4510 C   0  0  0  0  0  0  0  0  0  0  0  0
    4.5130    1.3050   21.3150 C   0  0  0  0  0  0  0  0  0  0  0  0
    5.0030    0.9480   20.0230 C   0  0  0  0  0  0  0  0  0  0  0  0
    5.0190    0.9300   22.2000 H   0  0  0  0  0  0  0  0  0  0  0  0
    3.0710    2.4010   22.4410 H   0  0  0  0  0  0  0  0  0  0  0  0
    1.8920    3.2760   20.4360 H   0  0  0  0  0  0  0  0  0  0  0  0
    2.6730    2.6360   18.1690 H   0  0  0  0  0  0  0  0  0  0  0  0
    4.2170    1.3790   16.7230 H   0  0  0  0  0  0  0  0  0  0  0  0
    7.2920   -0.8770   18.2680 H   0  0  0  0  0  0  0  0  0  0  0  0
    6.9470   -1.7500   21.2580 C   0  0  0  0  0  0  0  0  0  0  0  0
    8.0820   -1.8240   22.2960 C   0  0  2  0  0  0  0  0  0  0  0  0
    7.8490   -2.8990   23.3640 C   0  0  0  0  0  0  0  0  0  0  0  0
    7.7960   -3.9000   22.9170 H   0  0  0  0  0  0  0  0  0  0  0  0
    6.9010   -2.7240   23.8850 H   0  0  0  0  0  0  0  0  0  0  0  0
    8.6450   -2.9170   24.1200 H   0  0  0  0  0  0  0  0  0  0  0  0
    9.0040   -2.0730   21.7700 H   0  0  0  0  0  0  0  0  0  0  0  0
    5.9870   -2.0290   21.7120 H   0  0  0  0  0  0  0  0  0  0  0  0
    7.1060   -2.3870   20.3900 H   0  0  0  0  0  0  0  0  0  0  0  0
    9.6830    0.0940   22.9870 C   0  0  0  0  0  0  0  0  0  0  0  0
   10.6790   -0.3350   22.1050 C   0  0  0  0  0  0  0  0  0  0  0  0
   11.9640    0.1300   22.2860 C   0  0  0  0  0  0  0  0  0  0  0  0
   13.1780   -0.2800   21.1410 Cl  0  0  0  0  0  0  0  0  0  0  0  0
   12.3130    0.9870   23.3290 C   0  0  0  0  0  0  0  0  0  0  0  0
   11.3010    1.4980   24.1100 C   0  0  0  0  0  0  0  0  0  0  0  0
    9.9860    1.1020   23.9080 C   0  0  0  0  0  0  0  0  0  0  0  0
    8.8940    1.8900   24.5510 C   0  0  0  0  0  0  0  0  0  0  0  0
    9.0620    3.0040   25.0340 O   0  0  0  0  0  0  0  0  0  0  0  0
   11.4770    2.2600   24.8450 H   0  0  0  0  0  0  0  0  0  0  0  0
   13.3490    1.2810   23.4660 H   0  0  0  0  0  0  0  0  0  0  0  0
   10.4670   -0.9900   21.2610 H   0  0  0  0  0  0  0  0  0  0  0  0
    6.4170   -0.2520   23.9550 H   0  0  0  0  0  0  0  0  0  0  0  0
    7.8440   -0.7650   24.8900 H   0  0  0  0  0  0  0  0  0  0  0  0
    6.7950    3.1100   24.8180 H   0  0  0  0  0  0  0  0  0  0  0  0
    5.6700    1.7610   24.5360 H   0  0  0  0  0  0  0  0  0  0  0  0
    7.3610    3.6020   26.9670 H   0  0  0  0  0  0  0  0  0  0  0  0
    7.1100    1.7750   29.1090 H   0  0  0  0  0  0  0  0  0  0  0  0
    5.5890    2.6390   29.0570 H   0  0  0  0  0  0  0  0  0  0  0  0
    6.5530    4.9840   29.9790 C   0  0  0  0  0  0  0  0  0  0  0  0
    5.4830    5.0590   29.7960 H   0  0  0  0  0  0  0  0  0  0  0  0
    9.2500    2.9790   29.6310 H   0  0  0  0  0  0  0  0  0  0  0  0
   10.3180    4.8430   30.8080 H   0  0  0  0  0  0  0  0  0  0  0  0
    9.0080    6.8310   31.4850 H   0  0  0  0  0  0  0  0  0  0  0  0
    6.0120    8.8630   31.7740 H   0  0  0  0  0  0  0  0  0  0  0  0
    7.2860    7.9260   32.6200 H   0  0  0  0  0  0  0  0  0  0  0  0
    7.6400    8.6860   31.0420 H   0  0  0  0  0  0  0  0  0  0  0  0
  1  2  1  0  0  0  0
  1 68  1  0  0  0  0
  1 69  1  0  0  0  0
  1 70  1  0  0  0  0
  2  3  1  0  0  0  0
  3  4  2  0  0  0  0
  3 63  1  0  0  0  0
  4  5  1  0  0  0  0
  4 67  1  0  0  0  0
  5  6  2  0  0  0  0
  5 66  1  0  0  0  0
  6  7  1  0  0  0  0
  6 65  1  0  0  0  0
  7  8  1  0  0  0  0
  7 63  2  0  0  0  0
  8  9  1  0  0  0  0
  8 61  1  0  0  0  0
  8 62  1  0  0  0  0
  9 10  1  0  0  0  0
  9 60  1  0  0  0  0
 10 11  2  0  0  0  0
 10 12  1  0  0  0  0
 12 13  1  0  0  0  0
 12 58  1  0  0  0  0
 12 59  1  0  0  0  0
 13 14  1  0  0  0  0
 13 51  1  0  0  0  0
 14 15  1  0  0  0  0
 14 56  1  0  0  0  0
 14 57  1  0  0  0  0
 15 16  1  6  0  0  0
 15 36  1  0  0  0  0
 15 44  1  0  0  0  0
 16 17  2  0  0  0  0
 16 18  1  0  0  0  0
 18 19  1  0  0  0  0
 18 35  1  0  0  0  0
 19 20  2  0  0  0  0
 19 28  1  0  0  0  0
 20 21  1  0  0  0  0
 20 34  1  0  0  0  0
 21 22  2  0  0  0  0
 22 23  1  0  0  0  0
 22 33  1  0  0  0  0
 23 24  2  0  0  0  0
 23 28  1  0  0  0  0
 24 25  1  0  0  0  0
 24 32  1  0  0  0  0
 25 26  2  0  0  0  0
 25 31  1  0  0  0  0
 26 27  1  0  0  0  0
 26 30  1  0  0  0  0
 27 28  2  0  0  0  0
 27 29  1  0  0  0  0
 35 36  1  0  0  0  0
 35 42  1  0  0  0  0
 35 43  1  0  0  0  0
 36 37  1  0  0  0  0
 36 41  1  6  0  0  0
 37 38  1  0  0  0  0
 37 39  1  0  0  0  0
 37 40  1  0  0  0  0
 44 45  2  0  0  0  0
 44 50  1  0  0  0  0
 45 46  1  0  0  0  0
 45 55  1  0  0  0  0
 46 47  1  0  0  0  0
 46 48  2  0  0  0  0
 48 49  1  0  0  0  0
 48 54  1  0  0  0  0
 49 50  2  0  0  0  0
 49 53  1  0  0  0  0
 50 51  1  0  0  0  0
 51 52  2  0  0  0  0
 63 64  1  0  0  0  0
M  END
>  <MODEL>
       1

$$$$
