output/tmp_first_model_15_37.pdb
 OpenBabel07232601353D

 48 51  0  0  0  0  0  0  0  0999 V2000
   12.0040    5.6030   25.5100 N   0  0  0  0  0  0  0  0  0  0  0  0
   11.5150    4.6990   24.9760 C   0  0  0  0  0  0  0  0  0  0  0  0
   10.7450    3.6190   24.4290 C   0  0  0  0  0  0  0  0  0  0  0  0
    9.5120    3.3700   25.0380 C   0  0  0  0  0  0  0  0  0  0  0  0
    8.6520    2.4320   24.4980 C   0  0  0  0  0  0  0  0  0  0  0  0
    9.0010    1.7460   23.3320 C   0  0  0  0  0  0  0  0  0  0  0  0
    8.0680    0.8200   22.7830 N   0  0  0  0  0  0  0  0  0  0  0  0
    7.5900   -0.2340   23.6750 C   0  0  0  0  0  0  0  0  0  0  0  0
    8.2680   -1.5620   23.4040 C   0  0  0  0  0  0  0  0  0  0  0  0
    9.6610   -1.6080   23.3980 C   0  0  0  0  0  0  0  0  0  0  0  0
   10.3110   -2.8310   23.3250 C   0  0  0  0  0  0  0  0  0  0  0  0
    9.5810   -4.0030   23.1630 C   0  0  0  0  0  0  0  0  0  0  0  0
    8.1960   -3.9440   23.0830 C   0  0  0  0  0  0  0  0  0  0  0  0
    7.2990   -5.4140   22.8170 Cl  0  0  0  0  0  0  0  0  0  0  0  0
    7.5310   -2.7280   23.1900 C   0  0  0  0  0  0  0  0  0  0  0  0
    6.4500   -2.6880   23.0890 H   0  0  0  0  0  0  0  0  0  0  0  0
   10.0920   -4.9580   23.1400 H   0  0  0  0  0  0  0  0  0  0  0  0
   11.3950   -2.8960   23.3910 H   0  0  0  0  0  0  0  0  0  0  0  0
   10.2050   -0.6620   23.4580 H   0  0  0  0  0  0  0  0  0  0  0  0
    7.8080    0.1070   24.6920 H   0  0  0  0  0  0  0  0  0  0  0  0
    6.4970   -0.3240   23.6070 H   0  0  0  0  0  0  0  0  0  0  0  0
    7.9300    0.7160   21.4050 C   0  0  0  0  0  0  0  0  0  0  0  0
    8.5440    1.4210   20.6290 O   0  0  0  0  0  0  0  0  0  0  0  0
    6.9520   -0.3580   20.8920 C   0  0  0  0  0  0  0  0  0  0  0  0
    6.1100    0.1240   19.7520 C   0  0  0  0  0  0  0  0  0  0  0  0
    6.4340   -0.1800   18.4570 C   0  0  0  0  0  0  0  0  0  0  0  0
    5.7540    0.2450   17.3620 N   0  0  0  0  0  0  0  0  0  0  0  0
    4.7200    1.0200   17.5670 C   0  0  0  0  0  0  0  0  0  0  0  0
    4.2630    1.4120   18.8560 C   0  0  0  0  0  0  0  0  0  0  0  0
    3.1380    2.2550   19.0280 C   0  0  0  0  0  0  0  0  0  0  0  0
    2.7300    2.6280   20.2800 C   0  0  0  0  0  0  0  0  0  0  0  0
    3.4340    2.1690   21.4160 C   0  0  0  0  0  0  0  0  0  0  0  0
    4.5300    1.3550   21.2770 C   0  0  0  0  0  0  0  0  0  0  0  0
    4.9760    0.9550   19.9880 C   0  0  0  0  0  0  0  0  0  0  0  0
    5.0650    1.0260   22.1650 H   0  0  0  0  0  0  0  0  0  0  0  0
    3.1040    2.4670   22.4070 H   0  0  0  0  0  0  0  0  0  0  0  0
    1.8740    3.2850   20.4030 H   0  0  0  0  0  0  0  0  0  0  0  0
    2.6310    2.6130   18.1360 H   0  0  0  0  0  0  0  0  0  0  0  0
    4.1850    1.3720   16.6840 H   0  0  0  0  0  0  0  0  0  0  0  0
    7.2890   -0.8230   18.2460 H   0  0  0  0  0  0  0  0  0  0  0  0
    6.3010   -0.7150   21.6930 H   0  0  0  0  0  0  0  0  0  0  0  0
    7.5610   -1.2130   20.5650 H   0  0  0  0  0  0  0  0  0  0  0  0
   10.2790    1.9180   22.7910 C   0  0  0  0  0  0  0  0  0  0  0  0
   11.1510    2.8560   23.3320 C   0  0  0  0  0  0  0  0  0  0  0  0
   12.1430    2.9940   22.9050 H   0  0  0  0  0  0  0  0  0  0  0  0
   10.5830    1.3140   21.9430 H   0  0  0  0  0  0  0  0  0  0  0  0
    7.6940    2.2390   24.9730 H   0  0  0  0  0  0  0  0  0  0  0  0
    9.2640    3.9050   25.9480 H   0  0  0  0  0  0  0  0  0  0  0  0
  1  2  3  0  0  0  0
  2  3  1  0  0  0  0
  3  4  2  0  0  0  0
  3 44  1  0  0  0  0
  4  5  1  0  0  0  0
  4 48  1  0  0  0  0
  5  6  2  0  0  0  0
  5 47  1  0  0  0  0
  6  7  1  0  0  0  0
  6 43  1  0  0  0  0
  7  8  1  0  0  0  0
  7 22  1  0  0  0  0
  8  9  1  0  0  0  0
  8 20  1  0  0  0  0
  8 21  1  0  0  0  0
  9 10  2  0  0  0  0
  9 15  1  0  0  0  0
 10 11  1  0  0  0  0
 10 19  1  0  0  0  0
 11 12  2  0  0  0  0
 11 18  1  0  0  0  0
 12 13  1  0  0  0  0
 12 17  1  0  0  0  0
 13 14  1  0  0  0  0
 13 15  2  0  0  0  0
 15 16  1  0  0  0  0
 22 23  2  0  0  0  0
 22 24  1  0  0  0  0
 24 25  1  0  0  0  0
 24 41  1  0  0  0  0
 24 42  1  0  0  0  0
 25 26  2  0  0  0  0
 25 34  1  0  0  0  0
 26 27  1  0  0  0  0
 26 40  1  0  0  0  0
 27 28  2  0  0  0  0
 28 29  1  0  0  0  0
 28 39  1  0  0  0  0
 29 30  2  0  0  0  0
 29 34  1  0  0  0  0
 30 31  1  0  0  0  0
 30 38  1  0  0  0  0
 31 32  2  0  0  0  0
 31 37  1  0  0  0  0
 32 33  1  0  0  0  0
 32 36  1  0  0  0  0
 33 34  2  0  0  0  0
 33 35  1  0  0  0  0
 43 44  2  0  0  0  0
 43 46  1  0  0  0  0
 44 45  1  0  0  0  0
M  END
>  <MODEL>
       1

$$$$
