output/tmp_first_model_7_80.pdb
 OpenBabel07222621533D

 59 64  0  0  1  0  0  0  0  0999 V2000
    9.6650    0.3040   23.1000 C   0  0  0  0  0  0  0  0  0  0  0  0
    8.3050   -0.2670   22.7080 C   0  0  1  0  0  0  0  0  0  0  0  0
    7.7200    0.4770   21.4990 C   0  0  0  0  0  0  0  0  0  0  0  0
    6.7470   -0.4630   20.9710 N   0  0  0  0  0  0  0  0  0  0  0  0
    5.9030   -0.1310   19.8720 C   0  0  0  0  0  0  0  0  0  0  0  0
    6.3770   -0.1730   18.5850 C   0  0  0  0  0  0  0  0  0  0  0  0
    5.7270    0.3440   17.5120 N   0  0  0  0  0  0  0  0  0  0  0  0
    4.5530    0.8870   17.7070 C   0  0  0  0  0  0  0  0  0  0  0  0
    3.8940    0.9080   18.9670 C   0  0  0  0  0  0  0  0  0  0  0  0
    2.6190    1.5090   19.1350 C   0  0  0  0  0  0  0  0  0  0  0  0
    2.0140    1.5110   20.3630 C   0  0  0  0  0  0  0  0  0  0  0  0
    2.6720    0.9520   21.4770 C   0  0  0  0  0  0  0  0  0  0  0  0
    3.9260    0.4070   21.3480 C   0  0  0  0  0  0  0  0  0  0  0  0
    4.5770    0.3750   20.0870 C   0  0  0  0  0  0  0  0  0  0  0  0
    4.4630    0.0460   22.2160 H   0  0  0  0  0  0  0  0  0  0  0  0
    2.1970    0.9990   22.4560 H   0  0  0  0  0  0  0  0  0  0  0  0
    1.0470    1.9880   20.4970 H   0  0  0  0  0  0  0  0  0  0  0  0
    2.1630    2.0040   18.2840 H   0  0  0  0  0  0  0  0  0  0  0  0
    4.0630    1.3360   16.8390 H   0  0  0  0  0  0  0  0  0  0  0  0
    7.3420   -0.6260   18.3690 H   0  0  0  0  0  0  0  0  0  0  0  0
    7.0540   -1.7710   21.2850 C   0  0  0  0  0  0  0  0  0  0  0  0
    6.4670   -2.7350   20.8360 O   0  0  0  0  0  0  0  0  0  0  0  0
    8.2170   -1.7900   22.3150 C   0  0  1  0  0  0  0  0  0  0  0  0
    9.4810   -2.3340   21.6020 C   0  0  0  0  0  0  0  0  0  0  0  0
   10.5840   -2.6310   22.5320 N   0  0  0  0  0  0  0  0  0  0  0  0
   11.9330   -2.7340   21.9750 C   0  0  0  0  0  0  0  0  0  0  0  0
   12.7710   -1.4950   21.9230 C   0  0  0  0  0  0  0  0  0  0  0  0
   13.0850   -0.7940   20.7930 C   0  0  0  0  0  0  0  0  0  0  0  0
   13.8820    0.2800   21.2160 C   0  0  0  0  0  0  0  0  0  0  0  0
   14.1190    0.2050   22.5160 N   0  0  0  0  0  0  0  0  0  0  0  0
   13.4410   -0.8820   22.9420 N   0  0  0  0  0  0  0  0  0  0  0  0
   13.7550   -1.4050   24.2610 C   0  0  0  0  0  0  0  0  0  0  0  0
   14.3230   -0.6250   24.7720 H   0  0  0  0  0  0  0  0  0  0  0  0
   12.8350   -1.6440   24.8020 H   0  0  0  0  0  0  0  0  0  0  0  0
   14.3910   -2.2990   24.2020 H   0  0  0  0  0  0  0  0  0  0  0  0
   14.3620    1.0510   20.6270 H   0  0  0  0  0  0  0  0  0  0  0  0
   12.8530   -1.1250   19.7890 H   0  0  0  0  0  0  0  0  0  0  0  0
   12.4700   -3.4870   22.5530 H   0  0  0  0  0  0  0  0  0  0  0  0
   11.8360   -3.0800   20.9400 H   0  0  0  0  0  0  0  0  0  0  0  0
   10.3490   -3.3720   23.6680 C   0  0  0  0  0  0  0  0  0  0  0  0
   11.2520   -3.8600   24.3380 O   0  0  0  0  0  0  0  0  0  0  0  0
    8.9190   -3.5290   24.0540 C   0  0  0  0  0  0  0  0  0  0  0  0
    8.6230   -4.4740   25.0340 C   0  0  0  0  0  0  0  0  0  0  0  0
    7.3170   -4.7110   25.4150 C   0  0  0  0  0  0  0  0  0  0  0  0
    6.3240   -3.9400   24.8260 C   0  0  0  0  0  0  0  0  0  0  0  0
    5.0490   -4.1590   25.1860 F   0  0  0  0  0  0  0  0  0  0  0  0
    6.5980   -2.9620   23.8910 C   0  0  0  0  0  0  0  0  0  0  0  0
    7.9120   -2.7630   23.4490 C   0  0  0  0  0  0  0  0  0  0  0  0
    5.7770   -2.3850   23.4860 H   0  0  0  0  0  0  0  0  0  0  0  0
    7.0620   -5.4690   26.1470 H   0  0  0  0  0  0  0  0  0  0  0  0
    9.4510   -5.0160   25.4770 H   0  0  0  0  0  0  0  0  0  0  0  0
    9.1700   -3.2410   21.0640 H   0  0  0  0  0  0  0  0  0  0  0  0
    9.8300   -1.6210   20.8480 H   0  0  0  0  0  0  0  0  0  0  0  0
    7.2470    1.4240   21.7760 H   0  0  0  0  0  0  0  0  0  0  0  0
    8.5030    0.7200   20.7620 H   0  0  0  0  0  0  0  0  0  0  0  0
    7.6040   -0.1360   23.5430 H   0  0  0  0  0  0  0  0  0  0  0  0
   10.3830    0.1990   22.2790 H   0  0  0  0  0  0  0  0  0  0  0  0
    9.5700    1.3740   23.3190 H   0  0  0  0  0  0  0  0  0  0  0  0
   10.0780   -0.1870   23.9850 H   0  0  0  0  0  0  0  0  0  0  0  0
  1  2  1  0  0  0  0
  1 57  1  0  0  0  0
  1 58  1  0  0  0  0
  1 59  1  0  0  0  0
  2  3  1  0  0  0  0
  2 23  1  0  0  0  0
  2 56  1  1  0  0  0
  3  4  1  0  0  0  0
  3 54  1  0  0  0  0
  3 55  1  0  0  0  0
  4  5  1  0  0  0  0
  4 21  1  0  0  0  0
  5  6  2  0  0  0  0
  5 14  1  0  0  0  0
  6  7  1  0  0  0  0
  6 20  1  0  0  0  0
  7  8  2  0  0  0  0
  8  9  1  0  0  0  0
  8 19  1  0  0  0  0
  9 10  2  0  0  0  0
  9 14  1  0  0  0  0
 10 11  1  0  0  0  0
 10 18  1  0  0  0  0
 11 12  2  0  0  0  0
 11 17  1  0  0  0  0
 12 13  1  0  0  0  0
 12 16  1  0  0  0  0
 13 14  2  0  0  0  0
 13 15  1  0  0  0  0
 21 22  2  0  0  0  0
 23 21  1  6  0  0  0
 23 24  1  0  0  0  0
 23 48  1  0  0  0  0
 24 25  1  0  0  0  0
 24 52  1  0  0  0  0
 24 53  1  0  0  0  0
 25 26  1  0  0  0  0
 25 40  1  0  0  0  0
 26 27  1  0  0  0  0
 26 38  1  0  0  0  0
 26 39  1  0  0  0  0
 27 28  2  0  0  0  0
 27 31  1  0  0  0  0
 28 29  1  0  0  0  0
 28 37  1  0  0  0  0
 29 30  2  0  0  0  0
 29 36  1  0  0  0  0
 30 31  1  0  0  0  0
 31 32  1  0  0  0  0
 32 33  1  0  0  0  0
 32 34  1  0  0  0  0
 32 35  1  0  0  0  0
 40 41  2  0  0  0  0
 40 42  1  0  0  0  0
 42 43  2  0  0  0  0
 42 48  1  0  0  0  0
 43 44  1  0  0  0  0
 43 51  1  0  0  0  0
 44 45  2  0  0  0  0
 44 50  1  0  0  0  0
 45 46  1  0  0  0  0
 45 47  1  0  0  0  0
 47 48  2  0  0  0  0
 47 49  1  0  0  0  0
M  END
>  <MODEL>
       1

$$$$
