output/tmp_first_model_11_60.pdb
 OpenBabel07222623443D

 38 41  0  0  0  0  0  0  0  0999 V2000
    8.6110    1.2640   20.7310 O   0  0  0  0  0  0  0  0  0  0  0  0
    7.8620    0.6710   21.4860 C   0  0  0  0  0  0  0  0  0  0  0  0
    6.9470   -0.4380   20.9210 C   0  0  0  0  0  0  0  0  0  0  0  0
    6.1090    0.0830   19.7690 C   0  0  0  0  0  0  0  0  0  0  0  0
    6.4270   -0.2070   18.4660 C   0  0  0  0  0  0  0  0  0  0  0  0
    5.7570    0.2430   17.3700 N   0  0  0  0  0  0  0  0  0  0  0  0
    4.7320    1.0300   17.5780 C   0  0  0  0  0  0  0  0  0  0  0  0
    4.2830    1.4200   18.8700 C   0  0  0  0  0  0  0  0  0  0  0  0
    3.1640    2.2730   19.0460 C   0  0  0  0  0  0  0  0  0  0  0  0
    2.7630    2.6460   20.3000 C   0  0  0  0  0  0  0  0  0  0  0  0
    3.4610    2.1690   21.4310 C   0  0  0  0  0  0  0  0  0  0  0  0
    4.5450    1.3360   21.2880 C   0  0  0  0  0  0  0  0  0  0  0  0
    4.9890    0.9390   19.9980 C   0  0  0  0  0  0  0  0  0  0  0  0
    5.0710    0.9870   22.1710 H   0  0  0  0  0  0  0  0  0  0  0  0
    3.1360    2.4670   22.4220 H   0  0  0  0  0  0  0  0  0  0  0  0
    1.9140    3.3110   20.4330 H   0  0  0  0  0  0  0  0  0  0  0  0
    2.6490    2.6480   18.1650 H   0  0  0  0  0  0  0  0  0  0  0  0
    4.1990    1.3990   16.6990 H   0  0  0  0  0  0  0  0  0  0  0  0
    7.2730   -0.8560   18.2440 H   0  0  0  0  0  0  0  0  0  0  0  0
    6.3030   -0.8990   21.6770 H   0  0  0  0  0  0  0  0  0  0  0  0
    7.6000   -1.2270   20.5330 H   0  0  0  0  0  0  0  0  0  0  0  0
    7.7590    1.0130   22.8230 N   0  0  0  0  0  0  0  0  0  0  0  0
    8.3090    2.3190   23.2110 C   0  0  0  0  0  0  0  0  0  0  0  0
    7.6740    2.8450   24.4960 C   0  0  0  0  0  0  0  0  0  0  0  0
    7.7330    1.7970   25.5580 C   0  0  0  0  0  0  0  0  0  0  0  0
    7.7580    2.0610   27.2690 S   0  0  0  0  0  0  0  0  0  0  0  0
    7.7860    0.3640   27.5680 C   0  0  0  0  0  0  0  0  0  0  0  0
    7.7240   -0.3600   26.4140 C   0  0  0  0  0  0  0  0  0  0  0  0
    7.6970    0.4750   25.2540 C   0  0  0  0  0  0  0  0  0  0  0  0
    7.5140   -0.0060   23.8390 C   0  0  0  0  0  0  0  0  0  0  0  0
    8.1570   -0.8830   23.6940 H   0  0  0  0  0  0  0  0  0  0  0  0
    6.4920   -0.3930   23.7460 H   0  0  0  0  0  0  0  0  0  0  0  0
    7.6730   -1.4460   26.3960 H   0  0  0  0  0  0  0  0  0  0  0  0
    7.8310    0.0010   28.5850 H   0  0  0  0  0  0  0  0  0  0  0  0
    8.1600    3.7700   24.8150 H   0  0  0  0  0  0  0  0  0  0  0  0
    6.6240    3.1050   24.3130 H   0  0  0  0  0  0  0  0  0  0  0  0
    9.3970    2.2720   23.3340 H   0  0  0  0  0  0  0  0  0  0  0  0
    8.1200    3.0130   22.3900 H   0  0  0  0  0  0  0  0  0  0  0  0
  1  2  2  0  0  0  0
  2  3  1  0  0  0  0
  2 22  1  0  0  0  0
  3  4  1  0  0  0  0
  3 20  1  0  0  0  0
  3 21  1  0  0  0  0
  4  5  2  0  0  0  0
  4 13  1  0  0  0  0
  5  6  1  0  0  0  0
  5 19  1  0  0  0  0
  6  7  2  0  0  0  0
  7  8  1  0  0  0  0
  7 18  1  0  0  0  0
  8  9  2  0  0  0  0
  8 13  1  0  0  0  0
  9 10  1  0  0  0  0
  9 17  1  0  0  0  0
 10 11  2  0  0  0  0
 10 16  1  0  0  0  0
 11 12  1  0  0  0  0
 11 15  1  0  0  0  0
 12 13  2  0  0  0  0
 12 14  1  0  0  0  0
 22 23  1  0  0  0  0
 22 30  1  0  0  0  0
 23 24  1  0  0  0  0
 23 37  1  0  0  0  0
 23 38  1  0  0  0  0
 24 25  1  0  0  0  0
 24 35  1  0  0  0  0
 24 36  1  0  0  0  0
 25 26  1  0  0  0  0
 25 29  2  0  0  0  0
 26 27  1  0  0  0  0
 27 28  2  0  0  0  0
 27 34  1  0  0  0  0
 28 29  1  0  0  0  0
 28 33  1  0  0  0  0
 29 30  1  0  0  0  0
 30 31  1  0  0  0  0
 30 32  1  0  0  0  0
M  END
>  <MODEL>
       1

$$$$
