output/tmp_first_model_18_70.pdb
 OpenBabel07232602473D

 57 62  0  0  1  0  0  0  0  0999 V2000
    9.6760   -1.8330   22.7030 C   0  0  0  0  0  0  0  0  0  0  0  0
    8.3260   -1.1940   22.4240 C   0  0  1  0  0  0  0  0  0  0  0  0
    8.1120   -0.7790   20.9710 C   0  0  0  0  0  0  0  0  0  0  0  0
    6.6780   -0.5630   20.9280 N   0  0  0  0  0  0  0  0  0  0  0  0
    6.0390    0.0690   19.8400 C   0  0  0  0  0  0  0  0  0  0  0  0
    6.5060   -0.1270   18.5610 C   0  0  0  0  0  0  0  0  0  0  0  0
    5.9220    0.3570   17.4420 N   0  0  0  0  0  0  0  0  0  0  0  0
    4.8560    1.1020   17.5870 C   0  0  0  0  0  0  0  0  0  0  0  0
    4.3180    1.4620   18.8530 C   0  0  0  0  0  0  0  0  0  0  0  0
    3.1820    2.3070   18.9420 C   0  0  0  0  0  0  0  0  0  0  0  0
    2.7170    2.7110   20.1610 C   0  0  0  0  0  0  0  0  0  0  0  0
    3.3710    2.2850   21.3380 C   0  0  0  0  0  0  0  0  0  0  0  0
    4.4560    1.4470   21.2820 C   0  0  0  0  0  0  0  0  0  0  0  0
    4.9390    0.9760   20.0260 C   0  0  0  0  0  0  0  0  0  0  0  0
    4.9390    1.1400   22.2050 H   0  0  0  0  0  0  0  0  0  0  0  0
    3.0080    2.6340   22.2990 H   0  0  0  0  0  0  0  0  0  0  0  0
    1.8590    3.3720   20.2290 H   0  0  0  0  0  0  0  0  0  0  0  0
    2.7170    2.6460   18.0200 H   0  0  0  0  0  0  0  0  0  0  0  0
    4.3720    1.4780   16.6850 H   0  0  0  0  0  0  0  0  0  0  0  0
    7.3980   -0.7260   18.3890 H   0  0  0  0  0  0  0  0  0  0  0  0
    6.0200   -1.3690   21.8420 C   0  0  0  0  0  0  0  0  0  0  0  0
    4.8400   -1.6270   21.7820 O   0  0  0  0  0  0  0  0  0  0  0  0
    7.0320   -1.9440   22.8730 C   0  0  1  0  0  0  0  0  0  0  0  0
    7.0930   -3.4940   22.6910 C   0  0  0  0  0  0  0  0  0  0  0  0
    6.0070   -4.2150   23.3720 N   0  0  0  0  0  0  0  0  0  0  0  0
    5.4670   -5.4630   22.8270 C   0  0  0  0  0  0  0  0  0  0  0  0
    6.3910   -6.6450   22.7810 C   0  0  0  0  0  0  0  0  0  0  0  0
    7.2720   -6.7040   21.7640 N   0  0  0  0  0  0  0  0  0  0  0  0
    7.8920   -7.8280   21.9090 N   0  0  0  0  0  0  0  0  0  0  0  0
    7.4050   -8.4320   22.9420 N   0  0  0  0  0  0  0  0  0  0  0  0
    8.0240   -9.7210   23.1840 C   0  0  0  0  0  0  0  0  0  0  0  0
    8.6770   -9.8250   22.3510 H   0  0  0  0  0  0  0  0  0  0  0  0
    7.3220  -10.5460   23.2810 H   0  0  0  0  0  0  0  0  0  0  0  0
    8.7850   -9.7030   23.9670 H   0  0  0  0  0  0  0  0  0  0  0  0
    6.4470   -7.7360   23.5550 N   0  0  0  0  0  0  0  0  0  0  0  0
    5.1600   -5.2600   21.7930 H   0  0  0  0  0  0  0  0  0  0  0  0
    4.5910   -5.7080   23.4330 H   0  0  0  0  0  0  0  0  0  0  0  0
    5.6330   -3.9140   24.6550 C   0  0  0  0  0  0  0  0  0  0  0  0
    4.9450   -4.6760   25.3250 O   0  0  0  0  0  0  0  0  0  0  0  0
    6.1020   -2.5980   25.1770 C   0  0  0  0  0  0  0  0  0  0  0  0
    5.8720   -2.3430   26.5310 C   0  0  0  0  0  0  0  0  0  0  0  0
    6.2150   -1.1310   27.1010 C   0  0  0  0  0  0  0  0  0  0  0  0
    6.7440   -0.1700   26.2500 C   0  0  0  0  0  0  0  0  0  0  0  0
    7.0740    1.0280   26.7630 F   0  0  0  0  0  0  0  0  0  0  0  0
    6.9540   -0.3850   24.9050 C   0  0  0  0  0  0  0  0  0  0  0  0
    6.6800   -1.6400   24.3310 C   0  0  0  0  0  0  0  0  0  0  0  0
    7.3410    0.4520   24.3350 H   0  0  0  0  0  0  0  0  0  0  0  0
    6.0870   -0.9050   28.1550 H   0  0  0  0  0  0  0  0  0  0  0  0
    5.4270   -3.1380   27.1220 H   0  0  0  0  0  0  0  0  0  0  0  0
    7.0400   -3.7350   21.6250 H   0  0  0  0  0  0  0  0  0  0  0  0
    8.0530   -3.8720   23.0700 H   0  0  0  0  0  0  0  0  0  0  0  0
    8.4460   -1.5450   20.2530 H   0  0  0  0  0  0  0  0  0  0  0  0
    8.6280    0.1560   20.7430 H   0  0  0  0  0  0  0  0  0  0  0  0
    8.2860   -0.2510   22.9630 H   0  0  0  0  0  0  0  0  0  0  0  0
    9.8020   -2.0850   23.7600 H   0  0  0  0  0  0  0  0  0  0  0  0
    9.8100   -2.7500   22.1220 H   0  0  0  0  0  0  0  0  0  0  0  0
   10.4850   -1.1480   22.4250 H   0  0  0  0  0  0  0  0  0  0  0  0
  1  2  1  0  0  0  0
  1 55  1  0  0  0  0
  1 56  1  0  0  0  0
  1 57  1  0  0  0  0
  2  3  1  0  0  0  0
  2 23  1  0  0  0  0
  2 54  1  1  0  0  0
  3  4  1  0  0  0  0
  3 52  1  0  0  0  0
  3 53  1  0  0  0  0
  4  5  1  0  0  0  0
  4 21  1  0  0  0  0
  5  6  2  0  0  0  0
  5 14  1  0  0  0  0
  6  7  1  0  0  0  0
  6 20  1  0  0  0  0
  7  8  2  0  0  0  0
  8  9  1  0  0  0  0
  8 19  1  0  0  0  0
  9 10  2  0  0  0  0
  9 14  1  0  0  0  0
 10 11  1  0  0  0  0
 10 18  1  0  0  0  0
 11 12  2  0  0  0  0
 11 17  1  0  0  0  0
 12 13  1  0  0  0  0
 12 16  1  0  0  0  0
 13 14  2  0  0  0  0
 13 15  1  0  0  0  0
 21 22  2  0  0  0  0
 23 21  1  6  0  0  0
 23 24  1  0  0  0  0
 23 46  1  0  0  0  0
 24 25  1  0  0  0  0
 24 50  1  0  0  0  0
 24 51  1  0  0  0  0
 25 26  1  0  0  0  0
 25 38  1  0  0  0  0
 26 27  1  0  0  0  0
 26 36  1  0  0  0  0
 26 37  1  0  0  0  0
 27 28  1  0  0  0  0
 27 35  2  0  0  0  0
 28 29  2  0  0  0  0
 29 30  1  0  0  0  0
 30 31  1  0  0  0  0
 30 35  1  0  0  0  0
 31 32  1  0  0  0  0
 31 33  1  0  0  0  0
 31 34  1  0  0  0  0
 38 39  2  0  0  0  0
 38 40  1  0  0  0  0
 40 41  2  0  0  0  0
 40 46  1  0  0  0  0
 41 42  1  0  0  0  0
 41 49  1  0  0  0  0
 42 43  2  0  0  0  0
 42 48  1  0  0  0  0
 43 44  1  0  0  0  0
 43 45  1  0  0  0  0
 45 46  2  0  0  0  0
 45 47  1  0  0  0  0
M  END
>  <MODEL>
       1

$$$$
