output/tmp_first_model_11_10.pdb
 OpenBabel07222623443D

 72 77  0  0  1  0  0  0  0  0999 V2000
    7.7250    6.7370   27.2240 C   0  0  0  0  0  0  0  0  0  0  0  0
    8.3630    7.0420   25.8690 C   0  0  1  0  0  0  0  0  0  0  0  0
    8.9140    5.8410   25.0910 C   0  0  0  0  0  0  0  0  0  0  0  0
    7.8140    4.9170   24.6000 N   0  3  2  0  0  0  0  0  0  0  0  0
    8.2530    3.7110   23.8190 C   0  0  0  0  0  0  0  0  0  0  0  0
    8.6960    2.5870   24.7470 C   0  0  0  0  0  0  0  0  0  0  0  0
    9.1980    1.4050   24.0790 N   0  0  0  0  0  0  0  0  0  0  0  0
    8.4070    0.1910   24.0070 C   0  0  0  0  0  0  0  0  0  0  0  0
    8.4490   -0.4730   22.6170 C   0  0  2  0  0  0  0  0  0  0  0  0
    7.7530    0.4020   21.5600 C   0  0  0  0  0  0  0  0  0  0  0  0
    7.9440    1.5830   21.3380 O   0  0  0  0  0  0  0  0  0  0  0  0
    6.8670   -0.3810   20.8720 N   0  0  0  0  0  0  0  0  0  0  0  0
    6.1180    0.1120   19.7830 C   0  0  0  0  0  0  0  0  0  0  0  0
    6.4360   -0.2360   18.4950 C   0  0  0  0  0  0  0  0  0  0  0  0
    5.7670    0.2100   17.4050 N   0  0  0  0  0  0  0  0  0  0  0  0
    4.7480    1.0100   17.6040 C   0  0  0  0  0  0  0  0  0  0  0  0
    4.2950    1.4150   18.8920 C   0  0  0  0  0  0  0  0  0  0  0  0
    3.1690    2.2620   19.0600 C   0  0  0  0  0  0  0  0  0  0  0  0
    2.7540    2.6260   20.3120 C   0  0  0  0  0  0  0  0  0  0  0  0
    3.4330    2.1520   21.4560 C   0  0  0  0  0  0  0  0  0  0  0  0
    4.5230    1.3300   21.3200 C   0  0  0  0  0  0  0  0  0  0  0  0
    4.9910    0.9540   20.0280 C   0  0  0  0  0  0  0  0  0  0  0  0
    5.0400    0.9610   22.2000 H   0  0  0  0  0  0  0  0  0  0  0  0
    3.0940    2.4430   22.4470 H   0  0  0  0  0  0  0  0  0  0  0  0
    1.9010    3.2890   20.4350 H   0  0  0  0  0  0  0  0  0  0  0  0
    2.6620    2.6260   18.1720 H   0  0  0  0  0  0  0  0  0  0  0  0
    4.2190    1.3720   16.7220 H   0  0  0  0  0  0  0  0  0  0  0  0
    7.2890   -0.8860   18.2940 H   0  0  0  0  0  0  0  0  0  0  0  0
    6.9130   -1.7780   21.2170 C   0  0  0  0  0  0  0  0  0  0  0  0
    7.6900   -1.8260   22.5460 C   0  0  2  0  0  0  0  0  0  0  0  0
    6.7830   -2.1450   23.7320 C   0  0  0  0  0  0  0  0  0  0  0  0
    7.3510   -2.2090   24.6650 H   0  0  0  0  0  0  0  0  0  0  0  0
    6.0060   -1.3850   23.8530 H   0  0  0  0  0  0  0  0  0  0  0  0
    6.2980   -3.1130   23.5800 H   0  0  0  0  0  0  0  0  0  0  0  0
    8.4310   -2.6290   22.5170 H   0  0  0  0  0  0  0  0  0  0  0  0
    5.9000   -2.1760   21.3200 H   0  0  0  0  0  0  0  0  0  0  0  0
    7.4160   -2.3390   20.4270 H   0  0  0  0  0  0  0  0  0  0  0  0
    9.9060   -0.6460   22.2540 C   0  0  0  0  0  0  0  0  0  0  0  0
   10.3100   -1.6580   21.3700 C   0  0  0  0  0  0  0  0  0  0  0  0
   11.6440   -1.7580   21.0450 C   0  0  0  0  0  0  0  0  0  0  0  0
   12.2690   -3.0850   20.1000 Cl  0  0  0  0  0  0  0  0  0  0  0  0
   12.5360   -0.7890   21.4560 C   0  0  0  0  0  0  0  0  0  0  0  0
   12.1640    0.2070   22.3300 C   0  0  0  0  0  0  0  0  0  0  0  0
   10.8410    0.2830   22.7190 C   0  0  0  0  0  0  0  0  0  0  0  0
   10.4730    1.4330   23.6010 C   0  0  0  0  0  0  0  0  0  0  0  0
   11.2610    2.3350   23.8570 O   0  0  0  0  0  0  0  0  0  0  0  0
   12.8500    0.9540   22.7180 H   0  0  0  0  0  0  0  0  0  0  0  0
   13.4830   -0.7950   20.9370 H   0  0  0  0  0  0  0  0  0  0  0  0
    9.6160   -2.3080   20.8470 H   0  0  0  0  0  0  0  0  0  0  0  0
    7.3810    0.4450   24.2710 H   0  0  0  0  0  0  0  0  0  0  0  0
    8.8010   -0.5480   24.7200 H   0  0  0  0  0  0  0  0  0  0  0  0
    9.4990    3.0300   25.3170 H   0  0  0  0  0  0  0  0  0  0  0  0
    7.8940    2.2860   25.4280 H   0  0  0  0  0  0  0  0  0  0  0  0
    7.4300    3.3940   23.1800 H   0  0  0  0  0  0  0  0  0  0  0  0
    9.0800    3.9810   23.1540 H   0  0  0  0  0  0  0  0  0  0  0  0
    6.9200    5.7700   23.7560 C   0  0  0  0  0  0  0  0  0  0  0  0
    6.4090    6.9870   24.5170 C   0  0  2  0  0  0  0  0  0  0  0  0
    5.6130    7.8830   23.5970 C   0  0  0  0  0  0  0  0  0  0  0  0
    6.2580    8.2240   22.7820 H   0  0  0  0  0  0  0  0  0  0  0  0
    5.2430    8.7610   24.1270 H   0  0  0  0  0  0  0  0  0  0  0  0
    4.7630    7.3490   23.1650 H   0  0  0  0  0  0  0  0  0  0  0  0
    7.4760    7.7760   25.0290 O   0  0  0  0  0  0  0  0  0  0  0  0
    5.7780    6.6330   25.3480 H   0  0  0  0  0  0  0  0  0  0  0  0
    6.0810    5.1610   23.4060 H   0  0  0  0  0  0  0  0  0  0  0  0
    7.5030    6.1020   22.8850 H   0  0  0  0  0  0  0  0  0  0  0  0
    7.2790    4.5680   25.4180 H   0  0  0  0  0  0  0  0  0  0  0  0
    9.4060    6.2420   24.2040 H   0  0  0  0  0  0  0  0  0  0  0  0
    9.6610    5.2880   25.6520 H   0  0  0  0  0  0  0  0  0  0  0  0
    9.1990    7.7290   26.0420 H   0  0  0  0  0  0  0  0  0  0  0  0
    7.3130    7.6700   27.6260 H   0  0  0  0  0  0  0  0  0  0  0  0
    8.4500    6.3420   27.9470 H   0  0  0  0  0  0  0  0  0  0  0  0
    6.9060    6.0160   27.1350 H   0  0  0  0  0  0  0  0  0  0  0  0
  1  2  1  0  0  0  0
  1 70  1  0  0  0  0
  1 71  1  0  0  0  0
  1 72  1  0  0  0  0
  2  3  1  0  0  0  0
  2 62  1  0  0  0  0
  2 69  1  1  0  0  0
  3  4  1  0  0  0  0
  3 67  1  0  0  0  0
  3 68  1  0  0  0  0
  4  5  1  0  0  0  0
  4 56  1  0  0  0  0
  4 66  1  1  0  0  0
  5  6  1  0  0  0  0
  5 54  1  0  0  0  0
  5 55  1  0  0  0  0
  6  7  1  0  0  0  0
  6 52  1  0  0  0  0
  6 53  1  0  0  0  0
  7  8  1  0  0  0  0
  7 45  1  0  0  0  0
  8  9  1  0  0  0  0
  8 50  1  0  0  0  0
  8 51  1  0  0  0  0
  9 10  1  6  0  0  0
  9 30  1  0  0  0  0
  9 38  1  0  0  0  0
 10 11  2  0  0  0  0
 10 12  1  0  0  0  0
 12 13  1  0  0  0  0
 12 29  1  0  0  0  0
 13 14  2  0  0  0  0
 13 22  1  0  0  0  0
 14 15  1  0  0  0  0
 14 28  1  0  0  0  0
 15 16  2  0  0  0  0
 16 17  1  0  0  0  0
 16 27  1  0  0  0  0
 17 18  2  0  0  0  0
 17 22  1  0  0  0  0
 18 19  1  0  0  0  0
 18 26  1  0  0  0  0
 19 20  2  0  0  0  0
 19 25  1  0  0  0  0
 20 21  1  0  0  0  0
 20 24  1  0  0  0  0
 21 22  2  0  0  0  0
 21 23  1  0  0  0  0
 29 30  1  0  0  0  0
 29 36  1  0  0  0  0
 29 37  1  0  0  0  0
 30 31  1  0  0  0  0
 30 35  1  6  0  0  0
 31 32  1  0  0  0  0
 31 33  1  0  0  0  0
 31 34  1  0  0  0  0
 38 39  2  0  0  0  0
 38 44  1  0  0  0  0
 39 40  1  0  0  0  0
 39 49  1  0  0  0  0
 40 41  1  0  0  0  0
 40 42  2  0  0  0  0
 42 43  1  0  0  0  0
 42 48  1  0  0  0  0
 43 44  2  0  0  0  0
 43 47  1  0  0  0  0
 44 45  1  0  0  0  0
 45 46  2  0  0  0  0
 56 57  1  0  0  0  0
 56 64  1  0  0  0  0
 56 65  1  0  0  0  0
 57 58  1  0  0  0  0
 57 62  1  0  0  0  0
 57 63  1  1  0  0  0
 58 59  1  0  0  0  0
 58 60  1  0  0  0  0
 58 61  1  0  0  0  0
M  CHG  1   4   1
M  END
>  <MODEL>
       1

$$$$
