output/tmp_first_model_6_24.pdb
 OpenBabel07222621163D

 70 75  0  0  1  0  0  0  0  0999 V2000
    7.6070    1.9740   28.4470 C   0  0  0  0  0  0  0  0  0  0  0  0
    7.9030    0.8300   27.5850 N   0  3  0  0  0  0  0  0  0  0  0  0
    6.6690    0.1580   27.1000 C   0  0  0  0  0  0  0  0  0  0  0  0
    7.0340   -1.0380   26.2220 C   0  0  0  0  0  0  0  0  0  0  0  0
    7.9530   -0.7020   25.1370 N   0  0  0  0  0  0  0  0  0  0  0  0
    7.4660   -0.1140   23.9120 C   0  0  0  0  0  0  0  0  0  0  0  0
    8.3240   -0.5230   22.6880 C   0  0  2  0  0  0  0  0  0  0  0  0
    7.8160    0.3470   21.5320 C   0  0  0  0  0  0  0  0  0  0  0  0
    8.0350    1.5240   21.3180 O   0  0  0  0  0  0  0  0  0  0  0  0
    6.9330   -0.4100   20.7910 N   0  0  0  0  0  0  0  0  0  0  0  0
    6.1570    0.1310   19.7450 C   0  0  0  0  0  0  0  0  0  0  0  0
    6.4610   -0.2170   18.4530 C   0  0  0  0  0  0  0  0  0  0  0  0
    5.7960    0.2280   17.3610 N   0  0  0  0  0  0  0  0  0  0  0  0
    4.7840    1.0360   17.5710 C   0  0  0  0  0  0  0  0  0  0  0  0
    4.3310    1.4350   18.8620 C   0  0  0  0  0  0  0  0  0  0  0  0
    3.2010    2.2780   19.0190 C   0  0  0  0  0  0  0  0  0  0  0  0
    2.7450    2.6060   20.2670 C   0  0  0  0  0  0  0  0  0  0  0  0
    3.4060    2.1120   21.4170 C   0  0  0  0  0  0  0  0  0  0  0  0
    4.5200    1.3170   21.2910 C   0  0  0  0  0  0  0  0  0  0  0  0
    5.0210    0.9650   20.0010 C   0  0  0  0  0  0  0  0  0  0  0  0
    5.0190    0.9500   22.1850 H   0  0  0  0  0  0  0  0  0  0  0  0
    3.0310    2.3770   22.4030 H   0  0  0  0  0  0  0  0  0  0  0  0
    1.8780    3.2530   20.3820 H   0  0  0  0  0  0  0  0  0  0  0  0
    2.7200    2.6560   18.1210 H   0  0  0  0  0  0  0  0  0  0  0  0
    4.2500    1.4070   16.6950 H   0  0  0  0  0  0  0  0  0  0  0  0
    7.2990   -0.8890   18.2670 H   0  0  0  0  0  0  0  0  0  0  0  0
    6.7860   -1.7780   21.2410 C   0  0  0  0  0  0  0  0  0  0  0  0
    7.9900   -1.9610   22.1610 C   0  0  2  0  0  0  0  0  0  0  0  0
    7.8330   -3.0930   23.1720 C   0  0  0  0  0  0  0  0  0  0  0  0
    6.5280   -3.1040   23.7320 O   0  0  0  0  0  0  0  0  0  0  0  0
    6.3400   -4.1410   24.6740 C   0  0  0  0  0  0  0  0  0  0  0  0
    4.9060   -4.0910   25.1740 C   0  0  0  0  0  0  0  0  0  0  0  0
    3.8240   -4.4190   24.1310 C   0  0  0  0  0  0  0  0  0  0  0  0
    3.5100   -5.6570   24.7830 O   0  0  0  0  0  0  0  0  0  0  0  0
    4.3930   -5.3590   25.8730 C   0  0  0  0  0  0  0  0  0  0  0  0
    3.8470   -5.1970   26.8130 H   0  0  0  0  0  0  0  0  0  0  0  0
    5.1200   -6.1650   26.0390 H   0  0  0  0  0  0  0  0  0  0  0  0
    2.9710   -3.7320   24.1170 H   0  0  0  0  0  0  0  0  0  0  0  0
    4.1620   -4.5710   23.0990 H   0  0  0  0  0  0  0  0  0  0  0  0
    4.7270   -3.1630   25.7240 H   0  0  0  0  0  0  0  0  0  0  0  0
    7.0430   -4.0260   25.5200 H   0  0  0  0  0  0  0  0  0  0  0  0
    6.5390   -5.1240   24.2100 H   0  0  0  0  0  0  0  0  0  0  0  0
    8.5990   -2.9830   23.9540 H   0  0  0  0  0  0  0  0  0  0  0  0
    8.0110   -4.0530   22.6640 H   0  0  0  0  0  0  0  0  0  0  0  0
    8.8600   -2.2160   21.5400 H   0  0  0  0  0  0  0  0  0  0  0  0
    5.8410   -1.9100   21.7810 H   0  0  0  0  0  0  0  0  0  0  0  0
    6.7870   -2.4660   20.3920 H   0  0  0  0  0  0  0  0  0  0  0  0
    9.7990   -0.3450   23.0070 C   0  0  0  0  0  0  0  0  0  0  0  0
   10.7920   -0.2080   22.0240 C   0  0  0  0  0  0  0  0  0  0  0  0
   12.1250   -0.0660   22.3920 C   0  0  0  0  0  0  0  0  0  0  0  0
   13.3780    0.1850   21.2120 Cl  0  0  0  0  0  0  0  0  0  0  0  0
   12.5360   -0.0940   23.7240 C   0  0  0  0  0  0  0  0  0  0  0  0
   11.5720   -0.2310   24.6920 C   0  0  0  0  0  0  0  0  0  0  0  0
   10.2340   -0.3850   24.3280 C   0  0  0  0  0  0  0  0  0  0  0  0
    9.2760   -0.6700   25.4120 C   0  0  0  0  0  0  0  0  0  0  0  0
    9.7110   -0.8510   26.5390 O   0  0  0  0  0  0  0  0  0  0  0  0
   11.8160   -0.2180   25.7500 H   0  0  0  0  0  0  0  0  0  0  0  0
   13.5890   -0.0580   23.9810 H   0  0  0  0  0  0  0  0  0  0  0  0
   10.5490   -0.2390   20.9700 H   0  0  0  0  0  0  0  0  0  0  0  0
    6.4350   -0.4340   23.7620 H   0  0  0  0  0  0  0  0  0  0  0  0
    7.4640    0.9820   23.9700 H   0  0  0  0  0  0  0  0  0  0  0  0
    6.1280   -1.4770   25.7900 H   0  0  0  0  0  0  0  0  0  0  0  0
    7.5410   -1.8050   26.8210 H   0  0  0  0  0  0  0  0  0  0  0  0
    6.0760    0.8760   26.5190 H   0  0  0  0  0  0  0  0  0  0  0  0
    6.0670   -0.1720   27.9550 H   0  0  0  0  0  0  0  0  0  0  0  0
    8.5250    0.1270   28.0440 H   0  0  0  0  0  0  0  0  0  0  0  0
    8.4540    1.1490   26.7600 H   0  0  0  0  0  0  0  0  0  0  0  0
    7.0260    2.7160   27.8890 H   0  0  0  0  0  0  0  0  0  0  0  0
    7.0030    1.6610   29.3040 H   0  0  0  0  0  0  0  0  0  0  0  0
    8.5150    2.4470   28.8120 H   0  0  0  0  0  0  0  0  0  0  0  0
  1  2  1  0  0  0  0
  1 68  1  0  0  0  0
  1 69  1  0  0  0  0
  1 70  1  0  0  0  0
  2  3  1  0  0  0  0
  2 66  1  0  0  0  0
  2 67  1  0  0  0  0
  3  4  1  0  0  0  0
  3 64  1  0  0  0  0
  3 65  1  0  0  0  0
  4  5  1  0  0  0  0
  4 62  1  0  0  0  0
  4 63  1  0  0  0  0
  5  6  1  0  0  0  0
  5 55  1  0  0  0  0
  6  7  1  0  0  0  0
  6 60  1  0  0  0  0
  6 61  1  0  0  0  0
  7  8  1  6  0  0  0
  7 28  1  0  0  0  0
  7 48  1  0  0  0  0
  8  9  2  0  0  0  0
  8 10  1  0  0  0  0
 10 11  1  0  0  0  0
 10 27  1  0  0  0  0
 11 12  2  0  0  0  0
 11 20  1  0  0  0  0
 12 13  1  0  0  0  0
 12 26  1  0  0  0  0
 13 14  2  0  0  0  0
 14 15  1  0  0  0  0
 14 25  1  0  0  0  0
 15 16  2  0  0  0  0
 15 20  1  0  0  0  0
 16 17  1  0  0  0  0
 16 24  1  0  0  0  0
 17 18  2  0  0  0  0
 17 23  1  0  0  0  0
 18 19  1  0  0  0  0
 18 22  1  0  0  0  0
 19 20  2  0  0  0  0
 19 21  1  0  0  0  0
 27 28  1  0  0  0  0
 27 46  1  0  0  0  0
 27 47  1  0  0  0  0
 28 29  1  0  0  0  0
 28 45  1  6  0  0  0
 29 30  1  0  0  0  0
 29 43  1  0  0  0  0
 29 44  1  0  0  0  0
 30 31  1  0  0  0  0
 31 32  1  0  0  0  0
 31 41  1  0  0  0  0
 31 42  1  0  0  0  0
 32 33  1  0  0  0  0
 32 35  1  0  0  0  0
 32 40  1  0  0  0  0
 33 34  1  0  0  0  0
 33 38  1  0  0  0  0
 33 39  1  0  0  0  0
 34 35  1  0  0  0  0
 35 36  1  0  0  0  0
 35 37  1  0  0  0  0
 48 49  2  0  0  0  0
 48 54  1  0  0  0  0
 49 50  1  0  0  0  0
 49 59  1  0  0  0  0
 50 51  1  0  0  0  0
 50 52  2  0  0  0  0
 52 53  1  0  0  0  0
 52 58  1  0  0  0  0
 53 54  2  0  0  0  0
 53 57  1  0  0  0  0
 54 55  1  0  0  0  0
 55 56  2  0  0  0  0
M  CHG  1   2   1
M  END
>  <MODEL>
       1

$$$$
