output/tmp_first_model_5_23.pdb
 OpenBabel07222620423D

 69 74  0  0  1  0  0  0  0  0999 V2000
    8.7720    7.6330   24.3240 C   0  0  0  0  0  0  0  0  0  0  0  0
    8.3080    6.4110   23.5480 C   0  0  1  0  0  0  0  0  0  0  0  0
    7.8100    5.2960   24.4630 C   0  0  0  0  0  0  0  0  0  0  0  0
    7.2750    4.1200   23.6740 N   0  3  1  0  0  0  0  0  0  0  0  0
    6.6900    3.0640   24.5490 C   0  0  0  0  0  0  0  0  0  0  0  0
    7.7510    2.2730   25.3110 C   0  0  0  0  0  0  0  0  0  0  0  0
    8.5770    1.4680   24.4360 N   0  0  0  0  0  0  0  0  0  0  0  0
    8.1200    0.1240   24.1460 C   0  0  0  0  0  0  0  0  0  0  0  0
    8.4400   -0.2990   22.7070 C   0  0  2  0  0  0  0  0  0  0  0  0
    7.6200    0.5400   21.7010 C   0  0  0  0  0  0  0  0  0  0  0  0
    7.5600    1.7560   21.6590 O   0  0  0  0  0  0  0  0  0  0  0  0
    6.9410   -0.3150   20.8640 N   0  0  0  0  0  0  0  0  0  0  0  0
    6.1510    0.1300   19.7830 C   0  0  0  0  0  0  0  0  0  0  0  0
    6.4490   -0.2330   18.4910 C   0  0  0  0  0  0  0  0  0  0  0  0
    5.7740    0.2040   17.4010 N   0  0  0  0  0  0  0  0  0  0  0  0
    4.7610    1.0120   17.6020 C   0  0  0  0  0  0  0  0  0  0  0  0
    4.3100    1.4190   18.8900 C   0  0  0  0  0  0  0  0  0  0  0  0
    3.1890    2.2760   19.0560 C   0  0  0  0  0  0  0  0  0  0  0  0
    2.7540    2.6210   20.3080 C   0  0  0  0  0  0  0  0  0  0  0  0
    3.4160    2.1180   21.4520 C   0  0  0  0  0  0  0  0  0  0  0  0
    4.5090    1.2980   21.3160 C   0  0  0  0  0  0  0  0  0  0  0  0
    5.0030    0.9490   20.0250 C   0  0  0  0  0  0  0  0  0  0  0  0
    5.0150    0.9200   22.1980 H   0  0  0  0  0  0  0  0  0  0  0  0
    3.0740    2.4040   22.4440 H   0  0  0  0  0  0  0  0  0  0  0  0
    1.9040    3.2870   20.4320 H   0  0  0  0  0  0  0  0  0  0  0  0
    2.6930    2.6500   18.1640 H   0  0  0  0  0  0  0  0  0  0  0  0
    4.2350    1.3760   16.7190 H   0  0  0  0  0  0  0  0  0  0  0  0
    7.2950   -0.8840   18.2770 H   0  0  0  0  0  0  0  0  0  0  0  0
    7.3310   -1.7020   21.0140 C   0  0  0  0  0  0  0  0  0  0  0  0
    8.0320   -1.7730   22.3860 C   0  0  2  0  0  0  0  0  0  0  0  0
    7.1630   -2.4850   23.4300 C   0  0  0  0  0  0  0  0  0  0  0  0
    7.6750   -2.5660   24.3940 H   0  0  0  0  0  0  0  0  0  0  0  0
    6.2070   -1.9740   23.5890 H   0  0  0  0  0  0  0  0  0  0  0  0
    6.9470   -3.5060   23.0980 H   0  0  0  0  0  0  0  0  0  0  0  0
    8.9420   -2.3730   22.3000 H   0  0  0  0  0  0  0  0  0  0  0  0
    6.4500   -2.3510   20.9680 H   0  0  0  0  0  0  0  0  0  0  0  0
    8.0100   -1.9880   20.2030 H   0  0  0  0  0  0  0  0  0  0  0  0
    9.9310   -0.0590   22.5350 C   0  0  0  0  0  0  0  0  0  0  0  0
   10.6700   -0.8290   21.6460 C   0  0  0  0  0  0  0  0  0  0  0  0
   12.0180   -0.6050   21.4640 C   0  0  0  0  0  0  0  0  0  0  0  0
   12.6860   -1.5240   20.1070 Cl  0  0  0  0  0  0  0  0  0  0  0  0
   12.6640    0.4890   22.0560 C   0  0  0  0  0  0  0  0  0  0  0  0
   11.9200    1.2970   22.9070 C   0  0  0  0  0  0  0  0  0  0  0  0
   10.5870    0.9950   23.1900 C   0  0  0  0  0  0  0  0  0  0  0  0
    9.8370    1.8840   24.1310 C   0  0  0  0  0  0  0  0  0  0  0  0
   10.3150    2.9330   24.5550 O   0  0  0  0  0  0  0  0  0  0  0  0
   12.3180    2.2100   23.3520 H   0  0  0  0  0  0  0  0  0  0  0  0
   13.6740    0.7680   21.7730 H   0  0  0  0  0  0  0  0  0  0  0  0
   10.2120   -1.5290   20.9550 H   0  0  0  0  0  0  0  0  0  0  0  0
    8.5960   -0.6040   24.8210 H   0  0  0  0  0  0  0  0  0  0  0  0
    7.0420    0.1120   24.2970 H   0  0  0  0  0  0  0  0  0  0  0  0
    7.2590    1.6020   26.0220 H   0  0  0  0  0  0  0  0  0  0  0  0
    8.4210    2.9320   25.8590 H   0  0  0  0  0  0  0  0  0  0  0  0
    5.9960    3.5310   25.2600 H   0  0  0  0  0  0  0  0  0  0  0  0
    6.1150    2.3870   23.9040 H   0  0  0  0  0  0  0  0  0  0  0  0
    6.2620    4.6200   22.6740 C   0  0  0  0  0  0  0  0  0  0  0  0
    6.8430    5.7640   21.8580 C   0  0  0  0  0  0  0  0  0  0  0  0
    7.2690    6.8290   22.6780 O   0  0  0  0  0  0  0  0  0  0  0  0
    6.1000    6.1730   21.1650 H   0  0  0  0  0  0  0  0  0  0  0  0
    7.6880    5.3790   21.2690 H   0  0  0  0  0  0  0  0  0  0  0  0
    5.9930    3.7840   22.0250 H   0  0  0  0  0  0  0  0  0  0  0  0
    5.3700    4.9630   23.2120 H   0  0  0  0  0  0  0  0  0  0  0  0
    8.0260    3.6490   23.1320 H   0  0  0  0  0  0  0  0  0  0  0  0
    7.0010    5.6970   25.0900 H   0  0  0  0  0  0  0  0  0  0  0  0
    8.6250    4.9640   25.1080 H   0  0  0  0  0  0  0  0  0  0  0  0
    9.1360    6.0080   22.9380 H   0  0  0  0  0  0  0  0  0  0  0  0
    9.5810    7.3730   25.0160 H   0  0  0  0  0  0  0  0  0  0  0  0
    9.1350    8.4090   23.6430 H   0  0  0  0  0  0  0  0  0  0  0  0
    7.9420    8.0530   24.9020 H   0  0  0  0  0  0  0  0  0  0  0  0
  1  2  1  0  0  0  0
  1 67  1  0  0  0  0
  1 68  1  0  0  0  0
  1 69  1  0  0  0  0
  2  3  1  0  0  0  0
  2 58  1  0  0  0  0
  2 66  1  6  0  0  0
  3  4  1  0  0  0  0
  3 64  1  0  0  0  0
  3 65  1  0  0  0  0
  4  5  1  0  0  0  0
  4 56  1  0  0  0  0
  4 63  1  6  0  0  0
  5  6  1  0  0  0  0
  5 54  1  0  0  0  0
  5 55  1  0  0  0  0
  6  7  1  0  0  0  0
  6 52  1  0  0  0  0
  6 53  1  0  0  0  0
  7  8  1  0  0  0  0
  7 45  1  0  0  0  0
  8  9  1  0  0  0  0
  8 50  1  0  0  0  0
  8 51  1  0  0  0  0
  9 10  1  6  0  0  0
  9 30  1  0  0  0  0
  9 38  1  0  0  0  0
 10 11  2  0  0  0  0
 10 12  1  0  0  0  0
 12 13  1  0  0  0  0
 12 29  1  0  0  0  0
 13 14  2  0  0  0  0
 13 22  1  0  0  0  0
 14 15  1  0  0  0  0
 14 28  1  0  0  0  0
 15 16  2  0  0  0  0
 16 17  1  0  0  0  0
 16 27  1  0  0  0  0
 17 18  2  0  0  0  0
 17 22  1  0  0  0  0
 18 19  1  0  0  0  0
 18 26  1  0  0  0  0
 19 20  2  0  0  0  0
 19 25  1  0  0  0  0
 20 21  1  0  0  0  0
 20 24  1  0  0  0  0
 21 22  2  0  0  0  0
 21 23  1  0  0  0  0
 29 30  1  0  0  0  0
 29 36  1  0  0  0  0
 29 37  1  0  0  0  0
 30 31  1  0  0  0  0
 30 35  1  6  0  0  0
 31 32  1  0  0  0  0
 31 33  1  0  0  0  0
 31 34  1  0  0  0  0
 38 39  2  0  0  0  0
 38 44  1  0  0  0  0
 39 40  1  0  0  0  0
 39 49  1  0  0  0  0
 40 41  1  0  0  0  0
 40 42  2  0  0  0  0
 42 43  1  0  0  0  0
 42 48  1  0  0  0  0
 43 44  2  0  0  0  0
 43 47  1  0  0  0  0
 44 45  1  0  0  0  0
 45 46  2  0  0  0  0
 56 57  1  0  0  0  0
 56 61  1  0  0  0  0
 56 62  1  0  0  0  0
 57 58  1  0  0  0  0
 57 59  1  0  0  0  0
 57 60  1  0  0  0  0
M  CHG  1   4   1
M  END
>  <MODEL>
       1

$$$$
