output/tmp_first_model_2_59.pdb
 OpenBabel07222619223D

 60 65  0  0  1  0  0  0  0  0999 V2000
   12.1870   -0.9520   22.2770 C   0  0  0  0  0  0  0  0  0  0  0  0
   10.8810   -0.4450   22.3560 O   0  0  0  0  0  0  0  0  0  0  0  0
    9.9260   -1.4650   22.5120 C   0  0  0  0  0  0  0  0  0  0  0  0
    8.5470   -0.8450   22.3630 C   0  0  1  0  0  0  0  0  0  0  0  0
    8.3000   -0.3280   20.9330 C   0  0  0  0  0  0  0  0  0  0  0  0
    6.8550   -0.3600   20.8410 N   0  0  0  0  0  0  0  0  0  0  0  0
    6.1250    0.1530   19.7560 C   0  0  0  0  0  0  0  0  0  0  0  0
    6.4700   -0.1590   18.4670 C   0  0  0  0  0  0  0  0  0  0  0  0
    5.7920    0.2730   17.3800 N   0  0  0  0  0  0  0  0  0  0  0  0
    4.7490    1.0400   17.5790 C   0  0  0  0  0  0  0  0  0  0  0  0
    4.2960    1.4460   18.8660 C   0  0  0  0  0  0  0  0  0  0  0  0
    3.1720    2.2960   19.0290 C   0  0  0  0  0  0  0  0  0  0  0  0
    2.7720    2.6830   20.2790 C   0  0  0  0  0  0  0  0  0  0  0  0
    3.4730    2.2360   21.4220 C   0  0  0  0  0  0  0  0  0  0  0  0
    4.5600    1.4110   21.2900 C   0  0  0  0  0  0  0  0  0  0  0  0
    4.9960    0.9930   20.0000 C   0  0  0  0  0  0  0  0  0  0  0  0
    5.0890    1.0560   22.1680 H   0  0  0  0  0  0  0  0  0  0  0  0
    3.1440    2.5480   22.4090 H   0  0  0  0  0  0  0  0  0  0  0  0
    1.9180    3.3450   20.4000 H   0  0  0  0  0  0  0  0  0  0  0  0
    2.6540    2.6360   18.1370 H   0  0  0  0  0  0  0  0  0  0  0  0
    4.2070    1.3810   16.6970 H   0  0  0  0  0  0  0  0  0  0  0  0
    7.3180   -0.8140   18.2680 H   0  0  0  0  0  0  0  0  0  0  0  0
    6.2830   -1.3040   21.6700 C   0  0  0  0  0  0  0  0  0  0  0  0
    5.1610   -1.7400   21.5270 O   0  0  0  0  0  0  0  0  0  0  0  0
    7.3340   -1.7600   22.7110 C   0  0  1  0  0  0  0  0  0  0  0  0
    7.5770   -3.2580   22.4140 C   0  0  0  0  0  0  0  0  0  0  0  0
    6.3490   -3.9900   22.6740 N   0  0  0  0  0  0  0  0  0  0  0  0
    5.7790   -4.8990   21.6810 C   0  0  0  0  0  0  0  0  0  0  0  0
    6.6380   -6.1120   21.6200 C   0  0  0  0  0  0  0  0  0  0  0  0
    7.7700   -6.1810   20.9650 N   0  0  0  0  0  0  0  0  0  0  0  0
    8.4310   -7.2370   21.5280 C   0  0  0  0  0  0  0  0  0  0  0  0
    7.6840   -7.8230   22.5110 C   0  0  0  0  0  0  0  0  0  0  0  0
    6.5050   -7.1080   22.5280 N   0  0  0  0  0  0  0  0  0  0  0  0
    5.7320   -7.2010   23.1680 H   0  0  0  0  0  0  0  0  0  0  0  0
    7.8520   -8.6640   23.1640 H   0  0  0  0  0  0  0  0  0  0  0  0
    9.4460   -7.4010   21.2190 H   0  0  0  0  0  0  0  0  0  0  0  0
    4.7660   -5.1570   22.0090 H   0  0  0  0  0  0  0  0  0  0  0  0
    5.7550   -4.3940   20.7120 H   0  0  0  0  0  0  0  0  0  0  0  0
    5.8140   -3.9780   23.9260 C   0  0  0  0  0  0  0  0  0  0  0  0
    5.0320   -4.8410   24.3090 O   0  0  0  0  0  0  0  0  0  0  0  0
    6.2270   -2.8030   24.7600 C   0  0  0  0  0  0  0  0  0  0  0  0
    5.9030   -2.8030   26.1180 C   0  0  0  0  0  0  0  0  0  0  0  0
    6.0000   -1.6390   26.8550 C   0  0  0  0  0  0  0  0  0  0  0  0
    6.4300   -0.4850   26.2050 C   0  0  0  0  0  0  0  0  0  0  0  0
    6.3550    1.0320   27.0500 Cl  0  0  0  0  0  0  0  0  0  0  0  0
    6.8830   -0.5030   24.8980 C   0  0  0  0  0  0  0  0  0  0  0  0
    6.8250   -1.6850   24.1510 C   0  0  0  0  0  0  0  0  0  0  0  0
    7.2660    0.4130   24.4670 H   0  0  0  0  0  0  0  0  0  0  0  0
    5.7290   -1.6050   27.9040 H   0  0  0  0  0  0  0  0  0  0  0  0
    5.5620   -3.7230   26.5820 H   0  0  0  0  0  0  0  0  0  0  0  0
    8.3940   -3.6540   23.0360 H   0  0  0  0  0  0  0  0  0  0  0  0
    7.8560   -3.4110   21.3730 H   0  0  0  0  0  0  0  0  0  0  0  0
    8.6730    0.6880   20.7810 H   0  0  0  0  0  0  0  0  0  0  0  0
    8.7730   -0.9730   20.1770 H   0  0  0  0  0  0  0  0  0  0  0  0
    8.5120    0.0280   23.0140 H   0  0  0  0  0  0  0  0  0  0  0  0
   10.0340   -1.9560   23.4940 H   0  0  0  0  0  0  0  0  0  0  0  0
   10.0680   -2.2410   21.7370 H   0  0  0  0  0  0  0  0  0  0  0  0
   12.4980   -1.4580   23.2060 H   0  0  0  0  0  0  0  0  0  0  0  0
   12.2810   -1.6710   21.4490 H   0  0  0  0  0  0  0  0  0  0  0  0
   12.8640   -0.1140   22.0950 H   0  0  0  0  0  0  0  0  0  0  0  0
  1  2  1  0  0  0  0
  1 58  1  0  0  0  0
  1 59  1  0  0  0  0
  1 60  1  0  0  0  0
  2  3  1  0  0  0  0
  3  4  1  0  0  0  0
  3 56  1  0  0  0  0
  3 57  1  0  0  0  0
  4  5  1  0  0  0  0
  4 25  1  0  0  0  0
  4 55  1  1  0  0  0
  5  6  1  0  0  0  0
  5 53  1  0  0  0  0
  5 54  1  0  0  0  0
  6  7  1  0  0  0  0
  6 23  1  0  0  0  0
  7  8  2  0  0  0  0
  7 16  1  0  0  0  0
  8  9  1  0  0  0  0
  8 22  1  0  0  0  0
  9 10  2  0  0  0  0
 10 11  1  0  0  0  0
 10 21  1  0  0  0  0
 11 12  2  0  0  0  0
 11 16  1  0  0  0  0
 12 13  1  0  0  0  0
 12 20  1  0  0  0  0
 13 14  2  0  0  0  0
 13 19  1  0  0  0  0
 14 15  1  0  0  0  0
 14 18  1  0  0  0  0
 15 16  2  0  0  0  0
 15 17  1  0  0  0  0
 23 24  2  0  0  0  0
 25 23  1  6  0  0  0
 25 26  1  0  0  0  0
 25 47  1  0  0  0  0
 26 27  1  0  0  0  0
 26 51  1  0  0  0  0
 26 52  1  0  0  0  0
 27 28  1  0  0  0  0
 27 39  1  0  0  0  0
 28 29  1  0  0  0  0
 28 37  1  0  0  0  0
 28 38  1  0  0  0  0
 29 30  2  0  0  0  0
 29 33  1  0  0  0  0
 30 31  1  0  0  0  0
 31 32  2  0  0  0  0
 31 36  1  0  0  0  0
 32 33  1  0  0  0  0
 32 35  1  0  0  0  0
 33 34  1  0  0  0  0
 39 40  2  0  0  0  0
 39 41  1  0  0  0  0
 41 42  2  0  0  0  0
 41 47  1  0  0  0  0
 42 43  1  0  0  0  0
 42 50  1  0  0  0  0
 43 44  2  0  0  0  0
 43 49  1  0  0  0  0
 44 45  1  0  0  0  0
 44 46  1  0  0  0  0
 46 47  2  0  0  0  0
 46 48  1  0  0  0  0
M  END
>  <MODEL>
       1

$$$$
