output/tmp_first_model_20_47.pdb
 OpenBabel07232603433D

 56 60  0  0  1  0  0  0  0  0999 V2000
    6.5930    4.3060   21.4980 C   0  0  0  0  0  0  0  0  0  0  0  0
    7.5630    3.8000   22.4550 N   0  0  0  0  0  0  0  0  0  0  0  0
    7.0980    3.1640   23.5640 C   0  0  0  0  0  0  0  0  0  0  0  0
    5.9020    2.9910   23.7450 O   0  0  0  0  0  0  0  0  0  0  0  0
    8.1410    2.7080   24.5910 C   0  0  0  0  0  0  0  0  0  0  0  0
    8.7130    1.4120   24.2480 N   0  0  0  0  0  0  0  0  0  0  0  0
    7.8670    0.2670   23.9470 C   0  0  0  0  0  0  0  0  0  0  0  0
    8.4330   -0.5910   22.7750 C   0  0  2  0  0  0  0  0  0  0  0  0
    8.1340    0.1350   21.4280 C   0  0  0  0  0  0  0  0  0  0  0  0
    8.7570    1.0360   20.9030 O   0  0  0  0  0  0  0  0  0  0  0  0
    6.9600   -0.3920   20.9280 N   0  0  0  0  0  0  0  0  0  0  0  0
    6.2510    0.1860   19.8500 C   0  0  0  0  0  0  0  0  0  0  0  0
    6.6500   -0.0640   18.5630 C   0  0  0  0  0  0  0  0  0  0  0  0
    5.9710    0.3550   17.4700 N   0  0  0  0  0  0  0  0  0  0  0  0
    4.8720    1.0460   17.6610 C   0  0  0  0  0  0  0  0  0  0  0  0
    4.3750    1.4220   18.9420 C   0  0  0  0  0  0  0  0  0  0  0  0
    3.2220    2.2340   19.1060 C   0  0  0  0  0  0  0  0  0  0  0  0
    2.7960    2.5980   20.3550 C   0  0  0  0  0  0  0  0  0  0  0  0
    3.5000    2.1630   21.5000 C   0  0  0  0  0  0  0  0  0  0  0  0
    4.6120    1.3650   21.3680 C   0  0  0  0  0  0  0  0  0  0  0  0
    5.0820    0.9750   20.0830 C   0  0  0  0  0  0  0  0  0  0  0  0
    5.1730    1.0890   22.2560 H   0  0  0  0  0  0  0  0  0  0  0  0
    3.1850    2.4820   22.4890 H   0  0  0  0  0  0  0  0  0  0  0  0
    1.9210    3.2310   20.4710 H   0  0  0  0  0  0  0  0  0  0  0  0
    2.7000    2.5730   18.2160 H   0  0  0  0  0  0  0  0  0  0  0  0
    4.3150    1.3520   16.7750 H   0  0  0  0  0  0  0  0  0  0  0  0
    7.5480   -0.6500   18.3810 H   0  0  0  0  0  0  0  0  0  0  0  0
    6.4300   -1.5200   21.6660 C   0  0  0  0  0  0  0  0  0  0  0  0
    7.6040   -1.8960   22.5830 C   0  0  2  0  0  0  0  0  0  0  0  0
    7.2260   -2.6170   23.8690 C   0  0  0  0  0  0  0  0  0  0  0  0
    6.8120   -3.6080   23.6650 H   0  0  0  0  0  0  0  0  0  0  0  0
    6.4710   -2.0570   24.4300 H   0  0  0  0  0  0  0  0  0  0  0  0
    8.1060   -2.7290   24.5130 H   0  0  0  0  0  0  0  0  0  0  0  0
    8.2450   -2.5570   21.9950 H   0  0  0  0  0  0  0  0  0  0  0  0
    5.5220   -1.2510   22.2240 H   0  0  0  0  0  0  0  0  0  0  0  0
    6.1480   -2.3320   20.9820 H   0  0  0  0  0  0  0  0  0  0  0  0
    9.9160   -0.8410   23.0330 C   0  0  0  0  0  0  0  0  0  0  0  0
   10.6440   -1.8210   22.3410 C   0  0  0  0  0  0  0  0  0  0  0  0
   12.0030   -1.9500   22.5700 C   0  0  0  0  0  0  0  0  0  0  0  0
   12.7050   -2.7940   21.7920 F   0  0  0  0  0  0  0  0  0  0  0  0
   12.6920   -1.2370   23.5520 C   0  0  0  0  0  0  0  0  0  0  0  0
   11.9720   -0.2900   24.2500 C   0  0  0  0  0  0  0  0  0  0  0  0
   10.6300   -0.0490   23.9440 C   0  0  0  0  0  0  0  0  0  0  0  0
   10.0420    1.2130   24.4780 C   0  0  0  0  0  0  0  0  0  0  0  0
   10.7440    2.0360   25.0460 O   0  0  0  0  0  0  0  0  0  0  0  0
   12.4330    0.3450   24.9990 H   0  0  0  0  0  0  0  0  0  0  0  0
   13.7590   -1.3750   23.7020 H   0  0  0  0  0  0  0  0  0  0  0  0
   10.1830   -2.4940   21.6170 H   0  0  0  0  0  0  0  0  0  0  0  0
    6.8700    0.6310   23.6970 H   0  0  0  0  0  0  0  0  0  0  0  0
    7.7830   -0.3510   24.8490 H   0  0  0  0  0  0  0  0  0  0  0  0
    7.6480    2.6770   25.5730 H   0  0  0  0  0  0  0  0  0  0  0  0
    8.9730    3.4230   24.6550 H   0  0  0  0  0  0  0  0  0  0  0  0
    8.5090    3.6280   22.1390 H   0  0  0  0  0  0  0  0  0  0  0  0
    7.0510    5.0330   20.8220 H   0  0  0  0  0  0  0  0  0  0  0  0
    6.1400    3.4870   20.9220 H   0  0  0  0  0  0  0  0  0  0  0  0
    5.7980    4.8010   22.0600 H   0  0  0  0  0  0  0  0  0  0  0  0
  1  2  1  0  0  0  0
  1 54  1  0  0  0  0
  1 55  1  0  0  0  0
  1 56  1  0  0  0  0
  2  3  1  0  0  0  0
  2 53  1  0  0  0  0
  3  4  2  0  0  0  0
  3  5  1  0  0  0  0
  5  6  1  0  0  0  0
  5 51  1  0  0  0  0
  5 52  1  0  0  0  0
  6  7  1  0  0  0  0
  6 44  1  0  0  0  0
  7  8  1  0  0  0  0
  7 49  1  0  0  0  0
  7 50  1  0  0  0  0
  8  9  1  6  0  0  0
  8 29  1  0  0  0  0
  8 37  1  0  0  0  0
  9 10  2  0  0  0  0
  9 11  1  0  0  0  0
 11 12  1  0  0  0  0
 11 28  1  0  0  0  0
 12 13  2  0  0  0  0
 12 21  1  0  0  0  0
 13 14  1  0  0  0  0
 13 27  1  0  0  0  0
 14 15  2  0  0  0  0
 15 16  1  0  0  0  0
 15 26  1  0  0  0  0
 16 17  2  0  0  0  0
 16 21  1  0  0  0  0
 17 18  1  0  0  0  0
 17 25  1  0  0  0  0
 18 19  2  0  0  0  0
 18 24  1  0  0  0  0
 19 20  1  0  0  0  0
 19 23  1  0  0  0  0
 20 21  2  0  0  0  0
 20 22  1  0  0  0  0
 28 29  1  0  0  0  0
 28 35  1  0  0  0  0
 28 36  1  0  0  0  0
 29 30  1  0  0  0  0
 29 34  1  6  0  0  0
 30 31  1  0  0  0  0
 30 32  1  0  0  0  0
 30 33  1  0  0  0  0
 37 38  2  0  0  0  0
 37 43  1  0  0  0  0
 38 39  1  0  0  0  0
 38 48  1  0  0  0  0
 39 40  1  0  0  0  0
 39 41  2  0  0  0  0
 41 42  1  0  0  0  0
 41 47  1  0  0  0  0
 42 43  2  0  0  0  0
 42 46  1  0  0  0  0
 43 44  1  0  0  0  0
 44 45  2  0  0  0  0
M  END
>  <MODEL>
       1

$$$$
