output/tmp_first_model_15_38.pdb
 OpenBabel07232601353D

 72 77  0  0  1  0  0  0  0  0999 V2000
    4.9030   -7.6180   20.1320 C   0  0  0  0  0  0  0  0  0  0  0  0
    5.4320   -6.3300   19.6410 N   0  3  0  0  0  0  0  0  0  0  0  0
    5.4690   -5.2730   20.7000 C   0  0  0  0  0  0  0  0  0  0  0  0
    6.5750   -5.5290   21.7340 C   0  0  0  0  0  0  0  0  0  0  0  0
    6.7510   -4.3750   22.5970 N   0  0  0  0  0  0  0  0  0  0  0  0
    7.8290   -3.4290   22.3880 C   0  0  0  0  0  0  0  0  0  0  0  0
    7.3760   -1.9660   22.6670 C   0  0  2  0  0  0  0  0  0  0  0  0
    6.2670   -1.5660   21.6530 C   0  0  0  0  0  0  0  0  0  0  0  0
    5.1430   -2.0220   21.5830 O   0  0  0  0  0  0  0  0  0  0  0  0
    6.7660   -0.5960   20.8080 N   0  0  0  0  0  0  0  0  0  0  0  0
    6.0320   -0.0180   19.7530 C   0  0  0  0  0  0  0  0  0  0  0  0
    6.4160   -0.2420   18.4550 C   0  0  0  0  0  0  0  0  0  0  0  0
    5.7770    0.2510   17.3700 N   0  0  0  0  0  0  0  0  0  0  0  0
    4.7400    1.0220   17.5810 C   0  0  0  0  0  0  0  0  0  0  0  0
    4.2620    1.3720   18.8750 C   0  0  0  0  0  0  0  0  0  0  0  0
    3.1580    2.2460   19.0450 C   0  0  0  0  0  0  0  0  0  0  0  0
    2.7630    2.6270   20.2970 C   0  0  0  0  0  0  0  0  0  0  0  0
    3.4480    2.1490   21.4360 C   0  0  0  0  0  0  0  0  0  0  0  0
    4.5070    1.2830   21.3010 C   0  0  0  0  0  0  0  0  0  0  0  0
    4.9310    0.8620   20.0080 C   0  0  0  0  0  0  0  0  0  0  0  0
    5.0330    0.9180   22.1780 H   0  0  0  0  0  0  0  0  0  0  0  0
    3.1360    2.4750   22.4240 H   0  0  0  0  0  0  0  0  0  0  0  0
    1.9300    3.3130   20.4220 H   0  0  0  0  0  0  0  0  0  0  0  0
    2.6600    2.6220   18.1560 H   0  0  0  0  0  0  0  0  0  0  0  0
    4.2280    1.4200   16.7050 H   0  0  0  0  0  0  0  0  0  0  0  0
    7.2770   -0.8760   18.2500 H   0  0  0  0  0  0  0  0  0  0  0  0
    8.1970   -0.4340   20.9110 C   0  0  0  0  0  0  0  0  0  0  0  0
    8.4960   -0.9360   22.3330 C   0  0  2  0  0  0  0  0  0  0  0  0
    9.9480   -1.4050   22.4540 C   0  0  0  0  0  0  0  0  0  0  0  0
   10.8200   -0.3070   22.3980 O   0  0  0  0  0  0  0  0  0  0  0  0
   11.3140   -0.0180   23.6710 C   0  0  0  0  0  0  0  0  0  0  0  0
   12.1360    1.2800   23.7680 C   0  0  0  0  0  0  0  0  0  0  0  0
   10.9910    2.2700   23.3360 C   0  0  0  0  0  0  0  0  0  0  0  0
   10.7380    3.8660   24.1640 S   0  0  0  0  0  0  0  0  0  0  0  0
   11.9190    4.7160   24.0800 O   0  0  0  0  0  0  0  0  0  0  0  0
   10.0610    3.5960   25.4330 O   0  0  0  0  0  0  0  0  0  0  0  0
   11.9700    1.2900   23.4690 C   0  0  0  0  0  0  0  0  0  0  0  0
   13.2010    1.0030   24.5000 H   0  0  0  0  0  0  0  0  0  0  0  0
   12.1530    1.3890   24.9910 H   0  0  0  0  0  0  0  0  0  0  0  0
   11.1390    2.4150   22.2780 H   0  0  0  0  0  0  0  0  0  0  0  0
    9.9960    1.8200   23.3540 H   0  0  0  0  0  0  0  0  0  0  0  0
   13.0470    1.5390   22.6430 H   0  0  0  0  0  0  0  0  0  0  0  0
   10.4660    0.0870   24.3670 H   0  0  0  0  0  0  0  0  0  0  0  0
   11.9440   -0.8460   24.0320 H   0  0  0  0  0  0  0  0  0  0  0  0
   10.1850   -2.0870   21.6230 H   0  0  0  0  0  0  0  0  0  0  0  0
   10.1120   -1.9510   23.3930 H   0  0  0  0  0  0  0  0  0  0  0  0
    8.3570   -0.0780   22.9970 H   0  0  0  0  0  0  0  0  0  0  0  0
    8.4670    0.6150   20.7620 H   0  0  0  0  0  0  0  0  0  0  0  0
    8.7350   -1.0270   20.1560 H   0  0  0  0  0  0  0  0  0  0  0  0
    6.8480   -1.9600   24.0990 C   0  0  0  0  0  0  0  0  0  0  0  0
    7.0050   -0.8880   24.9890 C   0  0  0  0  0  0  0  0  0  0  0  0
    6.5700   -1.0090   26.2980 C   0  0  0  0  0  0  0  0  0  0  0  0
    6.8350    0.3090   27.4080 Cl  0  0  0  0  0  0  0  0  0  0  0  0
    5.9270   -2.1540   26.7610 C   0  0  0  0  0  0  0  0  0  0  0  0
    5.6910   -3.1800   25.8680 C   0  0  0  0  0  0  0  0  0  0  0  0
    6.1410   -3.0870   24.5530 C   0  0  0  0  0  0  0  0  0  0  0  0
    5.8590   -4.2230   23.6130 C   0  0  0  0  0  0  0  0  0  0  0  0
    4.9090   -4.9810   23.7700 O   0  0  0  0  0  0  0  0  0  0  0  0
    5.1630   -4.0750   26.1840 H   0  0  0  0  0  0  0  0  0  0  0  0
    5.6140   -2.2160   27.7990 H   0  0  0  0  0  0  0  0  0  0  0  0
    7.4280    0.0570   24.6800 H   0  0  0  0  0  0  0  0  0  0  0  0
    8.6630   -3.6670   23.0620 H   0  0  0  0  0  0  0  0  0  0  0  0
    8.1940   -3.5050   21.3640 H   0  0  0  0  0  0  0  0  0  0  0  0
    7.5350   -5.7390   21.2410 H   0  0  0  0  0  0  0  0  0  0  0  0
    6.3310   -6.3860   22.3730 H   0  0  0  0  0  0  0  0  0  0  0  0
    4.5090   -5.2300   21.2170 H   0  0  0  0  0  0  0  0  0  0  0  0
    5.6310   -4.3140   20.2200 H   0  0  0  0  0  0  0  0  0  0  0  0
    6.4270   -6.4840   19.3480 H   0  0  0  0  0  0  0  0  0  0  0  0
    4.8750   -6.0400   18.8150 H   0  0  0  0  0  0  0  0  0  0  0  0
    4.1760   -7.4430   20.9260 H   0  0  0  0  0  0  0  0  0  0  0  0
    4.4240   -8.1660   19.3210 H   0  0  0  0  0  0  0  0  0  0  0  0
    5.7020   -8.2350   20.5450 H   0  0  0  0  0  0  0  0  0  0  0  0
  1  2  1  0  0  0  0
  1 70  1  0  0  0  0
  1 71  1  0  0  0  0
  1 72  1  0  0  0  0
  2  3  1  0  0  0  0
  2 68  1  0  0  0  0
  2 69  1  0  0  0  0
  3  4  1  0  0  0  0
  3 66  1  0  0  0  0
  3 67  1  0  0  0  0
  4  5  1  0  0  0  0
  4 64  1  0  0  0  0
  4 65  1  0  0  0  0
  5  6  1  0  0  0  0
  5 57  1  0  0  0  0
  6  7  1  0  0  0  0
  6 62  1  0  0  0  0
  6 63  1  0  0  0  0
  7  8  1  6  0  0  0
  7 28  1  0  0  0  0
  7 50  1  0  0  0  0
  8  9  2  0  0  0  0
  8 10  1  0  0  0  0
 10 11  1  0  0  0  0
 10 27  1  0  0  0  0
 11 12  2  0  0  0  0
 11 20  1  0  0  0  0
 12 13  1  0  0  0  0
 12 26  1  0  0  0  0
 13 14  2  0  0  0  0
 14 15  1  0  0  0  0
 14 25  1  0  0  0  0
 15 16  2  0  0  0  0
 15 20  1  0  0  0  0
 16 17  1  0  0  0  0
 16 24  1  0  0  0  0
 17 18  2  0  0  0  0
 17 23  1  0  0  0  0
 18 19  1  0  0  0  0
 18 22  1  0  0  0  0
 19 20  2  0  0  0  0
 19 21  1  0  0  0  0
 27 28  1  0  0  0  0
 27 48  1  0  0  0  0
 27 49  1  0  0  0  0
 28 29  1  0  0  0  0
 28 47  1  1  0  0  0
 29 30  1  0  0  0  0
 29 45  1  0  0  0  0
 29 46  1  0  0  0  0
 30 31  1  0  0  0  0
 31 32  1  0  0  0  0
 31 43  1  0  0  0  0
 31 44  1  0  0  0  0
 32 33  1  0  0  0  0
 32 37  1  0  0  0  0
 32 42  1  0  0  0  0
 33 34  1  0  0  0  0
 33 40  1  0  0  0  0
 33 41  1  0  0  0  0
 34 35  2  0  0  0  0
 34 36  2  0  0  0  0
 34 37  1  0  0  0  0
 37 38  1  0  0  0  0
 37 39  1  0  0  0  0
 50 51  2  0  0  0  0
 50 56  1  0  0  0  0
 51 52  1  0  0  0  0
 51 61  1  0  0  0  0
 52 53  1  0  0  0  0
 52 54  2  0  0  0  0
 54 55  1  0  0  0  0
 54 60  1  0  0  0  0
 55 56  2  0  0  0  0
 55 59  1  0  0  0  0
 56 57  1  0  0  0  0
 57 58  2  0  0  0  0
M  CHG  1   2   1
M  END
>  <MODEL>
       1

$$$$
