output/tmp_first_model_11_34.pdb
 OpenBabel07222623443D

 58 63  0  0  1  0  0  0  0  0999 V2000
    9.7090   -1.9500   21.8120 C   0  0  0  0  0  0  0  0  0  0  0  0
    8.6590   -0.9550   22.3170 C   0  0  1  0  0  0  0  0  0  0  0  0
    8.2120   -0.0230   21.1710 C   0  0  0  0  0  0  0  0  0  0  0  0
    6.8900   -0.4830   20.8200 N   0  0  0  0  0  0  0  0  0  0  0  0
    6.1200    0.0640   19.7650 C   0  0  0  0  0  0  0  0  0  0  0  0
    6.4670   -0.1970   18.4650 C   0  0  0  0  0  0  0  0  0  0  0  0
    5.7870    0.2540   17.3850 N   0  0  0  0  0  0  0  0  0  0  0  0
    4.7370    1.0090   17.6000 C   0  0  0  0  0  0  0  0  0  0  0  0
    4.2870    1.3880   18.8970 C   0  0  0  0  0  0  0  0  0  0  0  0
    3.1610    2.2330   19.0740 C   0  0  0  0  0  0  0  0  0  0  0  0
    2.7740    2.6170   20.3290 C   0  0  0  0  0  0  0  0  0  0  0  0
    3.4870    2.1610   21.4630 C   0  0  0  0  0  0  0  0  0  0  0  0
    4.5690    1.3280   21.3240 C   0  0  0  0  0  0  0  0  0  0  0  0
    4.9940    0.9120   20.0260 C   0  0  0  0  0  0  0  0  0  0  0  0
    5.1080    0.9820   22.2070 H   0  0  0  0  0  0  0  0  0  0  0  0
    3.1720    2.4790   22.4530 H   0  0  0  0  0  0  0  0  0  0  0  0
    1.9270    3.2840   20.4590 H   0  0  0  0  0  0  0  0  0  0  0  0
    2.6400    2.5930   18.1890 H   0  0  0  0  0  0  0  0  0  0  0  0
    4.1900    1.3710   16.7270 H   0  0  0  0  0  0  0  0  0  0  0  0
    7.3300   -0.8270   18.2520 H   0  0  0  0  0  0  0  0  0  0  0  0
    6.3680   -1.4140   21.6840 C   0  0  0  0  0  0  0  0  0  0  0  0
    5.3130   -1.9830   21.5140 O   0  0  0  0  0  0  0  0  0  0  0  0
    7.3480   -1.5930   22.8600 C   0  0  1  0  0  0  0  0  0  0  0  0
    7.4810   -3.0920   23.1780 C   0  0  0  0  0  0  0  0  0  0  0  0
    6.2450   -3.5910   23.7310 N   0  0  0  0  0  0  0  0  0  0  0  0
    5.6710   -4.8070   23.1940 C   0  0  0  0  0  0  0  0  0  0  0  0
    6.3310   -6.0350   23.7300 C   0  0  0  0  0  0  0  0  0  0  0  0
    5.9260   -6.8080   24.8220 C   0  0  0  0  0  0  0  0  0  0  0  0
    6.8000   -7.7950   24.9800 N   0  0  0  0  0  0  0  0  0  0  0  0
    7.6880   -7.5940   24.0310 N   0  0  0  0  0  0  0  0  0  0  0  0
    8.7740   -8.5090   23.7380 C   0  0  0  0  0  0  0  0  0  0  0  0
    8.5050   -9.1080   22.8690 H   0  0  0  0  0  0  0  0  0  0  0  0
    9.6980   -7.9460   23.5610 H   0  0  0  0  0  0  0  0  0  0  0  0
    8.9050   -9.1990   24.5650 H   0  0  0  0  0  0  0  0  0  0  0  0
    7.4560   -6.5560   23.2420 N   0  0  0  0  0  0  0  0  0  0  0  0
    5.0630   -6.6700   25.4630 H   0  0  0  0  0  0  0  0  0  0  0  0
    4.6060   -4.8030   23.4520 H   0  0  0  0  0  0  0  0  0  0  0  0
    5.7600   -4.7730   22.1000 H   0  0  0  0  0  0  0  0  0  0  0  0
    5.6760   -3.0160   24.8310 C   0  0  0  0  0  0  0  0  0  0  0  0
    4.8840   -3.6180   25.5450 O   0  0  0  0  0  0  0  0  0  0  0  0
    6.0650   -1.5960   25.0660 C   0  0  0  0  0  0  0  0  0  0  0  0
    5.6060   -0.9800   26.2290 C   0  0  0  0  0  0  0  0  0  0  0  0
    5.8600    0.3590   26.4550 C   0  0  0  0  0  0  0  0  0  0  0  0
    6.5510    1.0630   25.4750 C   0  0  0  0  0  0  0  0  0  0  0  0
    6.7990    2.3700   25.6760 F   0  0  0  0  0  0  0  0  0  0  0  0
    7.0070    0.4760   24.3100 C   0  0  0  0  0  0  0  0  0  0  0  0
    6.8100   -0.8950   24.1090 C   0  0  0  0  0  0  0  0  0  0  0  0
    7.5310    1.0920   23.5860 H   0  0  0  0  0  0  0  0  0  0  0  0
    5.5270    0.8710   27.3500 H   0  0  0  0  0  0  0  0  0  0  0  0
    5.0430   -1.5750   26.9420 H   0  0  0  0  0  0  0  0  0  0  0  0
    8.3080   -3.2410   23.8850 H   0  0  0  0  0  0  0  0  0  0  0  0
    7.7010   -3.6680   22.2790 H   0  0  0  0  0  0  0  0  0  0  0  0
    8.8820   -0.1090   20.3170 H   0  0  0  0  0  0  0  0  0  0  0  0
    8.2030    1.0340   21.4630 H   0  0  0  0  0  0  0  0  0  0  0  0
    9.1350   -0.3830   23.1170 H   0  0  0  0  0  0  0  0  0  0  0  0
    9.3140   -2.5680   21.0000 H   0  0  0  0  0  0  0  0  0  0  0  0
   10.0490   -2.6180   22.6060 H   0  0  0  0  0  0  0  0  0  0  0  0
   10.5910   -1.4260   21.4290 H   0  0  0  0  0  0  0  0  0  0  0  0
  1  2  1  0  0  0  0
  1 56  1  0  0  0  0
  1 57  1  0  0  0  0
  1 58  1  0  0  0  0
  2  3  1  0  0  0  0
  2 23  1  0  0  0  0
  2 55  1  1  0  0  0
  3  4  1  0  0  0  0
  3 53  1  0  0  0  0
  3 54  1  0  0  0  0
  4  5  1  0  0  0  0
  4 21  1  0  0  0  0
  5  6  2  0  0  0  0
  5 14  1  0  0  0  0
  6  7  1  0  0  0  0
  6 20  1  0  0  0  0
  7  8  2  0  0  0  0
  8  9  1  0  0  0  0
  8 19  1  0  0  0  0
  9 10  2  0  0  0  0
  9 14  1  0  0  0  0
 10 11  1  0  0  0  0
 10 18  1  0  0  0  0
 11 12  2  0  0  0  0
 11 17  1  0  0  0  0
 12 13  1  0  0  0  0
 12 16  1  0  0  0  0
 13 14  2  0  0  0  0
 13 15  1  0  0  0  0
 21 22  2  0  0  0  0
 23 21  1  6  0  0  0
 23 24  1  0  0  0  0
 23 47  1  0  0  0  0
 24 25  1  0  0  0  0
 24 51  1  0  0  0  0
 24 52  1  0  0  0  0
 25 26  1  0  0  0  0
 25 39  1  0  0  0  0
 26 27  1  0  0  0  0
 26 37  1  0  0  0  0
 26 38  1  0  0  0  0
 27 28  1  0  0  0  0
 27 35  2  0  0  0  0
 28 29  2  0  0  0  0
 28 36  1  0  0  0  0
 29 30  1  0  0  0  0
 30 31  1  0  0  0  0
 30 35  1  0  0  0  0
 31 32  1  0  0  0  0
 31 33  1  0  0  0  0
 31 34  1  0  0  0  0
 39 40  2  0  0  0  0
 39 41  1  0  0  0  0
 41 42  2  0  0  0  0
 41 47  1  0  0  0  0
 42 43  1  0  0  0  0
 42 50  1  0  0  0  0
 43 44  2  0  0  0  0
 43 49  1  0  0  0  0
 44 45  1  0  0  0  0
 44 46  1  0  0  0  0
 46 47  2  0  0  0  0
 46 48  1  0  0  0  0
M  END
>  <MODEL>
       1

$$$$
