output/tmp_first_model_1_65.pdb
 OpenBabel07222618483D

 54 59  0  0  1  0  0  0  0  0999 V2000
   11.8920   -3.0020   21.3340 C   0  0  0  0  0  0  0  0  0  0  0  0
   11.8940   -1.7660   22.0840 N   0  0  0  0  0  0  0  0  0  0  0  0
   12.1920   -1.7590   23.4110 C   0  0  0  0  0  0  0  0  0  0  0  0
   12.7830   -2.6630   23.9760 O   0  0  0  0  0  0  0  0  0  0  0  0
   11.6620   -0.5200   24.1450 C   0  0  0  0  0  0  0  0  0  0  0  0
   10.2130   -0.5570   24.2470 N   0  0  0  0  0  0  0  0  0  0  0  0
    9.5860   -1.3760   25.1780 C   0  0  0  0  0  0  0  0  0  0  0  0
   10.1110   -2.2930   25.7790 O   0  0  0  0  0  0  0  0  0  0  0  0
    8.1750   -0.9030   25.2500 C   0  0  0  0  0  0  0  0  0  0  0  0
    7.2150   -1.2560   26.1570 C   0  0  0  0  0  0  0  0  0  0  0  0
    6.0090   -0.5220   26.1630 C   0  0  0  0  0  0  0  0  0  0  0  0
    5.8710    0.5900   25.3710 C   0  0  0  0  0  0  0  0  0  0  0  0
    4.4020    1.5040   25.4320 Cl  0  0  0  0  0  0  0  0  0  0  0  0
    6.9570    1.1520   24.5300 C   0  0  0  0  0  0  0  0  0  0  0  0
    7.9460    0.0600   24.1910 C   0  0  1  0  0  0  0  0  0  0  0  0
    9.2740    0.2590   23.5260 C   0  0  2  0  0  0  0  0  0  0  0  0
    8.1740   -0.3950   22.7240 C   0  0  2  0  0  0  0  0  0  0  0  0
    7.5360    0.4020   21.6060 C   0  0  0  0  0  0  0  0  0  0  0  0
    7.6660    1.5810   21.3490 O   0  0  0  0  0  0  0  0  0  0  0  0
    6.7250   -0.4800   20.9130 N   0  0  0  0  0  0  0  0  0  0  0  0
    5.8890   -0.0890   19.8360 C   0  0  0  0  0  0  0  0  0  0  0  0
    6.3660   -0.1620   18.5530 C   0  0  0  0  0  0  0  0  0  0  0  0
    5.6500    0.1440   17.4450 N   0  0  0  0  0  0  0  0  0  0  0  0
    4.4190    0.5600   17.6360 C   0  0  0  0  0  0  0  0  0  0  0  0
    3.7970    0.7020   18.9090 C   0  0  0  0  0  0  0  0  0  0  0  0
    2.5050    1.2840   19.0660 C   0  0  0  0  0  0  0  0  0  0  0  0
    1.9480    1.4030   20.3110 C   0  0  0  0  0  0  0  0  0  0  0  0
    2.6620    0.9790   21.4600 C   0  0  0  0  0  0  0  0  0  0  0  0
    3.9270    0.4530   21.3410 C   0  0  0  0  0  0  0  0  0  0  0  0
    4.5350    0.3230   20.0580 C   0  0  0  0  0  0  0  0  0  0  0  0
    4.4860    0.1740   22.2320 H   0  0  0  0  0  0  0  0  0  0  0  0
    2.2290    1.1330   22.4460 H   0  0  0  0  0  0  0  0  0  0  0  0
    0.9610    1.8460   20.4300 H   0  0  0  0  0  0  0  0  0  0  0  0
    2.0190    1.7050   18.1900 H   0  0  0  0  0  0  0  0  0  0  0  0
    3.8400    0.7940   16.7450 H   0  0  0  0  0  0  0  0  0  0  0  0
    7.3790   -0.5250   18.3910 H   0  0  0  0  0  0  0  0  0  0  0  0
    6.9910   -1.8770   21.1920 C   0  0  0  0  0  0  0  0  0  0  0  0
    8.0210   -1.8050   22.2940 C   0  0  0  0  0  0  0  0  0  0  0  0
    8.6540   -2.9150   22.6850 C   0  0  0  0  0  0  0  0  0  0  0  0
    8.3090   -4.0850   22.1170 F   0  0  0  0  0  0  0  0  0  0  0  0
    9.4500   -3.0210   23.4100 H   0  0  0  0  0  0  0  0  0  0  0  0
    7.3730   -2.3910   20.3010 H   0  0  0  0  0  0  0  0  0  0  0  0
    6.0680   -2.3890   21.5010 H   0  0  0  0  0  0  0  0  0  0  0  0
    9.5850    1.2600   23.2320 H   0  0  0  0  0  0  0  0  0  0  0  0
    6.5490    1.6370   23.6330 H   0  0  0  0  0  0  0  0  0  0  0  0
    7.4890    1.9540   25.0800 H   0  0  0  0  0  0  0  0  0  0  0  0
    5.1970   -0.8070   26.8250 H   0  0  0  0  0  0  0  0  0  0  0  0
    7.3880   -2.0870   26.8330 H   0  0  0  0  0  0  0  0  0  0  0  0
   11.9650    0.3970   23.6270 H   0  0  0  0  0  0  0  0  0  0  0  0
   12.1070   -0.5050   25.1410 H   0  0  0  0  0  0  0  0  0  0  0  0
   11.4340   -0.9650   21.6870 H   0  0  0  0  0  0  0  0  0  0  0  0
   11.0180   -3.5980   21.6110 H   0  0  0  0  0  0  0  0  0  0  0  0
   12.8070   -3.5630   21.5380 H   0  0  0  0  0  0  0  0  0  0  0  0
   11.8370   -2.7730   20.2720 H   0  0  0  0  0  0  0  0  0  0  0  0
  1  2  1  0  0  0  0
  1 52  1  0  0  0  0
  1 53  1  0  0  0  0
  1 54  1  0  0  0  0
  2  3  1  0  0  0  0
  2 51  1  0  0  0  0
  3  4  2  0  0  0  0
  3  5  1  0  0  0  0
  5  6  1  0  0  0  0
  5 49  1  0  0  0  0
  5 50  1  0  0  0  0
  6  7  1  0  0  0  0
  6 16  1  0  0  0  0
  7  8  2  0  0  0  0
  7  9  1  0  0  0  0
  9 10  2  0  0  0  0
 10 11  1  0  0  0  0
 10 48  1  0  0  0  0
 11 12  2  0  0  0  0
 11 47  1  0  0  0  0
 12 13  1  0  0  0  0
 12 14  1  0  0  0  0
 14 15  1  0  0  0  0
 14 45  1  0  0  0  0
 14 46  1  0  0  0  0
 15  9  1  1  0  0  0
 15 16  1  0  0  0  0
 15 17  1  0  0  0  0
 16 17  1  0  0  0  0
 16 44  1  6  0  0  0
 17 18  1  6  0  0  0
 17 38  1  0  0  0  0
 18 19  2  0  0  0  0
 18 20  1  0  0  0  0
 20 21  1  0  0  0  0
 20 37  1  0  0  0  0
 21 22  2  0  0  0  0
 21 30  1  0  0  0  0
 22 23  1  0  0  0  0
 22 36  1  0  0  0  0
 23 24  2  0  0  0  0
 24 25  1  0  0  0  0
 24 35  1  0  0  0  0
 25 26  2  0  0  0  0
 25 30  1  0  0  0  0
 26 27  1  0  0  0  0
 26 34  1  0  0  0  0
 27 28  2  0  0  0  0
 27 33  1  0  0  0  0
 28 29  1  0  0  0  0
 28 32  1  0  0  0  0
 29 30  2  0  0  0  0
 29 31  1  0  0  0  0
 37 38  1  0  0  0  0
 37 42  1  0  0  0  0
 37 43  1  0  0  0  0
 38 39  2  0  0  0  0
 39 40  1  0  0  0  0
 39 41  1  0  0  0  0
M  END
>  <MODEL>
       1

$$$$
