output/tmp_first_model_5_25.pdb
 OpenBabel07222620423D

 68 73  0  0  1  0  0  0  0  0999 V2000
    6.4670    4.3160   21.3520 C   0  0  0  0  0  0  0  0  0  0  0  0
    7.4670    3.9340   22.3420 N   0  0  0  0  0  0  0  0  0  0  0  0
    7.0200    3.3160   23.4800 C   0  0  0  0  0  0  0  0  0  0  0  0
    5.8320    3.1260   23.6870 O   0  0  0  0  0  0  0  0  0  0  0  0
    8.0790    2.8700   24.4920 C   0  0  0  0  0  0  0  0  0  0  0  0
    8.7170    1.6350   24.0600 N   0  0  0  0  0  0  0  0  0  0  0  0
    7.9240    0.4180   23.9020 C   0  0  0  0  0  0  0  0  0  0  0  0
    8.3670   -0.4420   22.6850 C   0  0  2  0  0  0  0  0  0  0  0  0
    7.9200    0.2190   21.3590 C   0  0  0  0  0  0  0  0  0  0  0  0
    8.4240    1.1890   20.8210 O   0  0  0  0  0  0  0  0  0  0  0  0
    6.8560   -0.4800   20.8430 N   0  0  0  0  0  0  0  0  0  0  0  0
    6.1130    0.0520   19.7620 C   0  0  0  0  0  0  0  0  0  0  0  0
    6.4800   -0.2300   18.4730 C   0  0  0  0  0  0  0  0  0  0  0  0
    5.8170    0.2170   17.3800 N   0  0  0  0  0  0  0  0  0  0  0  0
    4.7790    0.9950   17.5810 C   0  0  0  0  0  0  0  0  0  0  0  0
    4.3090    1.3860   18.8680 C   0  0  0  0  0  0  0  0  0  0  0  0
    3.2030    2.2590   19.0410 C   0  0  0  0  0  0  0  0  0  0  0  0
    2.7980    2.6300   20.2950 C   0  0  0  0  0  0  0  0  0  0  0  0
    3.4850    2.1580   21.4360 C   0  0  0  0  0  0  0  0  0  0  0  0
    4.5610    1.3160   21.2950 C   0  0  0  0  0  0  0  0  0  0  0  0
    4.9940    0.9000   20.0050 C   0  0  0  0  0  0  0  0  0  0  0  0
    5.1310    1.0190   22.1720 H   0  0  0  0  0  0  0  0  0  0  0  0
    3.1900    2.4920   22.4270 H   0  0  0  0  0  0  0  0  0  0  0  0
    1.9530    3.3010   20.4210 H   0  0  0  0  0  0  0  0  0  0  0  0
    2.7040    2.6360   18.1520 H   0  0  0  0  0  0  0  0  0  0  0  0
    4.2470    1.3620   16.7010 H   0  0  0  0  0  0  0  0  0  0  0  0
    7.3570   -0.8470   18.2850 H   0  0  0  0  0  0  0  0  0  0  0  0
    6.4160   -1.5790   21.6750 C   0  0  0  0  0  0  0  0  0  0  0  0
    7.6310   -1.8170   22.5790 C   0  0  2  0  0  0  0  0  0  0  0  0
    7.2750   -2.5680   23.8530 C   0  0  0  0  0  0  0  0  0  0  0  0
    8.4410   -3.1790   24.4410 N   0  0  0  0  0  0  0  0  0  0  0  0
    8.3210   -3.7510   25.7090 C   0  0  0  0  0  0  0  0  0  0  0  0
    7.2050   -3.8540   26.5820 C   0  0  0  0  0  0  0  0  0  0  0  0
    7.5320   -4.4620   27.7190 N   0  0  0  0  0  0  0  0  0  0  0  0
    8.8330   -4.7500   27.6030 N   0  0  0  0  0  0  0  0  0  0  0  0
    9.5530   -5.2900   28.7330 C   0  0  0  0  0  0  0  0  0  0  0  0
    9.4940   -4.5920   29.5720 H   0  0  0  0  0  0  0  0  0  0  0  0
    9.1300   -6.2500   29.0380 H   0  0  0  0  0  0  0  0  0  0  0  0
   10.6010   -5.4300   28.4600 H   0  0  0  0  0  0  0  0  0  0  0  0
    9.3420   -4.3610   26.4070 C   0  0  0  0  0  0  0  0  0  0  0  0
   10.3720   -4.5580   26.1340 H   0  0  0  0  0  0  0  0  0  0  0  0
    6.1940   -3.4840   26.4450 H   0  0  0  0  0  0  0  0  0  0  0  0
    9.2860   -2.6240   24.3400 H   0  0  0  0  0  0  0  0  0  0  0  0
    6.5610   -3.3610   23.6150 H   0  0  0  0  0  0  0  0  0  0  0  0
    6.7600   -1.9020   24.5600 H   0  0  0  0  0  0  0  0  0  0  0  0
    8.2950   -2.4780   22.0190 H   0  0  0  0  0  0  0  0  0  0  0  0
    5.5160   -1.3200   22.2540 H   0  0  0  0  0  0  0  0  0  0  0  0
    6.1750   -2.4610   21.0700 H   0  0  0  0  0  0  0  0  0  0  0  0
    9.8800   -0.5280   22.6680 C   0  0  0  0  0  0  0  0  0  0  0  0
   10.5080   -1.3980   21.7710 C   0  0  0  0  0  0  0  0  0  0  0  0
   11.8710   -1.3500   21.5720 C   0  0  0  0  0  0  0  0  0  0  0  0
   12.4780   -2.3720   20.2890 Cl  0  0  0  0  0  0  0  0  0  0  0  0
   12.6750   -0.4760   22.3140 C   0  0  0  0  0  0  0  0  0  0  0  0
   12.0670    0.3700   23.2180 C   0  0  0  0  0  0  0  0  0  0  0  0
   10.6790    0.4080   23.3380 C   0  0  0  0  0  0  0  0  0  0  0  0
   10.0840    1.5840   24.0520 C   0  0  0  0  0  0  0  0  0  0  0  0
   10.7850    2.4690   24.5290 O   0  0  0  0  0  0  0  0  0  0  0  0
   12.6610    1.0600   23.8080 H   0  0  0  0  0  0  0  0  0  0  0  0
   13.7440   -0.3880   22.1700 H   0  0  0  0  0  0  0  0  0  0  0  0
    9.9530   -2.0800   21.1380 H   0  0  0  0  0  0  0  0  0  0  0  0
    8.0090   -0.1740   24.8230 H   0  0  0  0  0  0  0  0  0  0  0  0
    6.8760    0.7030   23.7870 H   0  0  0  0  0  0  0  0  0  0  0  0
    8.8760    3.6140   24.5790 H   0  0  0  0  0  0  0  0  0  0  0  0
    7.6170    2.7640   25.4860 H   0  0  0  0  0  0  0  0  0  0  0  0
    8.3830    3.6730   22.0030 H   0  0  0  0  0  0  0  0  0  0  0  0
    5.9960    3.4280   20.9070 H   0  0  0  0  0  0  0  0  0  0  0  0
    6.9290    4.9160   20.5650 H   0  0  0  0  0  0  0  0  0  0  0  0
    5.6970    4.9190   21.8440 H   0  0  0  0  0  0  0  0  0  0  0  0
  1  2  1  0  0  0  0
  1 66  1  0  0  0  0
  1 67  1  0  0  0  0
  1 68  1  0  0  0  0
  2  3  1  0  0  0  0
  2 65  1  0  0  0  0
  3  4  2  0  0  0  0
  3  5  1  0  0  0  0
  5  6  1  0  0  0  0
  5 63  1  0  0  0  0
  5 64  1  0  0  0  0
  6  7  1  0  0  0  0
  6 56  1  0  0  0  0
  7  8  1  0  0  0  0
  7 61  1  0  0  0  0
  7 62  1  0  0  0  0
  8  9  1  6  0  0  0
  8 29  1  0  0  0  0
  8 49  1  0  0  0  0
  9 10  2  0  0  0  0
  9 11  1  0  0  0  0
 11 12  1  0  0  0  0
 11 28  1  0  0  0  0
 12 13  2  0  0  0  0
 12 21  1  0  0  0  0
 13 14  1  0  0  0  0
 13 27  1  0  0  0  0
 14 15  2  0  0  0  0
 15 16  1  0  0  0  0
 15 26  1  0  0  0  0
 16 17  2  0  0  0  0
 16 21  1  0  0  0  0
 17 18  1  0  0  0  0
 17 25  1  0  0  0  0
 18 19  2  0  0  0  0
 18 24  1  0  0  0  0
 19 20  1  0  0  0  0
 19 23  1  0  0  0  0
 20 21  2  0  0  0  0
 20 22  1  0  0  0  0
 28 29  1  0  0  0  0
 28 47  1  0  0  0  0
 28 48  1  0  0  0  0
 29 30  1  0  0  0  0
 29 46  1  6  0  0  0
 30 31  1  0  0  0  0
 30 44  1  0  0  0  0
 30 45  1  0  0  0  0
 31 32  1  0  0  0  0
 31 43  1  0  0  0  0
 32 33  1  0  0  0  0
 32 40  2  0  0  0  0
 33 34  2  0  0  0  0
 33 42  1  0  0  0  0
 34 35  1  0  0  0  0
 35 36  1  0  0  0  0
 35 40  1  0  0  0  0
 36 37  1  0  0  0  0
 36 38  1  0  0  0  0
 36 39  1  0  0  0  0
 40 41  1  0  0  0  0
 49 50  2  0  0  0  0
 49 55  1  0  0  0  0
 50 51  1  0  0  0  0
 50 60  1  0  0  0  0
 51 52  1  0  0  0  0
 51 53  2  0  0  0  0
 53 54  1  0  0  0  0
 53 59  1  0  0  0  0
 54 55  2  0  0  0  0
 54 58  1  0  0  0  0
 55 56  1  0  0  0  0
 56 57  2  0  0  0  0
M  END
>  <MODEL>
       1

$$$$
