output/tmp_first_model_15_53.pdb
 OpenBabel07232601353D

 77 84  0  0  1  0  0  0  0  0999 V2000
    8.9530    2.3560   25.8990 O   0  0  0  0  0  0  0  0  0  0  0  0
    8.7610    1.5480   24.9830 C   0  0  0  0  0  0  0  0  0  0  0  0
    9.8490    0.8300   24.2370 C   0  0  0  0  0  0  0  0  0  0  0  0
   11.1640    1.1880   24.5070 C   0  0  0  0  0  0  0  0  0  0  0  0
   12.1930    0.7940   23.6800 C   0  0  0  0  0  0  0  0  0  0  0  0
   11.8650    0.0200   22.5720 C   0  0  0  0  0  0  0  0  0  0  0  0
   13.1170   -0.2390   21.4050 Cl  0  0  0  0  0  0  0  0  0  0  0  0
   10.5890   -0.4620   22.3470 C   0  0  0  0  0  0  0  0  0  0  0  0
    9.5440   -0.0660   23.1950 C   0  0  0  0  0  0  0  0  0  0  0  0
    8.1080   -0.4310   22.8620 C   0  0  1  0  0  0  0  0  0  0  0  0
    7.2350   -0.0950   24.0900 C   0  0  0  0  0  0  0  0  0  0  0  0
    7.5070    1.2560   24.5420 N   0  0  0  0  0  0  0  0  0  0  0  0
    6.4160    2.1190   24.9480 C   0  0  0  0  0  0  0  0  0  0  0  0
    5.7840    1.7000   26.2620 C   0  0  0  0  0  0  0  0  0  0  0  0
    6.7530    1.8550   27.3910 N   0  3  0  0  0  0  0  0  0  0  0  0
    7.6840    0.6840   27.8140 C   0  0  0  0  0  0  0  0  0  0  0  0
    6.9610    0.5380   29.1560 C   0  0  0  0  0  0  0  0  0  0  0  0
    6.3190   -0.7920   29.5060 C   0  0  0  0  0  0  0  0  0  0  0  0
    6.8060   -0.7170   30.8490 O   0  0  0  0  0  0  0  0  0  0  0  0
    7.6060    0.4300   30.5350 C   0  0  0  0  0  0  0  0  0  0  0  0
    8.6790    0.1940   30.5350 H   0  0  0  0  0  0  0  0  0  0  0  0
    7.4170    1.2720   31.2130 H   0  0  0  0  0  0  0  0  0  0  0  0
    5.2260   -0.8530   29.4410 H   0  0  0  0  0  0  0  0  0  0  0  0
    6.7700   -1.6330   28.9610 H   0  0  0  0  0  0  0  0  0  0  0  0
    6.1290    1.7710   28.7620 C   0  0  0  0  0  0  0  0  0  0  0  0
    5.0550    1.5990   28.6950 H   0  0  0  0  0  0  0  0  0  0  0  0
    6.3180    2.6780   29.3250 H   0  0  0  0  0  0  0  0  0  0  0  0
    7.6310   -0.1620   27.1310 H   0  0  0  0  0  0  0  0  0  0  0  0
    8.7020    1.0530   27.8930 H   0  0  0  0  0  0  0  0  0  0  0  0
    7.3750    2.6600   27.2000 H   0  0  0  0  0  0  0  0  0  0  0  0
    5.4380    0.6610   26.2110 H   0  0  0  0  0  0  0  0  0  0  0  0
    4.9220    2.3310   26.4860 H   0  0  0  0  0  0  0  0  0  0  0  0
    5.6660    2.1490   24.1490 H   0  0  0  0  0  0  0  0  0  0  0  0
    6.8290    3.1260   25.0320 H   0  0  0  0  0  0  0  0  0  0  0  0
    7.4750   -0.8030   24.8990 H   0  0  0  0  0  0  0  0  0  0  0  0
    6.1690   -0.1940   23.8560 H   0  0  0  0  0  0  0  0  0  0  0  0
    7.6280    0.4100   21.6570 C   0  0  0  0  0  0  0  0  0  0  0  0
    7.8240    1.5890   21.4690 O   0  0  0  0  0  0  0  0  0  0  0  0
    6.9200   -0.4080   20.8010 N   0  0  0  0  0  0  0  0  0  0  0  0
    6.1320    0.1120   19.7520 C   0  0  0  0  0  0  0  0  0  0  0  0
    6.4340   -0.2350   18.4630 C   0  0  0  0  0  0  0  0  0  0  0  0
    5.7580    0.2100   17.3800 N   0  0  0  0  0  0  0  0  0  0  0  0
    4.7460    1.0160   17.5830 C   0  0  0  0  0  0  0  0  0  0  0  0
    4.2980    1.4150   18.8740 C   0  0  0  0  0  0  0  0  0  0  0  0
    3.1710    2.2600   19.0460 C   0  0  0  0  0  0  0  0  0  0  0  0
    2.7390    2.5990   20.2980 C   0  0  0  0  0  0  0  0  0  0  0  0
    3.4070    2.1010   21.4390 C   0  0  0  0  0  0  0  0  0  0  0  0
    4.5020    1.2870   21.2970 C   0  0  0  0  0  0  0  0  0  0  0  0
    4.9940    0.9420   20.0050 C   0  0  0  0  0  0  0  0  0  0  0  0
    5.0020    0.8960   22.1780 H   0  0  0  0  0  0  0  0  0  0  0  0
    3.0530    2.3690   22.4310 H   0  0  0  0  0  0  0  0  0  0  0  0
    1.8830    3.2540   20.4230 H   0  0  0  0  0  0  0  0  0  0  0  0
    2.6760    2.6370   18.1550 H   0  0  0  0  0  0  0  0  0  0  0  0
    4.2110    1.3840   16.7050 H   0  0  0  0  0  0  0  0  0  0  0  0
    7.2760   -0.8990   18.2680 H   0  0  0  0  0  0  0  0  0  0  0  0
    6.6880   -1.7290   21.3410 C   0  0  0  0  0  0  0  0  0  0  0  0
    7.8550   -1.8700   22.3220 C   0  0  2  0  0  0  0  0  0  0  0  0
    7.7190   -3.0260   23.3260 C   0  0  0  0  0  0  0  0  0  0  0  0
    6.4350   -3.1760   23.9890 N   0  0  0  0  0  0  0  0  0  0  0  0
    5.4170   -3.9480   23.5170 C   0  0  0  0  0  0  0  0  0  0  0  0
    4.2800   -3.9590   24.2420 N   0  0  0  0  0  0  0  0  0  0  0  0
    3.2890   -4.6840   23.7400 C   0  0  0  0  0  0  0  0  0  0  0  0
    3.3890   -5.4090   22.5560 C   0  0  0  0  0  0  0  0  0  0  0  0
    4.6190   -5.3430   21.9210 C   0  0  0  0  0  0  0  0  0  0  0  0
    5.6330   -4.6110   22.3690 N   0  0  0  0  0  0  0  0  0  0  0  0
    4.8180   -5.8940   21.0030 H   0  0  0  0  0  0  0  0  0  0  0  0
    2.5660   -5.9930   22.1580 H   0  0  0  0  0  0  0  0  0  0  0  0
    2.3660   -4.6910   24.3170 H   0  0  0  0  0  0  0  0  0  0  0  0
    6.2290   -2.6560   24.8280 H   0  0  0  0  0  0  0  0  0  0  0  0
    7.9070   -3.9650   22.8040 H   0  0  0  0  0  0  0  0  0  0  0  0
    8.4940   -2.9150   24.0930 H   0  0  0  0  0  0  0  0  0  0  0  0
    8.7330   -2.0970   21.7090 H   0  0  0  0  0  0  0  0  0  0  0  0
    5.7080   -1.7880   21.8340 H   0  0  0  0  0  0  0  0  0  0  0  0
    6.6980   -2.4830   20.5540 H   0  0  0  0  0  0  0  0  0  0  0  0
   10.4220   -1.1330   21.5050 H   0  0  0  0  0  0  0  0  0  0  0  0
   13.2220    1.0980   23.8430 H   0  0  0  0  0  0  0  0  0  0  0  0
   11.3350    1.8330   25.3440 H   0  0  0  0  0  0  0  0  0  0  0  0
  1  2  2  0  0  0  0
  2  3  1  0  0  0  0
  2 12  1  0  0  0  0
  3  4  2  0  0  0  0
  3  9  1  0  0  0  0
  4  5  1  0  0  0  0
  4 77  1  0  0  0  0
  5  6  2  0  0  0  0
  5 76  1  0  0  0  0
  6  7  1  0  0  0  0
  6  8  1  0  0  0  0
  8  9  2  0  0  0  0
  8 75  1  0  0  0  0
 10  9  1  1  0  0  0
 10 11  1  0  0  0  0
 10 37  1  0  0  0  0
 10 57  1  0  0  0  0
 11 12  1  0  0  0  0
 11 35  1  0  0  0  0
 11 36  1  0  0  0  0
 12 13  1  0  0  0  0
 13 14  1  0  0  0  0
 13 33  1  0  0  0  0
 13 34  1  0  0  0  0
 14 15  1  0  0  0  0
 14 31  1  0  0  0  0
 14 32  1  0  0  0  0
 15 16  1  0  0  0  0
 15 25  1  0  0  0  0
 15 30  1  0  0  0  0
 16 17  1  0  0  0  0
 16 28  1  0  0  0  0
 16 29  1  0  0  0  0
 17 18  1  0  0  0  0
 17 20  1  0  0  0  0
 17 25  1  0  0  0  0
 18 19  1  0  0  0  0
 18 23  1  0  0  0  0
 18 24  1  0  0  0  0
 19 20  1  0  0  0  0
 20 21  1  0  0  0  0
 20 22  1  0  0  0  0
 25 26  1  0  0  0  0
 25 27  1  0  0  0  0
 37 38  2  0  0  0  0
 37 39  1  0  0  0  0
 39 40  1  0  0  0  0
 39 56  1  0  0  0  0
 40 41  2  0  0  0  0
 40 49  1  0  0  0  0
 41 42  1  0  0  0  0
 41 55  1  0  0  0  0
 42 43  2  0  0  0  0
 43 44  1  0  0  0  0
 43 54  1  0  0  0  0
 44 45  2  0  0  0  0
 44 49  1  0  0  0  0
 45 46  1  0  0  0  0
 45 53  1  0  0  0  0
 46 47  2  0  0  0  0
 46 52  1  0  0  0  0
 47 48  1  0  0  0  0
 47 51  1  0  0  0  0
 48 49  2  0  0  0  0
 48 50  1  0  0  0  0
 56 57  1  0  0  0  0
 56 73  1  0  0  0  0
 56 74  1  0  0  0  0
 57 58  1  0  0  0  0
 57 72  1  6  0  0  0
 58 59  1  0  0  0  0
 58 70  1  0  0  0  0
 58 71  1  0  0  0  0
 59 60  1  0  0  0  0
 59 69  1  0  0  0  0
 60 61  2  0  0  0  0
 60 65  1  0  0  0  0
 61 62  1  0  0  0  0
 62 63  2  0  0  0  0
 62 68  1  0  0  0  0
 63 64  1  0  0  0  0
 63 67  1  0  0  0  0
 64 65  2  0  0  0  0
 64 66  1  0  0  0  0
M  CHG  1  15   1
M  END
>  <MODEL>
       1

$$$$
