output/tmp_first_model_15_23.pdb
 OpenBabel07232601353D

 69 74  0  0  1  0  0  0  0  0999 V2000
    7.8950    7.7330   22.5300 C   0  0  0  0  0  0  0  0  0  0  0  0
    7.7610    6.4150   21.7850 C   0  0  1  0  0  0  0  0  0  0  0  0
    8.6610    5.2840   22.3330 C   0  0  0  0  0  0  0  0  0  0  0  0
    8.0520    3.8960   22.1800 N   0  3  1  0  0  0  0  0  0  0  0  0
    7.4080    3.4400   23.4520 C   0  0  0  0  0  0  0  0  0  0  0  0
    8.4470    2.8420   24.3930 C   0  0  0  0  0  0  0  0  0  0  0  0
    9.0890    1.6790   23.7960 N   0  0  0  0  0  0  0  0  0  0  0  0
    8.3260    0.4460   23.7580 C   0  0  0  0  0  0  0  0  0  0  0  0
    8.6240   -0.3750   22.4920 C   0  0  2  0  0  0  0  0  0  0  0  0
    8.0810    0.3430   21.2390 C   0  0  0  0  0  0  0  0  0  0  0  0
    8.5250    1.3580   20.7310 O   0  0  0  0  0  0  0  0  0  0  0  0
    6.9710   -0.3410   20.8100 N   0  0  0  0  0  0  0  0  0  0  0  0
    6.1690    0.1420   19.7500 C   0  0  0  0  0  0  0  0  0  0  0  0
    6.5010   -0.1590   18.4540 C   0  0  0  0  0  0  0  0  0  0  0  0
    5.7980    0.2620   17.3770 N   0  0  0  0  0  0  0  0  0  0  0  0
    4.7550    1.0250   17.5900 C   0  0  0  0  0  0  0  0  0  0  0  0
    4.3020    1.4090   18.8870 C   0  0  0  0  0  0  0  0  0  0  0  0
    3.1870    2.2700   19.0780 C   0  0  0  0  0  0  0  0  0  0  0  0
    2.7950    2.6360   20.3390 C   0  0  0  0  0  0  0  0  0  0  0  0
    3.4830    2.1520   21.4700 C   0  0  0  0  0  0  0  0  0  0  0  0
    4.5580    1.3040   21.3150 C   0  0  0  0  0  0  0  0  0  0  0  0
    5.0110    0.9300   20.0140 C   0  0  0  0  0  0  0  0  0  0  0  0
    5.0920    0.9590   22.1950 H   0  0  0  0  0  0  0  0  0  0  0  0
    3.1630    2.4480   22.4660 H   0  0  0  0  0  0  0  0  0  0  0  0
    1.9500    3.3080   20.4750 H   0  0  0  0  0  0  0  0  0  0  0  0
    2.6680    2.6400   18.1990 H   0  0  0  0  0  0  0  0  0  0  0  0
    4.1950    1.3720   16.7170 H   0  0  0  0  0  0  0  0  0  0  0  0
    7.3730   -0.7750   18.2480 H   0  0  0  0  0  0  0  0  0  0  0  0
    6.5750   -1.4250   21.6850 C   0  0  0  0  0  0  0  0  0  0  0  0
    7.8560   -1.7230   22.4610 C   0  0  2  0  0  0  0  0  0  0  0  0
    7.6530   -2.4370   23.7890 C   0  0  0  0  0  0  0  0  0  0  0  0
    7.0260   -1.8510   24.4700 H   0  0  0  0  0  0  0  0  0  0  0  0
    8.6110   -2.6240   24.2860 H   0  0  0  0  0  0  0  0  0  0  0  0
    7.1700   -3.4040   23.6250 H   0  0  0  0  0  0  0  0  0  0  0  0
    8.4400   -2.3860   21.8240 H   0  0  0  0  0  0  0  0  0  0  0  0
    5.7580   -1.1440   22.3630 H   0  0  0  0  0  0  0  0  0  0  0  0
    6.2390   -2.2810   21.0970 H   0  0  0  0  0  0  0  0  0  0  0  0
   10.1190   -0.5140   22.3720 C   0  0  0  0  0  0  0  0  0  0  0  0
   10.6310   -1.4750   21.4950 C   0  0  0  0  0  0  0  0  0  0  0  0
   11.9870   -1.5590   21.2740 C   0  0  0  0  0  0  0  0  0  0  0  0
   12.5540   -2.6050   20.0090 Cl  0  0  0  0  0  0  0  0  0  0  0  0
   12.8570   -0.7050   21.9460 C   0  0  0  0  0  0  0  0  0  0  0  0
   12.3590    0.2900   22.7610 C   0  0  0  0  0  0  0  0  0  0  0  0
   10.9830    0.4200   22.9460 C   0  0  0  0  0  0  0  0  0  0  0  0
   10.4540    1.6390   23.6510 C   0  0  0  0  0  0  0  0  0  0  0  0
   11.1980    2.5390   24.0190 O   0  0  0  0  0  0  0  0  0  0  0  0
   13.0370    1.0000   23.2180 H   0  0  0  0  0  0  0  0  0  0  0  0
   13.9200   -0.7790   21.8120 H   0  0  0  0  0  0  0  0  0  0  0  0
    9.9740   -2.1060   20.9130 H   0  0  0  0  0  0  0  0  0  0  0  0
    8.5650   -0.1810   24.6300 H   0  0  0  0  0  0  0  0  0  0  0  0
    7.2650    0.6960   23.8030 H   0  0  0  0  0  0  0  0  0  0  0  0
    9.2370    3.5630   24.6050 H   0  0  0  0  0  0  0  0  0  0  0  0
    7.9730    2.5590   25.3400 H   0  0  0  0  0  0  0  0  0  0  0  0
    6.8890    4.2820   23.9100 H   0  0  0  0  0  0  0  0  0  0  0  0
    6.6400    2.7020   23.1900 H   0  0  0  0  0  0  0  0  0  0  0  0
    7.1090    3.8160   21.0300 C   0  0  0  0  0  0  0  0  0  0  0  0
    6.1440    5.0120   20.9270 C   0  0  0  0  0  0  0  0  0  0  0  0
    6.4030    6.0200   21.8730 O   0  0  0  0  0  0  0  0  0  0  0  0
    6.2250    5.4500   19.9200 H   0  0  0  0  0  0  0  0  0  0  0  0
    5.1070    4.6970   21.0800 H   0  0  0  0  0  0  0  0  0  0  0  0
    6.5330    2.9020   21.1310 H   0  0  0  0  0  0  0  0  0  0  0  0
    7.7210    3.6960   20.1310 H   0  0  0  0  0  0  0  0  0  0  0  0
    8.7940    3.2170   21.9440 H   0  0  0  0  0  0  0  0  0  0  0  0
    8.8340    5.4530   23.3980 H   0  0  0  0  0  0  0  0  0  0  0  0
    9.6420    5.3080   21.8490 H   0  0  0  0  0  0  0  0  0  0  0  0
    8.0110    6.5880   20.7260 H   0  0  0  0  0  0  0  0  0  0  0  0
    7.6000    7.6170   23.5770 H   0  0  0  0  0  0  0  0  0  0  0  0
    7.2230    8.4690   22.0780 H   0  0  0  0  0  0  0  0  0  0  0  0
    8.9170    8.1270   22.4890 H   0  0  0  0  0  0  0  0  0  0  0  0
  1  2  1  0  0  0  0
  1 67  1  0  0  0  0
  1 68  1  0  0  0  0
  1 69  1  0  0  0  0
  2  3  1  0  0  0  0
  2 58  1  0  0  0  0
  2 66  1  6  0  0  0
  3  4  1  0  0  0  0
  3 64  1  0  0  0  0
  3 65  1  0  0  0  0
  4  5  1  0  0  0  0
  4 56  1  0  0  0  0
  4 63  1  6  0  0  0
  5  6  1  0  0  0  0
  5 54  1  0  0  0  0
  5 55  1  0  0  0  0
  6  7  1  0  0  0  0
  6 52  1  0  0  0  0
  6 53  1  0  0  0  0
  7  8  1  0  0  0  0
  7 45  1  0  0  0  0
  8  9  1  0  0  0  0
  8 50  1  0  0  0  0
  8 51  1  0  0  0  0
  9 10  1  6  0  0  0
  9 30  1  0  0  0  0
  9 38  1  0  0  0  0
 10 11  2  0  0  0  0
 10 12  1  0  0  0  0
 12 13  1  0  0  0  0
 12 29  1  0  0  0  0
 13 14  2  0  0  0  0
 13 22  1  0  0  0  0
 14 15  1  0  0  0  0
 14 28  1  0  0  0  0
 15 16  2  0  0  0  0
 16 17  1  0  0  0  0
 16 27  1  0  0  0  0
 17 18  2  0  0  0  0
 17 22  1  0  0  0  0
 18 19  1  0  0  0  0
 18 26  1  0  0  0  0
 19 20  2  0  0  0  0
 19 25  1  0  0  0  0
 20 21  1  0  0  0  0
 20 24  1  0  0  0  0
 21 22  2  0  0  0  0
 21 23  1  0  0  0  0
 29 30  1  0  0  0  0
 29 36  1  0  0  0  0
 29 37  1  0  0  0  0
 30 31  1  0  0  0  0
 30 35  1  6  0  0  0
 31 32  1  0  0  0  0
 31 33  1  0  0  0  0
 31 34  1  0  0  0  0
 38 39  2  0  0  0  0
 38 44  1  0  0  0  0
 39 40  1  0  0  0  0
 39 49  1  0  0  0  0
 40 41  1  0  0  0  0
 40 42  2  0  0  0  0
 42 43  1  0  0  0  0
 42 48  1  0  0  0  0
 43 44  2  0  0  0  0
 43 47  1  0  0  0  0
 44 45  1  0  0  0  0
 45 46  2  0  0  0  0
 56 57  1  0  0  0  0
 56 61  1  0  0  0  0
 56 62  1  0  0  0  0
 57 58  1  0  0  0  0
 57 59  1  0  0  0  0
 57 60  1  0  0  0  0
M  CHG  1   4   1
M  END
>  <MODEL>
       1

$$$$
