output/tmp_first_model_18_20.pdb
 OpenBabel07232602473D

 66 70  0  0  0  0  0  0  0  0999 V2000
    7.4700   -3.7490   27.9470 C   0  0  0  0  0  0  0  0  0  0  0  0
    6.2090   -4.5530   28.3000 C   0  0  0  0  0  0  0  0  0  0  0  0
    5.3580   -4.4350   27.0600 C   0  0  0  0  0  0  0  0  0  0  0  0
    4.6500   -3.4820   26.8270 O   0  0  0  0  0  0  0  0  0  0  0  0
    5.5860   -5.4520   26.1360 N   0  0  0  0  0  0  0  0  0  0  0  0
    5.7740   -6.8160   26.6110 C   0  0  0  0  0  0  0  0  0  0  0  0
    5.2210   -7.7720   25.5680 C   0  0  0  0  0  0  0  0  0  0  0  0
    5.8640   -7.5630   24.2140 C   0  0  0  0  0  0  0  0  0  0  0  0
    6.0160   -6.1210   23.8520 C   0  0  0  0  0  0  0  0  0  0  0  0
    6.3130   -5.7880   22.5410 C   0  0  0  0  0  0  0  0  0  0  0  0
    6.4940   -4.4780   22.1630 C   0  0  0  0  0  0  0  0  0  0  0  0
    6.4130   -3.4870   23.1350 C   0  0  0  0  0  0  0  0  0  0  0  0
    6.6690   -2.1520   22.7590 N   0  0  0  0  0  0  0  0  0  0  0  0
    6.1890   -1.7110   21.5240 C   0  0  0  0  0  0  0  0  0  0  0  0
    5.3050   -2.3140   20.9530 O   0  0  0  0  0  0  0  0  0  0  0  0
    6.8880   -0.4970   20.9310 C   0  0  0  0  0  0  0  0  0  0  0  0
    6.1090    0.0850   19.7930 C   0  0  0  0  0  0  0  0  0  0  0  0
    6.4280   -0.2310   18.5020 C   0  0  0  0  0  0  0  0  0  0  0  0
    5.7750    0.2160   17.4000 N   0  0  0  0  0  0  0  0  0  0  0  0
    4.7540    1.0140   17.5980 C   0  0  0  0  0  0  0  0  0  0  0  0
    4.2900    1.4080   18.8830 C   0  0  0  0  0  0  0  0  0  0  0  0
    3.1740    2.2650   19.0490 C   0  0  0  0  0  0  0  0  0  0  0  0
    2.7490    2.6210   20.3000 C   0  0  0  0  0  0  0  0  0  0  0  0
    3.4290    2.1330   21.4390 C   0  0  0  0  0  0  0  0  0  0  0  0
    4.5160    1.3090   21.3080 C   0  0  0  0  0  0  0  0  0  0  0  0
    4.9800    0.9250   20.0200 C   0  0  0  0  0  0  0  0  0  0  0  0
    5.0330    0.9560   22.1970 H   0  0  0  0  0  0  0  0  0  0  0  0
    3.0900    2.4210   22.4330 H   0  0  0  0  0  0  0  0  0  0  0  0
    1.8960    3.2800   20.4260 H   0  0  0  0  0  0  0  0  0  0  0  0
    2.6750    2.6400   18.1590 H   0  0  0  0  0  0  0  0  0  0  0  0
    4.2330    1.3880   16.7160 H   0  0  0  0  0  0  0  0  0  0  0  0
    7.2750   -0.8910   18.3050 H   0  0  0  0  0  0  0  0  0  0  0  0
    7.0840    0.2260   21.7270 H   0  0  0  0  0  0  0  0  0  0  0  0
    7.8620   -0.8610   20.5760 H   0  0  0  0  0  0  0  0  0  0  0  0
    7.3510   -1.3460   23.6450 N   0  0  0  0  0  0  0  0  0  0  0  0
    8.7590   -1.5990   23.8680 C   0  0  0  0  0  0  0  0  0  0  0  0
    8.9770   -2.6260   23.5730 H   0  0  0  0  0  0  0  0  0  0  0  0
    9.4200   -0.9250   23.3020 H   0  0  0  0  0  0  0  0  0  0  0  0
    9.0050   -1.4970   24.9310 H   0  0  0  0  0  0  0  0  0  0  0  0
    6.6600   -0.3510   24.3270 C   0  0  0  0  0  0  0  0  0  0  0  0
    7.3440    0.7760   24.7850 C   0  0  0  0  0  0  0  0  0  0  0  0
    6.6430    1.8070   25.3930 C   0  0  0  0  0  0  0  0  0  0  0  0
    5.2670    1.7360   25.5630 C   0  0  0  0  0  0  0  0  0  0  0  0
    4.6070    0.5940   25.1230 C   0  0  0  0  0  0  0  0  0  0  0  0
    2.8790    0.4900   25.2950 Cl  0  0  0  0  0  0  0  0  0  0  0  0
    5.2770   -0.4610   24.5250 C   0  0  0  0  0  0  0  0  0  0  0  0
    4.7540   -1.3620   24.2170 H   0  0  0  0  0  0  0  0  0  0  0  0
    4.7110    2.5410   26.0330 H   0  0  0  0  0  0  0  0  0  0  0  0
    7.1820    2.6830   25.7370 H   0  0  0  0  0  0  0  0  0  0  0  0
    8.4190    0.8440   24.6440 H   0  0  0  0  0  0  0  0  0  0  0  0
    6.1750   -3.7870   24.4650 C   0  0  0  0  0  0  0  0  0  0  0  0
    5.9150   -5.1120   24.8120 C   0  0  0  0  0  0  0  0  0  0  0  0
    6.2310   -3.0030   25.2130 H   0  0  0  0  0  0  0  0  0  0  0  0
    6.7170   -4.2200   21.1400 H   0  0  0  0  0  0  0  0  0  0  0  0
    6.3840   -6.5700   21.7880 H   0  0  0  0  0  0  0  0  0  0  0  0
    6.8510   -8.0200   24.1470 H   0  0  0  0  0  0  0  0  0  0  0  0
    5.2580   -8.0430   23.4480 H   0  0  0  0  0  0  0  0  0  0  0  0
    4.1520   -7.5700   25.4830 H   0  0  0  0  0  0  0  0  0  0  0  0
    5.3290   -8.8030   25.9030 H   0  0  0  0  0  0  0  0  0  0  0  0
    5.1970   -6.9400   27.5320 H   0  0  0  0  0  0  0  0  0  0  0  0
    6.8320   -6.9780   26.8770 H   0  0  0  0  0  0  0  0  0  0  0  0
    5.6620   -4.1200   29.1350 H   0  0  0  0  0  0  0  0  0  0  0  0
    6.4600   -5.5970   28.5230 H   0  0  0  0  0  0  0  0  0  0  0  0
    8.0900   -3.5740   28.8160 H   0  0  0  0  0  0  0  0  0  0  0  0
    8.0690   -4.2890   27.2060 H   0  0  0  0  0  0  0  0  0  0  0  0
    7.1850   -2.7740   27.5330 H   0  0  0  0  0  0  0  0  0  0  0  0
  1  2  1  0  0  0  0
  1 64  1  0  0  0  0
  1 65  1  0  0  0  0
  1 66  1  0  0  0  0
  2  3  1  0  0  0  0
  2 62  1  0  0  0  0
  2 63  1  0  0  0  0
  3  4  2  0  0  0  0
  3  5  1  0  0  0  0
  5  6  1  0  0  0  0
  5 52  1  0  0  0  0
  6  7  1  0  0  0  0
  6 60  1  0  0  0  0
  6 61  1  0  0  0  0
  7  8  1  0  0  0  0
  7 58  1  0  0  0  0
  7 59  1  0  0  0  0
  8  9  1  0  0  0  0
  8 56  1  0  0  0  0
  8 57  1  0  0  0  0
  9 10  2  0  0  0  0
  9 52  1  0  0  0  0
 10 11  1  0  0  0  0
 10 55  1  0  0  0  0
 11 12  2  0  0  0  0
 11 54  1  0  0  0  0
 12 13  1  0  0  0  0
 12 51  1  0  0  0  0
 13 14  1  0  0  0  0
 13 35  1  0  0  0  0
 14 15  2  0  0  0  0
 14 16  1  0  0  0  0
 16 17  1  0  0  0  0
 16 33  1  0  0  0  0
 16 34  1  0  0  0  0
 17 18  2  0  0  0  0
 17 26  1  0  0  0  0
 18 19  1  0  0  0  0
 18 32  1  0  0  0  0
 19 20  2  0  0  0  0
 20 21  1  0  0  0  0
 20 31  1  0  0  0  0
 21 22  2  0  0  0  0
 21 26  1  0  0  0  0
 22 23  1  0  0  0  0
 22 30  1  0  0  0  0
 23 24  2  0  0  0  0
 23 29  1  0  0  0  0
 24 25  1  0  0  0  0
 24 28  1  0  0  0  0
 25 26  2  0  0  0  0
 25 27  1  0  0  0  0
 35 36  1  0  0  0  0
 35 40  1  0  0  0  0
 36 37  1  0  0  0  0
 36 38  1  0  0  0  0
 36 39  1  0  0  0  0
 40 41  2  0  0  0  0
 40 46  1  0  0  0  0
 41 42  1  0  0  0  0
 41 50  1  0  0  0  0
 42 43  2  0  0  0  0
 42 49  1  0  0  0  0
 43 44  1  0  0  0  0
 43 48  1  0  0  0  0
 44 45  1  0  0  0  0
 44 46  2  0  0  0  0
 46 47  1  0  0  0  0
 51 52  2  0  0  0  0
 51 53  1  0  0  0  0
M  END
>  <MODEL>
       1

$$$$
