output/tmp_first_model_2_91.pdb
 OpenBabel07222619223D

 56 61  0  0  1  0  0  0  0  0999 V2000
   10.0490    0.0450   21.4660 C   0  0  0  0  0  0  0  0  0  0  0  0
    8.7760   -0.1880   22.2740 C   0  0  1  0  0  0  0  0  0  0  0  0
    7.6180    0.6550   21.7150 C   0  0  0  0  0  0  0  0  0  0  0  0
    6.9340   -0.2550   20.8110 N   0  0  0  0  0  0  0  0  0  0  0  0
    6.0950    0.1460   19.7350 C   0  0  0  0  0  0  0  0  0  0  0  0
    6.3760   -0.2190   18.4400 C   0  0  0  0  0  0  0  0  0  0  0  0
    5.7020    0.2450   17.3570 N   0  0  0  0  0  0  0  0  0  0  0  0
    4.7030    1.0680   17.5540 C   0  0  0  0  0  0  0  0  0  0  0  0
    4.2670    1.4820   18.8430 C   0  0  0  0  0  0  0  0  0  0  0  0
    3.1560    2.3490   19.0180 C   0  0  0  0  0  0  0  0  0  0  0  0
    2.7380    2.6910   20.2740 C   0  0  0  0  0  0  0  0  0  0  0  0
    3.4140    2.1880   21.4070 C   0  0  0  0  0  0  0  0  0  0  0  0
    4.4950    1.3570   21.2620 C   0  0  0  0  0  0  0  0  0  0  0  0
    4.9650    0.9970   19.9710 C   0  0  0  0  0  0  0  0  0  0  0  0
    4.9900    0.9600   22.1430 H   0  0  0  0  0  0  0  0  0  0  0  0
    3.0760    2.4560   22.4020 H   0  0  0  0  0  0  0  0  0  0  0  0
    1.8850    3.3480   20.4110 H   0  0  0  0  0  0  0  0  0  0  0  0
    2.6500    2.7280   18.1350 H   0  0  0  0  0  0  0  0  0  0  0  0
    4.1740    1.4370   16.6730 H   0  0  0  0  0  0  0  0  0  0  0  0
    7.1960   -0.8990   18.2160 H   0  0  0  0  0  0  0  0  0  0  0  0
    7.1110   -1.5750   21.1760 C   0  0  0  0  0  0  0  0  0  0  0  0
    6.4560   -2.5030   20.7460 O   0  0  0  0  0  0  0  0  0  0  0  0
    8.2250   -1.6570   22.2380 C   0  0  1  0  0  0  0  0  0  0  0  0
    9.2830   -2.7190   21.8550 C   0  0  0  0  0  0  0  0  0  0  0  0
   10.3160   -2.7740   22.8870 N   0  0  0  0  0  0  0  0  0  0  0  0
   11.7340   -2.6700   22.5440 C   0  0  0  0  0  0  0  0  0  0  0  0
   12.5780   -1.9050   23.5410 C   0  0  0  0  0  0  0  0  0  0  0  0
   13.6820   -2.4320   24.2410 C   0  0  0  0  0  0  0  0  0  0  0  0
   14.1560   -1.5900   25.1520 N   0  0  0  0  0  0  0  0  0  0  0  0
   13.3920   -0.5000   24.9980 N   0  0  0  0  0  0  0  0  0  0  0  0
   12.4410   -0.6260   24.0400 C   0  0  0  0  0  0  0  0  0  0  0  0
   11.7510    0.1880   23.8240 H   0  0  0  0  0  0  0  0  0  0  0  0
   13.4600    0.2440   25.6760 H   0  0  0  0  0  0  0  0  0  0  0  0
   14.0950   -3.4340   24.1500 H   0  0  0  0  0  0  0  0  0  0  0  0
   12.1510   -3.6700   22.3940 H   0  0  0  0  0  0  0  0  0  0  0  0
   11.7800   -2.1770   21.5710 H   0  0  0  0  0  0  0  0  0  0  0  0
    9.9640   -3.0250   24.1860 C   0  0  0  0  0  0  0  0  0  0  0  0
   10.7300   -3.4800   25.0290 O   0  0  0  0  0  0  0  0  0  0  0  0
    8.5450   -2.7370   24.5170 C   0  0  0  0  0  0  0  0  0  0  0  0
    8.1060   -3.1170   25.7850 C   0  0  0  0  0  0  0  0  0  0  0  0
    6.8040   -2.8660   26.1740 C   0  0  0  0  0  0  0  0  0  0  0  0
    5.9650   -2.2490   25.2520 C   0  0  0  0  0  0  0  0  0  0  0  0
    4.6910   -2.0190   25.6080 F   0  0  0  0  0  0  0  0  0  0  0  0
    6.3790   -1.8590   23.9900 C   0  0  0  0  0  0  0  0  0  0  0  0
    7.6950   -2.1030   23.6000 C   0  0  0  0  0  0  0  0  0  0  0  0
    5.6780   -1.4000   23.2990 H   0  0  0  0  0  0  0  0  0  0  0  0
    6.4320   -3.1370   27.1580 H   0  0  0  0  0  0  0  0  0  0  0  0
    8.8120   -3.6140   26.4470 H   0  0  0  0  0  0  0  0  0  0  0  0
    8.7620   -3.6840   21.7780 H   0  0  0  0  0  0  0  0  0  0  0  0
    9.7260   -2.5030   20.8810 H   0  0  0  0  0  0  0  0  0  0  0  0
    7.9570    1.5410   21.1700 H   0  0  0  0  0  0  0  0  0  0  0  0
    6.9750    0.9800   22.5440 H   0  0  0  0  0  0  0  0  0  0  0  0
    8.9860    0.0790   23.3150 H   0  0  0  0  0  0  0  0  0  0  0  0
    9.9550   -0.3330   20.4440 H   0  0  0  0  0  0  0  0  0  0  0  0
   10.2590    1.1170   21.4310 H   0  0  0  0  0  0  0  0  0  0  0  0
   10.9050   -0.4470   21.9240 H   0  0  0  0  0  0  0  0  0  0  0  0
  1  2  1  0  0  0  0
  1 54  1  0  0  0  0
  1 55  1  0  0  0  0
  1 56  1  0  0  0  0
  2  3  1  0  0  0  0
  2 23  1  0  0  0  0
  2 53  1  1  0  0  0
  3  4  1  0  0  0  0
  3 51  1  0  0  0  0
  3 52  1  0  0  0  0
  4  5  1  0  0  0  0
  4 21  1  0  0  0  0
  5  6  2  0  0  0  0
  5 14  1  0  0  0  0
  6  7  1  0  0  0  0
  6 20  1  0  0  0  0
  7  8  2  0  0  0  0
  8  9  1  0  0  0  0
  8 19  1  0  0  0  0
  9 10  2  0  0  0  0
  9 14  1  0  0  0  0
 10 11  1  0  0  0  0
 10 18  1  0  0  0  0
 11 12  2  0  0  0  0
 11 17  1  0  0  0  0
 12 13  1  0  0  0  0
 12 16  1  0  0  0  0
 13 14  2  0  0  0  0
 13 15  1  0  0  0  0
 21 22  2  0  0  0  0
 23 21  1  6  0  0  0
 23 24  1  0  0  0  0
 23 45  1  0  0  0  0
 24 25  1  0  0  0  0
 24 49  1  0  0  0  0
 24 50  1  0  0  0  0
 25 26  1  0  0  0  0
 25 37  1  0  0  0  0
 26 27  1  0  0  0  0
 26 35  1  0  0  0  0
 26 36  1  0  0  0  0
 27 28  1  0  0  0  0
 27 31  2  0  0  0  0
 28 29  2  0  0  0  0
 28 34  1  0  0  0  0
 29 30  1  0  0  0  0
 30 31  1  0  0  0  0
 30 33  1  0  0  0  0
 31 32  1  0  0  0  0
 37 38  2  0  0  0  0
 37 39  1  0  0  0  0
 39 40  2  0  0  0  0
 39 45  1  0  0  0  0
 40 41  1  0  0  0  0
 40 48  1  0  0  0  0
 41 42  2  0  0  0  0
 41 47  1  0  0  0  0
 42 43  1  0  0  0  0
 42 44  1  0  0  0  0
 44 45  2  0  0  0  0
 44 46  1  0  0  0  0
M  END
>  <MODEL>
       1

$$$$
