output/tmp_first_model_18_67.pdb
 OpenBabel07232602473D

 69 74  0  0  1  0  0  0  0  0999 V2000
    4.3420    1.9220   28.4820 C   0  0  0  0  0  0  0  0  0  0  0  0
    4.8450    2.2230   27.1510 N   0  3  0  0  0  0  0  0  0  0  0  0
    5.9120    1.3190   26.6610 C   0  0  0  0  0  0  0  0  0  0  0  0
    6.4100    1.8530   25.3180 C   0  0  0  0  0  0  0  0  0  0  0  0
    7.2720    0.9350   24.5960 N   0  0  0  0  0  0  0  0  0  0  0  0
    6.6760   -0.0780   23.7280 C   0  0  0  0  0  0  0  0  0  0  0  0
    7.5910   -0.4890   22.5260 C   0  0  2  0  0  0  0  0  0  0  0  0
    7.2120    0.3400   21.2690 C   0  0  0  0  0  0  0  0  0  0  0  0
    7.5320    1.4790   21.0120 O   0  0  0  0  0  0  0  0  0  0  0  0
    6.4230   -0.4480   20.4460 N   0  0  0  0  0  0  0  0  0  0  0  0
    5.7070    0.1320   19.3720 C   0  0  0  0  0  0  0  0  0  0  0  0
    6.0120   -0.1740   18.0720 C   0  0  0  0  0  0  0  0  0  0  0  0
    5.3920    0.3780   17.0040 N   0  0  0  0  0  0  0  0  0  0  0  0
    4.4430    1.2550   17.2310 C   0  0  0  0  0  0  0  0  0  0  0  0
    3.9920    1.6190   18.5330 C   0  0  0  0  0  0  0  0  0  0  0  0
    2.9310    2.5400   18.7560 C   0  0  0  0  0  0  0  0  0  0  0  0
    2.5100    2.8260   20.0280 C   0  0  0  0  0  0  0  0  0  0  0  0
    3.1210    2.2050   21.1410 C   0  0  0  0  0  0  0  0  0  0  0  0
    4.1500    1.3220   20.9470 C   0  0  0  0  0  0  0  0  0  0  0  0
    4.6280    1.0260   19.6400 C   0  0  0  0  0  0  0  0  0  0  0  0
    4.6110    0.8440   21.8010 H   0  0  0  0  0  0  0  0  0  0  0  0
    2.7840    2.4250   22.1500 H   0  0  0  0  0  0  0  0  0  0  0  0
    1.7010    3.5310   20.1950 H   0  0  0  0  0  0  0  0  0  0  0  0
    2.4680    3.0170   17.8970 H   0  0  0  0  0  0  0  0  0  0  0  0
    3.9800    1.7100   16.3550 H   0  0  0  0  0  0  0  0  0  0  0  0
    6.8090   -0.8840   17.8580 H   0  0  0  0  0  0  0  0  0  0  0  0
    6.1440   -1.7720   20.9770 C   0  0  0  0  0  0  0  0  0  0  0  0
    7.2960   -1.9260   21.9710 C   0  0  2  0  0  0  0  0  0  0  0  0
    7.1130   -3.0210   23.0030 C   0  0  0  0  0  0  0  0  0  0  0  0
    7.0030   -4.2540   22.3080 O   0  0  0  0  0  0  0  0  0  0  0  0
    7.1460   -5.3770   23.1500 C   0  0  0  0  0  0  0  0  0  0  0  0
    6.6780   -6.6090   22.4420 C   0  0  0  0  0  0  0  0  0  0  0  0
    5.3720   -6.3960   21.9980 F   0  0  0  0  0  0  0  0  0  0  0  0
    6.7050   -7.7740   23.1120 C   0  0  0  0  0  0  0  0  0  0  0  0
    6.9770   -7.9380   23.0450 C   0  0  0  0  0  0  0  0  0  0  0  0
    8.1450   -7.7510   23.5200 H   0  0  0  0  0  0  0  0  0  0  0  0
    7.9510   -8.7780   22.1720 H   0  0  0  0  0  0  0  0  0  0  0  0
    6.2460   -8.8990   23.3950 H   0  0  0  0  0  0  0  0  0  0  0  0
    5.8520   -7.6650   23.9810 H   0  0  0  0  0  0  0  0  0  0  0  0
    8.1930   -5.4020   23.5050 H   0  0  0  0  0  0  0  0  0  0  0  0
    6.5130   -5.2090   24.0480 H   0  0  0  0  0  0  0  0  0  0  0  0
    7.9850   -3.0140   23.6860 H   0  0  0  0  0  0  0  0  0  0  0  0
    6.2030   -2.8530   23.6110 H   0  0  0  0  0  0  0  0  0  0  0  0
    8.1640   -2.2110   21.3660 H   0  0  0  0  0  0  0  0  0  0  0  0
    5.1540   -1.8410   21.4590 H   0  0  0  0  0  0  0  0  0  0  0  0
    6.1600   -2.5130   20.1760 H   0  0  0  0  0  0  0  0  0  0  0  0
    9.0470   -0.2860   22.8690 C   0  0  0  0  0  0  0  0  0  0  0  0
   10.0150   -0.6220   21.9280 C   0  0  0  0  0  0  0  0  0  0  0  0
   11.3480   -0.4780   22.2430 C   0  0  0  0  0  0  0  0  0  0  0  0
   12.4690   -1.0420   21.0810 Cl  0  0  0  0  0  0  0  0  0  0  0  0
   11.8130    0.0700   23.4380 C   0  0  0  0  0  0  0  0  0  0  0  0
   10.8540    0.4540   24.3460 C   0  0  0  0  0  0  0  0  0  0  0  0
    9.5060    0.2620   24.0600 C   0  0  0  0  0  0  0  0  0  0  0  0
    8.5450    0.7540   25.0630 C   0  0  0  0  0  0  0  0  0  0  0  0
    8.9190    1.0330   26.1910 O   0  0  0  0  0  0  0  0  0  0  0  0
   11.1040    0.9170   25.2910 H   0  0  0  0  0  0  0  0  0  0  0  0
   12.8770    0.1800   23.6320 H   0  0  0  0  0  0  0  0  0  0  0  0
    9.7510   -0.9790   20.9390 H   0  0  0  0  0  0  0  0  0  0  0  0
    5.7290    0.3310   23.3680 H   0  0  0  0  0  0  0  0  0  0  0  0
    6.4220   -0.9620   24.3270 H   0  0  0  0  0  0  0  0  0  0  0  0
    5.5550    2.0850   24.6700 H   0  0  0  0  0  0  0  0  0  0  0  0
    6.9640    2.7860   25.4730 H   0  0  0  0  0  0  0  0  0  0  0  0
    5.5140    0.3070   26.5510 H   0  0  0  0  0  0  0  0  0  0  0  0
    6.7290    1.2640   27.3810 H   0  0  0  0  0  0  0  0  0  0  0  0
    5.2330    3.1900   27.1340 H   0  0  0  0  0  0  0  0  0  0  0  0
    4.0620    2.1790   26.4610 H   0  0  0  0  0  0  0  0  0  0  0  0
    3.5310    2.5990   28.7440 H   0  0  0  0  0  0  0  0  0  0  0  0
    5.1380    2.0190   29.2240 H   0  0  0  0  0  0  0  0  0  0  0  0
    3.9820    0.8930   28.5290 H   0  0  0  0  0  0  0  0  0  0  0  0
  1  2  1  0  0  0  0
  1 67  1  0  0  0  0
  1 68  1  0  0  0  0
  1 69  1  0  0  0  0
  2  3  1  0  0  0  0
  2 65  1  0  0  0  0
  2 66  1  0  0  0  0
  3  4  1  0  0  0  0
  3 63  1  0  0  0  0
  3 64  1  0  0  0  0
  4  5  1  0  0  0  0
  4 61  1  0  0  0  0
  4 62  1  0  0  0  0
  5  6  1  0  0  0  0
  5 54  1  0  0  0  0
  6  7  1  0  0  0  0
  6 59  1  0  0  0  0
  6 60  1  0  0  0  0
  7  8  1  6  0  0  0
  7 28  1  0  0  0  0
  7 47  1  0  0  0  0
  8  9  2  0  0  0  0
  8 10  1  0  0  0  0
 10 11  1  0  0  0  0
 10 27  1  0  0  0  0
 11 12  2  0  0  0  0
 11 20  1  0  0  0  0
 12 13  1  0  0  0  0
 12 26  1  0  0  0  0
 13 14  2  0  0  0  0
 14 15  1  0  0  0  0
 14 25  1  0  0  0  0
 15 16  2  0  0  0  0
 15 20  1  0  0  0  0
 16 17  1  0  0  0  0
 16 24  1  0  0  0  0
 17 18  2  0  0  0  0
 17 23  1  0  0  0  0
 18 19  1  0  0  0  0
 18 22  1  0  0  0  0
 19 20  2  0  0  0  0
 19 21  1  0  0  0  0
 27 28  1  0  0  0  0
 27 45  1  0  0  0  0
 27 46  1  0  0  0  0
 28 29  1  0  0  0  0
 28 44  1  6  0  0  0
 29 30  1  0  0  0  0
 29 42  1  0  0  0  0
 29 43  1  0  0  0  0
 30 31  1  0  0  0  0
 31 32  1  0  0  0  0
 31 40  1  0  0  0  0
 31 41  1  0  0  0  0
 32 33  1  0  0  0  0
 32 34  1  0  0  0  0
 32 35  1  0  0  0  0
 34 35  1  0  0  0  0
 34 38  1  0  0  0  0
 34 39  1  0  0  0  0
 35 36  1  0  0  0  0
 35 37  1  0  0  0  0
 47 48  2  0  0  0  0
 47 53  1  0  0  0  0
 48 49  1  0  0  0  0
 48 58  1  0  0  0  0
 49 50  1  0  0  0  0
 49 51  2  0  0  0  0
 51 52  1  0  0  0  0
 51 57  1  0  0  0  0
 52 53  2  0  0  0  0
 52 56  1  0  0  0  0
 53 54  1  0  0  0  0
 54 55  2  0  0  0  0
M  CHG  1   2   1
M  END
>  <MODEL>
       1

$$$$
