output/tmp_first_model_20_12.pdb
 OpenBabel07232603433D

 47 50  0  0  1  0  0  0  0  0999 V2000
    8.4530    1.0790   20.5560 O   0  0  0  0  0  0  0  0  0  0  0  0
    7.6980    0.4190   21.2540 C   0  0  0  0  0  0  0  0  0  0  0  0
    6.8150   -0.6840   20.6550 C   0  0  0  0  0  0  0  0  0  0  0  0
    5.9880   -0.0340   19.5850 C   0  0  0  0  0  0  0  0  0  0  0  0
    6.3740   -0.1510   18.2760 C   0  0  0  0  0  0  0  0  0  0  0  0
    5.7380    0.4210   17.2240 N   0  0  0  0  0  0  0  0  0  0  0  0
    4.6820    1.1430   17.4970 C   0  0  0  0  0  0  0  0  0  0  0  0
    4.2220    1.4200   18.8090 C   0  0  0  0  0  0  0  0  0  0  0  0
    3.1290    2.2880   19.0260 C   0  0  0  0  0  0  0  0  0  0  0  0
    2.7510    2.6330   20.2920 C   0  0  0  0  0  0  0  0  0  0  0  0
    3.4610    2.1120   21.3960 C   0  0  0  0  0  0  0  0  0  0  0  0
    4.5120    1.2440   21.2150 C   0  0  0  0  0  0  0  0  0  0  0  0
    4.9180    0.8580   19.9030 C   0  0  0  0  0  0  0  0  0  0  0  0
    5.0490    0.8870   22.0890 H   0  0  0  0  0  0  0  0  0  0  0  0
    3.1770    2.4120   22.4000 H   0  0  0  0  0  0  0  0  0  0  0  0
    1.9170    3.3100   20.4480 H   0  0  0  0  0  0  0  0  0  0  0  0
    2.6240    2.6850   18.1500 H   0  0  0  0  0  0  0  0  0  0  0  0
    4.1450    1.5770   16.6550 H   0  0  0  0  0  0  0  0  0  0  0  0
    7.2510   -0.7470   18.0210 H   0  0  0  0  0  0  0  0  0  0  0  0
    6.1900   -1.1900   21.4040 H   0  0  0  0  0  0  0  0  0  0  0  0
    7.4800   -1.4370   20.2040 H   0  0  0  0  0  0  0  0  0  0  0  0
    7.5420    0.6660   22.5870 N   0  0  0  0  0  0  0  0  0  0  0  0
    7.0500   -0.2970   23.5660 C   0  0  0  0  0  0  0  0  0  0  0  0
    7.6190    0.2640   24.8710 C   0  0  2  0  0  0  0  0  0  0  0  0
    6.9740   -0.2220   26.1430 C   0  0  0  0  0  0  0  0  0  0  0  0
    5.6020   -0.0180   26.1210 F   0  0  0  0  0  0  0  0  0  0  0  0
    7.1330   -1.2940   26.2900 H   0  0  0  0  0  0  0  0  0  0  0  0
    7.3750    0.3110   27.0160 H   0  0  0  0  0  0  0  0  0  0  0  0
    7.6900    1.7920   24.6750 C   0  0  0  0  0  0  0  0  0  0  0  0
    8.7410    2.4200   25.5830 C   0  0  0  0  0  0  0  0  0  0  0  0
    8.5270    3.9420   25.4900 C   0  0  0  0  0  0  0  0  0  0  0  0
    7.0130    4.0980   25.1760 C   0  0  0  0  0  0  0  0  0  0  0  0
    6.4670    2.6500   25.0680 C   0  0  0  0  0  0  0  0  0  0  0  0
    5.6320    2.5420   24.3660 H   0  0  0  0  0  0  0  0  0  0  0  0
    6.1050    2.3080   26.0400 H   0  0  0  0  0  0  0  0  0  0  0  0
    6.4660    4.6810   25.9300 H   0  0  0  0  0  0  0  0  0  0  0  0
    6.8860    4.6100   24.2160 H   0  0  0  0  0  0  0  0  0  0  0  0
    8.8530    4.4760   26.3880 H   0  0  0  0  0  0  0  0  0  0  0  0
    9.1130    4.3690   24.6720 H   0  0  0  0  0  0  0  0  0  0  0  0
    8.5560    2.1080   26.6160 H   0  0  0  0  0  0  0  0  0  0  0  0
    9.7380    2.0590   25.3020 H   0  0  0  0  0  0  0  0  0  0  0  0
    8.0290    1.9110   23.1710 C   0  0  0  0  0  0  0  0  0  0  0  0
    7.5440    2.7800   22.7070 H   0  0  0  0  0  0  0  0  0  0  0  0
    9.1060    2.0270   22.9860 H   0  0  0  0  0  0  0  0  0  0  0  0
    8.6620   -0.0800   24.9090 H   0  0  0  0  0  0  0  0  0  0  0  0
    7.4530   -1.2940   23.3600 H   0  0  0  0  0  0  0  0  0  0  0  0
    5.9520   -0.3740   23.5690 H   0  0  0  0  0  0  0  0  0  0  0  0
  1  2  2  0  0  0  0
  2  3  1  0  0  0  0
  2 22  1  0  0  0  0
  3  4  1  0  0  0  0
  3 20  1  0  0  0  0
  3 21  1  0  0  0  0
  4  5  2  0  0  0  0
  4 13  1  0  0  0  0
  5  6  1  0  0  0  0
  5 19  1  0  0  0  0
  6  7  2  0  0  0  0
  7  8  1  0  0  0  0
  7 18  1  0  0  0  0
  8  9  2  0  0  0  0
  8 13  1  0  0  0  0
  9 10  1  0  0  0  0
  9 17  1  0  0  0  0
 10 11  2  0  0  0  0
 10 16  1  0  0  0  0
 11 12  1  0  0  0  0
 11 15  1  0  0  0  0
 12 13  2  0  0  0  0
 12 14  1  0  0  0  0
 22 23  1  0  0  0  0
 22 42  1  0  0  0  0
 23 24  1  0  0  0  0
 23 46  1  0  0  0  0
 23 47  1  0  0  0  0
 24 25  1  0  0  0  0
 24 29  1  0  0  0  0
 24 45  1  1  0  0  0
 25 26  1  0  0  0  0
 25 27  1  0  0  0  0
 25 28  1  0  0  0  0
 29 30  1  0  0  0  0
 29 33  1  0  0  0  0
 29 42  1  0  0  0  0
 30 31  1  0  0  0  0
 30 40  1  0  0  0  0
 30 41  1  0  0  0  0
 31 32  1  0  0  0  0
 31 38  1  0  0  0  0
 31 39  1  0  0  0  0
 32 33  1  0  0  0  0
 32 36  1  0  0  0  0
 32 37  1  0  0  0  0
 33 34  1  0  0  0  0
 33 35  1  0  0  0  0
 42 43  1  0  0  0  0
 42 44  1  0  0  0  0
M  END
>  <MODEL>
       1

$$$$
