output/tmp_first_model_4_85.pdb
 OpenBabel07222620063D

 55 60  0  0  1  0  0  0  0  0999 V2000
    7.0200   -2.4380   23.5070 C   0  0  0  0  0  0  0  0  0  0  0  0
    7.9300   -1.8520   22.4140 C   0  0  1  0  0  0  0  0  0  0  0  0
    7.1820   -1.7790   21.0620 C   0  0  0  0  0  0  0  0  0  0  0  0
    6.8900   -0.3740   20.8720 N   0  0  0  0  0  0  0  0  0  0  0  0
    6.1300    0.1070   19.7780 C   0  0  0  0  0  0  0  0  0  0  0  0
    6.4450   -0.2270   18.4830 C   0  0  0  0  0  0  0  0  0  0  0  0
    5.7730    0.2200   17.3930 N   0  0  0  0  0  0  0  0  0  0  0  0
    4.7500    1.0160   17.5970 C   0  0  0  0  0  0  0  0  0  0  0  0
    4.2960    1.4180   18.8850 C   0  0  0  0  0  0  0  0  0  0  0  0
    3.1670    2.2680   19.0550 C   0  0  0  0  0  0  0  0  0  0  0  0
    2.7370    2.6060   20.3110 C   0  0  0  0  0  0  0  0  0  0  0  0
    3.4080    2.1010   21.4460 C   0  0  0  0  0  0  0  0  0  0  0  0
    4.4980    1.2800   21.3070 C   0  0  0  0  0  0  0  0  0  0  0  0
    4.9880    0.9390   20.0150 C   0  0  0  0  0  0  0  0  0  0  0  0
    5.0050    0.9020   22.1850 H   0  0  0  0  0  0  0  0  0  0  0  0
    3.0830    2.3950   22.4410 H   0  0  0  0  0  0  0  0  0  0  0  0
    1.8890    3.2730   20.4390 H   0  0  0  0  0  0  0  0  0  0  0  0
    2.6660    2.6430   18.1680 H   0  0  0  0  0  0  0  0  0  0  0  0
    4.2260    1.3790   16.7140 H   0  0  0  0  0  0  0  0  0  0  0  0
    7.2920   -0.8730   18.2620 H   0  0  0  0  0  0  0  0  0  0  0  0
    7.6680    0.4610   21.6510 C   0  0  0  0  0  0  0  0  0  0  0  0
    7.7240    1.6630   21.5150 O   0  0  0  0  0  0  0  0  0  0  0  0
    8.4740   -0.4010   22.6600 C   0  0  1  0  0  0  0  0  0  0  0  0
    8.2530    0.0670   24.1180 C   0  0  0  0  0  0  0  0  0  0  0  0
    8.8450    1.3600   24.3890 N   0  0  0  0  0  0  0  0  0  0  0  0
    8.0700    2.3750   25.0910 C   0  0  0  0  0  0  0  0  0  0  0  0
    7.4230    3.3680   24.1700 C   0  0  0  0  0  0  0  0  0  0  0  0
    7.9910    4.4460   23.5800 C   0  0  0  0  0  0  0  0  0  0  0  0
    7.0680    5.0330   22.7700 O   0  0  0  0  0  0  0  0  0  0  0  0
    5.9690    4.2670   22.9110 C   0  0  0  0  0  0  0  0  0  0  0  0
    6.0980    3.2770   23.7320 N   0  0  0  0  0  0  0  0  0  0  0  0
    5.1210    4.5650   22.3080 H   0  0  0  0  0  0  0  0  0  0  0  0
    8.9610    4.9080   23.6160 H   0  0  0  0  0  0  0  0  0  0  0  0
    8.7680    2.8870   25.7600 H   0  0  0  0  0  0  0  0  0  0  0  0
    7.3000    1.8690   25.6850 H   0  0  0  0  0  0  0  0  0  0  0  0
   10.1080    1.6920   23.9820 C   0  0  0  0  0  0  0  0  0  0  0  0
   10.6780    2.6970   24.3880 O   0  0  0  0  0  0  0  0  0  0  0  0
   10.7220    0.7580   22.9800 C   0  0  0  0  0  0  0  0  0  0  0  0
   12.0620    0.9530   22.6410 C   0  0  0  0  0  0  0  0  0  0  0  0
   12.6560    0.1630   21.6770 C   0  0  0  0  0  0  0  0  0  0  0  0
   11.8930   -0.8090   21.0440 C   0  0  0  0  0  0  0  0  0  0  0  0
   12.4830   -1.5340   20.0770 F   0  0  0  0  0  0  0  0  0  0  0  0
   10.5580   -1.0050   21.3410 C   0  0  0  0  0  0  0  0  0  0  0  0
    9.9630   -0.2380   22.3510 C   0  0  0  0  0  0  0  0  0  0  0  0
    9.9900   -1.7150   20.7520 H   0  0  0  0  0  0  0  0  0  0  0  0
   13.6820    0.2990   21.3620 H   0  0  0  0  0  0  0  0  0  0  0  0
   12.6040    1.7430   23.1490 H   0  0  0  0  0  0  0  0  0  0  0  0
    7.1820    0.1760   24.3000 H   0  0  0  0  0  0  0  0  0  0  0  0
    8.6740   -0.6990   24.7910 H   0  0  0  0  0  0  0  0  0  0  0  0
    6.2500   -2.3560   21.0740 H   0  0  0  0  0  0  0  0  0  0  0  0
    7.8110   -2.1480   20.2470 H   0  0  0  0  0  0  0  0  0  0  0  0
    8.7880   -2.5290   22.3290 H   0  0  0  0  0  0  0  0  0  0  0  0
    6.6970   -3.4460   23.2200 H   0  0  0  0  0  0  0  0  0  0  0  0
    7.5380   -2.5290   24.4670 H   0  0  0  0  0  0  0  0  0  0  0  0
    6.1200   -1.8300   23.6580 H   0  0  0  0  0  0  0  0  0  0  0  0
  1  2  1  0  0  0  0
  1 53  1  0  0  0  0
  1 54  1  0  0  0  0
  1 55  1  0  0  0  0
  2  3  1  0  0  0  0
  2 23  1  0  0  0  0
  2 52  1  6  0  0  0
  3  4  1  0  0  0  0
  3 50  1  0  0  0  0
  3 51  1  0  0  0  0
  4  5  1  0  0  0  0
  4 21  1  0  0  0  0
  5  6  2  0  0  0  0
  5 14  1  0  0  0  0
  6  7  1  0  0  0  0
  6 20  1  0  0  0  0
  7  8  2  0  0  0  0
  8  9  1  0  0  0  0
  8 19  1  0  0  0  0
  9 10  2  0  0  0  0
  9 14  1  0  0  0  0
 10 11  1  0  0  0  0
 10 18  1  0  0  0  0
 11 12  2  0  0  0  0
 11 17  1  0  0  0  0
 12 13  1  0  0  0  0
 12 16  1  0  0  0  0
 13 14  2  0  0  0  0
 13 15  1  0  0  0  0
 21 22  2  0  0  0  0
 23 21  1  6  0  0  0
 23 24  1  0  0  0  0
 23 44  1  0  0  0  0
 24 25  1  0  0  0  0
 24 48  1  0  0  0  0
 24 49  1  0  0  0  0
 25 26  1  0  0  0  0
 25 36  1  0  0  0  0
 26 27  1  0  0  0  0
 26 34  1  0  0  0  0
 26 35  1  0  0  0  0
 27 28  2  0  0  0  0
 27 31  1  0  0  0  0
 28 29  1  0  0  0  0
 28 33  1  0  0  0  0
 29 30  1  0  0  0  0
 30 31  2  0  0  0  0
 30 32  1  0  0  0  0
 36 37  2  0  0  0  0
 36 38  1  0  0  0  0
 38 39  2  0  0  0  0
 38 44  1  0  0  0  0
 39 40  1  0  0  0  0
 39 47  1  0  0  0  0
 40 41  2  0  0  0  0
 40 46  1  0  0  0  0
 41 42  1  0  0  0  0
 41 43  1  0  0  0  0
 43 44  2  0  0  0  0
 43 45  1  0  0  0  0
M  END
>  <MODEL>
       1

$$$$
