output/tmp_first_model_16_1.pdb
 OpenBabel07232602073D

 51 54  0  0  0  0  0  0  0  0999 V2000
    3.0380   -6.1870   26.4010 C   0  0  0  0  0  0  0  0  0  0  0  0
    3.8570   -6.3270   25.2630 O   0  0  0  0  0  0  0  0  0  0  0  0
    4.4430   -5.2070   24.7620 C   0  0  0  0  0  0  0  0  0  0  0  0
    4.3110   -3.9300   25.3060 C   0  0  0  0  0  0  0  0  0  0  0  0
    4.9630   -2.8570   24.7040 C   0  0  0  0  0  0  0  0  0  0  0  0
    5.7120   -3.0400   23.5480 C   0  0  0  0  0  0  0  0  0  0  0  0
    6.3690   -1.9390   22.9230 N   0  0  0  0  0  0  0  0  0  0  0  0
    7.3090   -1.1530   23.7140 C   0  0  0  0  0  0  0  0  0  0  0  0
    8.7670   -1.3500   23.3450 C   0  0  0  0  0  0  0  0  0  0  0  0
    9.3430   -2.5970   23.5870 C   0  0  0  0  0  0  0  0  0  0  0  0
   10.6950   -2.8010   23.3650 C   0  0  0  0  0  0  0  0  0  0  0  0
   11.4870   -1.8060   22.8050 C   0  0  0  0  0  0  0  0  0  0  0  0
   10.9150   -0.5610   22.5890 C   0  0  0  0  0  0  0  0  0  0  0  0
   11.9000    0.7100   21.9210 Cl  0  0  0  0  0  0  0  0  0  0  0  0
    9.5740   -0.3130   22.8730 C   0  0  0  0  0  0  0  0  0  0  0  0
    9.1770    0.6880   22.6990 H   0  0  0  0  0  0  0  0  0  0  0  0
   12.5320   -1.9730   22.5620 H   0  0  0  0  0  0  0  0  0  0  0  0
   11.1150   -3.7610   23.6470 H   0  0  0  0  0  0  0  0  0  0  0  0
    8.7390   -3.4200   23.9700 H   0  0  0  0  0  0  0  0  0  0  0  0
    7.1640   -1.4850   24.7450 H   0  0  0  0  0  0  0  0  0  0  0  0
    7.0400   -0.0910   23.7010 H   0  0  0  0  0  0  0  0  0  0  0  0
    6.0910   -1.7080   21.5880 C   0  0  0  0  0  0  0  0  0  0  0  0
    5.2940   -2.3920   20.9700 O   0  0  0  0  0  0  0  0  0  0  0  0
    6.8260   -0.5470   20.9140 C   0  0  0  0  0  0  0  0  0  0  0  0
    6.0650    0.0520   19.7700 C   0  0  0  0  0  0  0  0  0  0  0  0
    6.4020   -0.2330   18.4740 C   0  0  0  0  0  0  0  0  0  0  0  0
    5.7620    0.2430   17.3750 N   0  0  0  0  0  0  0  0  0  0  0  0
    4.7370    1.0300   17.5770 C   0  0  0  0  0  0  0  0  0  0  0  0
    4.2720    1.4160   18.8640 C   0  0  0  0  0  0  0  0  0  0  0  0
    3.1580    2.2780   19.0330 C   0  0  0  0  0  0  0  0  0  0  0  0
    2.7410    2.6370   20.2850 C   0  0  0  0  0  0  0  0  0  0  0  0
    3.4200    2.1490   21.4240 C   0  0  0  0  0  0  0  0  0  0  0  0
    4.4990    1.3110   21.2870 C   0  0  0  0  0  0  0  0  0  0  0  0
    4.9540    0.9190   19.9990 C   0  0  0  0  0  0  0  0  0  0  0  0
    5.0040    0.9470   22.1760 H   0  0  0  0  0  0  0  0  0  0  0  0
    3.0890    2.4460   22.4150 H   0  0  0  0  0  0  0  0  0  0  0  0
    1.8920    3.3020   20.4140 H   0  0  0  0  0  0  0  0  0  0  0  0
    2.6510    2.6480   18.1450 H   0  0  0  0  0  0  0  0  0  0  0  0
    4.2170    1.4030   16.6940 H   0  0  0  0  0  0  0  0  0  0  0  0
    7.2530   -0.8820   18.2650 H   0  0  0  0  0  0  0  0  0  0  0  0
    7.0530    0.2260   21.6520 H   0  0  0  0  0  0  0  0  0  0  0  0
    7.7830   -0.9430   20.5490 H   0  0  0  0  0  0  0  0  0  0  0  0
    5.8520   -4.3220   23.0180 C   0  0  0  0  0  0  0  0  0  0  0  0
    5.2350   -5.3980   23.6260 C   0  0  0  0  0  0  0  0  0  0  0  0
    5.3460   -6.4030   23.2310 H   0  0  0  0  0  0  0  0  0  0  0  0
    6.4390   -4.4620   22.1160 H   0  0  0  0  0  0  0  0  0  0  0  0
    4.8640   -1.8580   25.1270 H   0  0  0  0  0  0  0  0  0  0  0  0
    3.7400   -3.7590   26.2110 H   0  0  0  0  0  0  0  0  0  0  0  0
    3.6070   -5.8210   27.2660 H   0  0  0  0  0  0  0  0  0  0  0  0
    2.6540   -7.1840   26.6190 H   0  0  0  0  0  0  0  0  0  0  0  0
    2.1970   -5.5080   26.2150 H   0  0  0  0  0  0  0  0  0  0  0  0
  1  2  1  0  0  0  0
  1 49  1  0  0  0  0
  1 50  1  0  0  0  0
  1 51  1  0  0  0  0
  2  3  1  0  0  0  0
  3  4  2  0  0  0  0
  3 44  1  0  0  0  0
  4  5  1  0  0  0  0
  4 48  1  0  0  0  0
  5  6  2  0  0  0  0
  5 47  1  0  0  0  0
  6  7  1  0  0  0  0
  6 43  1  0  0  0  0
  7  8  1  0  0  0  0
  7 22  1  0  0  0  0
  8  9  1  0  0  0  0
  8 20  1  0  0  0  0
  8 21  1  0  0  0  0
  9 10  2  0  0  0  0
  9 15  1  0  0  0  0
 10 11  1  0  0  0  0
 10 19  1  0  0  0  0
 11 12  2  0  0  0  0
 11 18  1  0  0  0  0
 12 13  1  0  0  0  0
 12 17  1  0  0  0  0
 13 14  1  0  0  0  0
 13 15  2  0  0  0  0
 15 16  1  0  0  0  0
 22 23  2  0  0  0  0
 22 24  1  0  0  0  0
 24 25  1  0  0  0  0
 24 41  1  0  0  0  0
 24 42  1  0  0  0  0
 25 26  2  0  0  0  0
 25 34  1  0  0  0  0
 26 27  1  0  0  0  0
 26 40  1  0  0  0  0
 27 28  2  0  0  0  0
 28 29  1  0  0  0  0
 28 39  1  0  0  0  0
 29 30  2  0  0  0  0
 29 34  1  0  0  0  0
 30 31  1  0  0  0  0
 30 38  1  0  0  0  0
 31 32  2  0  0  0  0
 31 37  1  0  0  0  0
 32 33  1  0  0  0  0
 32 36  1  0  0  0  0
 33 34  2  0  0  0  0
 33 35  1  0  0  0  0
 43 44  2  0  0  0  0
 43 46  1  0  0  0  0
 44 45  1  0  0  0  0
M  END
>  <MODEL>
       1

$$$$
