output/tmp_first_model_11_92.pdb
 OpenBabel07222623443D

 47 50  0  0  1  0  0  0  0  0999 V2000
    5.3670   -2.3440   20.9550 O   0  0  0  0  0  0  0  0  0  0  0  0
    6.1340   -1.6590   21.6010 C   0  0  0  0  0  0  0  0  0  0  0  0
    6.9240   -0.5250   20.9310 C   0  0  0  0  0  0  0  0  0  0  0  0
    6.1360    0.0650   19.7910 C   0  0  0  0  0  0  0  0  0  0  0  0
    6.4480   -0.2350   18.4910 C   0  0  0  0  0  0  0  0  0  0  0  0
    5.7800    0.2110   17.3950 N   0  0  0  0  0  0  0  0  0  0  0  0
    4.7530    0.9960   17.6070 C   0  0  0  0  0  0  0  0  0  0  0  0
    4.2950    1.3780   18.8970 C   0  0  0  0  0  0  0  0  0  0  0  0
    3.1720    2.2280   19.0650 C   0  0  0  0  0  0  0  0  0  0  0  0
    2.7570    2.5950   20.3160 C   0  0  0  0  0  0  0  0  0  0  0  0
    3.4450    2.1090   21.4510 C   0  0  0  0  0  0  0  0  0  0  0  0
    4.5290    1.2790   21.3160 C   0  0  0  0  0  0  0  0  0  0  0  0
    4.9980    0.8970   20.0270 C   0  0  0  0  0  0  0  0  0  0  0  0
    5.0370    0.9150   22.2050 H   0  0  0  0  0  0  0  0  0  0  0  0
    3.1100    2.4100   22.4400 H   0  0  0  0  0  0  0  0  0  0  0  0
    1.9080    3.2610   20.4400 H   0  0  0  0  0  0  0  0  0  0  0  0
    2.6690    2.6020   18.1760 H   0  0  0  0  0  0  0  0  0  0  0  0
    4.2220    1.3720   16.7320 H   0  0  0  0  0  0  0  0  0  0  0  0
    7.2940   -0.8900   18.2810 H   0  0  0  0  0  0  0  0  0  0  0  0
    7.2030    0.2470   21.6520 H   0  0  0  0  0  0  0  0  0  0  0  0
    7.8620   -0.9540   20.5620 H   0  0  0  0  0  0  0  0  0  0  0  0
    6.2810   -1.8790   22.9800 N   0  0  0  0  0  0  0  0  0  0  0  0
    5.1910   -2.5450   23.5940 C   0  0  0  0  0  0  0  0  0  0  0  0
    5.2120   -3.7980   24.0560 C   0  0  0  0  0  0  0  0  0  0  0  0
    6.3610   -4.4680   24.6290 C   0  0  0  0  0  0  0  0  0  0  0  0
    7.2670   -3.8680   25.4260 C   0  0  0  0  0  0  0  0  0  0  0  0
    7.1410   -2.5170   25.9670 C   0  0  0  0  0  0  0  0  0  0  0  0
    6.8960   -1.3580   25.3370 C   0  0  0  0  0  0  0  0  0  0  0  0
    7.1430   -1.0580   23.8670 C   0  0  1  0  0  0  0  0  0  0  0  0
    8.6110   -1.2630   23.5020 C   0  0  0  0  0  0  0  0  0  0  0  0
    9.0160   -2.4780   22.9550 C   0  0  0  0  0  0  0  0  0  0  0  0
   10.3500   -2.7010   22.6390 C   0  0  0  0  0  0  0  0  0  0  0  0
   11.3010   -1.7160   22.8850 C   0  0  0  0  0  0  0  0  0  0  0  0
   10.9110   -0.5030   23.4480 C   0  0  0  0  0  0  0  0  0  0  0  0
    9.5690   -0.2790   23.7550 C   0  0  0  0  0  0  0  0  0  0  0  0
    9.2760    0.6740   24.1960 H   0  0  0  0  0  0  0  0  0  0  0  0
   11.6540    0.2690   23.6370 H   0  0  0  0  0  0  0  0  0  0  0  0
   12.3440   -1.8940   22.6360 H   0  0  0  0  0  0  0  0  0  0  0  0
   10.6510   -3.6450   22.1890 H   0  0  0  0  0  0  0  0  0  0  0  0
    8.2730   -3.2530   22.7920 H   0  0  0  0  0  0  0  0  0  0  0  0
    6.8860    0.0070   23.7350 H   0  0  0  0  0  0  0  0  0  0  0  0
    6.6270   -0.5050   25.9580 H   0  0  0  0  0  0  0  0  0  0  0  0
    7.2730   -2.4880   27.0490 H   0  0  0  0  0  0  0  0  0  0  0  0
    8.0500   -4.4720   25.8720 H   0  0  0  0  0  0  0  0  0  0  0  0
    6.3830   -5.5520   24.5500 H   0  0  0  0  0  0  0  0  0  0  0  0
    4.2670   -4.3390   24.1110 H   0  0  0  0  0  0  0  0  0  0  0  0
    4.3340   -1.9130   23.8030 H   0  0  0  0  0  0  0  0  0  0  0  0
  1  2  2  0  0  0  0
  2  3  1  0  0  0  0
  2 22  1  0  0  0  0
  3  4  1  0  0  0  0
  3 20  1  0  0  0  0
  3 21  1  0  0  0  0
  4  5  2  0  0  0  0
  4 13  1  0  0  0  0
  5  6  1  0  0  0  0
  5 19  1  0  0  0  0
  6  7  2  0  0  0  0
  7  8  1  0  0  0  0
  7 18  1  0  0  0  0
  8  9  2  0  0  0  0
  8 13  1  0  0  0  0
  9 10  1  0  0  0  0
  9 17  1  0  0  0  0
 10 11  2  0  0  0  0
 10 16  1  0  0  0  0
 11 12  1  0  0  0  0
 11 15  1  0  0  0  0
 12 13  2  0  0  0  0
 12 14  1  0  0  0  0
 22 23  1  0  0  0  0
 22 29  1  0  0  0  0
 23 24  2  0  0  0  0
 23 47  1  0  0  0  0
 24 25  1  0  0  0  0
 24 46  1  0  0  0  0
 25 26  2  0  0  0  0
 25 45  1  0  0  0  0
 26 27  1  0  0  0  0
 26 44  1  0  0  0  0
 27 28  2  0  0  0  0
 27 43  1  0  0  0  0
 28 29  1  0  0  0  0
 28 42  1  0  0  0  0
 29 30  1  0  0  0  0
 29 41  1  6  0  0  0
 30 31  2  0  0  0  0
 30 35  1  0  0  0  0
 31 32  1  0  0  0  0
 31 40  1  0  0  0  0
 32 33  2  0  0  0  0
 32 39  1  0  0  0  0
 33 34  1  0  0  0  0
 33 38  1  0  0  0  0
 34 35  2  0  0  0  0
 34 37  1  0  0  0  0
 35 36  1  0  0  0  0
M  END
>  <MODEL>
       1

$$$$
