output/tmp_first_model_6_53.pdb
 OpenBabel07222621163D

 77 84  0  0  1  0  0  0  0  0999 V2000
    9.9040   -0.9960   26.5160 O   0  0  0  0  0  0  0  0  0  0  0  0
    9.3620   -0.6660   25.4750 C   0  0  0  0  0  0  0  0  0  0  0  0
   10.2220   -0.3140   24.3290 C   0  0  0  0  0  0  0  0  0  0  0  0
   11.5730   -0.1590   24.6170 C   0  0  0  0  0  0  0  0  0  0  0  0
   12.4710    0.0940   23.6120 C   0  0  0  0  0  0  0  0  0  0  0  0
   11.9830    0.1280   22.3060 C   0  0  0  0  0  0  0  0  0  0  0  0
   13.2170    0.2110   21.0920 Cl  0  0  0  0  0  0  0  0  0  0  0  0
   10.6260    0.0140   22.0090 C   0  0  0  0  0  0  0  0  0  0  0  0
    9.7070   -0.2110   23.0450 C   0  0  0  0  0  0  0  0  0  0  0  0
    8.2340   -0.4810   22.8000 C   0  0  1  0  0  0  0  0  0  0  0  0
    7.4320   -0.1000   24.0720 C   0  0  0  0  0  0  0  0  0  0  0  0
    8.0170   -0.5680   25.3140 N   0  0  0  0  0  0  0  0  0  0  0  0
    7.1480   -0.6330   26.4830 C   0  0  0  0  0  0  0  0  0  0  0  0
    6.6890    0.7240   27.0030 C   0  0  0  0  0  0  0  0  0  0  0  0
    7.8770    1.5600   27.3790 N   0  3  0  0  0  0  0  0  0  0  0  0
    7.6050    2.9220   27.9830 C   0  0  0  0  0  0  0  0  0  0  0  0
    8.3230    2.5650   29.3060 C   0  0  0  0  0  0  0  0  0  0  0  0
    7.6410    2.6860   30.6650 C   0  0  0  0  0  0  0  0  0  0  0  0
    8.6890    3.5180   31.1670 O   0  0  0  0  0  0  0  0  0  0  0  0
    9.3950    3.4610   29.9250 C   0  0  0  0  0  0  0  0  0  0  0  0
   10.3900    3.0140   30.0410 H   0  0  0  0  0  0  0  0  0  0  0  0
    9.4930    4.4560   29.4730 H   0  0  0  0  0  0  0  0  0  0  0  0
    7.5620    1.7500   31.2330 H   0  0  0  0  0  0  0  0  0  0  0  0
    6.6730    3.2010   30.6690 H   0  0  0  0  0  0  0  0  0  0  0  0
    8.6160    1.1750   28.6930 C   0  0  0  0  0  0  0  0  0  0  0  0
    9.6560    0.9440   28.4970 H   0  0  0  0  0  0  0  0  0  0  0  0
    8.1260    0.3320   29.1700 H   0  0  0  0  0  0  0  0  0  0  0  0
    6.5360    3.1090   28.0690 H   0  0  0  0  0  0  0  0  0  0  0  0
    8.0750    3.6980   27.3870 H   0  0  0  0  0  0  0  0  0  0  0  0
    8.4940    1.6310   26.5440 H   0  0  0  0  0  0  0  0  0  0  0  0
    6.0620    0.5910   27.8930 H   0  0  0  0  0  0  0  0  0  0  0  0
    6.1110    1.2760   26.2570 H   0  0  0  0  0  0  0  0  0  0  0  0
    6.2590   -1.2210   26.2270 H   0  0  0  0  0  0  0  0  0  0  0  0
    7.6950   -1.1630   27.2610 H   0  0  0  0  0  0  0  0  0  0  0  0
    6.4180   -0.5060   24.0010 H   0  0  0  0  0  0  0  0  0  0  0  0
    7.3430    0.9950   24.0840 H   0  0  0  0  0  0  0  0  0  0  0  0
    7.6740    0.3850   21.6630 C   0  0  0  0  0  0  0  0  0  0  0  0
    7.7860    1.5850   21.5280 O   0  0  0  0  0  0  0  0  0  0  0  0
    6.9560   -0.4150   20.8030 N   0  0  0  0  0  0  0  0  0  0  0  0
    6.1520    0.1130   19.7640 C   0  0  0  0  0  0  0  0  0  0  0  0
    6.4460   -0.2270   18.4660 C   0  0  0  0  0  0  0  0  0  0  0  0
    5.7760    0.2230   17.3780 N   0  0  0  0  0  0  0  0  0  0  0  0
    4.7590    1.0220   17.5940 C   0  0  0  0  0  0  0  0  0  0  0  0
    4.3120    1.4150   18.8890 C   0  0  0  0  0  0  0  0  0  0  0  0
    3.1840    2.2600   19.0550 C   0  0  0  0  0  0  0  0  0  0  0  0
    2.7440    2.6000   20.3050 C   0  0  0  0  0  0  0  0  0  0  0  0
    3.4170    2.1070   21.4510 C   0  0  0  0  0  0  0  0  0  0  0  0
    4.5160    1.2960   21.3150 C   0  0  0  0  0  0  0  0  0  0  0  0
    5.0100    0.9430   20.0240 C   0  0  0  0  0  0  0  0  0  0  0  0
    5.0190    0.9280   22.2070 H   0  0  0  0  0  0  0  0  0  0  0  0
    3.0610    2.3800   22.4390 H   0  0  0  0  0  0  0  0  0  0  0  0
    1.8860    3.2510   20.4300 H   0  0  0  0  0  0  0  0  0  0  0  0
    2.6830    2.6300   18.1640 H   0  0  0  0  0  0  0  0  0  0  0  0
    4.2170    1.3890   16.7220 H   0  0  0  0  0  0  0  0  0  0  0  0
    7.2930   -0.8850   18.2740 H   0  0  0  0  0  0  0  0  0  0  0  0
    6.8250   -1.7860   21.2510 C   0  0  0  0  0  0  0  0  0  0  0  0
    7.9710   -1.9330   22.2570 C   0  0  2  0  0  0  0  0  0  0  0  0
    7.8030   -3.0780   23.2700 C   0  0  0  0  0  0  0  0  0  0  0  0
    6.4710   -3.2650   23.8080 N   0  0  0  0  0  0  0  0  0  0  0  0
    5.5430   -4.1130   23.2920 C   0  0  0  0  0  0  0  0  0  0  0  0
    4.4020   -4.2190   23.9950 N   0  0  0  0  0  0  0  0  0  0  0  0
    3.4660   -4.9830   23.4590 C   0  0  0  0  0  0  0  0  0  0  0  0
    3.6370   -5.6800   22.2710 C   0  0  0  0  0  0  0  0  0  0  0  0
    4.8620   -5.5090   21.6430 C   0  0  0  0  0  0  0  0  0  0  0  0
    5.8230   -4.7220   22.1290 N   0  0  0  0  0  0  0  0  0  0  0  0
    5.0870   -6.0060   20.7010 H   0  0  0  0  0  0  0  0  0  0  0  0
    2.8520   -6.3170   21.8900 H   0  0  0  0  0  0  0  0  0  0  0  0
    2.5370   -5.0200   24.0210 H   0  0  0  0  0  0  0  0  0  0  0  0
    6.2700   -2.9670   24.7500 H   0  0  0  0  0  0  0  0  0  0  0  0
    8.0740   -4.0030   22.7650 H   0  0  0  0  0  0  0  0  0  0  0  0
    8.5010   -2.9310   24.0990 H   0  0  0  0  0  0  0  0  0  0  0  0
    8.8830   -2.1680   21.6870 H   0  0  0  0  0  0  0  0  0  0  0  0
    6.8970   -2.4800   20.4110 H   0  0  0  0  0  0  0  0  0  0  0  0
    5.8380   -1.9310   21.7000 H   0  0  0  0  0  0  0  0  0  0  0  0
   10.2650    0.0810   20.9900 H   0  0  0  0  0  0  0  0  0  0  0  0
   13.5320    0.2180   23.8120 H   0  0  0  0  0  0  0  0  0  0  0  0
   11.8710   -0.2830   25.6480 H   0  0  0  0  0  0  0  0  0  0  0  0
  1  2  2  0  0  0  0
  2  3  1  0  0  0  0
  2 12  1  0  0  0  0
  3  4  2  0  0  0  0
  3  9  1  0  0  0  0
  4  5  1  0  0  0  0
  4 77  1  0  0  0  0
  5  6  2  0  0  0  0
  5 76  1  0  0  0  0
  6  7  1  0  0  0  0
  6  8  1  0  0  0  0
  8  9  2  0  0  0  0
  8 75  1  0  0  0  0
 10  9  1  1  0  0  0
 10 11  1  0  0  0  0
 10 37  1  0  0  0  0
 10 57  1  0  0  0  0
 11 12  1  0  0  0  0
 11 35  1  0  0  0  0
 11 36  1  0  0  0  0
 12 13  1  0  0  0  0
 13 14  1  0  0  0  0
 13 33  1  0  0  0  0
 13 34  1  0  0  0  0
 14 15  1  0  0  0  0
 14 31  1  0  0  0  0
 14 32  1  0  0  0  0
 15 16  1  0  0  0  0
 15 25  1  0  0  0  0
 15 30  1  0  0  0  0
 16 17  1  0  0  0  0
 16 28  1  0  0  0  0
 16 29  1  0  0  0  0
 17 18  1  0  0  0  0
 17 20  1  0  0  0  0
 17 25  1  0  0  0  0
 18 19  1  0  0  0  0
 18 23  1  0  0  0  0
 18 24  1  0  0  0  0
 19 20  1  0  0  0  0
 20 21  1  0  0  0  0
 20 22  1  0  0  0  0
 25 26  1  0  0  0  0
 25 27  1  0  0  0  0
 37 38  2  0  0  0  0
 37 39  1  0  0  0  0
 39 40  1  0  0  0  0
 39 56  1  0  0  0  0
 40 41  2  0  0  0  0
 40 49  1  0  0  0  0
 41 42  1  0  0  0  0
 41 55  1  0  0  0  0
 42 43  2  0  0  0  0
 43 44  1  0  0  0  0
 43 54  1  0  0  0  0
 44 45  2  0  0  0  0
 44 49  1  0  0  0  0
 45 46  1  0  0  0  0
 45 53  1  0  0  0  0
 46 47  2  0  0  0  0
 46 52  1  0  0  0  0
 47 48  1  0  0  0  0
 47 51  1  0  0  0  0
 48 49  2  0  0  0  0
 48 50  1  0  0  0  0
 56 57  1  0  0  0  0
 56 73  1  0  0  0  0
 56 74  1  0  0  0  0
 57 58  1  0  0  0  0
 57 72  1  6  0  0  0
 58 59  1  0  0  0  0
 58 70  1  0  0  0  0
 58 71  1  0  0  0  0
 59 60  1  0  0  0  0
 59 69  1  0  0  0  0
 60 61  2  0  0  0  0
 60 65  1  0  0  0  0
 61 62  1  0  0  0  0
 62 63  2  0  0  0  0
 62 68  1  0  0  0  0
 63 64  1  0  0  0  0
 63 67  1  0  0  0  0
 64 65  2  0  0  0  0
 64 66  1  0  0  0  0
M  CHG  1  15   1
M  END
>  <MODEL>
       1

$$$$
