output/tmp_first_model_15_26.pdb
 OpenBabel07232601353D

 43 47  0  0  1  0  0  0  0  0999 V2000
    6.3370   -2.5750   20.7970 O   0  0  0  0  0  0  0  0  0  0  0  0
    7.0970   -1.6980   21.1290 C   0  0  0  0  0  0  0  0  0  0  0  0
    8.2800   -1.8040   21.8190 N   0  0  0  0  0  0  0  0  0  0  0  0
    8.7220   -0.5330   22.3640 C   0  0  1  0  0  0  0  0  0  0  0  0
    8.7480   -0.3670   23.9050 C   0  0  0  0  0  0  0  0  0  0  0  0
   10.2610    0.0000   23.8590 C   0  0  2  0  0  0  0  0  0  0  0  0
   10.6250    1.3930   24.3590 C   0  0  0  0  0  0  0  0  0  0  0  0
    9.8590    2.0630   25.3210 C   0  0  0  0  0  0  0  0  0  0  0  0
   10.1110    3.3830   25.6790 C   0  0  0  0  0  0  0  0  0  0  0  0
   11.1000    4.1100   25.0250 C   0  0  0  0  0  0  0  0  0  0  0  0
   11.9140    3.4660   24.1060 C   0  0  0  0  0  0  0  0  0  0  0  0
   11.7120    2.1130   23.8430 C   0  0  0  0  0  0  0  0  0  0  0  0
   12.8570    1.3140   22.7950 Cl  0  0  0  0  0  0  0  0  0  0  0  0
   12.7220    3.9780   23.5960 H   0  0  0  0  0  0  0  0  0  0  0  0
   11.2350    5.1740   25.1930 H   0  0  0  0  0  0  0  0  0  0  0  0
    9.4700    3.8850   26.3940 H   0  0  0  0  0  0  0  0  0  0  0  0
    9.0220    1.5520   25.7870 H   0  0  0  0  0  0  0  0  0  0  0  0
   10.2120   -0.1670   22.3140 C   0  0  0  0  0  0  0  0  0  0  0  0
   10.3600    0.7640   21.7710 H   0  0  0  0  0  0  0  0  0  0  0  0
   10.8610   -0.9480   21.9120 H   0  0  0  0  0  0  0  0  0  0  0  0
   10.8790   -0.7910   24.3000 H   0  0  0  0  0  0  0  0  0  0  0  0
    8.4940   -1.2840   24.4480 H   0  0  0  0  0  0  0  0  0  0  0  0
    8.0870    0.4410   24.2190 H   0  0  0  0  0  0  0  0  0  0  0  0
    7.8220    0.4470   21.6110 C   0  0  0  0  0  0  0  0  0  0  0  0
    7.8480    1.6510   21.6320 O   0  0  0  0  0  0  0  0  0  0  0  0
    6.9170   -0.3280   20.8770 N   0  0  0  0  0  0  0  0  0  0  0  0
    6.1230    0.1570   19.7980 C   0  0  0  0  0  0  0  0  0  0  0  0
    6.4480   -0.1790   18.5070 C   0  0  0  0  0  0  0  0  0  0  0  0
    5.7750    0.2610   17.4160 N   0  0  0  0  0  0  0  0  0  0  0  0
    4.7450    1.0430   17.6100 C   0  0  0  0  0  0  0  0  0  0  0  0
    4.2840    1.4490   18.8950 C   0  0  0  0  0  0  0  0  0  0  0  0
    3.1470    2.2800   19.0610 C   0  0  0  0  0  0  0  0  0  0  0  0
    2.7150    2.6150   20.3130 C   0  0  0  0  0  0  0  0  0  0  0  0
    3.3940    2.1360   21.4540 C   0  0  0  0  0  0  0  0  0  0  0  0
    4.5060    1.3430   21.3210 C   0  0  0  0  0  0  0  0  0  0  0  0
    4.9830    0.9880   20.0310 C   0  0  0  0  0  0  0  0  0  0  0  0
    5.0270    0.9730   22.1980 H   0  0  0  0  0  0  0  0  0  0  0  0
    3.0290    2.3920   22.4430 H   0  0  0  0  0  0  0  0  0  0  0  0
    1.8450    3.2530   20.4370 H   0  0  0  0  0  0  0  0  0  0  0  0
    2.6420    2.6410   18.1710 H   0  0  0  0  0  0  0  0  0  0  0  0
    4.2040    1.3800   16.7250 H   0  0  0  0  0  0  0  0  0  0  0  0
    7.3020   -0.8240   18.3070 H   0  0  0  0  0  0  0  0  0  0  0  0
    8.5250   -2.6940   22.2260 H   0  0  0  0  0  0  0  0  0  0  0  0
  1  2  2  0  0  0  0
  2  3  1  0  0  0  0
  2 26  1  0  0  0  0
  3  4  1  0  0  0  0
  3 43  1  0  0  0  0
  4  5  1  0  0  0  0
  4 18  1  0  0  0  0
  4 24  1  6  0  0  0
  5  6  1  0  0  0  0
  5 22  1  0  0  0  0
  5 23  1  0  0  0  0
  6  7  1  0  0  0  0
  6 18  1  0  0  0  0
  6 21  1  1  0  0  0
  7  8  2  0  0  0  0
  7 12  1  0  0  0  0
  8  9  1  0  0  0  0
  8 17  1  0  0  0  0
  9 10  2  0  0  0  0
  9 16  1  0  0  0  0
 10 11  1  0  0  0  0
 10 15  1  0  0  0  0
 11 12  2  0  0  0  0
 11 14  1  0  0  0  0
 12 13  1  0  0  0  0
 18 19  1  0  0  0  0
 18 20  1  0  0  0  0
 24 25  2  0  0  0  0
 24 26  1  0  0  0  0
 26 27  1  0  0  0  0
 27 28  2  0  0  0  0
 27 36  1  0  0  0  0
 28 29  1  0  0  0  0
 28 42  1  0  0  0  0
 29 30  2  0  0  0  0
 30 31  1  0  0  0  0
 30 41  1  0  0  0  0
 31 32  2  0  0  0  0
 31 36  1  0  0  0  0
 32 33  1  0  0  0  0
 32 40  1  0  0  0  0
 33 34  2  0  0  0  0
 33 39  1  0  0  0  0
 34 35  1  0  0  0  0
 34 38  1  0  0  0  0
 35 36  2  0  0  0  0
 35 37  1  0  0  0  0
M  END
>  <MODEL>
       1

$$$$
