output/tmp_first_model_1_34.pdb
 OpenBabel07222618483D

 58 63  0  0  1  0  0  0  0  0999 V2000
    7.8110   -3.0440   23.3200 C   0  0  0  0  0  0  0  0  0  0  0  0
    8.0060   -1.9760   22.2490 C   0  0  1  0  0  0  0  0  0  0  0  0
    6.8150   -1.9300   21.2740 C   0  0  0  0  0  0  0  0  0  0  0  0
    6.7420   -0.5430   20.8700 N   0  0  0  0  0  0  0  0  0  0  0  0
    5.9020   -0.1020   19.8070 C   0  0  0  0  0  0  0  0  0  0  0  0
    6.3600   -0.1810   18.5170 C   0  0  0  0  0  0  0  0  0  0  0  0
    5.6290    0.1360   17.4160 N   0  0  0  0  0  0  0  0  0  0  0  0
    4.4070    0.5730   17.6100 C   0  0  0  0  0  0  0  0  0  0  0  0
    3.8030    0.7310   18.8890 C   0  0  0  0  0  0  0  0  0  0  0  0
    2.5050    1.3030   19.0460 C   0  0  0  0  0  0  0  0  0  0  0  0
    1.9490    1.4340   20.2890 C   0  0  0  0  0  0  0  0  0  0  0  0
    2.6690    1.0250   21.4370 C   0  0  0  0  0  0  0  0  0  0  0  0
    3.9320    0.4800   21.3140 C   0  0  0  0  0  0  0  0  0  0  0  0
    4.5490    0.3380   20.0320 C   0  0  0  0  0  0  0  0  0  0  0  0
    4.4750    0.1840   22.2070 H   0  0  0  0  0  0  0  0  0  0  0  0
    2.2380    1.1930   22.4260 H   0  0  0  0  0  0  0  0  0  0  0  0
    0.9610    1.8780   20.4080 H   0  0  0  0  0  0  0  0  0  0  0  0
    2.0090    1.6970   18.1610 H   0  0  0  0  0  0  0  0  0  0  0  0
    3.8250    0.8080   16.7180 H   0  0  0  0  0  0  0  0  0  0  0  0
    7.3600   -0.5700   18.3330 H   0  0  0  0  0  0  0  0  0  0  0  0
    7.6080    0.2900   21.5460 C   0  0  0  0  0  0  0  0  0  0  0  0
    7.7990    1.4540   21.2620 O   0  0  0  0  0  0  0  0  0  0  0  0
    8.2100   -0.4940   22.7390 C   0  0  1  0  0  0  0  0  0  0  0  0
    7.3630   -0.0860   23.9800 C   0  0  0  0  0  0  0  0  0  0  0  0
    7.9680   -0.4240   25.2620 N   0  0  0  0  0  0  0  0  0  0  0  0
    7.1340   -0.7430   26.4220 C   0  0  0  0  0  0  0  0  0  0  0  0
    6.9860   -2.2140   26.7000 C   0  0  0  0  0  0  0  0  0  0  0  0
    7.9020   -3.1510   27.2030 C   0  0  0  0  0  0  0  0  0  0  0  0
    7.3090   -4.3450   27.2670 N   0  0  0  0  0  0  0  0  0  0  0  0
    6.0970   -4.1100   26.8170 N   0  0  0  0  0  0  0  0  0  0  0  0
    5.0580   -5.1140   26.7220 C   0  0  0  0  0  0  0  0  0  0  0  0
    4.6870   -5.1300   25.6940 H   0  0  0  0  0  0  0  0  0  0  0  0
    5.4900   -6.0760   26.9930 H   0  0  0  0  0  0  0  0  0  0  0  0
    4.2480   -4.8550   27.4100 H   0  0  0  0  0  0  0  0  0  0  0  0
    5.8410   -2.8570   26.4700 N   0  0  0  0  0  0  0  0  0  0  0  0
    8.9260   -3.0280   27.5270 H   0  0  0  0  0  0  0  0  0  0  0  0
    7.6130   -0.2640   27.2840 H   0  0  0  0  0  0  0  0  0  0  0  0
    6.1340   -0.3200   26.2800 H   0  0  0  0  0  0  0  0  0  0  0  0
    9.2900   -0.1720   25.5130 C   0  0  0  0  0  0  0  0  0  0  0  0
    9.7250   -0.0530   26.6500 O   0  0  0  0  0  0  0  0  0  0  0  0
   10.1710   -0.0740   24.3110 C   0  0  0  0  0  0  0  0  0  0  0  0
   11.5370    0.0680   24.5540 C   0  0  0  0  0  0  0  0  0  0  0  0
   12.4310    0.1970   23.5150 C   0  0  0  0  0  0  0  0  0  0  0  0
   11.9250    0.2050   22.2250 C   0  0  0  0  0  0  0  0  0  0  0  0
   12.8160    0.4100   21.2420 F   0  0  0  0  0  0  0  0  0  0  0  0
   10.5790    0.0200   21.9440 C   0  0  0  0  0  0  0  0  0  0  0  0
    9.6700   -0.1540   23.0030 C   0  0  0  0  0  0  0  0  0  0  0  0
   10.2470    0.0020   20.9110 H   0  0  0  0  0  0  0  0  0  0  0  0
   13.5040    0.2890   23.6590 H   0  0  0  0  0  0  0  0  0  0  0  0
   11.8760    0.0800   25.5820 H   0  0  0  0  0  0  0  0  0  0  0  0
    6.3910   -0.5900   23.9330 H   0  0  0  0  0  0  0  0  0  0  0  0
    7.1870    1.0000   23.9220 H   0  0  0  0  0  0  0  0  0  0  0  0
    6.9710   -2.5710   20.4000 H   0  0  0  0  0  0  0  0  0  0  0  0
    5.8800   -2.2550   21.7570 H   0  0  0  0  0  0  0  0  0  0  0  0
    8.9190   -2.2040   21.6760 H   0  0  0  0  0  0  0  0  0  0  0  0
    6.8620   -2.8940   23.8450 H   0  0  0  0  0  0  0  0  0  0  0  0
    7.7710   -4.0400   22.8620 H   0  0  0  0  0  0  0  0  0  0  0  0
    8.6170   -3.0260   24.0590 H   0  0  0  0  0  0  0  0  0  0  0  0
  1  2  1  0  0  0  0
  1 56  1  0  0  0  0
  1 57  1  0  0  0  0
  1 58  1  0  0  0  0
  2  3  1  0  0  0  0
  2 23  1  0  0  0  0
  2 55  1  6  0  0  0
  3  4  1  0  0  0  0
  3 53  1  0  0  0  0
  3 54  1  0  0  0  0
  4  5  1  0  0  0  0
  4 21  1  0  0  0  0
  5  6  2  0  0  0  0
  5 14  1  0  0  0  0
  6  7  1  0  0  0  0
  6 20  1  0  0  0  0
  7  8  2  0  0  0  0
  8  9  1  0  0  0  0
  8 19  1  0  0  0  0
  9 10  2  0  0  0  0
  9 14  1  0  0  0  0
 10 11  1  0  0  0  0
 10 18  1  0  0  0  0
 11 12  2  0  0  0  0
 11 17  1  0  0  0  0
 12 13  1  0  0  0  0
 12 16  1  0  0  0  0
 13 14  2  0  0  0  0
 13 15  1  0  0  0  0
 21 22  2  0  0  0  0
 23 21  1  6  0  0  0
 23 24  1  0  0  0  0
 23 47  1  0  0  0  0
 24 25  1  0  0  0  0
 24 51  1  0  0  0  0
 24 52  1  0  0  0  0
 25 26  1  0  0  0  0
 25 39  1  0  0  0  0
 26 27  1  0  0  0  0
 26 37  1  0  0  0  0
 26 38  1  0  0  0  0
 27 28  1  0  0  0  0
 27 35  2  0  0  0  0
 28 29  2  0  0  0  0
 28 36  1  0  0  0  0
 29 30  1  0  0  0  0
 30 31  1  0  0  0  0
 30 35  1  0  0  0  0
 31 32  1  0  0  0  0
 31 33  1  0  0  0  0
 31 34  1  0  0  0  0
 39 40  2  0  0  0  0
 39 41  1  0  0  0  0
 41 42  2  0  0  0  0
 41 47  1  0  0  0  0
 42 43  1  0  0  0  0
 42 50  1  0  0  0  0
 43 44  2  0  0  0  0
 43 49  1  0  0  0  0
 44 45  1  0  0  0  0
 44 46  1  0  0  0  0
 46 47  2  0  0  0  0
 46 48  1  0  0  0  0
M  END
>  <MODEL>
       1

$$$$
