output/tmp_first_model_18_29.pdb
 OpenBabel07232602473D

 67 72  0  0  1  0  0  0  0  0999 V2000
    5.1800   -7.0590   25.5060 C   0  0  0  0  0  0  0  0  0  0  0  0
    6.3010   -6.2780   24.9370 N   0  3  0  0  0  0  0  0  0  0  0  0
    6.2530   -6.1300   23.4540 C   0  0  0  0  0  0  0  0  0  0  0  0
    5.5120   -4.8460   23.0810 C   0  0  0  0  0  0  0  0  0  0  0  0
    6.1320   -3.6850   23.7010 N   0  0  0  0  0  0  0  0  0  0  0  0
    7.3470   -3.1570   23.1290 C   0  0  0  0  0  0  0  0  0  0  0  0
    7.2050   -1.6580   22.8350 C   0  0  2  0  0  0  0  0  0  0  0  0
    6.2770   -1.4440   21.6280 C   0  0  0  0  0  0  0  0  0  0  0  0
    5.2130   -1.9840   21.4060 O   0  0  0  0  0  0  0  0  0  0  0  0
    6.8550   -0.5170   20.7950 N   0  0  0  0  0  0  0  0  0  0  0  0
    6.1160    0.0690   19.7460 C   0  0  0  0  0  0  0  0  0  0  0  0
    6.4700   -0.1880   18.4470 C   0  0  0  0  0  0  0  0  0  0  0  0
    5.8050    0.2880   17.3710 N   0  0  0  0  0  0  0  0  0  0  0  0
    4.7710    1.0640   17.5880 C   0  0  0  0  0  0  0  0  0  0  0  0
    4.3130    1.4260   18.8880 C   0  0  0  0  0  0  0  0  0  0  0  0
    3.2060    2.2950   19.0600 C   0  0  0  0  0  0  0  0  0  0  0  0
    2.7950    2.6540   20.3140 C   0  0  0  0  0  0  0  0  0  0  0  0
    3.4730    2.1500   21.4470 C   0  0  0  0  0  0  0  0  0  0  0  0
    4.5470    1.3070   21.3150 C   0  0  0  0  0  0  0  0  0  0  0  0
    4.9950    0.9190   20.0140 C   0  0  0  0  0  0  0  0  0  0  0  0
    5.0540    0.9360   22.2070 H   0  0  0  0  0  0  0  0  0  0  0  0
    3.1390    2.4420   22.4370 H   0  0  0  0  0  0  0  0  0  0  0  0
    1.9530    3.3280   20.4440 H   0  0  0  0  0  0  0  0  0  0  0  0
    2.7130    2.6780   18.1720 H   0  0  0  0  0  0  0  0  0  0  0  0
    4.2430    1.4450   16.7140 H   0  0  0  0  0  0  0  0  0  0  0  0
    7.3180   -0.8390   18.2350 H   0  0  0  0  0  0  0  0  0  0  0  0
    8.1570   -0.0550   21.2190 C   0  0  0  0  0  0  0  0  0  0  0  0
    8.5290   -1.0260   22.3480 C   0  0  2  0  0  0  0  0  0  0  0  0
    9.5670   -2.0410   21.8500 C   0  0  0  0  0  0  0  0  0  0  0  0
   10.8340   -1.3730   21.6130 N   0  0  0  0  0  0  0  0  0  0  0  0
   11.6300   -0.9020   22.6080 C   0  0  0  0  0  0  0  0  0  0  0  0
   12.9240   -0.8490   22.2760 N   0  0  0  0  0  0  0  0  0  0  0  0
   13.7350   -0.4950   23.2410 C   0  0  0  0  0  0  0  0  0  0  0  0
   13.4000   -0.1670   24.4970 N   0  0  0  0  0  0  0  0  0  0  0  0
   12.0820   -0.1670   24.6820 C   0  0  0  0  0  0  0  0  0  0  0  0
   11.1470   -0.5220   23.8040 N   0  0  0  0  0  0  0  0  0  0  0  0
   11.7160    0.1610   25.6540 H   0  0  0  0  0  0  0  0  0  0  0  0
   14.7630   -0.4150   22.9270 H   0  0  0  0  0  0  0  0  0  0  0  0
   11.4030   -1.7650   20.8730 H   0  0  0  0  0  0  0  0  0  0  0  0
    9.7060   -2.8480   22.5820 H   0  0  0  0  0  0  0  0  0  0  0  0
    9.2610   -2.4990   20.9000 H   0  0  0  0  0  0  0  0  0  0  0  0
    9.0270   -0.5020   23.1600 H   0  0  0  0  0  0  0  0  0  0  0  0
    8.1330    0.9890   21.5620 H   0  0  0  0  0  0  0  0  0  0  0  0
    8.8680   -0.1090   20.3950 H   0  0  0  0  0  0  0  0  0  0  0  0
    6.6410   -0.9940   24.0890 C   0  0  0  0  0  0  0  0  0  0  0  0
    6.8060    0.3820   24.2890 C   0  0  0  0  0  0  0  0  0  0  0  0
    6.3560    0.9820   25.4520 C   0  0  0  0  0  0  0  0  0  0  0  0
    6.6260    2.6880   25.6860 Cl  0  0  0  0  0  0  0  0  0  0  0  0
    5.7070    0.2500   26.4430 C   0  0  0  0  0  0  0  0  0  0  0  0
    5.5100   -1.1040   26.2440 C   0  0  0  0  0  0  0  0  0  0  0  0
    5.9610   -1.7240   25.0770 C   0  0  0  0  0  0  0  0  0  0  0  0
    5.7120   -3.1870   24.8920 C   0  0  0  0  0  0  0  0  0  0  0  0
    5.1790   -3.9070   25.7490 O   0  0  0  0  0  0  0  0  0  0  0  0
    5.0050   -1.7110   26.9900 H   0  0  0  0  0  0  0  0  0  0  0  0
    5.3690    0.7480   27.3450 H   0  0  0  0  0  0  0  0  0  0  0  0
    7.3220    0.9980   23.5600 H   0  0  0  0  0  0  0  0  0  0  0  0
    8.1670   -3.2850   23.8540 H   0  0  0  0  0  0  0  0  0  0  0  0
    7.5680   -3.7130   22.2140 H   0  0  0  0  0  0  0  0  0  0  0  0
    4.4700   -4.8710   23.4190 H   0  0  0  0  0  0  0  0  0  0  0  0
    5.5210   -4.6780   21.9970 H   0  0  0  0  0  0  0  0  0  0  0  0
    5.7710   -7.0040   23.0060 H   0  0  0  0  0  0  0  0  0  0  0  0
    7.2780   -6.0920   23.0780 H   0  0  0  0  0  0  0  0  0  0  0  0
    7.2050   -6.6960   25.2220 H   0  0  0  0  0  0  0  0  0  0  0  0
    6.2350   -5.3360   25.3610 H   0  0  0  0  0  0  0  0  0  0  0  0
    5.4620   -7.4500   26.4850 H   0  0  0  0  0  0  0  0  0  0  0  0
    4.3090   -6.4110   25.6200 H   0  0  0  0  0  0  0  0  0  0  0  0
    4.9200   -7.8960   24.8530 H   0  0  0  0  0  0  0  0  0  0  0  0
  1  2  1  0  0  0  0
  1 65  1  0  0  0  0
  1 66  1  0  0  0  0
  1 67  1  0  0  0  0
  2  3  1  0  0  0  0
  2 63  1  0  0  0  0
  2 64  1  0  0  0  0
  3  4  1  0  0  0  0
  3 61  1  0  0  0  0
  3 62  1  0  0  0  0
  4  5  1  0  0  0  0
  4 59  1  0  0  0  0
  4 60  1  0  0  0  0
  5  6  1  0  0  0  0
  5 52  1  0  0  0  0
  6  7  1  0  0  0  0
  6 57  1  0  0  0  0
  6 58  1  0  0  0  0
  7  8  1  6  0  0  0
  7 28  1  0  0  0  0
  7 45  1  0  0  0  0
  8  9  2  0  0  0  0
  8 10  1  0  0  0  0
 10 11  1  0  0  0  0
 10 27  1  0  0  0  0
 11 12  2  0  0  0  0
 11 20  1  0  0  0  0
 12 13  1  0  0  0  0
 12 26  1  0  0  0  0
 13 14  2  0  0  0  0
 14 15  1  0  0  0  0
 14 25  1  0  0  0  0
 15 16  2  0  0  0  0
 15 20  1  0  0  0  0
 16 17  1  0  0  0  0
 16 24  1  0  0  0  0
 17 18  2  0  0  0  0
 17 23  1  0  0  0  0
 18 19  1  0  0  0  0
 18 22  1  0  0  0  0
 19 20  2  0  0  0  0
 19 21  1  0  0  0  0
 27 28  1  0  0  0  0
 27 43  1  0  0  0  0
 27 44  1  0  0  0  0
 28 29  1  0  0  0  0
 28 42  1  1  0  0  0
 29 30  1  0  0  0  0
 29 40  1  0  0  0  0
 29 41  1  0  0  0  0
 30 31  1  0  0  0  0
 30 39  1  0  0  0  0
 31 32  2  0  0  0  0
 31 36  1  0  0  0  0
 32 33  1  0  0  0  0
 33 34  2  0  0  0  0
 33 38  1  0  0  0  0
 34 35  1  0  0  0  0
 35 36  2  0  0  0  0
 35 37  1  0  0  0  0
 45 46  2  0  0  0  0
 45 51  1  0  0  0  0
 46 47  1  0  0  0  0
 46 56  1  0  0  0  0
 47 48  1  0  0  0  0
 47 49  2  0  0  0  0
 49 50  1  0  0  0  0
 49 55  1  0  0  0  0
 50 51  2  0  0  0  0
 50 54  1  0  0  0  0
 51 52  1  0  0  0  0
 52 53  2  0  0  0  0
M  CHG  1   2   1
M  END
>  <MODEL>
       1

$$$$
