output/tmp_first_model_14_36.pdb
 OpenBabel07232601073D

 59 64  0  0  1  0  0  0  0  0999 V2000
    7.7240   -3.0090   23.3480 C   0  0  0  0  0  0  0  0  0  0  0  0
    8.0100   -1.9230   22.3090 C   0  0  1  0  0  0  0  0  0  0  0  0
    6.9080   -1.8120   21.2390 C   0  0  0  0  0  0  0  0  0  0  0  0
    6.9140   -0.4120   20.8440 N   0  0  0  0  0  0  0  0  0  0  0  0
    6.1220    0.0980   19.7650 C   0  0  0  0  0  0  0  0  0  0  0  0
    6.4270   -0.2170   18.4620 C   0  0  0  0  0  0  0  0  0  0  0  0
    5.7580    0.2380   17.3700 N   0  0  0  0  0  0  0  0  0  0  0  0
    4.7330    1.0340   17.5750 C   0  0  0  0  0  0  0  0  0  0  0  0
    4.2850    1.4270   18.8660 C   0  0  0  0  0  0  0  0  0  0  0  0
    3.1610    2.2760   19.0470 C   0  0  0  0  0  0  0  0  0  0  0  0
    2.7490    2.6120   20.3100 C   0  0  0  0  0  0  0  0  0  0  0  0
    3.4300    2.1130   21.4410 C   0  0  0  0  0  0  0  0  0  0  0  0
    4.5190    1.2920   21.2910 C   0  0  0  0  0  0  0  0  0  0  0  0
    4.9860    0.9400   19.9970 C   0  0  0  0  0  0  0  0  0  0  0  0
    5.0270    0.9020   22.1670 H   0  0  0  0  0  0  0  0  0  0  0  0
    3.0860    2.3810   22.4340 H   0  0  0  0  0  0  0  0  0  0  0  0
    1.8890    3.2600   20.4520 H   0  0  0  0  0  0  0  0  0  0  0  0
    2.6310    2.6520   18.1740 H   0  0  0  0  0  0  0  0  0  0  0  0
    4.1920    1.4040   16.7030 H   0  0  0  0  0  0  0  0  0  0  0  0
    7.2820   -0.8630   18.2670 H   0  0  0  0  0  0  0  0  0  0  0  0
    7.6430    0.3840   21.7190 C   0  0  0  0  0  0  0  0  0  0  0  0
    7.7780    1.5860   21.6270 O   0  0  0  0  0  0  0  0  0  0  0  0
    8.2220   -0.4680   22.8580 C   0  0  1  0  0  0  0  0  0  0  0  0
    7.3540   -0.1080   24.1130 C   0  0  0  0  0  0  0  0  0  0  0  0
    7.9060   -0.7520   25.3150 N   0  0  0  0  0  0  0  0  0  0  0  0
    7.0230   -1.1430   26.4570 C   0  0  0  0  0  0  0  0  0  0  0  0
    6.5990    0.0400   27.2440 C   0  0  0  0  0  0  0  0  0  0  0  0
    7.2400    0.5420   28.3810 C   0  0  0  0  0  0  0  0  0  0  0  0
    6.5180    1.6550   28.7140 C   0  0  0  0  0  0  0  0  0  0  0  0
    5.5310    1.8000   27.8000 N   0  0  0  0  0  0  0  0  0  0  0  0
    4.4890    2.8230   27.8100 C   0  0  0  0  0  0  0  0  0  0  0  0
    4.0600    2.9350   26.8070 H   0  0  0  0  0  0  0  0  0  0  0  0
    4.9250    3.7840   28.1190 H   0  0  0  0  0  0  0  0  0  0  0  0
    3.6960    2.5450   28.5180 H   0  0  0  0  0  0  0  0  0  0  0  0
    5.5640    0.8110   26.8870 N   0  0  0  0  0  0  0  0  0  0  0  0
    6.6680    2.3240   29.5460 H   0  0  0  0  0  0  0  0  0  0  0  0
    8.1120    0.1390   28.8770 H   0  0  0  0  0  0  0  0  0  0  0  0
    7.5840   -1.8690   27.0730 H   0  0  0  0  0  0  0  0  0  0  0  0
    6.1720   -1.6580   26.0210 H   0  0  0  0  0  0  0  0  0  0  0  0
    9.4070   -0.5730   25.6340 C   0  0  0  0  0  0  0  0  0  0  0  0
    9.4070   -0.5730   25.6330 O   0  0  0  0  0  0  0  0  0  0  0  0
   10.1620   -0.2530   24.4310 C   0  0  0  0  0  0  0  0  0  0  0  0
   11.5450   -0.0260   24.5940 C   0  0  0  0  0  0  0  0  0  0  0  0
   12.4490    0.2510   23.5010 C   0  0  0  0  0  0  0  0  0  0  0  0
   11.9270    0.3000   22.2370 C   0  0  0  0  0  0  0  0  0  0  0  0
   12.7590    0.5550   21.2270 F   0  0  0  0  0  0  0  0  0  0  0  0
   10.5700    0.0860   22.0240 C   0  0  0  0  0  0  0  0  0  0  0  0
    9.7010   -0.1610   23.0710 C   0  0  0  0  0  0  0  0  0  0  0  0
   10.1920    0.1070   21.0090 H   0  0  0  0  0  0  0  0  0  0  0  0
   13.5110    0.4230   23.6930 H   0  0  0  0  0  0  0  0  0  0  0  0
   11.9370    0.1890   25.4870 H   0  0  0  0  0  0  0  0  0  0  0  0
    6.3360   -0.4670   23.9850 H   0  0  0  0  0  0  0  0  0  0  0  0
    7.3120    0.9850   24.2480 H   0  0  0  0  0  0  0  0  0  0  0  0
    5.9230   -2.0860   21.6490 H   0  0  0  0  0  0  0  0  0  0  0  0
    7.1280   -2.4580   20.3840 H   0  0  0  0  0  0  0  0  0  0  0  0
    8.9400   -2.2070   21.7910 H   0  0  0  0  0  0  0  0  0  0  0  0
    8.5240   -3.0430   24.1020 H   0  0  0  0  0  0  0  0  0  0  0  0
    7.6700   -3.9850   22.8510 H   0  0  0  0  0  0  0  0  0  0  0  0
    6.7660   -2.8300   23.8600 H   0  0  0  0  0  0  0  0  0  0  0  0
  1  2  1  0  0  0  0
  1 57  1  0  0  0  0
  1 58  1  0  0  0  0
  1 59  1  0  0  0  0
  2  3  1  0  0  0  0
  2 23  1  0  0  0  0
  2 56  1  6  0  0  0
  3  4  1  0  0  0  0
  3 54  1  0  0  0  0
  3 55  1  0  0  0  0
  4  5  1  0  0  0  0
  4 21  1  0  0  0  0
  5  6  2  0  0  0  0
  5 14  1  0  0  0  0
  6  7  1  0  0  0  0
  6 20  1  0  0  0  0
  7  8  2  0  0  0  0
  8  9  1  0  0  0  0
  8 19  1  0  0  0  0
  9 10  2  0  0  0  0
  9 14  1  0  0  0  0
 10 11  1  0  0  0  0
 10 18  1  0  0  0  0
 11 12  2  0  0  0  0
 11 17  1  0  0  0  0
 12 13  1  0  0  0  0
 12 16  1  0  0  0  0
 13 14  2  0  0  0  0
 13 15  1  0  0  0  0
 21 22  2  0  0  0  0
 23 21  1  6  0  0  0
 23 24  1  0  0  0  0
 23 48  1  0  0  0  0
 24 25  1  0  0  0  0
 24 52  1  0  0  0  0
 24 53  1  0  0  0  0
 25 26  1  0  0  0  0
 25 40  1  0  0  0  0
 26 27  1  0  0  0  0
 26 38  1  0  0  0  0
 26 39  1  0  0  0  0
 27 28  1  0  0  0  0
 27 35  2  0  0  0  0
 28 29  2  0  0  0  0
 28 37  1  0  0  0  0
 29 30  1  0  0  0  0
 29 36  1  0  0  0  0
 30 31  1  0  0  0  0
 30 35  1  0  0  0  0
 31 32  1  0  0  0  0
 31 33  1  0  0  0  0
 31 34  1  0  0  0  0
 40 41  2  0  0  0  0
 40 42  1  0  0  0  0
 42 43  2  0  0  0  0
 42 48  1  0  0  0  0
 43 44  1  0  0  0  0
 43 51  1  0  0  0  0
 44 45  2  0  0  0  0
 44 50  1  0  0  0  0
 45 46  1  0  0  0  0
 45 47  1  0  0  0  0
 47 48  2  0  0  0  0
 47 49  1  0  0  0  0
M  END
>  <MODEL>
       1

$$$$
