output/tmp_first_model_11_29.pdb
 OpenBabel07222623443D

 67 72  0  0  1  0  0  0  0  0999 V2000
    7.8460   -7.8730   22.8840 C   0  0  0  0  0  0  0  0  0  0  0  0
    6.6730   -7.0100   22.6950 N   0  3  0  0  0  0  0  0  0  0  0  0
    6.5090   -6.3610   21.3640 C   0  0  0  0  0  0  0  0  0  0  0  0
    5.8580   -4.9890   21.5780 C   0  0  0  0  0  0  0  0  0  0  0  0
    6.5080   -4.2340   22.6440 N   0  0  0  0  0  0  0  0  0  0  0  0
    7.6360   -3.3870   22.3370 C   0  0  0  0  0  0  0  0  0  0  0  0
    7.3680   -1.9210   22.7700 C   0  0  2  0  0  0  0  0  0  0  0  0
    6.3160   -1.3740   21.7800 C   0  0  0  0  0  0  0  0  0  0  0  0
    5.1620   -1.7350   21.6750 O   0  0  0  0  0  0  0  0  0  0  0  0
    6.9130   -0.4480   20.9500 N   0  0  0  0  0  0  0  0  0  0  0  0
    6.1990    0.0930   19.8540 C   0  0  0  0  0  0  0  0  0  0  0  0
    6.5780   -0.1770   18.5620 C   0  0  0  0  0  0  0  0  0  0  0  0
    5.9040    0.2350   17.4620 N   0  0  0  0  0  0  0  0  0  0  0  0
    4.8300    0.9640   17.6410 C   0  0  0  0  0  0  0  0  0  0  0  0
    4.3480    1.3560   18.9210 C   0  0  0  0  0  0  0  0  0  0  0  0
    3.1980    2.1790   19.0580 C   0  0  0  0  0  0  0  0  0  0  0  0
    2.7740    2.5770   20.2960 C   0  0  0  0  0  0  0  0  0  0  0  0
    3.4750    2.1600   21.4500 C   0  0  0  0  0  0  0  0  0  0  0  0
    4.5850    1.3590   21.3420 C   0  0  0  0  0  0  0  0  0  0  0  0
    5.0460    0.9220   20.0680 C   0  0  0  0  0  0  0  0  0  0  0  0
    5.1210    1.0430   22.2310 H   0  0  0  0  0  0  0  0  0  0  0  0
    3.1330    2.4810   22.4290 H   0  0  0  0  0  0  0  0  0  0  0  0
    1.9040    3.2210   20.3990 H   0  0  0  0  0  0  0  0  0  0  0  0
    2.6900    2.5140   18.1570 H   0  0  0  0  0  0  0  0  0  0  0  0
    4.2930    1.2880   16.7480 H   0  0  0  0  0  0  0  0  0  0  0  0
    7.4550   -0.7910   18.3650 H   0  0  0  0  0  0  0  0  0  0  0  0
    8.3680   -0.4730   21.0640 C   0  0  0  0  0  0  0  0  0  0  0  0
    8.6040   -1.0180   22.4860 C   0  0  2  0  0  0  0  0  0  0  0  0
    9.9670   -1.6990   22.6670 C   0  0  0  0  0  0  0  0  0  0  0  0
   10.0300   -2.3760   23.9640 N   0  0  0  0  0  0  0  0  0  0  0  0
   11.1550   -2.8990   24.4900 C   0  0  0  0  0  0  0  0  0  0  0  0
   12.3430   -2.4010   24.1100 N   0  0  0  0  0  0  0  0  0  0  0  0
   13.3830   -2.9190   24.7490 C   0  0  0  0  0  0  0  0  0  0  0  0
   13.3540   -3.8540   25.7000 N   0  0  0  0  0  0  0  0  0  0  0  0
   12.1120   -4.2740   25.9930 C   0  0  0  0  0  0  0  0  0  0  0  0
   10.9900   -3.8590   25.4300 N   0  0  0  0  0  0  0  0  0  0  0  0
   12.0210   -5.0240   26.7800 H   0  0  0  0  0  0  0  0  0  0  0  0
   14.3560   -2.5120   24.4720 H   0  0  0  0  0  0  0  0  0  0  0  0
    9.1910   -2.7880   24.3470 H   0  0  0  0  0  0  0  0  0  0  0  0
   10.1510   -2.4090   21.8440 H   0  0  0  0  0  0  0  0  0  0  0  0
   10.7920   -0.9830   22.6340 H   0  0  0  0  0  0  0  0  0  0  0  0
    8.5590   -0.1740   23.1800 H   0  0  0  0  0  0  0  0  0  0  0  0
    8.7660    0.5330   20.9330 H   0  0  0  0  0  0  0  0  0  0  0  0
    8.8350   -1.1290   20.3120 H   0  0  0  0  0  0  0  0  0  0  0  0
    6.8660   -1.9190   24.2050 C   0  0  0  0  0  0  0  0  0  0  0  0
    6.9310   -0.7690   25.0090 C   0  0  0  0  0  0  0  0  0  0  0  0
    6.4980   -0.8090   26.3250 C   0  0  0  0  0  0  0  0  0  0  0  0
    6.5760    0.6420   27.2890 Cl  0  0  0  0  0  0  0  0  0  0  0  0
    5.9970   -1.9800   26.8920 C   0  0  0  0  0  0  0  0  0  0  0  0
    5.8820   -3.1040   26.0940 C   0  0  0  0  0  0  0  0  0  0  0  0
    6.2680   -3.0680   24.7540 C   0  0  0  0  0  0  0  0  0  0  0  0
    5.9960   -4.2630   23.9040 C   0  0  0  0  0  0  0  0  0  0  0  0
    5.3560   -5.2460   24.3040 O   0  0  0  0  0  0  0  0  0  0  0  0
    5.4860   -4.0340   26.4920 H   0  0  0  0  0  0  0  0  0  0  0  0
    5.6960   -1.9980   27.9340 H   0  0  0  0  0  0  0  0  0  0  0  0
    7.3170    0.1650   24.6200 H   0  0  0  0  0  0  0  0  0  0  0  0
    7.8110   -3.3580   21.2660 H   0  0  0  0  0  0  0  0  0  0  0  0
    8.5390   -3.7980   22.8040 H   0  0  0  0  0  0  0  0  0  0  0  0
    4.8170   -5.1290   21.8850 H   0  0  0  0  0  0  0  0  0  0  0  0
    5.8580   -4.3810   20.6670 H   0  0  0  0  0  0  0  0  0  0  0  0
    7.4860   -6.2780   20.8780 H   0  0  0  0  0  0  0  0  0  0  0  0
    5.8820   -6.9800   20.7170 H   0  0  0  0  0  0  0  0  0  0  0  0
    5.8110   -7.5330   22.9150 H   0  0  0  0  0  0  0  0  0  0  0  0
    6.7010   -6.2720   23.3970 H   0  0  0  0  0  0  0  0  0  0  0  0
    7.6910   -8.8430   22.4100 H   0  0  0  0  0  0  0  0  0  0  0  0
    8.0450   -8.0320   23.9470 H   0  0  0  0  0  0  0  0  0  0  0  0
    8.7290   -7.4070   22.4420 H   0  0  0  0  0  0  0  0  0  0  0  0
  1  2  1  0  0  0  0
  1 65  1  0  0  0  0
  1 66  1  0  0  0  0
  1 67  1  0  0  0  0
  2  3  1  0  0  0  0
  2 63  1  0  0  0  0
  2 64  1  0  0  0  0
  3  4  1  0  0  0  0
  3 61  1  0  0  0  0
  3 62  1  0  0  0  0
  4  5  1  0  0  0  0
  4 59  1  0  0  0  0
  4 60  1  0  0  0  0
  5  6  1  0  0  0  0
  5 52  1  0  0  0  0
  6  7  1  0  0  0  0
  6 57  1  0  0  0  0
  6 58  1  0  0  0  0
  7  8  1  6  0  0  0
  7 28  1  0  0  0  0
  7 45  1  0  0  0  0
  8  9  2  0  0  0  0
  8 10  1  0  0  0  0
 10 11  1  0  0  0  0
 10 27  1  0  0  0  0
 11 12  2  0  0  0  0
 11 20  1  0  0  0  0
 12 13  1  0  0  0  0
 12 26  1  0  0  0  0
 13 14  2  0  0  0  0
 14 15  1  0  0  0  0
 14 25  1  0  0  0  0
 15 16  2  0  0  0  0
 15 20  1  0  0  0  0
 16 17  1  0  0  0  0
 16 24  1  0  0  0  0
 17 18  2  0  0  0  0
 17 23  1  0  0  0  0
 18 19  1  0  0  0  0
 18 22  1  0  0  0  0
 19 20  2  0  0  0  0
 19 21  1  0  0  0  0
 27 28  1  0  0  0  0
 27 43  1  0  0  0  0
 27 44  1  0  0  0  0
 28 29  1  0  0  0  0
 28 42  1  1  0  0  0
 29 30  1  0  0  0  0
 29 40  1  0  0  0  0
 29 41  1  0  0  0  0
 30 31  1  0  0  0  0
 30 39  1  0  0  0  0
 31 32  2  0  0  0  0
 31 36  1  0  0  0  0
 32 33  1  0  0  0  0
 33 34  2  0  0  0  0
 33 38  1  0  0  0  0
 34 35  1  0  0  0  0
 35 36  2  0  0  0  0
 35 37  1  0  0  0  0
 45 46  2  0  0  0  0
 45 51  1  0  0  0  0
 46 47  1  0  0  0  0
 46 56  1  0  0  0  0
 47 48  1  0  0  0  0
 47 49  2  0  0  0  0
 49 50  1  0  0  0  0
 49 55  1  0  0  0  0
 50 51  2  0  0  0  0
 50 54  1  0  0  0  0
 51 52  1  0  0  0  0
 52 53  2  0  0  0  0
M  CHG  1   2   1
M  END
>  <MODEL>
       1

$$$$
