output/tmp_first_model_7_81.pdb
 OpenBabel07222621533D

 58 63  0  0  1  0  0  0  0  0999 V2000
    5.0670   -5.4140   26.4540 C   0  0  0  0  0  0  0  0  0  0  0  0
    6.0000   -4.2440   26.5550 C   0  0  0  0  0  0  0  0  0  0  0  0
    5.7820   -2.9740   26.4400 N   0  0  0  0  0  0  0  0  0  0  0  0
    7.0360   -2.3850   26.5530 C   0  0  0  0  0  0  0  0  0  0  0  0
    7.2400   -0.9070   26.4370 C   0  0  0  0  0  0  0  0  0  0  0  0
    8.0780   -0.5390   25.3070 N   0  0  0  0  0  0  0  0  0  0  0  0
    7.4650   -0.0900   24.0610 C   0  0  0  0  0  0  0  0  0  0  0  0
    8.2730   -0.4700   22.7890 C   0  0  2  0  0  0  0  0  0  0  0  0
    7.6550    0.3830   21.6580 C   0  0  0  0  0  0  0  0  0  0  0  0
    7.7830    1.5770   21.4910 O   0  0  0  0  0  0  0  0  0  0  0  0
    6.8510   -0.4350   20.8890 N   0  0  0  0  0  0  0  0  0  0  0  0
    6.0240    0.0340   19.8400 C   0  0  0  0  0  0  0  0  0  0  0  0
    6.4110   -0.1810   18.5430 C   0  0  0  0  0  0  0  0  0  0  0  0
    5.7410    0.2750   17.4610 N   0  0  0  0  0  0  0  0  0  0  0  0
    4.6520    0.9680   17.6790 C   0  0  0  0  0  0  0  0  0  0  0  0
    4.0880    1.1820   18.9670 C   0  0  0  0  0  0  0  0  0  0  0  0
    2.8660    1.8850   19.1280 C   0  0  0  0  0  0  0  0  0  0  0  0
    2.3000    2.0160   20.3690 C   0  0  0  0  0  0  0  0  0  0  0  0
    2.9270    1.4420   21.5040 C   0  0  0  0  0  0  0  0  0  0  0  0
    4.1360    0.7960   21.3750 C   0  0  0  0  0  0  0  0  0  0  0  0
    4.7610    0.6640   20.0960 C   0  0  0  0  0  0  0  0  0  0  0  0
    4.6340    0.3840   22.2490 H   0  0  0  0  0  0  0  0  0  0  0  0
    2.4680    1.5640   22.4820 H   0  0  0  0  0  0  0  0  0  0  0  0
    1.3720    2.5670   20.4810 H   0  0  0  0  0  0  0  0  0  0  0  0
    2.4010    2.2900   18.2340 H   0  0  0  0  0  0  0  0  0  0  0  0
    4.1470    1.3780   16.8070 H   0  0  0  0  0  0  0  0  0  0  0  0
    7.3470   -0.7020   18.3450 H   0  0  0  0  0  0  0  0  0  0  0  0
    6.8420   -1.8210   21.2800 C   0  0  0  0  0  0  0  0  0  0  0  0
    8.0190   -1.9310   22.2580 C   0  0  2  0  0  0  0  0  0  0  0  0
    7.7670   -3.0070   23.3020 C   0  0  0  0  0  0  0  0  0  0  0  0
    6.8190   -2.8320   23.8230 H   0  0  0  0  0  0  0  0  0  0  0  0
    8.5620   -3.0270   24.0510 H   0  0  0  0  0  0  0  0  0  0  0  0
    7.7090   -3.9880   22.8180 H   0  0  0  0  0  0  0  0  0  0  0  0
    8.9160   -2.2020   21.6820 H   0  0  0  0  0  0  0  0  0  0  0  0
    6.9540   -2.4570   20.3980 H   0  0  0  0  0  0  0  0  0  0  0  0
    5.8880   -2.1060   21.7570 H   0  0  0  0  0  0  0  0  0  0  0  0
    9.7470   -0.1740   23.0530 C   0  0  0  0  0  0  0  0  0  0  0  0
   10.6480    0.0910   22.0130 C   0  0  0  0  0  0  0  0  0  0  0  0
   11.9910    0.2950   22.2940 C   0  0  0  0  0  0  0  0  0  0  0  0
   12.8440    0.6030   21.3050 F   0  0  0  0  0  0  0  0  0  0  0  0
   12.5230    0.1890   23.5730 C   0  0  0  0  0  0  0  0  0  0  0  0
   11.6420   -0.0880   24.5930 C   0  0  0  0  0  0  0  0  0  0  0  0
   10.2770   -0.2250   24.3480 C   0  0  0  0  0  0  0  0  0  0  0  0
    9.4220   -0.4420   25.5400 C   0  0  0  0  0  0  0  0  0  0  0  0
    9.9120   -0.5290   26.6610 O   0  0  0  0  0  0  0  0  0  0  0  0
   11.9830   -0.1970   25.6150 H   0  0  0  0  0  0  0  0  0  0  0  0
   13.5860    0.3250   23.7460 H   0  0  0  0  0  0  0  0  0  0  0  0
   10.3080    0.1370   20.9870 H   0  0  0  0  0  0  0  0  0  0  0  0
    6.4560   -0.5180   23.9880 H   0  0  0  0  0  0  0  0  0  0  0  0
    7.3520    1.0040   24.0660 H   0  0  0  0  0  0  0  0  0  0  0  0
    7.7350   -0.5200   27.3350 H   0  0  0  0  0  0  0  0  0  0  0  0
    6.2630   -0.4300   26.3300 H   0  0  0  0  0  0  0  0  0  0  0  0
    7.9580   -3.3570   26.7400 C   0  0  0  0  0  0  0  0  0  0  0  0
    7.3050   -4.5580   26.7420 O   0  0  0  0  0  0  0  0  0  0  0  0
    9.0230   -3.3790   26.9110 H   0  0  0  0  0  0  0  0  0  0  0  0
    5.6670   -6.3220   26.4950 H   0  0  0  0  0  0  0  0  0  0  0  0
    4.3260   -5.4300   27.2570 H   0  0  0  0  0  0  0  0  0  0  0  0
    4.5260   -5.3770   25.5060 H   0  0  0  0  0  0  0  0  0  0  0  0
  1  2  1  0  0  0  0
  1 56  1  0  0  0  0
  1 57  1  0  0  0  0
  1 58  1  0  0  0  0
  2  3  2  0  0  0  0
  2 54  1  0  0  0  0
  3  4  1  0  0  0  0
  4  5  1  0  0  0  0
  4 53  2  0  0  0  0
  5  6  1  0  0  0  0
  5 51  1  0  0  0  0
  5 52  1  0  0  0  0
  6  7  1  0  0  0  0
  6 44  1  0  0  0  0
  7  8  1  0  0  0  0
  7 49  1  0  0  0  0
  7 50  1  0  0  0  0
  8  9  1  6  0  0  0
  8 29  1  0  0  0  0
  8 37  1  0  0  0  0
  9 10  2  0  0  0  0
  9 11  1  0  0  0  0
 11 12  1  0  0  0  0
 11 28  1  0  0  0  0
 12 13  2  0  0  0  0
 12 21  1  0  0  0  0
 13 14  1  0  0  0  0
 13 27  1  0  0  0  0
 14 15  2  0  0  0  0
 15 16  1  0  0  0  0
 15 26  1  0  0  0  0
 16 17  2  0  0  0  0
 16 21  1  0  0  0  0
 17 18  1  0  0  0  0
 17 25  1  0  0  0  0
 18 19  2  0  0  0  0
 18 24  1  0  0  0  0
 19 20  1  0  0  0  0
 19 23  1  0  0  0  0
 20 21  2  0  0  0  0
 20 22  1  0  0  0  0
 28 29  1  0  0  0  0
 28 35  1  0  0  0  0
 28 36  1  0  0  0  0
 29 30  1  0  0  0  0
 29 34  1  6  0  0  0
 30 31  1  0  0  0  0
 30 32  1  0  0  0  0
 30 33  1  0  0  0  0
 37 38  2  0  0  0  0
 37 43  1  0  0  0  0
 38 39  1  0  0  0  0
 38 48  1  0  0  0  0
 39 40  1  0  0  0  0
 39 41  2  0  0  0  0
 41 42  1  0  0  0  0
 41 47  1  0  0  0  0
 42 43  2  0  0  0  0
 42 46  1  0  0  0  0
 43 44  1  0  0  0  0
 44 45  2  0  0  0  0
 53 54  1  0  0  0  0
 53 55  1  0  0  0  0
M  END
>  <MODEL>
       1

$$$$
