output/tmp_first_model_7_6.pdb
 OpenBabel07222621533D

 65 69  0  0  0  0  0  0  0  0999 V2000
   10.3870    4.4780   24.3200 C   0  0  0  0  0  0  0  0  0  0  0  0
   10.7040    3.0950   23.7530 C   0  0  0  0  0  0  0  0  0  0  0  0
    9.4380    2.3570   23.5020 C   0  0  0  0  0  0  0  0  0  0  0  0
    8.6180    2.4850   22.6700 O   0  0  0  0  0  0  0  0  0  0  0  0
    9.2680    0.3030   25.4070 N   0  3  0  0  0  0  0  0  0  0  0  0
    8.0260    0.7950   25.9960 C   0  0  0  0  0  0  0  0  0  0  0  0
    6.8840    0.7550   24.9880 C   0  0  0  0  0  0  0  0  0  0  0  0
    6.6930   -0.6900   24.5380 C   0  0  0  0  0  0  0  0  0  0  0  0
    7.9860   -1.2630   23.9790 C   0  0  0  0  0  0  0  0  0  0  0  0
    8.0430   -2.2540   22.9810 C   0  0  0  0  0  0  0  0  0  0  0  0
    6.8480   -2.7590   22.3800 N   0  0  0  0  0  0  0  0  0  0  0  0
    6.3790   -4.0490   22.8790 C   0  0  0  0  0  0  0  0  0  0  0  0
    5.7540   -3.9120   24.2520 C   0  0  0  0  0  0  0  0  0  0  0  0
    4.4890   -3.3390   24.3870 C   0  0  0  0  0  0  0  0  0  0  0  0
    3.9300   -3.1540   25.6480 C   0  0  0  0  0  0  0  0  0  0  0  0
    4.6340   -3.5140   26.7930 C   0  0  0  0  0  0  0  0  0  0  0  0
    5.9010   -4.0700   26.6540 C   0  0  0  0  0  0  0  0  0  0  0  0
    6.8060   -4.5070   28.0780 Cl  0  0  0  0  0  0  0  0  0  0  0  0
    6.4660   -4.2690   25.3990 C   0  0  0  0  0  0  0  0  0  0  0  0
    7.4750   -4.6700   25.3270 H   0  0  0  0  0  0  0  0  0  0  0  0
    4.2160   -3.3600   27.7820 H   0  0  0  0  0  0  0  0  0  0  0  0
    2.9400   -2.7170   25.7410 H   0  0  0  0  0  0  0  0  0  0  0  0
    3.9510   -3.0190   23.4980 H   0  0  0  0  0  0  0  0  0  0  0  0
    5.6610   -4.4350   22.1500 H   0  0  0  0  0  0  0  0  0  0  0  0
    7.2390   -4.7250   22.9400 H   0  0  0  0  0  0  0  0  0  0  0  0
    6.0910   -2.0910   21.4380 C   0  0  0  0  0  0  0  0  0  0  0  0
    5.0310   -2.5480   21.0470 O   0  0  0  0  0  0  0  0  0  0  0  0
    6.6450   -0.7520   20.9250 C   0  0  0  0  0  0  0  0  0  0  0  0
    5.8390   -0.1400   19.8080 C   0  0  0  0  0  0  0  0  0  0  0  0
    6.3430   -0.0890   18.5340 C   0  0  0  0  0  0  0  0  0  0  0  0
    5.7120    0.4460   17.4580 N   0  0  0  0  0  0  0  0  0  0  0  0
    4.5190    0.9480   17.6570 C   0  0  0  0  0  0  0  0  0  0  0  0
    3.8700    0.9760   18.9200 C   0  0  0  0  0  0  0  0  0  0  0  0
    2.5910    1.5690   19.0840 C   0  0  0  0  0  0  0  0  0  0  0  0
    1.9990    1.6110   20.3170 C   0  0  0  0  0  0  0  0  0  0  0  0
    2.6650    1.0570   21.4340 C   0  0  0  0  0  0  0  0  0  0  0  0
    3.9000    0.4740   21.2960 C   0  0  0  0  0  0  0  0  0  0  0  0
    4.5450    0.4220   20.0320 C   0  0  0  0  0  0  0  0  0  0  0  0
    4.3950    0.0350   22.1560 H   0  0  0  0  0  0  0  0  0  0  0  0
    2.1990    1.1070   22.4120 H   0  0  0  0  0  0  0  0  0  0  0  0
    1.0250    2.0740   20.4460 H   0  0  0  0  0  0  0  0  0  0  0  0
    2.1120    2.0010   18.2080 H   0  0  0  0  0  0  0  0  0  0  0  0
    4.0040    1.3640   16.7900 H   0  0  0  0  0  0  0  0  0  0  0  0
    7.3260   -0.5100   18.3170 H   0  0  0  0  0  0  0  0  0  0  0  0
    7.6800   -0.9220   20.6070 H   0  0  0  0  0  0  0  0  0  0  0  0
    6.7170   -0.0610   21.7750 H   0  0  0  0  0  0  0  0  0  0  0  0
    9.2580   -2.7740   22.5510 C   0  0  0  0  0  0  0  0  0  0  0  0
   10.4520   -2.2640   23.0520 C   0  0  0  0  0  0  0  0  0  0  0  0
   10.4200   -1.2550   24.0030 C   0  0  0  0  0  0  0  0  0  0  0  0
    9.1990   -0.7570   24.4740 C   0  0  0  0  0  0  0  0  0  0  0  0
   11.3370   -0.8160   24.3910 H   0  0  0  0  0  0  0  0  0  0  0  0
   11.4050   -2.6280   22.6730 H   0  0  0  0  0  0  0  0  0  0  0  0
    9.2650   -3.5650   21.8030 H   0  0  0  0  0  0  0  0  0  0  0  0
    6.3800   -1.2800   25.4100 H   0  0  0  0  0  0  0  0  0  0  0  0
    5.8740   -0.7820   23.8170 H   0  0  0  0  0  0  0  0  0  0  0  0
    7.1580    1.3870   24.1300 H   0  0  0  0  0  0  0  0  0  0  0  0
    5.9610    1.1610   25.4160 H   0  0  0  0  0  0  0  0  0  0  0  0
    8.2130    1.8220   26.3360 H   0  0  0  0  0  0  0  0  0  0  0  0
    7.7890    0.2020   26.8880 H   0  0  0  0  0  0  0  0  0  0  0  0
    9.7230    1.0880   24.9210 H   0  0  0  0  0  0  0  0  0  0  0  0
   11.2100    3.1350   22.7870 H   0  0  0  0  0  0  0  0  0  0  0  0
   11.3160    2.4920   24.4260 H   0  0  0  0  0  0  0  0  0  0  0  0
   11.2910    4.9470   24.7140 H   0  0  0  0  0  0  0  0  0  0  0  0
    9.6470    4.3910   25.1210 H   0  0  0  0  0  0  0  0  0  0  0  0
    9.9670    5.1120   23.5360 H   0  0  0  0  0  0  0  0  0  0  0  0
  1  2  1  0  0  0  0
  1 63  1  0  0  0  0
  1 64  1  0  0  0  0
  1 65  1  0  0  0  0
  2  3  1  0  0  0  0
  2 61  1  0  0  0  0
  2 62  1  0  0  0  0
  3  4  2  0  0  0  0
  3  5  1  0  0  0  0
  5  6  1  0  0  0  0
  5 50  1  0  0  0  0
  5 60  1  0  0  0  0
  6  7  1  0  0  0  0
  6 58  1  0  0  0  0
  6 59  1  0  0  0  0
  7  8  1  0  0  0  0
  7 56  1  0  0  0  0
  7 57  1  0  0  0  0
  8  9  1  0  0  0  0
  8 54  1  0  0  0  0
  8 55  1  0  0  0  0
  9 10  2  0  0  0  0
  9 50  1  0  0  0  0
 10 11  1  0  0  0  0
 10 47  1  0  0  0  0
 11 12  1  0  0  0  0
 11 26  1  0  0  0  0
 12 13  1  0  0  0  0
 12 24  1  0  0  0  0
 12 25  1  0  0  0  0
 13 14  2  0  0  0  0
 13 19  1  0  0  0  0
 14 15  1  0  0  0  0
 14 23  1  0  0  0  0
 15 16  2  0  0  0  0
 15 22  1  0  0  0  0
 16 17  1  0  0  0  0
 16 21  1  0  0  0  0
 17 18  1  0  0  0  0
 17 19  2  0  0  0  0
 19 20  1  0  0  0  0
 26 27  2  0  0  0  0
 26 28  1  0  0  0  0
 28 29  1  0  0  0  0
 28 45  1  0  0  0  0
 28 46  1  0  0  0  0
 29 30  2  0  0  0  0
 29 38  1  0  0  0  0
 30 31  1  0  0  0  0
 30 44  1  0  0  0  0
 31 32  2  0  0  0  0
 32 33  1  0  0  0  0
 32 43  1  0  0  0  0
 33 34  2  0  0  0  0
 33 38  1  0  0  0  0
 34 35  1  0  0  0  0
 34 42  1  0  0  0  0
 35 36  2  0  0  0  0
 35 41  1  0  0  0  0
 36 37  1  0  0  0  0
 36 40  1  0  0  0  0
 37 38  2  0  0  0  0
 37 39  1  0  0  0  0
 47 48  2  0  0  0  0
 47 53  1  0  0  0  0
 48 49  1  0  0  0  0
 48 52  1  0  0  0  0
 49 50  2  0  0  0  0
 49 51  1  0  0  0  0
M  CHG  1   5   1
M  END
>  <MODEL>
       1

$$$$
