output/tmp_first_model_18_73.pdb
 OpenBabel07232602473D

 56 61  0  0  1  0  0  0  0  0999 V2000
    7.9230   -3.2200   23.0010 C   0  0  0  0  0  0  0  0  0  0  0  0
    7.9090   -2.0290   22.0480 C   0  0  1  0  0  0  0  0  0  0  0  0
    6.6790   -1.9190   21.1360 C   0  0  0  0  0  0  0  0  0  0  0  0
    6.7260   -0.5310   20.7090 N   0  0  0  0  0  0  0  0  0  0  0  0
    5.9770    0.0290   19.6500 C   0  0  0  0  0  0  0  0  0  0  0  0
    6.3030   -0.2570   18.3490 C   0  0  0  0  0  0  0  0  0  0  0  0
    5.6680    0.2620   17.2720 N   0  0  0  0  0  0  0  0  0  0  0  0
    4.6700    1.0860   17.4830 C   0  0  0  0  0  0  0  0  0  0  0  0
    4.2110    1.4490   18.7840 C   0  0  0  0  0  0  0  0  0  0  0  0
    3.1190    2.3400   18.9800 C   0  0  0  0  0  0  0  0  0  0  0  0
    2.7090    2.6700   20.2430 C   0  0  0  0  0  0  0  0  0  0  0  0
    3.3710    2.1260   21.3660 C   0  0  0  0  0  0  0  0  0  0  0  0
    4.4280    1.2690   21.2090 C   0  0  0  0  0  0  0  0  0  0  0  0
    4.8800    0.9110   19.9060 C   0  0  0  0  0  0  0  0  0  0  0  0
    4.9450    0.8780   22.0820 H   0  0  0  0  0  0  0  0  0  0  0  0
    3.0400    2.3980   22.3650 H   0  0  0  0  0  0  0  0  0  0  0  0
    1.8750    3.3500   20.3930 H   0  0  0  0  0  0  0  0  0  0  0  0
    2.6220    2.7560   18.1090 H   0  0  0  0  0  0  0  0  0  0  0  0
    4.1720    1.5070   16.6060 H   0  0  0  0  0  0  0  0  0  0  0  0
    7.1400   -0.9220   18.1400 H   0  0  0  0  0  0  0  0  0  0  0  0
    7.4750    0.2670   21.5460 C   0  0  0  0  0  0  0  0  0  0  0  0
    7.6220    1.4610   21.4060 O   0  0  0  0  0  0  0  0  0  0  0  0
    7.9910   -0.6270   22.7050 C   0  0  1  0  0  0  0  0  0  0  0  0
    6.9910   -0.4590   23.8920 C   0  0  0  0  0  0  0  0  0  0  0  0
    6.9730    0.9130   24.3780 N   0  0  0  0  0  0  0  0  0  0  0  0
    5.7150    1.5550   24.7560 C   0  0  0  0  0  0  0  0  0  0  0  0
    5.5540    3.0340   24.3270 C   0  0  0  0  0  0  0  0  0  0  0  0
    5.9050    3.4600   25.7250 N   0  3  0  0  0  0  0  0  0  0  0  0
    5.5970    2.0760   26.2120 C   0  0  0  0  0  0  0  0  0  0  0  0
    4.5770    1.9850   26.5870 H   0  0  0  0  0  0  0  0  0  0  0  0
    6.3240    1.7320   26.9480 H   0  0  0  0  0  0  0  0  0  0  0  0
    5.5420    4.3090   26.1620 H   0  0  0  0  0  0  0  0  0  0  0  0
    6.9470    3.4960   25.7020 H   0  0  0  0  0  0  0  0  0  0  0  0
    4.5310    3.3140   24.0770 H   0  0  0  0  0  0  0  0  0  0  0  0
    6.2720    3.4000   23.5940 H   0  0  0  0  0  0  0  0  0  0  0  0
    4.9300    0.8650   24.4430 H   0  0  0  0  0  0  0  0  0  0  0  0
    8.1440    1.5710   24.5440 C   0  0  0  0  0  0  0  0  0  0  0  0
    8.2100    2.7250   24.9830 O   0  0  0  0  0  0  0  0  0  0  0  0
    9.3830    0.8660   24.1160 C   0  0  0  0  0  0  0  0  0  0  0  0
   10.5830    1.3630   24.6010 C   0  0  0  0  0  0  0  0  0  0  0  0
   11.7830    0.8230   24.2120 C   0  0  0  0  0  0  0  0  0  0  0  0
   11.7600   -0.2150   23.2830 C   0  0  0  0  0  0  0  0  0  0  0  0
   13.2800   -0.8680   22.7730 Cl  0  0  0  0  0  0  0  0  0  0  0  0
   10.5760   -0.7230   22.7770 C   0  0  0  0  0  0  0  0  0  0  0  0
    9.3500   -0.1970   23.2050 C   0  0  0  0  0  0  0  0  0  0  0  0
   10.6110   -1.5210   22.0450 H   0  0  0  0  0  0  0  0  0  0  0  0
   12.7210    1.1950   24.6050 H   0  0  0  0  0  0  0  0  0  0  0  0
   10.5530    2.2000   25.2770 H   0  0  0  0  0  0  0  0  0  0  0  0
    5.9880   -0.7180   23.5530 H   0  0  0  0  0  0  0  0  0  0  0  0
    7.2760   -1.1450   24.7020 H   0  0  0  0  0  0  0  0  0  0  0  0
    5.7640   -2.1350   21.7050 H   0  0  0  0  0  0  0  0  0  0  0  0
    6.6870   -2.5860   20.2750 H   0  0  0  0  0  0  0  0  0  0  0  0
    8.7760   -2.0970   21.3830 H   0  0  0  0  0  0  0  0  0  0  0  0
    8.0140   -4.1670   22.4600 H   0  0  0  0  0  0  0  0  0  0  0  0
    7.0050   -3.2590   23.5970 H   0  0  0  0  0  0  0  0  0  0  0  0
    8.7640   -3.1530   23.7010 H   0  0  0  0  0  0  0  0  0  0  0  0
  1  2  1  0  0  0  0
  1 54  1  0  0  0  0
  1 55  1  0  0  0  0
  1 56  1  0  0  0  0
  2  3  1  0  0  0  0
  2 23  1  0  0  0  0
  2 53  1  6  0  0  0
  3  4  1  0  0  0  0
  3 51  1  0  0  0  0
  3 52  1  0  0  0  0
  4  5  1  0  0  0  0
  4 21  1  0  0  0  0
  5  6  2  0  0  0  0
  5 14  1  0  0  0  0
  6  7  1  0  0  0  0
  6 20  1  0  0  0  0
  7  8  2  0  0  0  0
  8  9  1  0  0  0  0
  8 19  1  0  0  0  0
  9 10  2  0  0  0  0
  9 14  1  0  0  0  0
 10 11  1  0  0  0  0
 10 18  1  0  0  0  0
 11 12  2  0  0  0  0
 11 17  1  0  0  0  0
 12 13  1  0  0  0  0
 12 16  1  0  0  0  0
 13 14  2  0  0  0  0
 13 15  1  0  0  0  0
 21 22  2  0  0  0  0
 23 21  1  6  0  0  0
 23 24  1  0  0  0  0
 23 45  1  0  0  0  0
 24 25  1  0  0  0  0
 24 49  1  0  0  0  0
 24 50  1  0  0  0  0
 25 26  1  0  0  0  0
 25 37  1  0  0  0  0
 26 27  1  0  0  0  0
 26 29  1  0  0  0  0
 26 36  1  0  0  0  0
 27 28  1  0  0  0  0
 27 34  1  0  0  0  0
 27 35  1  0  0  0  0
 28 29  1  0  0  0  0
 28 32  1  0  0  0  0
 28 33  1  0  0  0  0
 29 30  1  0  0  0  0
 29 31  1  0  0  0  0
 37 38  2  0  0  0  0
 37 39  1  0  0  0  0
 39 40  2  0  0  0  0
 39 45  1  0  0  0  0
 40 41  1  0  0  0  0
 40 48  1  0  0  0  0
 41 42  2  0  0  0  0
 41 47  1  0  0  0  0
 42 43  1  0  0  0  0
 42 44  1  0  0  0  0
 44 45  2  0  0  0  0
 44 46  1  0  0  0  0
M  CHG  1  28   1
M  END
>  <MODEL>
       1

$$$$
