output/tmp_first_model_15_95.pdb
 OpenBabel07232601353D

 67 71  0  0  1  0  0  0  0  0999 V2000
    7.6150   -8.4380   22.9500 C   0  0  0  0  0  0  0  0  0  0  0  0
    6.6570   -7.3640   22.7250 N   0  0  0  0  0  0  0  0  0  0  0  0
    6.8310   -6.5250   21.6630 C   0  0  0  0  0  0  0  0  0  0  0  0
    7.6810   -6.7210   20.8080 O   0  0  0  0  0  0  0  0  0  0  0  0
    5.9150   -5.2940   21.6090 C   0  0  0  0  0  0  0  0  0  0  0  0
    6.3330   -4.2440   22.5320 N   0  0  0  0  0  0  0  0  0  0  0  0
    7.5670   -3.4620   22.3850 C   0  0  0  0  0  0  0  0  0  0  0  0
    7.2810   -1.9480   22.6370 C   0  0  2  0  0  0  0  0  0  0  0  0
    6.2370   -1.4830   21.5850 C   0  0  0  0  0  0  0  0  0  0  0  0
    5.1190   -1.9200   21.4140 O   0  0  0  0  0  0  0  0  0  0  0  0
    6.8000   -0.4790   20.8200 N   0  0  0  0  0  0  0  0  0  0  0  0
    6.0930    0.0900   19.7460 C   0  0  0  0  0  0  0  0  0  0  0  0
    6.4530   -0.1810   18.4510 C   0  0  0  0  0  0  0  0  0  0  0  0
    5.7870    0.2730   17.3650 N   0  0  0  0  0  0  0  0  0  0  0  0
    4.7430    1.0360   17.5750 C   0  0  0  0  0  0  0  0  0  0  0  0
    4.2830    1.4180   18.8670 C   0  0  0  0  0  0  0  0  0  0  0  0
    3.1560    2.2630   19.0370 C   0  0  0  0  0  0  0  0  0  0  0  0
    2.7630    2.6450   20.2900 C   0  0  0  0  0  0  0  0  0  0  0  0
    3.4680    2.1980   21.4290 C   0  0  0  0  0  0  0  0  0  0  0  0
    4.5550    1.3710   21.2930 C   0  0  0  0  0  0  0  0  0  0  0  0
    4.9790    0.9490   19.9990 C   0  0  0  0  0  0  0  0  0  0  0  0
    5.0980    1.0270   22.1680 H   0  0  0  0  0  0  0  0  0  0  0  0
    3.1470    2.5150   22.4170 H   0  0  0  0  0  0  0  0  0  0  0  0
    1.9110    3.3070   20.4150 H   0  0  0  0  0  0  0  0  0  0  0  0
    2.6390    2.6160   18.1500 H   0  0  0  0  0  0  0  0  0  0  0  0
    4.2040    1.3950   16.6980 H   0  0  0  0  0  0  0  0  0  0  0  0
    7.3090   -0.8230   18.2460 H   0  0  0  0  0  0  0  0  0  0  0  0
    8.2380   -0.4430   20.9300 C   0  0  0  0  0  0  0  0  0  0  0  0
    8.4740   -0.9670   22.3490 C   0  0  2  0  0  0  0  0  0  0  0  0
    9.9290   -1.4180   22.4770 C   0  0  0  0  0  0  0  0  0  0  0  0
   10.4800   -1.5180   24.1750 S   0  0  0  0  0  0  0  0  0  0  0  0
   10.4000   -0.1840   24.7530 O   0  0  0  0  0  0  0  0  0  0  0  0
    9.8180   -2.6670   24.7730 O   0  0  0  0  0  0  0  0  0  0  0  0
   12.0970   -1.9040   24.0730 N   0  0  0  0  0  0  0  0  0  0  0  0
   13.0360   -0.8680   23.6580 C   0  0  0  0  0  0  0  0  0  0  0  0
   14.0460   -1.1800   23.9410 H   0  0  0  0  0  0  0  0  0  0  0  0
   12.8060    0.0570   24.1820 H   0  0  0  0  0  0  0  0  0  0  0  0
   13.0320   -0.6920   22.5720 H   0  0  0  0  0  0  0  0  0  0  0  0
   12.3750   -3.2140   23.5110 C   0  0  0  0  0  0  0  0  0  0  0  0
   11.6800   -3.9480   23.9260 H   0  0  0  0  0  0  0  0  0  0  0  0
   12.3040   -3.2220   22.4160 H   0  0  0  0  0  0  0  0  0  0  0  0
   13.3980   -3.4820   23.7850 H   0  0  0  0  0  0  0  0  0  0  0  0
   10.0870   -2.3920   22.0020 H   0  0  0  0  0  0  0  0  0  0  0  0
   10.5790   -0.6840   21.9880 H   0  0  0  0  0  0  0  0  0  0  0  0
    8.3340   -0.1110   23.0130 H   0  0  0  0  0  0  0  0  0  0  0  0
    8.6060    0.5780   20.8040 H   0  0  0  0  0  0  0  0  0  0  0  0
    8.7250   -1.0760   20.1720 H   0  0  0  0  0  0  0  0  0  0  0  0
    6.7220   -1.8910   24.0650 C   0  0  0  0  0  0  0  0  0  0  0  0
    6.9140   -0.8170   24.9450 C   0  0  0  0  0  0  0  0  0  0  0  0
    6.5350   -0.9420   26.2690 C   0  0  0  0  0  0  0  0  0  0  0  0
    6.7590    0.0970   27.0910 F   0  0  0  0  0  0  0  0  0  0  0  0
    5.9530   -2.0870   26.7940 C   0  0  0  0  0  0  0  0  0  0  0  0
    5.6550   -3.1050   25.9120 C   0  0  0  0  0  0  0  0  0  0  0  0
    6.0040   -2.9980   24.5690 C   0  0  0  0  0  0  0  0  0  0  0  0
    5.6290   -4.1490   23.6920 C   0  0  0  0  0  0  0  0  0  0  0  0
    4.7650   -4.9650   24.0010 O   0  0  0  0  0  0  0  0  0  0  0  0
    5.1760   -4.0170   26.2560 H   0  0  0  0  0  0  0  0  0  0  0  0
    5.7710   -2.1510   27.8600 H   0  0  0  0  0  0  0  0  0  0  0  0
    7.3850    0.1160   24.6530 H   0  0  0  0  0  0  0  0  0  0  0  0
    8.3090   -3.7750   23.1360 H   0  0  0  0  0  0  0  0  0  0  0  0
    7.9880   -3.6380   21.3990 H   0  0  0  0  0  0  0  0  0  0  0  0
    5.8760   -4.9240   20.5830 H   0  0  0  0  0  0  0  0  0  0  0  0
    4.8940   -5.5660   21.8910 H   0  0  0  0  0  0  0  0  0  0  0  0
    5.9480   -7.1750   23.4230 H   0  0  0  0  0  0  0  0  0  0  0  0
    8.5990   -8.0480   23.2350 H   0  0  0  0  0  0  0  0  0  0  0  0
    7.7350   -9.0630   22.0660 H   0  0  0  0  0  0  0  0  0  0  0  0
    7.2860   -9.1090   23.7390 H   0  0  0  0  0  0  0  0  0  0  0  0
  1  2  1  0  0  0  0
  1 65  1  0  0  0  0
  1 66  1  0  0  0  0
  1 67  1  0  0  0  0
  2  3  1  0  0  0  0
  2 64  1  0  0  0  0
  3  4  2  0  0  0  0
  3  5  1  0  0  0  0
  5  6  1  0  0  0  0
  5 62  1  0  0  0  0
  5 63  1  0  0  0  0
  6  7  1  0  0  0  0
  6 55  1  0  0  0  0
  7  8  1  0  0  0  0
  7 60  1  0  0  0  0
  7 61  1  0  0  0  0
  8  9  1  6  0  0  0
  8 29  1  0  0  0  0
  8 48  1  0  0  0  0
  9 10  2  0  0  0  0
  9 11  1  0  0  0  0
 11 12  1  0  0  0  0
 11 28  1  0  0  0  0
 12 13  2  0  0  0  0
 12 21  1  0  0  0  0
 13 14  1  0  0  0  0
 13 27  1  0  0  0  0
 14 15  2  0  0  0  0
 15 16  1  0  0  0  0
 15 26  1  0  0  0  0
 16 17  2  0  0  0  0
 16 21  1  0  0  0  0
 17 18  1  0  0  0  0
 17 25  1  0  0  0  0
 18 19  2  0  0  0  0
 18 24  1  0  0  0  0
 19 20  1  0  0  0  0
 19 23  1  0  0  0  0
 20 21  2  0  0  0  0
 20 22  1  0  0  0  0
 28 29  1  0  0  0  0
 28 46  1  0  0  0  0
 28 47  1  0  0  0  0
 29 30  1  0  0  0  0
 29 45  1  1  0  0  0
 30 31  1  0  0  0  0
 30 43  1  0  0  0  0
 30 44  1  0  0  0  0
 31 32  2  0  0  0  0
 31 33  2  0  0  0  0
 31 34  1  0  0  0  0
 34 35  1  0  0  0  0
 34 39  1  0  0  0  0
 35 36  1  0  0  0  0
 35 37  1  0  0  0  0
 35 38  1  0  0  0  0
 39 40  1  0  0  0  0
 39 41  1  0  0  0  0
 39 42  1  0  0  0  0
 48 49  2  0  0  0  0
 48 54  1  0  0  0  0
 49 50  1  0  0  0  0
 49 59  1  0  0  0  0
 50 51  1  0  0  0  0
 50 52  2  0  0  0  0
 52 53  1  0  0  0  0
 52 58  1  0  0  0  0
 53 54  2  0  0  0  0
 53 57  1  0  0  0  0
 54 55  1  0  0  0  0
 55 56  2  0  0  0  0
M  END
>  <MODEL>
       1

$$$$
