output/tmp_first_model_6_11.pdb
 OpenBabel07222621163D

 54 57  0  0  1  0  0  0  0  0999 V2000
    5.1120    1.8090   25.1070 C   0  0  0  0  0  0  0  0  0  0  0  0
    6.2270    1.6550   24.2700 O   0  0  0  0  0  0  0  0  0  0  0  0
    6.4990    2.7150   23.4620 C   0  0  0  0  0  0  0  0  0  0  0  0
    5.6720    3.8380   23.3820 C   0  0  0  0  0  0  0  0  0  0  0  0
    6.0550    4.9370   22.6240 C   0  0  0  0  0  0  0  0  0  0  0  0
    7.2390    4.8980   21.9060 C   0  0  0  0  0  0  0  0  0  0  0  0
    8.0440    3.7600   21.9750 C   0  0  0  0  0  0  0  0  0  0  0  0
    7.6880    2.6500   22.7310 C   0  0  0  0  0  0  0  0  0  0  0  0
    8.5500    1.4020   22.8610 C   0  0  2  0  0  0  0  0  0  0  0  0
   10.0260    1.6260   22.5280 C   0  0  0  0  0  0  0  0  0  0  0  0
   10.8430    0.4170   22.9970 C   0  0  2  0  0  0  0  0  0  0  0  0
   12.3300    0.5650   22.6750 C   0  0  0  0  0  0  0  0  0  0  0  0
   12.7100    1.5400   22.9900 H   0  0  0  0  0  0  0  0  0  0  0  0
   12.9240   -0.1970   23.1850 H   0  0  0  0  0  0  0  0  0  0  0  0
   12.5300    0.4740   21.6020 H   0  0  0  0  0  0  0  0  0  0  0  0
   10.2590   -0.9040   22.4530 C   0  0  0  0  0  0  0  0  0  0  0  0
    8.7380   -1.0060   22.6740 C   0  0  0  0  0  0  0  0  0  0  0  0
    8.0370    0.1890   22.2000 N   0  0  0  0  0  0  0  0  0  0  0  0
    7.6980    0.2480   20.8550 C   0  0  0  0  0  0  0  0  0  0  0  0
    8.0900    1.1200   20.0990 O   0  0  0  0  0  0  0  0  0  0  0  0
    6.7340   -0.8480   20.3830 C   0  0  0  0  0  0  0  0  0  0  0  0
    5.8620   -0.2490   19.3230 C   0  0  0  0  0  0  0  0  0  0  0  0
    6.1500   -0.4280   17.9960 C   0  0  0  0  0  0  0  0  0  0  0  0
    5.5170    0.2030   16.9720 N   0  0  0  0  0  0  0  0  0  0  0  0
    4.5750    1.0580   17.2990 C   0  0  0  0  0  0  0  0  0  0  0  0
    4.1780    1.3480   18.6340 C   0  0  0  0  0  0  0  0  0  0  0  0
    3.1460    2.2700   18.9430 C   0  0  0  0  0  0  0  0  0  0  0  0
    2.8680    2.5960   20.2400 C   0  0  0  0  0  0  0  0  0  0  0  0
    3.6090    2.0140   21.2920 C   0  0  0  0  0  0  0  0  0  0  0  0
    4.5910    1.0940   21.0280 C   0  0  0  0  0  0  0  0  0  0  0  0
    4.8790    0.7180   19.6860 C   0  0  0  0  0  0  0  0  0  0  0  0
    5.1660    0.6670   21.8450 H   0  0  0  0  0  0  0  0  0  0  0  0
    3.4100    2.3180   22.3160 H   0  0  0  0  0  0  0  0  0  0  0  0
    2.0800    3.3080   20.4660 H   0  0  0  0  0  0  0  0  0  0  0  0
    2.6040    2.7290   18.1220 H   0  0  0  0  0  0  0  0  0  0  0  0
    4.0820    1.5830   16.4800 H   0  0  0  0  0  0  0  0  0  0  0  0
    6.9520   -1.1100   17.7010 H   0  0  0  0  0  0  0  0  0  0  0  0
    6.1530   -1.2160   21.2390 H   0  0  0  0  0  0  0  0  0  0  0  0
    7.3160   -1.6930   19.9850 H   0  0  0  0  0  0  0  0  0  0  0  0
    8.3210   -1.8830   22.1690 H   0  0  0  0  0  0  0  0  0  0  0  0
    8.5270   -1.1140   23.7420 H   0  0  0  0  0  0  0  0  0  0  0  0
   10.4550   -0.9840   21.3740 H   0  0  0  0  0  0  0  0  0  0  0  0
   10.7570   -1.7510   22.9480 H   0  0  0  0  0  0  0  0  0  0  0  0
   10.7230    0.4000   24.0950 H   0  0  0  0  0  0  0  0  0  0  0  0
   10.3800    2.5390   23.0270 H   0  0  0  0  0  0  0  0  0  0  0  0
   10.1020    1.8110   21.4620 H   0  0  0  0  0  0  0  0  0  0  0  0
    8.5120    1.0980   23.9090 H   0  0  0  0  0  0  0  0  0  0  0  0
    8.9930    3.7360   21.4450 H   0  0  0  0  0  0  0  0  0  0  0  0
    7.5540    5.7600   21.3260 H   0  0  0  0  0  0  0  0  0  0  0  0
    5.4250    5.8260   22.6140 H   0  0  0  0  0  0  0  0  0  0  0  0
    4.7490    3.8840   23.9430 H   0  0  0  0  0  0  0  0  0  0  0  0
    5.1940    2.7260   25.7030 H   0  0  0  0  0  0  0  0  0  0  0  0
    5.0950    0.9470   25.7680 H   0  0  0  0  0  0  0  0  0  0  0  0
    4.1890    1.8460   24.5170 H   0  0  0  0  0  0  0  0  0  0  0  0
  1  2  1  0  0  0  0
  1 52  1  0  0  0  0
  1 53  1  0  0  0  0
  1 54  1  0  0  0  0
  2  3  1  0  0  0  0
  3  4  2  0  0  0  0
  3  8  1  0  0  0  0
  4  5  1  0  0  0  0
  4 51  1  0  0  0  0
  5  6  2  0  0  0  0
  5 50  1  0  0  0  0
  6  7  1  0  0  0  0
  6 49  1  0  0  0  0
  7  8  2  0  0  0  0
  7 48  1  0  0  0  0
  8  9  1  0  0  0  0
  9 10  1  0  0  0  0
  9 18  1  0  0  0  0
  9 47  1  1  0  0  0
 10 11  1  0  0  0  0
 10 45  1  0  0  0  0
 10 46  1  0  0  0  0
 11 12  1  0  0  0  0
 11 16  1  0  0  0  0
 11 44  1  1  0  0  0
 12 13  1  0  0  0  0
 12 14  1  0  0  0  0
 12 15  1  0  0  0  0
 16 17  1  0  0  0  0
 16 42  1  0  0  0  0
 16 43  1  0  0  0  0
 17 18  1  0  0  0  0
 17 40  1  0  0  0  0
 17 41  1  0  0  0  0
 18 19  1  0  0  0  0
 19 20  2  0  0  0  0
 19 21  1  0  0  0  0
 21 22  1  0  0  0  0
 21 38  1  0  0  0  0
 21 39  1  0  0  0  0
 22 23  2  0  0  0  0
 22 31  1  0  0  0  0
 23 24  1  0  0  0  0
 23 37  1  0  0  0  0
 24 25  2  0  0  0  0
 25 26  1  0  0  0  0
 25 36  1  0  0  0  0
 26 27  2  0  0  0  0
 26 31  1  0  0  0  0
 27 28  1  0  0  0  0
 27 35  1  0  0  0  0
 28 29  2  0  0  0  0
 28 34  1  0  0  0  0
 29 30  1  0  0  0  0
 29 33  1  0  0  0  0
 30 31  2  0  0  0  0
 30 32  1  0  0  0  0
M  END
>  <MODEL>
       1

$$$$
