output/tmp_first_model_9_24.pdb
 OpenBabel07222623023D

 70 75  0  0  1  0  0  0  0  0999 V2000
    6.8940   -8.6000   23.5260 C   0  0  0  0  0  0  0  0  0  0  0  0
    6.9240   -7.1330   23.3280 N   0  3  0  0  0  0  0  0  0  0  0  0
    6.6010   -6.6990   21.9350 C   0  0  0  0  0  0  0  0  0  0  0  0
    5.4460   -5.6870   21.8810 C   0  0  0  0  0  0  0  0  0  0  0  0
    5.7570   -4.4460   22.5890 N   0  0  0  0  0  0  0  0  0  0  0  0
    6.7560   -3.6070   21.9420 C   0  0  0  0  0  0  0  0  0  0  0  0
    6.8210   -2.1480   22.4870 C   0  0  2  0  0  0  0  0  0  0  0  0
    5.8780   -1.3300   21.5990 C   0  0  0  0  0  0  0  0  0  0  0  0
    4.6670   -1.4270   21.5690 O   0  0  0  0  0  0  0  0  0  0  0  0
    6.6260   -0.5410   20.7370 N   0  0  0  0  0  0  0  0  0  0  0  0
    5.9980    0.0510   19.6220 C   0  0  0  0  0  0  0  0  0  0  0  0
    6.3680   -0.2820   18.3390 C   0  0  0  0  0  0  0  0  0  0  0  0
    5.7710    0.1890   17.2170 N   0  0  0  0  0  0  0  0  0  0  0  0
    4.7780    1.0320   17.3780 C   0  0  0  0  0  0  0  0  0  0  0  0
    4.3040    1.4710   18.6450 C   0  0  0  0  0  0  0  0  0  0  0  0
    3.2110    2.3710   18.7440 C   0  0  0  0  0  0  0  0  0  0  0  0
    2.7340    2.7550   19.9670 C   0  0  0  0  0  0  0  0  0  0  0  0
    3.3380    2.2590   21.1420 C   0  0  0  0  0  0  0  0  0  0  0  0
    4.4150    1.4110   21.0730 C   0  0  0  0  0  0  0  0  0  0  0  0
    4.9130    0.9710   19.8110 C   0  0  0  0  0  0  0  0  0  0  0  0
    4.8620    1.0480   21.9890 H   0  0  0  0  0  0  0  0  0  0  0  0
    2.9420    2.5400   22.1140 H   0  0  0  0  0  0  0  0  0  0  0  0
    1.8950    3.4410   20.0440 H   0  0  0  0  0  0  0  0  0  0  0  0
    2.7830    2.7650   17.8270 H   0  0  0  0  0  0  0  0  0  0  0  0
    4.2960    1.4080   16.4760 H   0  0  0  0  0  0  0  0  0  0  0  0
    7.1660   -1.0070   18.1800 H   0  0  0  0  0  0  0  0  0  0  0  0
    8.0680   -0.7860   20.8380 C   0  0  0  0  0  0  0  0  0  0  0  0
    8.1890   -1.4870   22.1980 C   0  0  2  0  0  0  0  0  0  0  0  0
    9.3790   -2.4180   22.4020 C   0  0  0  0  0  0  0  0  0  0  0  0
   10.5960   -1.7330   22.2920 O   0  0  0  0  0  0  0  0  0  0  0  0
   11.1090   -1.2440   23.5150 C   0  0  0  0  0  0  0  0  0  0  0  0
   12.0700   -0.1680   23.1010 C   0  0  0  0  0  0  0  0  0  0  0  0
   11.4140    1.0430   22.4200 C   0  0  0  0  0  0  0  0  0  0  0  0
   12.1630    1.9620   23.2230 O   0  0  0  0  0  0  0  0  0  0  0  0
   12.5510    0.8870   24.0870 C   0  0  0  0  0  0  0  0  0  0  0  0
   11.9650    0.8780   25.0120 H   0  0  0  0  0  0  0  0  0  0  0  0
   13.6150    0.8860   24.3120 H   0  0  0  0  0  0  0  0  0  0  0  0
   11.6180    1.1950   21.3700 H   0  0  0  0  0  0  0  0  0  0  0  0
   10.3330    1.1190   22.6140 H   0  0  0  0  0  0  0  0  0  0  0  0
   12.8780   -0.6380   22.5290 H   0  0  0  0  0  0  0  0  0  0  0  0
   11.6130   -2.0400   24.0910 H   0  0  0  0  0  0  0  0  0  0  0  0
   10.3040   -0.8290   24.1490 H   0  0  0  0  0  0  0  0  0  0  0  0
    9.2860   -2.9180   23.3850 H   0  0  0  0  0  0  0  0  0  0  0  0
    9.4040   -3.1970   21.6340 H   0  0  0  0  0  0  0  0  0  0  0  0
    8.3010   -0.6800   22.9250 H   0  0  0  0  0  0  0  0  0  0  0  0
    8.6160    0.1610   20.8240 H   0  0  0  0  0  0  0  0  0  0  0  0
    8.4480   -1.4090   20.0180 H   0  0  0  0  0  0  0  0  0  0  0  0
    6.4820   -2.0780   23.9640 C   0  0  0  0  0  0  0  0  0  0  0  0
    6.7180   -0.9020   24.7040 C   0  0  0  0  0  0  0  0  0  0  0  0
    6.5610   -0.8910   26.0760 C   0  0  0  0  0  0  0  0  0  0  0  0
    7.0030    0.5350   26.9780 Cl  0  0  0  0  0  0  0  0  0  0  0  0
    6.0910   -2.0100   26.7590 C   0  0  0  0  0  0  0  0  0  0  0  0
    5.7960   -3.1470   26.0330 C   0  0  0  0  0  0  0  0  0  0  0  0
    5.9650   -3.1840   24.6500 C   0  0  0  0  0  0  0  0  0  0  0  0
    5.6050   -4.4430   23.9390 C   0  0  0  0  0  0  0  0  0  0  0  0
    5.2220   -5.4540   24.5480 O   0  0  0  0  0  0  0  0  0  0  0  0
    5.4130   -4.0340   26.5260 H   0  0  0  0  0  0  0  0  0  0  0  0
    5.9670   -1.9690   27.8360 H   0  0  0  0  0  0  0  0  0  0  0  0
    7.0410    0.0130   24.2190 H   0  0  0  0  0  0  0  0  0  0  0  0
    7.7420   -4.0770   22.0240 H   0  0  0  0  0  0  0  0  0  0  0  0
    6.5040   -3.5750   20.8780 H   0  0  0  0  0  0  0  0  0  0  0  0
    5.2150   -5.4310   20.8420 H   0  0  0  0  0  0  0  0  0  0  0  0
    4.5530   -6.1140   22.3460 H   0  0  0  0  0  0  0  0  0  0  0  0
    7.4910   -6.2480   21.4870 H   0  0  0  0  0  0  0  0  0  0  0  0
    6.3450   -7.5750   21.3410 H   0  0  0  0  0  0  0  0  0  0  0  0
    6.2330   -6.6910   23.9660 H   0  0  0  0  0  0  0  0  0  0  0  0
    7.8720   -6.8060   23.5960 H   0  0  0  0  0  0  0  0  0  0  0  0
    5.8690   -8.9630   23.6480 H   0  0  0  0  0  0  0  0  0  0  0  0
    7.3380   -9.1100   22.6670 H   0  0  0  0  0  0  0  0  0  0  0  0
    7.4680   -8.8670   24.4140 H   0  0  0  0  0  0  0  0  0  0  0  0
  1  2  1  0  0  0  0
  1 68  1  0  0  0  0
  1 69  1  0  0  0  0
  1 70  1  0  0  0  0
  2  3  1  0  0  0  0
  2 66  1  0  0  0  0
  2 67  1  0  0  0  0
  3  4  1  0  0  0  0
  3 64  1  0  0  0  0
  3 65  1  0  0  0  0
  4  5  1  0  0  0  0
  4 62  1  0  0  0  0
  4 63  1  0  0  0  0
  5  6  1  0  0  0  0
  5 55  1  0  0  0  0
  6  7  1  0  0  0  0
  6 60  1  0  0  0  0
  6 61  1  0  0  0  0
  7  8  1  6  0  0  0
  7 28  1  0  0  0  0
  7 48  1  0  0  0  0
  8  9  2  0  0  0  0
  8 10  1  0  0  0  0
 10 11  1  0  0  0  0
 10 27  1  0  0  0  0
 11 12  2  0  0  0  0
 11 20  1  0  0  0  0
 12 13  1  0  0  0  0
 12 26  1  0  0  0  0
 13 14  2  0  0  0  0
 14 15  1  0  0  0  0
 14 25  1  0  0  0  0
 15 16  2  0  0  0  0
 15 20  1  0  0  0  0
 16 17  1  0  0  0  0
 16 24  1  0  0  0  0
 17 18  2  0  0  0  0
 17 23  1  0  0  0  0
 18 19  1  0  0  0  0
 18 22  1  0  0  0  0
 19 20  2  0  0  0  0
 19 21  1  0  0  0  0
 27 28  1  0  0  0  0
 27 46  1  0  0  0  0
 27 47  1  0  0  0  0
 28 29  1  0  0  0  0
 28 45  1  1  0  0  0
 29 30  1  0  0  0  0
 29 43  1  0  0  0  0
 29 44  1  0  0  0  0
 30 31  1  0  0  0  0
 31 32  1  0  0  0  0
 31 41  1  0  0  0  0
 31 42  1  0  0  0  0
 32 33  1  0  0  0  0
 32 35  1  0  0  0  0
 32 40  1  0  0  0  0
 33 34  1  0  0  0  0
 33 38  1  0  0  0  0
 33 39  1  0  0  0  0
 34 35  1  0  0  0  0
 35 36  1  0  0  0  0
 35 37  1  0  0  0  0
 48 49  2  0  0  0  0
 48 54  1  0  0  0  0
 49 50  1  0  0  0  0
 49 59  1  0  0  0  0
 50 51  1  0  0  0  0
 50 52  2  0  0  0  0
 52 53  1  0  0  0  0
 52 58  1  0  0  0  0
 53 54  2  0  0  0  0
 53 57  1  0  0  0  0
 54 55  1  0  0  0  0
 55 56  2  0  0  0  0
M  CHG  1   2   1
M  END
>  <MODEL>
       1

$$$$
