output/tmp_first_model_2_0.pdb
 OpenBabel07222619223D

 63 69  0  0  1  0  0  0  0  0999 V2000
    8.8970    3.0980   25.0440 O   0  0  0  0  0  0  0  0  0  0  0  0
    8.7540    2.0340   24.4560 C   0  0  0  0  0  0  0  0  0  0  0  0
    9.8620    1.3720   23.7100 C   0  0  0  0  0  0  0  0  0  0  0  0
   11.1500    1.8570   23.9270 C   0  0  0  0  0  0  0  0  0  0  0  0
   12.2190    1.3160   23.2490 C   0  0  0  0  0  0  0  0  0  0  0  0
   11.9450    0.3490   22.2830 C   0  0  0  0  0  0  0  0  0  0  0  0
   13.2480   -0.1640   21.2850 Cl  0  0  0  0  0  0  0  0  0  0  0  0
   10.6780   -0.1610   22.0570 C   0  0  0  0  0  0  0  0  0  0  0  0
    9.6050    0.3210   22.8100 C   0  0  0  0  0  0  0  0  0  0  0  0
    8.1810   -0.1520   22.5600 C   0  0  1  0  0  0  0  0  0  0  0  0
    7.4510    0.0050   23.9240 C   0  0  0  0  0  0  0  0  0  0  0  0
    7.5670    1.3580   24.4410 N   0  0  0  0  0  0  0  0  0  0  0  0
    6.4430    1.9840   25.0920 C   0  0  0  0  0  0  0  0  0  0  0  0
    6.1840    1.4810   26.4790 C   0  0  0  0  0  0  0  0  0  0  0  0
    6.4770    2.0430   27.5990 N   0  0  0  0  0  0  0  0  0  0  0  0
    5.9430    1.2360   28.6000 N   0  0  0  0  0  0  0  0  0  0  0  0
    5.3760    0.2590   27.9950 C   0  0  0  0  0  0  0  0  0  0  0  0
    5.4900    0.3250   26.6460 O   0  0  0  0  0  0  0  0  0  0  0  0
    4.8010   -0.5580   28.4120 H   0  0  0  0  0  0  0  0  0  0  0  0
    6.6680    3.0510   25.1650 H   0  0  0  0  0  0  0  0  0  0  0  0
    5.5390    1.8390   24.4900 H   0  0  0  0  0  0  0  0  0  0  0  0
    6.3870   -0.2380   23.8290 H   0  0  0  0  0  0  0  0  0  0  0  0
    7.9040   -0.6880   24.6500 H   0  0  0  0  0  0  0  0  0  0  0  0
    7.5210    0.7420   21.4720 C   0  0  0  0  0  0  0  0  0  0  0  0
    7.5950    1.9480   21.3950 O   0  0  0  0  0  0  0  0  0  0  0  0
    6.8370   -0.0760   20.5900 N   0  0  0  0  0  0  0  0  0  0  0  0
    6.0090    0.3970   19.5380 C   0  0  0  0  0  0  0  0  0  0  0  0
    6.2580    0.0230   18.2380 C   0  0  0  0  0  0  0  0  0  0  0  0
    5.5340    0.4380   17.1710 N   0  0  0  0  0  0  0  0  0  0  0  0
    4.5140    1.2270   17.3980 C   0  0  0  0  0  0  0  0  0  0  0  0
    4.1030    1.6440   18.6950 C   0  0  0  0  0  0  0  0  0  0  0  0
    2.9680    2.4770   18.8980 C   0  0  0  0  0  0  0  0  0  0  0  0
    2.5560    2.7810   20.1660 C   0  0  0  0  0  0  0  0  0  0  0  0
    3.2460    2.2610   21.2850 C   0  0  0  0  0  0  0  0  0  0  0  0
    4.3570    1.4780   21.1110 C   0  0  0  0  0  0  0  0  0  0  0  0
    4.8400    1.1820   19.8060 C   0  0  0  0  0  0  0  0  0  0  0  0
    4.8830    1.0740   21.9720 H   0  0  0  0  0  0  0  0  0  0  0  0
    2.8890    2.4820   22.2860 H   0  0  0  0  0  0  0  0  0  0  0  0
    1.6900    3.4190   20.3220 H   0  0  0  0  0  0  0  0  0  0  0  0
    2.4420    2.8590   18.0270 H   0  0  0  0  0  0  0  0  0  0  0  0
    3.9430    1.5500   16.5310 H   0  0  0  0  0  0  0  0  0  0  0  0
    7.0960   -0.6370   18.0160 H   0  0  0  0  0  0  0  0  0  0  0  0
    6.7800   -1.4570   21.0320 C   0  0  0  0  0  0  0  0  0  0  0  0
    7.9990   -1.5790   21.9570 C   0  0  2  0  0  0  0  0  0  0  0  0
    7.9000   -2.7140   22.9800 C   0  0  0  0  0  0  0  0  0  0  0  0
    7.6150   -3.9880   22.3430 N   0  0  0  0  0  0  0  0  0  0  0  0
    7.8630   -5.1480   22.9720 C   0  0  0  0  0  0  0  0  0  0  0  0
    8.0180   -5.0950   24.3060 N   0  0  0  0  0  0  0  0  0  0  0  0
    8.3370   -6.2580   24.8520 C   0  0  0  0  0  0  0  0  0  0  0  0
    8.5940   -7.3880   24.1970 N   0  0  0  0  0  0  0  0  0  0  0  0
    8.3640   -7.3180   22.8880 C   0  0  0  0  0  0  0  0  0  0  0  0
    7.9660   -6.2570   22.2060 N   0  0  0  0  0  0  0  0  0  0  0  0
    8.5350   -8.2350   22.3300 H   0  0  0  0  0  0  0  0  0  0  0  0
    8.4050   -6.3010   25.9390 H   0  0  0  0  0  0  0  0  0  0  0  0
    7.5580   -4.0470   21.3380 H   0  0  0  0  0  0  0  0  0  0  0  0
    7.1170   -2.5350   23.7290 H   0  0  0  0  0  0  0  0  0  0  0  0
    8.8460   -2.7820   23.5320 H   0  0  0  0  0  0  0  0  0  0  0  0
    8.8630   -1.7880   21.3140 H   0  0  0  0  0  0  0  0  0  0  0  0
    5.8410   -1.6640   21.5750 H   0  0  0  0  0  0  0  0  0  0  0  0
    6.8200   -2.1250   20.1670 H   0  0  0  0  0  0  0  0  0  0  0  0
   10.5500   -0.9070   21.2770 H   0  0  0  0  0  0  0  0  0  0  0  0
   13.2410    1.6370   23.4390 H   0  0  0  0  0  0  0  0  0  0  0  0
   11.2800    2.6930   24.6030 H   0  0  0  0  0  0  0  0  0  0  0  0
  1  2  2  0  0  0  0
  2  3  1  0  0  0  0
  2 12  1  0  0  0  0
  3  4  2  0  0  0  0
  3  9  1  0  0  0  0
  4  5  1  0  0  0  0
  4 63  1  0  0  0  0
  5  6  2  0  0  0  0
  5 62  1  0  0  0  0
  6  7  1  0  0  0  0
  6  8  1  0  0  0  0
  8  9  2  0  0  0  0
  8 61  1  0  0  0  0
 10  9  1  1  0  0  0
 10 11  1  0  0  0  0
 10 24  1  0  0  0  0
 10 44  1  0  0  0  0
 11 12  1  0  0  0  0
 11 22  1  0  0  0  0
 11 23  1  0  0  0  0
 12 13  1  0  0  0  0
 13 14  1  0  0  0  0
 13 20  1  0  0  0  0
 13 21  1  0  0  0  0
 14 15  2  0  0  0  0
 14 18  1  0  0  0  0
 15 16  1  0  0  0  0
 16 17  2  0  0  0  0
 17 18  1  0  0  0  0
 17 19  1  0  0  0  0
 24 25  2  0  0  0  0
 24 26  1  0  0  0  0
 26 27  1  0  0  0  0
 26 43  1  0  0  0  0
 27 28  2  0  0  0  0
 27 36  1  0  0  0  0
 28 29  1  0  0  0  0
 28 42  1  0  0  0  0
 29 30  2  0  0  0  0
 30 31  1  0  0  0  0
 30 41  1  0  0  0  0
 31 32  2  0  0  0  0
 31 36  1  0  0  0  0
 32 33  1  0  0  0  0
 32 40  1  0  0  0  0
 33 34  2  0  0  0  0
 33 39  1  0  0  0  0
 34 35  1  0  0  0  0
 34 38  1  0  0  0  0
 35 36  2  0  0  0  0
 35 37  1  0  0  0  0
 43 44  1  0  0  0  0
 43 59  1  0  0  0  0
 43 60  1  0  0  0  0
 44 45  1  0  0  0  0
 44 58  1  6  0  0  0
 45 46  1  0  0  0  0
 45 56  1  0  0  0  0
 45 57  1  0  0  0  0
 46 47  1  0  0  0  0
 46 55  1  0  0  0  0
 47 48  2  0  0  0  0
 47 52  1  0  0  0  0
 48 49  1  0  0  0  0
 49 50  2  0  0  0  0
 49 54  1  0  0  0  0
 50 51  1  0  0  0  0
 51 52  2  0  0  0  0
 51 53  1  0  0  0  0
M  END
>  <MODEL>
       1

$$$$
