output/tmp_first_model_14_54.pdb
 OpenBabel07232601073D

 66 71  0  0  1  0  0  0  0  0999 V2000
    6.9690    1.9940   28.6220 C   0  0  0  0  0  0  0  0  0  0  0  0
    7.0270    0.7850   27.8290 N   0  0  0  0  0  0  0  0  0  0  0  0
    6.1590    0.6360   26.7970 C   0  0  0  0  0  0  0  0  0  0  0  0
    5.3230    1.4770   26.5050 O   0  0  0  0  0  0  0  0  0  0  0  0
    6.2750   -0.6820   26.0230 C   0  0  0  0  0  0  0  0  0  0  0  0
    7.3130   -0.6500   25.0070 N   0  0  0  0  0  0  0  0  0  0  0  0
    7.0550   -0.0220   23.7200 C   0  0  0  0  0  0  0  0  0  0  0  0
    7.9700   -0.5820   22.5900 C   0  0  2  0  0  0  0  0  0  0  0  0
    7.6770    0.2500   21.3220 C   0  0  0  0  0  0  0  0  0  0  0  0
    8.0520    1.3780   21.0760 O   0  0  0  0  0  0  0  0  0  0  0  0
    6.8550   -0.4890   20.4890 N   0  0  0  0  0  0  0  0  0  0  0  0
    6.0700    0.1030   19.4640 C   0  0  0  0  0  0  0  0  0  0  0  0
    6.2990   -0.2450   18.1590 C   0  0  0  0  0  0  0  0  0  0  0  0
    5.6070    0.2390   17.0990 N   0  0  0  0  0  0  0  0  0  0  0  0
    4.6390    1.0870   17.3490 C   0  0  0  0  0  0  0  0  0  0  0  0
    4.2500    1.4880   18.6590 C   0  0  0  0  0  0  0  0  0  0  0  0
    3.1480    2.3590   18.8780 C   0  0  0  0  0  0  0  0  0  0  0  0
    2.7510    2.6730   20.1470 C   0  0  0  0  0  0  0  0  0  0  0  0
    3.4340    2.1240   21.2560 C   0  0  0  0  0  0  0  0  0  0  0  0
    4.5150    1.2990   21.0710 C   0  0  0  0  0  0  0  0  0  0  0  0
    4.9650    0.9690   19.7610 C   0  0  0  0  0  0  0  0  0  0  0  0
    5.0230    0.8820   21.9350 H   0  0  0  0  0  0  0  0  0  0  0  0
    3.1040    2.3610   22.2630 H   0  0  0  0  0  0  0  0  0  0  0  0
    1.9090    3.3390   20.3130 H   0  0  0  0  0  0  0  0  0  0  0  0
    2.6320    2.7650   18.0120 H   0  0  0  0  0  0  0  0  0  0  0  0
    4.0930    1.4830   16.4920 H   0  0  0  0  0  0  0  0  0  0  0  0
    7.0910   -0.9550   17.9310 H   0  0  0  0  0  0  0  0  0  0  0  0
    6.4650   -1.7550   21.0800 C   0  0  0  0  0  0  0  0  0  0  0  0
    7.5650   -2.0190   22.1070 C   0  0  2  0  0  0  0  0  0  0  0  0
    7.1000   -3.0140   23.1650 C   0  0  0  0  0  0  0  0  0  0  0  0
    8.2090   -3.4750   23.9730 N   0  0  0  0  0  0  0  0  0  0  0  0
    8.0420   -4.1260   25.1580 C   0  0  0  0  0  0  0  0  0  0  0  0
    9.1550   -4.6810   25.8460 C   0  0  0  0  0  0  0  0  0  0  0  0
    9.0240   -5.3430   26.9790 N   0  0  0  0  0  0  0  0  0  0  0  0
    7.7810   -5.4860   27.4630 C   0  0  0  0  0  0  0  0  0  0  0  0
    6.6950   -4.9630   26.7940 C   0  0  0  0  0  0  0  0  0  0  0  0
    6.8140   -4.2720   25.6510 N   0  0  0  0  0  0  0  0  0  0  0  0
    5.6870   -5.1090   27.1740 H   0  0  0  0  0  0  0  0  0  0  0  0
    7.6630   -6.0340   28.3930 H   0  0  0  0  0  0  0  0  0  0  0  0
   10.1620   -4.5900   25.4400 H   0  0  0  0  0  0  0  0  0  0  0  0
    9.1300   -3.1100   23.7830 H   0  0  0  0  0  0  0  0  0  0  0  0
    6.6060   -3.8700   22.6860 H   0  0  0  0  0  0  0  0  0  0  0  0
    6.3500   -2.5580   23.8160 H   0  0  0  0  0  0  0  0  0  0  0  0
    8.4380   -2.4450   21.5910 H   0  0  0  0  0  0  0  0  0  0  0  0
    6.3810   -2.5270   20.3110 H   0  0  0  0  0  0  0  0  0  0  0  0
    5.4890   -1.6690   21.5890 H   0  0  0  0  0  0  0  0  0  0  0  0
    9.3920   -0.4100   23.0820 C   0  0  0  0  0  0  0  0  0  0  0  0
   10.4670   -0.1680   22.2170 C   0  0  0  0  0  0  0  0  0  0  0  0
   11.6870    0.2200   22.7510 C   0  0  0  0  0  0  0  0  0  0  0  0
   13.0340    0.5110   21.6970 Cl  0  0  0  0  0  0  0  0  0  0  0  0
   11.8930    0.3540   24.1220 C   0  0  0  0  0  0  0  0  0  0  0  0
   10.8650   -0.0090   24.9680 C   0  0  0  0  0  0  0  0  0  0  0  0
    9.6420   -0.4090   24.4600 C   0  0  0  0  0  0  0  0  0  0  0  0
    8.5890   -0.7850   25.4410 C   0  0  0  0  0  0  0  0  0  0  0  0
    8.8470   -1.1310   26.5950 O   0  0  0  0  0  0  0  0  0  0  0  0
   10.9510   -0.0190   26.0410 H   0  0  0  0  0  0  0  0  0  0  0  0
   12.8460    0.7210   24.4850 H   0  0  0  0  0  0  0  0  0  0  0  0
   10.3250   -0.2430   21.1420 H   0  0  0  0  0  0  0  0  0  0  0  0
    5.9950   -0.1610   23.4790 H   0  0  0  0  0  0  0  0  0  0  0  0
    7.2630    1.0550   23.7860 H   0  0  0  0  0  0  0  0  0  0  0  0
    6.5090   -1.5110   26.6950 H   0  0  0  0  0  0  0  0  0  0  0  0
    5.3150   -0.8770   25.5410 H   0  0  0  0  0  0  0  0  0  0  0  0
    7.8000    0.1390   27.9240 H   0  0  0  0  0  0  0  0  0  0  0  0
    5.9550    2.1220   29.0110 H   0  0  0  0  0  0  0  0  0  0  0  0
    7.6590    1.9060   29.4610 H   0  0  0  0  0  0  0  0  0  0  0  0
    7.2240    2.8860   28.0370 H   0  0  0  0  0  0  0  0  0  0  0  0
  1  2  1  0  0  0  0
  1 64  1  0  0  0  0
  1 65  1  0  0  0  0
  1 66  1  0  0  0  0
  2  3  1  0  0  0  0
  2 63  1  0  0  0  0
  3  4  2  0  0  0  0
  3  5  1  0  0  0  0
  5  6  1  0  0  0  0
  5 61  1  0  0  0  0
  5 62  1  0  0  0  0
  6  7  1  0  0  0  0
  6 54  1  0  0  0  0
  7  8  1  0  0  0  0
  7 59  1  0  0  0  0
  7 60  1  0  0  0  0
  8  9  1  6  0  0  0
  8 29  1  0  0  0  0
  8 47  1  0  0  0  0
  9 10  2  0  0  0  0
  9 11  1  0  0  0  0
 11 12  1  0  0  0  0
 11 28  1  0  0  0  0
 12 13  2  0  0  0  0
 12 21  1  0  0  0  0
 13 14  1  0  0  0  0
 13 27  1  0  0  0  0
 14 15  2  0  0  0  0
 15 16  1  0  0  0  0
 15 26  1  0  0  0  0
 16 17  2  0  0  0  0
 16 21  1  0  0  0  0
 17 18  1  0  0  0  0
 17 25  1  0  0  0  0
 18 19  2  0  0  0  0
 18 24  1  0  0  0  0
 19 20  1  0  0  0  0
 19 23  1  0  0  0  0
 20 21  2  0  0  0  0
 20 22  1  0  0  0  0
 28 29  1  0  0  0  0
 28 45  1  0  0  0  0
 28 46  1  0  0  0  0
 29 30  1  0  0  0  0
 29 44  1  6  0  0  0
 30 31  1  0  0  0  0
 30 42  1  0  0  0  0
 30 43  1  0  0  0  0
 31 32  1  0  0  0  0
 31 41  1  0  0  0  0
 32 33  2  0  0  0  0
 32 37  1  0  0  0  0
 33 34  1  0  0  0  0
 33 40  1  0  0  0  0
 34 35  2  0  0  0  0
 35 36  1  0  0  0  0
 35 39  1  0  0  0  0
 36 37  2  0  0  0  0
 36 38  1  0  0  0  0
 47 48  2  0  0  0  0
 47 53  1  0  0  0  0
 48 49  1  0  0  0  0
 48 58  1  0  0  0  0
 49 50  1  0  0  0  0
 49 51  2  0  0  0  0
 51 52  1  0  0  0  0
 51 57  1  0  0  0  0
 52 53  2  0  0  0  0
 52 56  1  0  0  0  0
 53 54  1  0  0  0  0
 54 55  2  0  0  0  0
M  END
>  <MODEL>
       1

$$$$
