output/tmp_first_model_1_80.pdb
 OpenBabel07222618483D

 59 64  0  0  1  0  0  0  0  0999 V2000
    7.2850   -3.0830   23.4420 C   0  0  0  0  0  0  0  0  0  0  0  0
    7.2700   -2.3170   22.1340 C   0  0  1  0  0  0  0  0  0  0  0  0
    6.0040   -1.5000   21.9070 C   0  0  0  0  0  0  0  0  0  0  0  0
    6.4150   -0.5220   20.9030 N   0  0  0  0  0  0  0  0  0  0  0  0
    5.6560   -0.1320   19.7890 C   0  0  0  0  0  0  0  0  0  0  0  0
    6.1780   -0.1970   18.5170 C   0  0  0  0  0  0  0  0  0  0  0  0
    5.4880    0.1120   17.3940 N   0  0  0  0  0  0  0  0  0  0  0  0
    4.2680    0.5680   17.5520 C   0  0  0  0  0  0  0  0  0  0  0  0
    3.6310    0.7390   18.8110 C   0  0  0  0  0  0  0  0  0  0  0  0
    2.3680    1.3710   18.9420 C   0  0  0  0  0  0  0  0  0  0  0  0
    1.7770    1.4870   20.1670 C   0  0  0  0  0  0  0  0  0  0  0  0
    2.4500    1.0510   21.3290 C   0  0  0  0  0  0  0  0  0  0  0  0
    3.6990    0.4920   21.2380 C   0  0  0  0  0  0  0  0  0  0  0  0
    4.3180    0.3280   19.9700 C   0  0  0  0  0  0  0  0  0  0  0  0
    4.2390    0.2400   22.1420 H   0  0  0  0  0  0  0  0  0  0  0  0
    1.9880    1.1880   22.3030 H   0  0  0  0  0  0  0  0  0  0  0  0
    0.8030    1.9590   20.2600 H   0  0  0  0  0  0  0  0  0  0  0  0
    1.9180    1.8210   18.0650 H   0  0  0  0  0  0  0  0  0  0  0  0
    3.7200    0.8260   16.6480 H   0  0  0  0  0  0  0  0  0  0  0  0
    7.2010   -0.5300   18.3600 H   0  0  0  0  0  0  0  0  0  0  0  0
    7.7700   -0.2690   20.9670 C   0  0  0  0  0  0  0  0  0  0  0  0
    8.3630    0.6000   20.3610 O   0  0  0  0  0  0  0  0  0  0  0  0
    8.4180   -1.2700   21.9050 C   0  0  1  0  0  0  0  0  0  0  0  0
    8.8620   -0.5220   23.1840 C   0  0  0  0  0  0  0  0  0  0  0  0
    9.7670   -1.2680   24.0610 N   0  0  0  0  0  0  0  0  0  0  0  0
    9.6960   -0.9450   25.4780 C   0  0  0  0  0  0  0  0  0  0  0  0
    8.9020   -1.9560   26.2540 C   0  0  0  0  0  0  0  0  0  0  0  0
    9.1510   -3.2960   26.4500 C   0  0  0  0  0  0  0  0  0  0  0  0
    8.1320   -3.7330   27.3190 C   0  0  0  0  0  0  0  0  0  0  0  0
    7.2940   -2.7470   27.6160 N   0  0  0  0  0  0  0  0  0  0  0  0
    7.7710   -1.6780   26.9540 N   0  0  0  0  0  0  0  0  0  0  0  0
    7.0070   -0.4480   26.9400 C   0  0  0  0  0  0  0  0  0  0  0  0
    6.7890   -0.1430   25.9090 H   0  0  0  0  0  0  0  0  0  0  0  0
    7.5420    0.3630   27.4460 H   0  0  0  0  0  0  0  0  0  0  0  0
    6.0680   -0.6460   27.4570 H   0  0  0  0  0  0  0  0  0  0  0  0
    7.9620   -4.7170   27.7430 H   0  0  0  0  0  0  0  0  0  0  0  0
    9.9650   -3.8640   26.0170 H   0  0  0  0  0  0  0  0  0  0  0  0
    9.2660    0.0570   25.5760 H   0  0  0  0  0  0  0  0  0  0  0  0
   10.7190   -0.9070   25.8580 H   0  0  0  0  0  0  0  0  0  0  0  0
   10.7270   -2.1800   23.6670 C   0  0  0  0  0  0  0  0  0  0  0  0
   11.5880   -2.5680   24.4470 O   0  0  0  0  0  0  0  0  0  0  0  0
   10.6940   -2.6720   22.2710 C   0  0  0  0  0  0  0  0  0  0  0  0
   12.0620   -3.0410   21.8120 C   0  0  0  0  0  0  0  0  0  0  0  0
   12.3320   -2.9360   20.5170 C   0  0  0  0  0  0  0  0  0  0  0  0
   12.2970   -3.2430   20.3520 C   0  0  0  0  0  0  0  0  0  0  0  0
   12.0520   -4.1310   19.3740 F   0  0  0  0  0  0  0  0  0  0  0  0
    9.7830   -3.1480   21.4060 C   0  0  0  0  0  0  0  0  0  0  0  0
    9.6460   -1.8310   21.2260 C   0  0  0  0  0  0  0  0  0  0  0  0
   10.2180   -1.2380   20.5010 H   0  0  0  0  0  0  0  0  0  0  0  0
   13.4770   -3.1420   20.4050 H   0  0  0  0  0  0  0  0  0  0  0  0
   12.8010   -3.0240   22.6020 H   0  0  0  0  0  0  0  0  0  0  0  0
    7.9750   -0.2570   23.7700 H   0  0  0  0  0  0  0  0  0  0  0  0
    9.3280    0.4160   22.8590 H   0  0  0  0  0  0  0  0  0  0  0  0
    5.7180   -0.9960   22.8420 H   0  0  0  0  0  0  0  0  0  0  0  0
    5.1580   -2.1010   21.5650 H   0  0  0  0  0  0  0  0  0  0  0  0
    7.3390   -3.0330   21.3060 H   0  0  0  0  0  0  0  0  0  0  0  0
    6.5100   -3.8540   23.4380 H   0  0  0  0  0  0  0  0  0  0  0  0
    7.0900   -2.4150   24.2860 H   0  0  0  0  0  0  0  0  0  0  0  0
    8.2510   -3.5690   23.6010 H   0  0  0  0  0  0  0  0  0  0  0  0
  1  2  1  0  0  0  0
  1 57  1  0  0  0  0
  1 58  1  0  0  0  0
  1 59  1  0  0  0  0
  2  3  1  0  0  0  0
  2 23  1  0  0  0  0
  2 56  1  6  0  0  0
  3  4  1  0  0  0  0
  3 54  1  0  0  0  0
  3 55  1  0  0  0  0
  4  5  1  0  0  0  0
  4 21  1  0  0  0  0
  5  6  2  0  0  0  0
  5 14  1  0  0  0  0
  6  7  1  0  0  0  0
  6 20  1  0  0  0  0
  7  8  2  0  0  0  0
  8  9  1  0  0  0  0
  8 19  1  0  0  0  0
  9 10  2  0  0  0  0
  9 14  1  0  0  0  0
 10 11  1  0  0  0  0
 10 18  1  0  0  0  0
 11 12  2  0  0  0  0
 11 17  1  0  0  0  0
 12 13  1  0  0  0  0
 12 16  1  0  0  0  0
 13 14  2  0  0  0  0
 13 15  1  0  0  0  0
 21 22  2  0  0  0  0
 23 21  1  6  0  0  0
 23 24  1  0  0  0  0
 23 48  1  0  0  0  0
 24 25  1  0  0  0  0
 24 52  1  0  0  0  0
 24 53  1  0  0  0  0
 25 26  1  0  0  0  0
 25 40  1  0  0  0  0
 26 27  1  0  0  0  0
 26 38  1  0  0  0  0
 26 39  1  0  0  0  0
 27 28  2  0  0  0  0
 27 31  1  0  0  0  0
 28 29  1  0  0  0  0
 28 37  1  0  0  0  0
 29 30  2  0  0  0  0
 29 36  1  0  0  0  0
 30 31  1  0  0  0  0
 31 32  1  0  0  0  0
 32 33  1  0  0  0  0
 32 34  1  0  0  0  0
 32 35  1  0  0  0  0
 40 41  2  0  0  0  0
 40 42  1  0  0  0  0
 42 43  2  0  0  0  0
 42 48  1  0  0  0  0
 43 44  1  0  0  0  0
 43 51  1  0  0  0  0
 44 45  2  0  0  0  0
 44 50  1  0  0  0  0
 45 46  1  0  0  0  0
 45 47  1  0  0  0  0
 47 48  2  0  0  0  0
 47 49  1  0  0  0  0
M  END
>  <MODEL>
       1

$$$$
