output/tmp_first_model_7_82.pdb
 OpenBabel07222621533D

 55 60  0  0  1  0  0  0  0  0999 V2000
    7.7890   -3.0360   23.2720 C   0  0  0  0  0  0  0  0  0  0  0  0
    8.0280   -1.9450   22.2400 C   0  0  1  0  0  0  0  0  0  0  0  0
    6.8440   -1.8240   21.2710 C   0  0  0  0  0  0  0  0  0  0  0  0
    6.8550   -0.4330   20.8910 N   0  0  0  0  0  0  0  0  0  0  0  0
    6.0330    0.0460   19.8430 C   0  0  0  0  0  0  0  0  0  0  0  0
    6.4140   -0.1780   18.5470 C   0  0  0  0  0  0  0  0  0  0  0  0
    5.7390    0.2720   17.4660 N   0  0  0  0  0  0  0  0  0  0  0  0
    4.6560    0.9750   17.6790 C   0  0  0  0  0  0  0  0  0  0  0  0
    4.0960    1.1940   18.9660 C   0  0  0  0  0  0  0  0  0  0  0  0
    2.8710    1.8880   19.1250 C   0  0  0  0  0  0  0  0  0  0  0  0
    2.3060    2.0280   20.3650 C   0  0  0  0  0  0  0  0  0  0  0  0
    2.9390    1.4630   21.5020 C   0  0  0  0  0  0  0  0  0  0  0  0
    4.1440    0.8070   21.3690 C   0  0  0  0  0  0  0  0  0  0  0  0
    4.7690    0.6750   20.0930 C   0  0  0  0  0  0  0  0  0  0  0  0
    4.6470    0.4090   22.2450 H   0  0  0  0  0  0  0  0  0  0  0  0
    2.4840    1.5940   22.4820 H   0  0  0  0  0  0  0  0  0  0  0  0
    1.3850    2.5920   20.4800 H   0  0  0  0  0  0  0  0  0  0  0  0
    2.4080    2.3000   18.2330 H   0  0  0  0  0  0  0  0  0  0  0  0
    4.1530    1.3730   16.8010 H   0  0  0  0  0  0  0  0  0  0  0  0
    7.3460   -0.7060   18.3420 H   0  0  0  0  0  0  0  0  0  0  0  0
    7.6490    0.3770   21.6760 C   0  0  0  0  0  0  0  0  0  0  0  0
    7.7660    1.5770   21.5300 O   0  0  0  0  0  0  0  0  0  0  0  0
    8.2750   -0.4920   22.7920 C   0  0  1  0  0  0  0  0  0  0  0  0
    7.4760   -0.1450   24.0730 C   0  0  0  0  0  0  0  0  0  0  0  0
    8.0920   -0.6520   25.2910 N   0  0  0  0  0  0  0  0  0  0  0  0
    7.2630   -1.0350   26.4110 C   0  0  0  0  0  0  0  0  0  0  0  0
    7.1490   -2.5200   26.5420 C   0  0  0  0  0  0  0  0  0  0  0  0
    6.0830   -3.2430   26.4590 N   0  0  0  0  0  0  0  0  0  0  0  0
    6.5210   -4.5240   26.7740 C   0  0  0  0  0  0  0  0  0  0  0  0
    7.8480   -4.4980   27.0110 C   0  0  0  0  0  0  0  0  0  0  0  0
    8.2740   -3.2080   26.8420 O   0  0  0  0  0  0  0  0  0  0  0  0
    8.5710   -5.2320   27.3250 H   0  0  0  0  0  0  0  0  0  0  0  0
    5.8450   -5.3640   26.8320 H   0  0  0  0  0  0  0  0  0  0  0  0
    7.7160   -0.6310   27.3210 H   0  0  0  0  0  0  0  0  0  0  0  0
    6.2640   -0.6180   26.2890 H   0  0  0  0  0  0  0  0  0  0  0  0
    9.4210   -0.4500   25.5530 C   0  0  0  0  0  0  0  0  0  0  0  0
    9.8890   -0.4450   26.6780 O   0  0  0  0  0  0  0  0  0  0  0  0
   10.2750   -0.2310   24.3570 C   0  0  0  0  0  0  0  0  0  0  0  0
   11.6370   -0.0680   24.6000 C   0  0  0  0  0  0  0  0  0  0  0  0
   12.5120    0.2150   23.5770 C   0  0  0  0  0  0  0  0  0  0  0  0
   11.9780    0.3120   22.3000 C   0  0  0  0  0  0  0  0  0  0  0  0
   12.8300    0.6330   21.3170 F   0  0  0  0  0  0  0  0  0  0  0  0
   10.6390    0.0910   22.0200 C   0  0  0  0  0  0  0  0  0  0  0  0
    9.7450   -0.1890   23.0620 C   0  0  0  0  0  0  0  0  0  0  0  0
   10.2920    0.1400   20.9970 H   0  0  0  0  0  0  0  0  0  0  0  0
   13.5740    0.3690   23.7400 H   0  0  0  0  0  0  0  0  0  0  0  0
   11.9880   -0.1650   25.6180 H   0  0  0  0  0  0  0  0  0  0  0  0
    7.3860    0.9500   24.1260 H   0  0  0  0  0  0  0  0  0  0  0  0
    6.4620   -0.5560   23.9940 H   0  0  0  0  0  0  0  0  0  0  0  0
    6.9480   -2.4500   20.3820 H   0  0  0  0  0  0  0  0  0  0  0  0
    5.8940   -2.1180   21.7480 H   0  0  0  0  0  0  0  0  0  0  0  0
    8.9230   -2.1970   21.6530 H   0  0  0  0  0  0  0  0  0  0  0  0
    8.6010   -3.0730   23.9990 H   0  0  0  0  0  0  0  0  0  0  0  0
    6.8560   -2.8580   23.8160 H   0  0  0  0  0  0  0  0  0  0  0  0
    7.7100   -4.0080   22.7720 H   0  0  0  0  0  0  0  0  0  0  0  0
  1  2  1  0  0  0  0
  1 53  1  0  0  0  0
  1 54  1  0  0  0  0
  1 55  1  0  0  0  0
  2  3  1  0  0  0  0
  2 23  1  0  0  0  0
  2 52  1  6  0  0  0
  3  4  1  0  0  0  0
  3 50  1  0  0  0  0
  3 51  1  0  0  0  0
  4  5  1  0  0  0  0
  4 21  1  0  0  0  0
  5  6  2  0  0  0  0
  5 14  1  0  0  0  0
  6  7  1  0  0  0  0
  6 20  1  0  0  0  0
  7  8  2  0  0  0  0
  8  9  1  0  0  0  0
  8 19  1  0  0  0  0
  9 10  2  0  0  0  0
  9 14  1  0  0  0  0
 10 11  1  0  0  0  0
 10 18  1  0  0  0  0
 11 12  2  0  0  0  0
 11 17  1  0  0  0  0
 12 13  1  0  0  0  0
 12 16  1  0  0  0  0
 13 14  2  0  0  0  0
 13 15  1  0  0  0  0
 21 22  2  0  0  0  0
 23 21  1  6  0  0  0
 23 24  1  0  0  0  0
 23 44  1  0  0  0  0
 24 25  1  0  0  0  0
 24 48  1  0  0  0  0
 24 49  1  0  0  0  0
 25 26  1  0  0  0  0
 25 36  1  0  0  0  0
 26 27  1  0  0  0  0
 26 34  1  0  0  0  0
 26 35  1  0  0  0  0
 27 28  2  0  0  0  0
 27 31  1  0  0  0  0
 28 29  1  0  0  0  0
 29 30  2  0  0  0  0
 29 33  1  0  0  0  0
 30 31  1  0  0  0  0
 30 32  1  0  0  0  0
 36 37  2  0  0  0  0
 36 38  1  0  0  0  0
 38 39  2  0  0  0  0
 38 44  1  0  0  0  0
 39 40  1  0  0  0  0
 39 47  1  0  0  0  0
 40 41  2  0  0  0  0
 40 46  1  0  0  0  0
 41 42  1  0  0  0  0
 41 43  1  0  0  0  0
 43 44  2  0  0  0  0
 43 45  1  0  0  0  0
M  END
>  <MODEL>
       1

$$$$
