output/tmp_first_model_15_46.pdb
 OpenBabel07232601353D

 64 68  0  0  1  0  0  0  0  0999 V2000
   13.2300   -2.4020   23.2330 C   0  0  0  0  0  0  0  0  0  0  0  0
   11.7140   -2.5070   23.1390 C   0  0  0  0  0  0  0  0  0  0  0  0
   11.1300   -1.9440   21.5500 S   0  0  0  0  0  0  0  0  0  0  0  0
   11.1690   -0.4870   21.5330 O   0  0  0  0  0  0  0  0  0  0  0  0
   11.8270   -2.7210   20.5400 O   0  0  0  0  0  0  0  0  0  0  0  0
    9.5000   -2.4650   21.5860 N   0  0  0  0  0  0  0  0  0  0  0  0
    8.5420   -1.4950   22.1450 C   0  0  1  0  0  0  0  0  0  0  0  0
    8.1720   -0.3690   21.1630 C   0  0  0  0  0  0  0  0  0  0  0  0
    6.7570   -0.5340   20.9170 N   0  0  0  0  0  0  0  0  0  0  0  0
    6.0750    0.0490   19.8260 C   0  0  0  0  0  0  0  0  0  0  0  0
    6.4650   -0.2080   18.5340 C   0  0  0  0  0  0  0  0  0  0  0  0
    5.8190    0.2510   17.4380 N   0  0  0  0  0  0  0  0  0  0  0  0
    4.7710    1.0150   17.6230 C   0  0  0  0  0  0  0  0  0  0  0  0
    4.2860    1.3930   18.9070 C   0  0  0  0  0  0  0  0  0  0  0  0
    3.1640    2.2490   19.0620 C   0  0  0  0  0  0  0  0  0  0  0  0
    2.7500    2.6400   20.3060 C   0  0  0  0  0  0  0  0  0  0  0  0
    3.4400    2.1900   21.4540 C   0  0  0  0  0  0  0  0  0  0  0  0
    4.5180    1.3550   21.3300 C   0  0  0  0  0  0  0  0  0  0  0  0
    4.9620    0.9180   20.0490 C   0  0  0  0  0  0  0  0  0  0  0  0
    5.0320    1.0120   22.2210 H   0  0  0  0  0  0  0  0  0  0  0  0
    3.1130    2.5050   22.4410 H   0  0  0  0  0  0  0  0  0  0  0  0
    1.9010    3.3070   20.4190 H   0  0  0  0  0  0  0  0  0  0  0  0
    2.6600    2.6030   18.1670 H   0  0  0  0  0  0  0  0  0  0  0  0
    4.2560    1.3760   16.7320 H   0  0  0  0  0  0  0  0  0  0  0  0
    7.3240   -0.8490   18.3370 H   0  0  0  0  0  0  0  0  0  0  0  0
    6.1300   -1.3870   21.7910 C   0  0  0  0  0  0  0  0  0  0  0  0
    4.9320   -1.6070   21.7950 O   0  0  0  0  0  0  0  0  0  0  0  0
    7.1790   -2.0530   22.6750 C   0  0  1  0  0  0  0  0  0  0  0  0
    6.9500   -3.5830   22.6250 C   0  0  0  0  0  0  0  0  0  0  0  0
    7.8820   -4.3170   23.4480 N   0  0  0  0  0  0  0  0  0  0  0  0
    8.6760   -5.3620   22.8560 C   0  0  0  0  0  0  0  0  0  0  0  0
    7.9530   -6.6780   22.5470 C   0  0  0  0  0  0  0  0  0  0  0  0
    7.1210   -6.7700   21.6610 O   0  0  0  0  0  0  0  0  0  0  0  0
    8.3970   -7.7310   23.2890 N   0  0  0  0  0  0  0  0  0  0  0  0
    7.8590   -9.0790   23.1880 C   0  0  0  0  0  0  0  0  0  0  0  0
    6.7710   -9.0730   23.0650 H   0  0  0  0  0  0  0  0  0  0  0  0
    8.2810   -9.6450   22.3540 H   0  0  0  0  0  0  0  0  0  0  0  0
    8.1210   -9.6080   24.1050 H   0  0  0  0  0  0  0  0  0  0  0  0
    8.9560   -7.5030   24.0990 H   0  0  0  0  0  0  0  0  0  0  0  0
    9.0310   -4.9550   21.9080 H   0  0  0  0  0  0  0  0  0  0  0  0
    9.5230   -5.5180   23.5230 H   0  0  0  0  0  0  0  0  0  0  0  0
    8.1650   -3.9040   24.7210 C   0  0  0  0  0  0  0  0  0  0  0  0
    8.8720   -4.5500   25.4830 O   0  0  0  0  0  0  0  0  0  0  0  0
    7.5710   -2.5860   25.1090 C   0  0  0  0  0  0  0  0  0  0  0  0
    7.6700   -2.2070   26.4420 C   0  0  0  0  0  0  0  0  0  0  0  0
    7.2740   -0.9460   26.8500 C   0  0  0  0  0  0  0  0  0  0  0  0
    6.7790   -0.0630   25.8940 C   0  0  0  0  0  0  0  0  0  0  0  0
    6.3410    1.5430   26.3890 Cl  0  0  0  0  0  0  0  0  0  0  0  0
    6.6980   -0.4130   24.5560 C   0  0  0  0  0  0  0  0  0  0  0  0
    7.0680   -1.6960   24.1530 C   0  0  0  0  0  0  0  0  0  0  0  0
    6.4120    0.3230   23.8120 H   0  0  0  0  0  0  0  0  0  0  0  0
    7.3680   -0.6320   27.8840 H   0  0  0  0  0  0  0  0  0  0  0  0
    8.1010   -2.9280   27.1290 H   0  0  0  0  0  0  0  0  0  0  0  0
    5.9230   -3.7630   22.9770 H   0  0  0  0  0  0  0  0  0  0  0  0
    7.0080   -3.9460   21.6020 H   0  0  0  0  0  0  0  0  0  0  0  0
    8.7310   -0.4560   20.2350 H   0  0  0  0  0  0  0  0  0  0  0  0
    8.3730    0.6150   21.6020 H   0  0  0  0  0  0  0  0  0  0  0  0
    9.0610   -1.0800   23.0080 H   0  0  0  0  0  0  0  0  0  0  0  0
    9.2480   -2.7170   20.6340 H   0  0  0  0  0  0  0  0  0  0  0  0
   11.3760   -3.5430   23.2170 H   0  0  0  0  0  0  0  0  0  0  0  0
   11.1860   -1.9120   23.8890 H   0  0  0  0  0  0  0  0  0  0  0  0
   13.5980   -2.8600   24.1510 H   0  0  0  0  0  0  0  0  0  0  0  0
   13.5670   -1.3670   23.2090 H   0  0  0  0  0  0  0  0  0  0  0  0
   13.6940   -2.9210   22.3990 H   0  0  0  0  0  0  0  0  0  0  0  0
  1  2  1  0  0  0  0
  1 62  1  0  0  0  0
  1 63  1  0  0  0  0
  1 64  1  0  0  0  0
  2  3  1  0  0  0  0
  2 60  1  0  0  0  0
  2 61  1  0  0  0  0
  3  4  2  0  0  0  0
  3  5  2  0  0  0  0
  3  6  1  0  0  0  0
  6  7  1  0  0  0  0
  6 59  1  0  0  0  0
  7  8  1  0  0  0  0
  7 28  1  0  0  0  0
  7 58  1  1  0  0  0
  8  9  1  0  0  0  0
  8 56  1  0  0  0  0
  8 57  1  0  0  0  0
  9 10  1  0  0  0  0
  9 26  1  0  0  0  0
 10 11  2  0  0  0  0
 10 19  1  0  0  0  0
 11 12  1  0  0  0  0
 11 25  1  0  0  0  0
 12 13  2  0  0  0  0
 13 14  1  0  0  0  0
 13 24  1  0  0  0  0
 14 15  2  0  0  0  0
 14 19  1  0  0  0  0
 15 16  1  0  0  0  0
 15 23  1  0  0  0  0
 16 17  2  0  0  0  0
 16 22  1  0  0  0  0
 17 18  1  0  0  0  0
 17 21  1  0  0  0  0
 18 19  2  0  0  0  0
 18 20  1  0  0  0  0
 26 27  2  0  0  0  0
 28 26  1  6  0  0  0
 28 29  1  0  0  0  0
 28 50  1  0  0  0  0
 29 30  1  0  0  0  0
 29 54  1  0  0  0  0
 29 55  1  0  0  0  0
 30 31  1  0  0  0  0
 30 42  1  0  0  0  0
 31 32  1  0  0  0  0
 31 40  1  0  0  0  0
 31 41  1  0  0  0  0
 32 33  2  0  0  0  0
 32 34  1  0  0  0  0
 34 35  1  0  0  0  0
 34 39  1  0  0  0  0
 35 36  1  0  0  0  0
 35 37  1  0  0  0  0
 35 38  1  0  0  0  0
 42 43  2  0  0  0  0
 42 44  1  0  0  0  0
 44 45  2  0  0  0  0
 44 50  1  0  0  0  0
 45 46  1  0  0  0  0
 45 53  1  0  0  0  0
 46 47  2  0  0  0  0
 46 52  1  0  0  0  0
 47 48  1  0  0  0  0
 47 49  1  0  0  0  0
 49 50  2  0  0  0  0
 49 51  1  0  0  0  0
M  END
>  <MODEL>
       1

$$$$
