output/tmp_first_model_13_85.pdb
 OpenBabel07232600343D

 55 60  0  0  1  0  0  0  0  0999 V2000
    9.7020   -1.9100   22.0060 C   0  0  0  0  0  0  0  0  0  0  0  0
    8.5910   -0.9110   22.3690 C   0  0  1  0  0  0  0  0  0  0  0  0
    8.1800   -0.0280   21.1680 C   0  0  0  0  0  0  0  0  0  0  0  0
    6.8750   -0.5040   20.7820 N   0  0  0  0  0  0  0  0  0  0  0  0
    6.1140    0.0690   19.7430 C   0  0  0  0  0  0  0  0  0  0  0  0
    6.4570   -0.2080   18.4470 C   0  0  0  0  0  0  0  0  0  0  0  0
    5.7910    0.2520   17.3630 N   0  0  0  0  0  0  0  0  0  0  0  0
    4.7560    1.0260   17.5920 C   0  0  0  0  0  0  0  0  0  0  0  0
    4.3040    1.4000   18.8900 C   0  0  0  0  0  0  0  0  0  0  0  0
    3.1860    2.2560   19.0590 C   0  0  0  0  0  0  0  0  0  0  0  0
    2.7890    2.6400   20.3080 C   0  0  0  0  0  0  0  0  0  0  0  0
    3.4920    2.1840   21.4480 C   0  0  0  0  0  0  0  0  0  0  0  0
    4.5710    1.3450   21.3190 C   0  0  0  0  0  0  0  0  0  0  0  0
    5.0000    0.9220   20.0210 C   0  0  0  0  0  0  0  0  0  0  0  0
    5.0930    1.0030   22.2150 H   0  0  0  0  0  0  0  0  0  0  0  0
    3.1680    2.5110   22.4320 H   0  0  0  0  0  0  0  0  0  0  0  0
    1.9420    3.3080   20.4310 H   0  0  0  0  0  0  0  0  0  0  0  0
    2.6750    2.6110   18.1690 H   0  0  0  0  0  0  0  0  0  0  0  0
    4.2170    1.4080   16.7250 H   0  0  0  0  0  0  0  0  0  0  0  0
    7.3060   -0.8640   18.2610 H   0  0  0  0  0  0  0  0  0  0  0  0
    6.3000   -1.3680   21.6740 C   0  0  0  0  0  0  0  0  0  0  0  0
    5.2200   -1.9020   21.4990 O   0  0  0  0  0  0  0  0  0  0  0  0
    7.2610   -1.5420   22.8690 C   0  0  1  0  0  0  0  0  0  0  0  0
    7.3480   -3.0400   23.1530 C   0  0  0  0  0  0  0  0  0  0  0  0
    6.0450   -3.4780   23.5830 N   0  0  0  0  0  0  0  0  0  0  0  0
    5.4380   -4.6150   22.9220 C   0  0  0  0  0  0  0  0  0  0  0  0
    6.1030   -5.8570   23.4120 C   0  0  0  0  0  0  0  0  0  0  0  0
    5.9810   -6.4150   24.6360 C   0  0  0  0  0  0  0  0  0  0  0  0
    7.0570   -7.2090   24.8290 O   0  0  0  0  0  0  0  0  0  0  0  0
    7.7680   -7.1250   23.6950 C   0  0  0  0  0  0  0  0  0  0  0  0
    7.2530   -6.3510   22.8000 N   0  0  0  0  0  0  0  0  0  0  0  0
    8.6890   -7.6920   23.6680 H   0  0  0  0  0  0  0  0  0  0  0  0
    5.3150   -6.2670   25.4710 H   0  0  0  0  0  0  0  0  0  0  0  0
    4.3690   -4.5720   23.1420 H   0  0  0  0  0  0  0  0  0  0  0  0
    5.5750   -4.4830   21.8410 H   0  0  0  0  0  0  0  0  0  0  0  0
    5.5570   -3.0250   24.7720 C   0  0  0  0  0  0  0  0  0  0  0  0
    4.8160   -3.6820   25.4970 O   0  0  0  0  0  0  0  0  0  0  0  0
    5.9510   -1.6140   25.0610 C   0  0  0  0  0  0  0  0  0  0  0  0
    5.4530   -1.0240   26.2180 C   0  0  0  0  0  0  0  0  0  0  0  0
    5.6430    0.3190   26.4620 C   0  0  0  0  0  0  0  0  0  0  0  0
    6.3520    1.0470   25.5160 C   0  0  0  0  0  0  0  0  0  0  0  0
    6.5160    2.3620   25.7330 F   0  0  0  0  0  0  0  0  0  0  0  0
    6.8830    0.4840   24.3690 C   0  0  0  0  0  0  0  0  0  0  0  0
    6.7010   -0.8830   24.1280 C   0  0  0  0  0  0  0  0  0  0  0  0
    7.4370    1.1200   23.6880 H   0  0  0  0  0  0  0  0  0  0  0  0
    5.2300    0.8070   27.3380 H   0  0  0  0  0  0  0  0  0  0  0  0
    4.9040   -1.6570   26.9020 H   0  0  0  0  0  0  0  0  0  0  0  0
    8.1030   -3.2400   23.9310 H   0  0  0  0  0  0  0  0  0  0  0  0
    7.6310   -3.5910   22.2550 H   0  0  0  0  0  0  0  0  0  0  0  0
    8.8820   -0.1250   20.3400 H   0  0  0  0  0  0  0  0  0  0  0  0
    8.1370    1.0360   21.4410 H   0  0  0  0  0  0  0  0  0  0  0  0
    8.9990   -0.2950   23.1780 H   0  0  0  0  0  0  0  0  0  0  0  0
    9.8740   -2.6180   22.8200 H   0  0  0  0  0  0  0  0  0  0  0  0
    9.4670   -2.4730   21.0930 H   0  0  0  0  0  0  0  0  0  0  0  0
   10.6550   -1.4000   21.8670 H   0  0  0  0  0  0  0  0  0  0  0  0
  1  2  1  0  0  0  0
  1 53  1  0  0  0  0
  1 54  1  0  0  0  0
  1 55  1  0  0  0  0
  2  3  1  0  0  0  0
  2 23  1  0  0  0  0
  2 52  1  1  0  0  0
  3  4  1  0  0  0  0
  3 50  1  0  0  0  0
  3 51  1  0  0  0  0
  4  5  1  0  0  0  0
  4 21  1  0  0  0  0
  5  6  2  0  0  0  0
  5 14  1  0  0  0  0
  6  7  1  0  0  0  0
  6 20  1  0  0  0  0
  7  8  2  0  0  0  0
  8  9  1  0  0  0  0
  8 19  1  0  0  0  0
  9 10  2  0  0  0  0
  9 14  1  0  0  0  0
 10 11  1  0  0  0  0
 10 18  1  0  0  0  0
 11 12  2  0  0  0  0
 11 17  1  0  0  0  0
 12 13  1  0  0  0  0
 12 16  1  0  0  0  0
 13 14  2  0  0  0  0
 13 15  1  0  0  0  0
 21 22  2  0  0  0  0
 23 21  1  6  0  0  0
 23 24  1  0  0  0  0
 23 44  1  0  0  0  0
 24 25  1  0  0  0  0
 24 48  1  0  0  0  0
 24 49  1  0  0  0  0
 25 26  1  0  0  0  0
 25 36  1  0  0  0  0
 26 27  1  0  0  0  0
 26 34  1  0  0  0  0
 26 35  1  0  0  0  0
 27 28  2  0  0  0  0
 27 31  1  0  0  0  0
 28 29  1  0  0  0  0
 28 33  1  0  0  0  0
 29 30  1  0  0  0  0
 30 31  2  0  0  0  0
 30 32  1  0  0  0  0
 36 37  2  0  0  0  0
 36 38  1  0  0  0  0
 38 39  2  0  0  0  0
 38 44  1  0  0  0  0
 39 40  1  0  0  0  0
 39 47  1  0  0  0  0
 40 41  2  0  0  0  0
 40 46  1  0  0  0  0
 41 42  1  0  0  0  0
 41 43  1  0  0  0  0
 43 44  2  0  0  0  0
 43 45  1  0  0  0  0
M  END
>  <MODEL>
       1

$$$$
