output/tmp_first_model_18_53.pdb
 OpenBabel07232602473D

 77 84  0  0  1  0  0  0  0  0999 V2000
    4.4940   -3.2890   25.4700 O   0  0  0  0  0  0  0  0  0  0  0  0
    5.3880   -2.7770   24.8090 C   0  0  0  0  0  0  0  0  0  0  0  0
    5.8920   -1.3940   25.0630 C   0  0  0  0  0  0  0  0  0  0  0  0
    5.4490   -0.7480   26.2150 C   0  0  0  0  0  0  0  0  0  0  0  0
    5.7530    0.5810   26.4290 C   0  0  0  0  0  0  0  0  0  0  0  0
    6.4860    1.2550   25.4560 C   0  0  0  0  0  0  0  0  0  0  0  0
    6.8370    2.9430   25.6950 Cl  0  0  0  0  0  0  0  0  0  0  0  0
    6.9470    0.6160   24.3150 C   0  0  0  0  0  0  0  0  0  0  0  0
    6.7000   -0.7490   24.1160 C   0  0  0  0  0  0  0  0  0  0  0  0
    7.2410   -1.4890   22.8830 C   0  0  1  0  0  0  0  0  0  0  0  0
    7.2400   -2.9990   23.2130 C   0  0  0  0  0  0  0  0  0  0  0  0
    5.9450   -3.4260   23.7340 N   0  0  0  0  0  0  0  0  0  0  0  0
    5.0240   -4.2390   22.9190 C   0  0  0  0  0  0  0  0  0  0  0  0
    4.9340   -5.6570   23.4590 C   0  0  0  0  0  0  0  0  0  0  0  0
    6.3450   -6.0500   23.7190 N   0  3  0  0  0  0  0  0  0  0  0  0
    7.1810   -6.5360   22.5320 C   0  0  0  0  0  0  0  0  0  0  0  0
    7.5210   -7.8390   23.2770 C   0  0  0  0  0  0  0  0  0  0  0  0
    8.9600   -8.3100   23.4630 C   0  0  0  0  0  0  0  0  0  0  0  0
    8.6090   -9.6520   23.1760 O   0  0  0  0  0  0  0  0  0  0  0  0
    7.2810   -9.2770   22.8600 C   0  0  0  0  0  0  0  0  0  0  0  0
    6.5640   -9.7900   23.4860 H   0  0  0  0  0  0  0  0  0  0  0  0
    7.0430   -9.4910   21.8320 H   0  0  0  0  0  0  0  0  0  0  0  0
    9.7130   -7.9560   22.7790 H   0  0  0  0  0  0  0  0  0  0  0  0
    9.3660   -8.1680   24.4490 H   0  0  0  0  0  0  0  0  0  0  0  0
    6.6440   -7.3090   24.4450 C   0  0  0  0  0  0  0  0  0  0  0  0
    7.1570   -7.1120   25.3830 H   0  0  0  0  0  0  0  0  0  0  0  0
    5.7380   -7.8880   24.6430 H   0  0  0  0  0  0  0  0  0  0  0  0
    8.0250   -5.8600   22.4010 H   0  0  0  0  0  0  0  0  0  0  0  0
    6.5960   -6.6130   21.6130 H   0  0  0  0  0  0  0  0  0  0  0  0
    6.7420   -5.2090   24.1930 H   0  0  0  0  0  0  0  0  0  0  0  0
    4.4530   -6.3390   22.7440 H   0  0  0  0  0  0  0  0  0  0  0  0
    4.3870   -5.6760   24.4020 H   0  0  0  0  0  0  0  0  0  0  0  0
    5.4100   -4.2340   21.8950 H   0  0  0  0  0  0  0  0  0  0  0  0
    4.0490   -3.7500   22.9100 H   0  0  0  0  0  0  0  0  0  0  0  0
    8.0220   -3.2030   23.9550 H   0  0  0  0  0  0  0  0  0  0  0  0
    7.4520   -3.5770   22.3100 H   0  0  0  0  0  0  0  0  0  0  0  0
    6.3190   -1.2960   21.6660 C   0  0  0  0  0  0  0  0  0  0  0  0
    5.2300   -1.8060   21.4660 O   0  0  0  0  0  0  0  0  0  0  0  0
    6.9120   -0.4240   20.7970 N   0  0  0  0  0  0  0  0  0  0  0  0
    6.1630    0.1260   19.7340 C   0  0  0  0  0  0  0  0  0  0  0  0
    6.4980   -0.1620   18.4370 C   0  0  0  0  0  0  0  0  0  0  0  0
    5.8120    0.2840   17.3610 N   0  0  0  0  0  0  0  0  0  0  0  0
    4.7730    1.0530   17.5790 C   0  0  0  0  0  0  0  0  0  0  0  0
    4.3240    1.4330   18.8760 C   0  0  0  0  0  0  0  0  0  0  0  0
    3.2010    2.2830   19.0590 C   0  0  0  0  0  0  0  0  0  0  0  0
    2.8040    2.6440   20.3140 C   0  0  0  0  0  0  0  0  0  0  0  0
    3.5030    2.1680   21.4480 C   0  0  0  0  0  0  0  0  0  0  0  0
    4.5890    1.3420   21.3030 C   0  0  0  0  0  0  0  0  0  0  0  0
    5.0280    0.9540   20.0010 C   0  0  0  0  0  0  0  0  0  0  0  0
    5.1140    0.9790   22.1880 H   0  0  0  0  0  0  0  0  0  0  0  0
    3.1780    2.4650   22.4400 H   0  0  0  0  0  0  0  0  0  0  0  0
    1.9550    3.3100   20.4520 H   0  0  0  0  0  0  0  0  0  0  0  0
    2.6850    2.6520   18.1750 H   0  0  0  0  0  0  0  0  0  0  0  0
    4.2290    1.4170   16.7060 H   0  0  0  0  0  0  0  0  0  0  0  0
    7.3460   -0.8140   18.2320 H   0  0  0  0  0  0  0  0  0  0  0  0
    8.2350    0.0080   21.1850 C   0  0  0  0  0  0  0  0  0  0  0  0
    8.6020   -0.8930   22.3860 C   0  0  2  0  0  0  0  0  0  0  0  0
    9.7190   -1.8770   21.9560 C   0  0  0  0  0  0  0  0  0  0  0  0
   10.3470   -2.6050   23.0440 N   0  0  0  0  0  0  0  0  0  0  0  0
   11.2580   -2.0440   23.8890 C   0  0  0  0  0  0  0  0  0  0  0  0
   11.7880   -2.8690   24.8170 N   0  0  0  0  0  0  0  0  0  0  0  0
   12.6110   -2.3090   25.6850 C   0  0  0  0  0  0  0  0  0  0  0  0
   12.9600   -0.9610   25.6550 C   0  0  0  0  0  0  0  0  0  0  0  0
   12.3900   -0.2220   24.6280 C   0  0  0  0  0  0  0  0  0  0  0  0
   11.5360   -0.7370   23.7470 N   0  0  0  0  0  0  0  0  0  0  0  0
   12.6190    0.8370   24.5070 H   0  0  0  0  0  0  0  0  0  0  0  0
   13.6320   -0.5330   26.3870 H   0  0  0  0  0  0  0  0  0  0  0  0
   13.0120   -2.9790   26.4470 H   0  0  0  0  0  0  0  0  0  0  0  0
   10.3280   -3.6140   23.0480 H   0  0  0  0  0  0  0  0  0  0  0  0
   10.5020   -1.2830   21.4690 H   0  0  0  0  0  0  0  0  0  0  0  0
    9.3270   -2.5980   21.2270 H   0  0  0  0  0  0  0  0  0  0  0  0
    9.0320   -0.2960   23.1930 H   0  0  0  0  0  0  0  0  0  0  0  0
    8.2440    1.0770   21.4350 H   0  0  0  0  0  0  0  0  0  0  0  0
    8.9350   -0.1260   20.3630 H   0  0  0  0  0  0  0  0  0  0  0  0
    7.5090    1.1990   23.5930 H   0  0  0  0  0  0  0  0  0  0  0  0
    5.4200    1.0990   27.3200 H   0  0  0  0  0  0  0  0  0  0  0  0
    4.8520   -1.3190   26.9190 H   0  0  0  0  0  0  0  0  0  0  0  0
  1  2  2  0  0  0  0
  2  3  1  0  0  0  0
  2 12  1  0  0  0  0
  3  4  2  0  0  0  0
  3  9  1  0  0  0  0
  4  5  1  0  0  0  0
  4 77  1  0  0  0  0
  5  6  2  0  0  0  0
  5 76  1  0  0  0  0
  6  7  1  0  0  0  0
  6  8  1  0  0  0  0
  8  9  2  0  0  0  0
  8 75  1  0  0  0  0
 10  9  1  1  0  0  0
 10 11  1  0  0  0  0
 10 37  1  0  0  0  0
 10 57  1  0  0  0  0
 11 12  1  0  0  0  0
 11 35  1  0  0  0  0
 11 36  1  0  0  0  0
 12 13  1  0  0  0  0
 13 14  1  0  0  0  0
 13 33  1  0  0  0  0
 13 34  1  0  0  0  0
 14 15  1  0  0  0  0
 14 31  1  0  0  0  0
 14 32  1  0  0  0  0
 15 16  1  0  0  0  0
 15 25  1  0  0  0  0
 15 30  1  0  0  0  0
 16 17  1  0  0  0  0
 16 28  1  0  0  0  0
 16 29  1  0  0  0  0
 17 18  1  0  0  0  0
 17 20  1  0  0  0  0
 17 25  1  0  0  0  0
 18 19  1  0  0  0  0
 18 23  1  0  0  0  0
 18 24  1  0  0  0  0
 19 20  1  0  0  0  0
 20 21  1  0  0  0  0
 20 22  1  0  0  0  0
 25 26  1  0  0  0  0
 25 27  1  0  0  0  0
 37 38  2  0  0  0  0
 37 39  1  0  0  0  0
 39 40  1  0  0  0  0
 39 56  1  0  0  0  0
 40 41  2  0  0  0  0
 40 49  1  0  0  0  0
 41 42  1  0  0  0  0
 41 55  1  0  0  0  0
 42 43  2  0  0  0  0
 43 44  1  0  0  0  0
 43 54  1  0  0  0  0
 44 45  2  0  0  0  0
 44 49  1  0  0  0  0
 45 46  1  0  0  0  0
 45 53  1  0  0  0  0
 46 47  2  0  0  0  0
 46 52  1  0  0  0  0
 47 48  1  0  0  0  0
 47 51  1  0  0  0  0
 48 49  2  0  0  0  0
 48 50  1  0  0  0  0
 56 57  1  0  0  0  0
 56 73  1  0  0  0  0
 56 74  1  0  0  0  0
 57 58  1  0  0  0  0
 57 72  1  1  0  0  0
 58 59  1  0  0  0  0
 58 70  1  0  0  0  0
 58 71  1  0  0  0  0
 59 60  1  0  0  0  0
 59 69  1  0  0  0  0
 60 61  2  0  0  0  0
 60 65  1  0  0  0  0
 61 62  1  0  0  0  0
 62 63  2  0  0  0  0
 62 68  1  0  0  0  0
 63 64  1  0  0  0  0
 63 67  1  0  0  0  0
 64 65  2  0  0  0  0
 64 66  1  0  0  0  0
M  CHG  1  15   1
M  END
>  <MODEL>
       1

$$$$
