output/tmp_first_model_11_46.pdb
 OpenBabel07222623443D

 64 68  0  0  1  0  0  0  0  0999 V2000
    9.6820    3.2130   23.4730 C   0  0  0  0  0  0  0  0  0  0  0  0
    8.8980    2.2710   24.3680 C   0  0  0  0  0  0  0  0  0  0  0  0
    9.6970    0.6730   24.6110 S   0  0  0  0  0  0  0  0  0  0  0  0
    8.8830   -0.0460   25.5730 O   0  0  0  0  0  0  0  0  0  0  0  0
   11.1240    0.8430   24.8290 O   0  0  0  0  0  0  0  0  0  0  0  0
    9.5340   -0.0210   23.1270 N   0  0  0  0  0  0  0  0  0  0  0  0
    8.2450   -0.3760   22.5830 C   0  0  1  0  0  0  0  0  0  0  0  0
    7.8550    0.4850   21.3850 C   0  0  0  0  0  0  0  0  0  0  0  0
    6.8310   -0.3190   20.7530 N   0  0  0  0  0  0  0  0  0  0  0  0
    6.0390    0.1370   19.6820 C   0  0  0  0  0  0  0  0  0  0  0  0
    6.3440   -0.2080   18.3910 C   0  0  0  0  0  0  0  0  0  0  0  0
    5.6700    0.2590   17.3110 N   0  0  0  0  0  0  0  0  0  0  0  0
    4.6600    1.0660   17.5270 C   0  0  0  0  0  0  0  0  0  0  0  0
    4.2150    1.4580   18.8240 C   0  0  0  0  0  0  0  0  0  0  0  0
    3.0900    2.2940   19.0290 C   0  0  0  0  0  0  0  0  0  0  0  0
    2.6920    2.6290   20.2930 C   0  0  0  0  0  0  0  0  0  0  0  0
    3.3890    2.1440   21.4200 C   0  0  0  0  0  0  0  0  0  0  0  0
    4.4850    1.3350   21.2520 C   0  0  0  0  0  0  0  0  0  0  0  0
    4.9220    0.9820   19.9460 C   0  0  0  0  0  0  0  0  0  0  0  0
    5.0130    0.9510   22.1180 H   0  0  0  0  0  0  0  0  0  0  0  0
    3.0630    2.4170   22.4200 H   0  0  0  0  0  0  0  0  0  0  0  0
    1.8370    3.2820   20.4410 H   0  0  0  0  0  0  0  0  0  0  0  0
    2.5690    2.6760   18.1570 H   0  0  0  0  0  0  0  0  0  0  0  0
    4.1300    1.4490   16.6530 H   0  0  0  0  0  0  0  0  0  0  0  0
    7.1710   -0.8860   18.1850 H   0  0  0  0  0  0  0  0  0  0  0  0
    6.9010   -1.6550   21.0720 C   0  0  0  0  0  0  0  0  0  0  0  0
    6.1730   -2.5080   20.6050 O   0  0  0  0  0  0  0  0  0  0  0  0
    8.0210   -1.8370   22.0990 C   0  0  1  0  0  0  0  0  0  0  0  0
    9.2520   -2.4750   21.4220 C   0  0  0  0  0  0  0  0  0  0  0  0
   10.3070   -2.7820   22.3800 N   0  0  0  0  0  0  0  0  0  0  0  0
   11.6960   -2.5960   22.0060 C   0  0  0  0  0  0  0  0  0  0  0  0
   12.4230   -1.5580   22.8590 C   0  0  0  0  0  0  0  0  0  0  0  0
   12.5680   -0.4100   22.4530 O   0  0  0  0  0  0  0  0  0  0  0  0
   12.9510   -2.0010   24.0180 N   0  0  0  0  0  0  0  0  0  0  0  0
   13.9390   -1.2070   24.7220 C   0  0  0  0  0  0  0  0  0  0  0  0
   14.7310   -1.8520   25.1100 H   0  0  0  0  0  0  0  0  0  0  0  0
   14.3630   -0.5070   23.9960 H   0  0  0  0  0  0  0  0  0  0  0  0
   13.4930   -0.6510   25.5490 H   0  0  0  0  0  0  0  0  0  0  0  0
   12.6110   -2.8910   24.3600 H   0  0  0  0  0  0  0  0  0  0  0  0
   12.2150   -3.5500   22.0770 H   0  0  0  0  0  0  0  0  0  0  0  0
   11.7430   -2.2430   20.9730 H   0  0  0  0  0  0  0  0  0  0  0  0
   10.0130   -3.4880   23.5100 C   0  0  0  0  0  0  0  0  0  0  0  0
   10.8610   -4.0050   24.2360 O   0  0  0  0  0  0  0  0  0  0  0  0
    8.5610   -3.5580   23.8490 C   0  0  0  0  0  0  0  0  0  0  0  0
    8.1770   -4.4470   24.8380 C   0  0  0  0  0  0  0  0  0  0  0  0
    6.8820   -4.4670   25.3160 C   0  0  0  0  0  0  0  0  0  0  0  0
    5.9630   -3.5900   24.7470 C   0  0  0  0  0  0  0  0  0  0  0  0
    4.3390   -3.5690   25.3600 Cl  0  0  0  0  0  0  0  0  0  0  0  0
    6.3100   -2.7470   23.7090 C   0  0  0  0  0  0  0  0  0  0  0  0
    7.6200   -2.7410   23.2280 C   0  0  0  0  0  0  0  0  0  0  0  0
    5.5560   -2.1220   23.2470 H   0  0  0  0  0  0  0  0  0  0  0  0
    6.5730   -5.1370   26.1110 H   0  0  0  0  0  0  0  0  0  0  0  0
    8.9460   -5.1100   25.1890 H   0  0  0  0  0  0  0  0  0  0  0  0
    9.6390   -1.8010   20.6560 H   0  0  0  0  0  0  0  0  0  0  0  0
    8.8980   -3.3970   20.9510 H   0  0  0  0  0  0  0  0  0  0  0  0
    7.4690    1.4630   21.6850 H   0  0  0  0  0  0  0  0  0  0  0  0
    8.7220    0.6340   20.7210 H   0  0  0  0  0  0  0  0  0  0  0  0
    7.5170   -0.2260   23.3890 H   0  0  0  0  0  0  0  0  0  0  0  0
   10.4010   -0.2190   22.6340 H   0  0  0  0  0  0  0  0  0  0  0  0
    7.9020    2.0370   23.9720 H   0  0  0  0  0  0  0  0  0  0  0  0
    8.7450    2.6860   25.3670 H   0  0  0  0  0  0  0  0  0  0  0  0
   10.7010    3.3230   23.8520 H   0  0  0  0  0  0  0  0  0  0  0  0
    9.2030    4.1970   23.4710 H   0  0  0  0  0  0  0  0  0  0  0  0
    9.7160    2.8370   22.4430 H   0  0  0  0  0  0  0  0  0  0  0  0
  1  2  1  0  0  0  0
  1 62  1  0  0  0  0
  1 63  1  0  0  0  0
  1 64  1  0  0  0  0
  2  3  1  0  0  0  0
  2 60  1  0  0  0  0
  2 61  1  0  0  0  0
  3  4  2  0  0  0  0
  3  5  2  0  0  0  0
  3  6  1  0  0  0  0
  6  7  1  0  0  0  0
  6 59  1  0  0  0  0
  7  8  1  0  0  0  0
  7 28  1  0  0  0  0
  7 58  1  1  0  0  0
  8  9  1  0  0  0  0
  8 56  1  0  0  0  0
  8 57  1  0  0  0  0
  9 10  1  0  0  0  0
  9 26  1  0  0  0  0
 10 11  2  0  0  0  0
 10 19  1  0  0  0  0
 11 12  1  0  0  0  0
 11 25  1  0  0  0  0
 12 13  2  0  0  0  0
 13 14  1  0  0  0  0
 13 24  1  0  0  0  0
 14 15  2  0  0  0  0
 14 19  1  0  0  0  0
 15 16  1  0  0  0  0
 15 23  1  0  0  0  0
 16 17  2  0  0  0  0
 16 22  1  0  0  0  0
 17 18  1  0  0  0  0
 17 21  1  0  0  0  0
 18 19  2  0  0  0  0
 18 20  1  0  0  0  0
 26 27  2  0  0  0  0
 28 26  1  6  0  0  0
 28 29  1  0  0  0  0
 28 50  1  0  0  0  0
 29 30  1  0  0  0  0
 29 54  1  0  0  0  0
 29 55  1  0  0  0  0
 30 31  1  0  0  0  0
 30 42  1  0  0  0  0
 31 32  1  0  0  0  0
 31 40  1  0  0  0  0
 31 41  1  0  0  0  0
 32 33  2  0  0  0  0
 32 34  1  0  0  0  0
 34 35  1  0  0  0  0
 34 39  1  0  0  0  0
 35 36  1  0  0  0  0
 35 37  1  0  0  0  0
 35 38  1  0  0  0  0
 42 43  2  0  0  0  0
 42 44  1  0  0  0  0
 44 45  2  0  0  0  0
 44 50  1  0  0  0  0
 45 46  1  0  0  0  0
 45 53  1  0  0  0  0
 46 47  2  0  0  0  0
 46 52  1  0  0  0  0
 47 48  1  0  0  0  0
 47 49  1  0  0  0  0
 49 50  2  0  0  0  0
 49 51  1  0  0  0  0
M  END
>  <MODEL>
       1

$$$$
