output/tmp_first_model_11_1.pdb
 OpenBabel07222623443D

 51 54  0  0  0  0  0  0  0  0999 V2000
   12.6150   -0.6210   24.6850 C   0  0  0  0  0  0  0  0  0  0  0  0
   12.3420   -1.6340   23.7510 O   0  0  0  0  0  0  0  0  0  0  0  0
   11.0400   -1.8640   23.4450 C   0  0  0  0  0  0  0  0  0  0  0  0
   10.8230   -2.8840   22.5180 C   0  0  0  0  0  0  0  0  0  0  0  0
    9.5430   -3.1550   22.0690 C   0  0  0  0  0  0  0  0  0  0  0  0
    8.4540   -2.4200   22.5360 C   0  0  0  0  0  0  0  0  0  0  0  0
    7.1400   -2.7170   22.0490 N   0  0  0  0  0  0  0  0  0  0  0  0
    6.5470   -4.0060   22.4250 C   0  0  0  0  0  0  0  0  0  0  0  0
    5.9780   -4.0090   23.8360 C   0  0  0  0  0  0  0  0  0  0  0  0
    6.8160   -4.2150   24.9330 C   0  0  0  0  0  0  0  0  0  0  0  0
    6.3150   -4.1540   26.2300 C   0  0  0  0  0  0  0  0  0  0  0  0
    4.9670   -3.8930   26.4510 C   0  0  0  0  0  0  0  0  0  0  0  0
    4.1350   -3.7060   25.3540 C   0  0  0  0  0  0  0  0  0  0  0  0
    2.4460   -3.3650   25.6150 Cl  0  0  0  0  0  0  0  0  0  0  0  0
    4.6220   -3.7640   24.0540 C   0  0  0  0  0  0  0  0  0  0  0  0
    3.9480   -3.5900   23.2190 H   0  0  0  0  0  0  0  0  0  0  0  0
    4.5610   -3.8270   27.4560 H   0  0  0  0  0  0  0  0  0  0  0  0
    6.9820   -4.2960   27.0770 H   0  0  0  0  0  0  0  0  0  0  0  0
    7.8750   -4.4040   24.7670 H   0  0  0  0  0  0  0  0  0  0  0  0
    5.7570   -4.2320   21.7010 H   0  0  0  0  0  0  0  0  0  0  0  0
    7.3300   -4.7680   22.3400 H   0  0  0  0  0  0  0  0  0  0  0  0
    6.2930   -1.7890   21.4670 C   0  0  0  0  0  0  0  0  0  0  0  0
    5.0970   -1.9980   21.3880 O   0  0  0  0  0  0  0  0  0  0  0  0
    6.9310   -0.5160   20.8870 C   0  0  0  0  0  0  0  0  0  0  0  0
    6.1170    0.0820   19.7690 C   0  0  0  0  0  0  0  0  0  0  0  0
    6.4250   -0.2150   18.4670 C   0  0  0  0  0  0  0  0  0  0  0  0
    5.7550    0.2360   17.3770 N   0  0  0  0  0  0  0  0  0  0  0  0
    4.7320    1.0250   17.5850 C   0  0  0  0  0  0  0  0  0  0  0  0
    4.2820    1.4100   18.8760 C   0  0  0  0  0  0  0  0  0  0  0  0
    3.1590    2.2570   19.0500 C   0  0  0  0  0  0  0  0  0  0  0  0
    2.7440    2.6130   20.3030 C   0  0  0  0  0  0  0  0  0  0  0  0
    3.4330    2.1250   21.4360 C   0  0  0  0  0  0  0  0  0  0  0  0
    4.5220    1.2990   21.2930 C   0  0  0  0  0  0  0  0  0  0  0  0
    4.9850    0.9230   20.0040 C   0  0  0  0  0  0  0  0  0  0  0  0
    5.0290    0.9130   22.1710 H   0  0  0  0  0  0  0  0  0  0  0  0
    3.0970    2.4130   22.4280 H   0  0  0  0  0  0  0  0  0  0  0  0
    1.8920    3.2760   20.4290 H   0  0  0  0  0  0  0  0  0  0  0  0
    2.6570    2.6330   18.1610 H   0  0  0  0  0  0  0  0  0  0  0  0
    4.2050    1.3950   16.7050 H   0  0  0  0  0  0  0  0  0  0  0  0
    7.2700   -0.8640   18.2380 H   0  0  0  0  0  0  0  0  0  0  0  0
    7.0740    0.2110   21.6990 H   0  0  0  0  0  0  0  0  0  0  0  0
    7.9390   -0.7790   20.5440 H   0  0  0  0  0  0  0  0  0  0  0  0
    8.6710   -1.4400   23.5000 C   0  0  0  0  0  0  0  0  0  0  0  0
    9.9570   -1.1610   23.9640 C   0  0  0  0  0  0  0  0  0  0  0  0
   10.0850   -0.3790   24.7040 H   0  0  0  0  0  0  0  0  0  0  0  0
    7.8220   -0.8980   23.9080 H   0  0  0  0  0  0  0  0  0  0  0  0
    9.3820   -3.9260   21.3190 H   0  0  0  0  0  0  0  0  0  0  0  0
   11.6920   -3.4260   22.1560 H   0  0  0  0  0  0  0  0  0  0  0  0
   12.4590    0.3710   24.2470 H   0  0  0  0  0  0  0  0  0  0  0  0
   13.6650   -0.7510   24.9500 H   0  0  0  0  0  0  0  0  0  0  0  0
   11.9630   -0.7290   25.5560 H   0  0  0  0  0  0  0  0  0  0  0  0
  1  2  1  0  0  0  0
  1 49  1  0  0  0  0
  1 50  1  0  0  0  0
  1 51  1  0  0  0  0
  2  3  1  0  0  0  0
  3  4  2  0  0  0  0
  3 44  1  0  0  0  0
  4  5  1  0  0  0  0
  4 48  1  0  0  0  0
  5  6  2  0  0  0  0
  5 47  1  0  0  0  0
  6  7  1  0  0  0  0
  6 43  1  0  0  0  0
  7  8  1  0  0  0  0
  7 22  1  0  0  0  0
  8  9  1  0  0  0  0
  8 20  1  0  0  0  0
  8 21  1  0  0  0  0
  9 10  2  0  0  0  0
  9 15  1  0  0  0  0
 10 11  1  0  0  0  0
 10 19  1  0  0  0  0
 11 12  2  0  0  0  0
 11 18  1  0  0  0  0
 12 13  1  0  0  0  0
 12 17  1  0  0  0  0
 13 14  1  0  0  0  0
 13 15  2  0  0  0  0
 15 16  1  0  0  0  0
 22 23  2  0  0  0  0
 22 24  1  0  0  0  0
 24 25  1  0  0  0  0
 24 41  1  0  0  0  0
 24 42  1  0  0  0  0
 25 26  2  0  0  0  0
 25 34  1  0  0  0  0
 26 27  1  0  0  0  0
 26 40  1  0  0  0  0
 27 28  2  0  0  0  0
 28 29  1  0  0  0  0
 28 39  1  0  0  0  0
 29 30  2  0  0  0  0
 29 34  1  0  0  0  0
 30 31  1  0  0  0  0
 30 38  1  0  0  0  0
 31 32  2  0  0  0  0
 31 37  1  0  0  0  0
 32 33  1  0  0  0  0
 32 36  1  0  0  0  0
 33 34  2  0  0  0  0
 33 35  1  0  0  0  0
 43 44  2  0  0  0  0
 43 46  1  0  0  0  0
 44 45  1  0  0  0  0
M  END
>  <MODEL>
       1

$$$$
