output/tmp_first_model_11_9.pdb
 OpenBabel07222623443D

 58 63  0  0  1  0  0  0  0  0999 V2000
    7.4700   -9.3000   23.8550 C   0  0  0  0  0  0  0  0  0  0  0  0
    7.1860   -7.9720   23.2950 C   0  0  0  0  0  0  0  0  0  0  0  0
    5.9730   -7.2320   23.1370 C   0  0  0  0  0  0  0  0  0  0  0  0
    6.3590   -6.1930   22.3900 C   0  0  0  0  0  0  0  0  0  0  0  0
    5.6500   -4.9440   22.0150 C   0  0  0  0  0  0  0  0  0  0  0  0
    6.1350   -3.9020   22.8760 N   0  0  0  0  0  0  0  0  0  0  0  0
    7.4150   -3.2780   22.6320 C   0  0  0  0  0  0  0  0  0  0  0  0
    7.2100   -1.7640   22.6890 C   0  0  2  0  0  0  0  0  0  0  0  0
    6.3650   -1.4880   21.4200 C   0  0  0  0  0  0  0  0  0  0  0  0
    5.4480   -2.1540   20.9880 O   0  0  0  0  0  0  0  0  0  0  0  0
    6.8930   -0.4040   20.7710 N   0  0  0  0  0  0  0  0  0  0  0  0
    6.1390    0.1430   19.7010 C   0  0  0  0  0  0  0  0  0  0  0  0
    6.4350   -0.1930   18.4080 C   0  0  0  0  0  0  0  0  0  0  0  0
    5.7490    0.2650   17.3320 N   0  0  0  0  0  0  0  0  0  0  0  0
    4.7230    1.0460   17.5650 C   0  0  0  0  0  0  0  0  0  0  0  0
    4.2680    1.4130   18.8640 C   0  0  0  0  0  0  0  0  0  0  0  0
    3.1380    2.2480   19.0660 C   0  0  0  0  0  0  0  0  0  0  0  0
    2.7400    2.5840   20.3290 C   0  0  0  0  0  0  0  0  0  0  0  0
    3.4370    2.0870   21.4540 C   0  0  0  0  0  0  0  0  0  0  0  0
    4.5240    1.2670   21.2890 C   0  0  0  0  0  0  0  0  0  0  0  0
    4.9820    0.9300   19.9800 C   0  0  0  0  0  0  0  0  0  0  0  0
    5.0370    0.8660   22.1610 H   0  0  0  0  0  0  0  0  0  0  0  0
    3.1060    2.3620   22.4500 H   0  0  0  0  0  0  0  0  0  0  0  0
    1.8870    3.2380   20.4740 H   0  0  0  0  0  0  0  0  0  0  0  0
    2.6080    2.6130   18.1910 H   0  0  0  0  0  0  0  0  0  0  0  0
    4.1870    1.4170   16.6930 H   0  0  0  0  0  0  0  0  0  0  0  0
    7.2600   -0.8740   18.2010 H   0  0  0  0  0  0  0  0  0  0  0  0
    8.0320    0.2010   21.4300 C   0  0  0  0  0  0  0  0  0  0  0  0
    8.4910   -0.8800   22.4490 C   0  0  2  0  0  0  0  0  0  0  0  0
    9.7480   -1.6080   21.9260 C   0  0  0  0  0  0  0  0  0  0  0  0
    9.5740   -2.1100   20.9650 H   0  0  0  0  0  0  0  0  0  0  0  0
   10.1030   -2.3540   22.6440 H   0  0  0  0  0  0  0  0  0  0  0  0
   10.5640   -0.8870   21.7810 H   0  0  0  0  0  0  0  0  0  0  0  0
    8.7860   -0.4060   23.3940 H   0  0  0  0  0  0  0  0  0  0  0  0
    8.8000    0.4460   20.6850 H   0  0  0  0  0  0  0  0  0  0  0  0
    7.7410    1.1370   21.9360 H   0  0  0  0  0  0  0  0  0  0  0  0
    6.4720   -1.4450   23.9970 C   0  0  0  0  0  0  0  0  0  0  0  0
    6.4070   -0.1380   24.5120 C   0  0  0  0  0  0  0  0  0  0  0  0
    5.7240    0.0950   25.6970 C   0  0  0  0  0  0  0  0  0  0  0  0
    5.6270    1.3560   26.1590 F   0  0  0  0  0  0  0  0  0  0  0  0
    5.1280   -0.9150   26.4490 C   0  0  0  0  0  0  0  0  0  0  0  0
    5.1950   -2.1990   25.9480 C   0  0  0  0  0  0  0  0  0  0  0  0
    5.7930   -2.4440   24.7140 C   0  0  0  0  0  0  0  0  0  0  0  0
    5.5650   -3.7770   24.1080 C   0  0  0  0  0  0  0  0  0  0  0  0
    4.8890   -4.6420   24.6470 O   0  0  0  0  0  0  0  0  0  0  0  0
    4.7420   -3.0360   26.4700 H   0  0  0  0  0  0  0  0  0  0  0  0
    4.6000   -0.6700   27.3680 H   0  0  0  0  0  0  0  0  0  0  0  0
    6.8670    0.7170   24.0200 H   0  0  0  0  0  0  0  0  0  0  0  0
    7.7810   -3.5550   21.6490 H   0  0  0  0  0  0  0  0  0  0  0  0
    8.1490   -3.6200   23.3670 H   0  0  0  0  0  0  0  0  0  0  0  0
    5.7620   -4.6380   20.9770 H   0  0  0  0  0  0  0  0  0  0  0  0
    4.5890   -5.0620   22.2090 H   0  0  0  0  0  0  0  0  0  0  0  0
    7.6740   -6.2040   22.2040 O   0  0  0  0  0  0  0  0  0  0  0  0
    8.2060   -7.3420   22.7650 N   0  0  0  0  0  0  0  0  0  0  0  0
    4.9760   -7.3460   23.5340 H   0  0  0  0  0  0  0  0  0  0  0  0
    6.8320   -9.4870   24.7070 H   0  0  0  0  0  0  0  0  0  0  0  0
    7.3010  -10.1060   23.1320 H   0  0  0  0  0  0  0  0  0  0  0  0
    8.5260   -9.3050   24.1370 H   0  0  0  0  0  0  0  0  0  0  0  0
  1  2  1  0  0  0  0
  1 56  1  0  0  0  0
  1 57  1  0  0  0  0
  1 58  1  0  0  0  0
  2  3  1  0  0  0  0
  2 54  2  0  0  0  0
  3  4  2  0  0  0  0
  3 55  1  0  0  0  0
  4  5  1  0  0  0  0
  4 53  1  0  0  0  0
  5  6  1  0  0  0  0
  5 51  1  0  0  0  0
  5 52  1  0  0  0  0
  6  7  1  0  0  0  0
  6 44  1  0  0  0  0
  7  8  1  0  0  0  0
  7 49  1  0  0  0  0
  7 50  1  0  0  0  0
  8  9  1  6  0  0  0
  8 29  1  0  0  0  0
  8 37  1  0  0  0  0
  9 10  2  0  0  0  0
  9 11  1  0  0  0  0
 11 12  1  0  0  0  0
 11 28  1  0  0  0  0
 12 13  2  0  0  0  0
 12 21  1  0  0  0  0
 13 14  1  0  0  0  0
 13 27  1  0  0  0  0
 14 15  2  0  0  0  0
 15 16  1  0  0  0  0
 15 26  1  0  0  0  0
 16 17  2  0  0  0  0
 16 21  1  0  0  0  0
 17 18  1  0  0  0  0
 17 25  1  0  0  0  0
 18 19  2  0  0  0  0
 18 24  1  0  0  0  0
 19 20  1  0  0  0  0
 19 23  1  0  0  0  0
 20 21  2  0  0  0  0
 20 22  1  0  0  0  0
 28 29  1  0  0  0  0
 28 35  1  0  0  0  0
 28 36  1  0  0  0  0
 29 30  1  0  0  0  0
 29 34  1  1  0  0  0
 30 31  1  0  0  0  0
 30 32  1  0  0  0  0
 30 33  1  0  0  0  0
 37 38  2  0  0  0  0
 37 43  1  0  0  0  0
 38 39  1  0  0  0  0
 38 48  1  0  0  0  0
 39 40  1  0  0  0  0
 39 41  2  0  0  0  0
 41 42  1  0  0  0  0
 41 47  1  0  0  0  0
 42 43  2  0  0  0  0
 42 46  1  0  0  0  0
 43 44  1  0  0  0  0
 44 45  2  0  0  0  0
 53 54  1  0  0  0  0
M  END
>  <MODEL>
       1

$$$$
