output/tmp_first_model_7_40.pdb
 OpenBabel07222621533D

 57 61  0  0  1  0  0  0  0  0999 V2000
    7.7940   -8.5030   23.1340 C   0  0  0  0  0  0  0  0  0  0  0  0
    6.8640   -7.4520   22.7830 N   0  0  0  0  0  0  0  0  0  0  0  0
    7.1540   -6.6240   21.7470 C   0  0  0  0  0  0  0  0  0  0  0  0
    8.0350   -6.8400   20.9300 O   0  0  0  0  0  0  0  0  0  0  0  0
    6.2780   -5.3690   21.7050 C   0  0  0  0  0  0  0  0  0  0  0  0
    6.7240   -4.3870   22.6720 N   0  0  0  0  0  0  0  0  0  0  0  0
    7.7970   -3.4760   22.3320 C   0  0  0  0  0  0  0  0  0  0  0  0
    7.4020   -2.0200   22.6790 C   0  0  2  0  0  0  0  0  0  0  0  0
    6.2750   -1.6180   21.7000 C   0  0  0  0  0  0  0  0  0  0  0  0
    5.1950   -2.1600   21.6030 O   0  0  0  0  0  0  0  0  0  0  0  0
    6.7190   -0.5790   20.9030 N   0  0  0  0  0  0  0  0  0  0  0  0
    5.9490   -0.0270   19.8610 C   0  0  0  0  0  0  0  0  0  0  0  0
    6.4200   -0.0720   18.5700 C   0  0  0  0  0  0  0  0  0  0  0  0
    5.7690    0.4180   17.4910 N   0  0  0  0  0  0  0  0  0  0  0  0
    4.6080    0.9880   17.6960 C   0  0  0  0  0  0  0  0  0  0  0  0
    3.9910    1.0970   18.9750 C   0  0  0  0  0  0  0  0  0  0  0  0
    2.7290    1.7340   19.1270 C   0  0  0  0  0  0  0  0  0  0  0  0
    2.1570    1.8360   20.3650 C   0  0  0  0  0  0  0  0  0  0  0  0
    2.8080    1.2880   21.4900 C   0  0  0  0  0  0  0  0  0  0  0  0
    4.0240    0.6680   21.3700 C   0  0  0  0  0  0  0  0  0  0  0  0
    4.6640    0.5690   20.1010 C   0  0  0  0  0  0  0  0  0  0  0  0
    4.4860    0.2440   22.2500 H   0  0  0  0  0  0  0  0  0  0  0  0
    2.3410    1.3800   22.4650 H   0  0  0  0  0  0  0  0  0  0  0  0
    1.2070    2.3470   20.4880 H   0  0  0  0  0  0  0  0  0  0  0  0
    2.2450    2.1480   18.2430 H   0  0  0  0  0  0  0  0  0  0  0  0
    4.0700    1.3520   16.8200 H   0  0  0  0  0  0  0  0  0  0  0  0
    7.3520   -0.5920   18.3570 H   0  0  0  0  0  0  0  0  0  0  0  0
    8.1680   -0.4500   20.9500 C   0  0  0  0  0  0  0  0  0  0  0  0
    8.5160   -0.9970   22.3390 C   0  0  2  0  0  0  0  0  0  0  0  0
    9.9530   -1.5350   22.4530 C   0  0  0  0  0  0  0  0  0  0  0  0
   10.9620   -0.4780   22.2920 C   0  0  0  0  0  0  0  0  0  0  0  0
   11.7560    0.3570   22.1840 N   0  0  0  0  0  0  0  0  0  0  0  0
   10.1400   -2.3000   21.6910 H   0  0  0  0  0  0  0  0  0  0  0  0
   10.1090   -1.9970   23.4350 H   0  0  0  0  0  0  0  0  0  0  0  0
    8.4220   -0.1670   23.0380 H   0  0  0  0  0  0  0  0  0  0  0  0
    8.6620   -1.0350   20.1600 H   0  0  0  0  0  0  0  0  0  0  0  0
    8.4440    0.5980   20.8240 H   0  0  0  0  0  0  0  0  0  0  0  0
    6.9120   -1.9940   24.1190 C   0  0  0  0  0  0  0  0  0  0  0  0
    6.8790   -0.7970   24.8460 C   0  0  0  0  0  0  0  0  0  0  0  0
    6.4100   -0.7910   26.1460 C   0  0  0  0  0  0  0  0  0  0  0  0
    6.3790    0.7110   27.0270 Cl  0  0  0  0  0  0  0  0  0  0  0  0
    5.9480   -1.9520   26.7640 C   0  0  0  0  0  0  0  0  0  0  0  0
    5.9290   -3.1280   26.0390 C   0  0  0  0  0  0  0  0  0  0  0  0
    6.3840   -3.1490   24.7200 C   0  0  0  0  0  0  0  0  0  0  0  0
    6.2090   -4.4090   23.9290 C   0  0  0  0  0  0  0  0  0  0  0  0
    5.5960   -5.3870   24.3680 O   0  0  0  0  0  0  0  0  0  0  0  0
    5.5470   -4.0490   26.4670 H   0  0  0  0  0  0  0  0  0  0  0  0
    5.5900   -1.9110   27.7870 H   0  0  0  0  0  0  0  0  0  0  0  0
    7.1850    0.1460   24.4040 H   0  0  0  0  0  0  0  0  0  0  0  0
    8.7100   -3.7760   22.8620 H   0  0  0  0  0  0  0  0  0  0  0  0
    7.9760   -3.5490   21.2620 H   0  0  0  0  0  0  0  0  0  0  0  0
    5.2420   -5.6070   21.9650 H   0  0  0  0  0  0  0  0  0  0  0  0
    6.3150   -4.9320   20.7020 H   0  0  0  0  0  0  0  0  0  0  0  0
    6.2530   -7.0810   23.5040 H   0  0  0  0  0  0  0  0  0  0  0  0
    7.3210   -9.1650   23.8630 H   0  0  0  0  0  0  0  0  0  0  0  0
    8.0590   -9.0680   22.2370 H   0  0  0  0  0  0  0  0  0  0  0  0
    8.7170   -8.0990   23.5700 H   0  0  0  0  0  0  0  0  0  0  0  0
  1  2  1  0  0  0  0
  1 55  1  0  0  0  0
  1 56  1  0  0  0  0
  1 57  1  0  0  0  0
  2  3  1  0  0  0  0
  2 54  1  0  0  0  0
  3  4  2  0  0  0  0
  3  5  1  0  0  0  0
  5  6  1  0  0  0  0
  5 52  1  0  0  0  0
  5 53  1  0  0  0  0
  6  7  1  0  0  0  0
  6 45  1  0  0  0  0
  7  8  1  0  0  0  0
  7 50  1  0  0  0  0
  7 51  1  0  0  0  0
  8  9  1  6  0  0  0
  8 29  1  0  0  0  0
  8 38  1  0  0  0  0
  9 10  2  0  0  0  0
  9 11  1  0  0  0  0
 11 12  1  0  0  0  0
 11 28  1  0  0  0  0
 12 13  2  0  0  0  0
 12 21  1  0  0  0  0
 13 14  1  0  0  0  0
 13 27  1  0  0  0  0
 14 15  2  0  0  0  0
 15 16  1  0  0  0  0
 15 26  1  0  0  0  0
 16 17  2  0  0  0  0
 16 21  1  0  0  0  0
 17 18  1  0  0  0  0
 17 25  1  0  0  0  0
 18 19  2  0  0  0  0
 18 24  1  0  0  0  0
 19 20  1  0  0  0  0
 19 23  1  0  0  0  0
 20 21  2  0  0  0  0
 20 22  1  0  0  0  0
 28 29  1  0  0  0  0
 28 36  1  0  0  0  0
 28 37  1  0  0  0  0
 29 30  1  0  0  0  0
 29 35  1  1  0  0  0
 30 31  1  0  0  0  0
 30 33  1  0  0  0  0
 30 34  1  0  0  0  0
 31 32  3  0  0  0  0
 38 39  2  0  0  0  0
 38 44  1  0  0  0  0
 39 40  1  0  0  0  0
 39 49  1  0  0  0  0
 40 41  1  0  0  0  0
 40 42  2  0  0  0  0
 42 43  1  0  0  0  0
 42 48  1  0  0  0  0
 43 44  2  0  0  0  0
 43 47  1  0  0  0  0
 44 45  1  0  0  0  0
 45 46  2  0  0  0  0
M  END
>  <MODEL>
       1

$$$$
