output/tmp_first_model_11_39.pdb
 OpenBabel07222623443D

 60 64  0  0  1  0  0  0  0  0999 V2000
   11.6000   -2.7720   21.3250 C   0  0  0  0  0  0  0  0  0  0  0  0
   10.8100   -1.6210   21.9130 C   0  0  0  0  0  0  0  0  0  0  0  0
    9.4480   -1.9860   21.8980 O   0  0  0  0  0  0  0  0  0  0  0  0
    8.5700   -0.9660   22.3340 C   0  0  1  0  0  0  0  0  0  0  0  0
    8.1760   -0.0760   21.1460 C   0  0  0  0  0  0  0  0  0  0  0  0
    6.8320   -0.4990   20.8300 N   0  0  0  0  0  0  0  0  0  0  0  0
    6.0870    0.0610   19.7750 C   0  0  0  0  0  0  0  0  0  0  0  0
    6.4440   -0.2100   18.4800 C   0  0  0  0  0  0  0  0  0  0  0  0
    5.7800    0.2450   17.3960 N   0  0  0  0  0  0  0  0  0  0  0  0
    4.7410    1.0150   17.6120 C   0  0  0  0  0  0  0  0  0  0  0  0
    4.2840    1.3940   18.9050 C   0  0  0  0  0  0  0  0  0  0  0  0
    3.1630    2.2450   19.0670 C   0  0  0  0  0  0  0  0  0  0  0  0
    2.7680    2.6400   20.3130 C   0  0  0  0  0  0  0  0  0  0  0  0
    3.4750    2.2000   21.4550 C   0  0  0  0  0  0  0  0  0  0  0  0
    4.5610    1.3700   21.3320 C   0  0  0  0  0  0  0  0  0  0  0  0
    4.9800    0.9270   20.0400 C   0  0  0  0  0  0  0  0  0  0  0  0
    5.0980    1.0560   22.2290 H   0  0  0  0  0  0  0  0  0  0  0  0
    3.1560    2.5350   22.4380 H   0  0  0  0  0  0  0  0  0  0  0  0
    1.9230    3.3110   20.4300 H   0  0  0  0  0  0  0  0  0  0  0  0
    2.6550    2.5980   18.1730 H   0  0  0  0  0  0  0  0  0  0  0  0
    4.2070    1.3870   16.7380 H   0  0  0  0  0  0  0  0  0  0  0  0
    7.3010   -0.8560   18.2900 H   0  0  0  0  0  0  0  0  0  0  0  0
    6.2760   -1.3920   21.7100 C   0  0  0  0  0  0  0  0  0  0  0  0
    5.1790   -1.8950   21.5780 O   0  0  0  0  0  0  0  0  0  0  0  0
    7.2740   -1.6140   22.8640 C   0  0  1  0  0  0  0  0  0  0  0  0
    7.5020   -3.1220   23.1070 C   0  0  0  0  0  0  0  0  0  0  0  0
    6.4140   -3.7600   23.8350 N   0  0  0  0  0  0  0  0  0  0  0  0
    5.9930   -5.1030   23.4400 C   0  0  0  0  0  0  0  0  0  0  0  0
    4.7210   -4.9940   22.5780 C   0  0  0  0  0  0  0  0  0  0  0  0
    4.7560   -5.0150   21.3600 O   0  0  0  0  0  0  0  0  0  0  0  0
    3.5860   -4.8570   23.3190 N   0  0  0  0  0  0  0  0  0  0  0  0
    2.3630   -4.4280   22.6830 C   0  0  0  0  0  0  0  0  0  0  0  0
    1.5990   -4.2810   23.4530 H   0  0  0  0  0  0  0  0  0  0  0  0
    2.0080   -5.1750   21.9680 H   0  0  0  0  0  0  0  0  0  0  0  0
    2.5530   -3.4960   22.1440 H   0  0  0  0  0  0  0  0  0  0  0  0
    3.7240   -4.6170   24.2970 H   0  0  0  0  0  0  0  0  0  0  0  0
    5.8140   -5.7100   24.3390 H   0  0  0  0  0  0  0  0  0  0  0  0
    6.8020   -5.5690   22.8650 H   0  0  0  0  0  0  0  0  0  0  0  0
    5.7380   -3.1430   24.8410 C   0  0  0  0  0  0  0  0  0  0  0  0
    4.8900   -3.7390   25.5140 O   0  0  0  0  0  0  0  0  0  0  0  0
    6.0490   -1.7050   25.0820 C   0  0  0  0  0  0  0  0  0  0  0  0
    5.5720   -1.1060   26.2490 C   0  0  0  0  0  0  0  0  0  0  0  0
    5.7680    0.2400   26.4830 C   0  0  0  0  0  0  0  0  0  0  0  0
    6.4450    0.9850   25.5200 C   0  0  0  0  0  0  0  0  0  0  0  0
    6.6940    2.6890   25.7770 Cl  0  0  0  0  0  0  0  0  0  0  0  0
    6.9310    0.4020   24.3620 C   0  0  0  0  0  0  0  0  0  0  0  0
    6.7600   -0.9680   24.1350 C   0  0  0  0  0  0  0  0  0  0  0  0
    7.4480    1.0240   23.6390 H   0  0  0  0  0  0  0  0  0  0  0  0
    5.3920    0.7170   27.3820 H   0  0  0  0  0  0  0  0  0  0  0  0
    5.0430   -1.7200   26.9670 H   0  0  0  0  0  0  0  0  0  0  0  0
    7.6000   -3.6150   22.1390 H   0  0  0  0  0  0  0  0  0  0  0  0
    8.4390   -3.2390   23.6590 H   0  0  0  0  0  0  0  0  0  0  0  0
    8.2130    0.9950   21.3840 H   0  0  0  0  0  0  0  0  0  0  0  0
    8.8470   -0.2600   20.3070 H   0  0  0  0  0  0  0  0  0  0  0  0
    9.0600   -0.4020   23.1370 H   0  0  0  0  0  0  0  0  0  0  0  0
   10.9680   -0.6930   21.3460 H   0  0  0  0  0  0  0  0  0  0  0  0
   11.1360   -1.4400   22.9490 H   0  0  0  0  0  0  0  0  0  0  0  0
   12.5910   -2.4450   21.0160 H   0  0  0  0  0  0  0  0  0  0  0  0
   11.1140   -3.1740   20.4330 H   0  0  0  0  0  0  0  0  0  0  0  0
   11.7000   -3.5710   22.0640 H   0  0  0  0  0  0  0  0  0  0  0  0
  1  2  1  0  0  0  0
  1 58  1  0  0  0  0
  1 59  1  0  0  0  0
  1 60  1  0  0  0  0
  2  3  1  0  0  0  0
  2 56  1  0  0  0  0
  2 57  1  0  0  0  0
  3  4  1  0  0  0  0
  4  5  1  0  0  0  0
  4 25  1  0  0  0  0
  4 55  1  1  0  0  0
  5  6  1  0  0  0  0
  5 53  1  0  0  0  0
  5 54  1  0  0  0  0
  6  7  1  0  0  0  0
  6 23  1  0  0  0  0
  7  8  2  0  0  0  0
  7 16  1  0  0  0  0
  8  9  1  0  0  0  0
  8 22  1  0  0  0  0
  9 10  2  0  0  0  0
 10 11  1  0  0  0  0
 10 21  1  0  0  0  0
 11 12  2  0  0  0  0
 11 16  1  0  0  0  0
 12 13  1  0  0  0  0
 12 20  1  0  0  0  0
 13 14  2  0  0  0  0
 13 19  1  0  0  0  0
 14 15  1  0  0  0  0
 14 18  1  0  0  0  0
 15 16  2  0  0  0  0
 15 17  1  0  0  0  0
 23 24  2  0  0  0  0
 25 23  1  6  0  0  0
 25 26  1  0  0  0  0
 25 47  1  0  0  0  0
 26 27  1  0  0  0  0
 26 51  1  0  0  0  0
 26 52  1  0  0  0  0
 27 28  1  0  0  0  0
 27 39  1  0  0  0  0
 28 29  1  0  0  0  0
 28 37  1  0  0  0  0
 28 38  1  0  0  0  0
 29 30  2  0  0  0  0
 29 31  1  0  0  0  0
 31 32  1  0  0  0  0
 31 36  1  0  0  0  0
 32 33  1  0  0  0  0
 32 34  1  0  0  0  0
 32 35  1  0  0  0  0
 39 40  2  0  0  0  0
 39 41  1  0  0  0  0
 41 42  2  0  0  0  0
 41 47  1  0  0  0  0
 42 43  1  0  0  0  0
 42 50  1  0  0  0  0
 43 44  2  0  0  0  0
 43 49  1  0  0  0  0
 44 45  1  0  0  0  0
 44 46  1  0  0  0  0
 46 47  2  0  0  0  0
 46 48  1  0  0  0  0
M  END
>  <MODEL>
       1

$$$$
