output/tmp_first_model_1_39.pdb
 OpenBabel07222618483D

 60 64  0  0  1  0  0  0  0  0999 V2000
    8.1700   -4.4350   24.9140 C   0  0  0  0  0  0  0  0  0  0  0  0
    8.6660   -3.5340   23.8000 C   0  0  0  0  0  0  0  0  0  0  0  0
    7.5770   -2.7510   23.3490 O   0  0  0  0  0  0  0  0  0  0  0  0
    7.9240   -1.8840   22.2940 C   0  0  1  0  0  0  0  0  0  0  0  0
    6.7660   -1.8310   21.3000 C   0  0  0  0  0  0  0  0  0  0  0  0
    6.7530   -0.4520   20.8680 N   0  0  0  0  0  0  0  0  0  0  0  0
    5.9020   -0.0410   19.8090 C   0  0  0  0  0  0  0  0  0  0  0  0
    6.3530   -0.1460   18.5210 C   0  0  0  0  0  0  0  0  0  0  0  0
    5.6190    0.1290   17.4160 N   0  0  0  0  0  0  0  0  0  0  0  0
    4.3890    0.5400   17.6050 C   0  0  0  0  0  0  0  0  0  0  0  0
    3.7870    0.7030   18.8840 C   0  0  0  0  0  0  0  0  0  0  0  0
    2.4960    1.2850   19.0430 C   0  0  0  0  0  0  0  0  0  0  0  0
    1.9180    1.3790   20.2790 C   0  0  0  0  0  0  0  0  0  0  0  0
    2.6330    0.9430   21.4140 C   0  0  0  0  0  0  0  0  0  0  0  0
    3.9150    0.4560   21.3020 C   0  0  0  0  0  0  0  0  0  0  0  0
    4.5390    0.3480   20.0290 C   0  0  0  0  0  0  0  0  0  0  0  0
    4.4740    0.1900   22.1900 H   0  0  0  0  0  0  0  0  0  0  0  0
    2.1760    1.0390   22.3920 H   0  0  0  0  0  0  0  0  0  0  0  0
    0.9090    1.7740   20.4010 H   0  0  0  0  0  0  0  0  0  0  0  0
    2.0060    1.7090   18.1750 H   0  0  0  0  0  0  0  0  0  0  0  0
    3.7950    0.7260   16.7150 H   0  0  0  0  0  0  0  0  0  0  0  0
    7.3630   -0.5060   18.3390 H   0  0  0  0  0  0  0  0  0  0  0  0
    7.6410    0.3760   21.5300 C   0  0  0  0  0  0  0  0  0  0  0  0
    7.8810    1.5260   21.2230 O   0  0  0  0  0  0  0  0  0  0  0  0
    8.2040   -0.4060   22.7350 C   0  0  1  0  0  0  0  0  0  0  0  0
    7.3390   -0.0440   23.9750 C   0  0  0  0  0  0  0  0  0  0  0  0
    7.9390   -0.5180   25.2140 N   0  0  0  0  0  0  0  0  0  0  0  0
    7.1240   -1.1090   26.2580 C   0  0  0  0  0  0  0  0  0  0  0  0
    6.4740   -0.0490   27.1510 C   0  0  0  0  0  0  0  0  0  0  0  0
    5.3540    0.3830   26.9340 O   0  0  0  0  0  0  0  0  0  0  0  0
    7.2510    0.3590   28.1900 N   0  0  0  0  0  0  0  0  0  0  0  0
    6.7870    1.4420   29.0310 C   0  0  0  0  0  0  0  0  0  0  0  0
    5.8020    1.1950   29.4350 H   0  0  0  0  0  0  0  0  0  0  0  0
    6.7010    2.3880   28.4810 H   0  0  0  0  0  0  0  0  0  0  0  0
    7.4880    1.5740   29.8590 H   0  0  0  0  0  0  0  0  0  0  0  0
    8.2480    0.1900   28.1180 H   0  0  0  0  0  0  0  0  0  0  0  0
    6.3390   -1.7210   25.8060 H   0  0  0  0  0  0  0  0  0  0  0  0
    7.7820   -1.7510   26.8560 H   0  0  0  0  0  0  0  0  0  0  0  0
    9.2300   -0.2370   25.5190 C   0  0  0  0  0  0  0  0  0  0  0  0
    9.6430   -0.1930   26.6820 O   0  0  0  0  0  0  0  0  0  0  0  0
   10.1340   -0.0520   24.3590 C   0  0  0  0  0  0  0  0  0  0  0  0
   11.4810    0.1220   24.6580 C   0  0  0  0  0  0  0  0  0  0  0  0
   12.4090    0.2440   23.6520 C   0  0  0  0  0  0  0  0  0  0  0  0
   11.9630    0.2300   22.3350 C   0  0  0  0  0  0  0  0  0  0  0  0
   13.2040    0.4950   21.1400 Cl  0  0  0  0  0  0  0  0  0  0  0  0
   10.6240    0.0390   22.0100 C   0  0  0  0  0  0  0  0  0  0  0  0
    9.6710   -0.1170   23.0360 C   0  0  0  0  0  0  0  0  0  0  0  0
   10.3100    0.0190   20.9710 H   0  0  0  0  0  0  0  0  0  0  0  0
   13.4690    0.3470   23.8600 H   0  0  0  0  0  0  0  0  0  0  0  0
   11.7770    0.1490   25.6960 H   0  0  0  0  0  0  0  0  0  0  0  0
    7.1880    1.0430   24.0020 H   0  0  0  0  0  0  0  0  0  0  0  0
    6.3600   -0.5250   23.8820 H   0  0  0  0  0  0  0  0  0  0  0  0
    6.9220   -2.5090   20.4490 H   0  0  0  0  0  0  0  0  0  0  0  0
    5.8340   -2.1240   21.8040 H   0  0  0  0  0  0  0  0  0  0  0  0
    8.8250   -2.2600   21.7880 H   0  0  0  0  0  0  0  0  0  0  0  0
    9.4940   -2.8890   24.1300 H   0  0  0  0  0  0  0  0  0  0  0  0
    9.0300   -4.0900   22.9320 H   0  0  0  0  0  0  0  0  0  0  0  0
    7.3360   -5.0500   24.5670 H   0  0  0  0  0  0  0  0  0  0  0  0
    8.9610   -5.0980   25.2830 H   0  0  0  0  0  0  0  0  0  0  0  0
    7.8170   -3.8290   25.7540 H   0  0  0  0  0  0  0  0  0  0  0  0
  1  2  1  0  0  0  0
  1 58  1  0  0  0  0
  1 59  1  0  0  0  0
  1 60  1  0  0  0  0
  2  3  1  0  0  0  0
  2 56  1  0  0  0  0
  2 57  1  0  0  0  0
  3  4  1  0  0  0  0
  4  5  1  0  0  0  0
  4 25  1  0  0  0  0
  4 55  1  6  0  0  0
  5  6  1  0  0  0  0
  5 53  1  0  0  0  0
  5 54  1  0  0  0  0
  6  7  1  0  0  0  0
  6 23  1  0  0  0  0
  7  8  2  0  0  0  0
  7 16  1  0  0  0  0
  8  9  1  0  0  0  0
  8 22  1  0  0  0  0
  9 10  2  0  0  0  0
 10 11  1  0  0  0  0
 10 21  1  0  0  0  0
 11 12  2  0  0  0  0
 11 16  1  0  0  0  0
 12 13  1  0  0  0  0
 12 20  1  0  0  0  0
 13 14  2  0  0  0  0
 13 19  1  0  0  0  0
 14 15  1  0  0  0  0
 14 18  1  0  0  0  0
 15 16  2  0  0  0  0
 15 17  1  0  0  0  0
 23 24  2  0  0  0  0
 25 23  1  6  0  0  0
 25 26  1  0  0  0  0
 25 47  1  0  0  0  0
 26 27  1  0  0  0  0
 26 51  1  0  0  0  0
 26 52  1  0  0  0  0
 27 28  1  0  0  0  0
 27 39  1  0  0  0  0
 28 29  1  0  0  0  0
 28 37  1  0  0  0  0
 28 38  1  0  0  0  0
 29 30  2  0  0  0  0
 29 31  1  0  0  0  0
 31 32  1  0  0  0  0
 31 36  1  0  0  0  0
 32 33  1  0  0  0  0
 32 34  1  0  0  0  0
 32 35  1  0  0  0  0
 39 40  2  0  0  0  0
 39 41  1  0  0  0  0
 41 42  2  0  0  0  0
 41 47  1  0  0  0  0
 42 43  1  0  0  0  0
 42 50  1  0  0  0  0
 43 44  2  0  0  0  0
 43 49  1  0  0  0  0
 44 45  1  0  0  0  0
 44 46  1  0  0  0  0
 46 47  2  0  0  0  0
 46 48  1  0  0  0  0
M  END
>  <MODEL>
       1

$$$$
