output/tmp_first_model_15_52.pdb
 OpenBabel07232601353D

 66 71  0  0  1  0  0  0  0  0999 V2000
    6.6290    4.3740   21.3370 C   0  0  0  0  0  0  0  0  0  0  0  0
    7.6180    4.0190   22.3480 N   0  0  0  0  0  0  0  0  0  0  0  0
    7.1360    3.3340   23.4270 C   0  0  0  0  0  0  0  0  0  0  0  0
    5.9380    3.1450   23.5900 O   0  0  0  0  0  0  0  0  0  0  0  0
    8.1230    2.8120   24.4710 C   0  0  0  0  0  0  0  0  0  0  0  0
    8.8050    1.6230   24.0010 N   0  0  0  0  0  0  0  0  0  0  0  0
    8.0310    0.3990   23.8960 C   0  0  0  0  0  0  0  0  0  0  0  0
    8.4380   -0.4140   22.6560 C   0  0  2  0  0  0  0  0  0  0  0  0
    7.9600    0.2770   21.3570 C   0  0  0  0  0  0  0  0  0  0  0  0
    8.4270    1.2750   20.8420 O   0  0  0  0  0  0  0  0  0  0  0  0
    6.9040   -0.4410   20.8540 N   0  0  0  0  0  0  0  0  0  0  0  0
    6.1300    0.0790   19.7860 C   0  0  0  0  0  0  0  0  0  0  0  0
    6.4750   -0.2140   18.4930 C   0  0  0  0  0  0  0  0  0  0  0  0
    5.8000    0.2260   17.4070 N   0  0  0  0  0  0  0  0  0  0  0  0
    4.7650    1.0020   17.6100 C   0  0  0  0  0  0  0  0  0  0  0  0
    4.3070    1.3960   18.8990 C   0  0  0  0  0  0  0  0  0  0  0  0
    3.1870    2.2510   19.0720 C   0  0  0  0  0  0  0  0  0  0  0  0
    2.7820    2.6250   20.3240 C   0  0  0  0  0  0  0  0  0  0  0  0
    3.4760    2.1640   21.4650 C   0  0  0  0  0  0  0  0  0  0  0  0
    4.5620    1.3310   21.3250 C   0  0  0  0  0  0  0  0  0  0  0  0
    5.0060    0.9230   20.0360 C   0  0  0  0  0  0  0  0  0  0  0  0
    5.1080    1.0190   22.2110 H   0  0  0  0  0  0  0  0  0  0  0  0
    3.1670    2.4850   22.4560 H   0  0  0  0  0  0  0  0  0  0  0  0
    1.9270    3.2830   20.4440 H   0  0  0  0  0  0  0  0  0  0  0  0
    2.6770    2.6120   18.1830 H   0  0  0  0  0  0  0  0  0  0  0  0
    4.2220    1.3590   16.7330 H   0  0  0  0  0  0  0  0  0  0  0  0
    7.3430   -0.8420   18.3010 H   0  0  0  0  0  0  0  0  0  0  0  0
    6.5310   -1.5910   21.6520 C   0  0  0  0  0  0  0  0  0  0  0  0
    7.7390   -1.8040   22.5730 C   0  0  2  0  0  0  0  0  0  0  0  0
    7.3560   -2.5120   23.8690 C   0  0  0  0  0  0  0  0  0  0  0  0
    8.5140   -2.8610   24.6630 N   0  0  0  0  0  0  0  0  0  0  0  0
    8.3890   -3.4440   25.8840 C   0  0  0  0  0  0  0  0  0  0  0  0
    9.5150   -3.8010   26.6530 C   0  0  0  0  0  0  0  0  0  0  0  0
    9.2750   -4.3040   27.9090 C   0  0  0  0  0  0  0  0  0  0  0  0
    8.0430   -4.5130   28.3980 N   0  0  0  0  0  0  0  0  0  0  0  0
    7.0640   -4.1800   27.5750 C   0  0  0  0  0  0  0  0  0  0  0  0
    7.1510   -3.6630   26.3480 N   0  0  0  0  0  0  0  0  0  0  0  0
    6.0520   -4.3520   27.9410 H   0  0  0  0  0  0  0  0  0  0  0  0
   10.1000   -4.5520   28.5760 H   0  0  0  0  0  0  0  0  0  0  0  0
   10.5280   -3.6560   26.2890 H   0  0  0  0  0  0  0  0  0  0  0  0
    9.4370   -2.6490   24.3120 H   0  0  0  0  0  0  0  0  0  0  0  0
    6.8120   -3.4340   23.6320 H   0  0  0  0  0  0  0  0  0  0  0  0
    6.6780   -1.8920   24.4720 H   0  0  0  0  0  0  0  0  0  0  0  0
    8.4330   -2.4760   22.0590 H   0  0  0  0  0  0  0  0  0  0  0  0
    6.3500   -2.4570   21.0100 H   0  0  0  0  0  0  0  0  0  0  0  0
    5.6110   -1.4050   22.2290 H   0  0  0  0  0  0  0  0  0  0  0  0
    9.9420   -0.4790   22.6090 C   0  0  0  0  0  0  0  0  0  0  0  0
   10.5130   -1.3560   21.6930 C   0  0  0  0  0  0  0  0  0  0  0  0
   11.8770   -1.3730   21.5150 C   0  0  0  0  0  0  0  0  0  0  0  0
   12.4700   -2.3990   20.2520 Cl  0  0  0  0  0  0  0  0  0  0  0  0
   12.7350   -0.5750   22.2750 C   0  0  0  0  0  0  0  0  0  0  0  0
   12.1690    0.3400   23.1460 C   0  0  0  0  0  0  0  0  0  0  0  0
   10.7790    0.4280   23.2670 C   0  0  0  0  0  0  0  0  0  0  0  0
   10.1760    1.5990   23.9800 C   0  0  0  0  0  0  0  0  0  0  0  0
   10.8540    2.5000   24.4570 O   0  0  0  0  0  0  0  0  0  0  0  0
   12.7840    1.0340   23.7110 H   0  0  0  0  0  0  0  0  0  0  0  0
   13.8120   -0.6510   22.1540 H   0  0  0  0  0  0  0  0  0  0  0  0
    9.9100   -2.0100   21.0740 H   0  0  0  0  0  0  0  0  0  0  0  0
    8.1810   -0.2140   24.7950 H   0  0  0  0  0  0  0  0  0  0  0  0
    6.9730    0.6630   23.8460 H   0  0  0  0  0  0  0  0  0  0  0  0
    8.8940    3.5490   24.7170 H   0  0  0  0  0  0  0  0  0  0  0  0
    7.5280    2.5760   25.3680 H   0  0  0  0  0  0  0  0  0  0  0  0
    8.5610    3.8330   22.0200 H   0  0  0  0  0  0  0  0  0  0  0  0
    7.1280    4.9250   20.5380 H   0  0  0  0  0  0  0  0  0  0  0  0
    6.1470    3.4630   20.9430 H   0  0  0  0  0  0  0  0  0  0  0  0
    5.8700    5.0170   21.7980 H   0  0  0  0  0  0  0  0  0  0  0  0
  1  2  1  0  0  0  0
  1 64  1  0  0  0  0
  1 65  1  0  0  0  0
  1 66  1  0  0  0  0
  2  3  1  0  0  0  0
  2 63  1  0  0  0  0
  3  4  2  0  0  0  0
  3  5  1  0  0  0  0
  5  6  1  0  0  0  0
  5 61  1  0  0  0  0
  5 62  1  0  0  0  0
  6  7  1  0  0  0  0
  6 54  1  0  0  0  0
  7  8  1  0  0  0  0
  7 59  1  0  0  0  0
  7 60  1  0  0  0  0
  8  9  1  6  0  0  0
  8 29  1  0  0  0  0
  8 47  1  0  0  0  0
  9 10  2  0  0  0  0
  9 11  1  0  0  0  0
 11 12  1  0  0  0  0
 11 28  1  0  0  0  0
 12 13  2  0  0  0  0
 12 21  1  0  0  0  0
 13 14  1  0  0  0  0
 13 27  1  0  0  0  0
 14 15  2  0  0  0  0
 15 16  1  0  0  0  0
 15 26  1  0  0  0  0
 16 17  2  0  0  0  0
 16 21  1  0  0  0  0
 17 18  1  0  0  0  0
 17 25  1  0  0  0  0
 18 19  2  0  0  0  0
 18 24  1  0  0  0  0
 19 20  1  0  0  0  0
 19 23  1  0  0  0  0
 20 21  2  0  0  0  0
 20 22  1  0  0  0  0
 28 29  1  0  0  0  0
 28 45  1  0  0  0  0
 28 46  1  0  0  0  0
 29 30  1  0  0  0  0
 29 44  1  6  0  0  0
 30 31  1  0  0  0  0
 30 42  1  0  0  0  0
 30 43  1  0  0  0  0
 31 32  1  0  0  0  0
 31 41  1  0  0  0  0
 32 33  2  0  0  0  0
 32 37  1  0  0  0  0
 33 34  1  0  0  0  0
 33 40  1  0  0  0  0
 34 35  2  0  0  0  0
 34 39  1  0  0  0  0
 35 36  1  0  0  0  0
 36 37  2  0  0  0  0
 36 38  1  0  0  0  0
 47 48  2  0  0  0  0
 47 53  1  0  0  0  0
 48 49  1  0  0  0  0
 48 58  1  0  0  0  0
 49 50  1  0  0  0  0
 49 51  2  0  0  0  0
 51 52  1  0  0  0  0
 51 57  1  0  0  0  0
 52 53  2  0  0  0  0
 52 56  1  0  0  0  0
 53 54  1  0  0  0  0
 54 55  2  0  0  0  0
M  END
>  <MODEL>
       1

$$$$
