output/tmp_first_model_18_11.pdb
 OpenBabel07232602473D

 54 57  0  0  1  0  0  0  0  0999 V2000
   10.0790    1.4620   23.8330 C   0  0  0  0  0  0  0  0  0  0  0  0
    8.9420    0.6280   23.8580 O   0  0  0  0  0  0  0  0  0  0  0  0
    9.1840   -0.7150   23.8690 C   0  0  0  0  0  0  0  0  0  0  0  0
   10.4770   -1.2460   23.8100 C   0  0  0  0  0  0  0  0  0  0  0  0
   10.6580   -2.6280   23.8000 C   0  0  0  0  0  0  0  0  0  0  0  0
    9.5640   -3.4780   23.8730 C   0  0  0  0  0  0  0  0  0  0  0  0
    8.2870   -2.9260   23.9440 C   0  0  0  0  0  0  0  0  0  0  0  0
    8.0630   -1.5530   23.9290 C   0  0  0  0  0  0  0  0  0  0  0  0
    6.6470   -1.0040   23.8950 C   0  0  2  0  0  0  0  0  0  0  0  0
    6.0040   -1.1470   25.2730 C   0  0  0  0  0  0  0  0  0  0  0  0
    4.4630   -0.6160   25.3170 C   0  0  2  0  0  0  0  0  0  0  0  0
    4.1520   -0.9140   26.8820 C   0  0  0  0  0  0  0  0  0  0  0  0
    3.1310   -0.5520   27.0590 H   0  0  0  0  0  0  0  0  0  0  0  0
    4.8140   -0.3100   27.5100 H   0  0  0  0  0  0  0  0  0  0  0  0
    4.1510   -1.9340   27.3100 H   0  0  0  0  0  0  0  0  0  0  0  0
    4.5420   -0.9460   25.4650 C   0  0  0  0  0  0  0  0  0  0  0  0
    5.1500   -2.8050   23.2660 C   0  0  0  0  0  0  0  0  0  0  0  0
    5.8600   -1.7720   22.8590 N   0  0  0  0  0  0  0  0  0  0  0  0
    6.1050   -1.6760   21.4590 C   0  0  0  0  0  0  0  0  0  0  0  0
    5.6680   -2.5330   20.7170 O   0  0  0  0  0  0  0  0  0  0  0  0
    6.9060   -0.5060   20.8740 C   0  0  0  0  0  0  0  0  0  0  0  0
    6.1340    0.1300   19.7450 C   0  0  0  0  0  0  0  0  0  0  0  0
    6.4530   -0.1590   18.4450 C   0  0  0  0  0  0  0  0  0  0  0  0
    5.7800    0.2830   17.3540 N   0  0  0  0  0  0  0  0  0  0  0  0
    4.7460    1.0560   17.5620 C   0  0  0  0  0  0  0  0  0  0  0  0
    4.3020    1.4510   18.8510 C   0  0  0  0  0  0  0  0  0  0  0  0
    3.1730    2.2910   19.0210 C   0  0  0  0  0  0  0  0  0  0  0  0
    2.7480    2.6350   20.2740 C   0  0  0  0  0  0  0  0  0  0  0  0
    3.4310    2.1450   21.4080 C   0  0  0  0  0  0  0  0  0  0  0  0
    4.5290    1.3320   21.2690 C   0  0  0  0  0  0  0  0  0  0  0  0
    5.0040    0.9680   19.9800 C   0  0  0  0  0  0  0  0  0  0  0  0
    5.0260    0.9410   22.1560 H   0  0  0  0  0  0  0  0  0  0  0  0
    3.0740    2.4330   22.3930 H   0  0  0  0  0  0  0  0  0  0  0  0
    1.8830    3.2780   20.4050 H   0  0  0  0  0  0  0  0  0  0  0  0
    2.6640    2.6560   18.1330 H   0  0  0  0  0  0  0  0  0  0  0  0
    4.1940    1.4050   16.6870 H   0  0  0  0  0  0  0  0  0  0  0  0
    7.3060   -0.8030   18.2230 H   0  0  0  0  0  0  0  0  0  0  0  0
    7.8340   -0.9300   20.4690 H   0  0  0  0  0  0  0  0  0  0  0  0
    7.2110    0.2180   21.6290 H   0  0  0  0  0  0  0  0  0  0  0  0
    4.7280   -3.4690   22.5320 H   0  0  0  0  0  0  0  0  0  0  0  0
    5.0610   -3.0360   24.3120 H   0  0  0  0  0  0  0  0  0  0  0  0
    3.5040   -1.6150   25.0300 H   0  0  0  0  0  0  0  0  0  0  0  0
    3.8750    0.1230   24.3890 H   0  0  0  0  0  0  0  0  0  0  0  0
    4.6210    0.5600   25.3590 H   0  0  0  0  0  0  0  0  0  0  0  0
    6.2310   -2.1900   25.5640 H   0  0  0  0  0  0  0  0  0  0  0  0
    6.5700   -0.5430   25.9860 H   0  0  0  0  0  0  0  0  0  0  0  0
    6.6990    0.0410   23.5920 H   0  0  0  0  0  0  0  0  0  0  0  0
    7.4270   -3.5870   23.9910 H   0  0  0  0  0  0  0  0  0  0  0  0
    9.6990   -4.5600   23.8600 H   0  0  0  0  0  0  0  0  0  0  0  0
   11.6650   -3.0340   23.7290 H   0  0  0  0  0  0  0  0  0  0  0  0
   11.3490   -0.5980   23.7580 H   0  0  0  0  0  0  0  0  0  0  0  0
    9.7190    2.4930   23.8510 H   0  0  0  0  0  0  0  0  0  0  0  0
   10.7170    1.2770   24.7070 H   0  0  0  0  0  0  0  0  0  0  0  0
   10.6660    1.2910   22.9200 H   0  0  0  0  0  0  0  0  0  0  0  0
  1  2  1  0  0  0  0
  1 52  1  0  0  0  0
  1 53  1  0  0  0  0
  1 54  1  0  0  0  0
  2  3  1  0  0  0  0
  3  4  2  0  0  0  0
  3  8  1  0  0  0  0
  4  5  1  0  0  0  0
  4 51  1  0  0  0  0
  5  6  2  0  0  0  0
  5 50  1  0  0  0  0
  6  7  1  0  0  0  0
  6 49  1  0  0  0  0
  7  8  2  0  0  0  0
  7 48  1  0  0  0  0
  8  9  1  0  0  0  0
  9 10  1  0  0  0  0
  9 18  1  0  0  0  0
  9 47  1  6  0  0  0
 10 11  1  0  0  0  0
 10 45  1  0  0  0  0
 10 46  1  0  0  0  0
 11 12  1  0  0  0  0
 11 16  1  0  0  0  0
 11 44  1  6  0  0  0
 12 13  1  0  0  0  0
 12 14  1  0  0  0  0
 12 15  1  0  0  0  0
 16 17  1  0  0  0  0
 16 42  1  0  0  0  0
 16 43  1  0  0  0  0
 17 18  1  0  0  0  0
 17 40  1  0  0  0  0
 17 41  1  0  0  0  0
 18 19  1  0  0  0  0
 19 20  2  0  0  0  0
 19 21  1  0  0  0  0
 21 22  1  0  0  0  0
 21 38  1  0  0  0  0
 21 39  1  0  0  0  0
 22 23  2  0  0  0  0
 22 31  1  0  0  0  0
 23 24  1  0  0  0  0
 23 37  1  0  0  0  0
 24 25  2  0  0  0  0
 25 26  1  0  0  0  0
 25 36  1  0  0  0  0
 26 27  2  0  0  0  0
 26 31  1  0  0  0  0
 27 28  1  0  0  0  0
 27 35  1  0  0  0  0
 28 29  2  0  0  0  0
 28 34  1  0  0  0  0
 29 30  1  0  0  0  0
 29 33  1  0  0  0  0
 30 31  2  0  0  0  0
 30 32  1  0  0  0  0
M  END
>  <MODEL>
       1

$$$$
