output/tmp_first_model_11_14.pdb
 OpenBabel07222623443D

 67 73  0  0  1  0  0  0  0  0999 V2000
    7.3790   -2.4040   23.9180 C   0  0  0  0  0  0  0  0  0  0  0  0
    7.7610   -1.7880   22.5710 C   0  0  1  0  0  0  0  0  0  0  0  0
    6.5370   -1.5500   21.6580 C   0  0  0  0  0  0  0  0  0  0  0  0
    6.9300   -0.4160   20.8370 N   0  0  0  0  0  0  0  0  0  0  0  0
    6.1370    0.1020   19.7670 C   0  0  0  0  0  0  0  0  0  0  0  0
    6.4410   -0.2110   18.4680 C   0  0  0  0  0  0  0  0  0  0  0  0
    5.7580    0.2340   17.3820 N   0  0  0  0  0  0  0  0  0  0  0  0
    4.7360    1.0270   17.5830 C   0  0  0  0  0  0  0  0  0  0  0  0
    4.2860    1.4210   18.8750 C   0  0  0  0  0  0  0  0  0  0  0  0
    3.1600    2.2740   19.0560 C   0  0  0  0  0  0  0  0  0  0  0  0
    2.7610    2.6310   20.3130 C   0  0  0  0  0  0  0  0  0  0  0  0
    3.4600    2.1550   21.4430 C   0  0  0  0  0  0  0  0  0  0  0  0
    4.5540    1.3410   21.2960 C   0  0  0  0  0  0  0  0  0  0  0  0
    4.9990    0.9460   20.0040 C   0  0  0  0  0  0  0  0  0  0  0  0
    5.0960    0.9930   22.1670 H   0  0  0  0  0  0  0  0  0  0  0  0
    3.1320    2.4430   22.4370 H   0  0  0  0  0  0  0  0  0  0  0  0
    1.9100    3.2940   20.4510 H   0  0  0  0  0  0  0  0  0  0  0  0
    2.6440    2.6500   18.1780 H   0  0  0  0  0  0  0  0  0  0  0  0
    4.2010    1.3970   16.7040 H   0  0  0  0  0  0  0  0  0  0  0  0
    7.2860   -0.8650   18.2610 H   0  0  0  0  0  0  0  0  0  0  0  0
    8.0500    0.2380   21.2930 C   0  0  0  0  0  0  0  0  0  0  0  0
    8.5640    1.2010   20.7450 O   0  0  0  0  0  0  0  0  0  0  0  0
    8.5100   -0.4160   22.6210 C   0  0  1  0  0  0  0  0  0  0  0  0
    8.0450    0.4570   23.8180 C   0  0  0  0  0  0  0  0  0  0  0  0
    8.7230    1.7410   23.8600 N   0  0  0  0  0  0  0  0  0  0  0  0
    7.9500    2.9740   24.0330 C   0  0  0  0  0  0  0  0  0  0  0  0
    7.6900    3.6580   22.6940 C   0  0  0  0  0  0  0  0  0  0  0  0
    6.9460    4.9420   22.8390 N   0  3  2  0  0  0  0  0  0  0  0  0
    5.4560    4.7740   23.2180 C   0  0  0  0  0  0  0  0  0  0  0  0
    4.7410    5.5000   22.0740 C   0  0  2  0  0  0  0  0  0  0  0  0
    5.6060    5.1390   20.8710 C   0  0  0  0  0  0  0  0  0  0  0  0
    6.8550    5.7270   21.5270 C   0  0  1  0  0  0  0  0  0  0  0  0
    6.3400    7.1210   21.8610 C   0  0  0  0  0  0  0  0  0  0  0  0
    4.9640    6.9060   22.2390 O   0  0  0  0  0  0  0  0  0  0  0  0
    6.8940    7.5890   22.6820 H   0  0  0  0  0  0  0  0  0  0  0  0
    6.3730    7.7680   20.9770 H   0  0  0  0  0  0  0  0  0  0  0  0
    7.7860    5.6810   20.9770 H   0  0  0  0  0  0  0  0  0  0  0  0
    5.6370    4.0670   20.6660 H   0  0  0  0  0  0  0  0  0  0  0  0
    5.3290    5.7050   19.9950 H   0  0  0  0  0  0  0  0  0  0  0  0
    3.6770    5.2980   21.9960 H   0  0  0  0  0  0  0  0  0  0  0  0
    5.2090    3.7120   23.2180 H   0  0  0  0  0  0  0  0  0  0  0  0
    5.2770    5.2250   24.1870 H   0  0  0  0  0  0  0  0  0  0  0  0
    7.4360    5.5170   23.5440 H   0  0  0  0  0  0  0  0  0  0  0  0
    8.6430    3.8560   22.2020 H   0  0  0  0  0  0  0  0  0  0  0  0
    7.1230    2.9870   22.0430 H   0  0  0  0  0  0  0  0  0  0  0  0
    8.4850    3.6570   24.6950 H   0  0  0  0  0  0  0  0  0  0  0  0
    6.9920    2.7380   24.5140 H   0  0  0  0  0  0  0  0  0  0  0  0
   10.0850    1.8150   23.7510 C   0  0  0  0  0  0  0  0  0  0  0  0
   10.7170    2.8150   24.0670 O   0  0  0  0  0  0  0  0  0  0  0  0
   10.7840    0.5860   23.1990 C   0  0  0  0  0  0  0  0  0  0  0  0
   12.1810    0.5000   23.1640 C   0  0  0  0  0  0  0  0  0  0  0  0
   12.8380   -0.5540   22.5440 C   0  0  0  0  0  0  0  0  0  0  0  0
   12.0610   -1.5190   21.8920 C   0  0  0  0  0  0  0  0  0  0  0  0
   12.5220   -2.8770   20.8340 Cl  0  0  0  0  0  0  0  0  0  0  0  0
   10.6970   -1.4490   21.9650 C   0  0  0  0  0  0  0  0  0  0  0  0
   10.0220   -0.4480   22.6510 C   0  0  0  0  0  0  0  0  0  0  0  0
   10.1810   -2.2070   21.3910 H   0  0  0  0  0  0  0  0  0  0  0  0
   13.9360   -0.4890   22.5990 H   0  0  0  0  0  0  0  0  0  0  0  0
   12.7490    1.3110   23.6240 H   0  0  0  0  0  0  0  0  0  0  0  0
    6.9660    0.6140   23.7440 H   0  0  0  0  0  0  0  0  0  0  0  0
    8.2430   -0.0780   24.7540 H   0  0  0  0  0  0  0  0  0  0  0  0
    6.3210   -2.4240   21.0360 H   0  0  0  0  0  0  0  0  0  0  0  0
    5.6320   -1.3370   22.2450 H   0  0  0  0  0  0  0  0  0  0  0  0
    8.4000   -2.5140   22.0580 H   0  0  0  0  0  0  0  0  0  0  0  0
    8.2510   -2.5080   24.5710 H   0  0  0  0  0  0  0  0  0  0  0  0
    6.9470   -3.4000   23.7780 H   0  0  0  0  0  0  0  0  0  0  0  0
    6.6350   -1.7980   24.4460 H   0  0  0  0  0  0  0  0  0  0  0  0
  1  2  1  0  0  0  0
  1 65  1  0  0  0  0
  1 66  1  0  0  0  0
  1 67  1  0  0  0  0
  2  3  1  0  0  0  0
  2 23  1  0  0  0  0
  2 64  1  6  0  0  0
  3  4  1  0  0  0  0
  3 62  1  0  0  0  0
  3 63  1  0  0  0  0
  4  5  1  0  0  0  0
  4 21  1  0  0  0  0
  5  6  2  0  0  0  0
  5 14  1  0  0  0  0
  6  7  1  0  0  0  0
  6 20  1  0  0  0  0
  7  8  2  0  0  0  0
  8  9  1  0  0  0  0
  8 19  1  0  0  0  0
  9 10  2  0  0  0  0
  9 14  1  0  0  0  0
 10 11  1  0  0  0  0
 10 18  1  0  0  0  0
 11 12  2  0  0  0  0
 11 17  1  0  0  0  0
 12 13  1  0  0  0  0
 12 16  1  0  0  0  0
 13 14  2  0  0  0  0
 13 15  1  0  0  0  0
 21 22  2  0  0  0  0
 23 21  1  6  0  0  0
 23 24  1  0  0  0  0
 23 56  1  0  0  0  0
 24 25  1  0  0  0  0
 24 60  1  0  0  0  0
 24 61  1  0  0  0  0
 25 26  1  0  0  0  0
 25 48  1  0  0  0  0
 26 27  1  0  0  0  0
 26 46  1  0  0  0  0
 26 47  1  0  0  0  0
 27 28  1  0  0  0  0
 27 44  1  0  0  0  0
 27 45  1  0  0  0  0
 28 29  1  0  0  0  0
 28 32  1  0  0  0  0
 28 43  1  1  0  0  0
 29 30  1  0  0  0  0
 29 41  1  0  0  0  0
 29 42  1  0  0  0  0
 30 31  1  0  0  0  0
 30 34  1  0  0  0  0
 30 40  1  6  0  0  0
 31 32  1  0  0  0  0
 31 38  1  0  0  0  0
 31 39  1  0  0  0  0
 32 33  1  0  0  0  0
 32 37  1  6  0  0  0
 33 34  1  0  0  0  0
 33 35  1  0  0  0  0
 33 36  1  0  0  0  0
 48 49  2  0  0  0  0
 48 50  1  0  0  0  0
 50 51  2  0  0  0  0
 50 56  1  0  0  0  0
 51 52  1  0  0  0  0
 51 59  1  0  0  0  0
 52 53  2  0  0  0  0
 52 58  1  0  0  0  0
 53 54  1  0  0  0  0
 53 55  1  0  0  0  0
 55 56  2  0  0  0  0
 55 57  1  0  0  0  0
M  CHG  1  28   1
M  END
>  <MODEL>
       1

$$$$
