output/tmp_first_model_7_55.pdb
 OpenBabel07222621533D

 56 61  0  0  1  0  0  0  0  0999 V2000
   12.6170    2.2060   22.4160 C   0  0  0  0  0  0  0  0  0  0  0  0
   12.6440    0.8060   22.7850 N   0  0  0  0  0  0  0  0  0  0  0  0
   13.0320    0.2610   23.9570 C   0  0  0  0  0  0  0  0  0  0  0  0
   12.8690   -1.0950   23.8560 C   0  0  0  0  0  0  0  0  0  0  0  0
   12.3600   -1.2830   22.5540 C   0  0  0  0  0  0  0  0  0  0  0  0
   11.9120   -2.5640   21.9310 C   0  0  0  0  0  0  0  0  0  0  0  0
   10.5290   -2.8790   22.2780 N   0  0  0  0  0  0  0  0  0  0  0  0
    9.4270   -2.5870   21.3810 C   0  0  0  0  0  0  0  0  0  0  0  0
    8.2310   -1.9450   22.1230 C   0  0  1  0  0  0  0  0  0  0  0  0
    8.5010   -0.4690   22.5350 C   0  0  0  0  0  0  0  0  0  0  0  0
    7.8260    0.4030   21.4700 C   0  0  0  0  0  0  0  0  0  0  0  0
    6.8050   -0.4800   20.9280 N   0  0  0  0  0  0  0  0  0  0  0  0
    5.9790   -0.0580   19.8540 C   0  0  0  0  0  0  0  0  0  0  0  0
    6.3940   -0.2170   18.5570 C   0  0  0  0  0  0  0  0  0  0  0  0
    5.7500    0.2890   17.4770 N   0  0  0  0  0  0  0  0  0  0  0  0
    4.6440    0.9530   17.6960 C   0  0  0  0  0  0  0  0  0  0  0  0
    4.0680    1.1490   18.9840 C   0  0  0  0  0  0  0  0  0  0  0  0
    2.8260    1.8130   19.1500 C   0  0  0  0  0  0  0  0  0  0  0  0
    2.2480    1.9060   20.3890 C   0  0  0  0  0  0  0  0  0  0  0  0
    2.8930    1.3360   21.5150 C   0  0  0  0  0  0  0  0  0  0  0  0
    4.1020    0.6960   21.3790 C   0  0  0  0  0  0  0  0  0  0  0  0
    4.7370    0.6090   20.1090 C   0  0  0  0  0  0  0  0  0  0  0  0
    4.5840    0.2410   22.2390 H   0  0  0  0  0  0  0  0  0  0  0  0
    2.4260    1.4170   22.4920 H   0  0  0  0  0  0  0  0  0  0  0  0
    1.3050    2.4290   20.5210 H   0  0  0  0  0  0  0  0  0  0  0  0
    2.3250    2.1980   18.2680 H   0  0  0  0  0  0  0  0  0  0  0  0
    4.1470    1.3890   16.8280 H   0  0  0  0  0  0  0  0  0  0  0  0
    7.3190   -0.7420   18.3300 H   0  0  0  0  0  0  0  0  0  0  0  0
    7.0530   -1.8180   21.1510 C   0  0  0  0  0  0  0  0  0  0  0  0
    6.4050   -2.7270   20.6760 O   0  0  0  0  0  0  0  0  0  0  0  0
    8.5300    0.7220   20.6840 H   0  0  0  0  0  0  0  0  0  0  0  0
    7.3660    1.3030   21.8940 H   0  0  0  0  0  0  0  0  0  0  0  0
    9.5680   -0.2540   22.6050 H   0  0  0  0  0  0  0  0  0  0  0  0
    8.0510   -0.2860   23.5150 H   0  0  0  0  0  0  0  0  0  0  0  0
    7.8870   -2.8530   23.2850 C   0  0  0  0  0  0  0  0  0  0  0  0
    6.5850   -2.9310   23.7860 C   0  0  0  0  0  0  0  0  0  0  0  0
    6.3100   -3.7230   24.8880 C   0  0  0  0  0  0  0  0  0  0  0  0
    4.6900   -3.7630   25.5310 Cl  0  0  0  0  0  0  0  0  0  0  0  0
    7.3060   -4.4920   25.4910 C   0  0  0  0  0  0  0  0  0  0  0  0
    8.5980   -4.4140   25.0000 C   0  0  0  0  0  0  0  0  0  0  0  0
    8.8940   -3.5820   23.9220 C   0  0  0  0  0  0  0  0  0  0  0  0
   10.3200   -3.4600   23.4990 C   0  0  0  0  0  0  0  0  0  0  0  0
   11.2400   -3.8360   24.2160 O   0  0  0  0  0  0  0  0  0  0  0  0
    9.4090   -4.9880   25.4380 H   0  0  0  0  0  0  0  0  0  0  0  0
    7.0730   -5.1260   26.3400 H   0  0  0  0  0  0  0  0  0  0  0  0
    5.7720   -2.4060   23.3000 H   0  0  0  0  0  0  0  0  0  0  0  0
    9.7740   -1.8960   20.6120 H   0  0  0  0  0  0  0  0  0  0  0  0
    9.0820   -3.5230   20.9350 H   0  0  0  0  0  0  0  0  0  0  0  0
   12.0170   -2.5120   20.8430 H   0  0  0  0  0  0  0  0  0  0  0  0
   12.5190   -3.3840   22.3160 H   0  0  0  0  0  0  0  0  0  0  0  0
   12.2200   -0.1270   21.9160 N   0  0  0  0  0  0  0  0  0  0  0  0
   13.0550   -1.8500   24.6080 H   0  0  0  0  0  0  0  0  0  0  0  0
   13.3470    0.8660   24.7890 H   0  0  0  0  0  0  0  0  0  0  0  0
   13.6000    2.5490   22.0790 H   0  0  0  0  0  0  0  0  0  0  0  0
   11.8930    2.3230   21.6090 H   0  0  0  0  0  0  0  0  0  0  0  0
   12.3030    2.8150   23.2680 H   0  0  0  0  0  0  0  0  0  0  0  0
  1  2  1  0  0  0  0
  1 54  1  0  0  0  0
  1 55  1  0  0  0  0
  1 56  1  0  0  0  0
  2  3  1  0  0  0  0
  2 51  1  0  0  0  0
  3  4  2  0  0  0  0
  3 53  1  0  0  0  0
  4  5  1  0  0  0  0
  4 52  1  0  0  0  0
  5  6  1  0  0  0  0
  5 51  2  0  0  0  0
  6  7  1  0  0  0  0
  6 49  1  0  0  0  0
  6 50  1  0  0  0  0
  7  8  1  0  0  0  0
  7 42  1  0  0  0  0
  8  9  1  0  0  0  0
  8 47  1  0  0  0  0
  8 48  1  0  0  0  0
  9 10  1  0  0  0  0
  9 29  1  6  0  0  0
  9 35  1  0  0  0  0
 10 11  1  0  0  0  0
 10 33  1  0  0  0  0
 10 34  1  0  0  0  0
 11 12  1  0  0  0  0
 11 31  1  0  0  0  0
 11 32  1  0  0  0  0
 12 13  1  0  0  0  0
 12 29  1  0  0  0  0
 13 14  2  0  0  0  0
 13 22  1  0  0  0  0
 14 15  1  0  0  0  0
 14 28  1  0  0  0  0
 15 16  2  0  0  0  0
 16 17  1  0  0  0  0
 16 27  1  0  0  0  0
 17 18  2  0  0  0  0
 17 22  1  0  0  0  0
 18 19  1  0  0  0  0
 18 26  1  0  0  0  0
 19 20  2  0  0  0  0
 19 25  1  0  0  0  0
 20 21  1  0  0  0  0
 20 24  1  0  0  0  0
 21 22  2  0  0  0  0
 21 23  1  0  0  0  0
 29 30  2  0  0  0  0
 35 36  2  0  0  0  0
 35 41  1  0  0  0  0
 36 37  1  0  0  0  0
 36 46  1  0  0  0  0
 37 38  1  0  0  0  0
 37 39  2  0  0  0  0
 39 40  1  0  0  0  0
 39 45  1  0  0  0  0
 40 41  2  0  0  0  0
 40 44  1  0  0  0  0
 41 42  1  0  0  0  0
 42 43  2  0  0  0  0
M  END
>  <MODEL>
       1

$$$$
