output/tmp_first_model_15_82.pdb
 OpenBabel07232601353D

 55 60  0  0  1  0  0  0  0  0999 V2000
    7.3900   -2.5960   23.7630 C   0  0  0  0  0  0  0  0  0  0  0  0
    7.8050   -1.8070   22.5130 C   0  0  1  0  0  0  0  0  0  0  0  0
    6.6450   -1.6550   21.5050 C   0  0  0  0  0  0  0  0  0  0  0  0
    6.9280   -0.4050   20.8280 N   0  0  0  0  0  0  0  0  0  0  0  0
    6.1400    0.1090   19.7630 C   0  0  0  0  0  0  0  0  0  0  0  0
    6.4490   -0.2170   18.4690 C   0  0  0  0  0  0  0  0  0  0  0  0
    5.7610    0.2240   17.3890 N   0  0  0  0  0  0  0  0  0  0  0  0
    4.7430    1.0200   17.5960 C   0  0  0  0  0  0  0  0  0  0  0  0
    4.2950    1.4220   18.8850 C   0  0  0  0  0  0  0  0  0  0  0  0
    3.1690    2.2720   19.0670 C   0  0  0  0  0  0  0  0  0  0  0  0
    2.7560    2.6240   20.3210 C   0  0  0  0  0  0  0  0  0  0  0  0
    3.4430    2.1310   21.4540 C   0  0  0  0  0  0  0  0  0  0  0  0
    4.5330    1.3070   21.3030 C   0  0  0  0  0  0  0  0  0  0  0  0
    5.0020    0.9440   20.0110 C   0  0  0  0  0  0  0  0  0  0  0  0
    5.0590    0.9440   22.1810 H   0  0  0  0  0  0  0  0  0  0  0  0
    3.1280    2.4300   22.4480 H   0  0  0  0  0  0  0  0  0  0  0  0
    1.9090    3.2930   20.4500 H   0  0  0  0  0  0  0  0  0  0  0  0
    2.6620    2.6460   18.1810 H   0  0  0  0  0  0  0  0  0  0  0  0
    4.2180    1.3830   16.7120 H   0  0  0  0  0  0  0  0  0  0  0  0
    7.2900   -0.8700   18.2500 H   0  0  0  0  0  0  0  0  0  0  0  0
    7.8370    0.4010   21.4800 C   0  0  0  0  0  0  0  0  0  0  0  0
    8.1510    1.5050   21.1070 O   0  0  0  0  0  0  0  0  0  0  0  0
    8.3540   -0.3550   22.7340 C   0  0  1  0  0  0  0  0  0  0  0  0
    7.7970    0.2790   24.0250 C   0  0  0  0  0  0  0  0  0  0  0  0
    8.3720    1.5870   24.2720 N   0  0  0  0  0  0  0  0  0  0  0  0
    7.5110    2.7150   24.5490 C   0  0  0  0  0  0  0  0  0  0  0  0
    7.3570    3.6150   23.3570 C   0  0  0  0  0  0  0  0  0  0  0  0
    8.1960    4.5060   22.9570 N   0  0  0  0  0  0  0  0  0  0  0  0
    7.5960    5.0690   21.8410 C   0  0  0  0  0  0  0  0  0  0  0  0
    6.4080    4.4680   21.6270 C   0  0  0  0  0  0  0  0  0  0  0  0
    6.2310    3.5380   22.6150 O   0  0  0  0  0  0  0  0  0  0  0  0
    5.6280    4.5490   20.8880 H   0  0  0  0  0  0  0  0  0  0  0  0
    8.0880    5.8760   21.3130 H   0  0  0  0  0  0  0  0  0  0  0  0
    7.9880    3.2840   25.3480 H   0  0  0  0  0  0  0  0  0  0  0  0
    6.5330    2.3480   24.8690 H   0  0  0  0  0  0  0  0  0  0  0  0
    9.7310    1.7780   24.3060 C   0  0  0  0  0  0  0  0  0  0  0  0
   10.2550    2.7320   24.8640 O   0  0  0  0  0  0  0  0  0  0  0  0
   10.5190    0.7480   23.5610 C   0  0  0  0  0  0  0  0  0  0  0  0
   11.9130    0.8380   23.5650 C   0  0  0  0  0  0  0  0  0  0  0  0
   12.6740   -0.0150   22.7840 C   0  0  0  0  0  0  0  0  0  0  0  0
   11.9980   -0.9320   21.9860 C   0  0  0  0  0  0  0  0  0  0  0  0
   12.6460   -1.8030   21.2030 F   0  0  0  0  0  0  0  0  0  0  0  0
   10.6320   -1.0190   21.9530 C   0  0  0  0  0  0  0  0  0  0  0  0
    9.8620   -0.2280   22.7950 C   0  0  0  0  0  0  0  0  0  0  0  0
   10.2300   -1.7180   21.2310 H   0  0  0  0  0  0  0  0  0  0  0  0
   13.7540    0.0360   22.7690 H   0  0  0  0  0  0  0  0  0  0  0  0
   12.3610    1.6040   24.1930 H   0  0  0  0  0  0  0  0  0  0  0  0
    8.0110   -0.3980   24.8670 H   0  0  0  0  0  0  0  0  0  0  0  0
    6.7140    0.3950   23.9060 H   0  0  0  0  0  0  0  0  0  0  0  0
    5.6750   -1.6250   22.0280 H   0  0  0  0  0  0  0  0  0  0  0  0
    6.5960   -2.4770   20.7820 H   0  0  0  0  0  0  0  0  0  0  0  0
    8.6000   -2.3690   22.0170 H   0  0  0  0  0  0  0  0  0  0  0  0
    8.2080   -2.6820   24.4890 H   0  0  0  0  0  0  0  0  0  0  0  0
    6.5450   -2.1130   24.2710 H   0  0  0  0  0  0  0  0  0  0  0  0
    7.0730   -3.6130   23.4990 H   0  0  0  0  0  0  0  0  0  0  0  0
  1  2  1  0  0  0  0
  1 53  1  0  0  0  0
  1 54  1  0  0  0  0
  1 55  1  0  0  0  0
  2  3  1  0  0  0  0
  2 23  1  0  0  0  0
  2 52  1  6  0  0  0
  3  4  1  0  0  0  0
  3 50  1  0  0  0  0
  3 51  1  0  0  0  0
  4  5  1  0  0  0  0
  4 21  1  0  0  0  0
  5  6  2  0  0  0  0
  5 14  1  0  0  0  0
  6  7  1  0  0  0  0
  6 20  1  0  0  0  0
  7  8  2  0  0  0  0
  8  9  1  0  0  0  0
  8 19  1  0  0  0  0
  9 10  2  0  0  0  0
  9 14  1  0  0  0  0
 10 11  1  0  0  0  0
 10 18  1  0  0  0  0
 11 12  2  0  0  0  0
 11 17  1  0  0  0  0
 12 13  1  0  0  0  0
 12 16  1  0  0  0  0
 13 14  2  0  0  0  0
 13 15  1  0  0  0  0
 21 22  2  0  0  0  0
 23 21  1  6  0  0  0
 23 24  1  0  0  0  0
 23 44  1  0  0  0  0
 24 25  1  0  0  0  0
 24 48  1  0  0  0  0
 24 49  1  0  0  0  0
 25 26  1  0  0  0  0
 25 36  1  0  0  0  0
 26 27  1  0  0  0  0
 26 34  1  0  0  0  0
 26 35  1  0  0  0  0
 27 28  2  0  0  0  0
 27 31  1  0  0  0  0
 28 29  1  0  0  0  0
 29 30  2  0  0  0  0
 29 33  1  0  0  0  0
 30 31  1  0  0  0  0
 30 32  1  0  0  0  0
 36 37  2  0  0  0  0
 36 38  1  0  0  0  0
 38 39  2  0  0  0  0
 38 44  1  0  0  0  0
 39 40  1  0  0  0  0
 39 47  1  0  0  0  0
 40 41  2  0  0  0  0
 40 46  1  0  0  0  0
 41 42  1  0  0  0  0
 41 43  1  0  0  0  0
 43 44  2  0  0  0  0
 43 45  1  0  0  0  0
M  END
>  <MODEL>
       1

$$$$
