output/tmp_first_model_15_89.pdb
 OpenBabel07232601353D

 38 40  0  0  0  0  0  0  0  0999 V2000
    5.1710   -2.1200   21.1680 O   0  0  0  0  0  0  0  0  0  0  0  0
    6.2090   -1.6670   21.6150 C   0  0  0  0  0  0  0  0  0  0  0  0
    6.9240   -0.4920   20.9100 C   0  0  0  0  0  0  0  0  0  0  0  0
    6.1140    0.0850   19.7730 C   0  0  0  0  0  0  0  0  0  0  0  0
    6.4220   -0.2150   18.4730 C   0  0  0  0  0  0  0  0  0  0  0  0
    5.7560    0.2370   17.3780 N   0  0  0  0  0  0  0  0  0  0  0  0
    4.7350    1.0310   17.5800 C   0  0  0  0  0  0  0  0  0  0  0  0
    4.2850    1.4190   18.8700 C   0  0  0  0  0  0  0  0  0  0  0  0
    3.1620    2.2680   19.0460 C   0  0  0  0  0  0  0  0  0  0  0  0
    2.7480    2.6220   20.3010 C   0  0  0  0  0  0  0  0  0  0  0  0
    3.4390    2.1350   21.4330 C   0  0  0  0  0  0  0  0  0  0  0  0
    4.5290    1.3110   21.2890 C   0  0  0  0  0  0  0  0  0  0  0  0
    4.9870    0.9320   20.0000 C   0  0  0  0  0  0  0  0  0  0  0  0
    5.0420    0.9370   22.1680 H   0  0  0  0  0  0  0  0  0  0  0  0
    3.1010    2.4170   22.4250 H   0  0  0  0  0  0  0  0  0  0  0  0
    1.8910    3.2800   20.4350 H   0  0  0  0  0  0  0  0  0  0  0  0
    2.6470    2.6430   18.1650 H   0  0  0  0  0  0  0  0  0  0  0  0
    4.2020    1.3980   16.7000 H   0  0  0  0  0  0  0  0  0  0  0  0
    7.2640   -0.8670   18.2440 H   0  0  0  0  0  0  0  0  0  0  0  0
    7.8880   -0.8500   20.5170 H   0  0  0  0  0  0  0  0  0  0  0  0
    7.1650    0.2920   21.6410 H   0  0  0  0  0  0  0  0  0  0  0  0
    6.7620   -2.1740   22.7810 N   0  0  0  0  0  0  0  0  0  0  0  0
    6.0670   -3.3260   23.3770 C   0  0  0  0  0  0  0  0  0  0  0  0
    6.3290   -4.6520   22.6900 C   0  0  0  0  0  0  0  0  0  0  0  0
    7.5490   -5.1660   22.5610 C   0  0  0  0  0  0  0  0  0  0  0  0
    8.7920   -4.5160   23.1200 C   0  0  0  0  0  0  0  0  0  0  0  0
    9.0880   -3.1100   22.5770 C   0  0  0  0  0  0  0  0  0  0  0  0
    8.1680   -2.0270   23.1420 C   0  0  0  0  0  0  0  0  0  0  0  0
    8.5150   -1.0330   22.8510 H   0  0  0  0  0  0  0  0  0  0  0  0
    8.2280   -2.0670   24.2350 H   0  0  0  0  0  0  0  0  0  0  0  0
   10.1330   -2.8490   22.8000 H   0  0  0  0  0  0  0  0  0  0  0  0
    9.0050   -3.1210   21.4850 H   0  0  0  0  0  0  0  0  0  0  0  0
    9.6500   -5.1520   22.9240 H   0  0  0  0  0  0  0  0  0  0  0  0
    8.7290   -4.4660   24.2160 H   0  0  0  0  0  0  0  0  0  0  0  0
    7.6680   -6.0820   21.9820 H   0  0  0  0  0  0  0  0  0  0  0  0
    5.4760   -5.1740   22.2580 H   0  0  0  0  0  0  0  0  0  0  0  0
    6.3920   -3.3910   24.4210 H   0  0  0  0  0  0  0  0  0  0  0  0
    4.9970   -3.1150   23.3900 H   0  0  0  0  0  0  0  0  0  0  0  0
  1  2  2  0  0  0  0
  2  3  1  0  0  0  0
  2 22  1  0  0  0  0
  3  4  1  0  0  0  0
  3 20  1  0  0  0  0
  3 21  1  0  0  0  0
  4  5  2  0  0  0  0
  4 13  1  0  0  0  0
  5  6  1  0  0  0  0
  5 19  1  0  0  0  0
  6  7  2  0  0  0  0
  7  8  1  0  0  0  0
  7 18  1  0  0  0  0
  8  9  2  0  0  0  0
  8 13  1  0  0  0  0
  9 10  1  0  0  0  0
  9 17  1  0  0  0  0
 10 11  2  0  0  0  0
 10 16  1  0  0  0  0
 11 12  1  0  0  0  0
 11 15  1  0  0  0  0
 12 13  2  0  0  0  0
 12 14  1  0  0  0  0
 22 23  1  0  0  0  0
 22 28  1  0  0  0  0
 23 24  1  0  0  0  0
 23 37  1  0  0  0  0
 23 38  1  0  0  0  0
 24 25  2  0  0  0  0
 24 36  1  0  0  0  0
 25 26  1  0  0  0  0
 25 35  1  0  0  0  0
 26 27  1  0  0  0  0
 26 33  1  0  0  0  0
 26 34  1  0  0  0  0
 27 28  1  0  0  0  0
 27 31  1  0  0  0  0
 27 32  1  0  0  0  0
 28 29  1  0  0  0  0
 28 30  1  0  0  0  0
M  END
>  <MODEL>
       1

$$$$
