output/tmp_first_model_13_74.pdb
 OpenBabel07232600343D

 55 60  0  0  1  0  0  0  0  0999 V2000
    9.6240   -2.0550   21.9680 C   0  0  0  0  0  0  0  0  0  0  0  0
    8.5750   -0.9940   22.3480 C   0  0  1  0  0  0  0  0  0  0  0  0
    8.2090   -0.1020   21.1370 C   0  0  0  0  0  0  0  0  0  0  0  0
    6.8700   -0.5020   20.7800 N   0  0  0  0  0  0  0  0  0  0  0  0
    6.1270    0.0710   19.7270 C   0  0  0  0  0  0  0  0  0  0  0  0
    6.4690   -0.1990   18.4270 C   0  0  0  0  0  0  0  0  0  0  0  0
    5.7960    0.2650   17.3460 N   0  0  0  0  0  0  0  0  0  0  0  0
    4.7590    1.0350   17.5790 C   0  0  0  0  0  0  0  0  0  0  0  0
    4.3110    1.4040   18.8780 C   0  0  0  0  0  0  0  0  0  0  0  0
    3.1890    2.2520   19.0540 C   0  0  0  0  0  0  0  0  0  0  0  0
    2.7990    2.6380   20.3030 C   0  0  0  0  0  0  0  0  0  0  0  0
    3.5090    2.1850   21.4410 C   0  0  0  0  0  0  0  0  0  0  0  0
    4.5880    1.3460   21.3040 C   0  0  0  0  0  0  0  0  0  0  0  0
    5.0120    0.9250   20.0050 C   0  0  0  0  0  0  0  0  0  0  0  0
    5.1130    0.9960   22.1950 H   0  0  0  0  0  0  0  0  0  0  0  0
    3.1900    2.5050   22.4290 H   0  0  0  0  0  0  0  0  0  0  0  0
    1.9500    3.3050   20.4320 H   0  0  0  0  0  0  0  0  0  0  0  0
    2.6720    2.6020   18.1640 H   0  0  0  0  0  0  0  0  0  0  0  0
    4.2120    1.4150   16.7150 H   0  0  0  0  0  0  0  0  0  0  0  0
    7.3150   -0.8520   18.2180 H   0  0  0  0  0  0  0  0  0  0  0  0
    6.2690   -1.3400   21.6810 C   0  0  0  0  0  0  0  0  0  0  0  0
    5.1820   -1.8560   21.5040 O   0  0  0  0  0  0  0  0  0  0  0  0
    7.2140   -1.5350   22.8820 C   0  0  1  0  0  0  0  0  0  0  0  0
    7.2030   -3.0390   23.1780 C   0  0  0  0  0  0  0  0  0  0  0  0
    5.9090   -3.4140   23.7210 N   0  0  0  0  0  0  0  0  0  0  0  0
    5.1630   -4.5030   23.1050 C   0  0  0  0  0  0  0  0  0  0  0  0
    5.8130   -5.7910   23.4710 C   0  0  0  0  0  0  0  0  0  0  0  0
    7.1510   -6.1170   23.1230 C   0  0  0  0  0  0  0  0  0  0  0  0
    7.3850   -7.2220   23.8510 C   0  0  0  0  0  0  0  0  0  0  0  0
    6.3020   -7.5520   24.5730 O   0  0  0  0  0  0  0  0  0  0  0  0
    5.3040   -6.6370   24.3270 N   0  0  0  0  0  0  0  0  0  0  0  0
    8.2570   -7.8490   23.9670 H   0  0  0  0  0  0  0  0  0  0  0  0
    7.7990   -5.5560   22.4690 H   0  0  0  0  0  0  0  0  0  0  0  0
    4.1400   -4.5040   23.4790 H   0  0  0  0  0  0  0  0  0  0  0  0
    5.1330   -4.3500   22.0170 H   0  0  0  0  0  0  0  0  0  0  0  0
    5.4880   -2.8740   24.9020 C   0  0  0  0  0  0  0  0  0  0  0  0
    4.7260   -3.4490   25.6660 O   0  0  0  0  0  0  0  0  0  0  0  0
    5.9890   -1.4810   25.1280 C   0  0  0  0  0  0  0  0  0  0  0  0
    5.6210   -0.8590   26.3180 C   0  0  0  0  0  0  0  0  0  0  0  0
    5.8870    0.4790   26.5200 C   0  0  0  0  0  0  0  0  0  0  0  0
    6.5590    1.1680   25.5200 C   0  0  0  0  0  0  0  0  0  0  0  0
    6.8160    2.4750   25.7140 F   0  0  0  0  0  0  0  0  0  0  0  0
    6.9980    0.5580   24.3580 C   0  0  0  0  0  0  0  0  0  0  0  0
    6.7340   -0.8070   24.1450 C   0  0  0  0  0  0  0  0  0  0  0  0
    7.5610    1.1690   23.6590 H   0  0  0  0  0  0  0  0  0  0  0  0
    5.5630    0.9950   27.4130 H   0  0  0  0  0  0  0  0  0  0  0  0
    5.0940   -1.4480   27.0610 H   0  0  0  0  0  0  0  0  0  0  0  0
    7.3590   -3.6000   22.2550 H   0  0  0  0  0  0  0  0  0  0  0  0
    8.0090   -3.2890   23.8840 H   0  0  0  0  0  0  0  0  0  0  0  0
    8.2320    0.9710   21.3710 H   0  0  0  0  0  0  0  0  0  0  0  0
    8.9010   -0.2560   20.3080 H   0  0  0  0  0  0  0  0  0  0  0  0
    9.0440   -0.3960   23.1350 H   0  0  0  0  0  0  0  0  0  0  0  0
   10.5990   -1.5790   21.8150 H   0  0  0  0  0  0  0  0  0  0  0  0
    9.3600   -2.5930   21.0510 H   0  0  0  0  0  0  0  0  0  0  0  0
    9.7560   -2.7990   22.7580 H   0  0  0  0  0  0  0  0  0  0  0  0
  1  2  1  0  0  0  0
  1 53  1  0  0  0  0
  1 54  1  0  0  0  0
  1 55  1  0  0  0  0
  2  3  1  0  0  0  0
  2 23  1  0  0  0  0
  2 52  1  1  0  0  0
  3  4  1  0  0  0  0
  3 50  1  0  0  0  0
  3 51  1  0  0  0  0
  4  5  1  0  0  0  0
  4 21  1  0  0  0  0
  5  6  2  0  0  0  0
  5 14  1  0  0  0  0
  6  7  1  0  0  0  0
  6 20  1  0  0  0  0
  7  8  2  0  0  0  0
  8  9  1  0  0  0  0
  8 19  1  0  0  0  0
  9 10  2  0  0  0  0
  9 14  1  0  0  0  0
 10 11  1  0  0  0  0
 10 18  1  0  0  0  0
 11 12  2  0  0  0  0
 11 17  1  0  0  0  0
 12 13  1  0  0  0  0
 12 16  1  0  0  0  0
 13 14  2  0  0  0  0
 13 15  1  0  0  0  0
 21 22  2  0  0  0  0
 23 21  1  6  0  0  0
 23 24  1  0  0  0  0
 23 44  1  0  0  0  0
 24 25  1  0  0  0  0
 24 48  1  0  0  0  0
 24 49  1  0  0  0  0
 25 26  1  0  0  0  0
 25 36  1  0  0  0  0
 26 27  1  0  0  0  0
 26 34  1  0  0  0  0
 26 35  1  0  0  0  0
 27 28  1  0  0  0  0
 27 31  2  0  0  0  0
 28 29  2  0  0  0  0
 28 33  1  0  0  0  0
 29 30  1  0  0  0  0
 29 32  1  0  0  0  0
 30 31  1  0  0  0  0
 36 37  2  0  0  0  0
 36 38  1  0  0  0  0
 38 39  2  0  0  0  0
 38 44  1  0  0  0  0
 39 40  1  0  0  0  0
 39 47  1  0  0  0  0
 40 41  2  0  0  0  0
 40 46  1  0  0  0  0
 41 42  1  0  0  0  0
 41 43  1  0  0  0  0
 43 44  2  0  0  0  0
 43 45  1  0  0  0  0
M  END
>  <MODEL>
       1

$$$$
