output/tmp_first_model_11_67.pdb
 OpenBabel07222623443D

 69 74  0  0  1  0  0  0  0  0999 V2000
    4.5800   -7.8080   23.9990 C   0  0  0  0  0  0  0  0  0  0  0  0
    5.9430   -7.4460   23.5490 N   0  3  0  0  0  0  0  0  0  0  0  0
    6.4040   -6.1070   24.0490 C   0  0  0  0  0  0  0  0  0  0  0  0
    5.7260   -4.9190   23.3450 C   0  0  0  0  0  0  0  0  0  0  0  0
    6.2470   -3.6480   23.8040 N   0  0  0  0  0  0  0  0  0  0  0  0
    7.4420   -3.1130   23.1960 C   0  0  0  0  0  0  0  0  0  0  0  0
    7.3060   -1.6070   22.8750 C   0  0  2  0  0  0  0  0  0  0  0  0
    6.2960   -1.3980   21.7230 C   0  0  0  0  0  0  0  0  0  0  0  0
    5.2110   -1.9230   21.5850 O   0  0  0  0  0  0  0  0  0  0  0  0
    6.8350   -0.4850   20.8450 N   0  0  0  0  0  0  0  0  0  0  0  0
    6.0920    0.0570   19.7760 C   0  0  0  0  0  0  0  0  0  0  0  0
    6.4470   -0.2200   18.4800 C   0  0  0  0  0  0  0  0  0  0  0  0
    5.7810    0.2380   17.3940 N   0  0  0  0  0  0  0  0  0  0  0  0
    4.7470    1.0150   17.6070 C   0  0  0  0  0  0  0  0  0  0  0  0
    4.2920    1.4000   18.8990 C   0  0  0  0  0  0  0  0  0  0  0  0
    3.1740    2.2570   19.0670 C   0  0  0  0  0  0  0  0  0  0  0  0
    2.7790    2.6450   20.3150 C   0  0  0  0  0  0  0  0  0  0  0  0
    3.4830    2.1940   21.4560 C   0  0  0  0  0  0  0  0  0  0  0  0
    4.5650    1.3600   21.3270 C   0  0  0  0  0  0  0  0  0  0  0  0
    4.9850    0.9260   20.0320 C   0  0  0  0  0  0  0  0  0  0  0  0
    5.1020    1.0310   22.2180 H   0  0  0  0  0  0  0  0  0  0  0  0
    3.1620    2.5160   22.4410 H   0  0  0  0  0  0  0  0  0  0  0  0
    1.9330    3.3140   20.4370 H   0  0  0  0  0  0  0  0  0  0  0  0
    2.6670    2.6170   18.1760 H   0  0  0  0  0  0  0  0  0  0  0  0
    4.2160    1.3850   16.7300 H   0  0  0  0  0  0  0  0  0  0  0  0
    7.3000   -0.8690   18.2790 H   0  0  0  0  0  0  0  0  0  0  0  0
    8.1710   -0.0500   21.1580 C   0  0  0  0  0  0  0  0  0  0  0  0
    8.5920   -0.9690   22.3160 C   0  0  2  0  0  0  0  0  0  0  0  0
    9.6600   -1.9860   21.7280 C   0  0  0  0  0  0  0  0  0  0  0  0
   10.5190   -1.3760   21.0420 O   0  0  0  0  0  0  0  0  0  0  0  0
   12.4410   -1.1230   22.4870 C   0  0  0  0  0  0  0  0  0  0  0  0
   12.5410   -1.1820   22.8230 C   0  0  0  0  0  0  0  0  0  0  0  0
   12.9540   -0.8510   20.6620 F   0  0  0  0  0  0  0  0  0  0  0  0
   13.3870    0.9450   23.1280 C   0  0  0  0  0  0  0  0  0  0  0  0
   12.3760    1.5640   22.5170 C   0  0  0  0  0  0  0  0  0  0  0  0
   11.3450    1.4550   22.8590 H   0  0  0  0  0  0  0  0  0  0  0  0
   12.5410    2.3040   21.7500 H   0  0  0  0  0  0  0  0  0  0  0  0
   14.3030    0.5980   22.6780 H   0  0  0  0  0  0  0  0  0  0  0  0
   13.3790    0.7800   24.2270 H   0  0  0  0  0  0  0  0  0  0  0  0
   12.2850   -2.2780   22.3090 H   0  0  0  0  0  0  0  0  0  0  0  0
   11.3820   -0.8090   22.8760 H   0  0  0  0  0  0  0  0  0  0  0  0
    9.1140   -2.7730   21.1220 H   0  0  0  0  0  0  0  0  0  0  0  0
    9.9820   -2.6620   22.6000 H   0  0  0  0  0  0  0  0  0  0  0  0
    9.0960   -0.4070   23.1140 H   0  0  0  0  0  0  0  0  0  0  0  0
    8.2160    1.0240   21.3930 H   0  0  0  0  0  0  0  0  0  0  0  0
    8.8360   -0.2140   20.3120 H   0  0  0  0  0  0  0  0  0  0  0  0
    6.7970   -0.9030   24.1270 C   0  0  0  0  0  0  0  0  0  0  0  0
    6.9870    0.4730   24.3140 C   0  0  0  0  0  0  0  0  0  0  0  0
    6.4840    1.1000   25.4420 C   0  0  0  0  0  0  0  0  0  0  0  0
    6.7390    2.8100   25.6530 Cl  0  0  0  0  0  0  0  0  0  0  0  0
    5.7710    0.3960   26.4090 C   0  0  0  0  0  0  0  0  0  0  0  0
    5.5510   -0.9540   26.2150 C   0  0  0  0  0  0  0  0  0  0  0  0
    6.0450   -1.6000   25.0820 C   0  0  0  0  0  0  0  0  0  0  0  0
    5.6770   -3.0450   24.8830 C   0  0  0  0  0  0  0  0  0  0  0  0
    4.8870   -3.6260   25.6190 O   0  0  0  0  0  0  0  0  0  0  0  0
    4.9760   -1.5470   26.9220 H   0  0  0  0  0  0  0  0  0  0  0  0
    5.3840    0.9120   27.2790 H   0  0  0  0  0  0  0  0  0  0  0  0
    7.5210    1.0770   23.5860 H   0  0  0  0  0  0  0  0  0  0  0  0
    8.2850   -3.2660   23.8770 H   0  0  0  0  0  0  0  0  0  0  0  0
    7.6290   -3.6720   22.2810 H   0  0  0  0  0  0  0  0  0  0  0  0
    4.6510   -4.9040   23.5410 H   0  0  0  0  0  0  0  0  0  0  0  0
    5.8760   -4.9470   22.2550 H   0  0  0  0  0  0  0  0  0  0  0  0
    6.1840   -6.0410   25.1140 H   0  0  0  0  0  0  0  0  0  0  0  0
    7.4840   -6.0630   23.9190 H   0  0  0  0  0  0  0  0  0  0  0  0
    5.9420   -7.4110   22.5010 H   0  0  0  0  0  0  0  0  0  0  0  0
    6.5970   -8.1920   23.8590 H   0  0  0  0  0  0  0  0  0  0  0  0
    4.4950   -7.6930   25.0800 H   0  0  0  0  0  0  0  0  0  0  0  0
    4.3550   -8.8390   23.7450 H   0  0  0  0  0  0  0  0  0  0  0  0
    3.8320   -7.1660   23.5360 H   0  0  0  0  0  0  0  0  0  0  0  0
  1  2  1  0  0  0  0
  1 67  1  0  0  0  0
  1 68  1  0  0  0  0
  1 69  1  0  0  0  0
  2  3  1  0  0  0  0
  2 65  1  0  0  0  0
  2 66  1  0  0  0  0
  3  4  1  0  0  0  0
  3 63  1  0  0  0  0
  3 64  1  0  0  0  0
  4  5  1  0  0  0  0
  4 61  1  0  0  0  0
  4 62  1  0  0  0  0
  5  6  1  0  0  0  0
  5 54  1  0  0  0  0
  6  7  1  0  0  0  0
  6 59  1  0  0  0  0
  6 60  1  0  0  0  0
  7  8  1  6  0  0  0
  7 28  1  0  0  0  0
  7 47  1  0  0  0  0
  8  9  2  0  0  0  0
  8 10  1  0  0  0  0
 10 11  1  0  0  0  0
 10 27  1  0  0  0  0
 11 12  2  0  0  0  0
 11 20  1  0  0  0  0
 12 13  1  0  0  0  0
 12 26  1  0  0  0  0
 13 14  2  0  0  0  0
 14 15  1  0  0  0  0
 14 25  1  0  0  0  0
 15 16  2  0  0  0  0
 15 20  1  0  0  0  0
 16 17  1  0  0  0  0
 16 24  1  0  0  0  0
 17 18  2  0  0  0  0
 17 23  1  0  0  0  0
 18 19  1  0  0  0  0
 18 22  1  0  0  0  0
 19 20  2  0  0  0  0
 19 21  1  0  0  0  0
 27 28  1  0  0  0  0
 27 45  1  0  0  0  0
 27 46  1  0  0  0  0
 28 29  1  0  0  0  0
 28 44  1  1  0  0  0
 29 30  1  0  0  0  0
 29 42  1  0  0  0  0
 29 43  1  0  0  0  0
 30 31  1  0  0  0  0
 31 32  1  0  0  0  0
 31 40  1  0  0  0  0
 31 41  1  0  0  0  0
 32 33  1  0  0  0  0
 32 34  1  0  0  0  0
 32 35  1  0  0  0  0
 34 35  1  0  0  0  0
 34 38  1  0  0  0  0
 34 39  1  0  0  0  0
 35 36  1  0  0  0  0
 35 37  1  0  0  0  0
 47 48  2  0  0  0  0
 47 53  1  0  0  0  0
 48 49  1  0  0  0  0
 48 58  1  0  0  0  0
 49 50  1  0  0  0  0
 49 51  2  0  0  0  0
 51 52  1  0  0  0  0
 51 57  1  0  0  0  0
 52 53  2  0  0  0  0
 52 56  1  0  0  0  0
 53 54  1  0  0  0  0
 54 55  2  0  0  0  0
M  CHG  1   2   1
M  END
>  <MODEL>
       1

$$$$
