output/tmp_first_model_4_95.pdb
 OpenBabel07222620063D

 67 71  0  0  1  0  0  0  0  0999 V2000
    4.9580   -3.0720   18.7090 C   0  0  0  0  0  0  0  0  0  0  0  0
    5.4830   -3.6560   19.9250 N   0  0  0  0  0  0  0  0  0  0  0  0
    5.9170   -4.9310   20.0260 C   0  0  0  0  0  0  0  0  0  0  0  0
    5.6900   -5.7950   19.1930 O   0  0  0  0  0  0  0  0  0  0  0  0
    6.7940   -5.2660   21.2390 C   0  0  0  0  0  0  0  0  0  0  0  0
    6.8750   -4.2500   22.2760 N   0  0  0  0  0  0  0  0  0  0  0  0
    7.7980   -3.1290   22.1150 C   0  0  0  0  0  0  0  0  0  0  0  0
    7.2860   -1.8350   22.8070 C   0  0  2  0  0  0  0  0  0  0  0  0
    6.2200   -1.1840   21.8950 C   0  0  0  0  0  0  0  0  0  0  0  0
    5.0420   -1.4960   21.8220 O   0  0  0  0  0  0  0  0  0  0  0  0
    6.8340   -0.2570   21.0720 N   0  0  0  0  0  0  0  0  0  0  0  0
    6.2100    0.3110   19.9430 C   0  0  0  0  0  0  0  0  0  0  0  0
    6.7570    0.1570   18.6910 C   0  0  0  0  0  0  0  0  0  0  0  0
    6.1420    0.5330   17.5460 N   0  0  0  0  0  0  0  0  0  0  0  0
    4.9820    1.1430   17.6470 C   0  0  0  0  0  0  0  0  0  0  0  0
    4.3660    1.4660   18.8880 C   0  0  0  0  0  0  0  0  0  0  0  0
    3.1530    2.2040   18.9470 C   0  0  0  0  0  0  0  0  0  0  0  0
    2.6130    2.5560   20.1530 C   0  0  0  0  0  0  0  0  0  0  0  0
    3.2510    2.1750   21.3530 C   0  0  0  0  0  0  0  0  0  0  0  0
    4.4110    1.4420   21.3250 C   0  0  0  0  0  0  0  0  0  0  0  0
    4.9950    1.0610   20.0840 C   0  0  0  0  0  0  0  0  0  0  0  0
    4.8810    1.1440   22.2550 H   0  0  0  0  0  0  0  0  0  0  0  0
    2.8280    2.4700   22.3080 H   0  0  0  0  0  0  0  0  0  0  0  0
    1.7030    3.1480   20.2000 H   0  0  0  0  0  0  0  0  0  0  0  0
    2.6780    2.4990   18.0160 H   0  0  0  0  0  0  0  0  0  0  0  0
    4.4850    1.4320   16.7210 H   0  0  0  0  0  0  0  0  0  0  0  0
    7.7190   -0.3400   18.5530 H   0  0  0  0  0  0  0  0  0  0  0  0
    8.2760   -0.2660   21.2690 C   0  0  0  0  0  0  0  0  0  0  0  0
    8.3540   -0.7010   22.7390 C   0  0  2  0  0  0  0  0  0  0  0  0
    9.7570   -0.9990   23.2540 C   0  0  0  0  0  0  0  0  0  0  0  0
   10.5170    0.5640   23.7350 S   0  0  0  0  0  0  0  0  0  0  0  0
   10.1450    0.8300   25.1210 O   0  0  0  0  0  0  0  0  0  0  0  0
   10.2060    1.5420   22.7000 O   0  0  0  0  0  0  0  0  0  0  0  0
   12.1550    0.2460   23.6200 N   0  0  0  0  0  0  0  0  0  0  0  0
   12.7500   -0.4250   24.7660 C   0  0  0  0  0  0  0  0  0  0  0  0
   12.4520   -1.4770   24.7930 H   0  0  0  0  0  0  0  0  0  0  0  0
   12.4780    0.0590   25.7080 H   0  0  0  0  0  0  0  0  0  0  0  0
   13.8360   -0.4010   24.6460 H   0  0  0  0  0  0  0  0  0  0  0  0
   12.9360    1.3480   23.0540 C   0  0  0  0  0  0  0  0  0  0  0  0
   12.8960    2.2600   23.6610 H   0  0  0  0  0  0  0  0  0  0  0  0
   13.9780    1.0340   22.9620 H   0  0  0  0  0  0  0  0  0  0  0  0
   12.5450    1.5600   22.0620 H   0  0  0  0  0  0  0  0  0  0  0  0
   10.3710   -1.4650   22.4740 H   0  0  0  0  0  0  0  0  0  0  0  0
    9.7390   -1.6650   24.1270 H   0  0  0  0  0  0  0  0  0  0  0  0
    7.9600    0.1320   23.3260 H   0  0  0  0  0  0  0  0  0  0  0  0
    8.7130    0.7030   21.0590 H   0  0  0  0  0  0  0  0  0  0  0  0
    8.7710   -1.0100   20.6220 H   0  0  0  0  0  0  0  0  0  0  0  0
    6.7690   -2.1880   24.1870 C   0  0  0  0  0  0  0  0  0  0  0  0
    6.4960   -1.1860   25.1320 C   0  0  0  0  0  0  0  0  0  0  0  0
    6.0880   -1.5380   26.4070 C   0  0  0  0  0  0  0  0  0  0  0  0
    5.8500   -0.5640   27.3020 F   0  0  0  0  0  0  0  0  0  0  0  0
    5.9180   -2.8560   26.8120 C   0  0  0  0  0  0  0  0  0  0  0  0
    6.1210   -3.8410   25.8640 C   0  0  0  0  0  0  0  0  0  0  0  0
    6.5060   -3.5180   24.5580 C   0  0  0  0  0  0  0  0  0  0  0  0
    6.5450   -4.6370   23.5570 C   0  0  0  0  0  0  0  0  0  0  0  0
    6.2560   -5.7880   23.8490 O   0  0  0  0  0  0  0  0  0  0  0  0
    5.9610   -4.8890   26.0970 H   0  0  0  0  0  0  0  0  0  0  0  0
    5.6130   -3.0740   27.8350 H   0  0  0  0  0  0  0  0  0  0  0  0
    6.5870   -0.1350   24.8830 H   0  0  0  0  0  0  0  0  0  0  0  0
    8.7910   -3.3900   22.5110 H   0  0  0  0  0  0  0  0  0  0  0  0
    7.9120   -2.9380   21.0520 H   0  0  0  0  0  0  0  0  0  0  0  0
    7.7980   -5.5380   20.8810 H   0  0  0  0  0  0  0  0  0  0  0  0
    6.3900   -6.1690   21.7030 H   0  0  0  0  0  0  0  0  0  0  0  0
    5.3720   -3.1160   20.7770 H   0  0  0  0  0  0  0  0  0  0  0  0
    5.4360   -3.5170   17.8320 H   0  0  0  0  0  0  0  0  0  0  0  0
    3.8780   -3.1830   18.6260 H   0  0  0  0  0  0  0  0  0  0  0  0
    5.1660   -1.9990   18.7250 H   0  0  0  0  0  0  0  0  0  0  0  0
  1  2  1  0  0  0  0
  1 65  1  0  0  0  0
  1 66  1  0  0  0  0
  1 67  1  0  0  0  0
  2  3  1  0  0  0  0
  2 64  1  0  0  0  0
  3  4  2  0  0  0  0
  3  5  1  0  0  0  0
  5  6  1  0  0  0  0
  5 62  1  0  0  0  0
  5 63  1  0  0  0  0
  6  7  1  0  0  0  0
  6 55  1  0  0  0  0
  7  8  1  0  0  0  0
  7 60  1  0  0  0  0
  7 61  1  0  0  0  0
  8  9  1  6  0  0  0
  8 29  1  0  0  0  0
  8 48  1  0  0  0  0
  9 10  2  0  0  0  0
  9 11  1  0  0  0  0
 11 12  1  0  0  0  0
 11 28  1  0  0  0  0
 12 13  2  0  0  0  0
 12 21  1  0  0  0  0
 13 14  1  0  0  0  0
 13 27  1  0  0  0  0
 14 15  2  0  0  0  0
 15 16  1  0  0  0  0
 15 26  1  0  0  0  0
 16 17  2  0  0  0  0
 16 21  1  0  0  0  0
 17 18  1  0  0  0  0
 17 25  1  0  0  0  0
 18 19  2  0  0  0  0
 18 24  1  0  0  0  0
 19 20  1  0  0  0  0
 19 23  1  0  0  0  0
 20 21  2  0  0  0  0
 20 22  1  0  0  0  0
 28 29  1  0  0  0  0
 28 46  1  0  0  0  0
 28 47  1  0  0  0  0
 29 30  1  0  0  0  0
 29 45  1  1  0  0  0
 30 31  1  0  0  0  0
 30 43  1  0  0  0  0
 30 44  1  0  0  0  0
 31 32  2  0  0  0  0
 31 33  2  0  0  0  0
 31 34  1  0  0  0  0
 34 35  1  0  0  0  0
 34 39  1  0  0  0  0
 35 36  1  0  0  0  0
 35 37  1  0  0  0  0
 35 38  1  0  0  0  0
 39 40  1  0  0  0  0
 39 41  1  0  0  0  0
 39 42  1  0  0  0  0
 48 49  2  0  0  0  0
 48 54  1  0  0  0  0
 49 50  1  0  0  0  0
 49 59  1  0  0  0  0
 50 51  1  0  0  0  0
 50 52  2  0  0  0  0
 52 53  1  0  0  0  0
 52 58  1  0  0  0  0
 53 54  2  0  0  0  0
 53 57  1  0  0  0  0
 54 55  1  0  0  0  0
 55 56  2  0  0  0  0
M  END
>  <MODEL>
       1

$$$$
