output/tmp_first_model_2_9.pdb
 OpenBabel07222619223D

 58 63  0  0  1  0  0  0  0  0999 V2000
    5.3740    5.0660   21.9260 C   0  0  0  0  0  0  0  0  0  0  0  0
    5.9960    4.2450   23.0080 C   0  0  0  0  0  0  0  0  0  0  0  0
    7.3860    4.0310   23.2210 C   0  0  0  0  0  0  0  0  0  0  0  0
    7.4200    3.1650   24.2620 C   0  0  0  0  0  0  0  0  0  0  0  0
    8.5320    2.4710   24.9740 C   0  0  0  0  0  0  0  0  0  0  0  0
    9.1790    1.4380   24.1730 N   0  0  0  0  0  0  0  0  0  0  0  0
    8.5140    0.1540   24.0010 C   0  0  0  0  0  0  0  0  0  0  0  0
    8.6120   -0.3950   22.5560 C   0  0  2  0  0  0  0  0  0  0  0  0
    7.8140    0.4740   21.5570 C   0  0  0  0  0  0  0  0  0  0  0  0
    7.9670    1.6520   21.3310 O   0  0  0  0  0  0  0  0  0  0  0  0
    6.8880   -0.3270   20.9150 N   0  0  0  0  0  0  0  0  0  0  0  0
    6.1400    0.1500   19.8110 C   0  0  0  0  0  0  0  0  0  0  0  0
    6.4640   -0.2000   18.5240 C   0  0  0  0  0  0  0  0  0  0  0  0
    5.8000    0.2330   17.4260 N   0  0  0  0  0  0  0  0  0  0  0  0
    4.7720    1.0250   17.6080 C   0  0  0  0  0  0  0  0  0  0  0  0
    4.3120    1.4450   18.8870 C   0  0  0  0  0  0  0  0  0  0  0  0
    3.1820    2.2900   19.0450 C   0  0  0  0  0  0  0  0  0  0  0  0
    2.7460    2.6350   20.2950 C   0  0  0  0  0  0  0  0  0  0  0  0
    3.4120    2.1550   21.4430 C   0  0  0  0  0  0  0  0  0  0  0  0
    4.5160    1.3460   21.3170 C   0  0  0  0  0  0  0  0  0  0  0  0
    5.0010    0.9850   20.0310 C   0  0  0  0  0  0  0  0  0  0  0  0
    5.0180    0.9470   22.1910 H   0  0  0  0  0  0  0  0  0  0  0  0
    3.0520    2.4270   22.4310 H   0  0  0  0  0  0  0  0  0  0  0  0
    1.8810    3.2820   20.4110 H   0  0  0  0  0  0  0  0  0  0  0  0
    2.6770    2.6480   18.1540 H   0  0  0  0  0  0  0  0  0  0  0  0
    4.2420    1.3660   16.7190 H   0  0  0  0  0  0  0  0  0  0  0  0
    7.3160   -0.8480   18.3220 H   0  0  0  0  0  0  0  0  0  0  0  0
    7.1630   -1.7350   21.0840 C   0  0  0  0  0  0  0  0  0  0  0  0
    7.9780   -1.8140   22.3890 C   0  0  2  0  0  0  0  0  0  0  0  0
    7.1710   -2.3750   23.5640 C   0  0  0  0  0  0  0  0  0  0  0  0
    6.8140   -3.3790   23.3090 H   0  0  0  0  0  0  0  0  0  0  0  0
    7.7960   -2.4780   24.4570 H   0  0  0  0  0  0  0  0  0  0  0  0
    6.3000   -1.7650   23.8180 H   0  0  0  0  0  0  0  0  0  0  0  0
    8.7790   -2.5410   22.2600 H   0  0  0  0  0  0  0  0  0  0  0  0
    7.7610   -2.1130   20.2430 H   0  0  0  0  0  0  0  0  0  0  0  0
    6.2230   -2.2950   21.1300 H   0  0  0  0  0  0  0  0  0  0  0  0
   10.0920   -0.3620   22.1810 C   0  0  0  0  0  0  0  0  0  0  0  0
   10.6730   -1.3310   21.3500 C   0  0  0  0  0  0  0  0  0  0  0  0
   12.0210   -1.2780   21.0560 C   0  0  0  0  0  0  0  0  0  0  0  0
   12.5440   -2.2010   20.2260 F   0  0  0  0  0  0  0  0  0  0  0  0
   12.8360   -0.2450   21.5220 C   0  0  0  0  0  0  0  0  0  0  0  0
   12.2560    0.7410   22.2870 C   0  0  0  0  0  0  0  0  0  0  0  0
   10.9120    0.6750   22.6520 C   0  0  0  0  0  0  0  0  0  0  0  0
   10.3930    1.7190   23.5970 C   0  0  0  0  0  0  0  0  0  0  0  0
   11.0190    2.7410   23.8470 O   0  0  0  0  0  0  0  0  0  0  0  0
   12.8430    1.5740   22.6550 H   0  0  0  0  0  0  0  0  0  0  0  0
   13.8960   -0.2320   21.2700 H   0  0  0  0  0  0  0  0  0  0  0  0
   10.1190   -2.1610   20.9280 H   0  0  0  0  0  0  0  0  0  0  0  0
    7.4700    0.2820   24.2860 H   0  0  0  0  0  0  0  0  0  0  0  0
    8.9620   -0.5940   24.6700 H   0  0  0  0  0  0  0  0  0  0  0  0
    9.3100    3.1960   25.2160 H   0  0  0  0  0  0  0  0  0  0  0  0
    8.1240    2.0760   25.9060 H   0  0  0  0  0  0  0  0  0  0  0  0
    6.1730    2.9050   24.6810 O   0  0  0  0  0  0  0  0  0  0  0  0
    5.2700    3.5830   23.8860 N   0  0  0  0  0  0  0  0  0  0  0  0
    8.2150    4.4130   22.6400 H   0  0  0  0  0  0  0  0  0  0  0  0
    5.9390    5.9900   21.7760 H   0  0  0  0  0  0  0  0  0  0  0  0
    4.3380    5.3110   22.1670 H   0  0  0  0  0  0  0  0  0  0  0  0
    5.3890    4.5060   20.9830 H   0  0  0  0  0  0  0  0  0  0  0  0
  1  2  1  0  0  0  0
  1 56  1  0  0  0  0
  1 57  1  0  0  0  0
  1 58  1  0  0  0  0
  2  3  1  0  0  0  0
  2 54  2  0  0  0  0
  3  4  2  0  0  0  0
  3 55  1  0  0  0  0
  4  5  1  0  0  0  0
  4 53  1  0  0  0  0
  5  6  1  0  0  0  0
  5 51  1  0  0  0  0
  5 52  1  0  0  0  0
  6  7  1  0  0  0  0
  6 44  1  0  0  0  0
  7  8  1  0  0  0  0
  7 49  1  0  0  0  0
  7 50  1  0  0  0  0
  8  9  1  6  0  0  0
  8 29  1  0  0  0  0
  8 37  1  0  0  0  0
  9 10  2  0  0  0  0
  9 11  1  0  0  0  0
 11 12  1  0  0  0  0
 11 28  1  0  0  0  0
 12 13  2  0  0  0  0
 12 21  1  0  0  0  0
 13 14  1  0  0  0  0
 13 27  1  0  0  0  0
 14 15  2  0  0  0  0
 15 16  1  0  0  0  0
 15 26  1  0  0  0  0
 16 17  2  0  0  0  0
 16 21  1  0  0  0  0
 17 18  1  0  0  0  0
 17 25  1  0  0  0  0
 18 19  2  0  0  0  0
 18 24  1  0  0  0  0
 19 20  1  0  0  0  0
 19 23  1  0  0  0  0
 20 21  2  0  0  0  0
 20 22  1  0  0  0  0
 28 29  1  0  0  0  0
 28 35  1  0  0  0  0
 28 36  1  0  0  0  0
 29 30  1  0  0  0  0
 29 34  1  6  0  0  0
 30 31  1  0  0  0  0
 30 32  1  0  0  0  0
 30 33  1  0  0  0  0
 37 38  2  0  0  0  0
 37 43  1  0  0  0  0
 38 39  1  0  0  0  0
 38 48  1  0  0  0  0
 39 40  1  0  0  0  0
 39 41  2  0  0  0  0
 41 42  1  0  0  0  0
 41 47  1  0  0  0  0
 42 43  2  0  0  0  0
 42 46  1  0  0  0  0
 43 44  1  0  0  0  0
 44 45  2  0  0  0  0
 53 54  1  0  0  0  0
M  END
>  <MODEL>
       1

$$$$
