output/tmp_first_model_19_91.pdb
 OpenBabel07232603163D

 56 61  0  0  1  0  0  0  0  0999 V2000
    7.7590   -3.0180   23.3040 C   0  0  0  0  0  0  0  0  0  0  0  0
    8.0050   -1.9200   22.2800 C   0  0  1  0  0  0  0  0  0  0  0  0
    6.8570   -1.7780   21.2730 C   0  0  0  0  0  0  0  0  0  0  0  0
    6.9560   -0.3970   20.8490 N   0  0  0  0  0  0  0  0  0  0  0  0
    6.1640    0.1170   19.7940 C   0  0  0  0  0  0  0  0  0  0  0  0
    6.4630   -0.2350   18.5010 C   0  0  0  0  0  0  0  0  0  0  0  0
    5.7940    0.1980   17.4050 N   0  0  0  0  0  0  0  0  0  0  0  0
    4.7710    0.9920   17.6130 C   0  0  0  0  0  0  0  0  0  0  0  0
    4.3200    1.3930   18.9010 C   0  0  0  0  0  0  0  0  0  0  0  0
    3.1880    2.2340   19.0510 C   0  0  0  0  0  0  0  0  0  0  0  0
    2.7490    2.5850   20.2970 C   0  0  0  0  0  0  0  0  0  0  0  0
    3.4140    2.1050   21.4460 C   0  0  0  0  0  0  0  0  0  0  0  0
    4.5180    1.2970   21.3280 C   0  0  0  0  0  0  0  0  0  0  0  0
    5.0140    0.9350   20.0410 C   0  0  0  0  0  0  0  0  0  0  0  0
    5.0190    0.9410   22.2220 H   0  0  0  0  0  0  0  0  0  0  0  0
    3.0470    2.3820   22.4290 H   0  0  0  0  0  0  0  0  0  0  0  0
    1.8860    3.2350   20.4080 H   0  0  0  0  0  0  0  0  0  0  0  0
    2.6930    2.5980   18.1560 H   0  0  0  0  0  0  0  0  0  0  0  0
    4.2350    1.3540   16.7360 H   0  0  0  0  0  0  0  0  0  0  0  0
    7.3080   -0.8950   18.3170 H   0  0  0  0  0  0  0  0  0  0  0  0
    7.7090    0.3980   21.6910 C   0  0  0  0  0  0  0  0  0  0  0  0
    7.8620    1.5940   21.5460 O   0  0  0  0  0  0  0  0  0  0  0  0
    8.2520   -0.4700   22.8440 C   0  0  1  0  0  0  0  0  0  0  0  0
    7.4140   -0.0870   24.0970 C   0  0  0  0  0  0  0  0  0  0  0  0
    8.0030   -0.5350   25.3560 N   0  0  0  0  0  0  0  0  0  0  0  0
    7.1650   -0.8080   26.5220 C   0  0  0  0  0  0  0  0  0  0  0  0
    6.9330   -2.2770   26.7810 C   0  0  0  0  0  0  0  0  0  0  0  0
    5.7230   -2.9890   26.6710 C   0  0  0  0  0  0  0  0  0  0  0  0
    5.8560   -4.2720   26.9910 N   0  0  0  0  0  0  0  0  0  0  0  0
    7.1610   -4.3890   27.2820 N   0  0  0  0  0  0  0  0  0  0  0  0
    7.8540   -3.2290   27.1730 C   0  0  0  0  0  0  0  0  0  0  0  0
    8.9180   -3.1700   27.3760 H   0  0  0  0  0  0  0  0  0  0  0  0
    7.5210   -5.2760   27.5970 H   0  0  0  0  0  0  0  0  0  0  0  0
    4.7610   -2.6050   26.3490 H   0  0  0  0  0  0  0  0  0  0  0  0
    6.2140   -0.2790   26.3950 H   0  0  0  0  0  0  0  0  0  0  0  0
    7.6740   -0.3730   27.3900 H   0  0  0  0  0  0  0  0  0  0  0  0
    9.3480   -0.6150   25.5810 C   0  0  0  0  0  0  0  0  0  0  0  0
    9.8110   -0.9530   26.6630 O   0  0  0  0  0  0  0  0  0  0  0  0
   10.2280   -0.2760   24.4430 C   0  0  0  0  0  0  0  0  0  0  0  0
   11.5850   -0.1120   24.7180 C   0  0  0  0  0  0  0  0  0  0  0  0
   12.4850    0.0810   23.6940 C   0  0  0  0  0  0  0  0  0  0  0  0
   11.9960    0.0740   22.3940 C   0  0  0  0  0  0  0  0  0  0  0  0
   12.8870    0.0970   21.3980 F   0  0  0  0  0  0  0  0  0  0  0  0
   10.6430   -0.0100   22.1100 C   0  0  0  0  0  0  0  0  0  0  0  0
    9.7240   -0.2030   23.1440 C   0  0  0  0  0  0  0  0  0  0  0  0
   10.2910    0.0820   21.0940 H   0  0  0  0  0  0  0  0  0  0  0  0
   13.5410    0.2060   23.8880 H   0  0  0  0  0  0  0  0  0  0  0  0
   11.9100   -0.1770   25.7510 H   0  0  0  0  0  0  0  0  0  0  0  0
    7.3190    1.0100   24.1020 H   0  0  0  0  0  0  0  0  0  0  0  0
    6.4010   -0.5110   24.0120 H   0  0  0  0  0  0  0  0  0  0  0  0
    5.8760   -1.9930   21.7310 H   0  0  0  0  0  0  0  0  0  0  0  0
    6.9580   -2.4460   20.4120 H   0  0  0  0  0  0  0  0  0  0  0  0
    8.9110   -2.1650   21.7060 H   0  0  0  0  0  0  0  0  0  0  0  0
    7.7060   -3.9940   22.8070 H   0  0  0  0  0  0  0  0  0  0  0  0
    6.8110   -2.8440   23.8240 H   0  0  0  0  0  0  0  0  0  0  0  0
    8.5600   -3.0410   24.0480 H   0  0  0  0  0  0  0  0  0  0  0  0
  1  2  1  0  0  0  0
  1 54  1  0  0  0  0
  1 55  1  0  0  0  0
  1 56  1  0  0  0  0
  2  3  1  0  0  0  0
  2 23  1  0  0  0  0
  2 53  1  6  0  0  0
  3  4  1  0  0  0  0
  3 51  1  0  0  0  0
  3 52  1  0  0  0  0
  4  5  1  0  0  0  0
  4 21  1  0  0  0  0
  5  6  2  0  0  0  0
  5 14  1  0  0  0  0
  6  7  1  0  0  0  0
  6 20  1  0  0  0  0
  7  8  2  0  0  0  0
  8  9  1  0  0  0  0
  8 19  1  0  0  0  0
  9 10  2  0  0  0  0
  9 14  1  0  0  0  0
 10 11  1  0  0  0  0
 10 18  1  0  0  0  0
 11 12  2  0  0  0  0
 11 17  1  0  0  0  0
 12 13  1  0  0  0  0
 12 16  1  0  0  0  0
 13 14  2  0  0  0  0
 13 15  1  0  0  0  0
 21 22  2  0  0  0  0
 23 21  1  6  0  0  0
 23 24  1  0  0  0  0
 23 45  1  0  0  0  0
 24 25  1  0  0  0  0
 24 49  1  0  0  0  0
 24 50  1  0  0  0  0
 25 26  1  0  0  0  0
 25 37  1  0  0  0  0
 26 27  1  0  0  0  0
 26 35  1  0  0  0  0
 26 36  1  0  0  0  0
 27 28  1  0  0  0  0
 27 31  2  0  0  0  0
 28 29  2  0  0  0  0
 28 34  1  0  0  0  0
 29 30  1  0  0  0  0
 30 31  1  0  0  0  0
 30 33  1  0  0  0  0
 31 32  1  0  0  0  0
 37 38  2  0  0  0  0
 37 39  1  0  0  0  0
 39 40  2  0  0  0  0
 39 45  1  0  0  0  0
 40 41  1  0  0  0  0
 40 48  1  0  0  0  0
 41 42  2  0  0  0  0
 41 47  1  0  0  0  0
 42 43  1  0  0  0  0
 42 44  1  0  0  0  0
 44 45  2  0  0  0  0
 44 46  1  0  0  0  0
M  END
>  <MODEL>
       1

$$$$
