output/tmp_first_model_11_33.pdb
 OpenBabel07222623443D

 44 47  0  0  1  0  0  0  0  0999 V2000
    5.4440   -2.4030   20.9490 O   0  0  0  0  0  0  0  0  0  0  0  0
    6.2280   -1.7180   21.5860 C   0  0  0  0  0  0  0  0  0  0  0  0
    6.9110   -0.4910   20.9260 C   0  0  0  0  0  0  0  0  0  0  0  0
    6.1120    0.0820   19.7760 C   0  0  0  0  0  0  0  0  0  0  0  0
    6.4210   -0.2160   18.4740 C   0  0  0  0  0  0  0  0  0  0  0  0
    5.7550    0.2380   17.3760 N   0  0  0  0  0  0  0  0  0  0  0  0
    4.7330    1.0310   17.5820 C   0  0  0  0  0  0  0  0  0  0  0  0
    4.2830    1.4190   18.8720 C   0  0  0  0  0  0  0  0  0  0  0  0
    3.1600    2.2650   19.0480 C   0  0  0  0  0  0  0  0  0  0  0  0
    2.7490    2.6250   20.3000 C   0  0  0  0  0  0  0  0  0  0  0  0
    3.4450    2.1360   21.4310 C   0  0  0  0  0  0  0  0  0  0  0  0
    4.5330    1.3110   21.2950 C   0  0  0  0  0  0  0  0  0  0  0  0
    4.9870    0.9340   20.0030 C   0  0  0  0  0  0  0  0  0  0  0  0
    5.0490    0.9450   22.1820 H   0  0  0  0  0  0  0  0  0  0  0  0
    3.1100    2.4300   22.4180 H   0  0  0  0  0  0  0  0  0  0  0  0
    1.8980    3.2860   20.4360 H   0  0  0  0  0  0  0  0  0  0  0  0
    2.6490    2.6430   18.1650 H   0  0  0  0  0  0  0  0  0  0  0  0
    4.2020    1.3980   16.7000 H   0  0  0  0  0  0  0  0  0  0  0  0
    7.2640   -0.8650   18.2440 H   0  0  0  0  0  0  0  0  0  0  0  0
    7.8720   -0.8410   20.5220 H   0  0  0  0  0  0  0  0  0  0  0  0
    7.1560    0.2910   21.6540 H   0  0  0  0  0  0  0  0  0  0  0  0
    6.5590   -2.0610   22.8740 N   0  0  0  0  0  0  0  0  0  0  0  0
    6.0850   -3.3300   23.4190 C   0  0  0  0  0  0  0  0  0  0  0  0
    6.6000   -3.3630   24.8660 C   0  0  0  0  0  0  0  0  0  0  0  0
    7.6650   -2.2680   24.9550 C   0  0  0  0  0  0  0  0  0  0  0  0
    7.3580   -1.2830   23.8100 C   0  0  2  0  0  0  0  0  0  0  0  0
    6.6490   -0.0320   24.2980 C   0  0  0  0  0  0  0  0  0  0  0  0
    7.3310    1.1830   24.3530 C   0  0  0  0  0  0  0  0  0  0  0  0
    6.6950    2.3340   24.8060 C   0  0  0  0  0  0  0  0  0  0  0  0
    5.3710    2.2930   25.2280 C   0  0  0  0  0  0  0  0  0  0  0  0
    4.7230    1.0680   25.1930 C   0  0  0  0  0  0  0  0  0  0  0  0
    3.4430    1.0090   25.5960 F   0  0  0  0  0  0  0  0  0  0  0  0
    5.3310   -0.0920   24.7450 C   0  0  0  0  0  0  0  0  0  0  0  0
    4.7620   -1.0170   24.7420 H   0  0  0  0  0  0  0  0  0  0  0  0
    4.8410    3.1780   25.5660 H   0  0  0  0  0  0  0  0  0  0  0  0
    7.2270    3.2780   24.8120 H   0  0  0  0  0  0  0  0  0  0  0  0
    8.3670    1.2310   24.0270 H   0  0  0  0  0  0  0  0  0  0  0  0
    8.2890   -0.9780   23.3310 H   0  0  0  0  0  0  0  0  0  0  0  0
    7.6560   -1.7640   25.9240 H   0  0  0  0  0  0  0  0  0  0  0  0
    8.6670   -2.6860   24.8350 H   0  0  0  0  0  0  0  0  0  0  0  0
    7.0140   -4.3390   25.1230 H   0  0  0  0  0  0  0  0  0  0  0  0
    5.7900   -3.1810   25.5790 H   0  0  0  0  0  0  0  0  0  0  0  0
    6.4880   -4.1510   22.8200 H   0  0  0  0  0  0  0  0  0  0  0  0
    4.9950   -3.4100   23.3660 H   0  0  0  0  0  0  0  0  0  0  0  0
  1  2  2  0  0  0  0
  2  3  1  0  0  0  0
  2 22  1  0  0  0  0
  3  4  1  0  0  0  0
  3 20  1  0  0  0  0
  3 21  1  0  0  0  0
  4  5  2  0  0  0  0
  4 13  1  0  0  0  0
  5  6  1  0  0  0  0
  5 19  1  0  0  0  0
  6  7  2  0  0  0  0
  7  8  1  0  0  0  0
  7 18  1  0  0  0  0
  8  9  2  0  0  0  0
  8 13  1  0  0  0  0
  9 10  1  0  0  0  0
  9 17  1  0  0  0  0
 10 11  2  0  0  0  0
 10 16  1  0  0  0  0
 11 12  1  0  0  0  0
 11 15  1  0  0  0  0
 12 13  2  0  0  0  0
 12 14  1  0  0  0  0
 22 23  1  0  0  0  0
 22 26  1  0  0  0  0
 23 24  1  0  0  0  0
 23 43  1  0  0  0  0
 23 44  1  0  0  0  0
 24 25  1  0  0  0  0
 24 41  1  0  0  0  0
 24 42  1  0  0  0  0
 25 26  1  0  0  0  0
 25 39  1  0  0  0  0
 25 40  1  0  0  0  0
 26 27  1  0  0  0  0
 26 38  1  6  0  0  0
 27 28  2  0  0  0  0
 27 33  1  0  0  0  0
 28 29  1  0  0  0  0
 28 37  1  0  0  0  0
 29 30  2  0  0  0  0
 29 36  1  0  0  0  0
 30 31  1  0  0  0  0
 30 35  1  0  0  0  0
 31 32  1  0  0  0  0
 31 33  2  0  0  0  0
 33 34  1  0  0  0  0
M  END
>  <MODEL>
       1

$$$$
