output/tmp_first_model_7_22.pdb
 OpenBabel07222621533D

 41 44  0  0  0  0  0  0  0  0999 V2000
    7.9290    1.6810   20.9730 O   0  0  0  0  0  0  0  0  0  0  0  0
    7.9990    0.5240   21.3430 C   0  0  0  0  0  0  0  0  0  0  0  0
    6.9400   -0.5200   20.9520 C   0  0  0  0  0  0  0  0  0  0  0  0
    6.0160   -0.0440   19.8680 C   0  0  0  0  0  0  0  0  0  0  0  0
    6.4160   -0.1740   18.5660 C   0  0  0  0  0  0  0  0  0  0  0  0
    5.7630    0.3070   17.4820 N   0  0  0  0  0  0  0  0  0  0  0  0
    4.6550    0.9660   17.7000 C   0  0  0  0  0  0  0  0  0  0  0  0
    4.0850    1.1490   18.9830 C   0  0  0  0  0  0  0  0  0  0  0  0
    2.8560    1.8340   19.1550 C   0  0  0  0  0  0  0  0  0  0  0  0
    2.2900    1.9440   20.3920 C   0  0  0  0  0  0  0  0  0  0  0  0
    2.9380    1.3740   21.5100 C   0  0  0  0  0  0  0  0  0  0  0  0
    4.1500    0.7440   21.3750 C   0  0  0  0  0  0  0  0  0  0  0  0
    4.7680    0.6150   20.1060 C   0  0  0  0  0  0  0  0  0  0  0  0
    4.6480    0.3380   22.2460 H   0  0  0  0  0  0  0  0  0  0  0  0
    2.4910    1.4840   22.4910 H   0  0  0  0  0  0  0  0  0  0  0  0
    1.3620    2.4950   20.5200 H   0  0  0  0  0  0  0  0  0  0  0  0
    2.3710    2.2430   18.2720 H   0  0  0  0  0  0  0  0  0  0  0  0
    4.1510    1.3780   16.8250 H   0  0  0  0  0  0  0  0  0  0  0  0
    7.3680   -0.6520   18.3420 H   0  0  0  0  0  0  0  0  0  0  0  0
    6.3900   -0.8130   21.8530 H   0  0  0  0  0  0  0  0  0  0  0  0
    7.4790   -1.4110   20.5980 H   0  0  0  0  0  0  0  0  0  0  0  0
    9.0310    0.0720   22.1210 N   0  0  0  0  0  0  0  0  0  0  0  0
    9.1520   -1.3110   22.5750 C   0  0  0  0  0  0  0  0  0  0  0  0
   10.0280   -1.4020   23.8210 C   0  0  0  0  0  0  0  0  0  0  0  0
   11.3720   -0.7970   23.5350 C   0  0  0  0  0  0  0  0  0  0  0  0
   12.5870   -1.3150   23.9740 C   0  0  0  0  0  0  0  0  0  0  0  0
   12.6320   -2.7450   24.9710 Cl  0  0  0  0  0  0  0  0  0  0  0  0
   13.7900   -0.7260   23.6170 C   0  0  0  0  0  0  0  0  0  0  0  0
   13.7930    0.3860   22.7880 C   0  0  0  0  0  0  0  0  0  0  0  0
   12.5880    0.9420   22.3670 C   0  0  0  0  0  0  0  0  0  0  0  0
   11.3850    0.3770   22.7770 C   0  0  0  0  0  0  0  0  0  0  0  0
   10.0500    1.0350   22.5360 C   0  0  0  0  0  0  0  0  0  0  0  0
    9.7180    1.5180   23.4710 H   0  0  0  0  0  0  0  0  0  0  0  0
   10.1360    1.8220   21.7890 H   0  0  0  0  0  0  0  0  0  0  0  0
   12.5880    1.8250   21.7300 H   0  0  0  0  0  0  0  0  0  0  0  0
   14.7300    0.8410   22.4790 H   0  0  0  0  0  0  0  0  0  0  0  0
   14.7000   -1.1600   24.0070 H   0  0  0  0  0  0  0  0  0  0  0  0
   10.1270   -2.4490   24.1090 H   0  0  0  0  0  0  0  0  0  0  0  0
    9.5500   -0.8760   24.6590 H   0  0  0  0  0  0  0  0  0  0  0  0
    9.5940   -1.9360   21.7820 H   0  0  0  0  0  0  0  0  0  0  0  0
    8.1620   -1.7150   22.8090 H   0  0  0  0  0  0  0  0  0  0  0  0
  1  2  2  0  0  0  0
  2  3  1  0  0  0  0
  2 22  1  0  0  0  0
  3  4  1  0  0  0  0
  3 20  1  0  0  0  0
  3 21  1  0  0  0  0
  4  5  2  0  0  0  0
  4 13  1  0  0  0  0
  5  6  1  0  0  0  0
  5 19  1  0  0  0  0
  6  7  2  0  0  0  0
  7  8  1  0  0  0  0
  7 18  1  0  0  0  0
  8  9  2  0  0  0  0
  8 13  1  0  0  0  0
  9 10  1  0  0  0  0
  9 17  1  0  0  0  0
 10 11  2  0  0  0  0
 10 16  1  0  0  0  0
 11 12  1  0  0  0  0
 11 15  1  0  0  0  0
 12 13  2  0  0  0  0
 12 14  1  0  0  0  0
 22 23  1  0  0  0  0
 22 32  1  0  0  0  0
 23 24  1  0  0  0  0
 23 40  1  0  0  0  0
 23 41  1  0  0  0  0
 24 25  1  0  0  0  0
 24 38  1  0  0  0  0
 24 39  1  0  0  0  0
 25 26  2  0  0  0  0
 25 31  1  0  0  0  0
 26 27  1  0  0  0  0
 26 28  1  0  0  0  0
 28 29  2  0  0  0  0
 28 37  1  0  0  0  0
 29 30  1  0  0  0  0
 29 36  1  0  0  0  0
 30 31  2  0  0  0  0
 30 35  1  0  0  0  0
 31 32  1  0  0  0  0
 32 33  1  0  0  0  0
 32 34  1  0  0  0  0
M  END
>  <MODEL>
       1

$$$$
