output/tmp_first_model_1_19.pdb
 OpenBabel07222618483D

 67 71  0  0  1  0  0  0  0  0999 V2000
    8.2630    1.6260   27.6260 O   0  0  0  0  0  0  0  0  0  0  0  0
    7.4540    1.1820   26.8280 C   0  0  0  0  0  0  0  0  0  0  0  0
    7.1660    1.8910   25.4960 C   0  0  0  0  0  0  0  0  0  0  0  0
    8.0720    1.4480   24.4030 N   0  3  1  0  0  0  0  0  0  0  0  0
    9.4900    1.7920   24.7350 C   0  0  0  0  0  0  0  0  0  0  0  0
   10.4380    1.3640   23.6490 C   0  0  0  0  0  0  0  0  0  0  0  0
   11.7320    1.8790   23.6650 C   0  0  0  0  0  0  0  0  0  0  0  0
   12.7120    1.3770   22.8260 C   0  0  0  0  0  0  0  0  0  0  0  0
   12.3520    0.4050   21.9020 C   0  0  0  0  0  0  0  0  0  0  0  0
   13.5750   -0.1090   20.7700 Cl  0  0  0  0  0  0  0  0  0  0  0  0
   11.0600   -0.1120   21.8540 C   0  0  0  0  0  0  0  0  0  0  0  0
   10.0790    0.3790   22.7260 C   0  0  0  0  0  0  0  0  0  0  0  0
    8.6610   -0.1770   22.7070 C   0  0  2  0  0  0  0  0  0  0  0  0
    7.6730    0.5390   21.7640 C   0  0  0  0  0  0  0  0  0  0  0  0
    7.4880    1.7440   21.8230 O   0  0  0  0  0  0  0  0  0  0  0  0
    6.9100   -0.3220   21.0030 N   0  0  0  0  0  0  0  0  0  0  0  0
    6.0250    0.0060   19.9290 C   0  0  0  0  0  0  0  0  0  0  0  0
    6.4640   -0.1500   18.6360 C   0  0  0  0  0  0  0  0  0  0  0  0
    5.7360    0.0850   17.5180 N   0  0  0  0  0  0  0  0  0  0  0  0
    4.4970    0.4780   17.6960 C   0  0  0  0  0  0  0  0  0  0  0  0
    3.8920    0.6450   18.9670 C   0  0  0  0  0  0  0  0  0  0  0  0
    2.5810    1.1850   19.0920 C   0  0  0  0  0  0  0  0  0  0  0  0
    2.0050    1.3060   20.3250 C   0  0  0  0  0  0  0  0  0  0  0  0
    2.7190    0.9210   21.4840 C   0  0  0  0  0  0  0  0  0  0  0  0
    4.0090    0.4500   21.4000 C   0  0  0  0  0  0  0  0  0  0  0  0
    4.6490    0.3510   20.1320 C   0  0  0  0  0  0  0  0  0  0  0  0
    4.5620    0.2050   22.3020 H   0  0  0  0  0  0  0  0  0  0  0  0
    2.2510    1.0520   22.4540 H   0  0  0  0  0  0  0  0  0  0  0  0
    0.9990    1.7050   20.4230 H   0  0  0  0  0  0  0  0  0  0  0  0
    2.0960    1.5780   18.2050 H   0  0  0  0  0  0  0  0  0  0  0  0
    3.8890    0.6550   16.8090 H   0  0  0  0  0  0  0  0  0  0  0  0
    7.4810   -0.4910   18.4530 H   0  0  0  0  0  0  0  0  0  0  0  0
    7.2640   -1.2680   20.9620 H   0  0  0  0  0  0  0  0  0  0  0  0
    8.0010   -0.0210   24.0790 C   0  0  0  0  0  0  0  0  0  0  0  0
    6.9540   -0.3340   24.0370 H   0  0  0  0  0  0  0  0  0  0  0  0
    8.5290   -0.5910   24.8480 H   0  0  0  0  0  0  0  0  0  0  0  0
    8.6940   -1.2290   22.4130 H   0  0  0  0  0  0  0  0  0  0  0  0
   10.8190   -0.8980   21.1450 H   0  0  0  0  0  0  0  0  0  0  0  0
   13.7360    1.7350   22.8680 H   0  0  0  0  0  0  0  0  0  0  0  0
   11.9710    2.7070   24.3200 H   0  0  0  0  0  0  0  0  0  0  0  0
    9.7590    1.2990   25.6760 H   0  0  0  0  0  0  0  0  0  0  0  0
    9.5660    2.8690   24.9240 H   0  0  0  0  0  0  0  0  0  0  0  0
    7.8060    1.9400   23.5170 H   0  0  0  0  0  0  0  0  0  0  0  0
    6.1280    1.7350   25.1880 H   0  0  0  0  0  0  0  0  0  0  0  0
    7.3150    2.9620   25.6650 H   0  0  0  0  0  0  0  0  0  0  0  0
    6.7700    0.0200   27.0300 N   0  0  0  0  0  0  0  0  0  0  0  0
    6.9060   -0.7770   28.2370 C   0  0  0  0  0  0  0  0  0  0  0  0
    5.8510   -0.4490   29.3110 C   0  0  0  0  0  0  0  0  0  0  0  0
    5.9620    0.9670   29.8220 C   0  0  0  0  0  0  0  0  0  0  0  0
    6.8750    1.2820   30.8290 C   0  0  0  0  0  0  0  0  0  0  0  0
    7.0560    2.5930   31.2490 C   0  0  0  0  0  0  0  0  0  0  0  0
    6.3180    3.6180   30.6600 C   0  0  0  0  0  0  0  0  0  0  0  0
    6.5180    5.0350   31.1000 C   0  0  0  0  0  0  0  0  0  0  0  0
    6.2100    5.1710   32.4230 F   0  0  0  0  0  0  0  0  0  0  0  0
    7.8260    5.4020   30.9740 F   0  0  0  0  0  0  0  0  0  0  0  0
    5.9110    5.7510   30.5350 H   0  0  0  0  0  0  0  0  0  0  0  0
    5.3910    3.3150   29.6700 C   0  0  0  0  0  0  0  0  0  0  0  0
    5.2100    2.0010   29.2590 C   0  0  0  0  0  0  0  0  0  0  0  0
    4.4890    1.7700   28.4800 H   0  0  0  0  0  0  0  0  0  0  0  0
    4.8040    4.1120   29.2140 H   0  0  0  0  0  0  0  0  0  0  0  0
    7.7760    2.8350   32.0260 H   0  0  0  0  0  0  0  0  0  0  0  0
    7.4550    0.4900   31.2970 H   0  0  0  0  0  0  0  0  0  0  0  0
    4.8520   -0.6240   28.8950 H   0  0  0  0  0  0  0  0  0  0  0  0
    5.9690   -1.1560   30.1420 H   0  0  0  0  0  0  0  0  0  0  0  0
    6.8350   -1.8340   27.9600 H   0  0  0  0  0  0  0  0  0  0  0  0
    7.9110   -0.5980   28.6300 H   0  0  0  0  0  0  0  0  0  0  0  0
    6.1600   -0.3050   26.2980 H   0  0  0  0  0  0  0  0  0  0  0  0
  1  2  2  0  0  0  0
  2  3  1  0  0  0  0
  2 46  1  0  0  0  0
  3  4  1  0  0  0  0
  3 44  1  0  0  0  0
  3 45  1  0  0  0  0
  4  5  1  0  0  0  0
  4 34  1  0  0  0  0
  4 43  1  6  0  0  0
  5  6  1  0  0  0  0
  5 41  1  0  0  0  0
  5 42  1  0  0  0  0
  6  7  2  0  0  0  0
  6 12  1  0  0  0  0
  7  8  1  0  0  0  0
  7 40  1  0  0  0  0
  8  9  2  0  0  0  0
  8 39  1  0  0  0  0
  9 10  1  0  0  0  0
  9 11  1  0  0  0  0
 11 12  2  0  0  0  0
 11 38  1  0  0  0  0
 12 13  1  0  0  0  0
 13 14  1  0  0  0  0
 13 34  1  0  0  0  0
 13 37  1  6  0  0  0
 14 15  2  0  0  0  0
 14 16  1  0  0  0  0
 16 17  1  0  0  0  0
 16 33  1  0  0  0  0
 17 18  2  0  0  0  0
 17 26  1  0  0  0  0
 18 19  1  0  0  0  0
 18 32  1  0  0  0  0
 19 20  2  0  0  0  0
 20 21  1  0  0  0  0
 20 31  1  0  0  0  0
 21 22  2  0  0  0  0
 21 26  1  0  0  0  0
 22 23  1  0  0  0  0
 22 30  1  0  0  0  0
 23 24  2  0  0  0  0
 23 29  1  0  0  0  0
 24 25  1  0  0  0  0
 24 28  1  0  0  0  0
 25 26  2  0  0  0  0
 25 27  1  0  0  0  0
 34 35  1  0  0  0  0
 34 36  1  0  0  0  0
 46 47  1  0  0  0  0
 46 67  1  0  0  0  0
 47 48  1  0  0  0  0
 47 65  1  0  0  0  0
 47 66  1  0  0  0  0
 48 49  1  0  0  0  0
 48 63  1  0  0  0  0
 48 64  1  0  0  0  0
 49 50  2  0  0  0  0
 49 58  1  0  0  0  0
 50 51  1  0  0  0  0
 50 62  1  0  0  0  0
 51 52  2  0  0  0  0
 51 61  1  0  0  0  0
 52 53  1  0  0  0  0
 52 57  1  0  0  0  0
 53 54  1  0  0  0  0
 53 55  1  0  0  0  0
 53 56  1  0  0  0  0
 57 58  2  0  0  0  0
 57 60  1  0  0  0  0
 58 59  1  0  0  0  0
M  CHG  1   4   1
M  END
>  <MODEL>
       1

$$$$
