output/tmp_first_model_14_3.pdb
 OpenBabel07232601073D

 67 73  0  0  1  0  0  0  0  0999 V2000
    9.0610   -1.4090   26.4810 O   0  0  0  0  0  0  0  0  0  0  0  0
    8.7430   -0.8780   25.4210 C   0  0  0  0  0  0  0  0  0  0  0  0
    9.7500   -0.3690   24.4400 C   0  0  0  0  0  0  0  0  0  0  0  0
   11.0090   -0.0420   24.9090 C   0  0  0  0  0  0  0  0  0  0  0  0
   12.0340    0.2780   24.0450 C   0  0  0  0  0  0  0  0  0  0  0  0
   11.7740    0.2120   22.6770 C   0  0  0  0  0  0  0  0  0  0  0  0
   13.0980    0.4660   21.5960 Cl  0  0  0  0  0  0  0  0  0  0  0  0
   10.5080   -0.0590   22.1800 C   0  0  0  0  0  0  0  0  0  0  0  0
    9.4550   -0.2620   23.0790 C   0  0  0  0  0  0  0  0  0  0  0  0
    8.0360   -0.4760   22.6260 C   0  0  1  0  0  0  0  0  0  0  0  0
    7.0770   -0.0870   23.7910 C   0  0  0  0  0  0  0  0  0  0  0  0
    7.4440   -0.7050   25.0550 N   0  0  0  0  0  0  0  0  0  0  0  0
    6.4240   -0.9790   26.0600 C   0  0  0  0  0  0  0  0  0  0  0  0
    6.1850    0.1620   27.0300 C   0  0  0  0  0  0  0  0  0  0  0  0
    6.9410    0.3260   28.1700 C   0  0  0  0  0  0  0  0  0  0  0  0
    6.6710    1.4330   28.9710 C   0  0  0  0  0  0  0  0  0  0  0  0
    5.7190    2.3200   28.7060 N   0  0  0  0  0  0  0  0  0  0  0  0
    4.9780    2.1630   27.6180 N   0  0  0  0  0  0  0  0  0  0  0  0
    5.1930    1.1280   26.8160 C   0  0  0  0  0  0  0  0  0  0  0  0
    4.5230    1.0760   25.9580 H   0  0  0  0  0  0  0  0  0  0  0  0
    7.2350    1.6180   29.8830 H   0  0  0  0  0  0  0  0  0  0  0  0
    7.7230   -0.3770   28.4440 H   0  0  0  0  0  0  0  0  0  0  0  0
    6.7650   -1.8600   26.6080 H   0  0  0  0  0  0  0  0  0  0  0  0
    5.4960   -1.2290   25.5360 H   0  0  0  0  0  0  0  0  0  0  0  0
    7.0550    1.0090   23.8890 H   0  0  0  0  0  0  0  0  0  0  0  0
    6.0610   -0.4140   23.5380 H   0  0  0  0  0  0  0  0  0  0  0  0
    7.6140    0.3240   21.3800 C   0  0  0  0  0  0  0  0  0  0  0  0
    7.8850    1.4690   21.0870 O   0  0  0  0  0  0  0  0  0  0  0  0
    6.7840   -0.4850   20.6200 N   0  0  0  0  0  0  0  0  0  0  0  0
    5.9980    0.0530   19.5630 C   0  0  0  0  0  0  0  0  0  0  0  0
    6.2810   -0.2560   18.2560 C   0  0  0  0  0  0  0  0  0  0  0  0
    5.6210    0.2510   17.1810 N   0  0  0  0  0  0  0  0  0  0  0  0
    4.6350    1.0880   17.4060 C   0  0  0  0  0  0  0  0  0  0  0  0
    4.2000    1.4610   18.7120 C   0  0  0  0  0  0  0  0  0  0  0  0
    3.1000    2.3410   18.9220 C   0  0  0  0  0  0  0  0  0  0  0  0
    2.7030    2.6640   20.1920 C   0  0  0  0  0  0  0  0  0  0  0  0
    3.3820    2.1250   21.3080 C   0  0  0  0  0  0  0  0  0  0  0  0
    4.4470    1.2780   21.1340 C   0  0  0  0  0  0  0  0  0  0  0  0
    4.8920    0.9290   19.8260 C   0  0  0  0  0  0  0  0  0  0  0  0
    4.9640    0.8690   21.9970 H   0  0  0  0  0  0  0  0  0  0  0  0
    3.0670    2.3910   22.3120 H   0  0  0  0  0  0  0  0  0  0  0  0
    1.8610    3.3340   20.3540 H   0  0  0  0  0  0  0  0  0  0  0  0
    2.5870    2.7560   18.0560 H   0  0  0  0  0  0  0  0  0  0  0  0
    4.1220    1.5110   16.5370 H   0  0  0  0  0  0  0  0  0  0  0  0
    7.0990   -0.9370   18.0200 H   0  0  0  0  0  0  0  0  0  0  0  0
    6.6190   -1.8270   21.1680 C   0  0  0  0  0  0  0  0  0  0  0  0
    7.8350   -1.9280   22.0980 C   0  0  2  0  0  0  0  0  0  0  0  0
    7.8430   -3.0220   23.1790 C   0  0  0  0  0  0  0  0  0  0  0  0
    7.9480   -4.3740   22.6710 N   0  0  0  0  0  0  0  0  0  0  0  0
    6.8820   -5.0410   22.1600 C   0  0  0  0  0  0  0  0  0  0  0  0
    5.5580   -4.7850   22.5740 C   0  0  0  0  0  0  0  0  0  0  0  0
    4.5950   -5.5940   22.0100 C   0  0  0  0  0  0  0  0  0  0  0  0
    4.8730   -6.5440   21.1080 N   0  0  0  0  0  0  0  0  0  0  0  0
    6.1450   -6.6770   20.7800 C   0  0  0  0  0  0  0  0  0  0  0  0
    7.1750   -6.0050   21.2720 N   0  0  0  0  0  0  0  0  0  0  0  0
    6.3680   -7.4050   19.9950 H   0  0  0  0  0  0  0  0  0  0  0  0
    3.5410   -5.4780   22.2680 H   0  0  0  0  0  0  0  0  0  0  0  0
    5.2900   -4.0150   23.2970 H   0  0  0  0  0  0  0  0  0  0  0  0
    8.8080   -4.6110   22.1910 H   0  0  0  0  0  0  0  0  0  0  0  0
    6.9520   -2.9590   23.8050 H   0  0  0  0  0  0  0  0  0  0  0  0
    8.7020   -2.8810   23.8440 H   0  0  0  0  0  0  0  0  0  0  0  0
    8.7030   -2.1090   21.4530 H   0  0  0  0  0  0  0  0  0  0  0  0
    5.6780   -1.9310   21.7310 H   0  0  0  0  0  0  0  0  0  0  0  0
    6.5960   -2.5640   20.3650 H   0  0  0  0  0  0  0  0  0  0  0  0
   10.3160   -0.1090   21.1120 H   0  0  0  0  0  0  0  0  0  0  0  0
   13.0140    0.5750   24.4060 H   0  0  0  0  0  0  0  0  0  0  0  0
   11.1330   -0.0400   25.9760 H   0  0  0  0  0  0  0  0  0  0  0  0
  1  2  2  0  0  0  0
  2  3  1  0  0  0  0
  2 12  1  0  0  0  0
  3  4  2  0  0  0  0
  3  9  1  0  0  0  0
  4  5  1  0  0  0  0
  4 67  1  0  0  0  0
  5  6  2  0  0  0  0
  5 66  1  0  0  0  0
  6  7  1  0  0  0  0
  6  8  1  0  0  0  0
  8  9  2  0  0  0  0
  8 65  1  0  0  0  0
 10  9  1  1  0  0  0
 10 11  1  0  0  0  0
 10 27  1  0  0  0  0
 10 47  1  0  0  0  0
 11 12  1  0  0  0  0
 11 25  1  0  0  0  0
 11 26  1  0  0  0  0
 12 13  1  0  0  0  0
 13 14  1  0  0  0  0
 13 23  1  0  0  0  0
 13 24  1  0  0  0  0
 14 15  2  0  0  0  0
 14 19  1  0  0  0  0
 15 16  1  0  0  0  0
 15 22  1  0  0  0  0
 16 17  2  0  0  0  0
 16 21  1  0  0  0  0
 17 18  1  0  0  0  0
 18 19  2  0  0  0  0
 19 20  1  0  0  0  0
 27 28  2  0  0  0  0
 27 29  1  0  0  0  0
 29 30  1  0  0  0  0
 29 46  1  0  0  0  0
 30 31  2  0  0  0  0
 30 39  1  0  0  0  0
 31 32  1  0  0  0  0
 31 45  1  0  0  0  0
 32 33  2  0  0  0  0
 33 34  1  0  0  0  0
 33 44  1  0  0  0  0
 34 35  2  0  0  0  0
 34 39  1  0  0  0  0
 35 36  1  0  0  0  0
 35 43  1  0  0  0  0
 36 37  2  0  0  0  0
 36 42  1  0  0  0  0
 37 38  1  0  0  0  0
 37 41  1  0  0  0  0
 38 39  2  0  0  0  0
 38 40  1  0  0  0  0
 46 47  1  0  0  0  0
 46 63  1  0  0  0  0
 46 64  1  0  0  0  0
 47 48  1  0  0  0  0
 47 62  1  6  0  0  0
 48 49  1  0  0  0  0
 48 60  1  0  0  0  0
 48 61  1  0  0  0  0
 49 50  1  0  0  0  0
 49 59  1  0  0  0  0
 50 51  2  0  0  0  0
 50 55  1  0  0  0  0
 51 52  1  0  0  0  0
 51 58  1  0  0  0  0
 52 53  2  0  0  0  0
 52 57  1  0  0  0  0
 53 54  1  0  0  0  0
 54 55  2  0  0  0  0
 54 56  1  0  0  0  0
M  END
>  <MODEL>
       1

$$$$
