output/tmp_first_model_15_66.pdb
 OpenBabel07232601353D

 47 50  0  0  1  0  0  0  0  0999 V2000
    8.0400    1.6530   20.8970 O   0  0  0  0  0  0  0  0  0  0  0  0
    8.0500    0.5260   21.3570 C   0  0  0  0  0  0  0  0  0  0  0  0
    6.9700   -0.4800   20.9370 C   0  0  0  0  0  0  0  0  0  0  0  0
    6.1260    0.0530   19.8110 C   0  0  0  0  0  0  0  0  0  0  0  0
    6.4550   -0.2350   18.5110 C   0  0  0  0  0  0  0  0  0  0  0  0
    5.7990    0.2160   17.4120 N   0  0  0  0  0  0  0  0  0  0  0  0
    4.7730    1.0030   17.6120 C   0  0  0  0  0  0  0  0  0  0  0  0
    4.3180    1.4000   18.8980 C   0  0  0  0  0  0  0  0  0  0  0  0
    3.1920    2.2450   19.0640 C   0  0  0  0  0  0  0  0  0  0  0  0
    2.7830    2.6150   20.3140 C   0  0  0  0  0  0  0  0  0  0  0  0
    3.4880    2.1630   21.4520 C   0  0  0  0  0  0  0  0  0  0  0  0
    4.5870    1.3490   21.3160 C   0  0  0  0  0  0  0  0  0  0  0  0
    5.0220    0.9280   20.0330 C   0  0  0  0  0  0  0  0  0  0  0  0
    5.1300    1.0250   22.1980 H   0  0  0  0  0  0  0  0  0  0  0  0
    3.1520    2.4620   22.4390 H   0  0  0  0  0  0  0  0  0  0  0  0
    1.9250    3.2700   20.4380 H   0  0  0  0  0  0  0  0  0  0  0  0
    2.6740    2.5980   18.1740 H   0  0  0  0  0  0  0  0  0  0  0  0
    4.2420    1.3630   16.7300 H   0  0  0  0  0  0  0  0  0  0  0  0
    7.3090   -0.8780   18.3020 H   0  0  0  0  0  0  0  0  0  0  0  0
    6.3570   -0.7700   21.8000 H   0  0  0  0  0  0  0  0  0  0  0  0
    7.4860   -1.3870   20.5960 H   0  0  0  0  0  0  0  0  0  0  0  0
    9.0440    0.1100   22.2330 N   0  0  0  0  0  0  0  0  0  0  0  0
    9.2600   -1.2850   22.6290 C   0  0  0  0  0  0  0  0  0  0  0  0
   10.0190   -1.3330   23.9560 C   0  0  0  0  0  0  0  0  0  0  0  0
   11.3760   -0.6290   23.8720 C   0  0  1  0  0  0  0  0  0  0  0  0
   12.4500   -1.4410   23.1360 C   0  0  0  0  0  0  0  0  0  0  0  0
   13.7810   -0.6860   23.1690 C   0  0  0  0  0  0  0  0  0  0  0  0
   13.6000    0.5810   22.3600 C   0  0  0  0  0  0  0  0  0  0  0  0
   14.7710    1.2800   22.2420 F   0  0  0  0  0  0  0  0  0  0  0  0
   13.2520    0.2280   21.0740 F   0  0  0  0  0  0  0  0  0  0  0  0
   12.5260    1.4940   22.9310 C   0  0  0  0  0  0  0  0  0  0  0  0
   11.1980    0.7860   23.2790 C   0  0  1  0  0  0  0  0  0  0  0  0
   10.3260    0.7680   22.0270 C   0  0  0  0  0  0  0  0  0  0  0  0
   10.8430    0.2500   21.2010 H   0  0  0  0  0  0  0  0  0  0  0  0
   10.1190    1.8000   21.7320 H   0  0  0  0  0  0  0  0  0  0  0  0
   10.6700    1.3890   24.0340 H   0  0  0  0  0  0  0  0  0  0  0  0
   12.3330    2.2770   22.1900 H   0  0  0  0  0  0  0  0  0  0  0  0
   12.9470    1.9950   23.8040 H   0  0  0  0  0  0  0  0  0  0  0  0
   14.5880   -1.2900   22.7540 H   0  0  0  0  0  0  0  0  0  0  0  0
   14.0730   -0.3950   24.1870 H   0  0  0  0  0  0  0  0  0  0  0  0
   12.1650   -1.5800   22.0860 H   0  0  0  0  0  0  0  0  0  0  0  0
   12.5580   -2.4400   23.5740 H   0  0  0  0  0  0  0  0  0  0  0  0
   11.7450   -0.5030   24.8950 H   0  0  0  0  0  0  0  0  0  0  0  0
    9.4130   -0.8540   24.7360 H   0  0  0  0  0  0  0  0  0  0  0  0
   10.1610   -2.3730   24.2790 H   0  0  0  0  0  0  0  0  0  0  0  0
    8.3090   -1.8110   22.7480 H   0  0  0  0  0  0  0  0  0  0  0  0
    9.8520   -1.8070   21.8500 H   0  0  0  0  0  0  0  0  0  0  0  0
  1  2  2  0  0  0  0
  2  3  1  0  0  0  0
  2 22  1  0  0  0  0
  3  4  1  0  0  0  0
  3 20  1  0  0  0  0
  3 21  1  0  0  0  0
  4  5  2  0  0  0  0
  4 13  1  0  0  0  0
  5  6  1  0  0  0  0
  5 19  1  0  0  0  0
  6  7  2  0  0  0  0
  7  8  1  0  0  0  0
  7 18  1  0  0  0  0
  8  9  2  0  0  0  0
  8 13  1  0  0  0  0
  9 10  1  0  0  0  0
  9 17  1  0  0  0  0
 10 11  2  0  0  0  0
 10 16  1  0  0  0  0
 11 12  1  0  0  0  0
 11 15  1  0  0  0  0
 12 13  2  0  0  0  0
 12 14  1  0  0  0  0
 22 23  1  0  0  0  0
 22 33  1  0  0  0  0
 23 24  1  0  0  0  0
 23 46  1  0  0  0  0
 23 47  1  0  0  0  0
 24 25  1  0  0  0  0
 24 44  1  0  0  0  0
 24 45  1  0  0  0  0
 25 26  1  0  0  0  0
 25 32  1  0  0  0  0
 25 43  1  1  0  0  0
 26 27  1  0  0  0  0
 26 41  1  0  0  0  0
 26 42  1  0  0  0  0
 27 28  1  0  0  0  0
 27 39  1  0  0  0  0
 27 40  1  0  0  0  0
 28 29  1  0  0  0  0
 28 30  1  0  0  0  0
 28 31  1  0  0  0  0
 31 32  1  0  0  0  0
 31 37  1  0  0  0  0
 31 38  1  0  0  0  0
 32 33  1  0  0  0  0
 32 36  1  1  0  0  0
 33 34  1  0  0  0  0
 33 35  1  0  0  0  0
M  END
>  <MODEL>
       1

$$$$
