output/tmp_first_model_16_93.pdb
 OpenBabel07232602073D

 58 62  0  0  1  0  0  0  0  0999 V2000
    6.5440    4.4910   21.3810 C   0  0  0  0  0  0  0  0  0  0  0  0
    6.9200    3.5000   22.3930 N   0  3  0  0  0  0  0  0  0  0  0  0
    7.9210    3.9600   23.3800 C   0  0  0  0  0  0  0  0  0  0  0  0
    8.1020    2.9290   24.4990 C   0  0  0  0  0  0  0  0  0  0  0  0
    8.7220    1.6980   24.0180 N   0  0  0  0  0  0  0  0  0  0  0  0
    7.9790    0.4550   23.8830 C   0  0  0  0  0  0  0  0  0  0  0  0
    8.3730   -0.3470   22.6130 C   0  0  2  0  0  0  0  0  0  0  0  0
    7.7910    0.3610   21.3830 C   0  0  0  0  0  0  0  0  0  0  0  0
    8.0290    1.5080   21.0220 O   0  0  0  0  0  0  0  0  0  0  0  0
    6.8730   -0.4440   20.7780 N   0  0  0  0  0  0  0  0  0  0  0  0
    6.0960    0.0950   19.7220 C   0  0  0  0  0  0  0  0  0  0  0  0
    6.4400   -0.1900   18.4280 C   0  0  0  0  0  0  0  0  0  0  0  0
    5.7530    0.2630   17.3570 N   0  0  0  0  0  0  0  0  0  0  0  0
    4.7220    1.0380   17.5850 C   0  0  0  0  0  0  0  0  0  0  0  0
    4.2960    1.4470   18.8810 C   0  0  0  0  0  0  0  0  0  0  0  0
    3.1930    2.3200   19.0710 C   0  0  0  0  0  0  0  0  0  0  0  0
    2.8130    2.7020   20.3290 C   0  0  0  0  0  0  0  0  0  0  0  0
    3.5200    2.2310   21.4580 C   0  0  0  0  0  0  0  0  0  0  0  0
    4.5960    1.3880   21.2990 C   0  0  0  0  0  0  0  0  0  0  0  0
    5.0100    0.9710   20.0000 C   0  0  0  0  0  0  0  0  0  0  0  0
    5.1230    1.0240   22.1780 H   0  0  0  0  0  0  0  0  0  0  0  0
    3.2110    2.5430   22.4520 H   0  0  0  0  0  0  0  0  0  0  0  0
    1.9710    3.3730   20.4660 H   0  0  0  0  0  0  0  0  0  0  0  0
    2.6690    2.6740   18.1880 H   0  0  0  0  0  0  0  0  0  0  0  0
    4.1680    1.3940   16.7170 H   0  0  0  0  0  0  0  0  0  0  0  0
    7.3120   -0.8090   18.2250 H   0  0  0  0  0  0  0  0  0  0  0  0
    6.4300   -1.5260   21.6420 C   0  0  0  0  0  0  0  0  0  0  0  0
    7.6640   -1.7320   22.5320 C   0  0  2  0  0  0  0  0  0  0  0  0
    7.3970   -2.4230   23.8600 C   0  0  0  0  0  0  0  0  0  0  0  0
    6.9610   -3.4150   23.7030 H   0  0  0  0  0  0  0  0  0  0  0  0
    8.3300   -2.5400   24.4240 H   0  0  0  0  0  0  0  0  0  0  0  0
    6.7000   -1.8450   24.4750 H   0  0  0  0  0  0  0  0  0  0  0  0
    8.3190   -2.3740   21.9470 H   0  0  0  0  0  0  0  0  0  0  0  0
    6.1790   -2.4130   21.0510 H   0  0  0  0  0  0  0  0  0  0  0  0
    5.5430   -1.2440   22.2310 H   0  0  0  0  0  0  0  0  0  0  0  0
    9.8850   -0.4150   22.5170 C   0  0  0  0  0  0  0  0  0  0  0  0
   10.5150   -1.3680   21.7050 C   0  0  0  0  0  0  0  0  0  0  0  0
   11.8740   -1.3120   21.4990 C   0  0  0  0  0  0  0  0  0  0  0  0
   12.3950   -2.1800   20.6130 F   0  0  0  0  0  0  0  0  0  0  0  0
   12.6720   -0.3690   22.1430 C   0  0  0  0  0  0  0  0  0  0  0  0
   12.0650    0.5470   22.9750 C   0  0  0  0  0  0  0  0  0  0  0  0
   10.6790    0.5680   23.1200 C   0  0  0  0  0  0  0  0  0  0  0  0
   10.0760    1.7260   23.8570 C   0  0  0  0  0  0  0  0  0  0  0  0
   10.7710    2.6570   24.2570 O   0  0  0  0  0  0  0  0  0  0  0  0
   12.6710    1.2770   23.5020 H   0  0  0  0  0  0  0  0  0  0  0  0
   13.7410   -0.3320   21.9880 H   0  0  0  0  0  0  0  0  0  0  0  0
    9.9820   -2.1540   21.1820 H   0  0  0  0  0  0  0  0  0  0  0  0
    8.1660   -0.1670   24.7680 H   0  0  0  0  0  0  0  0  0  0  0  0
    6.9080    0.6760   23.8300 H   0  0  0  0  0  0  0  0  0  0  0  0
    7.1380    2.6830   24.9580 H   0  0  0  0  0  0  0  0  0  0  0  0
    8.7680    3.3340   25.2660 H   0  0  0  0  0  0  0  0  0  0  0  0
    8.8880    4.1060   22.8860 H   0  0  0  0  0  0  0  0  0  0  0  0
    7.6140    4.9250   23.7960 H   0  0  0  0  0  0  0  0  0  0  0  0
    6.0540    3.2150   22.8840 H   0  0  0  0  0  0  0  0  0  0  0  0
    7.3000    2.6650   21.9170 H   0  0  0  0  0  0  0  0  0  0  0  0
    5.6510    4.1450   20.8510 H   0  0  0  0  0  0  0  0  0  0  0  0
    7.3540    4.6280   20.6630 H   0  0  0  0  0  0  0  0  0  0  0  0
    6.3290    5.4590   21.8460 H   0  0  0  0  0  0  0  0  0  0  0  0
  1  2  1  0  0  0  0
  1 56  1  0  0  0  0
  1 57  1  0  0  0  0
  1 58  1  0  0  0  0
  2  3  1  0  0  0  0
  2 54  1  0  0  0  0
  2 55  1  0  0  0  0
  3  4  1  0  0  0  0
  3 52  1  0  0  0  0
  3 53  1  0  0  0  0
  4  5  1  0  0  0  0
  4 50  1  0  0  0  0
  4 51  1  0  0  0  0
  5  6  1  0  0  0  0
  5 43  1  0  0  0  0
  6  7  1  0  0  0  0
  6 48  1  0  0  0  0
  6 49  1  0  0  0  0
  7  8  1  6  0  0  0
  7 28  1  0  0  0  0
  7 36  1  0  0  0  0
  8  9  2  0  0  0  0
  8 10  1  0  0  0  0
 10 11  1  0  0  0  0
 10 27  1  0  0  0  0
 11 12  2  0  0  0  0
 11 20  1  0  0  0  0
 12 13  1  0  0  0  0
 12 26  1  0  0  0  0
 13 14  2  0  0  0  0
 14 15  1  0  0  0  0
 14 25  1  0  0  0  0
 15 16  2  0  0  0  0
 15 20  1  0  0  0  0
 16 17  1  0  0  0  0
 16 24  1  0  0  0  0
 17 18  2  0  0  0  0
 17 23  1  0  0  0  0
 18 19  1  0  0  0  0
 18 22  1  0  0  0  0
 19 20  2  0  0  0  0
 19 21  1  0  0  0  0
 27 28  1  0  0  0  0
 27 34  1  0  0  0  0
 27 35  1  0  0  0  0
 28 29  1  0  0  0  0
 28 33  1  6  0  0  0
 29 30  1  0  0  0  0
 29 31  1  0  0  0  0
 29 32  1  0  0  0  0
 36 37  2  0  0  0  0
 36 42  1  0  0  0  0
 37 38  1  0  0  0  0
 37 47  1  0  0  0  0
 38 39  1  0  0  0  0
 38 40  2  0  0  0  0
 40 41  1  0  0  0  0
 40 46  1  0  0  0  0
 41 42  2  0  0  0  0
 41 45  1  0  0  0  0
 42 43  1  0  0  0  0
 43 44  2  0  0  0  0
M  CHG  1   2   1
M  END
>  <MODEL>
       1

$$$$
