output/tmp_first_model_14_13.pdb
 OpenBabel07232601073D

 67 72  0  0  1  0  0  0  0  0999 V2000
    6.3910    4.3540   21.2550 C   0  0  0  0  0  0  0  0  0  0  0  0
    7.3680    3.9020   22.2190 N   0  0  0  0  0  0  0  0  0  0  0  0
    6.9370    3.2730   23.3410 C   0  0  0  0  0  0  0  0  0  0  0  0
    5.7560    3.0600   23.5830 O   0  0  0  0  0  0  0  0  0  0  0  0
    8.0300    2.8810   24.3260 C   0  0  0  0  0  0  0  0  0  0  0  0
    8.6890    1.6460   23.9630 N   0  0  0  0  0  0  0  0  0  0  0  0
    7.8710    0.4520   23.8190 C   0  0  0  0  0  0  0  0  0  0  0  0
    8.2680   -0.3670   22.5720 C   0  0  2  0  0  0  0  0  0  0  0  0
    7.8750    0.3580   21.2610 C   0  0  0  0  0  0  0  0  0  0  0  0
    8.3780    1.3590   20.7980 O   0  0  0  0  0  0  0  0  0  0  0  0
    6.8710   -0.3590   20.6480 N   0  0  0  0  0  0  0  0  0  0  0  0
    6.1050    0.1810   19.5930 C   0  0  0  0  0  0  0  0  0  0  0  0
    6.4180   -0.1270   18.2970 C   0  0  0  0  0  0  0  0  0  0  0  0
    5.7090    0.3060   17.2290 N   0  0  0  0  0  0  0  0  0  0  0  0
    4.6730    1.0770   17.4660 C   0  0  0  0  0  0  0  0  0  0  0  0
    4.2380    1.4640   18.7690 C   0  0  0  0  0  0  0  0  0  0  0  0
    3.1190    2.3130   18.9870 C   0  0  0  0  0  0  0  0  0  0  0  0
    2.7380    2.6540   20.2580 C   0  0  0  0  0  0  0  0  0  0  0  0
    3.4500    2.1640   21.3750 C   0  0  0  0  0  0  0  0  0  0  0  0
    4.5380    1.3450   21.1890 C   0  0  0  0  0  0  0  0  0  0  0  0
    4.9630    0.9830   19.8780 C   0  0  0  0  0  0  0  0  0  0  0  0
    5.1130    1.0270   22.0530 H   0  0  0  0  0  0  0  0  0  0  0  0
    3.1720    2.4600   22.3820 H   0  0  0  0  0  0  0  0  0  0  0  0
    1.8910    3.3170   20.4150 H   0  0  0  0  0  0  0  0  0  0  0  0
    2.5840    2.6950   18.1240 H   0  0  0  0  0  0  0  0  0  0  0  0
    4.1160    1.4340   16.6010 H   0  0  0  0  0  0  0  0  0  0  0  0
    7.2790   -0.7610   18.0940 H   0  0  0  0  0  0  0  0  0  0  0  0
    6.3640   -1.4570   21.4330 C   0  0  0  0  0  0  0  0  0  0  0  0
    7.4780   -1.7070   22.4430 C   0  0  2  0  0  0  0  0  0  0  0  0
    6.8840   -2.3600   23.6910 C   0  0  0  0  0  0  0  0  0  0  0  0
    7.8180   -2.5710   24.7100 O   0  0  0  0  0  0  0  0  0  0  0  0
    8.8040   -3.5200   24.3750 C   0  0  0  0  0  0  0  0  0  0  0  0
    9.9770   -3.2780   25.2810 C   0  0  0  0  0  0  0  0  0  0  0  0
   11.2970   -2.8090   24.6910 C   0  0  0  0  0  0  0  0  0  0  0  0
   11.1180   -4.2330   25.1540 C   0  0  0  0  0  0  0  0  0  0  0  0
   11.6330   -4.6170   26.0260 H   0  0  0  0  0  0  0  0  0  0  0  0
   11.0210   -5.0000   24.4290 H   0  0  0  0  0  0  0  0  0  0  0  0
   11.9460   -2.1690   25.2830 H   0  0  0  0  0  0  0  0  0  0  0  0
   11.3010   -2.6140   23.6220 H   0  0  0  0  0  0  0  0  0  0  0  0
    9.6910   -2.8780   26.2550 H   0  0  0  0  0  0  0  0  0  0  0  0
    8.3850   -4.5390   24.4850 H   0  0  0  0  0  0  0  0  0  0  0  0
    9.1300   -3.4290   23.3240 H   0  0  0  0  0  0  0  0  0  0  0  0
    6.4070   -3.3140   23.4110 H   0  0  0  0  0  0  0  0  0  0  0  0
    6.0950   -1.7240   24.1100 H   0  0  0  0  0  0  0  0  0  0  0  0
    8.1720   -2.4160   21.9860 H   0  0  0  0  0  0  0  0  0  0  0  0
    5.4130   -1.2030   21.9260 H   0  0  0  0  0  0  0  0  0  0  0  0
    6.1740   -2.3310   20.8020 H   0  0  0  0  0  0  0  0  0  0  0  0
    9.7830   -0.4720   22.5480 C   0  0  0  0  0  0  0  0  0  0  0  0
   10.3750   -1.3690   21.6610 C   0  0  0  0  0  0  0  0  0  0  0  0
   11.7490   -1.4770   21.5740 C   0  0  0  0  0  0  0  0  0  0  0  0
   12.3000   -2.8080   20.6000 Cl  0  0  0  0  0  0  0  0  0  0  0  0
   12.5860   -0.6100   22.2930 C   0  0  0  0  0  0  0  0  0  0  0  0
   12.0050    0.3470   23.0990 C   0  0  0  0  0  0  0  0  0  0  0  0
   10.6200    0.4250   23.2210 C   0  0  0  0  0  0  0  0  0  0  0  0
   10.0580    1.5810   23.9780 C   0  0  0  0  0  0  0  0  0  0  0  0
   10.7700    2.4190   24.5190 O   0  0  0  0  0  0  0  0  0  0  0  0
   12.6250    1.0500   23.6430 H   0  0  0  0  0  0  0  0  0  0  0  0
   13.6670   -0.6250   22.2750 H   0  0  0  0  0  0  0  0  0  0  0  0
    9.7790   -1.9950   21.0040 H   0  0  0  0  0  0  0  0  0  0  0  0
    7.9690   -0.1830   24.7070 H   0  0  0  0  0  0  0  0  0  0  0  0
    6.8330    0.7810   23.7360 H   0  0  0  0  0  0  0  0  0  0  0  0
    8.8100    3.6490   24.3590 H   0  0  0  0  0  0  0  0  0  0  0  0
    7.5510    2.8000   25.3120 H   0  0  0  0  0  0  0  0  0  0  0  0
    8.3170    3.7380   21.9110 H   0  0  0  0  0  0  0  0  0  0  0  0
    5.9350    3.5060   20.7290 H   0  0  0  0  0  0  0  0  0  0  0  0
    6.8550    5.0430   20.5490 H   0  0  0  0  0  0  0  0  0  0  0  0
    5.6060    4.8880   21.7920 H   0  0  0  0  0  0  0  0  0  0  0  0
  1  2  1  0  0  0  0
  1 65  1  0  0  0  0
  1 66  1  0  0  0  0
  1 67  1  0  0  0  0
  2  3  1  0  0  0  0
  2 64  1  0  0  0  0
  3  4  2  0  0  0  0
  3  5  1  0  0  0  0
  5  6  1  0  0  0  0
  5 62  1  0  0  0  0
  5 63  1  0  0  0  0
  6  7  1  0  0  0  0
  6 55  1  0  0  0  0
  7  8  1  0  0  0  0
  7 60  1  0  0  0  0
  7 61  1  0  0  0  0
  8  9  1  6  0  0  0
  8 29  1  0  0  0  0
  8 48  1  0  0  0  0
  9 10  2  0  0  0  0
  9 11  1  0  0  0  0
 11 12  1  0  0  0  0
 11 28  1  0  0  0  0
 12 13  2  0  0  0  0
 12 21  1  0  0  0  0
 13 14  1  0  0  0  0
 13 27  1  0  0  0  0
 14 15  2  0  0  0  0
 15 16  1  0  0  0  0
 15 26  1  0  0  0  0
 16 17  2  0  0  0  0
 16 21  1  0  0  0  0
 17 18  1  0  0  0  0
 17 25  1  0  0  0  0
 18 19  2  0  0  0  0
 18 24  1  0  0  0  0
 19 20  1  0  0  0  0
 19 23  1  0  0  0  0
 20 21  2  0  0  0  0
 20 22  1  0  0  0  0
 28 29  1  0  0  0  0
 28 46  1  0  0  0  0
 28 47  1  0  0  0  0
 29 30  1  0  0  0  0
 29 45  1  6  0  0  0
 30 31  1  0  0  0  0
 30 43  1  0  0  0  0
 30 44  1  0  0  0  0
 31 32  1  0  0  0  0
 32 33  1  0  0  0  0
 32 41  1  0  0  0  0
 32 42  1  0  0  0  0
 33 34  1  0  0  0  0
 33 35  1  0  0  0  0
 33 40  1  0  0  0  0
 34 35  1  0  0  0  0
 34 38  1  0  0  0  0
 34 39  1  0  0  0  0
 35 36  1  0  0  0  0
 35 37  1  0  0  0  0
 48 49  2  0  0  0  0
 48 54  1  0  0  0  0
 49 50  1  0  0  0  0
 49 59  1  0  0  0  0
 50 51  1  0  0  0  0
 50 52  2  0  0  0  0
 52 53  1  0  0  0  0
 52 58  1  0  0  0  0
 53 54  2  0  0  0  0
 53 57  1  0  0  0  0
 54 55  1  0  0  0  0
 55 56  2  0  0  0  0
M  END
>  <MODEL>
       1

$$$$
