output/tmp_first_model_5_88.pdb
 OpenBabel07222620423D

 64 68  0  0  0  0  0  0  0  0999 V2000
    4.2870    2.5200   28.4260 C   0  0  0  0  0  0  0  0  0  0  0  0
    3.8660    2.6810   26.9620 C   0  0  0  0  0  0  0  0  0  0  0  0
    4.5460    1.6740   26.0270 C   0  0  0  0  0  0  0  0  0  0  0  0
    3.8200    0.8330   25.5170 O   0  0  0  0  0  0  0  0  0  0  0  0
    5.9000    1.7910   25.6970 N   0  0  0  0  0  0  0  0  0  0  0  0
    6.6470    2.9100   26.2910 C   0  0  0  0  0  0  0  0  0  0  0  0
    7.8180    3.3470   25.4190 C   0  0  0  0  0  0  0  0  0  0  0  0
    8.7160    2.1460   25.1960 C   0  0  0  0  0  0  0  0  0  0  0  0
    7.9300    1.0810   24.5130 C   0  0  0  0  0  0  0  0  0  0  0  0
    8.5860    0.2570   23.6070 C   0  0  0  0  0  0  0  0  0  0  0  0
    7.8830   -0.7390   22.9590 C   0  0  0  0  0  0  0  0  0  0  0  0
    6.5300   -0.9230   23.2140 C   0  0  0  0  0  0  0  0  0  0  0  0
    5.8550   -1.8570   22.4380 N   0  0  0  0  0  0  0  0  0  0  0  0
    5.1540   -2.9560   23.0970 C   0  0  0  0  0  0  0  0  0  0  0  0
    6.1500   -3.8720   23.7480 C   0  0  0  0  0  0  0  0  0  0  0  0
    6.7800   -3.4370   24.9220 C   0  0  0  0  0  0  0  0  0  0  0  0
    7.7450   -4.2250   25.5460 C   0  0  0  0  0  0  0  0  0  0  0  0
    8.0130   -5.5050   25.0430 C   0  0  0  0  0  0  0  0  0  0  0  0
    7.3550   -5.9730   23.8960 C   0  0  0  0  0  0  0  0  0  0  0  0
    7.6330   -7.7690   23.2840 Br  0  0  0  0  0  0  0  0  0  0  0  0
    6.4650   -5.1350   23.2140 C   0  0  0  0  0  0  0  0  0  0  0  0
    6.0050   -5.4620   22.2820 H   0  0  0  0  0  0  0  0  0  0  0  0
    8.7400   -6.1470   25.5280 H   0  0  0  0  0  0  0  0  0  0  0  0
    8.2730   -3.8590   26.4250 H   0  0  0  0  0  0  0  0  0  0  0  0
    6.5430   -2.4610   25.3390 H   0  0  0  0  0  0  0  0  0  0  0  0
    4.4890   -2.5550   23.8660 H   0  0  0  0  0  0  0  0  0  0  0  0
    4.5340   -3.5140   22.3900 H   0  0  0  0  0  0  0  0  0  0  0  0
    6.0360   -1.8100   21.0640 C   0  0  0  0  0  0  0  0  0  0  0  0
    5.4720   -2.6290   20.3410 O   0  0  0  0  0  0  0  0  0  0  0  0
    6.9280   -0.7150   20.4300 C   0  0  0  0  0  0  0  0  0  0  0  0
    6.2260    0.0490   19.3410 C   0  0  0  0  0  0  0  0  0  0  0  0
    6.6040   -0.1010   18.0010 C   0  0  0  0  0  0  0  0  0  0  0  0
    5.9390    0.4790   16.9890 N   0  0  0  0  0  0  0  0  0  0  0  0
    4.8750    1.2470   17.2900 C   0  0  0  0  0  0  0  0  0  0  0  0
    4.4500    1.4840   18.6040 C   0  0  0  0  0  0  0  0  0  0  0  0
    3.3290    2.2840   18.8810 C   0  0  0  0  0  0  0  0  0  0  0  0
    2.9360    2.5150   20.2040 C   0  0  0  0  0  0  0  0  0  0  0  0
    3.6560    1.9490   21.2610 C   0  0  0  0  0  0  0  0  0  0  0  0
    4.7590    1.1330   20.9870 C   0  0  0  0  0  0  0  0  0  0  0  0
    5.1550    0.8900   19.6600 C   0  0  0  0  0  0  0  0  0  0  0  0
    5.3140    0.6920   21.8090 H   0  0  0  0  0  0  0  0  0  0  0  0
    3.3570    2.1360   22.2900 H   0  0  0  0  0  0  0  0  0  0  0  0
    2.0730    3.1400   20.4140 H   0  0  0  0  0  0  0  0  0  0  0  0
    2.7630    2.7320   18.0690 H   0  0  0  0  0  0  0  0  0  0  0  0
    4.3200    1.6920   16.4710 H   0  0  0  0  0  0  0  0  0  0  0  0
    7.4520   -0.7450   17.7810 H   0  0  0  0  0  0  0  0  0  0  0  0
    7.2060    0.0260   21.1800 H   0  0  0  0  0  0  0  0  0  0  0  0
    7.8480   -1.1780   20.0680 H   0  0  0  0  0  0  0  0  0  0  0  0
    5.8720   -0.1250   24.1460 C   0  0  0  0  0  0  0  0  0  0  0  0
    6.5560    0.9070   24.8090 C   0  0  0  0  0  0  0  0  0  0  0  0
    4.8150   -0.2930   24.2950 H   0  0  0  0  0  0  0  0  0  0  0  0
    8.3660   -1.3420   22.2000 H   0  0  0  0  0  0  0  0  0  0  0  0
    9.6390    0.4030   23.3890 H   0  0  0  0  0  0  0  0  0  0  0  0
    9.6020    2.4240   24.6140 H   0  0  0  0  0  0  0  0  0  0  0  0
    9.0430    1.7440   26.1500 H   0  0  0  0  0  0  0  0  0  0  0  0
    8.3670    4.1490   25.9100 H   0  0  0  0  0  0  0  0  0  0  0  0
    7.4660    3.7350   24.4610 H   0  0  0  0  0  0  0  0  0  0  0  0
    7.0420    2.6060   27.2640 H   0  0  0  0  0  0  0  0  0  0  0  0
    5.9940    3.7750   26.4450 H   0  0  0  0  0  0  0  0  0  0  0  0
    2.7810    2.5590   26.8830 H   0  0  0  0  0  0  0  0  0  0  0  0
    4.1140    3.6890   26.6240 H   0  0  0  0  0  0  0  0  0  0  0  0
    3.9620    1.5500   28.8160 H   0  0  0  0  0  0  0  0  0  0  0  0
    5.3730    2.5900   28.5290 H   0  0  0  0  0  0  0  0  0  0  0  0
    3.8310    3.3110   29.0310 H   0  0  0  0  0  0  0  0  0  0  0  0
  1  2  1  0  0  0  0
  1 62  1  0  0  0  0
  1 63  1  0  0  0  0
  1 64  1  0  0  0  0
  2  3  1  0  0  0  0
  2 60  1  0  0  0  0
  2 61  1  0  0  0  0
  3  4  2  0  0  0  0
  3  5  1  0  0  0  0
  5  6  1  0  0  0  0
  5 50  1  0  0  0  0
  6  7  1  0  0  0  0
  6 58  1  0  0  0  0
  6 59  1  0  0  0  0
  7  8  1  0  0  0  0
  7 56  1  0  0  0  0
  7 57  1  0  0  0  0
  8  9  1  0  0  0  0
  8 54  1  0  0  0  0
  8 55  1  0  0  0  0
  9 10  2  0  0  0  0
  9 50  1  0  0  0  0
 10 11  1  0  0  0  0
 10 53  1  0  0  0  0
 11 12  2  0  0  0  0
 11 52  1  0  0  0  0
 12 13  1  0  0  0  0
 12 49  1  0  0  0  0
 13 14  1  0  0  0  0
 13 28  1  0  0  0  0
 14 15  1  0  0  0  0
 14 26  1  0  0  0  0
 14 27  1  0  0  0  0
 15 16  2  0  0  0  0
 15 21  1  0  0  0  0
 16 17  1  0  0  0  0
 16 25  1  0  0  0  0
 17 18  2  0  0  0  0
 17 24  1  0  0  0  0
 18 19  1  0  0  0  0
 18 23  1  0  0  0  0
 19 20  1  0  0  0  0
 19 21  2  0  0  0  0
 21 22  1  0  0  0  0
 28 29  2  0  0  0  0
 28 30  1  0  0  0  0
 30 31  1  0  0  0  0
 30 47  1  0  0  0  0
 30 48  1  0  0  0  0
 31 32  2  0  0  0  0
 31 40  1  0  0  0  0
 32 33  1  0  0  0  0
 32 46  1  0  0  0  0
 33 34  2  0  0  0  0
 34 35  1  0  0  0  0
 34 45  1  0  0  0  0
 35 36  2  0  0  0  0
 35 40  1  0  0  0  0
 36 37  1  0  0  0  0
 36 44  1  0  0  0  0
 37 38  2  0  0  0  0
 37 43  1  0  0  0  0
 38 39  1  0  0  0  0
 38 42  1  0  0  0  0
 39 40  2  0  0  0  0
 39 41  1  0  0  0  0
 49 50  2  0  0  0  0
 49 51  1  0  0  0  0
M  END
>  <MODEL>
       1

$$$$
