output/tmp_first_model_7_9.pdb
 OpenBabel07222621533D

 58 63  0  0  1  0  0  0  0  0999 V2000
    6.6960    2.4240   29.9970 C   0  0  0  0  0  0  0  0  0  0  0  0
    6.5630    1.5280   28.8090 C   0  0  0  0  0  0  0  0  0  0  0  0
    7.3380    0.3810   28.4800 C   0  0  0  0  0  0  0  0  0  0  0  0
    6.8220   -0.0330   27.3010 C   0  0  0  0  0  0  0  0  0  0  0  0
    7.1980   -1.1350   26.3590 C   0  0  0  0  0  0  0  0  0  0  0  0
    8.0570   -0.7040   25.2660 N   0  0  0  0  0  0  0  0  0  0  0  0
    7.4580   -0.1300   24.0690 C   0  0  0  0  0  0  0  0  0  0  0  0
    8.2550   -0.4840   22.7870 C   0  0  2  0  0  0  0  0  0  0  0  0
    7.6330    0.3760   21.6690 C   0  0  0  0  0  0  0  0  0  0  0  0
    7.7450    1.5770   21.5240 O   0  0  0  0  0  0  0  0  0  0  0  0
    6.8500   -0.4380   20.8790 N   0  0  0  0  0  0  0  0  0  0  0  0
    6.0300    0.0410   19.8310 C   0  0  0  0  0  0  0  0  0  0  0  0
    6.4090   -0.1820   18.5350 C   0  0  0  0  0  0  0  0  0  0  0  0
    5.7350    0.2700   17.4550 N   0  0  0  0  0  0  0  0  0  0  0  0
    4.6560    0.9800   17.6710 C   0  0  0  0  0  0  0  0  0  0  0  0
    4.1020    1.2050   18.9600 C   0  0  0  0  0  0  0  0  0  0  0  0
    2.8800    1.9040   19.1230 C   0  0  0  0  0  0  0  0  0  0  0  0
    2.3230    2.0500   20.3660 C   0  0  0  0  0  0  0  0  0  0  0  0
    2.9580    1.4870   21.5030 C   0  0  0  0  0  0  0  0  0  0  0  0
    4.1570    0.8250   21.3680 C   0  0  0  0  0  0  0  0  0  0  0  0
    4.7730    0.6820   20.0860 C   0  0  0  0  0  0  0  0  0  0  0  0
    4.6670    0.4270   22.2420 H   0  0  0  0  0  0  0  0  0  0  0  0
    2.5090    1.6250   22.4840 H   0  0  0  0  0  0  0  0  0  0  0  0
    1.4030    2.6150   20.4790 H   0  0  0  0  0  0  0  0  0  0  0  0
    2.4140    2.3120   18.2300 H   0  0  0  0  0  0  0  0  0  0  0  0
    4.1490    1.3780   16.7950 H   0  0  0  0  0  0  0  0  0  0  0  0
    7.3420   -0.7110   18.3330 H   0  0  0  0  0  0  0  0  0  0  0  0
    6.8480   -1.8290   21.2580 C   0  0  0  0  0  0  0  0  0  0  0  0
    8.0280   -1.9400   22.2340 C   0  0  2  0  0  0  0  0  0  0  0  0
    7.7940   -3.0430   23.2570 C   0  0  0  0  0  0  0  0  0  0  0  0
    8.6110   -3.0980   23.9780 H   0  0  0  0  0  0  0  0  0  0  0  0
    7.6980   -4.0070   22.7460 H   0  0  0  0  0  0  0  0  0  0  0  0
    6.8630   -2.8550   23.8050 H   0  0  0  0  0  0  0  0  0  0  0  0
    8.9280   -2.1810   21.6500 H   0  0  0  0  0  0  0  0  0  0  0  0
    5.8990   -2.1320   21.7320 H   0  0  0  0  0  0  0  0  0  0  0  0
    6.9620   -2.4510   20.3680 H   0  0  0  0  0  0  0  0  0  0  0  0
    9.7200   -0.1670   23.0630 C   0  0  0  0  0  0  0  0  0  0  0  0
   10.6180    0.1130   22.0250 C   0  0  0  0  0  0  0  0  0  0  0  0
   11.9520    0.3490   22.3130 C   0  0  0  0  0  0  0  0  0  0  0  0
   12.8050    0.6620   21.3280 F   0  0  0  0  0  0  0  0  0  0  0  0
   12.4750    0.2760   23.5960 C   0  0  0  0  0  0  0  0  0  0  0  0
   11.5960   -0.0100   24.6140 C   0  0  0  0  0  0  0  0  0  0  0  0
   10.2390   -0.1990   24.3630 C   0  0  0  0  0  0  0  0  0  0  0  0
    9.3790   -0.4700   25.5460 C   0  0  0  0  0  0  0  0  0  0  0  0
    9.8500   -0.4920   26.6740 O   0  0  0  0  0  0  0  0  0  0  0  0
   11.9420   -0.0950   25.6350 H   0  0  0  0  0  0  0  0  0  0  0  0
   13.5330    0.4500   23.7710 H   0  0  0  0  0  0  0  0  0  0  0  0
   10.2780    0.1530   20.9990 H   0  0  0  0  0  0  0  0  0  0  0  0
    6.4210   -0.4720   23.9830 H   0  0  0  0  0  0  0  0  0  0  0  0
    7.4150    0.9680   24.1390 H   0  0  0  0  0  0  0  0  0  0  0  0
    6.2920   -1.5820   25.9420 H   0  0  0  0  0  0  0  0  0  0  0  0
    7.7250   -1.9070   26.9180 H   0  0  0  0  0  0  0  0  0  0  0  0
    5.8110    0.7680   26.9430 O   0  0  0  0  0  0  0  0  0  0  0  0
    5.6500    1.7580   27.8940 N   0  0  0  0  0  0  0  0  0  0  0  0
    8.1820   -0.0410   29.0080 H   0  0  0  0  0  0  0  0  0  0  0  0
    6.2290    3.3890   29.7870 H   0  0  0  0  0  0  0  0  0  0  0  0
    6.2210    1.9800   30.8790 H   0  0  0  0  0  0  0  0  0  0  0  0
    7.7490    2.5830   30.2440 H   0  0  0  0  0  0  0  0  0  0  0  0
  1  2  1  0  0  0  0
  1 56  1  0  0  0  0
  1 57  1  0  0  0  0
  1 58  1  0  0  0  0
  2  3  1  0  0  0  0
  2 54  2  0  0  0  0
  3  4  2  0  0  0  0
  3 55  1  0  0  0  0
  4  5  1  0  0  0  0
  4 53  1  0  0  0  0
  5  6  1  0  0  0  0
  5 51  1  0  0  0  0
  5 52  1  0  0  0  0
  6  7  1  0  0  0  0
  6 44  1  0  0  0  0
  7  8  1  0  0  0  0
  7 49  1  0  0  0  0
  7 50  1  0  0  0  0
  8  9  1  6  0  0  0
  8 29  1  0  0  0  0
  8 37  1  0  0  0  0
  9 10  2  0  0  0  0
  9 11  1  0  0  0  0
 11 12  1  0  0  0  0
 11 28  1  0  0  0  0
 12 13  2  0  0  0  0
 12 21  1  0  0  0  0
 13 14  1  0  0  0  0
 13 27  1  0  0  0  0
 14 15  2  0  0  0  0
 15 16  1  0  0  0  0
 15 26  1  0  0  0  0
 16 17  2  0  0  0  0
 16 21  1  0  0  0  0
 17 18  1  0  0  0  0
 17 25  1  0  0  0  0
 18 19  2  0  0  0  0
 18 24  1  0  0  0  0
 19 20  1  0  0  0  0
 19 23  1  0  0  0  0
 20 21  2  0  0  0  0
 20 22  1  0  0  0  0
 28 29  1  0  0  0  0
 28 35  1  0  0  0  0
 28 36  1  0  0  0  0
 29 30  1  0  0  0  0
 29 34  1  6  0  0  0
 30 31  1  0  0  0  0
 30 32  1  0  0  0  0
 30 33  1  0  0  0  0
 37 38  2  0  0  0  0
 37 43  1  0  0  0  0
 38 39  1  0  0  0  0
 38 48  1  0  0  0  0
 39 40  1  0  0  0  0
 39 41  2  0  0  0  0
 41 42  1  0  0  0  0
 41 47  1  0  0  0  0
 42 43  2  0  0  0  0
 42 46  1  0  0  0  0
 43 44  1  0  0  0  0
 44 45  2  0  0  0  0
 53 54  1  0  0  0  0
M  END
>  <MODEL>
       1

$$$$
