output/tmp_first_model_18_39.pdb
 OpenBabel07232602473D

 60 64  0  0  1  0  0  0  0  0999 V2000
   11.4800   -0.5180   23.7680 C   0  0  0  0  0  0  0  0  0  0  0  0
   10.4930   -1.6600   23.5760 C   0  0  0  0  0  0  0  0  0  0  0  0
    9.8470   -1.5520   22.3170 O   0  0  0  0  0  0  0  0  0  0  0  0
    8.5670   -0.9630   22.3430 C   0  0  1  0  0  0  0  0  0  0  0  0
    8.2710   -0.4140   20.9530 C   0  0  0  0  0  0  0  0  0  0  0  0
    6.8290   -0.4930   20.8680 N   0  0  0  0  0  0  0  0  0  0  0  0
    6.0970    0.0630   19.7940 C   0  0  0  0  0  0  0  0  0  0  0  0
    6.4570   -0.2120   18.4990 C   0  0  0  0  0  0  0  0  0  0  0  0
    5.7990    0.2430   17.4080 N   0  0  0  0  0  0  0  0  0  0  0  0
    4.7650    1.0220   17.6050 C   0  0  0  0  0  0  0  0  0  0  0  0
    4.3020    1.4150   18.8930 C   0  0  0  0  0  0  0  0  0  0  0  0
    3.1850    2.2780   19.0480 C   0  0  0  0  0  0  0  0  0  0  0  0
    2.7790    2.6630   20.2970 C   0  0  0  0  0  0  0  0  0  0  0  0
    3.4720    2.2090   21.4410 C   0  0  0  0  0  0  0  0  0  0  0  0
    4.5520    1.3700   21.3160 C   0  0  0  0  0  0  0  0  0  0  0  0
    4.9860    0.9370   20.0310 C   0  0  0  0  0  0  0  0  0  0  0  0
    5.0910    1.0320   22.1960 H   0  0  0  0  0  0  0  0  0  0  0  0
    3.1470    2.5300   22.4270 H   0  0  0  0  0  0  0  0  0  0  0  0
    1.9250    3.3250   20.4140 H   0  0  0  0  0  0  0  0  0  0  0  0
    2.6790    2.6300   18.1520 H   0  0  0  0  0  0  0  0  0  0  0  0
    4.2380    1.3850   16.7220 H   0  0  0  0  0  0  0  0  0  0  0  0
    7.3060   -0.8640   18.2980 H   0  0  0  0  0  0  0  0  0  0  0  0
    6.3130   -1.4840   21.6780 C   0  0  0  0  0  0  0  0  0  0  0  0
    5.1940   -1.9430   21.5750 O   0  0  0  0  0  0  0  0  0  0  0  0
    7.4020   -1.9300   22.6860 C   0  0  1  0  0  0  0  0  0  0  0  0
    7.7750   -3.4000   22.3800 C   0  0  0  0  0  0  0  0  0  0  0  0
    6.7030   -4.2790   22.8050 N   0  0  0  0  0  0  0  0  0  0  0  0
    5.9870   -5.1160   21.8690 C   0  0  0  0  0  0  0  0  0  0  0  0
    6.5910   -6.4990   21.6540 C   0  0  0  0  0  0  0  0  0  0  0  0
    6.8180   -6.8440   20.5090 O   0  0  0  0  0  0  0  0  0  0  0  0
    6.8100   -7.2520   22.7600 N   0  0  0  0  0  0  0  0  0  0  0  0
    7.6450   -8.4420   22.7980 C   0  0  0  0  0  0  0  0  0  0  0  0
    8.5770   -8.2580   23.3350 H   0  0  0  0  0  0  0  0  0  0  0  0
    7.9580   -8.7850   21.8220 H   0  0  0  0  0  0  0  0  0  0  0  0
    7.1250   -9.2720   23.2820 H   0  0  0  0  0  0  0  0  0  0  0  0
    6.5320   -6.8320   23.6440 H   0  0  0  0  0  0  0  0  0  0  0  0
    4.9510   -5.1970   22.2280 H   0  0  0  0  0  0  0  0  0  0  0  0
    5.9800   -4.6400   20.8850 H   0  0  0  0  0  0  0  0  0  0  0  0
    6.2640   -4.2710   24.0920 C   0  0  0  0  0  0  0  0  0  0  0  0
    5.7100   -5.2500   24.5830 O   0  0  0  0  0  0  0  0  0  0  0  0
    6.4240   -2.9760   24.8050 C   0  0  0  0  0  0  0  0  0  0  0  0
    5.9560   -2.8940   26.1170 C   0  0  0  0  0  0  0  0  0  0  0  0
    5.9410   -1.6760   26.7680 C   0  0  0  0  0  0  0  0  0  0  0  0
    6.3740   -0.5390   26.0840 C   0  0  0  0  0  0  0  0  0  0  0  0
    6.3200    1.0070   26.8890 Cl  0  0  0  0  0  0  0  0  0  0  0  0
    6.8410   -0.6070   24.7830 C   0  0  0  0  0  0  0  0  0  0  0  0
    6.9060   -1.8440   24.1260 C   0  0  0  0  0  0  0  0  0  0  0  0
    7.1270    0.3170   24.2910 H   0  0  0  0  0  0  0  0  0  0  0  0
    5.5810   -1.5890   27.7870 H   0  0  0  0  0  0  0  0  0  0  0  0
    5.5870   -3.7960   26.5990 H   0  0  0  0  0  0  0  0  0  0  0  0
    8.7230   -3.6450   22.8820 H   0  0  0  0  0  0  0  0  0  0  0  0
    7.9390   -3.5280   21.3130 H   0  0  0  0  0  0  0  0  0  0  0  0
    8.6100    0.6200   20.8420 H   0  0  0  0  0  0  0  0  0  0  0  0
    8.7820   -1.0430   20.2150 H   0  0  0  0  0  0  0  0  0  0  0  0
    8.5500   -0.1350   23.0600 H   0  0  0  0  0  0  0  0  0  0  0  0
    9.7520   -1.6990   24.3950 H   0  0  0  0  0  0  0  0  0  0  0  0
   11.0250   -2.6200   23.5650 H   0  0  0  0  0  0  0  0  0  0  0  0
   12.2170   -0.5260   22.9590 H   0  0  0  0  0  0  0  0  0  0  0  0
   12.0060   -0.6280   24.7210 H   0  0  0  0  0  0  0  0  0  0  0  0
   10.9720    0.4530   23.7630 H   0  0  0  0  0  0  0  0  0  0  0  0
  1  2  1  0  0  0  0
  1 58  1  0  0  0  0
  1 59  1  0  0  0  0
  1 60  1  0  0  0  0
  2  3  1  0  0  0  0
  2 56  1  0  0  0  0
  2 57  1  0  0  0  0
  3  4  1  0  0  0  0
  4  5  1  0  0  0  0
  4 25  1  0  0  0  0
  4 55  1  1  0  0  0
  5  6  1  0  0  0  0
  5 53  1  0  0  0  0
  5 54  1  0  0  0  0
  6  7  1  0  0  0  0
  6 23  1  0  0  0  0
  7  8  2  0  0  0  0
  7 16  1  0  0  0  0
  8  9  1  0  0  0  0
  8 22  1  0  0  0  0
  9 10  2  0  0  0  0
 10 11  1  0  0  0  0
 10 21  1  0  0  0  0
 11 12  2  0  0  0  0
 11 16  1  0  0  0  0
 12 13  1  0  0  0  0
 12 20  1  0  0  0  0
 13 14  2  0  0  0  0
 13 19  1  0  0  0  0
 14 15  1  0  0  0  0
 14 18  1  0  0  0  0
 15 16  2  0  0  0  0
 15 17  1  0  0  0  0
 23 24  2  0  0  0  0
 25 23  1  6  0  0  0
 25 26  1  0  0  0  0
 25 47  1  0  0  0  0
 26 27  1  0  0  0  0
 26 51  1  0  0  0  0
 26 52  1  0  0  0  0
 27 28  1  0  0  0  0
 27 39  1  0  0  0  0
 28 29  1  0  0  0  0
 28 37  1  0  0  0  0
 28 38  1  0  0  0  0
 29 30  2  0  0  0  0
 29 31  1  0  0  0  0
 31 32  1  0  0  0  0
 31 36  1  0  0  0  0
 32 33  1  0  0  0  0
 32 34  1  0  0  0  0
 32 35  1  0  0  0  0
 39 40  2  0  0  0  0
 39 41  1  0  0  0  0
 41 42  2  0  0  0  0
 41 47  1  0  0  0  0
 42 43  1  0  0  0  0
 42 50  1  0  0  0  0
 43 44  2  0  0  0  0
 43 49  1  0  0  0  0
 44 45  1  0  0  0  0
 44 46  1  0  0  0  0
 46 47  2  0  0  0  0
 46 48  1  0  0  0  0
M  END
>  <MODEL>
       1

$$$$
