output/tmp_first_model_1_60.pdb
 OpenBabel07222618483D

 38 41  0  0  0  0  0  0  0  0999 V2000
    5.0300   -1.0480   23.4980 O   0  0  0  0  0  0  0  0  0  0  0  0
    5.8740   -1.4010   22.6850 C   0  0  0  0  0  0  0  0  0  0  0  0
    6.3240   -0.4630   21.5590 C   0  0  0  0  0  0  0  0  0  0  0  0
    5.4570   -0.3040   20.3120 C   0  0  0  0  0  0  0  0  0  0  0  0
    6.0370   -0.5700   19.0900 C   0  0  0  0  0  0  0  0  0  0  0  0
    5.5150   -0.2670   17.8750 N   0  0  0  0  0  0  0  0  0  0  0  0
    4.3540    0.3320   17.8750 C   0  0  0  0  0  0  0  0  0  0  0  0
    3.6170    0.6350   19.0410 C   0  0  0  0  0  0  0  0  0  0  0  0
    2.4120    1.3680   18.9390 C   0  0  0  0  0  0  0  0  0  0  0  0
    1.6820    1.6450   20.0570 C   0  0  0  0  0  0  0  0  0  0  0  0
    2.1460    1.2100   21.3150 C   0  0  0  0  0  0  0  0  0  0  0  0
    3.3390    0.5420   21.4550 C   0  0  0  0  0  0  0  0  0  0  0  0
    4.1400    0.2610   20.3060 C   0  0  0  0  0  0  0  0  0  0  0  0
    3.6710    0.2220   22.4400 H   0  0  0  0  0  0  0  0  0  0  0  0
    1.5450    1.4260   22.1920 H   0  0  0  0  0  0  0  0  0  0  0  0
    0.7500    2.1950   19.9850 H   0  0  0  0  0  0  0  0  0  0  0  0
    2.1160    1.7240   17.9590 H   0  0  0  0  0  0  0  0  0  0  0  0
    3.9180    0.5890   16.9080 H   0  0  0  0  0  0  0  0  0  0  0  0
    7.0030   -1.0740   19.0330 H   0  0  0  0  0  0  0  0  0  0  0  0
    6.4580    0.5030   22.0670 H   0  0  0  0  0  0  0  0  0  0  0  0
    7.3070   -0.7590   21.1870 H   0  0  0  0  0  0  0  0  0  0  0  0
    6.4570   -2.6320   22.7900 N   0  0  0  0  0  0  0  0  0  0  0  0
    7.7160   -3.0540   22.2090 C   0  0  0  0  0  0  0  0  0  0  0  0
    7.4270   -4.1640   21.2270 C   0  0  0  0  0  0  0  0  0  0  0  0
    6.5480   -5.1530   21.8910 C   0  0  0  0  0  0  0  0  0  0  0  0
    6.4770   -6.7710   21.3340 S   0  0  0  0  0  0  0  0  0  0  0  0
    5.7000   -7.2470   22.7780 C   0  0  0  0  0  0  0  0  0  0  0  0
    5.3860   -6.2020   23.5880 C   0  0  0  0  0  0  0  0  0  0  0  0
    5.8790   -4.9750   23.0570 C   0  0  0  0  0  0  0  0  0  0  0  0
    5.8560   -3.6140   23.6890 C   0  0  0  0  0  0  0  0  0  0  0  0
    6.4170   -3.6620   24.6310 H   0  0  0  0  0  0  0  0  0  0  0  0
    4.8510   -3.2770   23.9470 H   0  0  0  0  0  0  0  0  0  0  0  0
    4.8700   -6.2980   24.5360 H   0  0  0  0  0  0  0  0  0  0  0  0
    5.6680   -8.2900   22.9890 H   0  0  0  0  0  0  0  0  0  0  0  0
    8.3570   -4.6470   20.9140 H   0  0  0  0  0  0  0  0  0  0  0  0
    6.8880   -3.7610   20.3610 H   0  0  0  0  0  0  0  0  0  0  0  0
    8.3640   -3.4320   23.0090 H   0  0  0  0  0  0  0  0  0  0  0  0
    8.2530   -2.2240   21.7520 H   0  0  0  0  0  0  0  0  0  0  0  0
  1  2  2  0  0  0  0
  2  3  1  0  0  0  0
  2 22  1  0  0  0  0
  3  4  1  0  0  0  0
  3 20  1  0  0  0  0
  3 21  1  0  0  0  0
  4  5  2  0  0  0  0
  4 13  1  0  0  0  0
  5  6  1  0  0  0  0
  5 19  1  0  0  0  0
  6  7  2  0  0  0  0
  7  8  1  0  0  0  0
  7 18  1  0  0  0  0
  8  9  2  0  0  0  0
  8 13  1  0  0  0  0
  9 10  1  0  0  0  0
  9 17  1  0  0  0  0
 10 11  2  0  0  0  0
 10 16  1  0  0  0  0
 11 12  1  0  0  0  0
 11 15  1  0  0  0  0
 12 13  2  0  0  0  0
 12 14  1  0  0  0  0
 22 23  1  0  0  0  0
 22 30  1  0  0  0  0
 23 24  1  0  0  0  0
 23 37  1  0  0  0  0
 23 38  1  0  0  0  0
 24 25  1  0  0  0  0
 24 35  1  0  0  0  0
 24 36  1  0  0  0  0
 25 26  1  0  0  0  0
 25 29  2  0  0  0  0
 26 27  1  0  0  0  0
 27 28  2  0  0  0  0
 27 34  1  0  0  0  0
 28 29  1  0  0  0  0
 28 33  1  0  0  0  0
 29 30  1  0  0  0  0
 30 31  1  0  0  0  0
 30 32  1  0  0  0  0
M  END
>  <MODEL>
       1

$$$$
