output/tmp_first_model_2_51.pdb
 OpenBabel07222619223D

 67 73  0  0  1  0  0  0  0  0999 V2000
    5.5590    4.9280   21.3560 C   0  0  0  0  0  0  0  0  0  0  0  0
    6.0020    4.5380   22.7230 C   0  0  0  0  0  0  0  0  0  0  0  0
    6.2800    5.3160   23.7200 N   0  0  0  0  0  0  0  0  0  0  0  0
    6.5320    4.5010   24.8050 N   0  0  0  0  0  0  0  0  0  0  0  0
    6.4320    3.2890   24.3860 C   0  0  0  0  0  0  0  0  0  0  0  0
    6.7130    2.0270   25.1440 C   0  0  0  0  0  0  0  0  0  0  0  0
    7.8160    1.2560   24.5520 N   0  0  0  0  0  0  0  0  0  0  0  0
    7.6000   -0.1210   24.0960 C   0  0  0  0  0  0  0  0  0  0  0  0
    8.3410   -0.4030   22.7550 C   0  0  2  0  0  0  0  0  0  0  0  0
    7.7160    0.4510   21.6180 C   0  0  0  0  0  0  0  0  0  0  0  0
    7.8780    1.6300   21.4110 O   0  0  0  0  0  0  0  0  0  0  0  0
    6.9380   -0.3800   20.8440 N   0  0  0  0  0  0  0  0  0  0  0  0
    6.1400    0.1090   19.7720 C   0  0  0  0  0  0  0  0  0  0  0  0
    6.4410   -0.2200   18.4730 C   0  0  0  0  0  0  0  0  0  0  0  0
    5.7650    0.2310   17.3910 N   0  0  0  0  0  0  0  0  0  0  0  0
    4.7420    1.0260   17.5900 C   0  0  0  0  0  0  0  0  0  0  0  0
    4.2910    1.4210   18.8790 C   0  0  0  0  0  0  0  0  0  0  0  0
    3.1660    2.2730   19.0590 C   0  0  0  0  0  0  0  0  0  0  0  0
    2.7440    2.6100   20.3160 C   0  0  0  0  0  0  0  0  0  0  0  0
    3.4210    2.1080   21.4480 C   0  0  0  0  0  0  0  0  0  0  0  0
    4.5090    1.2840   21.2980 C   0  0  0  0  0  0  0  0  0  0  0  0
    4.9940    0.9380   20.0090 C   0  0  0  0  0  0  0  0  0  0  0  0
    5.0100    0.8800   22.1710 H   0  0  0  0  0  0  0  0  0  0  0  0
    3.0730    2.3710   22.4420 H   0  0  0  0  0  0  0  0  0  0  0  0
    1.8860    3.2640   20.4500 H   0  0  0  0  0  0  0  0  0  0  0  0
    2.6560    2.6520   18.1780 H   0  0  0  0  0  0  0  0  0  0  0  0
    4.2110    1.3910   16.7090 H   0  0  0  0  0  0  0  0  0  0  0  0
    7.2890   -0.8680   18.2560 H   0  0  0  0  0  0  0  0  0  0  0  0
    6.9450   -1.7630   21.2780 C   0  0  0  0  0  0  0  0  0  0  0  0
    8.1330   -1.8650   22.2540 C   0  0  2  0  0  0  0  0  0  0  0  0
    7.9410   -2.9120   23.4010 C   0  0  0  0  0  0  0  0  0  0  0  0
    7.9190   -4.2900   22.9450 N   0  0  0  0  0  0  0  0  0  0  0  0
    7.8820   -5.5360   23.5470 C   0  0  0  0  0  0  0  0  0  0  0  0
    7.3010   -5.8420   24.8450 C   0  0  0  0  0  0  0  0  0  0  0  0
    7.4690   -5.7800   25.2230 C   0  0  0  0  0  0  0  0  0  0  0  0
    7.7350   -6.6790   22.6600 N   0  0  0  0  0  0  0  0  0  0  0  0
    7.9630   -7.4130   23.9450 C   0  0  0  0  0  0  0  0  0  0  0  0
    7.7350   -6.6790   22.6600 N   0  0  0  0  0  0  0  0  0  0  0  0
    7.4640   -8.2890   23.5790 H   0  0  0  0  0  0  0  0  0  0  0  0
    7.8950   -6.2070   26.2290 H   0  0  0  0  0  0  0  0  0  0  0  0
    7.6770   -4.7820   25.5330 H   0  0  0  0  0  0  0  0  0  0  0  0
    7.9790   -4.3270   21.9430 H   0  0  0  0  0  0  0  0  0  0  0  0
    8.7810   -2.7320   24.0900 H   0  0  0  0  0  0  0  0  0  0  0  0
    6.9970   -2.6250   23.8940 H   0  0  0  0  0  0  0  0  0  0  0  0
    9.0260   -2.1440   21.6800 H   0  0  0  0  0  0  0  0  0  0  0  0
    7.0520   -2.4020   20.4080 H   0  0  0  0  0  0  0  0  0  0  0  0
    6.0000   -2.0330   21.7690 H   0  0  0  0  0  0  0  0  0  0  0  0
    9.7820    0.0310   22.8970 C   0  0  0  0  0  0  0  0  0  0  0  0
   10.7680   -0.3780   22.0090 C   0  0  0  0  0  0  0  0  0  0  0  0
   12.0620    0.0740   22.1470 C   0  0  0  0  0  0  0  0  0  0  0  0
   13.2020   -0.3740   20.9450 Cl  0  0  0  0  0  0  0  0  0  0  0  0
   12.4510    0.9160   23.1750 C   0  0  0  0  0  0  0  0  0  0  0  0
   11.4550    1.4300   23.9670 C   0  0  0  0  0  0  0  0  0  0  0  0
   10.1240    1.0590   23.7710 C   0  0  0  0  0  0  0  0  0  0  0  0
    9.0420    1.8770   24.4040 C   0  0  0  0  0  0  0  0  0  0  0  0
    9.2900    3.0260   24.7310 O   0  0  0  0  0  0  0  0  0  0  0  0
   11.7140    2.1590   24.7090 H   0  0  0  0  0  0  0  0  0  0  0  0
   13.4850    1.2170   23.2650 H   0  0  0  0  0  0  0  0  0  0  0  0
   10.5290   -0.9940   21.1600 H   0  0  0  0  0  0  0  0  0  0  0  0
    7.9310   -0.8520   24.8490 H   0  0  0  0  0  0  0  0  0  0  0  0
    6.5270   -0.2810   23.9240 H   0  0  0  0  0  0  0  0  0  0  0  0
    6.9380    2.3450   26.1700 H   0  0  0  0  0  0  0  0  0  0  0  0
    5.7970    1.4150   25.1860 H   0  0  0  0  0  0  0  0  0  0  0  0
    6.0770    3.2250   23.0800 O   0  0  0  0  0  0  0  0  0  0  0  0
    4.4920    5.1820   21.3670 H   0  0  0  0  0  0  0  0  0  0  0  0
    6.0920    5.8290   21.0470 H   0  0  0  0  0  0  0  0  0  0  0  0
    5.7140    4.1210   20.6340 H   0  0  0  0  0  0  0  0  0  0  0  0
  1  2  1  0  0  0  0
  1 65  1  0  0  0  0
  1 66  1  0  0  0  0
  1 67  1  0  0  0  0
  2  3  2  0  0  0  0
  2 64  1  0  0  0  0
  3  4  1  0  0  0  0
  4  5  2  0  0  0  0
  5  6  1  0  0  0  0
  5 64  1  0  0  0  0
  6  7  1  0  0  0  0
  6 62  1  0  0  0  0
  6 63  1  0  0  0  0
  7  8  1  0  0  0  0
  7 55  1  0  0  0  0
  8  9  1  0  0  0  0
  8 60  1  0  0  0  0
  8 61  1  0  0  0  0
  9 10  1  6  0  0  0
  9 30  1  0  0  0  0
  9 48  1  0  0  0  0
 10 11  2  0  0  0  0
 10 12  1  0  0  0  0
 12 13  1  0  0  0  0
 12 29  1  0  0  0  0
 13 14  2  0  0  0  0
 13 22  1  0  0  0  0
 14 15  1  0  0  0  0
 14 28  1  0  0  0  0
 15 16  2  0  0  0  0
 16 17  1  0  0  0  0
 16 27  1  0  0  0  0
 17 18  2  0  0  0  0
 17 22  1  0  0  0  0
 18 19  1  0  0  0  0
 18 26  1  0  0  0  0
 19 20  2  0  0  0  0
 19 25  1  0  0  0  0
 20 21  1  0  0  0  0
 20 24  1  0  0  0  0
 21 22  2  0  0  0  0
 21 23  1  0  0  0  0
 29 30  1  0  0  0  0
 29 46  1  0  0  0  0
 29 47  1  0  0  0  0
 30 31  1  0  0  0  0
 30 45  1  6  0  0  0
 31 32  1  0  0  0  0
 31 43  1  0  0  0  0
 31 44  1  0  0  0  0
 32 33  1  0  0  0  0
 32 42  1  0  0  0  0
 33 34  2  0  0  0  0
 33 38  1  0  0  0  0
 34 35  1  0  0  0  0
 34 41  1  0  0  0  0
 35 36  2  0  0  0  0
 35 40  1  0  0  0  0
 36 37  1  0  0  0  0
 37 38  2  0  0  0  0
 37 39  1  0  0  0  0
 48 49  2  0  0  0  0
 48 54  1  0  0  0  0
 49 50  1  0  0  0  0
 49 59  1  0  0  0  0
 50 51  1  0  0  0  0
 50 52  2  0  0  0  0
 52 53  1  0  0  0  0
 52 58  1  0  0  0  0
 53 54  2  0  0  0  0
 53 57  1  0  0  0  0
 54 55  1  0  0  0  0
 55 56  2  0  0  0  0
M  END
>  <MODEL>
       1

$$$$
