output/tmp_first_model_6_8.pdb
 OpenBabel07222621163D

 66 71  0  0  1  0  0  0  0  0999 V2000
    7.7370   -3.0300   23.1980 C   0  0  0  0  0  0  0  0  0  0  0  0
    7.9560   -1.9380   22.1710 C   0  0  1  0  0  0  0  0  0  0  0  0
    6.7670   -1.7930   21.2220 C   0  0  0  0  0  0  0  0  0  0  0  0
    6.8730   -0.4210   20.7930 N   0  0  0  0  0  0  0  0  0  0  0  0
    6.1160    0.1160   19.7400 C   0  0  0  0  0  0  0  0  0  0  0  0
    6.4350   -0.2310   18.4540 C   0  0  0  0  0  0  0  0  0  0  0  0
    5.7800    0.2220   17.3600 N   0  0  0  0  0  0  0  0  0  0  0  0
    4.7670    1.0300   17.5710 C   0  0  0  0  0  0  0  0  0  0  0  0
    4.3110    1.4300   18.8600 C   0  0  0  0  0  0  0  0  0  0  0  0
    3.1880    2.2820   19.0210 C   0  0  0  0  0  0  0  0  0  0  0  0
    2.7390    2.6140   20.2680 C   0  0  0  0  0  0  0  0  0  0  0  0
    3.3990    2.1210   21.4180 C   0  0  0  0  0  0  0  0  0  0  0  0
    4.5020    1.3150   21.2910 C   0  0  0  0  0  0  0  0  0  0  0  0
    4.9940    0.9580   20.0000 C   0  0  0  0  0  0  0  0  0  0  0  0
    5.0110    0.9560   22.1840 H   0  0  0  0  0  0  0  0  0  0  0  0
    3.0310    2.3900   22.4050 H   0  0  0  0  0  0  0  0  0  0  0  0
    1.8730    3.2620   20.3840 H   0  0  0  0  0  0  0  0  0  0  0  0
    2.7060    2.6570   18.1220 H   0  0  0  0  0  0  0  0  0  0  0  0
    4.2370    1.4010   16.6940 H   0  0  0  0  0  0  0  0  0  0  0  0
    7.2820   -0.8930   18.2740 H   0  0  0  0  0  0  0  0  0  0  0  0
    7.6460    0.3770   21.5990 C   0  0  0  0  0  0  0  0  0  0  0  0
    7.7830    1.5710   21.4380 O   0  0  0  0  0  0  0  0  0  0  0  0
    8.2340   -0.4870   22.7130 C   0  0  1  0  0  0  0  0  0  0  0  0
    7.4450   -0.1130   23.9960 C   0  0  0  0  0  0  0  0  0  0  0  0
    8.0610   -0.6020   25.2180 N   0  0  0  0  0  0  0  0  0  0  0  0
    7.2380   -0.9630   26.3690 C   0  0  0  0  0  0  0  0  0  0  0  0
    6.8480   -2.4510   26.3420 C   0  0  0  0  0  0  0  0  0  0  0  0
    5.7210   -2.8420   26.0680 O   0  0  0  0  0  0  0  0  0  0  0  0
    7.8770   -3.2870   26.6130 N   0  0  0  0  0  0  0  0  0  0  0  0
    7.6940   -4.7320   26.6940 C   0  0  0  0  0  0  0  0  0  0  0  0
    8.9980   -5.3550   27.0660 C   0  0  0  0  0  0  0  0  0  0  0  0
    9.4590   -5.7700   28.2910 C   0  0  0  0  0  0  0  0  0  0  0  0
   10.8360   -5.9450   28.1190 C   0  0  0  0  0  0  0  0  0  0  0  0
   11.2070   -5.7130   26.8710 N   0  0  0  0  0  0  0  0  0  0  0  0
   10.0760   -5.3540   26.2340 N   0  0  0  0  0  0  0  0  0  0  0  0
   10.2170   -4.6610   24.9720 C   0  0  0  0  0  0  0  0  0  0  0  0
    9.5010   -5.0250   24.2310 H   0  0  0  0  0  0  0  0  0  0  0  0
   11.2270   -4.8560   24.6320 H   0  0  0  0  0  0  0  0  0  0  0  0
   10.0980   -3.5770   25.1000 H   0  0  0  0  0  0  0  0  0  0  0  0
   11.5770   -6.1750   28.8740 H   0  0  0  0  0  0  0  0  0  0  0  0
    8.9010   -5.9110   29.1980 H   0  0  0  0  0  0  0  0  0  0  0  0
    6.9550   -4.9780   27.4620 H   0  0  0  0  0  0  0  0  0  0  0  0
    7.2810   -5.1230   25.7530 H   0  0  0  0  0  0  0  0  0  0  0  0
    8.8010   -2.9010   26.7750 H   0  0  0  0  0  0  0  0  0  0  0  0
    7.8350   -0.7320   27.2570 H   0  0  0  0  0  0  0  0  0  0  0  0
    6.3280   -0.3600   26.4040 H   0  0  0  0  0  0  0  0  0  0  0  0
    9.4120   -0.6600   25.3630 C   0  0  0  0  0  0  0  0  0  0  0  0
    9.9310   -1.0630   26.3980 O   0  0  0  0  0  0  0  0  0  0  0  0
   10.2630   -0.3050   24.2010 C   0  0  0  0  0  0  0  0  0  0  0  0
   11.6270   -0.1370   24.4310 C   0  0  0  0  0  0  0  0  0  0  0  0
   12.4700    0.1360   23.3740 C   0  0  0  0  0  0  0  0  0  0  0  0
   11.9450    0.2090   22.0840 C   0  0  0  0  0  0  0  0  0  0  0  0
   10.5880    0.0150   21.8610 C   0  0  0  0  0  0  0  0  0  0  0  0
    9.7120   -0.2170   22.9260 C   0  0  0  0  0  0  0  0  0  0  0  0
   10.1800    0.0430   20.8560 H   0  0  0  0  0  0  0  0  0  0  0  0
   12.6190    0.4010   21.2560 H   0  0  0  0  0  0  0  0  0  0  0  0
   13.5320    0.2860   23.5410 H   0  0  0  0  0  0  0  0  0  0  0  0
   11.9950   -0.2510   25.4450 H   0  0  0  0  0  0  0  0  0  0  0  0
    6.4240   -0.5110   23.9410 H   0  0  0  0  0  0  0  0  0  0  0  0
    7.3720    0.9810   24.0260 H   0  0  0  0  0  0  0  0  0  0  0  0
    5.8120   -1.9820   21.7380 H   0  0  0  0  0  0  0  0  0  0  0  0
    6.8100   -2.4690   20.3660 H   0  0  0  0  0  0  0  0  0  0  0  0
    8.8390   -2.1810   21.5640 H   0  0  0  0  0  0  0  0  0  0  0  0
    8.5610   -3.0390   23.9050 H   0  0  0  0  0  0  0  0  0  0  0  0
    6.8050   -2.8820   23.7510 H   0  0  0  0  0  0  0  0  0  0  0  0
    7.6830   -4.0180   22.7290 H   0  0  0  0  0  0  0  0  0  0  0  0
  1  2  1  0  0  0  0
  1 64  1  0  0  0  0
  1 65  1  0  0  0  0
  1 66  1  0  0  0  0
  2  3  1  0  0  0  0
  2 23  1  0  0  0  0
  2 63  1  6  0  0  0
  3  4  1  0  0  0  0
  3 61  1  0  0  0  0
  3 62  1  0  0  0  0
  4  5  1  0  0  0  0
  4 21  1  0  0  0  0
  5  6  2  0  0  0  0
  5 14  1  0  0  0  0
  6  7  1  0  0  0  0
  6 20  1  0  0  0  0
  7  8  2  0  0  0  0
  8  9  1  0  0  0  0
  8 19  1  0  0  0  0
  9 10  2  0  0  0  0
  9 14  1  0  0  0  0
 10 11  1  0  0  0  0
 10 18  1  0  0  0  0
 11 12  2  0  0  0  0
 11 17  1  0  0  0  0
 12 13  1  0  0  0  0
 12 16  1  0  0  0  0
 13 14  2  0  0  0  0
 13 15  1  0  0  0  0
 21 22  2  0  0  0  0
 23 21  1  6  0  0  0
 23 24  1  0  0  0  0
 23 54  1  0  0  0  0
 24 25  1  0  0  0  0
 24 59  1  0  0  0  0
 24 60  1  0  0  0  0
 25 26  1  0  0  0  0
 25 47  1  0  0  0  0
 26 27  1  0  0  0  0
 26 45  1  0  0  0  0
 26 46  1  0  0  0  0
 27 28  2  0  0  0  0
 27 29  1  0  0  0  0
 29 30  1  0  0  0  0
 29 44  1  0  0  0  0
 30 31  1  0  0  0  0
 30 42  1  0  0  0  0
 30 43  1  0  0  0  0
 31 32  2  0  0  0  0
 31 35  1  0  0  0  0
 32 33  1  0  0  0  0
 32 41  1  0  0  0  0
 33 34  2  0  0  0  0
 33 40  1  0  0  0  0
 34 35  1  0  0  0  0
 35 36  1  0  0  0  0
 36 37  1  0  0  0  0
 36 38  1  0  0  0  0
 36 39  1  0  0  0  0
 47 48  2  0  0  0  0
 47 49  1  0  0  0  0
 49 50  2  0  0  0  0
 49 54  1  0  0  0  0
 50 51  1  0  0  0  0
 50 58  1  0  0  0  0
 51 52  2  0  0  0  0
 51 57  1  0  0  0  0
 52 53  1  0  0  0  0
 52 56  1  0  0  0  0
 53 54  2  0  0  0  0
 53 55  1  0  0  0  0
M  END
>  <MODEL>
       1

$$$$
