output/tmp_first_model_2_83.pdb
 OpenBabel07222619223D

 72 77  0  0  1  0  0  0  0  0999 V2000
    9.2310    6.0360   23.5460 C   0  0  0  0  0  0  0  0  0  0  0  0
    8.0150    6.0320   22.6300 C   0  0  2  0  0  0  0  0  0  0  0  0
    7.2500    7.3440   22.6910 C   0  0  0  0  0  0  0  0  0  0  0  0
    6.1070    7.3310   21.8600 O   0  0  0  0  0  0  0  0  0  0  0  0
    5.1870    6.3510   22.3010 C   0  0  0  0  0  0  0  0  0  0  0  0
    5.7590    4.9410   22.2430 C   0  0  1  0  0  0  0  0  0  0  0  0
    5.9520    4.4900   20.8100 C   0  0  0  0  0  0  0  0  0  0  0  0
    6.5080    3.5530   20.7550 H   0  0  0  0  0  0  0  0  0  0  0  0
    6.4880    5.2530   20.2550 H   0  0  0  0  0  0  0  0  0  0  0  0
    4.9870    4.3180   20.3360 H   0  0  0  0  0  0  0  0  0  0  0  0
    7.0640    4.9080   23.0100 N   0  3  1  0  0  0  0  0  0  0  0  0
    7.6880    3.5710   22.9240 C   0  0  0  0  0  0  0  0  0  0  0  0
    8.0450    2.9850   24.2780 C   0  0  0  0  0  0  0  0  0  0  0  0
    8.7050    1.7080   24.0680 N   0  0  0  0  0  0  0  0  0  0  0  0
    7.9170    0.5030   23.8520 C   0  0  0  0  0  0  0  0  0  0  0  0
    8.3560   -0.3430   22.6190 C   0  0  2  0  0  0  0  0  0  0  0  0
    7.9310    0.2690   21.2700 C   0  0  0  0  0  0  0  0  0  0  0  0
    8.4800    1.1720   20.6650 O   0  0  0  0  0  0  0  0  0  0  0  0
    6.8350   -0.4150   20.8000 N   0  0  0  0  0  0  0  0  0  0  0  0
    6.0920    0.1190   19.7270 C   0  0  0  0  0  0  0  0  0  0  0  0
    6.4520   -0.1610   18.4360 C   0  0  0  0  0  0  0  0  0  0  0  0
    5.7800    0.2990   17.3590 N   0  0  0  0  0  0  0  0  0  0  0  0
    4.7430    1.0700   17.5820 C   0  0  0  0  0  0  0  0  0  0  0  0
    4.2840    1.4540   18.8720 C   0  0  0  0  0  0  0  0  0  0  0  0
    3.1660    2.3080   19.0650 C   0  0  0  0  0  0  0  0  0  0  0  0
    2.7580    2.6560   20.3230 C   0  0  0  0  0  0  0  0  0  0  0  0
    3.4710    2.1950   21.4520 C   0  0  0  0  0  0  0  0  0  0  0  0
    4.5670    1.3830   21.2960 C   0  0  0  0  0  0  0  0  0  0  0  0
    4.9870    0.9730   19.9980 C   0  0  0  0  0  0  0  0  0  0  0  0
    5.1160    1.0510   22.1720 H   0  0  0  0  0  0  0  0  0  0  0  0
    3.1510    2.4850   22.4490 H   0  0  0  0  0  0  0  0  0  0  0  0
    1.8980    3.3070   20.4570 H   0  0  0  0  0  0  0  0  0  0  0  0
    2.6680    2.6940   18.1820 H   0  0  0  0  0  0  0  0  0  0  0  0
    4.2070    1.4340   16.7070 H   0  0  0  0  0  0  0  0  0  0  0  0
    7.3210   -0.7880   18.2420 H   0  0  0  0  0  0  0  0  0  0  0  0
    6.3800   -1.4840   21.6650 C   0  0  0  0  0  0  0  0  0  0  0  0
    7.6140   -1.7100   22.5500 C   0  0  2  0  0  0  0  0  0  0  0  0
    7.3600   -2.4110   23.8720 C   0  0  0  0  0  0  0  0  0  0  0  0
    8.3010   -2.5300   24.4220 H   0  0  0  0  0  0  0  0  0  0  0  0
    6.6670   -1.8430   24.5020 H   0  0  0  0  0  0  0  0  0  0  0  0
    6.9250   -3.4020   23.7060 H   0  0  0  0  0  0  0  0  0  0  0  0
    8.2490   -2.3650   21.9530 H   0  0  0  0  0  0  0  0  0  0  0  0
    6.1230   -2.3790   21.0820 H   0  0  0  0  0  0  0  0  0  0  0  0
    5.4880   -1.1960   22.2410 H   0  0  0  0  0  0  0  0  0  0  0  0
    9.8580   -0.4410   22.6180 C   0  0  0  0  0  0  0  0  0  0  0  0
   10.4830   -1.4320   21.8620 C   0  0  0  0  0  0  0  0  0  0  0  0
   11.8500   -1.4700   21.7280 C   0  0  0  0  0  0  0  0  0  0  0  0
   12.4270   -2.7720   20.6990 Cl  0  0  0  0  0  0  0  0  0  0  0  0
   12.6440   -0.4970   22.3530 C   0  0  0  0  0  0  0  0  0  0  0  0
   12.0350    0.5040   23.0760 C   0  0  0  0  0  0  0  0  0  0  0  0
   10.6530    0.5620   23.1790 C   0  0  0  0  0  0  0  0  0  0  0  0
   10.0400    1.7740   23.7950 C   0  0  0  0  0  0  0  0  0  0  0  0
   10.7070    2.7800   24.0070 O   0  0  0  0  0  0  0  0  0  0  0  0
   12.6320    1.2760   23.5540 H   0  0  0  0  0  0  0  0  0  0  0  0
   13.7170   -0.4430   22.2850 H   0  0  0  0  0  0  0  0  0  0  0  0
    9.9400   -2.1830   21.3050 H   0  0  0  0  0  0  0  0  0  0  0  0
    6.8590    0.7770   23.7440 H   0  0  0  0  0  0  0  0  0  0  0  0
    8.0300   -0.1300   24.7420 H   0  0  0  0  0  0  0  0  0  0  0  0
    8.7400    3.6290   24.8180 H   0  0  0  0  0  0  0  0  0  0  0  0
    7.1390    2.8670   24.8890 H   0  0  0  0  0  0  0  0  0  0  0  0
    8.5680    3.6100   22.2730 H   0  0  0  0  0  0  0  0  0  0  0  0
    6.9860    2.8760   22.4620 H   0  0  0  0  0  0  0  0  0  0  0  0
    6.8350    5.0560   24.0110 H   0  0  0  0  0  0  0  0  0  0  0  0
    5.0720    4.2400   22.7390 H   0  0  0  0  0  0  0  0  0  0  0  0
    4.3160    6.4200   21.6450 H   0  0  0  0  0  0  0  0  0  0  0  0
    4.8650    6.5710   23.3300 H   0  0  0  0  0  0  0  0  0  0  0  0
    6.9510    7.5320   23.7360 H   0  0  0  0  0  0  0  0  0  0  0  0
    7.8830    8.1640   22.3440 H   0  0  0  0  0  0  0  0  0  0  0  0
    8.3400    5.8670   21.5980 H   0  0  0  0  0  0  0  0  0  0  0  0
    9.8550    5.1510   23.3990 H   0  0  0  0  0  0  0  0  0  0  0  0
    9.8530    6.9160   23.3670 H   0  0  0  0  0  0  0  0  0  0  0  0
    8.9180    6.0540   24.5970 H   0  0  0  0  0  0  0  0  0  0  0  0
  1  2  1  0  0  0  0
  1 70  1  0  0  0  0
  1 71  1  0  0  0  0
  1 72  1  0  0  0  0
  2  3  1  0  0  0  0
  2 11  1  0  0  0  0
  2 69  1  6  0  0  0
  3  4  1  0  0  0  0
  3 67  1  0  0  0  0
  3 68  1  0  0  0  0
  4  5  1  0  0  0  0
  5  6  1  0  0  0  0
  5 65  1  0  0  0  0
  5 66  1  0  0  0  0
  6  7  1  0  0  0  0
  6 11  1  0  0  0  0
  6 64  1  1  0  0  0
  7  8  1  0  0  0  0
  7  9  1  0  0  0  0
  7 10  1  0  0  0  0
 11 12  1  0  0  0  0
 11 63  1  1  0  0  0
 12 13  1  0  0  0  0
 12 61  1  0  0  0  0
 12 62  1  0  0  0  0
 13 14  1  0  0  0  0
 13 59  1  0  0  0  0
 13 60  1  0  0  0  0
 14 15  1  0  0  0  0
 14 52  1  0  0  0  0
 15 16  1  0  0  0  0
 15 57  1  0  0  0  0
 15 58  1  0  0  0  0
 16 17  1  6  0  0  0
 16 37  1  0  0  0  0
 16 45  1  0  0  0  0
 17 18  2  0  0  0  0
 17 19  1  0  0  0  0
 19 20  1  0  0  0  0
 19 36  1  0  0  0  0
 20 21  2  0  0  0  0
 20 29  1  0  0  0  0
 21 22  1  0  0  0  0
 21 35  1  0  0  0  0
 22 23  2  0  0  0  0
 23 24  1  0  0  0  0
 23 34  1  0  0  0  0
 24 25  2  0  0  0  0
 24 29  1  0  0  0  0
 25 26  1  0  0  0  0
 25 33  1  0  0  0  0
 26 27  2  0  0  0  0
 26 32  1  0  0  0  0
 27 28  1  0  0  0  0
 27 31  1  0  0  0  0
 28 29  2  0  0  0  0
 28 30  1  0  0  0  0
 36 37  1  0  0  0  0
 36 43  1  0  0  0  0
 36 44  1  0  0  0  0
 37 38  1  0  0  0  0
 37 42  1  6  0  0  0
 38 39  1  0  0  0  0
 38 40  1  0  0  0  0
 38 41  1  0  0  0  0
 45 46  2  0  0  0  0
 45 51  1  0  0  0  0
 46 47  1  0  0  0  0
 46 56  1  0  0  0  0
 47 48  1  0  0  0  0
 47 49  2  0  0  0  0
 49 50  1  0  0  0  0
 49 55  1  0  0  0  0
 50 51  2  0  0  0  0
 50 54  1  0  0  0  0
 51 52  1  0  0  0  0
 52 53  2  0  0  0  0
M  CHG  1  11   1
M  END
>  <MODEL>
       1

$$$$
