output/tmp_first_model_11_19.pdb
 OpenBabel07222623443D

 67 71  0  0  1  0  0  0  0  0999 V2000
    3.5900   -5.2780   21.8950 O   0  0  0  0  0  0  0  0  0  0  0  0
    4.1660   -5.8580   22.7940 C   0  0  0  0  0  0  0  0  0  0  0  0
    5.6910   -5.6960   22.8420 C   0  0  0  0  0  0  0  0  0  0  0  0
    5.8830   -4.2130   22.7590 N   0  3  1  0  0  0  0  0  0  0  0  0
    5.1770   -3.6050   23.9470 C   0  0  0  0  0  0  0  0  0  0  0  0
    5.5100   -2.1670   24.2490 C   0  0  0  0  0  0  0  0  0  0  0  0
    4.7150   -1.4520   25.1460 C   0  0  0  0  0  0  0  0  0  0  0  0
    5.0690   -0.1720   25.5490 C   0  0  0  0  0  0  0  0  0  0  0  0
    6.2400    0.3960   25.0540 C   0  0  0  0  0  0  0  0  0  0  0  0
    6.7130    1.9910   25.5620 Cl  0  0  0  0  0  0  0  0  0  0  0  0
    7.0190   -0.2840   24.1320 C   0  0  0  0  0  0  0  0  0  0  0  0
    6.6300   -1.5540   23.7020 C   0  0  0  0  0  0  0  0  0  0  0  0
    7.3390   -2.2250   22.5470 C   0  0  2  0  0  0  0  0  0  0  0  0
    6.6340   -1.7910   21.2560 C   0  0  0  0  0  0  0  0  0  0  0  0
    5.8840   -2.5530   20.6540 O   0  0  0  0  0  0  0  0  0  0  0  0
    6.8550   -0.4890   20.8440 N   0  0  0  0  0  0  0  0  0  0  0  0
    6.1170    0.0790   19.7700 C   0  0  0  0  0  0  0  0  0  0  0  0
    6.4550   -0.2230   18.4810 C   0  0  0  0  0  0  0  0  0  0  0  0
    5.7850    0.2340   17.3950 N   0  0  0  0  0  0  0  0  0  0  0  0
    4.7590    1.0200   17.5990 C   0  0  0  0  0  0  0  0  0  0  0  0
    4.3080    1.4240   18.8880 C   0  0  0  0  0  0  0  0  0  0  0  0
    3.1740    2.2550   19.0640 C   0  0  0  0  0  0  0  0  0  0  0  0
    2.7590    2.6070   20.3180 C   0  0  0  0  0  0  0  0  0  0  0  0
    3.4450    2.1220   21.4560 C   0  0  0  0  0  0  0  0  0  0  0  0
    4.5400    1.3070   21.3150 C   0  0  0  0  0  0  0  0  0  0  0  0
    5.0090    0.9540   20.0190 C   0  0  0  0  0  0  0  0  0  0  0  0
    5.0380    0.9140   22.1980 H   0  0  0  0  0  0  0  0  0  0  0  0
    3.1030    2.4100   22.4470 H   0  0  0  0  0  0  0  0  0  0  0  0
    1.9050    3.2670   20.4500 H   0  0  0  0  0  0  0  0  0  0  0  0
    2.6630    2.6230   18.1800 H   0  0  0  0  0  0  0  0  0  0  0  0
    4.2260    1.3790   16.7190 H   0  0  0  0  0  0  0  0  0  0  0  0
    7.2920   -0.8970   18.3030 H   0  0  0  0  0  0  0  0  0  0  0  0
    7.2330    0.1820   21.5010 H   0  0  0  0  0  0  0  0  0  0  0  0
    7.2970   -3.7510   22.6680 C   0  0  0  0  0  0  0  0  0  0  0  0
    7.7730   -4.2010   21.7930 H   0  0  0  0  0  0  0  0  0  0  0  0
    7.8480   -4.0620   23.5650 H   0  0  0  0  0  0  0  0  0  0  0  0
    8.3780   -1.8820   22.5150 H   0  0  0  0  0  0  0  0  0  0  0  0
    7.9240    0.1770   23.7450 H   0  0  0  0  0  0  0  0  0  0  0  0
    4.4560    0.3750   26.2530 H   0  0  0  0  0  0  0  0  0  0  0  0
    3.8160   -1.9180   25.5430 H   0  0  0  0  0  0  0  0  0  0  0  0
    5.4130   -4.2200   24.8270 H   0  0  0  0  0  0  0  0  0  0  0  0
    4.1010   -3.6810   23.7890 H   0  0  0  0  0  0  0  0  0  0  0  0
    5.3950   -3.9370   21.8740 H   0  0  0  0  0  0  0  0  0  0  0  0
    6.1790   -6.0920   23.7430 H   0  0  0  0  0  0  0  0  0  0  0  0
    6.1240   -6.2070   21.9720 H   0  0  0  0  0  0  0  0  0  0  0  0
    3.5240   -6.5190   23.7940 N   0  0  0  0  0  0  0  0  0  0  0  0
    2.0700   -6.7020   23.7000 C   0  0  0  0  0  0  0  0  0  0  0  0
    1.2830   -5.3740   23.6150 C   0  0  0  0  0  0  0  0  0  0  0  0
   -0.2090   -5.5770   23.5760 C   0  0  0  0  0  0  0  0  0  0  0  0
   -0.9370   -5.6170   24.7640 C   0  0  0  0  0  0  0  0  0  0  0  0
   -2.3090   -5.8280   24.7530 C   0  0  0  0  0  0  0  0  0  0  0  0
   -2.9820   -6.0090   23.5490 C   0  0  0  0  0  0  0  0  0  0  0  0
   -4.4650   -6.2470   23.5380 C   0  0  0  0  0  0  0  0  0  0  0  0
   -5.0950   -5.3350   22.7410 F   0  0  0  0  0  0  0  0  0  0  0  0
   -4.7480   -7.4760   23.0120 F   0  0  0  0  0  0  0  0  0  0  0  0
   -4.9200   -6.1950   24.5350 H   0  0  0  0  0  0  0  0  0  0  0  0
   -2.2630   -5.9780   22.3560 C   0  0  0  0  0  0  0  0  0  0  0  0
   -0.8900   -5.7640   22.3700 C   0  0  0  0  0  0  0  0  0  0  0  0
   -0.3600   -5.7180   21.4190 H   0  0  0  0  0  0  0  0  0  0  0  0
   -2.7940   -6.1120   21.4190 H   0  0  0  0  0  0  0  0  0  0  0  0
   -2.8600   -5.8420   25.6910 H   0  0  0  0  0  0  0  0  0  0  0  0
   -0.4260   -5.4590   25.7090 H   0  0  0  0  0  0  0  0  0  0  0  0
    1.5670   -4.7270   24.4590 H   0  0  0  0  0  0  0  0  0  0  0  0
    1.6280   -4.8670   22.7150 H   0  0  0  0  0  0  0  0  0  0  0  0
    1.7340   -7.2960   24.5580 H   0  0  0  0  0  0  0  0  0  0  0  0
    1.8790   -7.2890   22.7920 H   0  0  0  0  0  0  0  0  0  0  0  0
    3.9990   -6.7810   24.6500 H   0  0  0  0  0  0  0  0  0  0  0  0
  1  2  2  0  0  0  0
  2  3  1  0  0  0  0
  2 46  1  0  0  0  0
  3  4  1  0  0  0  0
  3 44  1  0  0  0  0
  3 45  1  0  0  0  0
  4  5  1  0  0  0  0
  4 34  1  0  0  0  0
  4 43  1  6  0  0  0
  5  6  1  0  0  0  0
  5 41  1  0  0  0  0
  5 42  1  0  0  0  0
  6  7  2  0  0  0  0
  6 12  1  0  0  0  0
  7  8  1  0  0  0  0
  7 40  1  0  0  0  0
  8  9  2  0  0  0  0
  8 39  1  0  0  0  0
  9 10  1  0  0  0  0
  9 11  1  0  0  0  0
 11 12  2  0  0  0  0
 11 38  1  0  0  0  0
 12 13  1  0  0  0  0
 13 14  1  0  0  0  0
 13 34  1  0  0  0  0
 13 37  1  6  0  0  0
 14 15  2  0  0  0  0
 14 16  1  0  0  0  0
 16 17  1  0  0  0  0
 16 33  1  0  0  0  0
 17 18  2  0  0  0  0
 17 26  1  0  0  0  0
 18 19  1  0  0  0  0
 18 32  1  0  0  0  0
 19 20  2  0  0  0  0
 20 21  1  0  0  0  0
 20 31  1  0  0  0  0
 21 22  2  0  0  0  0
 21 26  1  0  0  0  0
 22 23  1  0  0  0  0
 22 30  1  0  0  0  0
 23 24  2  0  0  0  0
 23 29  1  0  0  0  0
 24 25  1  0  0  0  0
 24 28  1  0  0  0  0
 25 26  2  0  0  0  0
 25 27  1  0  0  0  0
 34 35  1  0  0  0  0
 34 36  1  0  0  0  0
 46 47  1  0  0  0  0
 46 67  1  0  0  0  0
 47 48  1  0  0  0  0
 47 65  1  0  0  0  0
 47 66  1  0  0  0  0
 48 49  1  0  0  0  0
 48 63  1  0  0  0  0
 48 64  1  0  0  0  0
 49 50  2  0  0  0  0
 49 58  1  0  0  0  0
 50 51  1  0  0  0  0
 50 62  1  0  0  0  0
 51 52  2  0  0  0  0
 51 61  1  0  0  0  0
 52 53  1  0  0  0  0
 52 57  1  0  0  0  0
 53 54  1  0  0  0  0
 53 55  1  0  0  0  0
 53 56  1  0  0  0  0
 57 58  2  0  0  0  0
 57 60  1  0  0  0  0
 58 59  1  0  0  0  0
M  CHG  1   4   1
M  END
>  <MODEL>
       1

$$$$
