output/tmp_first_model_14_72.pdb
 OpenBabel07232601073D

 60 64  0  0  1  0  0  0  0  0999 V2000
    7.0410    1.1790   29.1300 C   0  0  0  0  0  0  0  0  0  0  0  0
    7.1610    0.1760   28.0910 N   0  0  0  0  0  0  0  0  0  0  0  0
    6.2580    0.1140   27.0820 C   0  0  0  0  0  0  0  0  0  0  0  0
    5.3030    0.8690   27.0050 O   0  0  0  0  0  0  0  0  0  0  0  0
    6.4960   -0.9900   26.0290 C   0  0  0  0  0  0  0  0  0  0  0  0
    7.4960   -0.6750   25.0110 N   0  0  0  0  0  0  0  0  0  0  0  0
    7.1330   -0.0780   23.7310 C   0  0  0  0  0  0  0  0  0  0  0  0
    8.0940   -0.4910   22.5700 C   0  0  2  0  0  0  0  0  0  0  0  0
    7.6850    0.3150   21.3320 C   0  0  0  0  0  0  0  0  0  0  0  0
    7.9590    1.4640   21.0490 O   0  0  0  0  0  0  0  0  0  0  0  0
    6.8490   -0.4880   20.5770 N   0  0  0  0  0  0  0  0  0  0  0  0
    6.0360    0.0500   19.5430 C   0  0  0  0  0  0  0  0  0  0  0  0
    6.2840   -0.2870   18.2380 C   0  0  0  0  0  0  0  0  0  0  0  0
    5.6070    0.2090   17.1720 N   0  0  0  0  0  0  0  0  0  0  0  0
    4.6330    1.0530   17.4150 C   0  0  0  0  0  0  0  0  0  0  0  0
    4.2250    1.4420   18.7210 C   0  0  0  0  0  0  0  0  0  0  0  0
    3.1270    2.3200   18.9290 C   0  0  0  0  0  0  0  0  0  0  0  0
    2.7280    2.6450   20.1970 C   0  0  0  0  0  0  0  0  0  0  0  0
    3.4000    2.0990   21.3140 C   0  0  0  0  0  0  0  0  0  0  0  0
    4.4670    1.2530   21.1340 C   0  0  0  0  0  0  0  0  0  0  0  0
    4.9260    0.9130   19.8290 C   0  0  0  0  0  0  0  0  0  0  0  0
    4.9580    0.8280   22.0010 H   0  0  0  0  0  0  0  0  0  0  0  0
    3.0680    2.3570   22.3180 H   0  0  0  0  0  0  0  0  0  0  0  0
    1.8920    3.3210   20.3550 H   0  0  0  0  0  0  0  0  0  0  0  0
    2.6130    2.7260   18.0590 H   0  0  0  0  0  0  0  0  0  0  0  0
    4.1080    1.4690   16.5540 H   0  0  0  0  0  0  0  0  0  0  0  0
    7.0860   -0.9870   18.0130 H   0  0  0  0  0  0  0  0  0  0  0  0
    6.6570   -1.8130   21.1450 C   0  0  0  0  0  0  0  0  0  0  0  0
    7.8670   -1.9590   22.0660 C   0  0  2  0  0  0  0  0  0  0  0  0
    7.7120   -2.9810   23.0840 N   0  0  0  0  0  0  0  0  0  0  0  0
    8.8160   -3.3630   23.8200 C   0  0  0  0  0  0  0  0  0  0  0  0
    9.9470   -3.1590   23.4280 O   0  0  0  0  0  0  0  0  0  0  0  0
    8.5350   -4.0550   25.1390 C   0  0  0  0  0  0  0  0  0  0  0  0
    9.1370   -3.5610   25.9050 H   0  0  0  0  0  0  0  0  0  0  0  0
    7.4840   -3.9600   25.4120 H   0  0  0  0  0  0  0  0  0  0  0  0
    8.7970   -5.1190   25.1220 H   0  0  0  0  0  0  0  0  0  0  0  0
    6.8410   -2.9380   23.5900 H   0  0  0  0  0  0  0  0  0  0  0  0
    8.7570   -2.2270   21.4830 H   0  0  0  0  0  0  0  0  0  0  0  0
    6.6130   -2.5730   20.3680 H   0  0  0  0  0  0  0  0  0  0  0  0
    5.7230   -1.8680   21.7310 H   0  0  0  0  0  0  0  0  0  0  0  0
    9.5030   -0.2550   23.0280 C   0  0  0  0  0  0  0  0  0  0  0  0
   10.5460   -0.0660   22.1120 C   0  0  0  0  0  0  0  0  0  0  0  0
   11.8220    0.1960   22.5790 C   0  0  0  0  0  0  0  0  0  0  0  0
   13.1780    0.3260   21.5100 Cl  0  0  0  0  0  0  0  0  0  0  0  0
   12.0800    0.3580   23.9380 C   0  0  0  0  0  0  0  0  0  0  0  0
   11.0680    0.0690   24.8250 C   0  0  0  0  0  0  0  0  0  0  0  0
    9.8060   -0.2960   24.3880 C   0  0  0  0  0  0  0  0  0  0  0  0
    8.7930   -0.7340   25.3900 C   0  0  0  0  0  0  0  0  0  0  0  0
    9.1030   -1.1090   26.5210 O   0  0  0  0  0  0  0  0  0  0  0  0
   11.2030    0.1140   25.8880 H   0  0  0  0  0  0  0  0  0  0  0  0
   13.0470    0.7290   24.2660 H   0  0  0  0  0  0  0  0  0  0  0  0
   10.3620   -0.0980   21.0430 H   0  0  0  0  0  0  0  0  0  0  0  0
    7.1660    1.0210   23.7840 H   0  0  0  0  0  0  0  0  0  0  0  0
    6.1050   -0.3730   23.4950 H   0  0  0  0  0  0  0  0  0  0  0  0
    5.5490   -1.1620   25.5190 H   0  0  0  0  0  0  0  0  0  0  0  0
    6.7880   -1.9200   26.5340 H   0  0  0  0  0  0  0  0  0  0  0  0
    7.9880   -0.3980   28.0240 H   0  0  0  0  0  0  0  0  0  0  0  0
    6.0570    1.1200   29.6060 H   0  0  0  0  0  0  0  0  0  0  0  0
    7.1490    2.1980   28.7410 H   0  0  0  0  0  0  0  0  0  0  0  0
    7.8170    1.0040   29.8810 H   0  0  0  0  0  0  0  0  0  0  0  0
  1  2  1  0  0  0  0
  1 58  1  0  0  0  0
  1 59  1  0  0  0  0
  1 60  1  0  0  0  0
  2  3  1  0  0  0  0
  2 57  1  0  0  0  0
  3  4  2  0  0  0  0
  3  5  1  0  0  0  0
  5  6  1  0  0  0  0
  5 55  1  0  0  0  0
  5 56  1  0  0  0  0
  6  7  1  0  0  0  0
  6 48  1  0  0  0  0
  7  8  1  0  0  0  0
  7 53  1  0  0  0  0
  7 54  1  0  0  0  0
  8  9  1  6  0  0  0
  8 29  1  0  0  0  0
  8 41  1  0  0  0  0
  9 10  2  0  0  0  0
  9 11  1  0  0  0  0
 11 12  1  0  0  0  0
 11 28  1  0  0  0  0
 12 13  2  0  0  0  0
 12 21  1  0  0  0  0
 13 14  1  0  0  0  0
 13 27  1  0  0  0  0
 14 15  2  0  0  0  0
 15 16  1  0  0  0  0
 15 26  1  0  0  0  0
 16 17  2  0  0  0  0
 16 21  1  0  0  0  0
 17 18  1  0  0  0  0
 17 25  1  0  0  0  0
 18 19  2  0  0  0  0
 18 24  1  0  0  0  0
 19 20  1  0  0  0  0
 19 23  1  0  0  0  0
 20 21  2  0  0  0  0
 20 22  1  0  0  0  0
 28 29  1  0  0  0  0
 28 39  1  0  0  0  0
 28 40  1  0  0  0  0
 29 30  1  0  0  0  0
 29 38  1  6  0  0  0
 30 31  1  0  0  0  0
 30 37  1  0  0  0  0
 31 32  2  0  0  0  0
 31 33  1  0  0  0  0
 33 34  1  0  0  0  0
 33 35  1  0  0  0  0
 33 36  1  0  0  0  0
 41 42  2  0  0  0  0
 41 47  1  0  0  0  0
 42 43  1  0  0  0  0
 42 52  1  0  0  0  0
 43 44  1  0  0  0  0
 43 45  2  0  0  0  0
 45 46  1  0  0  0  0
 45 51  1  0  0  0  0
 46 47  2  0  0  0  0
 46 50  1  0  0  0  0
 47 48  1  0  0  0  0
 48 49  2  0  0  0  0
M  END
>  <MODEL>
       1

$$$$
