output/tmp_first_model_11_51.pdb
 OpenBabel07222623443D

 67 73  0  0  1  0  0  0  0  0999 V2000
    7.6470   -8.7540   23.9010 C   0  0  0  0  0  0  0  0  0  0  0  0
    7.2800   -7.8590   22.7800 C   0  0  0  0  0  0  0  0  0  0  0  0
    7.9990   -7.5470   21.7630 N   0  0  0  0  0  0  0  0  0  0  0  0
    7.3600   -6.4910   21.1260 N   0  0  0  0  0  0  0  0  0  0  0  0
    6.3320   -6.2140   21.8530 C   0  0  0  0  0  0  0  0  0  0  0  0
    5.5700   -4.9380   21.9270 C   0  0  0  0  0  0  0  0  0  0  0  0
    6.2260   -4.0190   22.8570 N   0  0  0  0  0  0  0  0  0  0  0  0
    7.4510   -3.3290   22.4750 C   0  0  0  0  0  0  0  0  0  0  0  0
    7.3210   -1.8100   22.7710 C   0  0  2  0  0  0  0  0  0  0  0  0
    6.2750   -1.3010   21.7530 C   0  0  0  0  0  0  0  0  0  0  0  0
    5.1440   -1.7080   21.6350 O   0  0  0  0  0  0  0  0  0  0  0  0
    6.8650   -0.3790   20.9060 N   0  0  0  0  0  0  0  0  0  0  0  0
    6.1420    0.1290   19.8030 C   0  0  0  0  0  0  0  0  0  0  0  0
    6.4930   -0.1770   18.5100 C   0  0  0  0  0  0  0  0  0  0  0  0
    5.8080    0.2360   17.4170 N   0  0  0  0  0  0  0  0  0  0  0  0
    4.7540    0.9940   17.6040 C   0  0  0  0  0  0  0  0  0  0  0  0
    4.2910    1.3980   18.8880 C   0  0  0  0  0  0  0  0  0  0  0  0
    3.1510    2.2320   19.0440 C   0  0  0  0  0  0  0  0  0  0  0  0
    2.7510    2.6330   20.2910 C   0  0  0  0  0  0  0  0  0  0  0  0
    3.4590    2.2040   21.4350 C   0  0  0  0  0  0  0  0  0  0  0  0
    4.5540    1.3880   21.3090 C   0  0  0  0  0  0  0  0  0  0  0  0
    4.9980    0.9620   20.0240 C   0  0  0  0  0  0  0  0  0  0  0  0
    5.0880    1.0490   22.1880 H   0  0  0  0  0  0  0  0  0  0  0  0
    3.1380    2.5250   22.4220 H   0  0  0  0  0  0  0  0  0  0  0  0
    1.8940    3.2910   20.4080 H   0  0  0  0  0  0  0  0  0  0  0  0
    2.6250    2.5680   18.1560 H   0  0  0  0  0  0  0  0  0  0  0  0
    4.2150    1.3240   16.7170 H   0  0  0  0  0  0  0  0  0  0  0  0
    7.3470   -0.8230   18.3080 H   0  0  0  0  0  0  0  0  0  0  0  0
    8.3200   -0.4250   20.9750 C   0  0  0  0  0  0  0  0  0  0  0  0
    8.5900   -0.9810   22.3930 C   0  0  2  0  0  0  0  0  0  0  0  0
    9.9600   -1.6830   22.5090 C   0  0  0  0  0  0  0  0  0  0  0  0
   10.0970   -2.4280   23.7550 N   0  0  0  0  0  0  0  0  0  0  0  0
   11.2710   -2.9490   24.2160 C   0  0  0  0  0  0  0  0  0  0  0  0
   11.2610   -3.7620   25.3790 C   0  0  0  0  0  0  0  0  0  0  0  0
   12.4940   -4.1140   25.8880 C   0  0  0  0  0  0  0  0  0  0  0  0
   13.6560   -3.7320   25.3200 N   0  0  0  0  0  0  0  0  0  0  0  0
   13.5320   -3.0740   24.1690 C   0  0  0  0  0  0  0  0  0  0  0  0
   12.4040   -2.7000   23.5610 N   0  0  0  0  0  0  0  0  0  0  0  0
   14.4610   -2.8440   23.6500 H   0  0  0  0  0  0  0  0  0  0  0  0
   12.5600   -4.7040   26.8060 H   0  0  0  0  0  0  0  0  0  0  0  0
   10.3330   -3.9820   25.9020 H   0  0  0  0  0  0  0  0  0  0  0  0
    9.3360   -2.3870   24.4120 H   0  0  0  0  0  0  0  0  0  0  0  0
   10.7780   -0.9580   22.4640 H   0  0  0  0  0  0  0  0  0  0  0  0
   10.1160   -2.3620   21.6610 H   0  0  0  0  0  0  0  0  0  0  0  0
    8.6010   -0.1210   23.0670 H   0  0  0  0  0  0  0  0  0  0  0  0
    8.7330    0.5780   20.8310 H   0  0  0  0  0  0  0  0  0  0  0  0
    8.7490   -1.0720   20.1940 H   0  0  0  0  0  0  0  0  0  0  0  0
    6.8590   -1.6620   24.2220 C   0  0  0  0  0  0  0  0  0  0  0  0
    6.9440   -0.4430   24.9250 C   0  0  0  0  0  0  0  0  0  0  0  0
    6.5310   -0.3750   26.2500 C   0  0  0  0  0  0  0  0  0  0  0  0
    6.5080    1.1690   27.0620 Cl  0  0  0  0  0  0  0  0  0  0  0  0
    6.1080   -1.4980   26.9590 C   0  0  0  0  0  0  0  0  0  0  0  0
    6.0030   -2.6900   26.2670 C   0  0  0  0  0  0  0  0  0  0  0  0
    6.2950   -2.7560   24.9040 C   0  0  0  0  0  0  0  0  0  0  0  0
    5.8290   -3.9760   24.1650 C   0  0  0  0  0  0  0  0  0  0  0  0
    5.1010   -4.8150   24.6820 O   0  0  0  0  0  0  0  0  0  0  0  0
    5.6800   -3.5950   26.7700 H   0  0  0  0  0  0  0  0  0  0  0  0
    5.8230   -1.4090   28.0070 H   0  0  0  0  0  0  0  0  0  0  0  0
    7.3020    0.4690   24.4540 H   0  0  0  0  0  0  0  0  0  0  0  0
    7.5940   -3.4520   21.4060 H   0  0  0  0  0  0  0  0  0  0  0  0
    8.3270   -3.7510   22.9890 H   0  0  0  0  0  0  0  0  0  0  0  0
    4.5500   -5.1080   22.2800 H   0  0  0  0  0  0  0  0  0  0  0  0
    5.5490   -4.4770   20.9380 H   0  0  0  0  0  0  0  0  0  0  0  0
    6.1860   -7.0700   22.8930 O   0  0  0  0  0  0  0  0  0  0  0  0
    7.1200   -9.7030   23.8490 H   0  0  0  0  0  0  0  0  0  0  0  0
    8.7340   -8.8830   23.8850 H   0  0  0  0  0  0  0  0  0  0  0  0
    7.3460   -8.2490   24.8150 H   0  0  0  0  0  0  0  0  0  0  0  0
  1  2  1  0  0  0  0
  1 65  1  0  0  0  0
  1 66  1  0  0  0  0
  1 67  1  0  0  0  0
  2  3  2  0  0  0  0
  2 64  1  0  0  0  0
  3  4  1  0  0  0  0
  4  5  2  0  0  0  0
  5  6  1  0  0  0  0
  5 64  1  0  0  0  0
  6  7  1  0  0  0  0
  6 62  1  0  0  0  0
  6 63  1  0  0  0  0
  7  8  1  0  0  0  0
  7 55  1  0  0  0  0
  8  9  1  0  0  0  0
  8 60  1  0  0  0  0
  8 61  1  0  0  0  0
  9 10  1  6  0  0  0
  9 30  1  0  0  0  0
  9 48  1  0  0  0  0
 10 11  2  0  0  0  0
 10 12  1  0  0  0  0
 12 13  1  0  0  0  0
 12 29  1  0  0  0  0
 13 14  2  0  0  0  0
 13 22  1  0  0  0  0
 14 15  1  0  0  0  0
 14 28  1  0  0  0  0
 15 16  2  0  0  0  0
 16 17  1  0  0  0  0
 16 27  1  0  0  0  0
 17 18  2  0  0  0  0
 17 22  1  0  0  0  0
 18 19  1  0  0  0  0
 18 26  1  0  0  0  0
 19 20  2  0  0  0  0
 19 25  1  0  0  0  0
 20 21  1  0  0  0  0
 20 24  1  0  0  0  0
 21 22  2  0  0  0  0
 21 23  1  0  0  0  0
 29 30  1  0  0  0  0
 29 46  1  0  0  0  0
 29 47  1  0  0  0  0
 30 31  1  0  0  0  0
 30 45  1  1  0  0  0
 31 32  1  0  0  0  0
 31 43  1  0  0  0  0
 31 44  1  0  0  0  0
 32 33  1  0  0  0  0
 32 42  1  0  0  0  0
 33 34  2  0  0  0  0
 33 38  1  0  0  0  0
 34 35  1  0  0  0  0
 34 41  1  0  0  0  0
 35 36  2  0  0  0  0
 35 40  1  0  0  0  0
 36 37  1  0  0  0  0
 37 38  2  0  0  0  0
 37 39  1  0  0  0  0
 48 49  2  0  0  0  0
 48 54  1  0  0  0  0
 49 50  1  0  0  0  0
 49 59  1  0  0  0  0
 50 51  1  0  0  0  0
 50 52  2  0  0  0  0
 52 53  1  0  0  0  0
 52 58  1  0  0  0  0
 53 54  2  0  0  0  0
 53 57  1  0  0  0  0
 54 55  1  0  0  0  0
 55 56  2  0  0  0  0
M  END
>  <MODEL>
       1

$$$$
