output/tmp_first_model_11_84.pdb
 OpenBabel07222623443D

 60 65  0  0  1  0  0  0  0  0999 V2000
    6.3230    4.7280   22.7150 C   0  0  0  0  0  0  0  0  0  0  0  0
    7.0820    3.9370   23.6790 N   0  0  0  0  0  0  0  0  0  0  0  0
    6.5150    2.8710   24.2800 C   0  0  0  0  0  0  0  0  0  0  0  0
    5.3070    2.6560   24.2220 O   0  0  0  0  0  0  0  0  0  0  0  0
    7.4210    1.9810   25.1440 C   0  0  0  0  0  0  0  0  0  0  0  0
    8.4700    1.2020   24.4770 N   0  0  0  0  0  0  0  0  0  0  0  0
    8.1200   -0.1380   24.0380 C   0  0  0  0  0  0  0  0  0  0  0  0
    8.5510   -0.4080   22.5900 C   0  0  2  0  0  0  0  0  0  0  0  0
    7.7180    0.4560   21.6070 C   0  0  0  0  0  0  0  0  0  0  0  0
    7.6890    1.6760   21.5250 O   0  0  0  0  0  0  0  0  0  0  0  0
    6.9370   -0.3660   20.8450 N   0  0  0  0  0  0  0  0  0  0  0  0
    6.1410    0.1150   19.7710 C   0  0  0  0  0  0  0  0  0  0  0  0
    6.4380   -0.2190   18.4730 C   0  0  0  0  0  0  0  0  0  0  0  0
    5.7590    0.2280   17.3880 N   0  0  0  0  0  0  0  0  0  0  0  0
    4.7390    1.0230   17.5920 C   0  0  0  0  0  0  0  0  0  0  0  0
    4.2900    1.4160   18.8820 C   0  0  0  0  0  0  0  0  0  0  0  0
    3.1630    2.2640   19.0630 C   0  0  0  0  0  0  0  0  0  0  0  0
    2.7480    2.6140   20.3170 C   0  0  0  0  0  0  0  0  0  0  0  0
    3.4310    2.1210   21.4530 C   0  0  0  0  0  0  0  0  0  0  0  0
    4.5160    1.2980   21.3040 C   0  0  0  0  0  0  0  0  0  0  0  0
    4.9960    0.9410   20.0130 C   0  0  0  0  0  0  0  0  0  0  0  0
    5.0290    0.9140   22.1790 H   0  0  0  0  0  0  0  0  0  0  0  0
    3.1080    2.4020   22.4510 H   0  0  0  0  0  0  0  0  0  0  0  0
    1.8940    3.2760   20.4460 H   0  0  0  0  0  0  0  0  0  0  0  0
    2.6560    2.6440   18.1780 H   0  0  0  0  0  0  0  0  0  0  0  0
    4.2100    1.3900   16.7100 H   0  0  0  0  0  0  0  0  0  0  0  0
    7.2880   -0.8640   18.2510 H   0  0  0  0  0  0  0  0  0  0  0  0
    7.0610   -1.7700   21.1640 C   0  0  0  0  0  0  0  0  0  0  0  0
    8.2580   -1.8780   22.1130 C   0  0  2  0  0  0  0  0  0  0  0  0
    8.0680   -2.9230   23.2100 C   0  0  0  0  0  0  0  0  0  0  0  0
    7.1920   -2.7070   23.8290 H   0  0  0  0  0  0  0  0  0  0  0  0
    7.9240   -3.9090   22.7630 H   0  0  0  0  0  0  0  0  0  0  0  0
    8.9390   -2.9880   23.8720 H   0  0  0  0  0  0  0  0  0  0  0  0
    9.1100   -2.2080   21.5180 H   0  0  0  0  0  0  0  0  0  0  0  0
    6.1470   -2.1620   21.6250 H   0  0  0  0  0  0  0  0  0  0  0  0
    7.2300   -2.3160   20.2420 H   0  0  0  0  0  0  0  0  0  0  0  0
    9.9760   -0.0140   22.5300 C   0  0  0  0  0  0  0  0  0  0  0  0
   10.8230   -0.5830   21.4890 C   0  0  0  0  0  0  0  0  0  0  0  0
   12.1200   -0.3380   21.6650 C   0  0  0  0  0  0  0  0  0  0  0  0
   13.1450   -1.0150   20.3780 Cl  0  0  0  0  0  0  0  0  0  0  0  0
   11.8990    1.1680   22.9260 C   0  0  0  0  0  0  0  0  0  0  0  0
   12.1520    1.4050   23.1810 C   0  0  0  0  0  0  0  0  0  0  0  0
   10.5510    0.9560   23.3010 C   0  0  0  0  0  0  0  0  0  0  0  0
    9.6910    1.7640   24.1310 C   0  0  0  0  0  0  0  0  0  0  0  0
    9.9100    2.9250   24.4970 O   0  0  0  0  0  0  0  0  0  0  0  0
   12.3630    2.3410   23.7740 H   0  0  0  0  0  0  0  0  0  0  0  0
   12.9760    0.7000   23.5430 H   0  0  0  0  0  0  0  0  0  0  0  0
   10.4480   -1.0480   20.5580 H   0  0  0  0  0  0  0  0  0  0  0  0
    8.5470   -0.8890   24.7170 H   0  0  0  0  0  0  0  0  0  0  0  0
    7.0420   -0.2130   24.1060 H   0  0  0  0  0  0  0  0  0  0  0  0
    7.6020    2.4600   26.5630 C   0  0  0  0  0  0  0  0  0  0  0  0
    6.6870    1.3300   26.3170 C   0  0  0  0  0  0  0  0  0  0  0  0
    7.0240    0.3580   26.6640 H   0  0  0  0  0  0  0  0  0  0  0  0
    5.6340    1.5450   26.4610 H   0  0  0  0  0  0  0  0  0  0  0  0
    8.5440    2.2090   27.0000 H   0  0  0  0  0  0  0  0  0  0  0  0
    7.1810    3.4150   26.8780 H   0  0  0  0  0  0  0  0  0  0  0  0
    8.0670    4.1070   23.7940 H   0  0  0  0  0  0  0  0  0  0  0  0
    5.9370    4.0940   21.9040 H   0  0  0  0  0  0  0  0  0  0  0  0
    5.4750    5.2320   23.1900 H   0  0  0  0  0  0  0  0  0  0  0  0
    6.9850    5.4880   22.2910 H   0  0  0  0  0  0  0  0  0  0  0  0
  1  2  1  0  0  0  0
  1 58  1  0  0  0  0
  1 59  1  0  0  0  0
  1 60  1  0  0  0  0
  2  3  1  0  0  0  0
  2 57  1  0  0  0  0
  3  4  2  0  0  0  0
  3  5  1  0  0  0  0
  5  6  1  0  0  0  0
  5 51  1  0  0  0  0
  5 52  1  0  0  0  0
  6  7  1  0  0  0  0
  6 44  1  0  0  0  0
  7  8  1  0  0  0  0
  7 49  1  0  0  0  0
  7 50  1  0  0  0  0
  8  9  1  6  0  0  0
  8 29  1  0  0  0  0
  8 37  1  0  0  0  0
  9 10  2  0  0  0  0
  9 11  1  0  0  0  0
 11 12  1  0  0  0  0
 11 28  1  0  0  0  0
 12 13  2  0  0  0  0
 12 21  1  0  0  0  0
 13 14  1  0  0  0  0
 13 27  1  0  0  0  0
 14 15  2  0  0  0  0
 15 16  1  0  0  0  0
 15 26  1  0  0  0  0
 16 17  2  0  0  0  0
 16 21  1  0  0  0  0
 17 18  1  0  0  0  0
 17 25  1  0  0  0  0
 18 19  2  0  0  0  0
 18 24  1  0  0  0  0
 19 20  1  0  0  0  0
 19 23  1  0  0  0  0
 20 21  2  0  0  0  0
 20 22  1  0  0  0  0
 28 29  1  0  0  0  0
 28 35  1  0  0  0  0
 28 36  1  0  0  0  0
 29 30  1  0  0  0  0
 29 34  1  6  0  0  0
 30 31  1  0  0  0  0
 30 32  1  0  0  0  0
 30 33  1  0  0  0  0
 37 38  2  0  0  0  0
 37 43  1  0  0  0  0
 38 39  1  0  0  0  0
 38 48  1  0  0  0  0
 39 40  1  0  0  0  0
 39 41  2  0  0  0  0
 41 42  1  0  0  0  0
 41 47  1  0  0  0  0
 42 43  2  0  0  0  0
 42 46  1  0  0  0  0
 43 44  1  0  0  0  0
 44 45  2  0  0  0  0
 51 52  1  0  0  0  0
 51 55  1  0  0  0  0
 51 56  1  0  0  0  0
 52 53  1  0  0  0  0
 52 54  1  0  0  0  0
M  END
>  <MODEL>
       1

$$$$
