output/tmp_first_model_20_64.pdb
 OpenBabel07232603433D

 66 71  0  0  1  0  0  0  0  0999 V2000
    7.3030   -3.1080   23.4610 C   0  0  0  0  0  0  0  0  0  0  0  0
    7.5880   -2.2900   22.2090 C   0  0  1  0  0  0  0  0  0  0  0  0
    6.3260   -1.7040   21.5570 C   0  0  0  0  0  0  0  0  0  0  0  0
    6.8360   -0.5590   20.8310 N   0  0  0  0  0  0  0  0  0  0  0  0
    6.1300    0.0720   19.7760 C   0  0  0  0  0  0  0  0  0  0  0  0
    6.4770   -0.1940   18.4750 C   0  0  0  0  0  0  0  0  0  0  0  0
    5.8130    0.2870   17.3980 N   0  0  0  0  0  0  0  0  0  0  0  0
    4.7640    1.0420   17.6110 C   0  0  0  0  0  0  0  0  0  0  0  0
    4.3140    1.4210   18.9060 C   0  0  0  0  0  0  0  0  0  0  0  0
    3.2010    2.2860   19.0770 C   0  0  0  0  0  0  0  0  0  0  0  0
    2.8040    2.6590   20.3320 C   0  0  0  0  0  0  0  0  0  0  0  0
    3.4980    2.1880   21.4640 C   0  0  0  0  0  0  0  0  0  0  0  0
    4.5770    1.3420   21.3270 C   0  0  0  0  0  0  0  0  0  0  0  0
    5.0130    0.9320   20.0330 C   0  0  0  0  0  0  0  0  0  0  0  0
    5.0970    0.9940   22.2130 H   0  0  0  0  0  0  0  0  0  0  0  0
    3.1790    2.5030   22.4560 H   0  0  0  0  0  0  0  0  0  0  0  0
    1.9540    3.3240   20.4560 H   0  0  0  0  0  0  0  0  0  0  0  0
    2.6880    2.6470   18.1910 H   0  0  0  0  0  0  0  0  0  0  0  0
    4.2160    1.4050   16.7400 H   0  0  0  0  0  0  0  0  0  0  0  0
    7.3260   -0.8430   18.2660 H   0  0  0  0  0  0  0  0  0  0  0  0
    8.1090   -0.1900   21.2020 C   0  0  0  0  0  0  0  0  0  0  0  0
    8.7340    0.7190   20.6930 O   0  0  0  0  0  0  0  0  0  0  0  0
    8.5280   -1.0740   22.4060 C   0  0  1  0  0  0  0  0  0  0  0  0
    8.2000   -0.3340   23.7220 C   0  0  0  0  0  0  0  0  0  0  0  0
    9.0910    0.7850   23.9380 N   0  0  0  0  0  0  0  0  0  0  0  0
    8.5470    2.0960   24.2560 C   0  0  0  0  0  0  0  0  0  0  0  0
    7.9430    2.7930   23.0270 C   0  0  0  0  0  0  0  0  0  0  0  0
    7.2270    4.0670   23.3260 N   0  3  0  0  0  0  0  0  0  0  0  0
    6.8000    4.7790   22.0630 C   0  0  0  0  0  0  0  0  0  0  0  0
    6.1530    6.1420   22.3940 C   0  0  0  0  0  0  0  0  0  0  0  0
    5.8550    6.2480   23.7710 O   0  0  0  0  0  0  0  0  0  0  0  0
    5.1290    5.1180   24.2030 C   0  0  0  0  0  0  0  0  0  0  0  0
    6.0570    3.8950   24.2760 C   0  0  0  0  0  0  0  0  0  0  0  0
    6.4540    3.7930   25.2880 H   0  0  0  0  0  0  0  0  0  0  0  0
    5.5140    2.9810   24.0200 H   0  0  0  0  0  0  0  0  0  0  0  0
    4.7240    5.3550   25.1920 H   0  0  0  0  0  0  0  0  0  0  0  0
    4.2770    4.9220   23.5290 H   0  0  0  0  0  0  0  0  0  0  0  0
    6.8200    6.9760   22.1610 H   0  0  0  0  0  0  0  0  0  0  0  0
    5.2360    6.2710   21.7920 H   0  0  0  0  0  0  0  0  0  0  0  0
    6.0950    4.1360   21.5230 H   0  0  0  0  0  0  0  0  0  0  0  0
    7.6780    4.9160   21.4230 H   0  0  0  0  0  0  0  0  0  0  0  0
    7.8910    4.7110   23.7910 H   0  0  0  0  0  0  0  0  0  0  0  0
    8.7220    2.9930   22.2850 H   0  0  0  0  0  0  0  0  0  0  0  0
    7.2250    2.1270   22.5390 H   0  0  0  0  0  0  0  0  0  0  0  0
    7.7700    1.9520   25.0160 H   0  0  0  0  0  0  0  0  0  0  0  0
    9.3530    2.6830   24.7020 H   0  0  0  0  0  0  0  0  0  0  0  0
   10.4190    0.4750   24.1120 C   0  0  0  0  0  0  0  0  0  0  0  0
   11.1800    1.0770   24.8530 O   0  0  0  0  0  0  0  0  0  0  0  0
   10.9000   -0.6440   23.2180 C   0  0  0  0  0  0  0  0  0  0  0  0
   12.2860   -0.8060   23.0990 C   0  0  0  0  0  0  0  0  0  0  0  0
   12.8100   -1.7520   22.2380 C   0  0  0  0  0  0  0  0  0  0  0  0
   11.9170   -2.5510   21.5190 C   0  0  0  0  0  0  0  0  0  0  0  0
   12.5470   -3.6610   20.3320 Cl  0  0  0  0  0  0  0  0  0  0  0  0
   10.5450   -2.3940   21.6160 C   0  0  0  0  0  0  0  0  0  0  0  0
   10.0070   -1.3990   22.4430 C   0  0  0  0  0  0  0  0  0  0  0  0
    9.9060   -3.0160   20.9970 H   0  0  0  0  0  0  0  0  0  0  0  0
   13.8840   -1.8450   22.0860 H   0  0  0  0  0  0  0  0  0  0  0  0
   12.9230   -0.1200   23.6490 H   0  0  0  0  0  0  0  0  0  0  0  0
    7.1610    0.0080   23.7490 H   0  0  0  0  0  0  0  0  0  0  0  0
    8.3270   -1.0580   24.5380 H   0  0  0  0  0  0  0  0  0  0  0  0
    5.8380   -2.4090   20.8740 H   0  0  0  0  0  0  0  0  0  0  0  0
    5.5940   -1.4040   22.3230 H   0  0  0  0  0  0  0  0  0  0  0  0
    8.0540   -2.9380   21.4630 H   0  0  0  0  0  0  0  0  0  0  0  0
    6.7000   -3.9920   23.2320 H   0  0  0  0  0  0  0  0  0  0  0  0
    6.7430   -2.5090   24.1880 H   0  0  0  0  0  0  0  0  0  0  0  0
    8.2280   -3.4410   23.9460 H   0  0  0  0  0  0  0  0  0  0  0  0
  1  2  1  0  0  0  0
  1 64  1  0  0  0  0
  1 65  1  0  0  0  0
  1 66  1  0  0  0  0
  2  3  1  0  0  0  0
  2 23  1  0  0  0  0
  2 63  1  6  0  0  0
  3  4  1  0  0  0  0
  3 61  1  0  0  0  0
  3 62  1  0  0  0  0
  4  5  1  0  0  0  0
  4 21  1  0  0  0  0
  5  6  2  0  0  0  0
  5 14  1  0  0  0  0
  6  7  1  0  0  0  0
  6 20  1  0  0  0  0
  7  8  2  0  0  0  0
  8  9  1  0  0  0  0
  8 19  1  0  0  0  0
  9 10  2  0  0  0  0
  9 14  1  0  0  0  0
 10 11  1  0  0  0  0
 10 18  1  0  0  0  0
 11 12  2  0  0  0  0
 11 17  1  0  0  0  0
 12 13  1  0  0  0  0
 12 16  1  0  0  0  0
 13 14  2  0  0  0  0
 13 15  1  0  0  0  0
 21 22  2  0  0  0  0
 23 21  1  6  0  0  0
 23 24  1  0  0  0  0
 23 55  1  0  0  0  0
 24 25  1  0  0  0  0
 24 59  1  0  0  0  0
 24 60  1  0  0  0  0
 25 26  1  0  0  0  0
 25 47  1  0  0  0  0
 26 27  1  0  0  0  0
 26 45  1  0  0  0  0
 26 46  1  0  0  0  0
 27 28  1  0  0  0  0
 27 43  1  0  0  0  0
 27 44  1  0  0  0  0
 28 29  1  0  0  0  0
 28 33  1  0  0  0  0
 28 42  1  0  0  0  0
 29 30  1  0  0  0  0
 29 40  1  0  0  0  0
 29 41  1  0  0  0  0
 30 31  1  0  0  0  0
 30 38  1  0  0  0  0
 30 39  1  0  0  0  0
 31 32  1  0  0  0  0
 32 33  1  0  0  0  0
 32 36  1  0  0  0  0
 32 37  1  0  0  0  0
 33 34  1  0  0  0  0
 33 35  1  0  0  0  0
 47 48  2  0  0  0  0
 47 49  1  0  0  0  0
 49 50  2  0  0  0  0
 49 55  1  0  0  0  0
 50 51  1  0  0  0  0
 50 58  1  0  0  0  0
 51 52  2  0  0  0  0
 51 57  1  0  0  0  0
 52 53  1  0  0  0  0
 52 54  1  0  0  0  0
 54 55  2  0  0  0  0
 54 56  1  0  0  0  0
M  CHG  1  28   1
M  END
>  <MODEL>
       1

$$$$
