output/tmp_first_model_11_85.pdb
 OpenBabel07222623443D

 55 60  0  0  1  0  0  0  0  0999 V2000
    9.7490   -1.8830   21.9030 C   0  0  0  0  0  0  0  0  0  0  0  0
    8.6350   -0.9230   22.3620 C   0  0  1  0  0  0  0  0  0  0  0  0
    8.1860   -0.0200   21.1900 C   0  0  0  0  0  0  0  0  0  0  0  0
    6.8630   -0.4900   20.8360 N   0  0  0  0  0  0  0  0  0  0  0  0
    6.1010    0.0540   19.7760 C   0  0  0  0  0  0  0  0  0  0  0  0
    6.4450   -0.2250   18.4780 C   0  0  0  0  0  0  0  0  0  0  0  0
    5.7830    0.2410   17.3950 N   0  0  0  0  0  0  0  0  0  0  0  0
    4.7510    1.0190   17.6080 C   0  0  0  0  0  0  0  0  0  0  0  0
    4.2900    1.4000   18.9010 C   0  0  0  0  0  0  0  0  0  0  0  0
    3.1720    2.2590   19.0680 C   0  0  0  0  0  0  0  0  0  0  0  0
    2.7750    2.6460   20.3160 C   0  0  0  0  0  0  0  0  0  0  0  0
    3.4820    2.1920   21.4540 C   0  0  0  0  0  0  0  0  0  0  0  0
    4.5630    1.3560   21.3240 C   0  0  0  0  0  0  0  0  0  0  0  0
    4.9880    0.9210   20.0310 C   0  0  0  0  0  0  0  0  0  0  0  0
    5.0950    1.0150   22.2120 H   0  0  0  0  0  0  0  0  0  0  0  0
    3.1580    2.5070   22.4410 H   0  0  0  0  0  0  0  0  0  0  0  0
    1.9270    3.3140   20.4360 H   0  0  0  0  0  0  0  0  0  0  0  0
    2.6670    2.6200   18.1750 H   0  0  0  0  0  0  0  0  0  0  0  0
    4.2230    1.3800   16.7270 H   0  0  0  0  0  0  0  0  0  0  0  0
    7.2960   -0.8710   18.2680 H   0  0  0  0  0  0  0  0  0  0  0  0
    6.3190   -1.3940   21.7160 C   0  0  0  0  0  0  0  0  0  0  0  0
    5.2300   -1.9140   21.5830 O   0  0  0  0  0  0  0  0  0  0  0  0
    7.3220   -1.5940   22.8790 C   0  0  1  0  0  0  0  0  0  0  0  0
    7.4700   -3.0940   23.1620 C   0  0  0  0  0  0  0  0  0  0  0  0
    6.2220   -3.6090   23.6700 N   0  0  0  0  0  0  0  0  0  0  0  0
    5.7800   -4.8900   23.1880 C   0  0  0  0  0  0  0  0  0  0  0  0
    6.5190   -6.0220   23.8160 C   0  0  0  0  0  0  0  0  0  0  0  0
    6.1610   -6.7800   24.8700 C   0  0  0  0  0  0  0  0  0  0  0  0
    7.1070   -7.7330   25.0420 O   0  0  0  0  0  0  0  0  0  0  0  0
    8.0210   -7.4760   24.0980 C   0  0  0  0  0  0  0  0  0  0  0  0
    7.7440   -6.4770   23.3330 N   0  0  0  0  0  0  0  0  0  0  0  0
    8.8930   -8.1080   24.1150 H   0  0  0  0  0  0  0  0  0  0  0  0
    5.3590   -6.7630   25.5860 H   0  0  0  0  0  0  0  0  0  0  0  0
    4.7160   -4.9740   23.4230 H   0  0  0  0  0  0  0  0  0  0  0  0
    5.9400   -4.9030   22.1000 H   0  0  0  0  0  0  0  0  0  0  0  0
    5.6590   -3.1100   24.8060 C   0  0  0  0  0  0  0  0  0  0  0  0
    4.9150   -3.7760   25.5190 O   0  0  0  0  0  0  0  0  0  0  0  0
    5.9900   -1.6800   25.0650 C   0  0  0  0  0  0  0  0  0  0  0  0
    5.4490   -1.0810   26.2010 C   0  0  0  0  0  0  0  0  0  0  0  0
    5.6310    0.2690   26.4200 C   0  0  0  0  0  0  0  0  0  0  0  0
    6.3510    1.0000   25.4840 C   0  0  0  0  0  0  0  0  0  0  0  0
    6.5130    2.3180   25.6910 F   0  0  0  0  0  0  0  0  0  0  0  0
    6.9040    0.4280   24.3570 C   0  0  0  0  0  0  0  0  0  0  0  0
    6.7550   -0.9470   24.1450 C   0  0  0  0  0  0  0  0  0  0  0  0
    7.4330    1.0730   23.6640 H   0  0  0  0  0  0  0  0  0  0  0  0
    5.2160    0.7750   27.2800 H   0  0  0  0  0  0  0  0  0  0  0  0
    4.8700   -1.7160   26.8660 H   0  0  0  0  0  0  0  0  0  0  0  0
    8.2910   -3.2570   23.8810 H   0  0  0  0  0  0  0  0  0  0  0  0
    7.6850   -3.6390   22.2400 H   0  0  0  0  0  0  0  0  0  0  0  0
    8.8650   -0.1240   20.3410 H   0  0  0  0  0  0  0  0  0  0  0  0
    8.1610    1.0450   21.4630 H   0  0  0  0  0  0  0  0  0  0  0  0
    9.0560   -0.3230   23.1780 H   0  0  0  0  0  0  0  0  0  0  0  0
   10.1040   -2.5150   22.7210 H   0  0  0  0  0  0  0  0  0  0  0  0
    9.4170   -2.5360   21.0870 H   0  0  0  0  0  0  0  0  0  0  0  0
   10.6080   -1.3080   21.5390 H   0  0  0  0  0  0  0  0  0  0  0  0
  1  2  1  0  0  0  0
  1 53  1  0  0  0  0
  1 54  1  0  0  0  0
  1 55  1  0  0  0  0
  2  3  1  0  0  0  0
  2 23  1  0  0  0  0
  2 52  1  1  0  0  0
  3  4  1  0  0  0  0
  3 50  1  0  0  0  0
  3 51  1  0  0  0  0
  4  5  1  0  0  0  0
  4 21  1  0  0  0  0
  5  6  2  0  0  0  0
  5 14  1  0  0  0  0
  6  7  1  0  0  0  0
  6 20  1  0  0  0  0
  7  8  2  0  0  0  0
  8  9  1  0  0  0  0
  8 19  1  0  0  0  0
  9 10  2  0  0  0  0
  9 14  1  0  0  0  0
 10 11  1  0  0  0  0
 10 18  1  0  0  0  0
 11 12  2  0  0  0  0
 11 17  1  0  0  0  0
 12 13  1  0  0  0  0
 12 16  1  0  0  0  0
 13 14  2  0  0  0  0
 13 15  1  0  0  0  0
 21 22  2  0  0  0  0
 23 21  1  6  0  0  0
 23 24  1  0  0  0  0
 23 44  1  0  0  0  0
 24 25  1  0  0  0  0
 24 48  1  0  0  0  0
 24 49  1  0  0  0  0
 25 26  1  0  0  0  0
 25 36  1  0  0  0  0
 26 27  1  0  0  0  0
 26 34  1  0  0  0  0
 26 35  1  0  0  0  0
 27 28  2  0  0  0  0
 27 31  1  0  0  0  0
 28 29  1  0  0  0  0
 28 33  1  0  0  0  0
 29 30  1  0  0  0  0
 30 31  2  0  0  0  0
 30 32  1  0  0  0  0
 36 37  2  0  0  0  0
 36 38  1  0  0  0  0
 38 39  2  0  0  0  0
 38 44  1  0  0  0  0
 39 40  1  0  0  0  0
 39 47  1  0  0  0  0
 40 41  2  0  0  0  0
 40 46  1  0  0  0  0
 41 42  1  0  0  0  0
 41 43  1  0  0  0  0
 43 44  2  0  0  0  0
 43 45  1  0  0  0  0
M  END
>  <MODEL>
       1

$$$$
