output/tmp_first_model_9_17.pdb
 OpenBabel07222623023D

 58 63  0  0  1  0  0  0  0  0999 V2000
    9.9130   -1.3060   22.0090 C   0  0  0  0  0  0  0  0  0  0  0  0
    8.6210   -0.6020   22.4470 C   0  0  1  0  0  0  0  0  0  0  0  0
    8.0840    0.2990   21.3150 C   0  0  0  0  0  0  0  0  0  0  0  0
    6.9470   -0.4270   20.7950 N   0  0  0  0  0  0  0  0  0  0  0  0
    6.1370    0.0840   19.7530 C   0  0  0  0  0  0  0  0  0  0  0  0
    6.4630   -0.2150   18.4570 C   0  0  0  0  0  0  0  0  0  0  0  0
    5.7890    0.2350   17.3700 N   0  0  0  0  0  0  0  0  0  0  0  0
    4.7590    1.0150   17.5940 C   0  0  0  0  0  0  0  0  0  0  0  0
    4.3130    1.3990   18.8920 C   0  0  0  0  0  0  0  0  0  0  0  0
    3.1980    2.2590   19.0580 C   0  0  0  0  0  0  0  0  0  0  0  0
    2.7920    2.6260   20.3100 C   0  0  0  0  0  0  0  0  0  0  0  0
    3.4790    2.1520   21.4490 C   0  0  0  0  0  0  0  0  0  0  0  0
    4.5600    1.3120   21.3230 C   0  0  0  0  0  0  0  0  0  0  0  0
    5.0080    0.9210   20.0210 C   0  0  0  0  0  0  0  0  0  0  0  0
    5.0680    0.9510   22.2180 H   0  0  0  0  0  0  0  0  0  0  0  0
    3.1440    2.4610   22.4350 H   0  0  0  0  0  0  0  0  0  0  0  0
    1.9440    3.2930   20.4340 H   0  0  0  0  0  0  0  0  0  0  0  0
    2.6930    2.6240   18.1680 H   0  0  0  0  0  0  0  0  0  0  0  0
    4.2180    1.3930   16.7260 H   0  0  0  0  0  0  0  0  0  0  0  0
    7.3120   -0.8690   18.2650 H   0  0  0  0  0  0  0  0  0  0  0  0
    6.5000   -1.4500   21.5960 C   0  0  0  0  0  0  0  0  0  0  0  0
    5.5330   -2.1380   21.3470 O   0  0  0  0  0  0  0  0  0  0  0  0
    7.4300   -1.5440   22.8260 C   0  0  1  0  0  0  0  0  0  0  0  0
    7.8520   -3.0130   23.0210 C   0  0  0  0  0  0  0  0  0  0  0  0
    6.7300   -3.8140   23.4600 N   0  0  0  0  0  0  0  0  0  0  0  0
    6.5340   -5.1280   22.9260 C   0  0  0  0  0  0  0  0  0  0  0  0
    7.2900   -6.1520   23.7070 C   0  0  0  0  0  0  0  0  0  0  0  0
    8.4840   -6.0120   24.2180 N   0  0  0  0  0  0  0  0  0  0  0  0
    8.9480   -7.2810   24.4900 N   0  0  0  0  0  0  0  0  0  0  0  0
    7.9880   -8.1160   24.1960 C   0  0  0  0  0  0  0  0  0  0  0  0
    6.8700   -7.4470   23.7750 N   0  0  0  0  0  0  0  0  0  0  0  0
    5.4560   -7.7900   23.8640 C   0  0  0  0  0  0  0  0  0  0  0  0
    5.0070   -7.7590   22.8710 H   0  0  0  0  0  0  0  0  0  0  0  0
    5.3490   -8.7730   24.3210 H   0  0  0  0  0  0  0  0  0  0  0  0
    4.9400   -7.0450   24.4870 H   0  0  0  0  0  0  0  0  0  0  0  0
    8.0880   -9.1870   24.1880 H   0  0  0  0  0  0  0  0  0  0  0  0
    6.8630   -5.1400   21.8810 H   0  0  0  0  0  0  0  0  0  0  0  0
    5.4630   -5.3380   22.8910 H   0  0  0  0  0  0  0  0  0  0  0  0
    5.9810   -3.4770   24.5440 C   0  0  0  0  0  0  0  0  0  0  0  0
    5.2830   -4.2950   25.1370 O   0  0  0  0  0  0  0  0  0  0  0  0
    6.0340   -2.0390   24.9120 C   0  0  0  0  0  0  0  0  0  0  0  0
    5.3550   -1.6560   26.0630 C   0  0  0  0  0  0  0  0  0  0  0  0
    5.2640   -0.3330   26.4220 C   0  0  0  0  0  0  0  0  0  0  0  0
    5.8740    0.5940   25.5860 C   0  0  0  0  0  0  0  0  0  0  0  0
    5.7770    1.8920   25.9150 F   0  0  0  0  0  0  0  0  0  0  0  0
    6.5720    0.2390   24.4440 C   0  0  0  0  0  0  0  0  0  0  0  0
    6.6840   -1.1080   24.0890 C   0  0  0  0  0  0  0  0  0  0  0  0
    7.0340    1.0260   23.8570 H   0  0  0  0  0  0  0  0  0  0  0  0
    4.7270   -0.0140   27.3090 H   0  0  0  0  0  0  0  0  0  0  0  0
    4.8990   -2.4420   26.6530 H   0  0  0  0  0  0  0  0  0  0  0  0
    8.6740   -3.0790   23.7480 H   0  0  0  0  0  0  0  0  0  0  0  0
    8.2130   -3.4320   22.0830 H   0  0  0  0  0  0  0  0  0  0  0  0
    7.7950    1.2950   21.6810 H   0  0  0  0  0  0  0  0  0  0  0  0
    8.8190    0.4640   20.5220 H   0  0  0  0  0  0  0  0  0  0  0  0
    8.8850   -0.0030   23.3250 H   0  0  0  0  0  0  0  0  0  0  0  0
   10.3220   -1.9270   22.8110 H   0  0  0  0  0  0  0  0  0  0  0  0
   10.6760   -0.5630   21.7540 H   0  0  0  0  0  0  0  0  0  0  0  0
    9.7570   -1.9380   21.1270 H   0  0  0  0  0  0  0  0  0  0  0  0
  1  2  1  0  0  0  0
  1 56  1  0  0  0  0
  1 57  1  0  0  0  0
  1 58  1  0  0  0  0
  2  3  1  0  0  0  0
  2 23  1  0  0  0  0
  2 55  1  1  0  0  0
  3  4  1  0  0  0  0
  3 53  1  0  0  0  0
  3 54  1  0  0  0  0
  4  5  1  0  0  0  0
  4 21  1  0  0  0  0
  5  6  2  0  0  0  0
  5 14  1  0  0  0  0
  6  7  1  0  0  0  0
  6 20  1  0  0  0  0
  7  8  2  0  0  0  0
  8  9  1  0  0  0  0
  8 19  1  0  0  0  0
  9 10  2  0  0  0  0
  9 14  1  0  0  0  0
 10 11  1  0  0  0  0
 10 18  1  0  0  0  0
 11 12  2  0  0  0  0
 11 17  1  0  0  0  0
 12 13  1  0  0  0  0
 12 16  1  0  0  0  0
 13 14  2  0  0  0  0
 13 15  1  0  0  0  0
 21 22  2  0  0  0  0
 23 21  1  6  0  0  0
 23 24  1  0  0  0  0
 23 47  1  0  0  0  0
 24 25  1  0  0  0  0
 24 51  1  0  0  0  0
 24 52  1  0  0  0  0
 25 26  1  0  0  0  0
 25 39  1  0  0  0  0
 26 27  1  0  0  0  0
 26 37  1  0  0  0  0
 26 38  1  0  0  0  0
 27 28  2  0  0  0  0
 27 31  1  0  0  0  0
 28 29  1  0  0  0  0
 29 30  2  0  0  0  0
 30 31  1  0  0  0  0
 30 36  1  0  0  0  0
 31 32  1  0  0  0  0
 32 33  1  0  0  0  0
 32 34  1  0  0  0  0
 32 35  1  0  0  0  0
 39 40  2  0  0  0  0
 39 41  1  0  0  0  0
 41 42  2  0  0  0  0
 41 47  1  0  0  0  0
 42 43  1  0  0  0  0
 42 50  1  0  0  0  0
 43 44  2  0  0  0  0
 43 49  1  0  0  0  0
 44 45  1  0  0  0  0
 44 46  1  0  0  0  0
 46 47  2  0  0  0  0
 46 48  1  0  0  0  0
M  END
>  <MODEL>
       1

$$$$
