output/tmp_first_model_2_87.pdb
 OpenBabel07222619223D

 63 68  0  0  1  0  0  0  0  0999 V2000
    7.7090   -8.4070   22.8550 C   0  0  0  0  0  0  0  0  0  0  0  0
    6.8870   -7.2390   22.6510 N   0  0  0  0  0  0  0  0  0  0  0  0
    7.1430   -6.3470   21.6660 C   0  0  0  0  0  0  0  0  0  0  0  0
    8.0570   -6.4630   20.8700 O   0  0  0  0  0  0  0  0  0  0  0  0
    6.1860   -5.1540   21.6670 C   0  0  0  0  0  0  0  0  0  0  0  0
    6.5920   -4.1780   22.6540 N   0  0  0  0  0  0  0  0  0  0  0  0
    7.7350   -3.3290   22.4080 C   0  0  0  0  0  0  0  0  0  0  0  0
    7.3780   -1.8530   22.7190 C   0  0  2  0  0  0  0  0  0  0  0  0
    6.3540   -1.3970   21.6600 C   0  0  0  0  0  0  0  0  0  0  0  0
    5.2340   -1.8370   21.4910 O   0  0  0  0  0  0  0  0  0  0  0  0
    6.9460   -0.4390   20.8570 N   0  0  0  0  0  0  0  0  0  0  0  0
    6.2080    0.1260   19.7930 C   0  0  0  0  0  0  0  0  0  0  0  0
    6.5340   -0.1810   18.4950 C   0  0  0  0  0  0  0  0  0  0  0  0
    5.8480    0.2500   17.4110 N   0  0  0  0  0  0  0  0  0  0  0  0
    4.8060    1.0140   17.6180 C   0  0  0  0  0  0  0  0  0  0  0  0
    4.3610    1.4190   18.9060 C   0  0  0  0  0  0  0  0  0  0  0  0
    3.2310    2.2650   19.0540 C   0  0  0  0  0  0  0  0  0  0  0  0
    2.8140    2.6560   20.2960 C   0  0  0  0  0  0  0  0  0  0  0  0
    3.5090    2.2110   21.4410 C   0  0  0  0  0  0  0  0  0  0  0  0
    4.6060    1.3900   21.3230 C   0  0  0  0  0  0  0  0  0  0  0  0
    5.0690    0.9680   20.0400 C   0  0  0  0  0  0  0  0  0  0  0  0
    5.1170    1.0450   22.2150 H   0  0  0  0  0  0  0  0  0  0  0  0
    3.1660    2.5210   22.4240 H   0  0  0  0  0  0  0  0  0  0  0  0
    1.9530    3.3110   20.4060 H   0  0  0  0  0  0  0  0  0  0  0  0
    2.7170    2.5920   18.1550 H   0  0  0  0  0  0  0  0  0  0  0  0
    4.2520    1.3500   16.7400 H   0  0  0  0  0  0  0  0  0  0  0  0
    7.3750   -0.8410   18.2890 H   0  0  0  0  0  0  0  0  0  0  0  0
    8.4010   -0.4060   21.0100 C   0  0  0  0  0  0  0  0  0  0  0  0
    8.5570   -0.8920   22.4600 C   0  0  2  0  0  0  0  0  0  0  0  0
    9.9170   -1.4760   22.8610 C   0  0  0  0  0  0  0  0  0  0  0  0
   10.9570   -0.4750   22.9190 N   0  0  0  0  0  0  0  0  0  0  0  0
   11.2240    0.3370   23.9660 C   0  0  0  0  0  0  0  0  0  0  0  0
   12.1260    1.2750   23.5140 C   0  0  0  0  0  0  0  0  0  0  0  0
   12.3590    0.9150   22.1710 C   0  0  0  0  0  0  0  0  0  0  0  0
   11.6320   -0.1370   21.8210 N   0  0  0  0  0  0  0  0  0  0  0  0
   13.0350    1.3600   21.4550 H   0  0  0  0  0  0  0  0  0  0  0  0
   12.5700    2.0980   24.0470 H   0  0  0  0  0  0  0  0  0  0  0  0
   10.7810    0.1160   24.9310 H   0  0  0  0  0  0  0  0  0  0  0  0
    9.8330   -1.9030   23.8690 H   0  0  0  0  0  0  0  0  0  0  0  0
   10.2360   -2.2540   22.1580 H   0  0  0  0  0  0  0  0  0  0  0  0
    8.3770   -0.0140   23.0820 H   0  0  0  0  0  0  0  0  0  0  0  0
    8.7850    0.6070   20.8700 H   0  0  0  0  0  0  0  0  0  0  0  0
    8.9180   -1.0660   20.2940 H   0  0  0  0  0  0  0  0  0  0  0  0
    6.8400   -1.7990   24.1380 C   0  0  0  0  0  0  0  0  0  0  0  0
    6.8670   -0.6240   24.9050 C   0  0  0  0  0  0  0  0  0  0  0  0
    6.4070   -0.6410   26.2080 C   0  0  0  0  0  0  0  0  0  0  0  0
    6.3430    0.8530   27.1020 Cl  0  0  0  0  0  0  0  0  0  0  0  0
    5.9760   -1.8160   26.8210 C   0  0  0  0  0  0  0  0  0  0  0  0
    5.8900   -2.9610   26.0520 C   0  0  0  0  0  0  0  0  0  0  0  0
    6.2530   -2.9370   24.7050 C   0  0  0  0  0  0  0  0  0  0  0  0
    5.9250   -4.1170   23.8410 C   0  0  0  0  0  0  0  0  0  0  0  0
    5.0890   -4.9560   24.1610 O   0  0  0  0  0  0  0  0  0  0  0  0
    5.5200   -3.8880   26.4760 H   0  0  0  0  0  0  0  0  0  0  0  0
    5.6990   -1.8110   27.8710 H   0  0  0  0  0  0  0  0  0  0  0  0
    7.2320    0.3110   24.4990 H   0  0  0  0  0  0  0  0  0  0  0  0
    8.0230   -3.4280   21.3630 H   0  0  0  0  0  0  0  0  0  0  0  0
    8.5870   -3.6650   23.0160 H   0  0  0  0  0  0  0  0  0  0  0  0
    6.1660   -4.6830   20.6820 H   0  0  0  0  0  0  0  0  0  0  0  0
    5.1730   -5.4680   21.9290 H   0  0  0  0  0  0  0  0  0  0  0  0
    6.2310   -6.9650   23.3680 H   0  0  0  0  0  0  0  0  0  0  0  0
    8.1970   -8.6200   21.9160 H   0  0  0  0  0  0  0  0  0  0  0  0
    7.0940   -9.2750   23.1170 H   0  0  0  0  0  0  0  0  0  0  0  0
    8.4830   -8.2330   23.6140 H   0  0  0  0  0  0  0  0  0  0  0  0
  1  2  1  0  0  0  0
  1 61  1  0  0  0  0
  1 62  1  0  0  0  0
  1 63  1  0  0  0  0
  2  3  1  0  0  0  0
  2 60  1  0  0  0  0
  3  4  2  0  0  0  0
  3  5  1  0  0  0  0
  5  6  1  0  0  0  0
  5 58  1  0  0  0  0
  5 59  1  0  0  0  0
  6  7  1  0  0  0  0
  6 51  1  0  0  0  0
  7  8  1  0  0  0  0
  7 56  1  0  0  0  0
  7 57  1  0  0  0  0
  8  9  1  6  0  0  0
  8 29  1  0  0  0  0
  8 44  1  0  0  0  0
  9 10  2  0  0  0  0
  9 11  1  0  0  0  0
 11 12  1  0  0  0  0
 11 28  1  0  0  0  0
 12 13  2  0  0  0  0
 12 21  1  0  0  0  0
 13 14  1  0  0  0  0
 13 27  1  0  0  0  0
 14 15  2  0  0  0  0
 15 16  1  0  0  0  0
 15 26  1  0  0  0  0
 16 17  2  0  0  0  0
 16 21  1  0  0  0  0
 17 18  1  0  0  0  0
 17 25  1  0  0  0  0
 18 19  2  0  0  0  0
 18 24  1  0  0  0  0
 19 20  1  0  0  0  0
 19 23  1  0  0  0  0
 20 21  2  0  0  0  0
 20 22  1  0  0  0  0
 28 29  1  0  0  0  0
 28 42  1  0  0  0  0
 28 43  1  0  0  0  0
 29 30  1  0  0  0  0
 29 41  1  1  0  0  0
 30 31  1  0  0  0  0
 30 39  1  0  0  0  0
 30 40  1  0  0  0  0
 31 32  1  0  0  0  0
 31 35  1  0  0  0  0
 32 33  2  0  0  0  0
 32 38  1  0  0  0  0
 33 34  1  0  0  0  0
 33 37  1  0  0  0  0
 34 35  2  0  0  0  0
 34 36  1  0  0  0  0
 44 45  2  0  0  0  0
 44 50  1  0  0  0  0
 45 46  1  0  0  0  0
 45 55  1  0  0  0  0
 46 47  1  0  0  0  0
 46 48  2  0  0  0  0
 48 49  1  0  0  0  0
 48 54  1  0  0  0  0
 49 50  2  0  0  0  0
 49 53  1  0  0  0  0
 50 51  1  0  0  0  0
 51 52  2  0  0  0  0
M  END
>  <MODEL>
       1

$$$$
