output/tmp_first_model_19_28.pdb
 OpenBabel07232603163D

 70 75  0  0  1  0  0  0  0  0999 V2000
    9.4300    4.7310   22.4010 C   0  0  0  0  0  0  0  0  0  0  0  0
    8.5380    3.6120   22.0190 N   0  3  0  0  0  0  0  0  0  0  0  0
    7.5510    3.2590   23.0700 C   0  0  0  0  0  0  0  0  0  0  0  0
    8.2000    2.5880   24.2880 C   0  0  0  0  0  0  0  0  0  0  0  0
    8.9840    1.4180   23.9300 N   0  0  0  0  0  0  0  0  0  0  0  0
    8.3050    0.1550   23.7300 C   0  0  0  0  0  0  0  0  0  0  0  0
    8.7060   -0.5100   22.3910 C   0  0  2  0  0  0  0  0  0  0  0  0
    8.1760    0.3050   21.1820 C   0  0  0  0  0  0  0  0  0  0  0  0
    8.6570    1.3420   20.7480 O   0  0  0  0  0  0  0  0  0  0  0  0
    7.0570   -0.3070   20.6880 N   0  0  0  0  0  0  0  0  0  0  0  0
    6.2530    0.2370   19.6440 C   0  0  0  0  0  0  0  0  0  0  0  0
    6.5620   -0.0460   18.3380 C   0  0  0  0  0  0  0  0  0  0  0  0
    5.8160    0.3330   17.2700 N   0  0  0  0  0  0  0  0  0  0  0  0
    4.7340    1.0340   17.5080 C   0  0  0  0  0  0  0  0  0  0  0  0
    4.3040    1.4180   18.8090 C   0  0  0  0  0  0  0  0  0  0  0  0
    3.1380    2.2050   19.0060 C   0  0  0  0  0  0  0  0  0  0  0  0
    2.7460    2.5640   20.2650 C   0  0  0  0  0  0  0  0  0  0  0  0
    3.4920    2.1400   21.3850 C   0  0  0  0  0  0  0  0  0  0  0  0
    4.6220    1.3720   21.2210 C   0  0  0  0  0  0  0  0  0  0  0  0
    5.0710    1.0010   19.9220 C   0  0  0  0  0  0  0  0  0  0  0  0
    5.1820    1.0570   22.0970 H   0  0  0  0  0  0  0  0  0  0  0  0
    3.1740    2.4290   22.3810 H   0  0  0  0  0  0  0  0  0  0  0  0
    1.8650    3.1850   20.4100 H   0  0  0  0  0  0  0  0  0  0  0  0
    2.5830    2.5320   18.1310 H   0  0  0  0  0  0  0  0  0  0  0  0
    4.1320    1.3340   16.6480 H   0  0  0  0  0  0  0  0  0  0  0  0
    7.4560   -0.6230   18.1100 H   0  0  0  0  0  0  0  0  0  0  0  0
    6.6650   -1.4770   21.4490 C   0  0  0  0  0  0  0  0  0  0  0  0
    7.9600   -1.8650   22.1890 C   0  0  2  0  0  0  0  0  0  0  0  0
    7.6830   -2.7210   23.4240 C   0  0  0  0  0  0  0  0  0  0  0  0
    8.8990   -3.0670   24.0670 O   0  0  0  0  0  0  0  0  0  0  0  0
    8.8060   -3.3890   25.4400 C   0  0  0  0  0  0  0  0  0  0  0  0
    9.5840   -4.6570   25.7470 C   0  0  0  0  0  0  0  0  0  0  0  0
    9.1600   -5.7030   24.9590 F   0  0  0  0  0  0  0  0  0  0  0  0
   11.0970   -4.4730   25.8150 C   0  0  0  0  0  0  0  0  0  0  0  0
   11.0370   -4.3300   27.2430 O   0  0  0  0  0  0  0  0  0  0  0  0
    9.7290   -4.9300   27.2480 C   0  0  0  0  0  0  0  0  0  0  0  0
   11.6100   -5.3890   25.5070 H   0  0  0  0  0  0  0  0  0  0  0  0
    9.7590   -6.0060   27.4540 H   0  0  0  0  0  0  0  0  0  0  0  0
   11.5380   -3.6020   25.3270 H   0  0  0  0  0  0  0  0  0  0  0  0
    9.0450   -4.4420   27.9480 H   0  0  0  0  0  0  0  0  0  0  0  0
    9.2610   -2.5810   26.0320 H   0  0  0  0  0  0  0  0  0  0  0  0
    7.7620   -3.4980   25.7820 H   0  0  0  0  0  0  0  0  0  0  0  0
    7.1550   -3.6400   23.1180 H   0  0  0  0  0  0  0  0  0  0  0  0
    7.0220   -2.1710   24.1150 H   0  0  0  0  0  0  0  0  0  0  0  0
    8.5610   -2.4640   21.5060 H   0  0  0  0  0  0  0  0  0  0  0  0
    5.8600   -1.2420   22.1660 H   0  0  0  0  0  0  0  0  0  0  0  0
    6.2900   -2.2510   20.7710 H   0  0  0  0  0  0  0  0  0  0  0  0
   10.2220   -0.5520   22.3620 C   0  0  0  0  0  0  0  0  0  0  0  0
   10.8820   -1.4360   21.5050 C   0  0  0  0  0  0  0  0  0  0  0  0
   12.2630   -1.4340   21.4320 C   0  0  0  0  0  0  0  0  0  0  0  0
   13.0600   -2.4720   20.2870 Cl  0  0  0  0  0  0  0  0  0  0  0  0
   13.0320   -0.5760   22.2170 C   0  0  0  0  0  0  0  0  0  0  0  0
   12.3880    0.3510   23.0130 C   0  0  0  0  0  0  0  0  0  0  0  0
   10.9950    0.3840   23.0750 C   0  0  0  0  0  0  0  0  0  0  0  0
   10.3450    1.4880   23.8600 C   0  0  0  0  0  0  0  0  0  0  0  0
   10.9970    2.4000   24.3590 O   0  0  0  0  0  0  0  0  0  0  0  0
   12.9480    1.0880   23.5820 H   0  0  0  0  0  0  0  0  0  0  0  0
   14.1130   -0.6390   22.1760 H   0  0  0  0  0  0  0  0  0  0  0  0
   10.3220   -2.1110   20.8700 H   0  0  0  0  0  0  0  0  0  0  0  0
    8.5700   -0.5330   24.5460 H   0  0  0  0  0  0  0  0  0  0  0  0
    7.2250    0.3280   23.7680 H   0  0  0  0  0  0  0  0  0  0  0  0
    7.4150    2.2720   24.9840 H   0  0  0  0  0  0  0  0  0  0  0  0
    8.8710    3.2700   24.8120 H   0  0  0  0  0  0  0  0  0  0  0  0
    7.0180    4.1590   23.3970 H   0  0  0  0  0  0  0  0  0  0  0  0
    6.8110    2.5870   22.6250 H   0  0  0  0  0  0  0  0  0  0  0  0
    9.0630    2.7600   21.7590 H   0  0  0  0  0  0  0  0  0  0  0  0
    8.0450    3.8670   21.1470 H   0  0  0  0  0  0  0  0  0  0  0  0
    9.9550    5.1190   21.5270 H   0  0  0  0  0  0  0  0  0  0  0  0
   10.1690    4.4020   23.1320 H   0  0  0  0  0  0  0  0  0  0  0  0
    8.8440    5.5480   22.8400 H   0  0  0  0  0  0  0  0  0  0  0  0
  1  2  1  0  0  0  0
  1 68  1  0  0  0  0
  1 69  1  0  0  0  0
  1 70  1  0  0  0  0
  2  3  1  0  0  0  0
  2 66  1  0  0  0  0
  2 67  1  0  0  0  0
  3  4  1  0  0  0  0
  3 64  1  0  0  0  0
  3 65  1  0  0  0  0
  4  5  1  0  0  0  0
  4 62  1  0  0  0  0
  4 63  1  0  0  0  0
  5  6  1  0  0  0  0
  5 55  1  0  0  0  0
  6  7  1  0  0  0  0
  6 60  1  0  0  0  0
  6 61  1  0  0  0  0
  7  8  1  6  0  0  0
  7 28  1  0  0  0  0
  7 48  1  0  0  0  0
  8  9  2  0  0  0  0
  8 10  1  0  0  0  0
 10 11  1  0  0  0  0
 10 27  1  0  0  0  0
 11 12  2  0  0  0  0
 11 20  1  0  0  0  0
 12 13  1  0  0  0  0
 12 26  1  0  0  0  0
 13 14  2  0  0  0  0
 14 15  1  0  0  0  0
 14 25  1  0  0  0  0
 15 16  2  0  0  0  0
 15 20  1  0  0  0  0
 16 17  1  0  0  0  0
 16 24  1  0  0  0  0
 17 18  2  0  0  0  0
 17 23  1  0  0  0  0
 18 19  1  0  0  0  0
 18 22  1  0  0  0  0
 19 20  2  0  0  0  0
 19 21  1  0  0  0  0
 27 28  1  0  0  0  0
 27 46  1  0  0  0  0
 27 47  1  0  0  0  0
 28 29  1  0  0  0  0
 28 45  1  6  0  0  0
 29 30  1  0  0  0  0
 29 43  1  0  0  0  0
 29 44  1  0  0  0  0
 30 31  1  0  0  0  0
 31 32  1  0  0  0  0
 31 41  1  0  0  0  0
 31 42  1  0  0  0  0
 32 33  1  0  0  0  0
 32 34  1  0  0  0  0
 32 36  1  0  0  0  0
 34 35  1  0  0  0  0
 34 39  1  0  0  0  0
 34 40  1  0  0  0  0
 35 36  1  0  0  0  0
 36 37  1  0  0  0  0
 36 38  1  0  0  0  0
 48 49  2  0  0  0  0
 48 54  1  0  0  0  0
 49 50  1  0  0  0  0
 49 59  1  0  0  0  0
 50 51  1  0  0  0  0
 50 52  2  0  0  0  0
 52 53  1  0  0  0  0
 52 58  1  0  0  0  0
 53 54  2  0  0  0  0
 53 57  1  0  0  0  0
 54 55  1  0  0  0  0
 55 56  2  0  0  0  0
M  CHG  1   2   1
M  END
>  <MODEL>
       1

$$$$
