output/tmp_first_model_2_31.pdb
 OpenBabel07222619223D

 64 70  0  0  1  0  0  0  0  0999 V2000
    8.7380    3.2430   25.0520 O   0  0  0  0  0  0  0  0  0  0  0  0
    8.5940    2.2160   24.4030 C   0  0  0  0  0  0  0  0  0  0  0  0
    9.7300    1.5950   23.6580 C   0  0  0  0  0  0  0  0  0  0  0  0
   10.9740    2.2070   23.8000 C   0  0  0  0  0  0  0  0  0  0  0  0
   12.0730    1.7050   23.1430 C   0  0  0  0  0  0  0  0  0  0  0  0
   11.8990    0.5880   22.3320 C   0  0  0  0  0  0  0  0  0  0  0  0
   13.2920   -0.0210   21.5120 Cl  0  0  0  0  0  0  0  0  0  0  0  0
   10.6710   -0.0300   22.1670 C   0  0  0  0  0  0  0  0  0  0  0  0
    9.5500    0.4700   22.8390 C   0  0  0  0  0  0  0  0  0  0  0  0
    8.1470   -0.0500   22.5870 C   0  0  1  0  0  0  0  0  0  0  0  0
    7.3060    0.1900   23.8680 C   0  0  0  0  0  0  0  0  0  0  0  0
    7.3940    1.5680   24.3220 N   0  0  0  0  0  0  0  0  0  0  0  0
    6.2700    2.1250   25.0500 C   0  0  0  0  0  0  0  0  0  0  0  0
    6.0460    1.4540   26.3710 C   0  0  0  0  0  0  0  0  0  0  0  0
    5.2930    0.4400   26.6330 N   0  0  0  0  0  0  0  0  0  0  0  0
    5.4490    0.1780   27.9910 N   0  0  0  0  0  0  0  0  0  0  0  0
    6.2790    1.0570   28.4290 C   0  0  0  0  0  0  0  0  0  0  0  0
    6.7060    1.9040   27.4650 O   0  0  0  0  0  0  0  0  0  0  0  0
    6.6430    1.2010   29.4380 H   0  0  0  0  0  0  0  0  0  0  0  0
    5.3600    2.0170   24.4480 H   0  0  0  0  0  0  0  0  0  0  0  0
    6.4860    3.1830   25.2080 H   0  0  0  0  0  0  0  0  0  0  0  0
    7.6540   -0.4840   24.6640 H   0  0  0  0  0  0  0  0  0  0  0  0
    6.2520   -0.0430   23.6850 H   0  0  0  0  0  0  0  0  0  0  0  0
    7.5260    0.7390   21.4060 C   0  0  0  0  0  0  0  0  0  0  0  0
    7.7090    1.8950   21.1050 O   0  0  0  0  0  0  0  0  0  0  0  0
    6.7030   -0.1170   20.7130 N   0  0  0  0  0  0  0  0  0  0  0  0
    5.9210    0.3400   19.6310 C   0  0  0  0  0  0  0  0  0  0  0  0
    6.2510   -0.0090   18.3460 C   0  0  0  0  0  0  0  0  0  0  0  0
    5.5990    0.4330   17.2450 N   0  0  0  0  0  0  0  0  0  0  0  0
    4.5740    1.2300   17.4240 C   0  0  0  0  0  0  0  0  0  0  0  0
    4.0960    1.6340   18.7060 C   0  0  0  0  0  0  0  0  0  0  0  0
    2.9620    2.4750   18.8610 C   0  0  0  0  0  0  0  0  0  0  0  0
    2.5190    2.8190   20.1090 C   0  0  0  0  0  0  0  0  0  0  0  0
    3.1780    2.3330   21.2580 C   0  0  0  0  0  0  0  0  0  0  0  0
    4.2750    1.5200   21.1360 C   0  0  0  0  0  0  0  0  0  0  0  0
    4.7760    1.1680   19.8510 C   0  0  0  0  0  0  0  0  0  0  0  0
    4.7680    1.1290   22.0210 H   0  0  0  0  0  0  0  0  0  0  0  0
    2.8130    2.6030   22.2420 H   0  0  0  0  0  0  0  0  0  0  0  0
    1.6570    3.4680   20.2260 H   0  0  0  0  0  0  0  0  0  0  0  0
    2.4540    2.8330   17.9710 H   0  0  0  0  0  0  0  0  0  0  0  0
    4.0660    1.5840   16.5270 H   0  0  0  0  0  0  0  0  0  0  0  0
    7.1030   -0.6660   18.1690 H   0  0  0  0  0  0  0  0  0  0  0  0
    6.7060   -1.4750   21.2060 C   0  0  0  0  0  0  0  0  0  0  0  0
    7.9840   -1.5120   22.0710 C   0  0  2  0  0  0  0  0  0  0  0  0
    7.9690   -2.6370   23.1280 C   0  0  0  0  0  0  0  0  0  0  0  0
    7.8710   -3.9510   22.4560 N   0  0  0  0  0  0  0  0  0  0  0  0
    7.9880   -5.2330   22.9090 C   0  0  0  0  0  0  0  0  0  0  0  0
    8.3230   -5.8300   24.4570 C   0  0  0  0  0  0  0  0  0  0  0  0
    8.4970   -5.8260   24.1010 C   0  0  0  0  0  0  0  0  0  0  0  0
    8.7110   -7.6200   23.6290 N   0  0  0  0  0  0  0  0  0  0  0  0
    8.2260   -7.3650   22.4940 C   0  0  0  0  0  0  0  0  0  0  0  0
    7.8050   -6.1190   21.9720 N   0  0  0  0  0  0  0  0  0  0  0  0
    8.1340   -8.1700   21.7780 H   0  0  0  0  0  0  0  0  0  0  0  0
    8.4550   -4.9310   25.0780 H   0  0  0  0  0  0  0  0  0  0  0  0
    7.5870   -6.1100   25.2590 H   0  0  0  0  0  0  0  0  0  0  0  0
    7.4390   -3.9430   21.5370 H   0  0  0  0  0  0  0  0  0  0  0  0
    8.8640   -2.5560   23.7560 H   0  0  0  0  0  0  0  0  0  0  0  0
    7.0990   -2.4640   23.7900 H   0  0  0  0  0  0  0  0  0  0  0  0
    8.8110   -1.6930   21.3740 H   0  0  0  0  0  0  0  0  0  0  0  0
    5.7830   -1.6890   21.7810 H   0  0  0  0  0  0  0  0  0  0  0  0
    6.7350   -2.1680   20.3620 H   0  0  0  0  0  0  0  0  0  0  0  0
   10.6170   -0.8840   21.5000 H   0  0  0  0  0  0  0  0  0  0  0  0
   13.0500    2.1670   23.2270 H   0  0  0  0  0  0  0  0  0  0  0  0
   11.0400    3.0830   24.4340 H   0  0  0  0  0  0  0  0  0  0  0  0
  1  2  2  0  0  0  0
  2  3  1  0  0  0  0
  2 12  1  0  0  0  0
  3  4  2  0  0  0  0
  3  9  1  0  0  0  0
  4  5  1  0  0  0  0
  4 64  1  0  0  0  0
  5  6  2  0  0  0  0
  5 63  1  0  0  0  0
  6  7  1  0  0  0  0
  6  8  1  0  0  0  0
  8  9  2  0  0  0  0
  8 62  1  0  0  0  0
 10  9  1  1  0  0  0
 10 11  1  0  0  0  0
 10 24  1  0  0  0  0
 10 44  1  0  0  0  0
 11 12  1  0  0  0  0
 11 22  1  0  0  0  0
 11 23  1  0  0  0  0
 12 13  1  0  0  0  0
 13 14  1  0  0  0  0
 13 20  1  0  0  0  0
 13 21  1  0  0  0  0
 14 15  2  0  0  0  0
 14 18  1  0  0  0  0
 15 16  1  0  0  0  0
 16 17  2  0  0  0  0
 17 18  1  0  0  0  0
 17 19  1  0  0  0  0
 24 25  2  0  0  0  0
 24 26  1  0  0  0  0
 26 27  1  0  0  0  0
 26 43  1  0  0  0  0
 27 28  2  0  0  0  0
 27 36  1  0  0  0  0
 28 29  1  0  0  0  0
 28 42  1  0  0  0  0
 29 30  2  0  0  0  0
 30 31  1  0  0  0  0
 30 41  1  0  0  0  0
 31 32  2  0  0  0  0
 31 36  1  0  0  0  0
 32 33  1  0  0  0  0
 32 40  1  0  0  0  0
 33 34  2  0  0  0  0
 33 39  1  0  0  0  0
 34 35  1  0  0  0  0
 34 38  1  0  0  0  0
 35 36  2  0  0  0  0
 35 37  1  0  0  0  0
 43 44  1  0  0  0  0
 43 60  1  0  0  0  0
 43 61  1  0  0  0  0
 44 45  1  0  0  0  0
 44 59  1  6  0  0  0
 45 46  1  0  0  0  0
 45 57  1  0  0  0  0
 45 58  1  0  0  0  0
 46 47  1  0  0  0  0
 46 56  1  0  0  0  0
 47 48  2  0  0  0  0
 47 52  1  0  0  0  0
 48 49  1  0  0  0  0
 48 55  1  0  0  0  0
 49 50  2  0  0  0  0
 49 54  1  0  0  0  0
 50 51  1  0  0  0  0
 51 52  2  0  0  0  0
 51 53  1  0  0  0  0
M  END
>  <MODEL>
       1

$$$$
