output/tmp_first_model_1_71.pdb
 OpenBabel07222618483D

 59 64  0  0  1  0  0  0  0  0999 V2000
    7.2740   -3.0770   23.4880 C   0  0  0  0  0  0  0  0  0  0  0  0
    7.2120   -2.2730   22.2020 C   0  0  1  0  0  0  0  0  0  0  0  0
    5.9220   -1.4950   21.9640 C   0  0  0  0  0  0  0  0  0  0  0  0
    6.3210   -0.5220   20.9480 N   0  0  0  0  0  0  0  0  0  0  0  0
    5.5720   -0.1980   19.8020 C   0  0  0  0  0  0  0  0  0  0  0  0
    6.1060   -0.3080   18.5360 C   0  0  0  0  0  0  0  0  0  0  0  0
    5.4580    0.0530   17.4030 N   0  0  0  0  0  0  0  0  0  0  0  0
    4.2690    0.5930   17.5460 C   0  0  0  0  0  0  0  0  0  0  0  0
    3.6040    0.7570   18.7900 C   0  0  0  0  0  0  0  0  0  0  0  0
    2.3730    1.4550   18.9060 C   0  0  0  0  0  0  0  0  0  0  0  0
    1.7790    1.6070   20.1280 C   0  0  0  0  0  0  0  0  0  0  0  0
    2.4020    1.1090   21.2960 C   0  0  0  0  0  0  0  0  0  0  0  0
    3.6040    0.4550   21.2150 C   0  0  0  0  0  0  0  0  0  0  0  0
    4.2430    0.2910   19.9560 C   0  0  0  0  0  0  0  0  0  0  0  0
    4.0930    0.1150   22.1210 H   0  0  0  0  0  0  0  0  0  0  0  0
    1.9500    1.2840   22.2670 H   0  0  0  0  0  0  0  0  0  0  0  0
    0.8410    2.1440   20.2140 H   0  0  0  0  0  0  0  0  0  0  0  0
    1.9680    1.9200   18.0130 H   0  0  0  0  0  0  0  0  0  0  0  0
    3.7820    0.9500   16.6400 H   0  0  0  0  0  0  0  0  0  0  0  0
    7.1150   -0.6900   18.3850 H   0  0  0  0  0  0  0  0  0  0  0  0
    7.6750   -0.2400   21.0090 C   0  0  0  0  0  0  0  0  0  0  0  0
    8.2570    0.6190   20.3780 O   0  0  0  0  0  0  0  0  0  0  0  0
    8.3360   -1.2120   21.9710 C   0  0  1  0  0  0  0  0  0  0  0  0
    8.8190   -0.4580   23.2320 C   0  0  0  0  0  0  0  0  0  0  0  0
    9.7070   -1.2340   24.0990 N   0  0  0  0  0  0  0  0  0  0  0  0
    9.6560   -0.9590   25.5250 C   0  0  0  0  0  0  0  0  0  0  0  0
    8.8730   -2.0070   26.2680 C   0  0  0  0  0  0  0  0  0  0  0  0
    9.2740   -3.2550   26.3570 N   0  0  0  0  0  0  0  0  0  0  0  0
    8.3350   -3.8900   27.1240 C   0  0  0  0  0  0  0  0  0  0  0  0
    7.3480   -3.0170   27.4870 C   0  0  0  0  0  0  0  0  0  0  0  0
    7.7000   -1.8000   26.9380 N   0  0  0  0  0  0  0  0  0  0  0  0
    6.9140   -0.5830   26.9590 C   0  0  0  0  0  0  0  0  0  0  0  0
    6.7000   -0.2450   25.9370 H   0  0  0  0  0  0  0  0  0  0  0  0
    7.4340    0.2150   27.4990 H   0  0  0  0  0  0  0  0  0  0  0  0
    5.9680   -0.7950   27.4600 H   0  0  0  0  0  0  0  0  0  0  0  0
    6.4440   -3.1440   28.0650 H   0  0  0  0  0  0  0  0  0  0  0  0
    8.4310   -4.9390   27.3670 H   0  0  0  0  0  0  0  0  0  0  0  0
   10.6860   -0.9820   25.8790 H   0  0  0  0  0  0  0  0  0  0  0  0
    9.2630    0.0490   25.6860 H   0  0  0  0  0  0  0  0  0  0  0  0
   10.7040   -2.0920   23.6630 C   0  0  0  0  0  0  0  0  0  0  0  0
   11.6410   -2.4110   24.3750 O   0  0  0  0  0  0  0  0  0  0  0  0
   10.6000   -2.6310   22.2950 C   0  0  0  0  0  0  0  0  0  0  0  0
   11.8850   -3.2020   21.8110 C   0  0  0  0  0  0  0  0  0  0  0  0
   12.2750   -3.1120   20.5100 C   0  0  0  0  0  0  0  0  0  0  0  0
   12.2810   -3.2250   20.4280 C   0  0  0  0  0  0  0  0  0  0  0  0
   12.0840   -4.0560   19.3320 F   0  0  0  0  0  0  0  0  0  0  0  0
    9.7260   -3.1010   21.3860 C   0  0  0  0  0  0  0  0  0  0  0  0
    9.5590   -1.7760   21.2690 C   0  0  0  0  0  0  0  0  0  0  0  0
   10.1600   -1.1410   20.5990 H   0  0  0  0  0  0  0  0  0  0  0  0
   13.4620   -2.7850   20.0570 H   0  0  0  0  0  0  0  0  0  0  0  0
   12.8110   -3.0530   22.0960 H   0  0  0  0  0  0  0  0  0  0  0  0
    7.9550   -0.1520   23.8310 H   0  0  0  0  0  0  0  0  0  0  0  0
    9.3230    0.4490   22.8770 H   0  0  0  0  0  0  0  0  0  0  0  0
    5.1010   -2.1210   21.6030 H   0  0  0  0  0  0  0  0  0  0  0  0
    5.5990   -0.9960   22.8900 H   0  0  0  0  0  0  0  0  0  0  0  0
    7.2950   -2.9600   21.3540 H   0  0  0  0  0  0  0  0  0  0  0  0
    8.2630   -3.5360   23.5990 H   0  0  0  0  0  0  0  0  0  0  0  0
    6.5230   -3.8750   23.4810 H   0  0  0  0  0  0  0  0  0  0  0  0
    7.0780   -2.4500   24.3650 H   0  0  0  0  0  0  0  0  0  0  0  0
  1  2  1  0  0  0  0
  1 57  1  0  0  0  0
  1 58  1  0  0  0  0
  1 59  1  0  0  0  0
  2  3  1  0  0  0  0
  2 23  1  0  0  0  0
  2 56  1  6  0  0  0
  3  4  1  0  0  0  0
  3 54  1  0  0  0  0
  3 55  1  0  0  0  0
  4  5  1  0  0  0  0
  4 21  1  0  0  0  0
  5  6  2  0  0  0  0
  5 14  1  0  0  0  0
  6  7  1  0  0  0  0
  6 20  1  0  0  0  0
  7  8  2  0  0  0  0
  8  9  1  0  0  0  0
  8 19  1  0  0  0  0
  9 10  2  0  0  0  0
  9 14  1  0  0  0  0
 10 11  1  0  0  0  0
 10 18  1  0  0  0  0
 11 12  2  0  0  0  0
 11 17  1  0  0  0  0
 12 13  1  0  0  0  0
 12 16  1  0  0  0  0
 13 14  2  0  0  0  0
 13 15  1  0  0  0  0
 21 22  2  0  0  0  0
 23 21  1  6  0  0  0
 23 24  1  0  0  0  0
 23 48  1  0  0  0  0
 24 25  1  0  0  0  0
 24 52  1  0  0  0  0
 24 53  1  0  0  0  0
 25 26  1  0  0  0  0
 25 40  1  0  0  0  0
 26 27  1  0  0  0  0
 26 38  1  0  0  0  0
 26 39  1  0  0  0  0
 27 28  2  0  0  0  0
 27 31  1  0  0  0  0
 28 29  1  0  0  0  0
 29 30  2  0  0  0  0
 29 37  1  0  0  0  0
 30 31  1  0  0  0  0
 30 36  1  0  0  0  0
 31 32  1  0  0  0  0
 32 33  1  0  0  0  0
 32 34  1  0  0  0  0
 32 35  1  0  0  0  0
 40 41  2  0  0  0  0
 40 42  1  0  0  0  0
 42 43  2  0  0  0  0
 42 48  1  0  0  0  0
 43 44  1  0  0  0  0
 43 51  1  0  0  0  0
 44 45  2  0  0  0  0
 44 50  1  0  0  0  0
 45 46  1  0  0  0  0
 45 47  1  0  0  0  0
 47 48  2  0  0  0  0
 47 49  1  0  0  0  0
M  END
>  <MODEL>
       1

$$$$
