output/tmp_first_model_18_38.pdb
 OpenBabel07232602473D

 72 77  0  0  1  0  0  0  0  0999 V2000
    5.0880   -7.1920   21.0740 C   0  0  0  0  0  0  0  0  0  0  0  0
    4.2370   -6.4620   22.0420 N   0  3  0  0  0  0  0  0  0  0  0  0
    4.7300   -5.0820   22.3730 C   0  0  0  0  0  0  0  0  0  0  0  0
    5.9610   -5.0880   23.2910 C   0  0  0  0  0  0  0  0  0  0  0  0
    6.3150   -3.7380   23.6950 N   0  0  0  0  0  0  0  0  0  0  0  0
    7.5040   -3.1130   23.1430 C   0  0  0  0  0  0  0  0  0  0  0  0
    7.3180   -1.6040   22.8620 C   0  0  2  0  0  0  0  0  0  0  0  0
    6.3380   -1.4090   21.6880 C   0  0  0  0  0  0  0  0  0  0  0  0
    5.2610   -1.9520   21.5360 O   0  0  0  0  0  0  0  0  0  0  0  0
    6.8620   -0.4820   20.8260 N   0  0  0  0  0  0  0  0  0  0  0  0
    6.0970    0.0630   19.7680 C   0  0  0  0  0  0  0  0  0  0  0  0
    6.4450   -0.2150   18.4720 C   0  0  0  0  0  0  0  0  0  0  0  0
    5.7790    0.2450   17.3890 N   0  0  0  0  0  0  0  0  0  0  0  0
    4.7490    1.0270   17.5990 C   0  0  0  0  0  0  0  0  0  0  0  0
    4.2950    1.4110   18.8930 C   0  0  0  0  0  0  0  0  0  0  0  0
    3.1830    2.2750   19.0620 C   0  0  0  0  0  0  0  0  0  0  0  0
    2.7830    2.6490   20.3130 C   0  0  0  0  0  0  0  0  0  0  0  0
    3.4790    2.1850   21.4530 C   0  0  0  0  0  0  0  0  0  0  0  0
    4.5580    1.3470   21.3220 C   0  0  0  0  0  0  0  0  0  0  0  0
    4.9860    0.9260   20.0260 C   0  0  0  0  0  0  0  0  0  0  0  0
    5.0890    1.0050   22.2120 H   0  0  0  0  0  0  0  0  0  0  0  0
    3.1550    2.5010   22.4410 H   0  0  0  0  0  0  0  0  0  0  0  0
    1.9320    3.3150   20.4400 H   0  0  0  0  0  0  0  0  0  0  0  0
    2.6750    2.6390   18.1720 H   0  0  0  0  0  0  0  0  0  0  0  0
    4.2170    1.3990   16.7220 H   0  0  0  0  0  0  0  0  0  0  0  0
    7.2950   -0.8670   18.2720 H   0  0  0  0  0  0  0  0  0  0  0  0
    8.1510    0.0450   21.2090 C   0  0  0  0  0  0  0  0  0  0  0  0
    8.6170   -0.8620   22.3670 C   0  0  2  0  0  0  0  0  0  0  0  0
    9.7850   -1.7370   21.8680 C   0  0  0  0  0  0  0  0  0  0  0  0
   10.4090   -2.4340   22.8970 O   0  0  0  0  0  0  0  0  0  0  0  0
   11.5170   -1.8620   23.5250 C   0  0  0  0  0  0  0  0  0  0  0  0
   11.8700   -2.5850   24.7720 C   0  0  0  0  0  0  0  0  0  0  0  0
   13.1580   -2.0880   25.3560 C   0  0  0  0  0  0  0  0  0  0  0  0
   14.6990   -3.0280   25.3890 S   0  0  0  0  0  0  0  0  0  0  0  0
   14.6550   -4.1140   26.3730 O   0  0  0  0  0  0  0  0  0  0  0  0
   15.1170   -3.2120   24.0000 O   0  0  0  0  0  0  0  0  0  0  0  0
   11.9150   -2.9830   24.6850 C   0  0  0  0  0  0  0  0  0  0  0  0
   11.5610   -4.2220   25.3410 H   0  0  0  0  0  0  0  0  0  0  0  0
   12.4060   -3.7700   23.9580 H   0  0  0  0  0  0  0  0  0  0  0  0
   13.4700   -1.1970   24.7900 H   0  0  0  0  0  0  0  0  0  0  0  0
   13.0200   -1.7510   26.3920 H   0  0  0  0  0  0  0  0  0  0  0  0
   11.0670   -2.5890   25.5770 H   0  0  0  0  0  0  0  0  0  0  0  0
   12.3810   -1.8090   22.8610 H   0  0  0  0  0  0  0  0  0  0  0  0
   11.3160   -0.8140   23.8140 H   0  0  0  0  0  0  0  0  0  0  0  0
    9.4130   -2.4900   21.1600 H   0  0  0  0  0  0  0  0  0  0  0  0
   10.5220   -1.1170   21.3250 H   0  0  0  0  0  0  0  0  0  0  0  0
    9.0240   -0.2850   23.2050 H   0  0  0  0  0  0  0  0  0  0  0  0
    8.0770    1.1020   21.4990 H   0  0  0  0  0  0  0  0  0  0  0  0
    8.8340    0.0030   20.3590 H   0  0  0  0  0  0  0  0  0  0  0  0
    6.7070   -0.9660   24.1100 C   0  0  0  0  0  0  0  0  0  0  0  0
    6.8390    0.4060   24.3590 C   0  0  0  0  0  0  0  0  0  0  0  0
    6.2340    0.9730   25.4690 C   0  0  0  0  0  0  0  0  0  0  0  0
    6.4110    2.6820   25.7570 Cl  0  0  0  0  0  0  0  0  0  0  0  0
    5.4780    0.2120   26.3580 C   0  0  0  0  0  0  0  0  0  0  0  0
    5.3140   -1.1340   26.0990 C   0  0  0  0  0  0  0  0  0  0  0  0
    5.9030   -1.7190   24.9780 C   0  0  0  0  0  0  0  0  0  0  0  0
    5.6070   -3.1650   24.7100 C   0  0  0  0  0  0  0  0  0  0  0  0
    4.7620   -3.7830   25.3490 O   0  0  0  0  0  0  0  0  0  0  0  0
    4.7140   -1.7650   26.7460 H   0  0  0  0  0  0  0  0  0  0  0  0
    5.0170    0.6830   27.2200 H   0  0  0  0  0  0  0  0  0  0  0  0
    7.4020    1.0540   23.6950 H   0  0  0  0  0  0  0  0  0  0  0  0
    7.7520   -3.6240   22.2130 H   0  0  0  0  0  0  0  0  0  0  0  0
    8.3390   -3.2320   23.8390 H   0  0  0  0  0  0  0  0  0  0  0  0
    6.8320   -5.5220   22.7850 H   0  0  0  0  0  0  0  0  0  0  0  0
    5.7670   -5.6660   24.2020 H   0  0  0  0  0  0  0  0  0  0  0  0
    3.9160   -4.5500   22.8570 H   0  0  0  0  0  0  0  0  0  0  0  0
    4.9700   -4.5560   21.4480 H   0  0  0  0  0  0  0  0  0  0  0  0
    3.2710   -6.4160   21.6600 H   0  0  0  0  0  0  0  0  0  0  0  0
    4.2140   -7.0130   22.9330 H   0  0  0  0  0  0  0  0  0  0  0  0
    4.5940   -8.1110   20.7660 H   0  0  0  0  0  0  0  0  0  0  0  0
    5.2740   -6.5800   20.1890 H   0  0  0  0  0  0  0  0  0  0  0  0
    6.0530   -7.4470   21.5130 H   0  0  0  0  0  0  0  0  0  0  0  0
  1  2  1  0  0  0  0
  1 70  1  0  0  0  0
  1 71  1  0  0  0  0
  1 72  1  0  0  0  0
  2  3  1  0  0  0  0
  2 68  1  0  0  0  0
  2 69  1  0  0  0  0
  3  4  1  0  0  0  0
  3 66  1  0  0  0  0
  3 67  1  0  0  0  0
  4  5  1  0  0  0  0
  4 64  1  0  0  0  0
  4 65  1  0  0  0  0
  5  6  1  0  0  0  0
  5 57  1  0  0  0  0
  6  7  1  0  0  0  0
  6 62  1  0  0  0  0
  6 63  1  0  0  0  0
  7  8  1  6  0  0  0
  7 28  1  0  0  0  0
  7 50  1  0  0  0  0
  8  9  2  0  0  0  0
  8 10  1  0  0  0  0
 10 11  1  0  0  0  0
 10 27  1  0  0  0  0
 11 12  2  0  0  0  0
 11 20  1  0  0  0  0
 12 13  1  0  0  0  0
 12 26  1  0  0  0  0
 13 14  2  0  0  0  0
 14 15  1  0  0  0  0
 14 25  1  0  0  0  0
 15 16  2  0  0  0  0
 15 20  1  0  0  0  0
 16 17  1  0  0  0  0
 16 24  1  0  0  0  0
 17 18  2  0  0  0  0
 17 23  1  0  0  0  0
 18 19  1  0  0  0  0
 18 22  1  0  0  0  0
 19 20  2  0  0  0  0
 19 21  1  0  0  0  0
 27 28  1  0  0  0  0
 27 48  1  0  0  0  0
 27 49  1  0  0  0  0
 28 29  1  0  0  0  0
 28 47  1  1  0  0  0
 29 30  1  0  0  0  0
 29 45  1  0  0  0  0
 29 46  1  0  0  0  0
 30 31  1  0  0  0  0
 31 32  1  0  0  0  0
 31 43  1  0  0  0  0
 31 44  1  0  0  0  0
 32 33  1  0  0  0  0
 32 37  1  0  0  0  0
 32 42  1  0  0  0  0
 33 34  1  0  0  0  0
 33 40  1  0  0  0  0
 33 41  1  0  0  0  0
 34 35  2  0  0  0  0
 34 36  2  0  0  0  0
 34 37  1  0  0  0  0
 37 38  1  0  0  0  0
 37 39  1  0  0  0  0
 50 51  2  0  0  0  0
 50 56  1  0  0  0  0
 51 52  1  0  0  0  0
 51 61  1  0  0  0  0
 52 53  1  0  0  0  0
 52 54  2  0  0  0  0
 54 55  1  0  0  0  0
 54 60  1  0  0  0  0
 55 56  2  0  0  0  0
 55 59  1  0  0  0  0
 56 57  1  0  0  0  0
 57 58  2  0  0  0  0
M  CHG  1   2   1
M  END
>  <MODEL>
       1

$$$$
