output/tmp_first_model_15_24.pdb
 OpenBabel07232601353D

 70 75  0  0  1  0  0  0  0  0999 V2000
    6.5310    4.5780   21.3490 C   0  0  0  0  0  0  0  0  0  0  0  0
    6.8500    3.6260   22.4200 N   0  3  0  0  0  0  0  0  0  0  0  0
    7.9340    4.0520   23.3370 C   0  0  0  0  0  0  0  0  0  0  0  0
    8.1350    3.0510   24.4780 C   0  0  0  0  0  0  0  0  0  0  0  0
    8.7570    1.8120   24.0380 N   0  0  0  0  0  0  0  0  0  0  0  0
    7.9680    0.5960   23.9540 C   0  0  0  0  0  0  0  0  0  0  0  0
    8.3520   -0.2460   22.7200 C   0  0  2  0  0  0  0  0  0  0  0  0
    7.7890    0.4390   21.4620 C   0  0  0  0  0  0  0  0  0  0  0  0
    7.9740    1.6030   21.1210 O   0  0  0  0  0  0  0  0  0  0  0  0
    6.9380   -0.4060   20.8160 N   0  0  0  0  0  0  0  0  0  0  0  0
    6.1380    0.1080   19.7590 C   0  0  0  0  0  0  0  0  0  0  0  0
    6.4680   -0.2020   18.4680 C   0  0  0  0  0  0  0  0  0  0  0  0
    5.7780    0.2310   17.3890 N   0  0  0  0  0  0  0  0  0  0  0  0
    4.7530    1.0120   17.6140 C   0  0  0  0  0  0  0  0  0  0  0  0
    4.3190    1.4250   18.9060 C   0  0  0  0  0  0  0  0  0  0  0  0
    3.2020    2.2820   19.0810 C   0  0  0  0  0  0  0  0  0  0  0  0
    2.8050    2.6650   20.3310 C   0  0  0  0  0  0  0  0  0  0  0  0
    3.5010    2.2030   21.4680 C   0  0  0  0  0  0  0  0  0  0  0  0
    4.5880    1.3720   21.3280 C   0  0  0  0  0  0  0  0  0  0  0  0
    5.0320    0.9630   20.0340 C   0  0  0  0  0  0  0  0  0  0  0  0
    5.0910    1.0100   22.2230 H   0  0  0  0  0  0  0  0  0  0  0  0
    3.1700    2.5070   22.4580 H   0  0  0  0  0  0  0  0  0  0  0  0
    1.9500    3.3230   20.4510 H   0  0  0  0  0  0  0  0  0  0  0  0
    2.6870    2.6270   18.1890 H   0  0  0  0  0  0  0  0  0  0  0  0
    4.2040    1.3660   16.7420 H   0  0  0  0  0  0  0  0  0  0  0  0
    7.3350   -0.8300   18.2750 H   0  0  0  0  0  0  0  0  0  0  0  0
    6.5110   -1.5190   21.6470 C   0  0  0  0  0  0  0  0  0  0  0  0
    7.6410   -1.6360   22.6730 C   0  0  2  0  0  0  0  0  0  0  0  0
    7.1840   -2.2590   23.9850 C   0  0  0  0  0  0  0  0  0  0  0  0
    6.0830   -1.5490   24.5180 O   0  0  0  0  0  0  0  0  0  0  0  0
    5.6910   -2.0020   25.7960 C   0  0  0  0  0  0  0  0  0  0  0  0
    4.5960   -1.0840   26.3040 C   0  0  0  0  0  0  0  0  0  0  0  0
    3.2570   -1.1980   25.5570 C   0  0  0  0  0  0  0  0  0  0  0  0
    2.6110   -1.7740   26.7010 O   0  0  0  0  0  0  0  0  0  0  0  0
    3.8020   -1.6420   27.4900 C   0  0  0  0  0  0  0  0  0  0  0  0
    3.6600   -0.9630   28.3400 H   0  0  0  0  0  0  0  0  0  0  0  0
    4.1550   -2.6140   27.8650 H   0  0  0  0  0  0  0  0  0  0  0  0
    2.7950   -0.2470   25.2630 H   0  0  0  0  0  0  0  0  0  0  0  0
    3.2600   -1.8850   24.7010 H   0  0  0  0  0  0  0  0  0  0  0  0
    4.9720   -0.0630   26.4140 H   0  0  0  0  0  0  0  0  0  0  0  0
    6.5500   -1.9960   26.4890 H   0  0  0  0  0  0  0  0  0  0  0  0
    5.3200   -3.0390   25.7350 H   0  0  0  0  0  0  0  0  0  0  0  0
    8.0180   -2.2620   24.7040 H   0  0  0  0  0  0  0  0  0  0  0  0
    6.9040   -3.3090   23.8030 H   0  0  0  0  0  0  0  0  0  0  0  0
    8.3710   -2.3390   22.2760 H   0  0  0  0  0  0  0  0  0  0  0  0
    5.5560   -1.3020   22.1410 H   0  0  0  0  0  0  0  0  0  0  0  0
    6.3960   -2.4280   21.0490 H   0  0  0  0  0  0  0  0  0  0  0  0
    9.8600   -0.3300   22.6160 C   0  0  0  0  0  0  0  0  0  0  0  0
   10.4360   -1.2780   21.7680 C   0  0  0  0  0  0  0  0  0  0  0  0
   11.8000   -1.3000   21.5880 C   0  0  0  0  0  0  0  0  0  0  0  0
   12.3990   -2.3630   20.3570 Cl  0  0  0  0  0  0  0  0  0  0  0  0
   12.6560   -0.4740   22.3240 C   0  0  0  0  0  0  0  0  0  0  0  0
   12.0900    0.4690   23.1610 C   0  0  0  0  0  0  0  0  0  0  0  0
   10.7020    0.5940   23.2420 C   0  0  0  0  0  0  0  0  0  0  0  0
   10.1230    1.7950   23.9240 C   0  0  0  0  0  0  0  0  0  0  0  0
   10.8280    2.7150   24.3240 O   0  0  0  0  0  0  0  0  0  0  0  0
   12.7120    1.1440   23.7330 H   0  0  0  0  0  0  0  0  0  0  0  0
   13.7270   -0.5670   22.2070 H   0  0  0  0  0  0  0  0  0  0  0  0
    9.8620   -2.0190   21.2260 H   0  0  0  0  0  0  0  0  0  0  0  0
    8.1050   -0.0120   24.8570 H   0  0  0  0  0  0  0  0  0  0  0  0
    6.9120    0.8600   23.8700 H   0  0  0  0  0  0  0  0  0  0  0  0
    8.7810    3.4830   25.2460 H   0  0  0  0  0  0  0  0  0  0  0  0
    7.1710    2.8020   24.9380 H   0  0  0  0  0  0  0  0  0  0  0  0
    8.8730    4.1380   22.7760 H   0  0  0  0  0  0  0  0  0  0  0  0
    7.7070    5.0400   23.7600 H   0  0  0  0  0  0  0  0  0  0  0  0
    5.9840    3.4450   22.9560 H   0  0  0  0  0  0  0  0  0  0  0  0
    7.1410    2.7350   21.9640 H   0  0  0  0  0  0  0  0  0  0  0  0
    6.3710    5.5870   21.7440 H   0  0  0  0  0  0  0  0  0  0  0  0
    7.3550    4.6270   20.6320 H   0  0  0  0  0  0  0  0  0  0  0  0
    5.6270    4.2440   20.8310 H   0  0  0  0  0  0  0  0  0  0  0  0
  1  2  1  0  0  0  0
  1 68  1  0  0  0  0
  1 69  1  0  0  0  0
  1 70  1  0  0  0  0
  2  3  1  0  0  0  0
  2 66  1  0  0  0  0
  2 67  1  0  0  0  0
  3  4  1  0  0  0  0
  3 64  1  0  0  0  0
  3 65  1  0  0  0  0
  4  5  1  0  0  0  0
  4 62  1  0  0  0  0
  4 63  1  0  0  0  0
  5  6  1  0  0  0  0
  5 55  1  0  0  0  0
  6  7  1  0  0  0  0
  6 60  1  0  0  0  0
  6 61  1  0  0  0  0
  7  8  1  6  0  0  0
  7 28  1  0  0  0  0
  7 48  1  0  0  0  0
  8  9  2  0  0  0  0
  8 10  1  0  0  0  0
 10 11  1  0  0  0  0
 10 27  1  0  0  0  0
 11 12  2  0  0  0  0
 11 20  1  0  0  0  0
 12 13  1  0  0  0  0
 12 26  1  0  0  0  0
 13 14  2  0  0  0  0
 14 15  1  0  0  0  0
 14 25  1  0  0  0  0
 15 16  2  0  0  0  0
 15 20  1  0  0  0  0
 16 17  1  0  0  0  0
 16 24  1  0  0  0  0
 17 18  2  0  0  0  0
 17 23  1  0  0  0  0
 18 19  1  0  0  0  0
 18 22  1  0  0  0  0
 19 20  2  0  0  0  0
 19 21  1  0  0  0  0
 27 28  1  0  0  0  0
 27 46  1  0  0  0  0
 27 47  1  0  0  0  0
 28 29  1  0  0  0  0
 28 45  1  6  0  0  0
 29 30  1  0  0  0  0
 29 43  1  0  0  0  0
 29 44  1  0  0  0  0
 30 31  1  0  0  0  0
 31 32  1  0  0  0  0
 31 41  1  0  0  0  0
 31 42  1  0  0  0  0
 32 33  1  0  0  0  0
 32 35  1  0  0  0  0
 32 40  1  0  0  0  0
 33 34  1  0  0  0  0
 33 38  1  0  0  0  0
 33 39  1  0  0  0  0
 34 35  1  0  0  0  0
 35 36  1  0  0  0  0
 35 37  1  0  0  0  0
 48 49  2  0  0  0  0
 48 54  1  0  0  0  0
 49 50  1  0  0  0  0
 49 59  1  0  0  0  0
 50 51  1  0  0  0  0
 50 52  2  0  0  0  0
 52 53  1  0  0  0  0
 52 58  1  0  0  0  0
 53 54  2  0  0  0  0
 53 57  1  0  0  0  0
 54 55  1  0  0  0  0
 55 56  2  0  0  0  0
M  CHG  1   2   1
M  END
>  <MODEL>
       1

$$$$
