output/tmp_first_model_5_38.pdb
 OpenBabel07222620423D

 72 77  0  0  1  0  0  0  0  0999 V2000
    4.8640   -7.5980   20.1920 C   0  0  0  0  0  0  0  0  0  0  0  0
    5.4950   -6.3670   19.6660 N   0  3  0  0  0  0  0  0  0  0  0  0
    5.6640   -5.2910   20.6950 C   0  0  0  0  0  0  0  0  0  0  0  0
    6.8110   -5.5750   21.6720 C   0  0  0  0  0  0  0  0  0  0  0  0
    6.9710   -4.4640   22.5900 N   0  0  0  0  0  0  0  0  0  0  0  0
    7.9420   -3.4300   22.3170 C   0  0  0  0  0  0  0  0  0  0  0  0
    7.4050   -2.0060   22.6310 C   0  0  2  0  0  0  0  0  0  0  0  0
    6.2660   -1.6490   21.6400 C   0  0  0  0  0  0  0  0  0  0  0  0
    5.1540   -2.1390   21.6060 O   0  0  0  0  0  0  0  0  0  0  0  0
    6.7240   -0.6800   20.7700 N   0  0  0  0  0  0  0  0  0  0  0  0
    5.9780   -0.1190   19.7090 C   0  0  0  0  0  0  0  0  0  0  0  0
    6.3660   -0.3690   18.4170 C   0  0  0  0  0  0  0  0  0  0  0  0
    5.7700    0.1440   17.3140 N   0  0  0  0  0  0  0  0  0  0  0  0
    4.7730    0.9740   17.5040 C   0  0  0  0  0  0  0  0  0  0  0  0
    4.2880    1.3510   18.7900 C   0  0  0  0  0  0  0  0  0  0  0  0
    3.2260    2.2830   18.9330 C   0  0  0  0  0  0  0  0  0  0  0  0
    2.8030    2.6630   20.1760 C   0  0  0  0  0  0  0  0  0  0  0  0
    3.4190    2.1300   21.3310 C   0  0  0  0  0  0  0  0  0  0  0  0
    4.4420    1.2180   21.2210 C   0  0  0  0  0  0  0  0  0  0  0  0
    4.9000    0.8000   19.9390 C   0  0  0  0  0  0  0  0  0  0  0  0
    4.9160    0.8170   22.1140 H   0  0  0  0  0  0  0  0  0  0  0  0
    3.0830    2.4550   22.3120 H   0  0  0  0  0  0  0  0  0  0  0  0
    1.9990    3.3870   20.2840 H   0  0  0  0  0  0  0  0  0  0  0  0
    2.7760    2.6930   18.0320 H   0  0  0  0  0  0  0  0  0  0  0  0
    4.3000    1.4010   16.6190 H   0  0  0  0  0  0  0  0  0  0  0  0
    7.2040   -1.0390   18.2310 H   0  0  0  0  0  0  0  0  0  0  0  0
    8.1520   -0.4620   20.8630 C   0  0  0  0  0  0  0  0  0  0  0  0
    8.4740   -0.9280   22.2940 C   0  0  2  0  0  0  0  0  0  0  0  0
    9.9310   -1.3590   22.4540 C   0  0  0  0  0  0  0  0  0  0  0  0
   10.7860   -0.2480   22.4390 O   0  0  0  0  0  0  0  0  0  0  0  0
   11.4410   -0.0900   23.6720 C   0  0  0  0  0  0  0  0  0  0  0  0
   11.9550    1.2900   23.5820 C   0  0  0  0  0  0  0  0  0  0  0  0
   10.8910    2.1780   23.5970 C   0  0  0  0  0  0  0  0  0  0  0  0
   10.8280    3.9050   24.0900 S   0  0  0  0  0  0  0  0  0  0  0  0
   12.0470    4.6610   23.8860 O   0  0  0  0  0  0  0  0  0  0  0  0
    9.4890    4.4630   24.0870 O   0  0  0  0  0  0  0  0  0  0  0  0
   12.1370    1.2670   23.8780 C   0  0  0  0  0  0  0  0  0  0  0  0
   13.2390    1.0130   24.5360 H   0  0  0  0  0  0  0  0  0  0  0  0
   12.1770    1.3100   25.0930 H   0  0  0  0  0  0  0  0  0  0  0  0
   10.8010    2.1610   22.5190 H   0  0  0  0  0  0  0  0  0  0  0  0
    9.9680    1.7120   23.9310 H   0  0  0  0  0  0  0  0  0  0  0  0
   12.9510    1.7640   22.7480 H   0  0  0  0  0  0  0  0  0  0  0  0
   10.6910   -0.1850   24.4680 H   0  0  0  0  0  0  0  0  0  0  0  0
   12.1670   -0.9070   23.7700 H   0  0  0  0  0  0  0  0  0  0  0  0
   10.2000   -2.0290   21.6220 H   0  0  0  0  0  0  0  0  0  0  0  0
   10.0680   -1.9270   23.3860 H   0  0  0  0  0  0  0  0  0  0  0  0
    8.3080   -0.0700   22.9480 H   0  0  0  0  0  0  0  0  0  0  0  0
    8.3690    0.5960   20.6890 H   0  0  0  0  0  0  0  0  0  0  0  0
    8.7200   -1.0480   20.1240 H   0  0  0  0  0  0  0  0  0  0  0  0
    6.9160   -2.0390   24.0730 C   0  0  0  0  0  0  0  0  0  0  0  0
    6.9500   -0.9210   24.9190 C   0  0  0  0  0  0  0  0  0  0  0  0
    6.4820   -1.0230   26.2170 C   0  0  0  0  0  0  0  0  0  0  0  0
    6.5210    0.3810   27.2450 Cl  0  0  0  0  0  0  0  0  0  0  0  0
    5.9540   -2.2080   26.7240 C   0  0  0  0  0  0  0  0  0  0  0  0
    5.8760   -3.3010   25.8840 C   0  0  0  0  0  0  0  0  0  0  0  0
    6.3470   -3.2220   24.5760 C   0  0  0  0  0  0  0  0  0  0  0  0
    6.2030   -4.4420   23.7140 C   0  0  0  0  0  0  0  0  0  0  0  0
    5.4420   -5.3580   24.0060 O   0  0  0  0  0  0  0  0  0  0  0  0
    5.4510   -4.2410   26.2170 H   0  0  0  0  0  0  0  0  0  0  0  0
    5.6030   -2.2560   27.7500 H   0  0  0  0  0  0  0  0  0  0  0  0
    7.3170    0.0430   24.5870 H   0  0  0  0  0  0  0  0  0  0  0  0
    8.8440   -3.6080   22.9180 H   0  0  0  0  0  0  0  0  0  0  0  0
    8.2210   -3.4770   21.2650 H   0  0  0  0  0  0  0  0  0  0  0  0
    7.7590   -5.7150   21.1340 H   0  0  0  0  0  0  0  0  0  0  0  0
    6.6150   -6.4660   22.2780 H   0  0  0  0  0  0  0  0  0  0  0  0
    4.7400   -5.2000   21.2680 H   0  0  0  0  0  0  0  0  0  0  0  0
    5.8380   -4.3490   20.1830 H   0  0  0  0  0  0  0  0  0  0  0  0
    6.4490   -6.6130   19.3240 H   0  0  0  0  0  0  0  0  0  0  0  0
    4.9210   -6.0340   18.8680 H   0  0  0  0  0  0  0  0  0  0  0  0
    4.0840   -7.3450   20.9100 H   0  0  0  0  0  0  0  0  0  0  0  0
    4.4260   -8.1670   19.3760 H   0  0  0  0  0  0  0  0  0  0  0  0
    5.5890   -8.2270   20.7150 H   0  0  0  0  0  0  0  0  0  0  0  0
  1  2  1  0  0  0  0
  1 70  1  0  0  0  0
  1 71  1  0  0  0  0
  1 72  1  0  0  0  0
  2  3  1  0  0  0  0
  2 68  1  0  0  0  0
  2 69  1  0  0  0  0
  3  4  1  0  0  0  0
  3 66  1  0  0  0  0
  3 67  1  0  0  0  0
  4  5  1  0  0  0  0
  4 64  1  0  0  0  0
  4 65  1  0  0  0  0
  5  6  1  0  0  0  0
  5 57  1  0  0  0  0
  6  7  1  0  0  0  0
  6 62  1  0  0  0  0
  6 63  1  0  0  0  0
  7  8  1  6  0  0  0
  7 28  1  0  0  0  0
  7 50  1  0  0  0  0
  8  9  2  0  0  0  0
  8 10  1  0  0  0  0
 10 11  1  0  0  0  0
 10 27  1  0  0  0  0
 11 12  2  0  0  0  0
 11 20  1  0  0  0  0
 12 13  1  0  0  0  0
 12 26  1  0  0  0  0
 13 14  2  0  0  0  0
 14 15  1  0  0  0  0
 14 25  1  0  0  0  0
 15 16  2  0  0  0  0
 15 20  1  0  0  0  0
 16 17  1  0  0  0  0
 16 24  1  0  0  0  0
 17 18  2  0  0  0  0
 17 23  1  0  0  0  0
 18 19  1  0  0  0  0
 18 22  1  0  0  0  0
 19 20  2  0  0  0  0
 19 21  1  0  0  0  0
 27 28  1  0  0  0  0
 27 48  1  0  0  0  0
 27 49  1  0  0  0  0
 28 29  1  0  0  0  0
 28 47  1  1  0  0  0
 29 30  1  0  0  0  0
 29 45  1  0  0  0  0
 29 46  1  0  0  0  0
 30 31  1  0  0  0  0
 31 32  1  0  0  0  0
 31 43  1  0  0  0  0
 31 44  1  0  0  0  0
 32 33  1  0  0  0  0
 32 37  1  0  0  0  0
 32 42  1  0  0  0  0
 33 34  1  0  0  0  0
 33 40  1  0  0  0  0
 33 41  1  0  0  0  0
 34 35  2  0  0  0  0
 34 36  2  0  0  0  0
 34 37  1  0  0  0  0
 37 38  1  0  0  0  0
 37 39  1  0  0  0  0
 50 51  2  0  0  0  0
 50 56  1  0  0  0  0
 51 52  1  0  0  0  0
 51 61  1  0  0  0  0
 52 53  1  0  0  0  0
 52 54  2  0  0  0  0
 54 55  1  0  0  0  0
 54 60  1  0  0  0  0
 55 56  2  0  0  0  0
 55 59  1  0  0  0  0
 56 57  1  0  0  0  0
 57 58  2  0  0  0  0
M  CHG  1   2   1
M  END
>  <MODEL>
       1

$$$$
