output/tmp_first_model_11_24.pdb
 OpenBabel07222623443D

 70 75  0  0  1  0  0  0  0  0999 V2000
    6.5240    4.5850   21.3320 C   0  0  0  0  0  0  0  0  0  0  0  0
    6.8350    3.6290   22.3940 N   0  3  0  0  0  0  0  0  0  0  0  0
    7.9150    4.0550   23.3070 C   0  0  0  0  0  0  0  0  0  0  0  0
    8.1190    3.0580   24.4430 C   0  0  0  0  0  0  0  0  0  0  0  0
    8.7110    1.8150   23.9930 N   0  0  0  0  0  0  0  0  0  0  0  0
    7.9440    0.5850   23.9260 C   0  0  0  0  0  0  0  0  0  0  0  0
    8.3170   -0.2700   22.6950 C   0  0  2  0  0  0  0  0  0  0  0  0
    7.7630    0.4130   21.4390 C   0  0  0  0  0  0  0  0  0  0  0  0
    7.9480    1.5760   21.0910 O   0  0  0  0  0  0  0  0  0  0  0  0
    6.9090   -0.4320   20.7960 N   0  0  0  0  0  0  0  0  0  0  0  0
    6.1160    0.0920   19.7470 C   0  0  0  0  0  0  0  0  0  0  0  0
    6.4540   -0.2030   18.4530 C   0  0  0  0  0  0  0  0  0  0  0  0
    5.7670    0.2360   17.3770 N   0  0  0  0  0  0  0  0  0  0  0  0
    4.7350    1.0120   17.6030 C   0  0  0  0  0  0  0  0  0  0  0  0
    4.3050    1.4150   18.9020 C   0  0  0  0  0  0  0  0  0  0  0  0
    3.1870    2.2710   19.0790 C   0  0  0  0  0  0  0  0  0  0  0  0
    2.7980    2.6570   20.3330 C   0  0  0  0  0  0  0  0  0  0  0  0
    3.4970    2.1970   21.4660 C   0  0  0  0  0  0  0  0  0  0  0  0
    4.5800    1.3610   21.3230 C   0  0  0  0  0  0  0  0  0  0  0  0
    5.0150    0.9500   20.0240 C   0  0  0  0  0  0  0  0  0  0  0  0
    5.0900    1.0020   22.2130 H   0  0  0  0  0  0  0  0  0  0  0  0
    3.1750    2.5050   22.4570 H   0  0  0  0  0  0  0  0  0  0  0  0
    1.9460    3.3180   20.4570 H   0  0  0  0  0  0  0  0  0  0  0  0
    2.6670    2.6190   18.1930 H   0  0  0  0  0  0  0  0  0  0  0  0
    4.1830    1.3690   16.7340 H   0  0  0  0  0  0  0  0  0  0  0  0
    7.3270   -0.8230   18.2600 H   0  0  0  0  0  0  0  0  0  0  0  0
    6.4770   -1.5380   21.6320 C   0  0  0  0  0  0  0  0  0  0  0  0
    7.6050   -1.6580   22.6570 C   0  0  2  0  0  0  0  0  0  0  0  0
    7.1660   -2.2640   23.9830 C   0  0  0  0  0  0  0  0  0  0  0  0
    6.0780   -1.5520   24.5350 O   0  0  0  0  0  0  0  0  0  0  0  0
    5.7050   -2.0040   25.8190 C   0  0  0  0  0  0  0  0  0  0  0  0
    4.6110   -1.0960   26.3450 C   0  0  0  0  0  0  0  0  0  0  0  0
    3.2670   -1.2390   25.6210 C   0  0  0  0  0  0  0  0  0  0  0  0
    2.6160   -1.7170   26.8030 O   0  0  0  0  0  0  0  0  0  0  0  0
    3.8350   -1.6350   27.5520 C   0  0  0  0  0  0  0  0  0  0  0  0
    3.7400   -0.9640   28.4130 H   0  0  0  0  0  0  0  0  0  0  0  0
    4.1680   -2.6230   27.9000 H   0  0  0  0  0  0  0  0  0  0  0  0
    2.8130   -0.3170   25.2410 H   0  0  0  0  0  0  0  0  0  0  0  0
    3.2780   -2.0060   24.8370 H   0  0  0  0  0  0  0  0  0  0  0  0
    4.9630   -0.0670   26.4420 H   0  0  0  0  0  0  0  0  0  0  0  0
    6.5730   -2.0050   26.4960 H   0  0  0  0  0  0  0  0  0  0  0  0
    5.3320   -3.0380   25.7580 H   0  0  0  0  0  0  0  0  0  0  0  0
    8.0120   -2.2610   24.6860 H   0  0  0  0  0  0  0  0  0  0  0  0
    6.8780   -3.3110   23.8190 H   0  0  0  0  0  0  0  0  0  0  0  0
    8.3300   -2.3680   22.2570 H   0  0  0  0  0  0  0  0  0  0  0  0
    5.5200   -1.3250   22.1190 H   0  0  0  0  0  0  0  0  0  0  0  0
    6.3620   -2.4440   21.0360 H   0  0  0  0  0  0  0  0  0  0  0  0
    9.8230   -0.3590   22.6160 C   0  0  0  0  0  0  0  0  0  0  0  0
   10.4450   -1.3470   21.8490 C   0  0  0  0  0  0  0  0  0  0  0  0
   11.8170   -1.4050   21.7400 C   0  0  0  0  0  0  0  0  0  0  0  0
   12.4110   -2.6310   20.6460 Cl  0  0  0  0  0  0  0  0  0  0  0  0
   12.6360   -0.5030   22.4330 C   0  0  0  0  0  0  0  0  0  0  0  0
   12.0240    0.4970   23.1540 C   0  0  0  0  0  0  0  0  0  0  0  0
   10.6390    0.6040   23.2100 C   0  0  0  0  0  0  0  0  0  0  0  0
   10.0680    1.8170   23.8560 C   0  0  0  0  0  0  0  0  0  0  0  0
   10.7720    2.7490   24.2320 O   0  0  0  0  0  0  0  0  0  0  0  0
   12.6200    1.2440   23.6630 H   0  0  0  0  0  0  0  0  0  0  0  0
   13.7220   -0.4900   22.4040 H   0  0  0  0  0  0  0  0  0  0  0  0
    9.8830   -2.0830   21.2860 H   0  0  0  0  0  0  0  0  0  0  0  0
    8.1060   -0.0100   24.8320 H   0  0  0  0  0  0  0  0  0  0  0  0
    6.8870    0.8320   23.8590 H   0  0  0  0  0  0  0  0  0  0  0  0
    8.8210    3.4770   25.1600 H   0  0  0  0  0  0  0  0  0  0  0  0
    7.1770    2.8310   24.9490 H   0  0  0  0  0  0  0  0  0  0  0  0
    8.8510    4.1400   22.7450 H   0  0  0  0  0  0  0  0  0  0  0  0
    7.6970    5.0410   23.7280 H   0  0  0  0  0  0  0  0  0  0  0  0
    5.9700    3.4550   22.9320 H   0  0  0  0  0  0  0  0  0  0  0  0
    7.1140    2.7390   21.9420 H   0  0  0  0  0  0  0  0  0  0  0  0
    6.3700    5.5890   21.7360 H   0  0  0  0  0  0  0  0  0  0  0  0
    7.3500    4.6390   20.6190 H   0  0  0  0  0  0  0  0  0  0  0  0
    5.6200    4.2650   20.8050 H   0  0  0  0  0  0  0  0  0  0  0  0
  1  2  1  0  0  0  0
  1 68  1  0  0  0  0
  1 69  1  0  0  0  0
  1 70  1  0  0  0  0
  2  3  1  0  0  0  0
  2 66  1  0  0  0  0
  2 67  1  0  0  0  0
  3  4  1  0  0  0  0
  3 64  1  0  0  0  0
  3 65  1  0  0  0  0
  4  5  1  0  0  0  0
  4 62  1  0  0  0  0
  4 63  1  0  0  0  0
  5  6  1  0  0  0  0
  5 55  1  0  0  0  0
  6  7  1  0  0  0  0
  6 60  1  0  0  0  0
  6 61  1  0  0  0  0
  7  8  1  6  0  0  0
  7 28  1  0  0  0  0
  7 48  1  0  0  0  0
  8  9  2  0  0  0  0
  8 10  1  0  0  0  0
 10 11  1  0  0  0  0
 10 27  1  0  0  0  0
 11 12  2  0  0  0  0
 11 20  1  0  0  0  0
 12 13  1  0  0  0  0
 12 26  1  0  0  0  0
 13 14  2  0  0  0  0
 14 15  1  0  0  0  0
 14 25  1  0  0  0  0
 15 16  2  0  0  0  0
 15 20  1  0  0  0  0
 16 17  1  0  0  0  0
 16 24  1  0  0  0  0
 17 18  2  0  0  0  0
 17 23  1  0  0  0  0
 18 19  1  0  0  0  0
 18 22  1  0  0  0  0
 19 20  2  0  0  0  0
 19 21  1  0  0  0  0
 27 28  1  0  0  0  0
 27 46  1  0  0  0  0
 27 47  1  0  0  0  0
 28 29  1  0  0  0  0
 28 45  1  6  0  0  0
 29 30  1  0  0  0  0
 29 43  1  0  0  0  0
 29 44  1  0  0  0  0
 30 31  1  0  0  0  0
 31 32  1  0  0  0  0
 31 41  1  0  0  0  0
 31 42  1  0  0  0  0
 32 33  1  0  0  0  0
 32 35  1  0  0  0  0
 32 40  1  0  0  0  0
 33 34  1  0  0  0  0
 33 38  1  0  0  0  0
 33 39  1  0  0  0  0
 34 35  1  0  0  0  0
 35 36  1  0  0  0  0
 35 37  1  0  0  0  0
 48 49  2  0  0  0  0
 48 54  1  0  0  0  0
 49 50  1  0  0  0  0
 49 59  1  0  0  0  0
 50 51  1  0  0  0  0
 50 52  2  0  0  0  0
 52 53  1  0  0  0  0
 52 58  1  0  0  0  0
 53 54  2  0  0  0  0
 53 57  1  0  0  0  0
 54 55  1  0  0  0  0
 55 56  2  0  0  0  0
M  CHG  1   2   1
M  END
>  <MODEL>
       1

$$$$
