output/tmp_first_model_20_30.pdb
 OpenBabel07232603433D

 66 71  0  0  1  0  0  0  0  0999 V2000
    8.1530    5.2160   22.4340 C   0  0  0  0  0  0  0  0  0  0  0  0
    8.3390    4.2680   23.5060 N   0  0  0  0  0  0  0  0  0  0  0  0
    7.3740    3.3590   23.7760 C   0  0  0  0  0  0  0  0  0  0  0  0
    6.3430    3.2400   23.1320 O   0  0  0  0  0  0  0  0  0  0  0  0
    7.7110    2.4590   24.9630 C   0  0  0  0  0  0  0  0  0  0  0  0
    8.4500    1.2950   24.4970 N   0  0  0  0  0  0  0  0  0  0  0  0
    7.7070    0.1390   24.0300 C   0  0  0  0  0  0  0  0  0  0  0  0
    8.3680   -0.5960   22.8270 C   0  0  2  0  0  0  0  0  0  0  0  0
    8.0840    0.1690   21.4980 C   0  0  0  0  0  0  0  0  0  0  0  0
    8.7030    1.0970   21.0210 O   0  0  0  0  0  0  0  0  0  0  0  0
    6.9380   -0.3750   20.9440 N   0  0  0  0  0  0  0  0  0  0  0  0
    6.2340    0.1910   19.8530 C   0  0  0  0  0  0  0  0  0  0  0  0
    6.6100   -0.0910   18.5660 C   0  0  0  0  0  0  0  0  0  0  0  0
    5.9370    0.3290   17.4670 N   0  0  0  0  0  0  0  0  0  0  0  0
    4.8470    1.0340   17.6450 C   0  0  0  0  0  0  0  0  0  0  0  0
    4.3490    1.4170   18.9230 C   0  0  0  0  0  0  0  0  0  0  0  0
    3.1900    2.2290   19.0790 C   0  0  0  0  0  0  0  0  0  0  0  0
    2.7510    2.5780   20.3260 C   0  0  0  0  0  0  0  0  0  0  0  0
    3.4500    2.1360   21.4730 C   0  0  0  0  0  0  0  0  0  0  0  0
    4.5730    1.3540   21.3470 C   0  0  0  0  0  0  0  0  0  0  0  0
    5.0550    0.9780   20.0670 C   0  0  0  0  0  0  0  0  0  0  0  0
    5.1220    1.0530   22.2340 H   0  0  0  0  0  0  0  0  0  0  0  0
    3.1070    2.4230   22.4620 H   0  0  0  0  0  0  0  0  0  0  0  0
    1.8750    3.2100   20.4470 H   0  0  0  0  0  0  0  0  0  0  0  0
    2.6690    2.5730   18.1880 H   0  0  0  0  0  0  0  0  0  0  0  0
    4.2990    1.3380   16.7510 H   0  0  0  0  0  0  0  0  0  0  0  0
    7.4980   -0.6920   18.3820 H   0  0  0  0  0  0  0  0  0  0  0  0
    6.4510   -1.5630   21.6100 C   0  0  0  0  0  0  0  0  0  0  0  0
    7.6110   -1.9220   22.5490 C   0  0  2  0  0  0  0  0  0  0  0  0
    7.1910   -2.7710   23.7640 C   0  0  0  0  0  0  0  0  0  0  0  0
    6.7600   -4.1340   23.2850 C   0  0  0  0  0  0  0  0  0  0  0  0
    5.4280   -4.4380   22.9920 C   0  0  0  0  0  0  0  0  0  0  0  0
    5.1120   -5.5790   22.2560 C   0  0  0  0  0  0  0  0  0  0  0  0
    6.1240   -6.4180   21.7920 C   0  0  0  0  0  0  0  0  0  0  0  0
    7.4440   -6.1720   22.1540 C   0  0  0  0  0  0  0  0  0  0  0  0
    7.7380   -5.0650   22.9470 C   0  0  0  0  0  0  0  0  0  0  0  0
    8.7550   -4.8730   23.2840 H   0  0  0  0  0  0  0  0  0  0  0  0
    8.2480   -6.8260   21.8190 H   0  0  0  0  0  0  0  0  0  0  0  0
    5.8810   -7.2820   21.1800 H   0  0  0  0  0  0  0  0  0  0  0  0
    4.0730   -5.8010   22.0230 H   0  0  0  0  0  0  0  0  0  0  0  0
    4.6310   -3.7810   23.3410 H   0  0  0  0  0  0  0  0  0  0  0  0
    8.0490   -2.8630   24.4430 H   0  0  0  0  0  0  0  0  0  0  0  0
    6.3810   -2.2790   24.3180 H   0  0  0  0  0  0  0  0  0  0  0  0
    8.3040   -2.5320   21.9640 H   0  0  0  0  0  0  0  0  0  0  0  0
    5.5090   -1.3780   22.1520 H   0  0  0  0  0  0  0  0  0  0  0  0
    6.2380   -2.3560   20.8810 H   0  0  0  0  0  0  0  0  0  0  0  0
    9.8490   -0.7650   23.1220 C   0  0  0  0  0  0  0  0  0  0  0  0
   10.6370   -1.7320   22.4680 C   0  0  0  0  0  0  0  0  0  0  0  0
   11.9940   -1.8210   22.7450 C   0  0  0  0  0  0  0  0  0  0  0  0
   12.9910   -2.9320   21.8320 Cl  0  0  0  0  0  0  0  0  0  0  0  0
   12.6130   -1.0020   23.6950 C   0  0  0  0  0  0  0  0  0  0  0  0
   11.8560   -0.0190   24.3040 C   0  0  0  0  0  0  0  0  0  0  0  0
   10.5010    0.1230   23.9920 C   0  0  0  0  0  0  0  0  0  0  0  0
    9.8070    1.3690   24.4440 C   0  0  0  0  0  0  0  0  0  0  0  0
   10.4190    2.3950   24.7400 O   0  0  0  0  0  0  0  0  0  0  0  0
   12.3200    0.6930   24.9820 H   0  0  0  0  0  0  0  0  0  0  0  0
   13.6750   -1.1140   23.9030 H   0  0  0  0  0  0  0  0  0  0  0  0
   10.2210   -2.3870   21.7040 H   0  0  0  0  0  0  0  0  0  0  0  0
    6.7040    0.4720   23.7400 H   0  0  0  0  0  0  0  0  0  0  0  0
    7.6030   -0.5630   24.8630 H   0  0  0  0  0  0  0  0  0  0  0  0
    6.7740    2.1740   25.4530 H   0  0  0  0  0  0  0  0  0  0  0  0
    8.3340    3.0080   25.6730 H   0  0  0  0  0  0  0  0  0  0  0  0
    9.2400    4.1280   23.9390 H   0  0  0  0  0  0  0  0  0  0  0  0
    9.1260    5.5690   22.0870 H   0  0  0  0  0  0  0  0  0  0  0  0
    7.5740    6.0740   22.7900 H   0  0  0  0  0  0  0  0  0  0  0  0
    7.6070    4.7080   21.6310 H   0  0  0  0  0  0  0  0  0  0  0  0
  1  2  1  0  0  0  0
  1 64  1  0  0  0  0
  1 65  1  0  0  0  0
  1 66  1  0  0  0  0
  2  3  1  0  0  0  0
  2 63  1  0  0  0  0
  3  4  2  0  0  0  0
  3  5  1  0  0  0  0
  5  6  1  0  0  0  0
  5 61  1  0  0  0  0
  5 62  1  0  0  0  0
  6  7  1  0  0  0  0
  6 54  1  0  0  0  0
  7  8  1  0  0  0  0
  7 59  1  0  0  0  0
  7 60  1  0  0  0  0
  8  9  1  6  0  0  0
  8 29  1  0  0  0  0
  8 47  1  0  0  0  0
  9 10  2  0  0  0  0
  9 11  1  0  0  0  0
 11 12  1  0  0  0  0
 11 28  1  0  0  0  0
 12 13  2  0  0  0  0
 12 21  1  0  0  0  0
 13 14  1  0  0  0  0
 13 27  1  0  0  0  0
 14 15  2  0  0  0  0
 15 16  1  0  0  0  0
 15 26  1  0  0  0  0
 16 17  2  0  0  0  0
 16 21  1  0  0  0  0
 17 18  1  0  0  0  0
 17 25  1  0  0  0  0
 18 19  2  0  0  0  0
 18 24  1  0  0  0  0
 19 20  1  0  0  0  0
 19 23  1  0  0  0  0
 20 21  2  0  0  0  0
 20 22  1  0  0  0  0
 28 29  1  0  0  0  0
 28 45  1  0  0  0  0
 28 46  1  0  0  0  0
 29 30  1  0  0  0  0
 29 44  1  6  0  0  0
 30 31  1  0  0  0  0
 30 42  1  0  0  0  0
 30 43  1  0  0  0  0
 31 32  2  0  0  0  0
 31 36  1  0  0  0  0
 32 33  1  0  0  0  0
 32 41  1  0  0  0  0
 33 34  2  0  0  0  0
 33 40  1  0  0  0  0
 34 35  1  0  0  0  0
 34 39  1  0  0  0  0
 35 36  2  0  0  0  0
 35 38  1  0  0  0  0
 36 37  1  0  0  0  0
 47 48  2  0  0  0  0
 47 53  1  0  0  0  0
 48 49  1  0  0  0  0
 48 58  1  0  0  0  0
 49 50  1  0  0  0  0
 49 51  2  0  0  0  0
 51 52  1  0  0  0  0
 51 57  1  0  0  0  0
 52 53  2  0  0  0  0
 52 56  1  0  0  0  0
 53 54  1  0  0  0  0
 54 55  2  0  0  0  0
M  END
>  <MODEL>
       1

$$$$
