output/tmp_first_model_7_34.pdb
 OpenBabel07222621533D

 58 63  0  0  1  0  0  0  0  0999 V2000
    7.7610   -3.0230   23.2920 C   0  0  0  0  0  0  0  0  0  0  0  0
    8.0100   -1.9410   22.2530 C   0  0  1  0  0  0  0  0  0  0  0  0
    6.8330   -1.8300   21.2750 C   0  0  0  0  0  0  0  0  0  0  0  0
    6.8440   -0.4390   20.8920 N   0  0  0  0  0  0  0  0  0  0  0  0
    6.0330    0.0500   19.8430 C   0  0  0  0  0  0  0  0  0  0  0  0
    6.4120   -0.1700   18.5440 C   0  0  0  0  0  0  0  0  0  0  0  0
    5.7420    0.2820   17.4620 N   0  0  0  0  0  0  0  0  0  0  0  0
    4.6460    0.9620   17.6740 C   0  0  0  0  0  0  0  0  0  0  0  0
    4.1000    1.2000   18.9630 C   0  0  0  0  0  0  0  0  0  0  0  0
    2.8660    1.8830   19.1250 C   0  0  0  0  0  0  0  0  0  0  0  0
    2.2920    2.0070   20.3630 C   0  0  0  0  0  0  0  0  0  0  0  0
    2.9300    1.4450   21.4970 C   0  0  0  0  0  0  0  0  0  0  0  0
    4.1400    0.7970   21.3650 C   0  0  0  0  0  0  0  0  0  0  0  0
    4.7760    0.6900   20.0910 C   0  0  0  0  0  0  0  0  0  0  0  0
    4.6290    0.3720   22.2340 H   0  0  0  0  0  0  0  0  0  0  0  0
    2.4770    1.5690   22.4780 H   0  0  0  0  0  0  0  0  0  0  0  0
    1.3620    2.5600   20.4810 H   0  0  0  0  0  0  0  0  0  0  0  0
    2.3780    2.2700   18.2350 H   0  0  0  0  0  0  0  0  0  0  0  0
    4.1400    1.3640   16.7990 H   0  0  0  0  0  0  0  0  0  0  0  0
    7.3400   -0.6940   18.3380 H   0  0  0  0  0  0  0  0  0  0  0  0
    7.6490    0.3740   21.6610 C   0  0  0  0  0  0  0  0  0  0  0  0
    7.7800    1.5690   21.4900 O   0  0  0  0  0  0  0  0  0  0  0  0
    8.2610   -0.4820   22.7920 C   0  0  1  0  0  0  0  0  0  0  0  0
    7.4450   -0.1110   24.0610 C   0  0  0  0  0  0  0  0  0  0  0  0
    8.0500   -0.5880   25.3030 N   0  0  0  0  0  0  0  0  0  0  0  0
    7.2010   -0.9580   26.4340 C   0  0  0  0  0  0  0  0  0  0  0  0
    6.9990   -2.4410   26.5770 C   0  0  0  0  0  0  0  0  0  0  0  0
    7.9490   -3.4470   26.7880 C   0  0  0  0  0  0  0  0  0  0  0  0
    7.3370   -4.6310   26.8000 N   0  0  0  0  0  0  0  0  0  0  0  0
    6.0720   -4.3230   26.5980 N   0  0  0  0  0  0  0  0  0  0  0  0
    5.0490   -5.3440   26.4670 C   0  0  0  0  0  0  0  0  0  0  0  0
    4.4090   -5.0950   25.6180 H   0  0  0  0  0  0  0  0  0  0  0  0
    5.5670   -6.2870   26.2850 H   0  0  0  0  0  0  0  0  0  0  0  0
    4.4430   -5.4210   27.3740 H   0  0  0  0  0  0  0  0  0  0  0  0
    5.8090   -3.0300   26.4620 N   0  0  0  0  0  0  0  0  0  0  0  0
    9.0170   -3.3750   26.9200 H   0  0  0  0  0  0  0  0  0  0  0  0
    7.6900   -0.5560   27.3280 H   0  0  0  0  0  0  0  0  0  0  0  0
    6.2210   -0.4870   26.3180 H   0  0  0  0  0  0  0  0  0  0  0  0
    9.3890   -0.4320   25.5550 C   0  0  0  0  0  0  0  0  0  0  0  0
    9.8670   -0.4610   26.6800 O   0  0  0  0  0  0  0  0  0  0  0  0
   10.2570   -0.2250   24.3640 C   0  0  0  0  0  0  0  0  0  0  0  0
   11.6230   -0.0860   24.6110 C   0  0  0  0  0  0  0  0  0  0  0  0
   12.5010    0.1820   23.5860 C   0  0  0  0  0  0  0  0  0  0  0  0
   11.9810    0.2820   22.3020 C   0  0  0  0  0  0  0  0  0  0  0  0
   12.8460    0.5860   21.3220 F   0  0  0  0  0  0  0  0  0  0  0  0
   10.6370    0.0800   22.0220 C   0  0  0  0  0  0  0  0  0  0  0  0
    9.7350   -0.1820   23.0640 C   0  0  0  0  0  0  0  0  0  0  0  0
   10.3000    0.1330   20.9950 H   0  0  0  0  0  0  0  0  0  0  0  0
   13.5640    0.3150   23.7570 H   0  0  0  0  0  0  0  0  0  0  0  0
   11.9720   -0.1890   25.6330 H   0  0  0  0  0  0  0  0  0  0  0  0
    6.4320   -0.5280   23.9770 H   0  0  0  0  0  0  0  0  0  0  0  0
    7.3490    0.9870   24.0820 H   0  0  0  0  0  0  0  0  0  0  0  0
    6.9400   -2.4710   20.3960 H   0  0  0  0  0  0  0  0  0  0  0  0
    5.8840   -2.1170   21.7560 H   0  0  0  0  0  0  0  0  0  0  0  0
    8.9080   -2.2020   21.6750 H   0  0  0  0  0  0  0  0  0  0  0  0
    6.8110   -2.8560   23.8100 H   0  0  0  0  0  0  0  0  0  0  0  0
    7.7120   -4.0020   22.8040 H   0  0  0  0  0  0  0  0  0  0  0  0
    8.5570   -3.0390   24.0410 H   0  0  0  0  0  0  0  0  0  0  0  0
  1  2  1  0  0  0  0
  1 56  1  0  0  0  0
  1 57  1  0  0  0  0
  1 58  1  0  0  0  0
  2  3  1  0  0  0  0
  2 23  1  0  0  0  0
  2 55  1  6  0  0  0
  3  4  1  0  0  0  0
  3 53  1  0  0  0  0
  3 54  1  0  0  0  0
  4  5  1  0  0  0  0
  4 21  1  0  0  0  0
  5  6  2  0  0  0  0
  5 14  1  0  0  0  0
  6  7  1  0  0  0  0
  6 20  1  0  0  0  0
  7  8  2  0  0  0  0
  8  9  1  0  0  0  0
  8 19  1  0  0  0  0
  9 10  2  0  0  0  0
  9 14  1  0  0  0  0
 10 11  1  0  0  0  0
 10 18  1  0  0  0  0
 11 12  2  0  0  0  0
 11 17  1  0  0  0  0
 12 13  1  0  0  0  0
 12 16  1  0  0  0  0
 13 14  2  0  0  0  0
 13 15  1  0  0  0  0
 21 22  2  0  0  0  0
 23 21  1  6  0  0  0
 23 24  1  0  0  0  0
 23 47  1  0  0  0  0
 24 25  1  0  0  0  0
 24 51  1  0  0  0  0
 24 52  1  0  0  0  0
 25 26  1  0  0  0  0
 25 39  1  0  0  0  0
 26 27  1  0  0  0  0
 26 37  1  0  0  0  0
 26 38  1  0  0  0  0
 27 28  1  0  0  0  0
 27 35  2  0  0  0  0
 28 29  2  0  0  0  0
 28 36  1  0  0  0  0
 29 30  1  0  0  0  0
 30 31  1  0  0  0  0
 30 35  1  0  0  0  0
 31 32  1  0  0  0  0
 31 33  1  0  0  0  0
 31 34  1  0  0  0  0
 39 40  2  0  0  0  0
 39 41  1  0  0  0  0
 41 42  2  0  0  0  0
 41 47  1  0  0  0  0
 42 43  1  0  0  0  0
 42 50  1  0  0  0  0
 43 44  2  0  0  0  0
 43 49  1  0  0  0  0
 44 45  1  0  0  0  0
 44 46  1  0  0  0  0
 46 47  2  0  0  0  0
 46 48  1  0  0  0  0
M  END
>  <MODEL>
       1

$$$$
