
     RDKit          3D

 57 62  0  0  0  0  0  0  0  0999 V2000
    8.8515   -2.7969   23.6515 C   0  0  0  0  0  0  0  0  0  0  0  0
    8.9103   -1.7992   22.5047 C   0  0  1  0  0  0  0  0  0  0  0  0
    7.5679   -1.5488   21.8070 C   0  0  0  0  0  0  0  0  0  0  0  0
    7.7769   -0.2672   21.1577 N   0  0  0  0  0  0  0  0  0  0  0  0
    6.9398    0.2615   20.1385 C   0  0  0  0  0  0  0  0  0  0  0  0
    7.2111   -0.0157   18.8210 C   0  0  0  0  0  0  0  0  0  0  0  0
    6.4869    0.4441   17.7716 N   0  0  0  0  0  0  0  0  0  0  0  0
    5.4488    1.2059   18.0371 C   0  0  0  0  0  0  0  0  0  0  0  0
    5.0352    1.5532   19.3581 C   0  0  0  0  0  0  0  0  0  0  0  0
    3.9070    2.3868   19.6103 C   0  0  0  0  0  0  0  0  0  0  0  0
    3.5443    2.6917   20.8962 C   0  0  0  0  0  0  0  0  0  0  0  0
    4.2744    2.1754   21.9868 C   0  0  0  0  0  0  0  0  0  0  0  0
    5.3638    1.3664   21.7674 C   0  0  0  0  0  0  0  0  0  0  0  0
    5.7881    1.0530   20.4454 C   0  0  0  0  0  0  0  0  0  0  0  0
    8.8203    0.4529   21.6998 C   0  0  0  0  0  0  0  0  0  0  0  0
    9.1661    1.5518   21.3219 O   0  0  0  0  0  0  0  0  0  0  0  0
    9.4258   -0.3785   22.8594 C   0  0  1  0  0  0  0  0  0  0  0  0
    8.8444    0.1400   24.2023 C   0  0  0  0  0  0  0  0  0  0  0  0
    9.2280    1.5273   24.4390 N   0  0  0  0  0  0  0  0  0  0  0  0
    8.3836    2.3088   25.3395 C   0  0  0  0  0  0  0  0  0  0  0  0
    8.4276    3.7793   25.0992 C   0  0  0  0  0  0  0  0  0  0  0  0
    8.8091    4.6764   25.9759 N   0  0  0  0  0  0  0  0  0  0  0  0
    8.6893    5.8707   25.3627 N   0  0  0  0  0  0  0  0  0  0  0  0
    8.2120    5.7277   24.1760 N   0  0  0  0  0  0  0  0  0  0  0  0
    8.0283    4.4189   23.9854 N   0  0  0  0  0  0  0  0  0  0  0  0
    7.4254    3.9212   22.7718 C   0  0  0  0  0  0  0  0  0  0  0  0
   10.5326    1.9228   24.2548 C   0  0  0  0  0  0  0  0  0  0  0  0
   10.9652    3.0046   24.6242 O   0  0  0  0  0  0  0  0  0  0  0  0
   11.4361    0.9506   23.5535 C   0  0  0  0  0  0  0  0  0  0  0  0
   12.8067    1.2371   23.5190 C   0  0  0  0  0  0  0  0  0  0  0  0
   13.6853    0.3928   22.8707 C   0  0  0  0  0  0  0  0  0  0  0  0
   13.1653   -0.7475   22.2703 C   0  0  0  0  0  0  0  0  0  0  0  0
   14.0001   -1.5792   21.6264 F   0  0  0  0  0  0  0  0  0  0  0  0
   11.8206   -1.0589   22.2869 C   0  0  0  0  0  0  0  0  0  0  0  0
   10.9267   -0.1944   22.9251 C   0  0  0  0  0  0  0  0  0  0  0  0
    9.8086   -2.8647   24.1784 H   0  0  0  0  0  0  0  0  0  0  0  0
    8.5953   -3.7975   23.2934 H   0  0  0  0  0  0  0  0  0  0  0  0
    8.0975   -2.5071   24.3886 H   0  0  0  0  0  0  0  0  0  0  0  0
    9.5666   -2.2081   21.7315 H   0  0  0  0  0  0  0  0  0  0  0  0
    6.7496   -1.5299   22.5464 H   0  0  0  0  0  0  0  0  0  0  0  0
    7.3366   -2.3177   21.0682 H   0  0  0  0  0  0  0  0  0  0  0  0
    8.0708   -0.6317   18.5679 H   0  0  0  0  0  0  0  0  0  0  0  0
    4.8714    1.5845   17.1926 H   0  0  0  0  0  0  0  0  0  0  0  0
    3.3440    2.7856   18.7703 H   0  0  0  0  0  0  0  0  0  0  0  0
    2.6884    3.3328   21.0902 H   0  0  0  0  0  0  0  0  0  0  0  0
    3.9909    2.4327   23.0046 H   0  0  0  0  0  0  0  0  0  0  0  0
    5.9279    0.9823   22.6108 H   0  0  0  0  0  0  0  0  0  0  0  0
    7.7515    0.0820   24.1715 H   0  0  0  0  0  0  0  0  0  0  0  0
    9.1848   -0.5143   25.0222 H   0  0  0  0  0  0  0  0  0  0  0  0
    7.3474    1.9675   25.2001 H   0  0  0  0  0  0  0  0  0  0  0  0
    8.6441    2.1493   26.3943 H   0  0  0  0  0  0  0  0  0  0  0  0
    7.9650    4.2789   21.8975 H   0  0  0  0  0  0  0  0  0  0  0  0
    6.3798    4.2262   22.6976 H   0  0  0  0  0  0  0  0  0  0  0  0
    7.4811    2.8396   22.7813 H   0  0  0  0  0  0  0  0  0  0  0  0
   13.1758    2.1318   24.0074 H   0  0  0  0  0  0  0  0  0  0  0  0
   14.7513    0.6001   22.8128 H   0  0  0  0  0  0  0  0  0  0  0  0
   11.4927   -1.9712   21.8024 H   0  0  0  0  0  0  0  0  0  0  0  0
  1  2  1  0
  2  3  1  0
  3  4  1  0
  4  5  1  0
  5  6  2  0
  6  7  1  0
  7  8  2  0
  8  9  1  0
  9 10  2  0
 10 11  1  0
 11 12  2  0
 12 13  1  0
 13 14  2  0
  4 15  1  0
 15 16  2  0
 15 17  1  0
 17 18  1  1
 18 19  1  0
 19 20  1  0
 20 21  1  0
 21 22  2  0
 22 23  1  0
 23 24  2  0
 24 25  1  0
 25 26  1  0
 19 27  1  0
 27 28  2  0
 27 29  1  0
 29 30  2  0
 30 31  1  0
 31 32  2  0
 32 33  1  0
 32 34  1  0
 34 35  2  0
 17  2  1  0
 25 21  1  0
 35 29  1  0
 14  5  1  0
 35 17  1  0
 14  9  1  0
  1 36  1  0
  1 37  1  0
  1 38  1  0
  2 39  1  6
  3 40  1  0
  3 41  1  0
  6 42  1  0
  8 43  1  0
 10 44  1  0
 11 45  1  0
 12 46  1  0
 13 47  1  0
 18 48  1  0
 18 49  1  0
 20 50  1  0
 20 51  1  0
 26 52  1  0
 26 53  1  0
 26 54  1  0
 30 55  1  0
 31 56  1  0
 34 57  1  0
M  END
$$$$
