
     RDKit          3D

 44 47  0  0  0  0  0  0  0  0999 V2000
   -9.4951    0.4717  -21.1404 O   0  0  0  0  0  0  0  0  0  0  0  0
   -9.1088   -0.5526  -21.6566 C   0  0  0  0  0  0  0  0  0  0  0  0
   -7.9431   -1.3850  -21.0868 C   0  0  0  0  0  0  0  0  0  0  0  0
   -7.2290   -0.6318  -20.0006 C   0  0  0  0  0  0  0  0  0  0  0  0
   -7.6360   -0.7546  -18.7013 C   0  0  0  0  0  0  0  0  0  0  0  0
   -7.1251   -0.0679  -17.6493 N   0  0  0  0  0  0  0  0  0  0  0  0
   -6.1684    0.7875  -17.8952 C   0  0  0  0  0  0  0  0  0  0  0  0
   -5.6574    1.0460  -19.1941 C   0  0  0  0  0  0  0  0  0  0  0  0
   -4.6368    2.0046  -19.4238 C   0  0  0  0  0  0  0  0  0  0  0  0
   -4.1840    2.2461  -20.6920 C   0  0  0  0  0  0  0  0  0  0  0  0
   -4.7356    1.5359  -21.7860 C   0  0  0  0  0  0  0  0  0  0  0  0
   -5.7210    0.6011  -21.5882 C   0  0  0  0  0  0  0  0  0  0  0  0
   -6.2095    0.3221  -20.2854 C   0  0  0  0  0  0  0  0  0  0  0  0
   -9.7385   -1.0737  -22.8422 N   0  0  0  0  0  0  0  0  0  0  0  0
  -11.2046   -1.2195  -22.8090 C   0  0  0  0  0  0  0  0  0  0  0  0
  -11.7717   -0.1779  -23.7653 C   0  0  0  0  0  0  0  0  0  0  0  0
  -10.7252   -0.1582  -24.8791 C   0  0  0  0  0  0  0  0  0  0  0  0
   -9.3916   -0.4059  -24.1343 C   0  0  2  0  0  0  0  0  0  0  0  0
   -8.4276   -1.2631  -24.9185 C   0  0  0  0  0  0  0  0  0  0  0  0
   -7.2763   -0.7156  -25.4763 C   0  0  0  0  0  0  0  0  0  0  0  0
   -6.3891   -1.5163  -26.1836 C   0  0  0  0  0  0  0  0  0  0  0  0
   -6.6350   -2.8705  -26.3569 C   0  0  0  0  0  0  0  0  0  0  0  0
   -7.7972   -3.3881  -25.8107 C   0  0  0  0  0  0  0  0  0  0  0  0
   -8.0513   -4.6973  -25.9705 F   0  0  0  0  0  0  0  0  0  0  0  0
   -8.7019   -2.6173  -25.1036 C   0  0  0  0  0  0  0  0  0  0  0  0
   -7.2704   -1.7184  -21.8888 H   0  0  0  0  0  0  0  0  0  0  0  0
   -8.3683   -2.3098  -20.6719 H   0  0  0  0  0  0  0  0  0  0  0  0
   -8.4406   -1.4430  -18.4396 H   0  0  0  0  0  0  0  0  0  0  0  0
   -5.7583    1.3295  -17.0389 H   0  0  0  0  0  0  0  0  0  0  0  0
   -4.2358    2.5527  -18.5707 H   0  0  0  0  0  0  0  0  0  0  0  0
   -3.4119    2.9916  -20.8696 H   0  0  0  0  0  0  0  0  0  0  0  0
   -4.3743    1.7383  -22.7908 H   0  0  0  0  0  0  0  0  0  0  0  0
   -6.1418    0.0653  -22.4354 H   0  0  0  0  0  0  0  0  0  0  0  0
  -11.6152   -1.1459  -21.7959 H   0  0  0  0  0  0  0  0  0  0  0  0
  -11.4452   -2.2225  -23.1931 H   0  0  0  0  0  0  0  0  0  0  0  0
  -11.7934    0.7943  -23.2551 H   0  0  0  0  0  0  0  0  0  0  0  0
  -12.7901   -0.4147  -24.1186 H   0  0  0  0  0  0  0  0  0  0  0  0
  -10.7088    0.7832  -25.4388 H   0  0  0  0  0  0  0  0  0  0  0  0
  -10.9125   -0.9517  -25.6119 H   0  0  0  0  0  0  0  0  0  0  0  0
   -8.9166    0.5719  -23.9601 H   0  0  0  0  0  0  0  0  0  0  0  0
   -7.0773    0.3456  -25.3469 H   0  0  0  0  0  0  0  0  0  0  0  0
   -5.4888   -1.0792  -26.5951 H   0  0  0  0  0  0  0  0  0  0  0  0
   -5.9512   -3.5160  -26.8986 H   0  0  0  0  0  0  0  0  0  0  0  0
   -9.5974   -3.0867  -24.6992 H   0  0  0  0  0  0  0  0  0  0  0  0
  1  2  2  0
  2  3  1  0
  3  4  1  0
  4  5  2  0
  5  6  1  0
  6  7  2  0
  7  8  1  0
  8  9  2  0
  9 10  1  0
 10 11  2  0
 11 12  1  0
 12 13  2  0
  2 14  1  0
 14 15  1  0
 15 16  1  0
 16 17  1  0
 17 18  1  0
 18 19  1  0
 19 20  2  0
 20 21  1  0
 21 22  2  0
 22 23  1  0
 23 24  1  0
 23 25  2  0
 13  4  1  0
 18 14  1  0
 25 19  1  0
 13  8  1  0
  3 26  1  0
  3 27  1  0
  5 28  1  0
  7 29  1  0
  9 30  1  0
 10 31  1  0
 11 32  1  0
 12 33  1  0
 15 34  1  0
 15 35  1  0
 16 36  1  0
 16 37  1  0
 17 38  1  0
 17 39  1  0
 18 40  1  1
 20 41  1  0
 21 42  1  0
 22 43  1  0
 25 44  1  0
M  END
$$$$
