
     RDKit          3D

 44 47  0  0  0  0  0  0  0  0999 V2000
  -14.3362   -1.4134  -24.4954 C   0  0  0  0  0  0  0  0  0  0  0  0
  -13.4542   -0.8737  -25.6152 C   0  0  0  0  0  0  0  0  0  0  0  0
  -11.7145   -1.2814  -25.4850 S   0  0  0  0  0  0  0  0  0  0  0  0
  -11.0399   -0.7794  -26.6679 O   0  0  0  0  0  0  0  0  0  0  0  0
  -11.6018   -2.6871  -25.1261 O   0  0  0  0  0  0  0  0  0  0  0  0
  -11.2220   -0.2743  -24.2194 N   0  0  0  0  0  0  0  0  0  0  0  0
   -9.7418   -0.1375  -24.0177 C   0  0  0  0  0  0  0  0  0  0  0  0
   -9.8679   -0.8266  -22.6404 C   0  0  0  0  0  0  0  0  0  0  0  0
  -11.3917   -0.7947  -22.8419 C   0  0  0  0  0  0  0  0  0  0  0  0
   -9.3733   -0.0189  -21.4603 C   0  0  0  0  0  0  0  0  0  0  0  0
   -9.7492    1.0629  -21.0826 O   0  0  0  0  0  0  0  0  0  0  0  0
   -8.3889   -0.7977  -20.8650 N   0  0  0  0  0  0  0  0  0  0  0  0
   -7.5255   -0.3008  -19.8642 C   0  0  0  0  0  0  0  0  0  0  0  0
   -7.8321   -0.5269  -18.5510 C   0  0  0  0  0  0  0  0  0  0  0  0
   -7.1552    0.0199  -17.5124 N   0  0  0  0  0  0  0  0  0  0  0  0
   -6.1525    0.8136  -17.8082 C   0  0  0  0  0  0  0  0  0  0  0  0
   -5.7150    1.0998  -19.1338 C   0  0  0  0  0  0  0  0  0  0  0  0
   -4.6199    1.9638  -19.3896 C   0  0  0  0  0  0  0  0  0  0  0  0
   -4.2032    2.1753  -20.6751 C   0  0  0  0  0  0  0  0  0  0  0  0
   -4.8419    1.5292  -21.7564 C   0  0  0  0  0  0  0  0  0  0  0  0
   -5.9149    0.6989  -21.5372 C   0  0  0  0  0  0  0  0  0  0  0  0
   -6.3900    0.4929  -20.2090 C   0  0  0  0  0  0  0  0  0  0  0  0
   -8.3217   -2.0881  -21.4107 C   0  0  0  0  0  0  0  0  0  0  0  0
   -7.6203   -2.9917  -21.0223 O   0  0  0  0  0  0  0  0  0  0  0  0
   -9.2012   -2.0944  -22.4616 N   0  0  0  0  0  0  0  0  0  0  0  0
   -9.3899   -3.2657  -23.2950 C   0  0  0  0  0  0  0  0  0  0  0  0
  -15.3792   -1.2581  -24.7861 H   0  0  0  0  0  0  0  0  0  0  0  0
  -14.1714   -2.4799  -24.3237 H   0  0  0  0  0  0  0  0  0  0  0  0
  -14.1859   -0.8715  -23.5526 H   0  0  0  0  0  0  0  0  0  0  0  0
  -13.7270   -1.2778  -26.6008 H   0  0  0  0  0  0  0  0  0  0  0  0
  -13.5037    0.2137  -25.6428 H   0  0  0  0  0  0  0  0  0  0  0  0
   -9.1023   -0.6560  -24.7378 H   0  0  0  0  0  0  0  0  0  0  0  0
   -9.4669    0.9171  -23.9396 H   0  0  0  0  0  0  0  0  0  0  0  0
  -11.8572   -0.0274  -22.2202 H   0  0  0  0  0  0  0  0  0  0  0  0
  -11.8941   -1.7596  -22.7441 H   0  0  0  0  0  0  0  0  0  0  0  0
   -8.6685   -1.1783  -18.3080 H   0  0  0  0  0  0  0  0  0  0  0  0
   -5.6188    1.2739  -16.9778 H   0  0  0  0  0  0  0  0  0  0  0  0
   -4.1302    2.4440  -18.5478 H   0  0  0  0  0  0  0  0  0  0  0  0
   -3.3623    2.8328  -20.8718 H   0  0  0  0  0  0  0  0  0  0  0  0
   -4.4793    1.6941  -22.7676 H   0  0  0  0  0  0  0  0  0  0  0  0
   -6.4075    0.2115  -22.3728 H   0  0  0  0  0  0  0  0  0  0  0  0
   -9.0338   -3.0814  -24.3136 H   0  0  0  0  0  0  0  0  0  0  0  0
   -8.8047   -4.0746  -22.8586 H   0  0  0  0  0  0  0  0  0  0  0  0
  -10.4449   -3.5414  -23.3231 H   0  0  0  0  0  0  0  0  0  0  0  0
  1  2  1  0
  2  3  1  0
  3  4  2  0
  3  5  2  0
  3  6  1  0
  6  7  1  0
  7  8  1  0
  8  9  1  0
  8 10  1  0
 10 11  2  0
 10 12  1  0
 12 13  1  0
 13 14  2  0
 14 15  1  0
 15 16  2  0
 16 17  1  0
 17 18  2  0
 18 19  1  0
 19 20  2  0
 20 21  1  0
 21 22  2  0
 12 23  1  0
 23 24  2  0
 23 25  1  0
 25 26  1  0
  9  6  1  0
 22 13  1  0
 25  8  1  0
 22 17  1  0
  1 27  1  0
  1 28  1  0
  1 29  1  0
  2 30  1  0
  2 31  1  0
  7 32  1  0
  7 33  1  0
  9 34  1  0
  9 35  1  0
 14 36  1  0
 16 37  1  0
 18 38  1  0
 19 39  1  0
 20 40  1  0
 21 41  1  0
 26 42  1  0
 26 43  1  0
 26 44  1  0
M  END
$$$$
