
     RDKit          3D

 50 53  0  0  0  0  0  0  0  0999 V2000
    9.0543    1.3863   21.2538 O   0  0  0  0  0  0  0  0  0  0  0  0
    8.7065    0.3187   21.6982 C   0  0  0  0  0  0  0  0  0  0  0  0
    7.6699   -0.5605   21.0219 C   0  0  0  0  0  0  0  0  0  0  0  0
    6.8739    0.0815   19.9256 C   0  0  0  0  0  0  0  0  0  0  0  0
    7.1938   -0.1460   18.6148 C   0  0  0  0  0  0  0  0  0  0  0  0
    6.5056    0.3180   17.5363 N   0  0  0  0  0  0  0  0  0  0  0  0
    5.4473    1.0493   17.7954 C   0  0  0  0  0  0  0  0  0  0  0  0
    5.0157    1.4040   19.1060 C   0  0  0  0  0  0  0  0  0  0  0  0
    3.8830    2.2328   19.3336 C   0  0  0  0  0  0  0  0  0  0  0  0
    3.5040    2.5619   20.6087 C   0  0  0  0  0  0  0  0  0  0  0  0
    4.2375    2.0710   21.7133 C   0  0  0  0  0  0  0  0  0  0  0  0
    5.3360    1.2665   21.5239 C   0  0  0  0  0  0  0  0  0  0  0  0
    5.7543    0.9123   20.2096 C   0  0  0  0  0  0  0  0  0  0  0  0
    9.3060   -0.2926   22.8522 N   0  0  0  0  0  0  0  0  0  0  0  0
   10.7630   -0.2393   22.8625 C   0  0  0  0  0  0  0  0  0  0  0  0
   11.4053    1.0469   23.4381 C   0  0  0  0  0  0  0  0  0  0  0  0
   10.4318    2.0829   24.0585 C   0  0  0  0  0  0  0  0  0  0  0  0
    9.0258    1.5829   24.4842 C   0  0  0  0  0  0  0  0  0  0  0  0
    8.6981    0.1192   24.1271 C   0  0  2  0  0  0  0  0  0  0  0  0
    9.0510   -0.8170   25.2970 C   0  0  0  0  0  0  0  0  0  0  0  0
    8.7328   -2.2590   25.0030 C   0  0  0  0  0  0  0  0  0  0  0  0
    7.4068   -2.6630   24.8391 C   0  0  0  0  0  0  0  0  0  0  0  0
    7.1000   -3.9788   24.5159 C   0  0  0  0  0  0  0  0  0  0  0  0
    8.1201   -4.9090   24.3502 C   0  0  0  0  0  0  0  0  0  0  0  0
    9.4426   -4.5178   24.5152 C   0  0  0  0  0  0  0  0  0  0  0  0
    9.7448   -3.1997   24.8381 C   0  0  0  0  0  0  0  0  0  0  0  0
    7.0322   -0.9857   21.8005 H   0  0  0  0  0  0  0  0  0  0  0  0
    8.2262   -1.4123   20.6129 H   0  0  0  0  0  0  0  0  0  0  0  0
    8.0668   -0.7517   18.3678 H   0  0  0  0  0  0  0  0  0  0  0  0
    4.8693    1.3995   16.9383 H   0  0  0  0  0  0  0  0  0  0  0  0
    3.3356    2.6150   18.4750 H   0  0  0  0  0  0  0  0  0  0  0  0
    2.6486    3.2138   20.7794 H   0  0  0  0  0  0  0  0  0  0  0  0
    3.9292    2.3355   22.7205 H   0  0  0  0  0  0  0  0  0  0  0  0
    5.8893    0.8959   22.3834 H   0  0  0  0  0  0  0  0  0  0  0  0
   11.1177   -1.1156   23.4232 H   0  0  0  0  0  0  0  0  0  0  0  0
   11.1008   -0.4003   21.8329 H   0  0  0  0  0  0  0  0  0  0  0  0
   12.1621    0.7351   24.1722 H   0  0  0  0  0  0  0  0  0  0  0  0
   11.9475    1.5571   22.6306 H   0  0  0  0  0  0  0  0  0  0  0  0
   10.2743    2.8870   23.3309 H   0  0  0  0  0  0  0  0  0  0  0  0
   10.9356    2.5155   24.9332 H   0  0  0  0  0  0  0  0  0  0  0  0
    8.2634    2.2227   24.0226 H   0  0  0  0  0  0  0  0  0  0  0  0
    8.8865    1.7090   25.5686 H   0  0  0  0  0  0  0  0  0  0  0  0
    7.6118    0.0347   23.9811 H   0  0  0  0  0  0  0  0  0  0  0  0
   10.0990   -0.6934   25.5903 H   0  0  0  0  0  0  0  0  0  0  0  0
    8.4639   -0.4857   26.1640 H   0  0  0  0  0  0  0  0  0  0  0  0
    6.6055   -1.9357   24.9618 H   0  0  0  0  0  0  0  0  0  0  0  0
    6.0617   -4.2761   24.3918 H   0  0  0  0  0  0  0  0  0  0  0  0
    7.8845   -5.9394   24.1000 H   0  0  0  0  0  0  0  0  0  0  0  0
   10.2478   -5.2355   24.4073 H   0  0  0  0  0  0  0  0  0  0  0  0
   10.7827   -2.8931   24.9663 H   0  0  0  0  0  0  0  0  0  0  0  0
  1  2  2  0
  2  3  1  0
  3  4  1  0
  4  5  2  0
  5  6  1  0
  6  7  2  0
  7  8  1  0
  8  9  2  0
  9 10  1  0
 10 11  2  0
 11 12  1  0
 12 13  2  0
  2 14  1  0
 14 15  1  0
 15 16  1  0
 16 17  1  0
 17 18  1  0
 18 19  1  0
 19 20  1  0
 20 21  1  0
 21 22  2  0
 22 23  1  0
 23 24  2  0
 24 25  1  0
 25 26  2  0
 13  4  1  0
 19 14  1  0
 26 21  1  0
 13  8  1  0
  3 27  1  0
  3 28  1  0
  5 29  1  0
  7 30  1  0
  9 31  1  0
 10 32  1  0
 11 33  1  0
 12 34  1  0
 15 35  1  0
 15 36  1  0
 16 37  1  0
 16 38  1  0
 17 39  1  0
 17 40  1  0
 18 41  1  0
 18 42  1  0
 19 43  1  1
 20 44  1  0
 20 45  1  0
 22 46  1  0
 23 47  1  0
 24 48  1  0
 25 49  1  0
 26 50  1  0
M  END
$$$$
