
     RDKit          3D

 55 60  0  0  0  0  0  0  0  0999 V2000
    8.8507   -2.7971   23.6491 C   0  0  0  0  0  0  0  0  0  0  0  0
    8.9092   -1.7969   22.5028 C   0  0  1  0  0  0  0  0  0  0  0  0
    7.5651   -1.5483   21.8057 C   0  0  0  0  0  0  0  0  0  0  0  0
    7.7763   -0.2687   21.1562 N   0  0  0  0  0  0  0  0  0  0  0  0
    6.9409    0.2645   20.1398 C   0  0  0  0  0  0  0  0  0  0  0  0
    7.2119   -0.0136   18.8250 C   0  0  0  0  0  0  0  0  0  0  0  0
    6.4863    0.4442   17.7737 N   0  0  0  0  0  0  0  0  0  0  0  0
    5.4493    1.2052   18.0396 C   0  0  0  0  0  0  0  0  0  0  0  0
    5.0330    1.5520   19.3581 C   0  0  0  0  0  0  0  0  0  0  0  0
    3.9056    2.3850   19.6101 C   0  0  0  0  0  0  0  0  0  0  0  0
    3.5432    2.6906   20.8928 C   0  0  0  0  0  0  0  0  0  0  0  0
    4.2733    2.1687   21.9851 C   0  0  0  0  0  0  0  0  0  0  0  0
    5.3671    1.3649   21.7698 C   0  0  0  0  0  0  0  0  0  0  0  0
    5.7863    1.0525   20.4500 C   0  0  0  0  0  0  0  0  0  0  0  0
    8.8187    0.4581   21.6949 C   0  0  0  0  0  0  0  0  0  0  0  0
    9.1630    1.5471   21.2965 O   0  0  0  0  0  0  0  0  0  0  0  0
    9.4269   -0.3771   22.8574 C   0  0  1  0  0  0  0  0  0  0  0  0
    8.8483    0.1160   24.2086 C   0  0  0  0  0  0  0  0  0  0  0  0
    9.2541    1.4738   24.5016 N   0  0  0  0  0  0  0  0  0  0  0  0
    8.3893    2.3029   25.3083 C   0  0  0  0  0  0  0  0  0  0  0  0
    7.8397    3.4819   24.5693 C   0  0  0  0  0  0  0  0  0  0  0  0
    7.6297    4.7811   25.0882 C   0  0  0  0  0  0  0  0  0  0  0  0
    7.0790    5.4474   24.0502 C   0  0  0  0  0  0  0  0  0  0  0  0
    6.9609    4.6357   22.9923 O   0  0  0  0  0  0  0  0  0  0  0  0
    7.4393    3.3867   23.3229 N   0  0  0  0  0  0  0  0  0  0  0  0
   10.5233    1.9252   24.2657 C   0  0  0  0  0  0  0  0  0  0  0  0
   10.8935    3.0289   24.6354 O   0  0  0  0  0  0  0  0  0  0  0  0
   11.4358    0.9610   23.5538 C   0  0  0  0  0  0  0  0  0  0  0  0
   12.8051    1.2413   23.5190 C   0  0  0  0  0  0  0  0  0  0  0  0
   13.6876    0.3950   22.8730 C   0  0  0  0  0  0  0  0  0  0  0  0
   13.1660   -0.7463   22.2721 C   0  0  0  0  0  0  0  0  0  0  0  0
   14.0018   -1.5782   21.6275 F   0  0  0  0  0  0  0  0  0  0  0  0
   11.8214   -1.0565   22.2875 C   0  0  0  0  0  0  0  0  0  0  0  0
   10.9281   -0.1913   22.9268 C   0  0  0  0  0  0  0  0  0  0  0  0
    8.0990   -2.5085   24.3879 H   0  0  0  0  0  0  0  0  0  0  0  0
    9.8067   -2.8639   24.1776 H   0  0  0  0  0  0  0  0  0  0  0  0
    8.5960   -3.7991   23.2939 H   0  0  0  0  0  0  0  0  0  0  0  0
    9.5726   -2.2003   21.7344 H   0  0  0  0  0  0  0  0  0  0  0  0
    7.3291   -2.3173   21.0682 H   0  0  0  0  0  0  0  0  0  0  0  0
    6.7450   -1.5312   22.5432 H   0  0  0  0  0  0  0  0  0  0  0  0
    8.0699   -0.6310   18.5685 H   0  0  0  0  0  0  0  0  0  0  0  0
    4.8738    1.5829   17.1918 H   0  0  0  0  0  0  0  0  0  0  0  0
    3.3474    2.7837   18.7633 H   0  0  0  0  0  0  0  0  0  0  0  0
    2.6891    3.3369   21.0880 H   0  0  0  0  0  0  0  0  0  0  0  0
    3.9927    2.4293   23.0030 H   0  0  0  0  0  0  0  0  0  0  0  0
    5.9519    1.0011   22.6131 H   0  0  0  0  0  0  0  0  0  0  0  0
    9.1735   -0.5498   25.0218 H   0  0  0  0  0  0  0  0  0  0  0  0
    7.7538    0.1036   24.1632 H   0  0  0  0  0  0  0  0  0  0  0  0
    8.9288    2.6571   26.1879 H   0  0  0  0  0  0  0  0  0  0  0  0
    7.5599    1.6885   25.6658 H   0  0  0  0  0  0  0  0  0  0  0  0
    7.8598    5.1343   26.0845 H   0  0  0  0  0  0  0  0  0  0  0  0
    6.7307    6.4673   23.9203 H   0  0  0  0  0  0  0  0  0  0  0  0
   13.1702    2.1371   24.0088 H   0  0  0  0  0  0  0  0  0  0  0  0
   14.7538    0.5994   22.8126 H   0  0  0  0  0  0  0  0  0  0  0  0
   11.4896   -1.9696   21.8039 H   0  0  0  0  0  0  0  0  0  0  0  0
  1  2  1  0
  2  3  1  0
  3  4  1  0
  4  5  1  0
  5  6  2  0
  6  7  1  0
  7  8  2  0
  8  9  1  0
  9 10  2  0
 10 11  1  0
 11 12  2  0
 12 13  1  0
 13 14  2  0
  4 15  1  0
 15 16  2  0
 15 17  1  0
 17 18  1  1
 18 19  1  0
 19 20  1  0
 20 21  1  0
 21 22  1  0
 22 23  2  0
 23 24  1  0
 24 25  1  0
 19 26  1  0
 26 27  2  0
 26 28  1  0
 28 29  2  0
 29 30  1  0
 30 31  2  0
 31 32  1  0
 31 33  1  0
 33 34  2  0
 17  2  1  0
 25 21  2  0
 34 28  1  0
 14  5  1  0
 34 17  1  0
 14  9  1  0
  1 35  1  0
  1 36  1  0
  1 37  1  0
  2 38  1  6
  3 39  1  0
  3 40  1  0
  6 41  1  0
  8 42  1  0
 10 43  1  0
 11 44  1  0
 12 45  1  0
 13 46  1  0
 18 47  1  0
 18 48  1  0
 20 49  1  0
 20 50  1  0
 22 51  1  0
 23 52  1  0
 29 53  1  0
 30 54  1  0
 33 55  1  0
M  END
$$$$
