
     RDKit          3D

 40 43  0  0  0  0  0  0  0  0999 V2000
   11.1338    0.0858   23.2682 C   0  0  0  0  0  0  0  0  0  0  0  0
    9.9493   -0.3395   22.5484 N   0  0  0  0  0  0  0  0  0  0  0  0
    9.2302   -1.5003   22.6337 C   0  0  0  0  0  0  0  0  0  0  0  0
    9.4370   -2.4936   23.7318 C   0  0  0  0  0  0  0  0  0  0  0  0
    8.6936   -2.0058   24.9667 C   0  0  0  0  0  0  0  0  0  0  0  0
    7.3005   -2.0763   24.9751 C   0  0  0  0  0  0  0  0  0  0  0  0
    6.5761   -1.5162   26.0190 C   0  0  0  0  0  0  0  0  0  0  0  0
    7.2396   -0.8707   27.0589 C   0  0  0  0  0  0  0  0  0  0  0  0
    8.6297   -0.7975   27.0595 C   0  0  0  0  0  0  0  0  0  0  0  0
    9.3539   -1.3643   26.0129 C   0  0  0  0  0  0  0  0  0  0  0  0
    8.2048   -1.5030   21.8310 N   0  0  0  0  0  0  0  0  0  0  0  0
    8.2175   -0.2754   21.2282 N   0  0  0  0  0  0  0  0  0  0  0  0
    7.2527    0.1399   20.2557 C   0  0  0  0  0  0  0  0  0  0  0  0
    7.5143   -0.1703   18.9489 C   0  0  0  0  0  0  0  0  0  0  0  0
    6.7508    0.2125   17.8977 N   0  0  0  0  0  0  0  0  0  0  0  0
    5.6806    0.9225   18.1626 C   0  0  0  0  0  0  0  0  0  0  0  0
    5.2713    1.3149   19.4641 C   0  0  0  0  0  0  0  0  0  0  0  0
    4.0998    2.0935   19.6675 C   0  0  0  0  0  0  0  0  0  0  0  0
    3.7311    2.4590   20.9324 C   0  0  0  0  0  0  0  0  0  0  0  0
    4.5228    2.0630   22.0350 C   0  0  0  0  0  0  0  0  0  0  0  0
    5.6644    1.3149   21.8640 C   0  0  0  0  0  0  0  0  0  0  0  0
    6.0733    0.9141   20.5623 C   0  0  0  0  0  0  0  0  0  0  0  0
    9.3076    0.4810   21.6264 C   0  0  0  0  0  0  0  0  0  0  0  0
    9.6352    1.5815   21.2412 O   0  0  0  0  0  0  0  0  0  0  0  0
   11.7917   -0.7635   23.4652 H   0  0  0  0  0  0  0  0  0  0  0  0
   10.8720    0.5824   24.2083 H   0  0  0  0  0  0  0  0  0  0  0  0
   11.6584    0.8059   22.6388 H   0  0  0  0  0  0  0  0  0  0  0  0
   10.5037   -2.6316   23.9411 H   0  0  0  0  0  0  0  0  0  0  0  0
    9.0351   -3.4446   23.3722 H   0  0  0  0  0  0  0  0  0  0  0  0
    6.8006   -2.5473   24.1294 H   0  0  0  0  0  0  0  0  0  0  0  0
    5.4929   -1.5679   26.0048 H   0  0  0  0  0  0  0  0  0  0  0  0
    6.6703   -0.4210   27.8653 H   0  0  0  0  0  0  0  0  0  0  0  0
    9.1536   -0.2953   27.8659 H   0  0  0  0  0  0  0  0  0  0  0  0
   10.4421   -1.3000   25.9983 H   0  0  0  0  0  0  0  0  0  0  0  0
    8.4028   -0.7457   18.7054 H   0  0  0  0  0  0  0  0  0  0  0  0
    5.0768    1.2173   17.3071 H   0  0  0  0  0  0  0  0  0  0  0  0
    3.5176    2.3927   18.7991 H   0  0  0  0  0  0  0  0  0  0  0  0
    2.8384    3.0599   21.0948 H   0  0  0  0  0  0  0  0  0  0  0  0
    4.2184    2.3658   23.0330 H   0  0  0  0  0  0  0  0  0  0  0  0
    6.2690    1.0210   22.7162 H   0  0  0  0  0  0  0  0  0  0  0  0
  1  2  1  0
  2  3  1  0
  3  4  1  0
  4  5  1  0
  5  6  2  0
  6  7  1  0
  7  8  2  0
  8  9  1  0
  9 10  2  0
  3 11  2  0
 11 12  1  0
 12 13  1  0
 13 14  2  0
 14 15  1  0
 15 16  2  0
 16 17  1  0
 17 18  2  0
 18 19  1  0
 19 20  2  0
 20 21  1  0
 21 22  2  0
 12 23  1  0
 23 24  2  0
 23  2  1  0
 10  5  1  0
 22 13  1  0
 22 17  1  0
  1 25  1  0
  1 26  1  0
  1 27  1  0
  4 28  1  0
  4 29  1  0
  6 30  1  0
  7 31  1  0
  8 32  1  0
  9 33  1  0
 10 34  1  0
 14 35  1  0
 16 36  1  0
 18 37  1  0
 19 38  1  0
 20 39  1  0
 21 40  1  0
M  END
$$$$
