
     RDKit          3D

 57 61  0  0  0  0  0  0  0  0999 V2000
    7.1709    4.6482   22.5727 C   0  0  0  0  0  0  0  0  0  0  0  0
    7.9522    3.7018   23.3380 N   0  0  0  0  0  0  0  0  0  0  0  0
    7.6469    3.4569   24.6297 C   0  0  0  0  0  0  0  0  0  0  0  0
    6.7947    4.0766   25.2507 O   0  0  0  0  0  0  0  0  0  0  0  0
    8.3950    2.3141   25.3241 C   0  0  0  0  0  0  0  0  0  0  0  0
    9.2544    1.4917   24.4976 N   0  0  0  0  0  0  0  0  0  0  0  0
    8.8485    0.1292   24.2119 C   0  0  0  0  0  0  0  0  0  0  0  0
    9.4285   -0.3686   22.8624 C   0  0  2  0  0  0  0  0  0  0  0  0
    8.8181    0.4616   21.7040 C   0  0  0  0  0  0  0  0  0  0  0  0
    9.1544    1.5673   21.3278 O   0  0  0  0  0  0  0  0  0  0  0  0
    7.7811   -0.2661   21.1583 N   0  0  0  0  0  0  0  0  0  0  0  0
    6.9431    0.2660   20.1405 C   0  0  0  0  0  0  0  0  0  0  0  0
    7.2127   -0.0134   18.8256 C   0  0  0  0  0  0  0  0  0  0  0  0
    6.4867    0.4434   17.7735 N   0  0  0  0  0  0  0  0  0  0  0  0
    5.4499    1.2044   18.0402 C   0  0  0  0  0  0  0  0  0  0  0  0
    5.0347    1.5545   19.3587 C   0  0  0  0  0  0  0  0  0  0  0  0
    3.9061    2.3858   19.6096 C   0  0  0  0  0  0  0  0  0  0  0  0
    3.5425    2.6897   20.8945 C   0  0  0  0  0  0  0  0  0  0  0  0
    4.2775    2.1778   21.9900 C   0  0  0  0  0  0  0  0  0  0  0  0
    5.3793    1.3877   21.7733 C   0  0  0  0  0  0  0  0  0  0  0  0
    5.7942    1.0622   20.4508 C   0  0  0  0  0  0  0  0  0  0  0  0
    7.5659   -1.5495   21.8083 C   0  0  0  0  0  0  0  0  0  0  0  0
    8.9129   -1.7860   22.5080 C   0  0  2  0  0  0  0  0  0  0  0  0
    8.8720   -2.7976   23.6485 C   0  0  0  0  0  0  0  0  0  0  0  0
    8.5475   -4.1009   23.2093 O   0  0  0  0  0  0  0  0  0  0  0  0
   10.9294   -0.1888   22.9295 C   0  0  0  0  0  0  0  0  0  0  0  0
   11.8237   -1.0527   22.2853 C   0  0  0  0  0  0  0  0  0  0  0  0
   13.1741   -0.7510   22.2550 C   0  0  0  0  0  0  0  0  0  0  0  0
   14.2507   -1.8167   21.3957 Cl  0  0  0  0  0  0  0  0  0  0  0  0
   13.6843    0.3948   22.8691 C   0  0  0  0  0  0  0  0  0  0  0  0
   12.8062    1.2415   23.5226 C   0  0  0  0  0  0  0  0  0  0  0  0
   11.4400    0.9573   23.5616 C   0  0  0  0  0  0  0  0  0  0  0  0
   10.5355    1.9179   24.2806 C   0  0  0  0  0  0  0  0  0  0  0  0
   10.9027    3.0299   24.6364 O   0  0  0  0  0  0  0  0  0  0  0  0
    7.5893    4.6984   21.5656 H   0  0  0  0  0  0  0  0  0  0  0  0
    6.1297    4.3158   22.4971 H   0  0  0  0  0  0  0  0  0  0  0  0
    7.1807    5.6460   23.0232 H   0  0  0  0  0  0  0  0  0  0  0  0
    8.7694    3.2935   22.9064 H   0  0  0  0  0  0  0  0  0  0  0  0
    8.9723    2.7382   26.1529 H   0  0  0  0  0  0  0  0  0  0  0  0
    7.6271    1.6745   25.7707 H   0  0  0  0  0  0  0  0  0  0  0  0
    7.7546    0.1040   24.1686 H   0  0  0  0  0  0  0  0  0  0  0  0
    9.1744   -0.5375   25.0244 H   0  0  0  0  0  0  0  0  0  0  0  0
    8.0700   -0.6313   18.5680 H   0  0  0  0  0  0  0  0  0  0  0  0
    4.8750    1.5818   17.1919 H   0  0  0  0  0  0  0  0  0  0  0  0
    3.3478    2.7833   18.7629 H   0  0  0  0  0  0  0  0  0  0  0  0
    2.6892    3.3343   21.0905 H   0  0  0  0  0  0  0  0  0  0  0  0
    3.9959    2.4395   23.0085 H   0  0  0  0  0  0  0  0  0  0  0  0
    5.9506    1.0040   22.6152 H   0  0  0  0  0  0  0  0  0  0  0  0
    7.3301   -2.3203   21.0718 H   0  0  0  0  0  0  0  0  0  0  0  0
    6.7403   -1.5308   22.5409 H   0  0  0  0  0  0  0  0  0  0  0  0
    9.5727   -2.1971   21.7414 H   0  0  0  0  0  0  0  0  0  0  0  0
    8.0937   -2.5137   24.3591 H   0  0  0  0  0  0  0  0  0  0  0  0
    9.8183   -2.7895   24.2106 H   0  0  0  0  0  0  0  0  0  0  0  0
    9.3413   -4.4623   22.7933 H   0  0  0  0  0  0  0  0  0  0  0  0
   11.4781   -1.9620   21.8045 H   0  0  0  0  0  0  0  0  0  0  0  0
   14.7482    0.6120   22.8144 H   0  0  0  0  0  0  0  0  0  0  0  0
   13.1668    2.1405   24.0122 H   0  0  0  0  0  0  0  0  0  0  0  0
  1  2  1  0
  2  3  1  0
  3  4  2  0
  3  5  1  0
  5  6  1  0
  6  7  1  0
  8  7  1  1
  8  9  1  0
  9 10  2  0
  9 11  1  0
 11 12  1  0
 12 13  2  0
 13 14  1  0
 14 15  2  0
 15 16  1  0
 16 17  2  0
 17 18  1  0
 18 19  2  0
 19 20  1  0
 20 21  2  0
 11 22  1  0
 22 23  1  0
 23 24  1  0
 24 25  1  0
  8 26  1  0
 26 27  2  0
 27 28  1  0
 28 29  1  0
 28 30  2  0
 30 31  1  0
 31 32  2  0
 32 33  1  0
 33 34  2  0
 33  6  1  0
 23  8  1  0
 32 26  1  0
 21 12  1  0
 21 16  1  0
  1 35  1  0
  1 36  1  0
  1 37  1  0
  2 38  1  0
  5 39  1  0
  5 40  1  0
  7 41  1  0
  7 42  1  0
 13 43  1  0
 15 44  1  0
 17 45  1  0
 18 46  1  0
 19 47  1  0
 20 48  1  0
 22 49  1  0
 22 50  1  0
 23 51  1  6
 24 52  1  0
 24 53  1  0
 25 54  1  0
 27 55  1  0
 30 56  1  0
 31 57  1  0
M  END
$$$$
