
     RDKit          3D

 57 60  0  0  0  0  0  0  0  0999 V2000
  -15.6510   -0.0994  -22.5818 C   0  0  0  0  0  0  0  0  0  0  0  0
  -14.8987   -0.9171  -21.5158 C   0  0  0  0  0  0  0  0  0  0  0  0
  -14.5107   -2.3526  -21.8178 C   0  0  0  0  0  0  0  0  0  0  0  0
  -15.0479   -3.2935  -21.2649 O   0  0  0  0  0  0  0  0  0  0  0  0
  -13.4572   -2.5700  -22.6914 N   0  0  0  0  0  0  0  0  0  0  0  0
  -12.4876   -1.6369  -23.1494 C   0  0  0  0  0  0  0  0  0  0  0  0
  -12.8001   -0.6369  -24.0662 C   0  0  0  0  0  0  0  0  0  0  0  0
  -11.8576    0.3270  -24.3903 C   0  0  0  0  0  0  0  0  0  0  0  0
  -10.5457    0.2399  -23.9473 C   0  0  0  0  0  0  0  0  0  0  0  0
  -10.1956   -0.8476  -23.1476 C   0  0  0  0  0  0  0  0  0  0  0  0
   -8.8429   -1.1010  -22.7396 N   0  0  0  0  0  0  0  0  0  0  0  0
   -8.0718   -2.0077  -23.5972 C   0  0  0  0  0  0  0  0  0  0  0  0
   -8.5532   -3.4526  -23.6134 C   0  0  0  0  0  0  0  0  0  0  0  0
   -8.0558   -4.3871  -22.7037 C   0  0  0  0  0  0  0  0  0  0  0  0
   -8.4837   -5.7131  -22.7324 C   0  0  0  0  0  0  0  0  0  0  0  0
   -9.4272   -6.1258  -23.6675 C   0  0  0  0  0  0  0  0  0  0  0  0
   -9.9392   -5.2038  -24.5757 C   0  0  0  0  0  0  0  0  0  0  0  0
   -9.5047   -3.8818  -24.5470 C   0  0  0  0  0  0  0  0  0  0  0  0
   -8.5223   -0.6284  -21.4675 C   0  0  0  0  0  0  0  0  0  0  0  0
   -9.1692    0.2722  -20.9645 O   0  0  0  0  0  0  0  0  0  0  0  0
   -7.4109   -1.3190  -20.6591 C   0  0  0  0  0  0  0  0  0  0  0  0
   -6.7449   -0.3945  -19.6714 C   0  0  0  0  0  0  0  0  0  0  0  0
   -7.0692   -0.4363  -18.3407 C   0  0  0  0  0  0  0  0  0  0  0  0
   -6.4860    0.3046  -17.3621 N   0  0  0  0  0  0  0  0  0  0  0  0
   -5.5466    1.1387  -17.7237 C   0  0  0  0  0  0  0  0  0  0  0  0
   -5.1408    1.3345  -19.0708 C   0  0  0  0  0  0  0  0  0  0  0  0
   -4.1609    2.2971  -19.4193 C   0  0  0  0  0  0  0  0  0  0  0  0
   -3.8157    2.4881  -20.7289 C   0  0  0  0  0  0  0  0  0  0  0  0
   -4.4308    1.7181  -21.7420 C   0  0  0  0  0  0  0  0  0  0  0  0
   -5.3750    0.7736  -21.4259 C   0  0  0  0  0  0  0  0  0  0  0  0
   -5.7624    0.5574  -20.0777 C   0  0  0  0  0  0  0  0  0  0  0  0
  -11.1697   -1.7410  -22.7152 C   0  0  0  0  0  0  0  0  0  0  0  0
  -15.4784   -0.4295  -23.6101 H   0  0  0  0  0  0  0  0  0  0  0  0
  -16.7216   -0.1245  -22.3894 H   0  0  0  0  0  0  0  0  0  0  0  0
  -15.3409    0.9477  -22.5077 H   0  0  0  0  0  0  0  0  0  0  0  0
  -13.9801   -0.3808  -21.2429 H   0  0  0  0  0  0  0  0  0  0  0  0
  -15.5093   -1.0132  -20.6143 H   0  0  0  0  0  0  0  0  0  0  0  0
  -13.1318   -3.5298  -22.6570 H   0  0  0  0  0  0  0  0  0  0  0  0
  -13.7754   -0.6254  -24.5378 H   0  0  0  0  0  0  0  0  0  0  0  0
  -12.1767    1.1559  -24.9996 H   0  0  0  0  0  0  0  0  0  0  0  0
   -9.8231    0.9983  -24.2331 H   0  0  0  0  0  0  0  0  0  0  0  0
   -8.1338   -1.6186  -24.6236 H   0  0  0  0  0  0  0  0  0  0  0  0
   -7.0183   -1.9584  -23.3061 H   0  0  0  0  0  0  0  0  0  0  0  0
   -7.3135   -4.0808  -21.9657 H   0  0  0  0  0  0  0  0  0  0  0  0
   -8.0690   -6.4257  -22.0247 H   0  0  0  0  0  0  0  0  0  0  0  0
   -9.7610   -7.1600  -23.6949 H   0  0  0  0  0  0  0  0  0  0  0  0
  -10.6766   -5.5150  -25.3133 H   0  0  0  0  0  0  0  0  0  0  0  0
   -9.9333   -3.1578  -25.2407 H   0  0  0  0  0  0  0  0  0  0  0  0
   -6.6744   -1.7956  -21.3072 H   0  0  0  0  0  0  0  0  0  0  0  0
   -7.9061   -2.1266  -20.0991 H   0  0  0  0  0  0  0  0  0  0  0  0
   -7.8458   -1.1190  -17.9954 H   0  0  0  0  0  0  0  0  0  0  0  0
   -5.0613    1.7168  -16.9351 H   0  0  0  0  0  0  0  0  0  0  0  0
   -3.7084    2.8814  -18.6206 H   0  0  0  0  0  0  0  0  0  0  0  0
   -3.0753    3.2356  -20.9987 H   0  0  0  0  0  0  0  0  0  0  0  0
   -4.1632    1.8854  -22.7815 H   0  0  0  0  0  0  0  0  0  0  0  0
   -5.8448    0.1988  -22.2174 H   0  0  0  0  0  0  0  0  0  0  0  0
  -10.8666   -2.5616  -22.0689 H   0  0  0  0  0  0  0  0  0  0  0  0
  1  2  1  0
  2  3  1  0
  3  4  2  0
  3  5  1  0
  5  6  1  0
  6  7  2  0
  7  8  1  0
  8  9  2  0
  9 10  1  0
 10 11  1  0
 11 12  1  0
 12 13  1  0
 13 14  2  0
 14 15  1  0
 15 16  2  0
 16 17  1  0
 17 18  2  0
 11 19  1  0
 19 20  2  0
 19 21  1  0
 21 22  1  0
 22 23  2  0
 23 24  1  0
 24 25  2  0
 25 26  1  0
 26 27  2  0
 27 28  1  0
 28 29  2  0
 29 30  1  0
 30 31  2  0
 10 32  2  0
 32  6  1  0
 18 13  1  0
 31 22  1  0
 31 26  1  0
  1 33  1  0
  1 34  1  0
  1 35  1  0
  2 36  1  0
  2 37  1  0
  5 38  1  0
  7 39  1  0
  8 40  1  0
  9 41  1  0
 12 42  1  0
 12 43  1  0
 14 44  1  0
 15 45  1  0
 16 46  1  0
 17 47  1  0
 18 48  1  0
 21 49  1  0
 21 50  1  0
 23 51  1  0
 25 52  1  0
 27 53  1  0
 28 54  1  0
 29 55  1  0
 30 56  1  0
 32 57  1  0
M  END
$$$$
