
     RDKit          3D

 40 42  0  0  0  0  0  0  0  0999 V2000
   10.4529    2.5290   25.1242 C   0  0  0  0  0  0  0  0  0  0  0  0
    9.8749    1.5618   24.1059 C   0  0  0  0  0  0  0  0  0  0  0  0
   11.0416    0.8614   23.3729 C   0  0  0  0  0  0  0  0  0  0  0  0
   10.6534   -0.5366   22.8619 C   0  0  0  0  0  0  0  0  0  0  0  0
    9.2193   -0.6393   22.6359 N   0  0  0  0  0  0  0  0  0  0  0  0
    8.7634   -0.2135   21.4092 C   0  0  0  0  0  0  0  0  0  0  0  0
    9.4435    0.4721   20.6683 O   0  0  0  0  0  0  0  0  0  0  0  0
    7.4048   -0.7730   21.0160 C   0  0  0  0  0  0  0  0  0  0  0  0
    6.6616    0.0295   20.0005 C   0  0  0  0  0  0  0  0  0  0  0  0
    7.0503   -0.0370   18.6867 C   0  0  0  0  0  0  0  0  0  0  0  0
    6.4295    0.5782   17.6510 N   0  0  0  0  0  0  0  0  0  0  0  0
    5.3713    1.2994   17.9513 C   0  0  0  0  0  0  0  0  0  0  0  0
    4.8618    1.4709   19.2718 C   0  0  0  0  0  0  0  0  0  0  0  0
    3.7185    2.2651   19.5455 C   0  0  0  0  0  0  0  0  0  0  0  0
    3.2760    2.4384   20.8311 C   0  0  0  0  0  0  0  0  0  0  0  0
    3.9553    1.8235   21.9058 C   0  0  0  0  0  0  0  0  0  0  0  0
    5.0561    1.0353   21.6658 C   0  0  0  0  0  0  0  0  0  0  0  0
    5.5363    0.8330   20.3409 C   0  0  0  0  0  0  0  0  0  0  0  0
    8.4249   -0.5322   23.8568 C   0  0  0  0  0  0  0  0  0  0  0  0
    9.0507    0.4869   24.8259 C   0  0  0  0  0  0  0  0  0  0  0  0
   11.0745    1.9309   25.7970 H   0  0  0  0  0  0  0  0  0  0  0  0
    9.6957    3.0302   25.7320 H   0  0  0  0  0  0  0  0  0  0  0  0
   11.0741    3.3028   24.6634 H   0  0  0  0  0  0  0  0  0  0  0  0
    9.2432    2.1311   23.4001 H   0  0  0  0  0  0  0  0  0  0  0  0
   11.9007    0.7686   24.0583 H   0  0  0  0  0  0  0  0  0  0  0  0
   11.3688    1.4806   22.5331 H   0  0  0  0  0  0  0  0  0  0  0  0
   11.1712   -0.7654   21.9274 H   0  0  0  0  0  0  0  0  0  0  0  0
   10.9082   -1.3111   23.5985 H   0  0  0  0  0  0  0  0  0  0  0  0
    7.6139   -1.7741   20.6054 H   0  0  0  0  0  0  0  0  0  0  0  0
    6.8174   -0.9202   21.9189 H   0  0  0  0  0  0  0  0  0  0  0  0
    7.9293   -0.6241   18.4278 H   0  0  0  0  0  0  0  0  0  0  0  0
    4.8698    1.7972   17.1218 H   0  0  0  0  0  0  0  0  0  0  0  0
    3.2110    2.7456   18.7134 H   0  0  0  0  0  0  0  0  0  0  0  0
    2.4103    3.0633   21.0375 H   0  0  0  0  0  0  0  0  0  0  0  0
    3.6056    1.9768   22.9251 H   0  0  0  0  0  0  0  0  0  0  0  0
    5.5628    0.5702   22.5089 H   0  0  0  0  0  0  0  0  0  0  0  0
    7.4038   -0.2406   23.5913 H   0  0  0  0  0  0  0  0  0  0  0  0
    8.3768   -1.5082   24.3494 H   0  0  0  0  0  0  0  0  0  0  0  0
    9.7315   -0.0458   25.5109 H   0  0  0  0  0  0  0  0  0  0  0  0
    8.2739    0.9502   25.4470 H   0  0  0  0  0  0  0  0  0  0  0  0
  1  2  1  0
  2  3  1  0
  3  4  1  0
  4  5  1  0
  5  6  1  0
  6  7  2  0
  6  8  1  0
  8  9  1  0
  9 10  2  0
 10 11  1  0
 11 12  2  0
 12 13  1  0
 13 14  2  0
 14 15  1  0
 15 16  2  0
 16 17  1  0
 17 18  2  0
  5 19  1  0
 19 20  1  0
 20  2  1  0
 18  9  1  0
 18 13  1  0
  1 21  1  0
  1 22  1  0
  1 23  1  0
  2 24  1  0
  3 25  1  0
  3 26  1  0
  4 27  1  0
  4 28  1  0
  8 29  1  0
  8 30  1  0
 10 31  1  0
 12 32  1  0
 14 33  1  0
 15 34  1  0
 16 35  1  0
 17 36  1  0
 19 37  1  0
 19 38  1  0
 20 39  1  0
 20 40  1  0
M  END
$$$$
