
     RDKit          3D

 41 47  0  0  0  0  0  0  0  0999 V2000
    9.0794    4.1775   23.8598 O   0  0  0  0  0  0  0  0  0  0  0  0
    8.9513    2.9736   23.6989 C   0  0  0  0  0  0  0  0  0  0  0  0
   10.0532    2.1216   23.1610 C   0  0  0  0  0  0  0  0  0  0  0  0
   11.3376    2.6526   23.1720 C   0  0  0  0  0  0  0  0  0  0  0  0
   12.4046    1.9136   22.6936 C   0  0  0  0  0  0  0  0  0  0  0  0
   12.1384    0.6661   22.1313 C   0  0  0  0  0  0  0  0  0  0  0  0
   13.3985   -0.3329   21.4642 Cl  0  0  0  0  0  0  0  0  0  0  0  0
   10.8555    0.1671   22.0360 C   0  0  0  0  0  0  0  0  0  0  0  0
    9.7924    0.8548   22.6290 C   0  0  0  0  0  0  0  0  0  0  0  0
    8.3848    0.2952   22.6734 C   0  0  1  0  0  0  0  0  0  0  0  0
    7.7119    0.8531   23.9665 C   0  0  0  0  0  0  0  0  0  0  0  0
    7.7939    2.3070   24.0033 N   0  0  0  0  0  0  0  0  0  0  0  0
    6.6874    3.0887   24.5142 C   0  0  0  0  0  0  0  0  0  0  0  0
    6.5664    3.0828   26.0081 C   0  0  0  0  0  0  0  0  0  0  0  0
    6.9807    3.9515   26.8696 N   0  0  0  0  0  0  0  0  0  0  0  0
    6.6086    3.4772   28.1245 N   0  0  0  0  0  0  0  0  0  0  0  0
    5.9872    2.3722   27.9091 C   0  0  0  0  0  0  0  0  0  0  0  0
    5.9154    2.0466   26.5988 O   0  0  0  0  0  0  0  0  0  0  0  0
    7.5926    0.7467   21.4266 C   0  0  0  0  0  0  0  0  0  0  0  0
    7.5999    1.8321   20.8870 O   0  0  0  0  0  0  0  0  0  0  0  0
    6.8431   -0.3196   20.9828 N   0  0  0  0  0  0  0  0  0  0  0  0
    5.8882   -0.1665   19.9615 C   0  0  0  0  0  0  0  0  0  0  0  0
    6.0825   -0.7893   18.7569 C   0  0  0  0  0  0  0  0  0  0  0  0
    5.2737   -0.6447   17.6823 N   0  0  0  0  0  0  0  0  0  0  0  0
    4.2152    0.1163   17.8346 C   0  0  0  0  0  0  0  0  0  0  0  0
    3.8694    0.7745   19.0480 C   0  0  0  0  0  0  0  0  0  0  0  0
    2.6964    1.5631   19.1583 C   0  0  0  0  0  0  0  0  0  0  0  0
    2.3531    2.1390   20.3485 C   0  0  0  0  0  0  0  0  0  0  0  0
    3.1877    1.9868   21.4777 C   0  0  0  0  0  0  0  0  0  0  0  0
    4.3452    1.2575   21.3891 C   0  0  0  0  0  0  0  0  0  0  0  0
    4.7184    0.6291   20.1638 C   0  0  0  0  0  0  0  0  0  0  0  0
    7.0042   -1.5303   21.7482 C   0  0  0  0  0  0  0  0  0  0  0  0
    8.2816   -1.2511   22.5500 C   0  0  2  0  0  0  0  0  0  0  0  0
    8.3273   -2.0698   23.8472 C   0  0  0  0  0  0  0  0  0  0  0  0
    8.3784   -3.4985   23.5901 N   0  0  0  0  0  0  0  0  0  0  0  0
    7.3097   -4.3188   23.5962 C   0  0  0  0  0  0  0  0  0  0  0  0
    7.5469   -5.6010   23.2306 N   0  0  0  0  0  0  0  0  0  0  0  0
    6.4736   -6.3680   23.2272 C   0  0  0  0  0  0  0  0  0  0  0  0
    5.2270   -6.0103   23.5534 N   0  0  0  0  0  0  0  0  0  0  0  0
    5.1220   -4.7343   23.9146 C   0  0  0  0  0  0  0  0  0  0  0  0
    6.1002   -3.8365   23.9549 N   0  0  0  0  0  0  0  0  0  0  0  0
  1  2  2  0
  2  3  1  0
  3  4  2  0
  4  5  1  0
  5  6  2  0
  6  7  1  0
  6  8  1  0
  8  9  2  0
  9 10  1  0
 10 11  1  1
 11 12  1  0
 12 13  1  0
 13 14  1  0
 14 15  2  0
 15 16  1  0
 16 17  2  0
 17 18  1  0
 10 19  1  0
 19 20  2  0
 19 21  1  0
 21 22  1  0
 22 23  2  0
 23 24  1  0
 24 25  2  0
 25 26  1  0
 26 27  2  0
 27 28  1  0
 28 29  2  0
 29 30  1  0
 30 31  2  0
 21 32  1  0
 32 33  1  0
 33 34  1  1
 34 35  1  0
 35 36  1  0
 36 37  2  0
 37 38  1  0
 38 39  2  0
 39 40  1  0
 40 41  2  0
 12  2  1  0
 18 14  1  0
 31 22  1  0
 41 36  1  0
  9  3  1  0
 33 10  1  0
 31 26  1  0
M  END
>  <cnnaffinities>  (1) 
[6.69447, 6.72855, 6.73273, 6.74796, 6.95049, 6.74132, 6.73952, 6.66525]

>  <score>  (1) 
6.69447

>  <index>  (1) 
0

>  <Smiles>  (1) 
O=C1c2c(c(c(Cl)c(c2[C@@]2(C(N1C(c1nnc(o1)[H])([H])[H])([H])[H])C(=O)N(c1c(nc(c3c(c(c(c(c13)[H])[H])[H])[H])[H])[H])C([C@@]2(C(N(c1nc(nc(n1)[H])[H])[H])([H])[H])[H])([H])[H])[H])[H])[H]

>  <h>  (1) 
<NA>

>  <Training>  (1) 
True

>  <Success>  (1) 
True

>  <enamine_searched>  (1) 
False

>  <enamine_id>  (1) 
nan

>  <SMILES>  (1) 
O=C1c2ccc(Cl)cc2C2(CN1Cc1nnco1)C(=O)N(c1cncc3ccccc13)CC2CNc1ncncn1

>  <LABEL>  (1) 
MERS-CoV Mpro

$$$$
ligand_0
     RDKit          3D

 30 33  0  0  0  0  0  0  0  0999 V2000
    8.3062   -5.1136   26.7986 C   0  0  0  0  0  0  0  0  0  0  0  0
    8.8579   -4.9691   25.5092 O   0  0  0  0  0  0  0  0  0  0  0  0
    8.7316   -3.7528   24.9110 C   0  0  0  0  0  0  0  0  0  0  0  0
    7.9645   -2.6989   25.4062 C   0  0  0  0  0  0  0  0  0  0  0  0
    7.9806   -1.4692   24.7465 C   0  0  0  0  0  0  0  0  0  0  0  0
    8.7481   -1.2839   23.6021 C   0  0  0  0  0  0  0  0  0  0  0  0
    8.8288    0.0083   22.9945 N   0  0  0  0  0  0  0  0  0  0  0  0
    9.5936    1.0616   23.6505 C   0  0  0  0  0  0  0  0  0  0  0  0
   11.0408    1.1830   23.1829 C   0  0  0  0  0  0  0  0  0  0  0  0
   11.7167    2.3942   23.3410 C   0  0  0  0  0  0  0  0  0  0  0  0
   13.0369    2.5250   22.9160 C   0  0  0  0  0  0  0  0  0  0  0  0
   13.7009    1.4573   22.3191 C   0  0  0  0  0  0  0  0  0  0  0  0
   13.0300    0.2488   22.1874 C   0  0  0  0  0  0  0  0  0  0  0  0
   13.8305   -1.1135   21.4469 Cl  0  0  0  0  0  0  0  0  0  0  0  0
   11.7218    0.0978   22.6296 C   0  0  0  0  0  0  0  0  0  0  0  0
    8.3611    0.2601   21.7227 C   0  0  0  0  0  0  0  0  0  0  0  0
    8.5922    1.3016   21.1354 O   0  0  0  0  0  0  0  0  0  0  0  0
    7.5047   -0.8510   21.0983 C   0  0  0  0  0  0  0  0  0  0  0  0
    6.6551   -0.3373   19.9802 C   0  0  0  0  0  0  0  0  0  0  0  0
    7.0138   -0.5391   18.6827 C   0  0  0  0  0  0  0  0  0  0  0  0
    6.3550   -0.0569   17.5948 N   0  0  0  0  0  0  0  0  0  0  0  0
    5.2874    0.6695   17.8296 C   0  0  0  0  0  0  0  0  0  0  0  0
    4.7930    0.9741   19.1312 C   0  0  0  0  0  0  0  0  0  0  0  0
    3.6464    1.7840   19.3553 C   0  0  0  0  0  0  0  0  0  0  0  0
    3.2356    2.0500   20.6321 C   0  0  0  0  0  0  0  0  0  0  0  0
    3.9417    1.5282   21.7350 C   0  0  0  0  0  0  0  0  0  0  0  0
    5.0511    0.7456   21.5495 C   0  0  0  0  0  0  0  0  0  0  0  0
    5.5033    0.4536   20.2395 C   0  0  0  0  0  0  0  0  0  0  0  0
    9.4142   -2.3852   23.0543 C   0  0  0  0  0  0  0  0  0  0  0  0
    9.4303   -3.6007   23.7120 C   0  0  0  0  0  0  0  0  0  0  0  0
  1  2  1  0
  2  3  1  0
  3  4  2  0
  4  5  1  0
  5  6  2  0
  6  7  1  0
  7  8  1  0
  8  9  1  0
  9 10  2  0
 10 11  1  0
 11 12  2  0
 12 13  1  0
 13 14  1  0
 13 15  2  0
  7 16  1  0
 16 17  2  0
 16 18  1  0
 18 19  1  0
 19 20  2  0
 20 21  1  0
 21 22  2  0
 22 23  1  0
 23 24  2  0
 24 25  1  0
 25 26  2  0
 26 27  1  0
 27 28  2  0
  6 29  1  0
 29 30  2  0
 30  3  1  0
 15  9  1  0
 28 19  1  0
 28 23  1  0
M  END
>  <template_ligand>  (2) 
mol-58

>  <template_receptor>  (2) 
receptors/receptor-58.pdb

>  <SMILES>  (2) 
COc1ccc(N(Cc2cccc(Cl)c2)C(=O)Cc2cncc3ccccc23)cc1

>  <LABEL>  (2) 
MERS-CoV Mpro

$$$$
ligand_30
     RDKit          3D

 40 45  0  0  0  0  0  0  0  0999 V2000
   -7.0528    3.5827  -22.7140 C   0  0  0  0  0  0  0  0  0  0  0  0
   -7.8120    2.6025  -23.4697 N   0  0  0  0  0  0  0  0  0  0  0  0
   -7.4585    2.3298  -24.7459 C   0  0  0  0  0  0  0  0  0  0  0  0
   -6.6081    2.9643  -25.3597 O   0  0  0  0  0  0  0  0  0  0  0  0
   -8.1724    1.1761  -25.4636 C   0  0  0  0  0  0  0  0  0  0  0  0
   -9.0176    0.3180  -24.6640 N   0  0  0  0  0  0  0  0  0  0  0  0
   -8.5486   -1.0159  -24.3206 C   0  0  0  0  0  0  0  0  0  0  0  0
   -9.1345   -1.5036  -22.9692 C   0  0  2  0  0  0  0  0  0  0  0  0
   -8.5660   -0.6297  -21.8241 C   0  0  0  0  0  0  0  0  0  0  0  0
   -8.9368    0.4782  -21.4845 O   0  0  0  0  0  0  0  0  0  0  0  0
   -7.5251   -1.3128  -21.2420 N   0  0  0  0  0  0  0  0  0  0  0  0
   -6.7334   -0.7353  -20.2215 C   0  0  0  0  0  0  0  0  0  0  0  0
   -7.0323   -0.9951  -18.9096 C   0  0  0  0  0  0  0  0  0  0  0  0
   -6.3487   -0.4951  -17.8474 N   0  0  0  0  0  0  0  0  0  0  0  0
   -5.3279    0.2867  -18.1155 C   0  0  0  0  0  0  0  0  0  0  0  0
   -4.9051    0.6321  -19.4337 C   0  0  0  0  0  0  0  0  0  0  0  0
   -3.7926    1.4824  -19.6701 C   0  0  0  0  0  0  0  0  0  0  0  0
   -3.3997    1.7793  -20.9463 C   0  0  0  0  0  0  0  0  0  0  0  0
   -4.0959    1.2410  -22.0508 C   0  0  0  0  0  0  0  0  0  0  0  0
   -5.1834    0.4272  -21.8508 C   0  0  0  0  0  0  0  0  0  0  0  0
   -5.6198    0.1049  -20.5326 C   0  0  0  0  0  0  0  0  0  0  0  0
   -7.2530   -2.5991  -21.8450 C   0  0  0  0  0  0  0  0  0  0  0  0
   -8.5882   -2.8981  -22.5486 C   0  0  2  0  0  0  0  0  0  0  0  0
   -8.5152   -3.9631  -23.6556 C   0  0  0  0  0  0  0  0  0  0  0  0
   -8.2441   -5.3151  -23.2078 N   0  0  0  0  0  0  0  0  0  0  0  0
   -7.0093   -5.7682  -22.8638 C   0  0  0  0  0  0  0  0  0  0  0  0
   -5.8113   -5.2165  -23.3508 C   0  0  0  0  0  0  0  0  0  0  0  0
   -4.6425   -5.7870  -22.8915 C   0  0  0  0  0  0  0  0  0  0  0  0
   -4.6058   -6.7712  -21.9909 N   0  0  0  0  0  0  0  0  0  0  0  0
   -5.7966   -7.2059  -21.6088 C   0  0  0  0  0  0  0  0  0  0  0  0
   -6.9883   -6.8082  -22.0205 N   0  0  0  0  0  0  0  0  0  0  0  0
  -10.6408   -1.3659  -23.0555 C   0  0  0  0  0  0  0  0  0  0  0  0
  -11.5337   -2.2384  -22.4204 C   0  0  0  0  0  0  0  0  0  0  0  0
  -12.8928   -1.9749  -22.4338 C   0  0  0  0  0  0  0  0  0  0  0  0
  -13.9742   -3.0639  -21.6097 Cl  0  0  0  0  0  0  0  0  0  0  0  0
  -13.4226   -0.8543  -23.0707 C   0  0  0  0  0  0  0  0  0  0  0  0
  -12.5533    0.0012  -23.7146 C   0  0  0  0  0  0  0  0  0  0  0  0
  -11.1831   -0.2586  -23.7244 C   0  0  0  0  0  0  0  0  0  0  0  0
  -10.3214    0.6987  -24.4881 C   0  0  0  0  0  0  0  0  0  0  0  0
  -10.7582    1.7615  -24.9083 O   0  0  0  0  0  0  0  0  0  0  0  0
  1  2  1  0
  2  3  1  0
  3  4  2  0
  3  5  1  0
  5  6  1  0
  6  7  1  0
  8  7  1  6
  8  9  1  0
  9 10  2  0
  9 11  1  0
 11 12  1  0
 12 13  2  0
 13 14  1  0
 14 15  2  0
 15 16  1  0
 16 17  2  0
 17 18  1  0
 18 19  2  0
 19 20  1  0
 20 21  2  0
 11 22  1  0
 22 23  1  0
 23 24  1  6
 24 25  1  0
 25 26  1  0
 26 27  2  0
 27 28  1  0
 28 29  2  0
 29 30  1  0
 30 31  2  0
  8 32  1  0
 32 33  2  0
 33 34  1  0
 34 35  1  0
 34 36  2  0
 36 37  1  0
 37 38  2  0
 38 39  1  0
 39 40  2  0
 39  6  1  0
 23  8  1  0
 31 26  1  0
 38 32  1  0
 21 12  1  0
 21 16  1  0
M  END
>  <template_ligand>  (3) 
mol-218

>  <template_receptor>  (3) 
receptors/receptor-218.pdb

>  <SMILES>  (3) 
CNC(=O)CN1CC2(C(=O)N(c3cncc4ccccc34)CC2CNc2ccncn2)c2cc(Cl)ccc2C1=O

>  <LABEL>  (3) 
SARS-CoV-2 Mpro

$$$$
ligand_1
     RDKit          3D

 33 37  0  0  0  0  0  0  0  0999 V2000
    6.3506    4.4401   22.4529 C   0  0  0  0  0  0  0  0  0  0  0  0
    7.1566    3.5341   23.2403 N   0  0  0  0  0  0  0  0  0  0  0  0
    6.8278    3.2711   24.5226 C   0  0  0  0  0  0  0  0  0  0  0  0
    5.9287    3.8459   25.1204 O   0  0  0  0  0  0  0  0  0  0  0  0
    7.6123    2.1644   25.2364 C   0  0  0  0  0  0  0  0  0  0  0  0
    8.5323    1.3875   24.4302 N   0  0  0  0  0  0  0  0  0  0  0  0
    8.2056    0.0041   24.1407 C   0  0  0  0  0  0  0  0  0  0  0  0
    8.8495   -0.4540   22.8075 C   0  0  2  0  0  0  0  0  0  0  0  0
    8.2309    0.3451   21.6314 C   0  0  0  0  0  0  0  0  0  0  0  0
    8.5234    1.4672   21.2686 O   0  0  0  0  0  0  0  0  0  0  0  0
    7.2492   -0.4329   21.0529 N   0  0  0  0  0  0  0  0  0  0  0  0
    6.4128    0.0566   20.0142 C   0  0  0  0  0  0  0  0  0  0  0  0
    6.7334   -0.2093   18.7087 C   0  0  0  0  0  0  0  0  0  0  0  0
    6.0161    0.2121   17.6368 N   0  0  0  0  0  0  0  0  0  0  0  0
    4.9350    0.9198   17.8739 C   0  0  0  0  0  0  0  0  0  0  0  0
    4.4653    1.2464   19.1802 C   0  0  0  0  0  0  0  0  0  0  0  0
    3.2900    2.0196   19.3985 C   0  0  0  0  0  0  0  0  0  0  0  0
    2.8750    2.3032   20.6726 C   0  0  0  0  0  0  0  0  0  0  0  0
    3.6033    1.8276   21.7885 C   0  0  0  0  0  0  0  0  0  0  0  0
    4.7490    1.0943   21.6031 C   0  0  0  0  0  0  0  0  0  0  0  0
    5.2166    0.7917   20.2930 C   0  0  0  0  0  0  0  0  0  0  0  0
    7.0743   -1.7264   21.6910 C   0  0  0  0  0  0  0  0  0  0  0  0
    8.4091   -1.8912   22.4257 C   0  0  2  0  0  0  0  0  0  0  0  0
    8.3607   -2.8570   23.5719 N   0  0  0  0  0  0  0  0  0  0  0  0
   10.3376   -0.2006   22.9154 C   0  0  0  0  0  0  0  0  0  0  0  0
   11.2914   -1.0174   22.2963 C   0  0  0  0  0  0  0  0  0  0  0  0
   12.6257   -0.6490   22.3070 C   0  0  0  0  0  0  0  0  0  0  0  0
   13.7784   -1.6583   21.4796 Cl  0  0  0  0  0  0  0  0  0  0  0  0
   13.0596    0.5200   22.9358 C   0  0  0  0  0  0  0  0  0  0  0  0
   12.1221    1.3206   23.5642 C   0  0  0  0  0  0  0  0  0  0  0  0
   10.7714    0.9668   23.5647 C   0  0  0  0  0  0  0  0  0  0  0  0
    9.7969    1.8772   24.2548 C   0  0  0  0  0  0  0  0  0  0  0  0
   10.0964    3.0062   24.6216 O   0  0  0  0  0  0  0  0  0  0  0  0
  1  2  1  0
  2  3  1  0
  3  4  2  0
  3  5  1  0
  5  6  1  0
  6  7  1  0
  8  7  1  1
  8  9  1  0
  9 10  2  0
  9 11  1  0
 11 12  1  0
 12 13  2  0
 13 14  1  0
 14 15  2  0
 15 16  1  0
 16 17  2  0
 17 18  1  0
 18 19  2  0
 19 20  1  0
 20 21  2  0
 11 22  1  0
 22 23  1  0
 23 24  1  1
  8 25  1  0
 25 26  2  0
 26 27  1  0
 27 28  1  0
 27 29  2  0
 29 30  1  0
 30 31  2  0
 31 32  1  0
 32 33  2  0
 32  6  1  0
 23  8  1  0
 31 25  1  0
 21 12  1  0
 21 16  1  0
M  CHG  1  24   1
M  END
>  <template_ligand>  (4) 
mol-218

>  <template_receptor>  (4) 
receptors/receptor-218.pdb

>  <SMILES>  (4) 
CNC(=O)CN1CC2(C(=O)N(c3cncc4ccccc34)CC2[NH3+])c2cc(Cl)ccc2C1=O

>  <LABEL>  (4) 
MERS-CoV Mpro

$$$$
ligand_2
     RDKit          3D

 42 48  0  0  0  0  0  0  0  0999 V2000
   11.0183    2.8250   25.2768 O   0  0  0  0  0  0  0  0  0  0  0  0
   10.5828    1.9103   24.5850 C   0  0  0  0  0  0  0  0  0  0  0  0
   11.4659    1.0555   23.7363 C   0  0  0  0  0  0  0  0  0  0  0  0
   12.8228    1.3671   23.7241 C   0  0  0  0  0  0  0  0  0  0  0  0
   13.6779    0.7345   22.8460 C   0  0  0  0  0  0  0  0  0  0  0  0
   13.1495   -0.2200   21.9785 C   0  0  0  0  0  0  0  0  0  0  0  0
   14.1975   -1.0188   20.8452 Cl  0  0  0  0  0  0  0  0  0  0  0  0
   11.8084   -0.5523   21.9865 C   0  0  0  0  0  0  0  0  0  0  0  0
   10.9384    0.0684   22.8900 C   0  0  0  0  0  0  0  0  0  0  0  0
    9.4576   -0.2303   22.8225 C   0  0  1  0  0  0  0  0  0  0  0  0
    8.7965    0.3141   24.1145 C   0  0  0  0  0  0  0  0  0  0  0  0
    9.2476    1.6581   24.4258 N   0  0  0  0  0  0  0  0  0  0  0  0
    8.3036    2.7462   24.6459 C   0  0  0  0  0  0  0  0  0  0  0  0
    8.4024    3.8872   23.6380 C   0  0  0  0  0  0  0  0  0  0  0  0
    7.6320    3.9744   22.4938 C   0  0  0  0  0  0  0  0  0  0  0  0
    7.7245    5.1441   21.7354 C   0  0  0  0  0  0  0  0  0  0  0  0
    8.5244    6.1597   22.0472 N   0  0  0  0  0  0  0  0  0  0  0  0
    9.3154    6.0573   23.1059 N   0  0  0  0  0  0  0  0  0  0  0  0
    9.2715    4.9611   23.8613 C   0  0  0  0  0  0  0  0  0  0  0  0
    8.8180    0.4121   21.5646 C   0  0  0  0  0  0  0  0  0  0  0  0
    9.1753    1.3962   20.9577 O   0  0  0  0  0  0  0  0  0  0  0  0
    7.7353   -0.3690   21.2184 N   0  0  0  0  0  0  0  0  0  0  0  0
    6.8634    0.0142   20.1755 C   0  0  0  0  0  0  0  0  0  0  0  0
    7.1809   -0.2792   18.8729 C   0  0  0  0  0  0  0  0  0  0  0  0
    6.4217    0.0597   17.8001 N   0  0  0  0  0  0  0  0  0  0  0  0
    5.3108    0.7152   18.0446 C   0  0  0  0  0  0  0  0  0  0  0  0
    4.8670    1.0889   19.3479 C   0  0  0  0  0  0  0  0  0  0  0  0
    3.6591    1.8077   19.5482 C   0  0  0  0  0  0  0  0  0  0  0  0
    3.2547    2.1474   20.8102 C   0  0  0  0  0  0  0  0  0  0  0  0
    4.0336    1.7882   21.9305 C   0  0  0  0  0  0  0  0  0  0  0  0
    5.2106    1.0958   21.7633 C   0  0  0  0  0  0  0  0  0  0  0  0
    5.6568    0.7262   20.4608 C   0  0  0  0  0  0  0  0  0  0  0  0
    7.6627   -1.6304   21.9238 C   0  0  0  0  0  0  0  0  0  0  0  0
    9.0597   -1.7163   22.5626 C   0  0  2  0  0  0  0  0  0  0  0  0
    9.1640   -2.6709   23.7598 C   0  0  0  0  0  0  0  0  0  0  0  0
    9.0819   -4.0744   23.4217 N   0  0  0  0  0  0  0  0  0  0  0  0
    7.9315   -4.7330   23.1244 C   0  0  0  0  0  0  0  0  0  0  0  0
    6.6508   -4.3286   23.5430 C   0  0  0  0  0  0  0  0  0  0  0  0
    5.5886   -5.1127   23.1347 C   0  0  0  0  0  0  0  0  0  0  0  0
    5.7267   -6.2119   22.3821 N   0  0  0  0  0  0  0  0  0  0  0  0
    6.9834   -6.5069   22.0776 C   0  0  0  0  0  0  0  0  0  0  0  0
    8.0884   -5.8549   22.4057 N   0  0  0  0  0  0  0  0  0  0  0  0
  1  2  2  0
  2  3  1  0
  3  4  2  0
  4  5  1  0
  5  6  2  0
  6  7  1  0
  6  8  1  0
  8  9  2  0
  9 10  1  0
 10 11  1  1
 11 12  1  0
 12 13  1  0
 13 14  1  0
 14 15  2  0
 15 16  1  0
 16 17  2  0
 17 18  1  0
 18 19  2  0
 10 20  1  0
 20 21  2  0
 20 22  1  0
 22 23  1  0
 23 24  2  0
 24 25  1  0
 25 26  2  0
 26 27  1  0
 27 28  2  0
 28 29  1  0
 29 30  2  0
 30 31  1  0
 31 32  2  0
 22 33  1  0
 33 34  1  0
 34 35  1  1
 35 36  1  0
 36 37  1  0
 37 38  2  0
 38 39  1  0
 39 40  2  0
 40 41  1  0
 41 42  2  0
 12  2  1  0
 19 14  1  0
 32 23  1  0
 42 37  1  0
  9  3  1  0
 34 10  1  0
 32 27  1  0
M  END
>  <template_ligand>  (5) 
mol-246

>  <template_receptor>  (5) 
receptors/receptor-246.pdb

>  <SMILES>  (5) 
O=C1c2ccc(Cl)cc2C2(CN1Cc1ccnnc1)C(=O)N(c1cncc3ccccc13)CC2CNc1ccncn1

>  <LABEL>  (5) 
MERS-CoV Mpro

$$$$
ligand_0
     RDKit          3D

 40 45  0  0  0  0  0  0  0  0999 V2000
   -7.0462    3.5985  -22.7297 C   0  0  0  0  0  0  0  0  0  0  0  0
   -7.7945    2.6195  -23.4958 N   0  0  0  0  0  0  0  0  0  0  0  0
   -7.4520    2.3500  -24.7731 C   0  0  0  0  0  0  0  0  0  0  0  0
   -6.6028    2.9848  -25.3879 O   0  0  0  0  0  0  0  0  0  0  0  0
   -8.1594    1.1745  -25.4658 C   0  0  0  0  0  0  0  0  0  0  0  0
   -9.0082    0.3341  -24.6479 N   0  0  0  0  0  0  0  0  0  0  0  0
   -8.5566   -1.0067  -24.3250 C   0  0  0  0  0  0  0  0  0  0  0  0
   -9.1443   -1.4921  -22.9764 C   0  0  2  0  0  0  0  0  0  0  0  0
   -8.5738   -0.6275  -21.8183 C   0  0  0  0  0  0  0  0  0  0  0  0
   -8.9456    0.4737  -21.4597 O   0  0  0  0  0  0  0  0  0  0  0  0
   -7.5227   -1.3174  -21.2500 N   0  0  0  0  0  0  0  0  0  0  0  0
   -6.7302   -0.7372  -20.2230 C   0  0  0  0  0  0  0  0  0  0  0  0
   -7.0209   -0.9951  -18.9093 C   0  0  0  0  0  0  0  0  0  0  0  0
   -6.3262   -0.4993  -17.8515 N   0  0  0  0  0  0  0  0  0  0  0  0
   -5.3080    0.2841  -18.1193 C   0  0  0  0  0  0  0  0  0  0  0  0
   -4.8846    0.6309  -19.4366 C   0  0  0  0  0  0  0  0  0  0  0  0
   -3.7742    1.4851  -19.6782 C   0  0  0  0  0  0  0  0  0  0  0  0
   -3.3895    1.7777  -20.9585 C   0  0  0  0  0  0  0  0  0  0  0  0
   -4.0906    1.2293  -22.0577 C   0  0  0  0  0  0  0  0  0  0  0  0
   -5.1743    0.4120  -21.8485 C   0  0  0  0  0  0  0  0  0  0  0  0
   -5.6095    0.0995  -20.5305 C   0  0  0  0  0  0  0  0  0  0  0  0
   -7.2627   -2.6094  -21.8613 C   0  0  0  0  0  0  0  0  0  0  0  0
   -8.5962   -2.8937  -22.5742 C   0  0  2  0  0  0  0  0  0  0  0  0
   -8.5083   -3.9361  -23.7065 C   0  0  0  0  0  0  0  0  0  0  0  0
   -8.2343   -5.2905  -23.2843 N   0  0  0  0  0  0  0  0  0  0  0  0
   -6.9419   -5.7459  -23.0707 C   0  0  0  0  0  0  0  0  0  0  0  0
   -6.5647   -6.9443  -22.4021 C   0  0  0  0  0  0  0  0  0  0  0  0
   -5.2488   -7.1218  -22.4297 N   0  0  0  0  0  0  0  0  0  0  0  0
   -4.7616   -6.0811  -23.1054 N   0  0  0  0  0  0  0  0  0  0  0  0
   -3.3373   -5.9212  -23.2942 C   0  0  0  0  0  0  0  0  0  0  0  0
   -5.7393   -5.2219  -23.5099 C   0  0  0  0  0  0  0  0  0  0  0  0
  -10.6504   -1.3545  -23.0657 C   0  0  0  0  0  0  0  0  0  0  0  0
  -11.5314   -2.2369  -22.4287 C   0  0  0  0  0  0  0  0  0  0  0  0
  -12.8911   -1.9804  -22.4257 C   0  0  0  0  0  0  0  0  0  0  0  0
  -13.9602   -3.0650  -21.5765 Cl  0  0  0  0  0  0  0  0  0  0  0  0
  -13.4253   -0.8621  -23.0678 C   0  0  0  0  0  0  0  0  0  0  0  0
  -12.5626   -0.0021  -23.7216 C   0  0  0  0  0  0  0  0  0  0  0  0
  -11.1904   -0.2437  -23.7318 C   0  0  0  0  0  0  0  0  0  0  0  0
  -10.3061    0.7256  -24.4632 C   0  0  0  0  0  0  0  0  0  0  0  0
  -10.6999    1.8184  -24.8548 O   0  0  0  0  0  0  0  0  0  0  0  0
  1  2  1  0
  2  3  1  0
  3  4  2  0
  3  5  1  0
  5  6  1  0
  6  7  1  0
  8  7  1  6
  8  9  1  0
  9 10  2  0
  9 11  1  0
 11 12  1  0
 12 13  2  0
 13 14  1  0
 14 15  2  0
 15 16  1  0
 16 17  2  0
 17 18  1  0
 18 19  2  0
 19 20  1  0
 20 21  2  0
 11 22  1  0
 22 23  1  0
 23 24  1  6
 24 25  1  0
 25 26  1  0
 26 27  1  0
 27 28  2  0
 28 29  1  0
 29 30  1  0
 29 31  1  0
  8 32  1  0
 32 33  2  0
 33 34  1  0
 34 35  1  0
 34 36  2  0
 36 37  1  0
 37 38  2  0
 38 39  1  0
 39 40  2  0
 39  6  1  0
 23  8  1  0
 31 26  2  0
 38 32  1  0
 21 12  1  0
 21 16  1  0
M  END
>  <template_ligand>  (6) 
mol-218

>  <template_receptor>  (6) 
receptors/receptor-218.pdb

>  <SMILES>  (6) 
CNC(=O)CN1CC2(C(=O)N(c3cncc4ccccc34)CC2CNc2cnn(C)c2)c2cc(Cl)ccc2C1=O

>  <LABEL>  (6) 
SARS-CoV-2 Mpro

$$$$
ligand_1
     RDKit          3D

 36 41  0  0  0  0  0  0  0  0999 V2000
   -5.0615    4.8635  -22.3285 C   0  0  0  0  0  0  0  0  0  0  0  0
   -5.8507    3.8951  -23.1603 C   0  0  0  0  0  0  0  0  0  0  0  0
   -7.0751    3.3954  -22.7132 C   0  0  0  0  0  0  0  0  0  0  0  0
   -7.8118    2.5400  -23.4159 N   0  0  0  0  0  0  0  0  0  0  0  0
   -7.3210    2.1574  -24.5903 C   0  0  0  0  0  0  0  0  0  0  0  0
   -8.1220    1.1899  -25.4354 C   0  0  0  0  0  0  0  0  0  0  0  0
   -9.0078    0.3400  -24.6637 N   0  0  0  0  0  0  0  0  0  0  0  0
   -8.5539   -0.9980  -24.3240 C   0  0  0  0  0  0  0  0  0  0  0  0
   -9.1428   -1.4969  -22.9739 C   0  0  2  0  0  0  0  0  0  0  0  0
   -8.5826   -0.6218  -21.8180 C   0  0  0  0  0  0  0  0  0  0  0  0
   -8.9697    0.4619  -21.4524 O   0  0  0  0  0  0  0  0  0  0  0  0
   -7.5251   -1.3073  -21.2484 N   0  0  0  0  0  0  0  0  0  0  0  0
   -6.7247   -0.7394  -20.2220 C   0  0  0  0  0  0  0  0  0  0  0  0
   -7.0128   -1.0010  -18.9054 C   0  0  0  0  0  0  0  0  0  0  0  0
   -6.3237   -0.4997  -17.8491 N   0  0  0  0  0  0  0  0  0  0  0  0
   -5.3036    0.2883  -18.1099 C   0  0  0  0  0  0  0  0  0  0  0  0
   -4.8752    0.6257  -19.4280 C   0  0  0  0  0  0  0  0  0  0  0  0
   -3.7711    1.4886  -19.6759 C   0  0  0  0  0  0  0  0  0  0  0  0
   -3.3933    1.7754  -20.9612 C   0  0  0  0  0  0  0  0  0  0  0  0
   -4.0929    1.2232  -22.0572 C   0  0  0  0  0  0  0  0  0  0  0  0
   -5.1747    0.4058  -21.8453 C   0  0  0  0  0  0  0  0  0  0  0  0
   -5.5944    0.0877  -20.5229 C   0  0  0  0  0  0  0  0  0  0  0  0
   -7.2712   -2.5945  -21.8678 C   0  0  0  0  0  0  0  0  0  0  0  0
   -8.5924   -2.8979  -22.5830 C   0  0  2  0  0  0  0  0  0  0  0  0
   -8.4800   -3.9138  -23.7115 C   0  0  0  0  0  0  0  0  0  0  0  0
  -10.6478   -1.3602  -23.0735 C   0  0  0  0  0  0  0  0  0  0  0  0
  -11.5240   -2.2427  -22.4333 C   0  0  0  0  0  0  0  0  0  0  0  0
  -12.8778   -1.9746  -22.4430 C   0  0  0  0  0  0  0  0  0  0  0  0
  -13.6983   -2.8209  -21.7993 F   0  0  0  0  0  0  0  0  0  0  0  0
  -13.4205   -0.8615  -23.0722 C   0  0  0  0  0  0  0  0  0  0  0  0
  -12.5590    0.0009  -23.7212 C   0  0  0  0  0  0  0  0  0  0  0  0
  -11.1817   -0.2373  -23.7300 C   0  0  0  0  0  0  0  0  0  0  0  0
  -10.2971    0.7465  -24.4479 C   0  0  0  0  0  0  0  0  0  0  0  0
  -10.7193    1.8303  -24.8307 O   0  0  0  0  0  0  0  0  0  0  0  0
   -6.0974    2.6534  -25.0436 C   0  0  0  0  0  0  0  0  0  0  0  0
   -5.3626    3.5182  -24.3467 N   0  0  0  0  0  0  0  0  0  0  0  0
  1  2  1  0
  2  3  2  0
  3  4  1  0
  4  5  2  0
  5  6  1  0
  6  7  1  0
  7  8  1  0
  9  8  1  6
  9 10  1  0
 10 11  2  0
 10 12  1  0
 12 13  1  0
 13 14  2  0
 14 15  1  0
 15 16  2  0
 16 17  1  0
 17 18  2  0
 18 19  1  0
 19 20  2  0
 20 21  1  0
 21 22  2  0
 12 23  1  0
 23 24  1  0
 24 25  1  6
  9 26  1  0
 26 27  2  0
 27 28  1  0
 28 29  1  0
 28 30  2  0
 30 31  1  0
 31 32  2  0
 32 33  1  0
 33 34  2  0
  5 35  1  0
 35 36  2  0
 36  2  1  0
 33  7  1  0
 24  9  1  0
 32 26  1  0
 22 13  1  0
 22 17  1  0
M  END
>  <template_ligand>  (7) 
mol-218

>  <template_receptor>  (7) 
receptors/receptor-218.pdb

>  <SMILES>  (7) 
Cc1cnc(CN2CC3(C(=O)N(c4cncc5ccccc45)CC3C)c3cc(F)ccc3C2=O)cn1

>  <LABEL>  (7) 
SARS-CoV-2 Mpro

$$$$
ligand_2
     RDKit          3D

 37 41  0  0  0  0  0  0  0  0999 V2000
   -7.0479    3.5969  -22.7356 C   0  0  0  0  0  0  0  0  0  0  0  0
   -7.7863    2.6134  -23.4980 N   0  0  0  0  0  0  0  0  0  0  0  0
   -7.4493    2.3560  -24.7798 C   0  0  0  0  0  0  0  0  0  0  0  0
   -6.6063    2.9907  -25.3960 O   0  0  0  0  0  0  0  0  0  0  0  0
   -8.1495    1.1783  -25.4665 C   0  0  0  0  0  0  0  0  0  0  0  0
   -8.9984    0.3449  -24.6399 N   0  0  0  0  0  0  0  0  0  0  0  0
   -8.5554   -0.9988  -24.3222 C   0  0  0  0  0  0  0  0  0  0  0  0
   -9.1453   -1.4902  -22.9744 C   0  0  2  0  0  0  0  0  0  0  0  0
   -8.5813   -0.6243  -21.8213 C   0  0  0  0  0  0  0  0  0  0  0  0
   -8.9585    0.4767  -21.4717 O   0  0  0  0  0  0  0  0  0  0  0  0
   -7.5330   -1.3107  -21.2452 N   0  0  0  0  0  0  0  0  0  0  0  0
   -6.7295   -0.7366  -20.2222 C   0  0  0  0  0  0  0  0  0  0  0  0
   -7.0152   -0.9986  -18.9075 C   0  0  0  0  0  0  0  0  0  0  0  0
   -6.3231   -0.5007  -17.8509 N   0  0  0  0  0  0  0  0  0  0  0  0
   -5.3053    0.2867  -18.1130 C   0  0  0  0  0  0  0  0  0  0  0  0
   -4.8773    0.6265  -19.4297 C   0  0  0  0  0  0  0  0  0  0  0  0
   -3.7704    1.4881  -19.6759 C   0  0  0  0  0  0  0  0  0  0  0  0
   -3.3929    1.7807  -20.9590 C   0  0  0  0  0  0  0  0  0  0  0  0
   -4.0921    1.2274  -22.0578 C   0  0  0  0  0  0  0  0  0  0  0  0
   -5.1726    0.4074  -21.8463 C   0  0  0  0  0  0  0  0  0  0  0  0
   -5.6012    0.0915  -20.5261 C   0  0  0  0  0  0  0  0  0  0  0  0
   -7.2688   -2.5961  -21.8691 C   0  0  0  0  0  0  0  0  0  0  0  0
   -8.5972   -2.8856  -22.5864 C   0  0  2  0  0  0  0  0  0  0  0  0
   -8.5167   -3.9130  -23.7130 C   0  0  0  0  0  0  0  0  0  0  0  0
   -8.2738   -5.1997  -23.1929 O   0  0  0  0  0  0  0  0  0  0  0  0
   -6.9570   -5.6991  -23.3714 C   0  0  0  0  0  0  0  0  0  0  0  0
   -6.8301   -6.4044  -24.7133 C   0  0  0  0  0  0  0  0  0  0  0  0
   -6.6557   -6.6305  -22.2125 C   0  0  0  0  0  0  0  0  0  0  0  0
  -10.6490   -1.3585  -23.0724 C   0  0  0  0  0  0  0  0  0  0  0  0
  -11.5275   -2.2398  -22.4300 C   0  0  0  0  0  0  0  0  0  0  0  0
  -12.8866   -1.9796  -22.4278 C   0  0  0  0  0  0  0  0  0  0  0  0
  -13.9467   -3.0619  -21.5690 Cl  0  0  0  0  0  0  0  0  0  0  0  0
  -13.4207   -0.8606  -23.0710 C   0  0  0  0  0  0  0  0  0  0  0  0
  -12.5578    0.0015  -23.7242 C   0  0  0  0  0  0  0  0  0  0  0  0
  -11.1834   -0.2404  -23.7339 C   0  0  0  0  0  0  0  0  0  0  0  0
  -10.2960    0.7352  -24.4537 C   0  0  0  0  0  0  0  0  0  0  0  0
  -10.6909    1.8283  -24.8351 O   0  0  0  0  0  0  0  0  0  0  0  0
  1  2  1  0
  2  3  1  0
  3  4  2  0
  3  5  1  0
  5  6  1  0
  6  7  1  0
  8  7  1  6
  8  9  1  0
  9 10  2  0
  9 11  1  0
 11 12  1  0
 12 13  2  0
 13 14  1  0
 14 15  2  0
 15 16  1  0
 16 17  2  0
 17 18  1  0
 18 19  2  0
 19 20  1  0
 20 21  2  0
 11 22  1  0
 22 23  1  0
 23 24  1  6
 24 25  1  0
 25 26  1  0
 26 27  1  0
 26 28  1  0
  8 29  1  0
 29 30  2  0
 30 31  1  0
 31 32  1  0
 31 33  2  0
 33 34  1  0
 34 35  2  0
 35 36  1  0
 36 37  2  0
 36  6  1  0
 23  8  1  0
 35 29  1  0
 21 12  1  0
 21 16  1  0
M  END
>  <template_ligand>  (8) 
mol-218

>  <template_receptor>  (8) 
receptors/receptor-218.pdb

>  <SMILES>  (8) 
CNC(=O)CN1CC2(C(=O)N(c3cncc4ccccc34)CC2COC(C)C)c2cc(Cl)ccc2C1=O

>  <LABEL>  (8) 
SARS-CoV-2 Mpro

$$$$
ligand_3
     RDKit          3D

 35 40  0  0  0  0  0  0  0  0999 V2000
   -8.4795   -3.9142  -23.7093 C   0  0  0  0  0  0  0  0  0  0  0  0
   -8.5910   -2.8945  -22.5830 C   0  0  1  0  0  0  0  0  0  0  0  0
   -7.2673   -2.5959  -21.8662 C   0  0  0  0  0  0  0  0  0  0  0  0
   -7.5259   -1.3115  -21.2447 N   0  0  0  0  0  0  0  0  0  0  0  0
   -6.7267   -0.7369  -20.2205 C   0  0  0  0  0  0  0  0  0  0  0  0
   -7.0151   -0.9980  -18.9059 C   0  0  0  0  0  0  0  0  0  0  0  0
   -6.3228   -0.4997  -17.8497 N   0  0  0  0  0  0  0  0  0  0  0  0
   -5.3048    0.2871  -18.1121 C   0  0  0  0  0  0  0  0  0  0  0  0
   -4.8749    0.6251  -19.4284 C   0  0  0  0  0  0  0  0  0  0  0  0
   -3.7694    1.4880  -19.6763 C   0  0  0  0  0  0  0  0  0  0  0  0
   -3.3944    1.7823  -20.9579 C   0  0  0  0  0  0  0  0  0  0  0  0
   -4.0894    1.2218  -22.0548 C   0  0  0  0  0  0  0  0  0  0  0  0
   -5.1583    0.3848  -21.8418 C   0  0  0  0  0  0  0  0  0  0  0  0
   -5.5929    0.0849  -20.5242 C   0  0  0  0  0  0  0  0  0  0  0  0
   -8.5889   -0.6307  -21.8060 C   0  0  0  0  0  0  0  0  0  0  0  0
   -8.9847    0.4425  -21.4171 O   0  0  0  0  0  0  0  0  0  0  0  0
   -9.1430   -1.4956  -22.9712 C   0  0  1  0  0  0  0  0  0  0  0  0
   -8.5546   -1.0050  -24.3234 C   0  0  0  0  0  0  0  0  0  0  0  0
   -9.0017    0.3335  -24.6578 N   0  0  0  0  0  0  0  0  0  0  0  0
   -8.1432    1.1827  -25.4638 C   0  0  0  0  0  0  0  0  0  0  0  0
   -7.5350    2.3098  -24.6731 C   0  0  0  0  0  0  0  0  0  0  0  0
   -7.4166    2.3132  -23.3652 N   0  0  0  0  0  0  0  0  0  0  0  0
   -6.7684    3.4817  -23.0608 C   0  0  0  0  0  0  0  0  0  0  0  0
   -6.4796    4.1806  -24.2043 C   0  0  0  0  0  0  0  0  0  0  0  0
   -6.9711    3.4151  -25.2406 N   0  0  0  0  0  0  0  0  0  0  0  0
   -6.9246    3.7285  -26.6526 C   0  0  0  0  0  0  0  0  0  0  0  0
  -10.2916    0.7398  -24.4486 C   0  0  0  0  0  0  0  0  0  0  0  0
  -10.6952    1.8245  -24.8386 O   0  0  0  0  0  0  0  0  0  0  0  0
  -11.1806   -0.2388  -23.7284 C   0  0  0  0  0  0  0  0  0  0  0  0
  -12.5570    0.0014  -23.7210 C   0  0  0  0  0  0  0  0  0  0  0  0
  -13.4242   -0.8602  -23.0752 C   0  0  0  0  0  0  0  0  0  0  0  0
  -12.8797   -1.9752  -22.4440 C   0  0  0  0  0  0  0  0  0  0  0  0
  -13.7025   -2.8208  -21.8001 F   0  0  0  0  0  0  0  0  0  0  0  0
  -11.5253   -2.2426  -22.4321 C   0  0  0  0  0  0  0  0  0  0  0  0
  -10.6470   -1.3611  -23.0719 C   0  0  0  0  0  0  0  0  0  0  0  0
  2  1  1  6
  2  3  1  0
  3  4  1  0
  4  5  1  0
  5  6  2  0
  6  7  1  0
  7  8  2  0
  8  9  1  0
  9 10  2  0
 10 11  1  0
 11 12  2  0
 12 13  1  0
 13 14  2  0
  4 15  1  0
 15 16  2  0
 15 17  1  0
 17 18  1  6
 18 19  1  0
 19 20  1  0
 20 21  1  0
 21 22  2  0
 22 23  1  0
 23 24  2  0
 24 25  1  0
 25 26  1  0
 19 27  1  0
 27 28  2  0
 27 29  1  0
 29 30  2  0
 30 31  1  0
 31 32  2  0
 32 33  1  0
 32 34  1  0
 34 35  2  0
 17  2  1  0
 25 21  1  0
 35 29  1  0
 14  5  1  0
 35 17  1  0
 14  9  1  0
M  END
>  <template_ligand>  (9) 
mol-218

>  <template_receptor>  (9) 
receptors/receptor-218.pdb

>  <SMILES>  (9) 
CC1CN(c2cncc3ccccc23)C(=O)C12CN(Cc1nccn1C)C(=O)c1ccc(F)cc12

>  <LABEL>  (9) 
SARS-CoV-2 Mpro

$$$$

     RDKit          3D

 23 26  0  0  0  0  0  0  0  0999 V2000
    8.9721    3.2696   23.0201 C   0  0  0  0  0  0  0  0  0  0  0  0
    9.6163    2.1364   22.2242 C   0  0  1  0  0  0  0  0  0  0  0  0
   10.9780    1.8377   22.7460 C   0  0  0  0  0  0  0  0  0  0  0  0
   12.1878    2.5084   22.3872 C   0  0  0  0  0  0  0  0  0  0  0  0
   13.2740    1.9695   22.9912 C   0  0  0  0  0  0  0  0  0  0  0  0
   12.8193    0.7356   24.1114 S   0  0  0  0  0  0  0  0  0  0  0  0
   11.1532    0.8577   23.6682 C   0  0  0  0  0  0  0  0  0  0  0  0
   10.0029    0.0251   24.1711 C   0  0  0  0  0  0  0  0  0  0  0  0
    9.0233   -0.2508   23.0228 C   0  0  0  0  0  0  0  0  0  0  0  0
    8.7843    0.9224   22.1753 N   0  0  0  0  0  0  0  0  0  0  0  0
    7.8125    0.9354   21.2076 C   0  0  0  0  0  0  0  0  0  0  0  0
    7.6808    1.8925   20.4618 O   0  0  0  0  0  0  0  0  0  0  0  0
    6.9130   -0.3054   21.0777 C   0  0  0  0  0  0  0  0  0  0  0  0
    5.8845   -0.1691   19.9838 C   0  0  0  0  0  0  0  0  0  0  0  0
    6.0617   -0.7884   18.7735 C   0  0  0  0  0  0  0  0  0  0  0  0
    5.2526   -0.6500   17.6911 N   0  0  0  0  0  0  0  0  0  0  0  0
    4.1903    0.1024   17.8359 C   0  0  0  0  0  0  0  0  0  0  0  0
    3.8388    0.7601   19.0443 C   0  0  0  0  0  0  0  0  0  0  0  0
    2.6609    1.5385   19.1646 C   0  0  0  0  0  0  0  0  0  0  0  0
    2.3506    2.1574   20.3424 C   0  0  0  0  0  0  0  0  0  0  0  0
    3.2295    2.0542   21.4429 C   0  0  0  0  0  0  0  0  0  0  0  0
    4.3866    1.3202   21.3470 C   0  0  0  0  0  0  0  0  0  0  0  0
    4.7169    0.6379   20.1468 C   0  0  0  0  0  0  0  0  0  0  0  0
  2  1  1  1
  2  3  1  0
  3  4  1  0
  4  5  2  0
  5  6  1  0
  6  7  1  0
  7  8  1  0
  8  9  1  0
  9 10  1  0
 10 11  1  0
 11 12  2  0
 11 13  1  0
 13 14  1  0
 14 15  2  0
 15 16  1  0
 16 17  2  0
 17 18  1  0
 18 19  2  0
 19 20  1  0
 20 21  2  0
 21 22  1  0
 22 23  2  0
 10  2  1  0
 23 14  1  0
  7  3  2  0
 23 18  1  0
M  END
>  <cnnaffinities>  (10) 
[5.40567, 5.31416]

>  <score>  (10) 
5.40567

>  <index>  (10) 
4

>  <Smiles>  (10) 
C([C@]1(c2c(c(sc2C(C(N1C(=O)C(c1c(nc(c2c(c(c(c(c12)[H])[H])[H])[H])[H])[H])([H])[H])([H])[H])([H])[H])[H])[H])[H])([H])([H])[H]

>  <h>  (10) 
<NA>

>  <Training>  (10) 
True

>  <Success>  (10) 
True

>  <enamine_searched>  (10) 
False

>  <enamine_id>  (10) 
nan

>  <SMILES>  (10) 
CC1c2ccsc2CCN1C(=O)Cc1cncc2ccccc12

>  <LABEL>  (10) 
MERS-CoV Mpro

$$$$
ligand_4
     RDKit          3D

 31 35  0  0  0  0  0  0  0  0999 V2000
    9.1578   -2.6359   23.7869 C   0  0  0  0  0  0  0  0  0  0  0  0
    9.0650   -1.6940   22.5867 C   0  0  1  0  0  0  0  0  0  0  0  0
    7.6708   -1.6365   21.9348 C   0  0  0  0  0  0  0  0  0  0  0  0
    7.7279   -0.3821   21.2090 N   0  0  0  0  0  0  0  0  0  0  0  0
    6.8515    0.0054   20.1721 C   0  0  0  0  0  0  0  0  0  0  0  0
    7.1752   -0.2824   18.8701 C   0  0  0  0  0  0  0  0  0  0  0  0
    6.4162    0.0577   17.7982 N   0  0  0  0  0  0  0  0  0  0  0  0
    5.3055    0.7129   18.0440 C   0  0  0  0  0  0  0  0  0  0  0  0
    4.8602    1.0842   19.3459 C   0  0  0  0  0  0  0  0  0  0  0  0
    3.6545    1.8014   19.5498 C   0  0  0  0  0  0  0  0  0  0  0  0
    3.2490    2.1419   20.8100 C   0  0  0  0  0  0  0  0  0  0  0  0
    4.0306    1.7861   21.9307 C   0  0  0  0  0  0  0  0  0  0  0  0
    5.2073    1.0986   21.7619 C   0  0  0  0  0  0  0  0  0  0  0  0
    5.6497    0.7272   20.4596 C   0  0  0  0  0  0  0  0  0  0  0  0
    8.8052    0.4091   21.5434 C   0  0  0  0  0  0  0  0  0  0  0  0
    9.1432    1.3887   20.9158 O   0  0  0  0  0  0  0  0  0  0  0  0
    9.4442   -0.2005   22.8117 C   0  0  1  0  0  0  0  0  0  0  0  0
    8.7746    0.3808   24.0726 C   0  0  0  0  0  0  0  0  0  0  0  0
    9.2202    1.7379   24.3056 N   0  0  0  0  0  0  0  0  0  0  0  0
    8.2878    2.8304   24.3560 C   0  0  0  0  0  0  0  0  0  0  0  0
    7.9458    3.4681   23.0621 C   0  0  0  0  0  0  0  0  0  0  0  0
    7.5875    4.0284   22.1156 N   0  0  0  0  0  0  0  0  0  0  0  0
   10.5561    1.9855   24.5238 C   0  0  0  0  0  0  0  0  0  0  0  0
   10.9636    2.8757   25.2491 O   0  0  0  0  0  0  0  0  0  0  0  0
   11.4488    1.0953   23.7145 C   0  0  0  0  0  0  0  0  0  0  0  0
   12.8107    1.3968   23.7148 C   0  0  0  0  0  0  0  0  0  0  0  0
   13.6705    0.7489   22.8463 C   0  0  0  0  0  0  0  0  0  0  0  0
   13.1352   -0.2132   21.9938 C   0  0  0  0  0  0  0  0  0  0  0  0
   13.9518   -0.8269   21.1178 F   0  0  0  0  0  0  0  0  0  0  0  0
   11.7946   -0.5424   21.9855 C   0  0  0  0  0  0  0  0  0  0  0  0
   10.9217    0.1008   22.8731 C   0  0  0  0  0  0  0  0  0  0  0  0
  2  1  1  1
  2  3  1  0
  3  4  1  0
  4  5  1  0
  5  6  2  0
  6  7  1  0
  7  8  2  0
  8  9  1  0
  9 10  2  0
 10 11  1  0
 11 12  2  0
 12 13  1  0
 13 14  2  0
  4 15  1  0
 15 16  2  0
 15 17  1  0
 17 18  1  1
 18 19  1  0
 19 20  1  0
 20 21  1  0
 21 22  3  0
 19 23  1  0
 23 24  2  0
 23 25  1  0
 25 26  2  0
 26 27  1  0
 27 28  2  0
 28 29  1  0
 28 30  1  0
 30 31  2  0
 17  2  1  0
 31 25  1  0
 14  5  1  0
 31 17  1  0
 14  9  1  0
M  END
>  <template_ligand>  (11) 
mol-246

>  <template_receptor>  (11) 
receptors/receptor-246.pdb

>  <SMILES>  (11) 
CC1CN(c2cncc3ccccc23)C(=O)C12CN(CC#N)C(=O)c1ccc(F)cc12

>  <LABEL>  (11) 
MERS-CoV Mpro

$$$$
ligand_5
     RDKit          3D

 36 40  0  0  0  0  0  0  0  0999 V2000
    5.7794   -5.7480   24.6082 C   0  0  0  0  0  0  0  0  0  0  0  0
    5.4276   -4.4774   25.3850 C   0  0  0  0  0  0  0  0  0  0  0  0
    6.4034   -4.2427   26.5161 C   0  0  0  0  0  0  0  0  0  0  0  0
    6.6285   -5.0096   27.4158 O   0  0  0  0  0  0  0  0  0  0  0  0
    7.1004   -2.9302   26.5409 N   0  0  2  0  0  0  0  0  0  0  0  0
    6.1475   -1.8085   26.9912 C   0  0  0  0  0  0  0  0  0  0  0  0
    6.7273   -0.4503   26.6650 C   0  0  0  0  0  0  0  0  0  0  0  0
    6.9750   -0.3485   25.1637 C   0  0  0  0  0  0  0  0  0  0  0  0
    7.9243   -1.4321   24.6866 C   0  0  0  0  0  0  0  0  0  0  0  0
    8.7231   -1.2752   23.5423 C   0  0  0  0  0  0  0  0  0  0  0  0
    8.8120    0.0230   22.9532 N   0  0  0  0  0  0  0  0  0  0  0  0
    9.5853    1.0488   23.6471 C   0  0  0  0  0  0  0  0  0  0  0  0
   11.0388    1.1658   23.2025 C   0  0  0  0  0  0  0  0  0  0  0  0
   11.7177    2.3774   23.3448 C   0  0  0  0  0  0  0  0  0  0  0  0
   13.0402    2.5028   22.9254 C   0  0  0  0  0  0  0  0  0  0  0  0
   13.7029    1.4329   22.3334 C   0  0  0  0  0  0  0  0  0  0  0  0
   13.0188    0.2326   22.1870 C   0  0  0  0  0  0  0  0  0  0  0  0
   13.7670   -1.1036   21.3522 Cl  0  0  0  0  0  0  0  0  0  0  0  0
   11.7230    0.0806   22.6609 C   0  0  0  0  0  0  0  0  0  0  0  0
    8.3257    0.2912   21.6917 C   0  0  0  0  0  0  0  0  0  0  0  0
    8.5264    1.3500   21.1309 O   0  0  0  0  0  0  0  0  0  0  0  0
    7.4842   -0.8252   21.0402 C   0  0  0  0  0  0  0  0  0  0  0  0
    6.6127   -0.2889   19.9530 C   0  0  0  0  0  0  0  0  0  0  0  0
    6.9287   -0.4764   18.6347 C   0  0  0  0  0  0  0  0  0  0  0  0
    6.2314    0.0272   17.5800 N   0  0  0  0  0  0  0  0  0  0  0  0
    5.1733    0.7501   17.8677 C   0  0  0  0  0  0  0  0  0  0  0  0
    4.7284    1.0315   19.1917 C   0  0  0  0  0  0  0  0  0  0  0  0
    3.5845    1.8293   19.4552 C   0  0  0  0  0  0  0  0  0  0  0  0
    3.1942    2.0815   20.7427 C   0  0  0  0  0  0  0  0  0  0  0  0
    3.9307    1.5506   21.8282 C   0  0  0  0  0  0  0  0  0  0  0  0
    5.0418    0.7787   21.5977 C   0  0  0  0  0  0  0  0  0  0  0  0
    5.4694    0.5003   20.2697 C   0  0  0  0  0  0  0  0  0  0  0  0
    9.4056   -2.3551   22.9859 C   0  0  0  0  0  0  0  0  0  0  0  0
    9.4858   -3.5600   23.6804 C   0  0  0  0  0  0  0  0  0  0  0  0
    8.7527   -3.7116   24.8507 C   0  0  0  0  0  0  0  0  0  0  0  0
    7.9539   -2.6693   25.3223 C   0  0  0  0  0  0  0  0  0  0  0  0
  1  2  1  0
  2  3  1  0
  3  4  2  0
  5  3  1  6
  5  6  1  0
  6  7  1  0
  7  8  1  0
  8  9  1  0
  9 10  2  0
 10 11  1  0
 11 12  1  0
 12 13  1  0
 13 14  2  0
 14 15  1  0
 15 16  2  0
 16 17  1  0
 17 18  1  0
 17 19  2  0
 11 20  1  0
 20 21  2  0
 20 22  1  0
 22 23  1  0
 23 24  2  0
 24 25  1  0
 25 26  2  0
 26 27  1  0
 27 28  2  0
 28 29  1  0
 29 30  2  0
 30 31  1  0
 31 32  2  0
 10 33  1  0
 33 34  2  0
 34 35  1  0
 35 36  2  0
 36  5  1  0
 36  9  1  0
 19 13  1  0
 32 23  1  0
 32 27  1  0
M  CHG  1   5   1
M  END
>  <template_ligand>  (12) 
mol-58

>  <template_receptor>  (12) 
receptors/receptor-58.pdb

>  <SMILES>  (12) 
CCC(=O)[NH+]1CCCc2c(N(Cc3cccc(Cl)c3)C(=O)Cc3cncc4ccccc34)cccc21

>  <LABEL>  (12) 
MERS-CoV Mpro

$$$$

     RDKit          3D

 36 39  0  0  0  0  0  0  0  0999 V2000
   -7.4111   -4.0793  -23.5377 C   0  0  0  0  0  0  0  0  0  0  0  0
   -6.9196   -3.3772  -22.5174 C   0  0  0  0  0  0  0  0  0  0  0  0
   -7.6116   -2.8257  -21.3000 C   0  0  0  0  0  0  0  0  0  0  0  0
   -7.3851   -1.3772  -21.2357 N   0  0  0  0  0  0  0  0  0  0  0  0
   -8.1743   -0.4396  -21.8983 C   0  0  0  0  0  0  0  0  0  0  0  0
   -8.2554    0.7003  -21.4822 O   0  0  0  0  0  0  0  0  0  0  0  0
   -8.8947   -0.9029  -23.1757 C   0  0  2  0  0  0  0  0  0  0  0  0
   -8.0404   -0.6951  -24.4473 C   0  0  0  0  0  0  0  0  0  0  0  0
   -7.9512    0.7186  -24.8075 N   0  0  0  0  0  0  0  0  0  0  0  0
   -6.7024    1.2700  -25.3116 C   0  0  0  0  0  0  0  0  0  0  0  0
   -6.5992    1.3285  -26.8416 C   0  0  0  0  0  0  0  0  0  0  0  0
   -6.6557    2.3753  -27.4661 O   0  0  0  0  0  0  0  0  0  0  0  0
   -6.4255    0.1336  -27.4661 N   0  0  0  0  0  0  0  0  0  0  0  0
   -6.3832    0.0939  -28.9152 C   0  0  0  0  0  0  0  0  0  0  0  0
   -9.0334    1.5626  -24.7431 C   0  0  0  0  0  0  0  0  0  0  0  0
   -9.0133    2.6958  -25.1956 O   0  0  0  0  0  0  0  0  0  0  0  0
  -10.2501    1.0135  -24.0688 C   0  0  0  0  0  0  0  0  0  0  0  0
  -11.4393    1.7327  -24.1693 C   0  0  0  0  0  0  0  0  0  0  0  0
  -12.6041    1.2369  -23.6155 C   0  0  0  0  0  0  0  0  0  0  0  0
  -12.5603    0.0072  -22.9564 C   0  0  0  0  0  0  0  0  0  0  0  0
  -14.0392   -0.7013  -22.3831 Cl  0  0  0  0  0  0  0  0  0  0  0  0
  -11.3666   -0.6753  -22.7849 C   0  0  0  0  0  0  0  0  0  0  0  0
  -10.1961   -0.1738  -23.3492 C   0  0  0  0  0  0  0  0  0  0  0  0
   -6.5649   -0.8609  -20.1989 C   0  0  0  0  0  0  0  0  0  0  0  0
   -6.9099   -1.0724  -18.8884 C   0  0  0  0  0  0  0  0  0  0  0  0
   -6.2558   -0.5615  -17.8218 N   0  0  0  0  0  0  0  0  0  0  0  0
   -5.2072    0.1885  -18.0898 C   0  0  0  0  0  0  0  0  0  0  0  0
   -4.7356    0.4830  -19.4011 C   0  0  0  0  0  0  0  0  0  0  0  0
   -3.6230    1.3322  -19.6358 C   0  0  0  0  0  0  0  0  0  0  0  0
   -3.2195    1.6184  -20.9126 C   0  0  0  0  0  0  0  0  0  0  0  0
   -3.8952    1.0569  -22.0174 C   0  0  0  0  0  0  0  0  0  0  0  0
   -4.9562    0.2092  -21.8223 C   0  0  0  0  0  0  0  0  0  0  0  0
   -5.4226   -0.0654  -20.5041 C   0  0  0  0  0  0  0  0  0  0  0  0
   -5.4809   -2.8556  -22.4955 C   0  0  0  0  0  0  0  0  0  0  0  0
   -5.0992   -2.3076  -23.5560 O   0  0  0  0  0  0  0  0  0  0  0  0
   -4.8840   -2.9789  -21.4109 O   0  0  0  0  0  0  0  0  0  0  0  0
  1  2  2  0
  2  3  1  0
  3  4  1  0
  4  5  1  0
  5  6  2  0
  7  5  1  1
  7  8  1  0
  8  9  1  0
  9 10  1  0
 10 11  1  0
 11 12  2  0
 11 13  1  0
 13 14  1  0
  9 15  1  0
 15 16  2  0
 15 17  1  0
 17 18  2  0
 18 19  1  0
 19 20  2  0
 20 21  1  0
 20 22  1  0
 22 23  2  0
  4 24  1  0
 24 25  2  0
 25 26  1  0
 26 27  2  0
 27 28  1  0
 28 29  2  0
 29 30  1  0
 30 31  2  0
 31 32  1  0
 32 33  2  0
  2 34  1  0
 34 35  2  0
 34 36  1  0
 23  7  1  0
 33 24  1  0
 23 17  1  0
 33 28  1  0
M  CHG  1  36  -1
M  END
>  <cnnaffinities>  (13) 
[5.77933, 6.07149, 5.99143]

>  <score>  (13) 
5.77933

>  <index>  (13) 
5

>  <Smiles>  (13) 
C(=C(C(N(C(=O)[C@@]1(C(N(C(C(=O)N(C([H])([H])[H])[H])([H])[H])C(=O)c2c(c(c(Cl)c(c12)[H])[H])[H])([H])[H])[H])c1c(nc(c2c(c(c(c(c12)[H])[H])[H])[H])[H])[H])([H])[H])C(=O)[O-])([H])[H]

>  <h>  (13) 
<NA>

>  <Training>  (13) 
True

>  <Success>  (13) 
True

>  <enamine_searched>  (13) 
False

>  <enamine_id>  (13) 
nan

>  <SMILES>  (13) 
C=C(CN(C(=O)C1CN(CC(=O)NC)C(=O)c2ccc(Cl)cc21)c1cncc2ccccc12)C(=O)[O-]

>  <LABEL>  (13) 
SARS-CoV-2 Mpro

$$$$
ligand_6
     RDKit          3D

 19 21  0  0  0  0  0  0  0  0999 V2000
    9.8179    0.5921   21.1076 O   0  0  0  0  0  0  0  0  0  0  0  0
    8.8919    0.4774   21.8994 C   0  0  0  0  0  0  0  0  0  0  0  0
    7.6118    1.2676   21.6818 C   0  0  0  0  0  0  0  0  0  0  0  0
    6.7491    0.7839   20.5261 C   0  0  0  0  0  0  0  0  0  0  0  0
    7.2806    0.4223   19.3163 C   0  0  0  0  0  0  0  0  0  0  0  0
    6.5654    0.1941   18.1755 N   0  0  0  0  0  0  0  0  0  0  0  0
    5.2722    0.4090   18.2202 C   0  0  0  0  0  0  0  0  0  0  0  0
    4.5871    0.8272   19.3976 C   0  0  0  0  0  0  0  0  0  0  0  0
    3.2402    1.2838   19.3974 C   0  0  0  0  0  0  0  0  0  0  0  0
    2.5910    1.4851   20.5865 C   0  0  0  0  0  0  0  0  0  0  0  0
    3.2532    1.2357   21.8124 C   0  0  0  0  0  0  0  0  0  0  0  0
    4.5925    0.9394   21.8307 C   0  0  0  0  0  0  0  0  0  0  0  0
    5.3196    0.8384   20.6142 C   0  0  0  0  0  0  0  0  0  0  0  0
    9.0004   -0.3610   22.9988 N   0  0  0  0  0  0  0  0  0  0  0  0
    8.2547   -0.1182   24.2388 C   0  0  0  0  0  0  0  0  0  0  0  0
    8.8570    1.0785   24.9828 C   0  0  0  0  0  0  0  0  0  0  0  0
   10.3493    0.8482   25.2487 C   0  0  0  0  0  0  0  0  0  0  0  0
   11.0997    0.4236   23.9832 C   0  0  0  0  0  0  0  0  0  0  0  0
   10.3843   -0.7465   23.3024 C   0  0  0  0  0  0  0  0  0  0  0  0
  1  2  2  0
  2  3  1  0
  3  4  1  0
  4  5  2  0
  5  6  1  0
  6  7  2  0
  7  8  1  0
  8  9  2  0
  9 10  1  0
 10 11  2  0
 11 12  1  0
 12 13  2  0
  2 14  1  0
 14 15  1  0
 15 16  1  0
 16 17  1  0
 17 18  1  0
 18 19  1  0
 13  4  1  0
 19 14  1  0
 13  8  1  0
M  END
>  <template_ligand>  (14) 
mol-100

>  <template_receptor>  (14) 
receptors/receptor-100.pdb

>  <SMILES>  (14) 
O=C(Cc1cncc2ccccc12)N1CCCCC1

>  <LABEL>  (14) 
MERS-CoV Mpro

$$$$
ligand_5
     RDKit          3D

 21 23  0  0  0  0  0  0  0  0999 V2000
   -9.7836    1.7254  -25.8844 C   0  0  0  0  0  0  0  0  0  0  0  0
  -10.1444    0.2874  -26.2367 C   0  0  0  0  0  0  0  0  0  0  0  0
   -9.8231   -0.7715  -25.1598 C   0  0  0  0  0  0  0  0  0  0  0  0
  -10.7208   -0.6833  -23.9067 C   0  0  0  0  0  0  0  0  0  0  0  0
  -10.4103   -1.8003  -22.9060 C   0  0  0  0  0  0  0  0  0  0  0  0
   -8.9939   -1.8776  -22.5573 N   0  0  0  0  0  0  0  0  0  0  0  0
   -8.5680   -1.3195  -21.3610 C   0  0  0  0  0  0  0  0  0  0  0  0
   -9.2416   -0.5189  -20.7386 O   0  0  0  0  0  0  0  0  0  0  0  0
   -7.2464   -1.8812  -20.8181 C   0  0  0  0  0  0  0  0  0  0  0  0
   -6.5276   -1.0166  -19.8206 C   0  0  0  0  0  0  0  0  0  0  0  0
   -6.8796   -1.0810  -18.4996 C   0  0  0  0  0  0  0  0  0  0  0  0
   -6.2724   -0.4040  -17.4896 N   0  0  0  0  0  0  0  0  0  0  0  0
   -5.2656    0.3720  -17.8253 C   0  0  0  0  0  0  0  0  0  0  0  0
   -4.7951    0.5503  -19.1554 C   0  0  0  0  0  0  0  0  0  0  0  0
   -3.7164    1.4170  -19.4641 C   0  0  0  0  0  0  0  0  0  0  0  0
   -3.3194    1.5987  -20.7619 C   0  0  0  0  0  0  0  0  0  0  0  0
   -3.9860    0.9189  -21.8055 C   0  0  0  0  0  0  0  0  0  0  0  0
   -5.0241    0.0635  -21.5335 C   0  0  0  0  0  0  0  0  0  0  0  0
   -5.4582   -0.1482  -20.1955 C   0  0  0  0  0  0  0  0  0  0  0  0
   -8.1375   -1.9712  -23.7372 C   0  0  0  0  0  0  0  0  0  0  0  0
   -8.3637   -0.7695  -24.6645 C   0  0  0  0  0  0  0  0  0  0  0  0
  1  2  1  0
  2  3  1  0
  3  4  1  0
  4  5  1  0
  5  6  1  0
  6  7  1  0
  7  8  2  0
  7  9  1  0
  9 10  1  0
 10 11  2  0
 11 12  1  0
 12 13  2  0
 13 14  1  0
 14 15  2  0
 15 16  1  0
 16 17  2  0
 17 18  1  0
 18 19  2  0
  6 20  1  0
 20 21  1  0
 21  3  1  0
 19 10  1  0
 19 14  1  0
M  END
>  <template_ligand>  (15) 
mol-323

>  <template_receptor>  (15) 
receptors/receptor-323.pdb

>  <SMILES>  (15) 
CCC1CCN(C(=O)Cc2cncc3ccccc23)CC1

>  <LABEL>  (15) 
SARS-CoV-2 Mpro

$$$$
ligand_6
     RDKit          3D

 26 29  0  0  0  0  0  0  0  0999 V2000
  -13.5167   -1.9208  -24.9925 C   0  0  0  0  0  0  0  0  0  0  0  0
  -12.5929   -1.3681  -26.0716 C   0  0  0  0  0  0  0  0  0  0  0  0
  -10.8605   -1.7846  -25.8847 S   0  0  0  0  0  0  0  0  0  0  0  0
  -10.1418   -1.2679  -27.0348 O   0  0  0  0  0  0  0  0  0  0  0  0
  -10.7657   -3.1959  -25.5429 O   0  0  0  0  0  0  0  0  0  0  0  0
  -10.4107   -0.7982  -24.5873 N   0  0  0  0  0  0  0  0  0  0  0  0
   -8.9383   -0.6703  -24.3302 C   0  0  0  0  0  0  0  0  0  0  0  0
   -9.1165   -1.3791  -22.9688 C   0  0  0  0  0  0  0  0  0  0  0  0
  -10.6319   -1.3382  -23.2247 C   0  0  0  0  0  0  0  0  0  0  0  0
   -8.6621   -0.5908  -21.7597 C   0  0  0  0  0  0  0  0  0  0  0  0
   -9.0477    0.4868  -21.3798 O   0  0  0  0  0  0  0  0  0  0  0  0
   -7.7026   -1.3822  -21.1409 N   0  0  0  0  0  0  0  0  0  0  0  0
   -6.8743   -0.9035  -20.1023 C   0  0  0  0  0  0  0  0  0  0  0  0
   -7.2290   -1.1477  -18.8045 C   0  0  0  0  0  0  0  0  0  0  0  0
   -6.5882   -0.6189  -17.7341 N   0  0  0  0  0  0  0  0  0  0  0  0
   -5.5727    0.1751  -17.9817 C   0  0  0  0  0  0  0  0  0  0  0  0
   -5.0866    0.4790  -19.2862 C   0  0  0  0  0  0  0  0  0  0  0  0
   -3.9800    1.3423  -19.4894 C   0  0  0  0  0  0  0  0  0  0  0  0
   -3.5163    1.5711  -20.7557 C   0  0  0  0  0  0  0  0  0  0  0  0
   -4.1177    0.9435  -21.8689 C   0  0  0  0  0  0  0  0  0  0  0  0
   -5.2008    0.1143  -21.7009 C   0  0  0  0  0  0  0  0  0  0  0  0
   -5.7243   -0.1093  -20.3940 C   0  0  0  0  0  0  0  0  0  0  0  0
   -7.6201   -2.6647  -21.7029 C   0  0  0  0  0  0  0  0  0  0  0  0
   -6.9363   -3.5767  -21.3029 O   0  0  0  0  0  0  0  0  0  0  0  0
   -8.4610   -2.6520  -22.7849 N   0  0  0  0  0  0  0  0  0  0  0  0
   -8.6235   -3.8101  -23.6418 C   0  0  0  0  0  0  0  0  0  0  0  0
  1  2  1  0
  2  3  1  0
  3  4  2  0
  3  5  2  0
  3  6  1  0
  6  7  1  0
  7  8  1  0
  8  9  1  0
  8 10  1  0
 10 11  2  0
 10 12  1  0
 12 13  1  0
 13 14  2  0
 14 15  1  0
 15 16  2  0
 16 17  1  0
 17 18  2  0
 18 19  1  0
 19 20  2  0
 20 21  1  0
 21 22  2  0
 12 23  1  0
 23 24  2  0
 23 25  1  0
 25 26  1  0
  9  6  1  0
 22 13  1  0
 25  8  1  0
 22 17  1  0
M  END
>  <template_ligand>  (16) 
mol-109

>  <template_receptor>  (16) 
receptors/receptor-109.pdb

>  <SMILES>  (16) 
CCS(=O)(=O)N1CC2(C1)C(=O)N(c1cncc3ccccc13)C(=O)N2C

>  <LABEL>  (16) 
SARS-CoV-2 Mpro

$$$$
ligand_7
     RDKit          3D

 35 39  0  0  0  0  0  0  0  0999 V2000
   -7.0482    3.5968  -22.7358 C   0  0  0  0  0  0  0  0  0  0  0  0
   -7.7856    2.6145  -23.4977 N   0  0  0  0  0  0  0  0  0  0  0  0
   -7.4502    2.3564  -24.7790 C   0  0  0  0  0  0  0  0  0  0  0  0
   -6.6056    2.9907  -25.3959 O   0  0  0  0  0  0  0  0  0  0  0  0
   -8.1505    1.1788  -25.4658 C   0  0  0  0  0  0  0  0  0  0  0  0
   -9.0000    0.3444  -24.6410 N   0  0  0  0  0  0  0  0  0  0  0  0
   -8.5590   -1.0028  -24.3221 C   0  0  0  0  0  0  0  0  0  0  0  0
   -9.1466   -1.4970  -22.9757 C   0  0  2  0  0  0  0  0  0  0  0  0
   -8.5826   -0.6298  -21.8217 C   0  0  0  0  0  0  0  0  0  0  0  0
   -8.9577    0.4728  -21.4721 O   0  0  0  0  0  0  0  0  0  0  0  0
   -7.5344   -1.3121  -21.2437 N   0  0  0  0  0  0  0  0  0  0  0  0
   -6.7318   -0.7327  -20.2227 C   0  0  0  0  0  0  0  0  0  0  0  0
   -7.0159   -0.9980  -18.9077 C   0  0  0  0  0  0  0  0  0  0  0  0
   -6.3235   -0.5015  -17.8512 N   0  0  0  0  0  0  0  0  0  0  0  0
   -5.3055    0.2870  -18.1126 C   0  0  0  0  0  0  0  0  0  0  0  0
   -4.8773    0.6266  -19.4301 C   0  0  0  0  0  0  0  0  0  0  0  0
   -3.7701    1.4878  -19.6752 C   0  0  0  0  0  0  0  0  0  0  0  0
   -3.3924    1.7807  -20.9590 C   0  0  0  0  0  0  0  0  0  0  0  0
   -4.0912    1.2274  -22.0581 C   0  0  0  0  0  0  0  0  0  0  0  0
   -5.1724    0.4076  -21.8469 C   0  0  0  0  0  0  0  0  0  0  0  0
   -5.6016    0.0926  -20.5266 C   0  0  0  0  0  0  0  0  0  0  0  0
   -7.2701   -2.5968  -21.8678 C   0  0  0  0  0  0  0  0  0  0  0  0
   -8.5952   -2.8957  -22.5848 C   0  0  2  0  0  0  0  0  0  0  0  0
   -8.4601   -3.9241  -23.6956 C   0  0  0  0  0  0  0  0  0  0  0  0
   -9.6985   -4.1162  -24.3393 O   0  0  0  0  0  0  0  0  0  0  0  0
   -9.5799   -5.0021  -25.4269 C   0  0  0  0  0  0  0  0  0  0  0  0
  -10.6503   -1.3580  -23.0725 C   0  0  0  0  0  0  0  0  0  0  0  0
  -11.5285   -2.2337  -22.4232 C   0  0  0  0  0  0  0  0  0  0  0  0
  -12.8880   -1.9772  -22.4245 C   0  0  0  0  0  0  0  0  0  0  0  0
  -13.9484   -3.0622  -21.5691 Cl  0  0  0  0  0  0  0  0  0  0  0  0
  -13.4228   -0.8601  -23.0711 C   0  0  0  0  0  0  0  0  0  0  0  0
  -12.5588    0.0016  -23.7242 C   0  0  0  0  0  0  0  0  0  0  0  0
  -11.1840   -0.2401  -23.7358 C   0  0  0  0  0  0  0  0  0  0  0  0
  -10.2976    0.7367  -24.4554 C   0  0  0  0  0  0  0  0  0  0  0  0
  -10.6905    1.8309  -24.8376 O   0  0  0  0  0  0  0  0  0  0  0  0
  1  2  1  0
  2  3  1  0
  3  4  2  0
  3  5  1  0
  5  6  1  0
  6  7  1  0
  8  7  1  6
  8  9  1  0
  9 10  2  0
  9 11  1  0
 11 12  1  0
 12 13  2  0
 13 14  1  0
 14 15  2  0
 15 16  1  0
 16 17  2  0
 17 18  1  0
 18 19  2  0
 19 20  1  0
 20 21  2  0
 11 22  1  0
 22 23  1  0
 23 24  1  6
 24 25  1  0
 25 26  1  0
  8 27  1  0
 27 28  2  0
 28 29  1  0
 29 30  1  0
 29 31  2  0
 31 32  1  0
 32 33  2  0
 33 34  1  0
 34 35  2  0
 34  6  1  0
 23  8  1  0
 33 27  1  0
 21 12  1  0
 21 16  1  0
M  END
>  <template_ligand>  (17) 
mol-218

>  <template_receptor>  (17) 
receptors/receptor-218.pdb

>  <SMILES>  (17) 
CNC(=O)CN1CC2(C(=O)N(c3cncc4ccccc34)CC2COC)c2cc(Cl)ccc2C1=O

>  <LABEL>  (17) 
SARS-CoV-2 Mpro

$$$$
ligand_7
     RDKit          3D

 38 43  0  0  0  0  0  0  0  0999 V2000
    8.3727   -2.9118   23.5791 C   0  0  0  0  0  0  0  0  0  0  0  0
    8.4137   -1.9065   22.4357 C   0  0  1  0  0  0  0  0  0  0  0  0
    7.0807   -1.7267   21.6987 C   0  0  0  0  0  0  0  0  0  0  0  0
    7.2467   -0.4349   21.0558 N   0  0  0  0  0  0  0  0  0  0  0  0
    6.4124    0.0553   20.0152 C   0  0  0  0  0  0  0  0  0  0  0  0
    6.7334   -0.2091   18.7090 C   0  0  0  0  0  0  0  0  0  0  0  0
    6.0161    0.2123   17.6365 N   0  0  0  0  0  0  0  0  0  0  0  0
    4.9348    0.9193   17.8735 C   0  0  0  0  0  0  0  0  0  0  0  0
    4.4648    1.2460   19.1794 C   0  0  0  0  0  0  0  0  0  0  0  0
    3.2894    2.0194   19.3988 C   0  0  0  0  0  0  0  0  0  0  0  0
    2.8744    2.3016   20.6724 C   0  0  0  0  0  0  0  0  0  0  0  0
    3.6019    1.8238   21.7870 C   0  0  0  0  0  0  0  0  0  0  0  0
    4.7488    1.0913   21.6034 C   0  0  0  0  0  0  0  0  0  0  0  0
    5.2165    0.7916   20.2930 C   0  0  0  0  0  0  0  0  0  0  0  0
    8.2297    0.3410   21.6309 C   0  0  0  0  0  0  0  0  0  0  0  0
    8.5203    1.4633   21.2650 O   0  0  0  0  0  0  0  0  0  0  0  0
    8.8481   -0.4599   22.8053 C   0  0  1  0  0  0  0  0  0  0  0  0
    8.2040    0.0083   24.1378 C   0  0  0  0  0  0  0  0  0  0  0  0
    8.5321    1.3906   24.4366 N   0  0  0  0  0  0  0  0  0  0  0  0
    7.6112    2.1677   25.2440 C   0  0  0  0  0  0  0  0  0  0  0  0
    6.8247    3.2673   24.5237 C   0  0  0  0  0  0  0  0  0  0  0  0
    5.9205    3.8423   25.1125 O   0  0  0  0  0  0  0  0  0  0  0  0
    7.1338    3.4965   23.2253 N   0  0  0  0  0  0  0  0  0  0  0  0
    6.3458    4.4302   22.4448 C   0  0  0  0  0  0  0  0  0  0  0  0
    6.6637    5.8521   22.7816 C   0  0  0  0  0  0  0  0  0  0  0  0
    7.9042    6.4457   22.7690 C   0  0  0  0  0  0  0  0  0  0  0  0
    7.6537    7.7709   23.1521 C   0  0  0  0  0  0  0  0  0  0  0  0
    6.3647    7.9879   23.3950 N   0  0  0  0  0  0  0  0  0  0  0  0
    5.7739    6.8052   23.1549 N   0  0  0  0  0  0  0  0  0  0  0  0
    4.3478    6.6209   23.3211 C   0  0  0  0  0  0  0  0  0  0  0  0
    9.7960    1.8815   24.2530 C   0  0  0  0  0  0  0  0  0  0  0  0
   10.0981    3.0103   24.6160 O   0  0  0  0  0  0  0  0  0  0  0  0
   10.7715    0.9697   23.5615 C   0  0  0  0  0  0  0  0  0  0  0  0
   12.1226    1.3265   23.5647 C   0  0  0  0  0  0  0  0  0  0  0  0
   13.0554    0.5165   22.9375 C   0  0  0  0  0  0  0  0  0  0  0  0
   12.6394   -0.6623   22.3102 C   0  0  0  0  0  0  0  0  0  0  0  0
   11.2989   -1.0129   22.3040 C   0  0  0  0  0  0  0  0  0  0  0  0
   10.3375   -0.2006   22.9156 C   0  0  0  0  0  0  0  0  0  0  0  0
  2  1  1  1
  2  3  1  0
  3  4  1  0
  4  5  1  0
  5  6  2  0
  6  7  1  0
  7  8  2  0
  8  9  1  0
  9 10  2  0
 10 11  1  0
 11 12  2  0
 12 13  1  0
 13 14  2  0
  4 15  1  0
 15 16  2  0
 15 17  1  0
 17 18  1  1
 18 19  1  0
 19 20  1  0
 20 21  1  0
 21 22  2  0
 21 23  1  0
 23 24  1  0
 24 25  1  0
 25 26  2  0
 26 27  1  0
 27 28  2  0
 28 29  1  0
 29 30  1  0
 19 31  1  0
 31 32  2  0
 31 33  1  0
 33 34  2  0
 34 35  1  0
 35 36  2  0
 36 37  1  0
 37 38  2  0
 17  2  1  0
 29 25  1  0
 38 33  1  0
 14  5  1  0
 38 17  1  0
 14  9  1  0
M  END
>  <template_ligand>  (18) 
mol-218

>  <template_receptor>  (18) 
receptors/receptor-218.pdb

>  <SMILES>  (18) 
CC1CN(c2cncc3ccccc23)C(=O)C12CN(CC(=O)NCc1ccnn1C)C(=O)c1ccccc12

>  <LABEL>  (18) 
MERS-CoV Mpro

$$$$
ligand_8
     RDKit          3D

 21 23  0  0  0  0  0  0  0  0999 V2000
  -13.3444   -0.8782  -23.5637 C   0  0  0  0  0  0  0  0  0  0  0  0
  -11.8654   -1.1508  -23.2917 C   0  0  1  0  0  0  0  0  0  0  0  0
  -11.6622   -2.5619  -22.7722 C   0  0  0  0  0  0  0  0  0  0  0  0
  -10.5367   -3.2716  -22.7663 C   0  0  0  0  0  0  0  0  0  0  0  0
   -9.2245   -2.8086  -23.3687 C   0  0  0  0  0  0  0  0  0  0  0  0
   -8.9604   -1.3801  -23.2254 N   0  0  0  0  0  0  0  0  0  0  0  0
   -8.5309   -0.8428  -22.0160 C   0  0  0  0  0  0  0  0  0  0  0  0
   -9.0345    0.1348  -21.4987 O   0  0  0  0  0  0  0  0  0  0  0  0
   -7.3265   -1.5879  -21.4287 C   0  0  0  0  0  0  0  0  0  0  0  0
   -6.5550   -0.8760  -20.3522 C   0  0  0  0  0  0  0  0  0  0  0  0
   -6.9095   -1.0877  -19.0506 C   0  0  0  0  0  0  0  0  0  0  0  0
   -6.2781   -0.5762  -17.9618 N   0  0  0  0  0  0  0  0  0  0  0  0
   -5.2209    0.1667  -18.1903 C   0  0  0  0  0  0  0  0  0  0  0  0
   -4.6929    0.4372  -19.4849 C   0  0  0  0  0  0  0  0  0  0  0  0
   -3.4623    1.1211  -19.6909 C   0  0  0  0  0  0  0  0  0  0  0  0
   -2.9156    1.2101  -20.9425 C   0  0  0  0  0  0  0  0  0  0  0  0
   -3.6404    0.7458  -22.0580 C   0  0  0  0  0  0  0  0  0  0  0  0
   -4.8717    0.1668  -21.9010 C   0  0  0  0  0  0  0  0  0  0  0  0
   -5.3975   -0.0787  -20.6065 C   0  0  0  0  0  0  0  0  0  0  0  0
   -9.5600   -0.5139  -24.2331 C   0  0  0  0  0  0  0  0  0  0  0  0
  -11.0219   -0.8366  -24.5353 C   0  0  0  0  0  0  0  0  0  0  0  0
  2  1  1  6
  2  3  1  0
  3  4  2  0
  4  5  1  0
  5  6  1  0
  6  7  1  0
  7  8  2  0
  7  9  1  0
  9 10  1  0
 10 11  2  0
 11 12  1  0
 12 13  2  0
 13 14  1  0
 14 15  2  0
 15 16  1  0
 16 17  2  0
 17 18  1  0
 18 19  2  0
  6 20  1  0
 20 21  1  0
 21  2  1  0
 19 10  1  0
 19 14  1  0
M  END
>  <template_ligand>  (19) 
mol-100

>  <template_receptor>  (19) 
receptors/receptor-100.pdb

>  <SMILES>  (19) 
CC1C=CCN(C(=O)Cc2cncc3ccccc23)CC1

>  <LABEL>  (19) 
SARS-CoV-2 Mpro

$$$$
ligand_9
     RDKit          3D

 34 39  0  0  0  0  0  0  0  0999 V2000
   -8.4800   -3.9139  -23.7117 C   0  0  0  0  0  0  0  0  0  0  0  0
   -8.5933   -2.8981  -22.5826 C   0  0  1  0  0  0  0  0  0  0  0  0
   -7.2724   -2.5929  -21.8676 C   0  0  0  0  0  0  0  0  0  0  0  0
   -7.5282   -1.3025  -21.2497 N   0  0  0  0  0  0  0  0  0  0  0  0
   -6.7258   -0.7384  -20.2217 C   0  0  0  0  0  0  0  0  0  0  0  0
   -7.0122   -1.0007  -18.9054 C   0  0  0  0  0  0  0  0  0  0  0  0
   -6.3225   -0.4988  -17.8494 N   0  0  0  0  0  0  0  0  0  0  0  0
   -5.3028    0.2886  -18.1110 C   0  0  0  0  0  0  0  0  0  0  0  0
   -4.8758    0.6244  -19.4288 C   0  0  0  0  0  0  0  0  0  0  0  0
   -3.7715    1.4893  -19.6767 C   0  0  0  0  0  0  0  0  0  0  0  0
   -3.3953    1.7816  -20.9592 C   0  0  0  0  0  0  0  0  0  0  0  0
   -4.0904    1.2210  -22.0530 C   0  0  0  0  0  0  0  0  0  0  0  0
   -5.1737    0.4044  -21.8455 C   0  0  0  0  0  0  0  0  0  0  0  0
   -5.5952    0.0860  -20.5250 C   0  0  0  0  0  0  0  0  0  0  0  0
   -8.5815   -0.6178  -21.8247 C   0  0  0  0  0  0  0  0  0  0  0  0
   -8.9605    0.4793  -21.4839 O   0  0  0  0  0  0  0  0  0  0  0  0
   -9.1436   -1.4973  -22.9733 C   0  0  1  0  0  0  0  0  0  0  0  0
   -8.5542   -0.9987  -24.3203 C   0  0  0  0  0  0  0  0  0  0  0  0
   -9.0102    0.3404  -24.6507 N   0  0  0  0  0  0  0  0  0  0  0  0
   -8.1380    1.1676  -25.4603 C   0  0  0  0  0  0  0  0  0  0  0  0
   -7.2981    2.1100  -24.6648 C   0  0  0  0  0  0  0  0  0  0  0  0
   -6.0278    2.4962  -24.9161 C   0  0  0  0  0  0  0  0  0  0  0  0
   -5.7056    3.4370  -23.9646 N   0  0  0  0  0  0  0  0  0  0  0  0
   -6.7468    3.6071  -23.1410 C   0  0  0  0  0  0  0  0  0  0  0  0
   -7.7260    2.7944  -23.5497 N   0  0  0  0  0  0  0  0  0  0  0  0
  -10.2975    0.7439  -24.4437 C   0  0  0  0  0  0  0  0  0  0  0  0
  -10.6995    1.8421  -24.8086 O   0  0  0  0  0  0  0  0  0  0  0  0
  -11.1844   -0.2380  -23.7307 C   0  0  0  0  0  0  0  0  0  0  0  0
  -12.5599    0.0010  -23.7215 C   0  0  0  0  0  0  0  0  0  0  0  0
  -13.4204   -0.8614  -23.0719 C   0  0  0  0  0  0  0  0  0  0  0  0
  -12.8774   -1.9748  -22.4427 C   0  0  0  0  0  0  0  0  0  0  0  0
  -13.6982   -2.8211  -21.7993 F   0  0  0  0  0  0  0  0  0  0  0  0
  -11.5240   -2.2428  -22.4336 C   0  0  0  0  0  0  0  0  0  0  0  0
  -10.6481   -1.3598  -23.0730 C   0  0  0  0  0  0  0  0  0  0  0  0
  2  1  1  6
  2  3  1  0
  3  4  1  0
  4  5  1  0
  5  6  2  0
  6  7  1  0
  7  8  2  0
  8  9  1  0
  9 10  2  0
 10 11  1  0
 11 12  2  0
 12 13  1  0
 13 14  2  0
  4 15  1  0
 15 16  2  0
 15 17  1  0
 17 18  1  6
 18 19  1  0
 19 20  1  0
 20 21  1  0
 21 22  2  0
 22 23  1  0
 23 24  2  0
 24 25  1  0
 19 26  1  0
 26 27  2  0
 26 28  1  0
 28 29  2  0
 29 30  1  0
 30 31  2  0
 31 32  1  0
 31 33  1  0
 33 34  2  0
 17  2  1  0
 25 21  1  0
 34 28  1  0
 14  5  1  0
 34 17  1  0
 14  9  1  0
M  CHG  1  23   1
M  END
>  <template_ligand>  (20) 
mol-218

>  <template_receptor>  (20) 
receptors/receptor-218.pdb

>  <SMILES>  (20) 
CC1CN(c2cncc3ccccc23)C(=O)C12CN(Cc1c[nH+]c[nH]1)C(=O)c1ccc(F)cc12

>  <LABEL>  (20) 
SARS-CoV-2 Mpro

$$$$
ligand_8
     RDKit          3D

 35 40  0  0  0  0  0  0  0  0999 V2000
    4.0617    5.2663   23.3906 C   0  0  0  0  0  0  0  0  0  0  0  0
    5.2853    4.4389   23.5837 C   0  0  0  0  0  0  0  0  0  0  0  0
    5.5720    3.6367   24.7147 C   0  0  0  0  0  0  0  0  0  0  0  0
    6.7745    3.0877   24.4122 C   0  0  0  0  0  0  0  0  0  0  0  0
    7.6137    2.1523   25.2248 C   0  0  0  0  0  0  0  0  0  0  0  0
    8.5506    1.3774   24.4522 N   0  0  0  0  0  0  0  0  0  0  0  0
    8.2100    0.0008   24.1383 C   0  0  0  0  0  0  0  0  0  0  0  0
    8.8493   -0.4633   22.8040 C   0  0  2  0  0  0  0  0  0  0  0  0
    8.2338    0.3399   21.6256 C   0  0  0  0  0  0  0  0  0  0  0  0
    8.5228    1.4523   21.2513 O   0  0  0  0  0  0  0  0  0  0  0  0
    7.2429   -0.4364   21.0586 N   0  0  0  0  0  0  0  0  0  0  0  0
    6.4120    0.0535   20.0169 C   0  0  0  0  0  0  0  0  0  0  0  0
    6.7334   -0.2091   18.7100 C   0  0  0  0  0  0  0  0  0  0  0  0
    6.0158    0.2130   17.6378 N   0  0  0  0  0  0  0  0  0  0  0  0
    4.9338    0.9200   17.8744 C   0  0  0  0  0  0  0  0  0  0  0  0
    4.4638    1.2446   19.1811 C   0  0  0  0  0  0  0  0  0  0  0  0
    3.2900    2.0186   19.4006 C   0  0  0  0  0  0  0  0  0  0  0  0
    2.8785    2.3053   20.6737 C   0  0  0  0  0  0  0  0  0  0  0  0
    3.6121    1.8327   21.7879 C   0  0  0  0  0  0  0  0  0  0  0  0
    4.7512    1.0909   21.6035 C   0  0  0  0  0  0  0  0  0  0  0  0
    5.2134    0.7865   20.2944 C   0  0  0  0  0  0  0  0  0  0  0  0
    7.0800   -1.7276   21.6996 C   0  0  0  0  0  0  0  0  0  0  0  0
    8.4145   -1.9081   22.4350 C   0  0  2  0  0  0  0  0  0  0  0  0
    8.3730   -2.9122   23.5791 C   0  0  0  0  0  0  0  0  0  0  0  0
   10.3354   -0.2025   22.9162 C   0  0  0  0  0  0  0  0  0  0  0  0
   11.2885   -1.0215   22.3026 C   0  0  0  0  0  0  0  0  0  0  0  0
   12.6158   -0.6447   22.3240 C   0  0  0  0  0  0  0  0  0  0  0  0
   13.5108   -1.4326   21.7038 F   0  0  0  0  0  0  0  0  0  0  0  0
   13.0629    0.5203   22.9389 C   0  0  0  0  0  0  0  0  0  0  0  0
   12.1224    1.3208   23.5589 C   0  0  0  0  0  0  0  0  0  0  0  0
   10.7695    0.9736   23.5533 C   0  0  0  0  0  0  0  0  0  0  0  0
    9.8005    1.8932   24.2426 C   0  0  0  0  0  0  0  0  0  0  0  0
   10.1144    3.0115   24.6193 O   0  0  0  0  0  0  0  0  0  0  0  0
    7.1850    3.5024   23.2152 O   0  0  0  0  0  0  0  0  0  0  0  0
    6.2468    4.3676   22.6863 N   0  0  0  0  0  0  0  0  0  0  0  0
  1  2  1  0
  2  3  1  0
  3  4  2  0
  4  5  1  0
  5  6  1  0
  6  7  1  0
  8  7  1  1
  8  9  1  0
  9 10  2  0
  9 11  1  0
 11 12  1  0
 12 13  2  0
 13 14  1  0
 14 15  2  0
 15 16  1  0
 16 17  2  0
 17 18  1  0
 18 19  2  0
 19 20  1  0
 20 21  2  0
 11 22  1  0
 22 23  1  0
 23 24  1  1
  8 25  1  0
 25 26  2  0
 26 27  1  0
 27 28  1  0
 27 29  2  0
 29 30  1  0
 30 31  2  0
 31 32  1  0
 32 33  2  0
  4 34  1  0
 34 35  1  0
 35  2  2  0
 32  6  1  0
 23  8  1  0
 31 25  1  0
 21 12  1  0
 21 16  1  0
M  END
>  <template_ligand>  (21) 
mol-218

>  <template_receptor>  (21) 
receptors/receptor-218.pdb

>  <SMILES>  (21) 
Cc1cc(CN2CC3(C(=O)N(c4cncc5ccccc45)CC3C)c3cc(F)ccc3C2=O)on1

>  <LABEL>  (21) 
MERS-CoV Mpro

$$$$
ligand_10
     RDKit          3D

 30 34  0  0  0  0  0  0  0  0999 V2000
  -10.2614   -0.7658  -23.6028 C   0  0  0  0  0  0  0  0  0  0  0  0
   -9.1713   -1.2911  -22.8015 N   0  0  0  0  0  0  0  0  0  0  0  0
   -8.6835   -0.6092  -21.7225 C   0  0  0  0  0  0  0  0  0  0  0  0
   -9.0234    0.4743  -21.3072 O   0  0  0  0  0  0  0  0  0  0  0  0
   -7.6969   -1.4210  -21.1434 N   0  0  0  0  0  0  0  0  0  0  0  0
   -6.8567   -0.9244  -20.1018 C   0  0  0  0  0  0  0  0  0  0  0  0
   -7.1958   -1.1402  -18.7946 C   0  0  0  0  0  0  0  0  0  0  0  0
   -6.5565   -0.5882  -17.7303 N   0  0  0  0  0  0  0  0  0  0  0  0
   -5.5482    0.2125  -17.9765 C   0  0  0  0  0  0  0  0  0  0  0  0
   -5.0562    0.4930  -19.2823 C   0  0  0  0  0  0  0  0  0  0  0  0
   -3.9542    1.3627  -19.5014 C   0  0  0  0  0  0  0  0  0  0  0  0
   -3.4979    1.5809  -20.7720 C   0  0  0  0  0  0  0  0  0  0  0  0
   -4.1137    0.9377  -21.8713 C   0  0  0  0  0  0  0  0  0  0  0  0
   -5.1896    0.1058  -21.6845 C   0  0  0  0  0  0  0  0  0  0  0  0
   -5.7066   -0.1143  -20.3811 C   0  0  0  0  0  0  0  0  0  0  0  0
   -7.6067   -2.6565  -21.7809 C   0  0  0  0  0  0  0  0  0  0  0  0
   -6.8962   -3.5750  -21.4483 O   0  0  0  0  0  0  0  0  0  0  0  0
   -8.5865   -2.5951  -22.9571 C   0  0  0  0  0  0  0  0  0  0  0  0
   -9.5344   -3.8061  -23.0694 C   0  0  0  0  0  0  0  0  0  0  0  0
   -8.8658   -4.2275  -24.3436 N   0  0  0  0  0  0  0  0  0  0  0  0
   -9.8909   -4.4183  -25.6842 S   0  0  0  0  0  0  0  0  0  0  0  0
  -10.8732   -5.4124  -25.2959 O   0  0  0  0  0  0  0  0  0  0  0  0
  -10.2894   -3.0855  -26.1305 O   0  0  0  0  0  0  0  0  0  0  0  0
   -8.8979   -5.1205  -26.9826 C   0  0  0  0  0  0  0  0  0  0  0  0
   -8.9337   -6.4939  -27.2071 C   0  0  0  0  0  0  0  0  0  0  0  0
   -8.1935   -7.0284  -28.2579 C   0  0  0  0  0  0  0  0  0  0  0  0
   -7.4335   -6.1985  -29.0787 C   0  0  0  0  0  0  0  0  0  0  0  0
   -7.4144   -4.8256  -28.8488 C   0  0  0  0  0  0  0  0  0  0  0  0
   -8.1545   -4.2798  -27.8065 C   0  0  0  0  0  0  0  0  0  0  0  0
   -7.9975   -3.0231  -24.3242 C   0  0  0  0  0  0  0  0  0  0  0  0
  1  2  1  0
  2  3  1  0
  3  4  2  0
  3  5  1  0
  5  6  1  0
  6  7  2  0
  7  8  1  0
  8  9  2  0
  9 10  1  0
 10 11  2  0
 11 12  1  0
 12 13  2  0
 13 14  1  0
 14 15  2  0
  5 16  1  0
 16 17  2  0
 16 18  1  0
 18 19  1  0
 19 20  1  0
 20 21  1  0
 21 22  2  0
 21 23  2  0
 21 24  1  0
 24 25  2  0
 25 26  1  0
 26 27  2  0
 27 28  1  0
 28 29  2  0
 20 30  1  0
 18  2  1  0
 29 24  1  0
 15  6  1  0
 30 18  1  0
 15 10  1  0
M  END
>  <template_ligand>  (22) 
mol-109

>  <template_receptor>  (22) 
receptors/receptor-109.pdb

>  <SMILES>  (22) 
CN1C(=O)N(c2cncc3ccccc23)C(=O)C12CN(S(=O)(=O)c1ccccc1)C2

>  <LABEL>  (22) 
SARS-CoV-2 Mpro

$$$$
ligand_11
     RDKit          3D

 43 49  0  0  0  0  0  0  0  0999 V2000
  -11.4137    1.6971  -25.3888 O   0  0  0  0  0  0  0  0  0  0  0  0
  -10.9213    0.8671  -24.6433 C   0  0  0  0  0  0  0  0  0  0  0  0
  -11.7509   -0.0933  -23.8332 C   0  0  0  0  0  0  0  0  0  0  0  0
  -13.1324    0.0927  -23.8355 C   0  0  0  0  0  0  0  0  0  0  0  0
  -13.9366   -0.6103  -22.9578 C   0  0  0  0  0  0  0  0  0  0  0  0
  -13.3353   -1.5229  -22.0902 C   0  0  0  0  0  0  0  0  0  0  0  0
  -14.3234   -2.3803  -20.9361 Cl  0  0  0  0  0  0  0  0  0  0  0  0
  -11.9695   -1.7411  -22.0937 C   0  0  0  0  0  0  0  0  0  0  0  0
  -11.1501   -1.0487  -22.9961 C   0  0  0  0  0  0  0  0  0  0  0  0
   -9.6530   -1.2449  -22.9439 C   0  0  1  0  0  0  0  0  0  0  0  0
   -9.0308   -0.5836  -24.1961 C   0  0  0  0  0  0  0  0  0  0  0  0
   -9.5749    0.7454  -24.4087 N   0  0  0  0  0  0  0  0  0  0  0  0
   -8.7136    1.9050  -24.5396 C   0  0  0  0  0  0  0  0  0  0  0  0
   -8.4163    2.6004  -23.1997 C   0  0  0  0  0  0  0  0  0  0  0  0
   -7.5973    3.8555  -23.4090 N   0  0  0  0  0  0  0  0  0  0  0  0
   -8.3908    5.0764  -23.8367 C   0  0  0  0  0  0  0  0  0  0  0  0
   -9.1041    5.7318  -22.6592 C   0  0  0  0  0  0  0  0  0  0  0  0
   -8.1916    6.1145  -21.6505 O   0  0  0  0  0  0  0  0  0  0  0  0
   -7.4425    5.0174  -21.1674 C   0  0  0  0  0  0  0  0  0  0  0  0
   -6.6911    4.2786  -22.2736 C   0  0  0  0  0  0  0  0  0  0  0  0
   -9.0672   -0.5614  -21.6889 C   0  0  0  0  0  0  0  0  0  0  0  0
   -9.4887    0.4104  -21.0919 O   0  0  0  0  0  0  0  0  0  0  0  0
   -7.9350   -1.2558  -21.3384 N   0  0  0  0  0  0  0  0  0  0  0  0
   -7.0837   -0.7827  -20.3164 C   0  0  0  0  0  0  0  0  0  0  0  0
   -7.3746   -1.0795  -19.0104 C   0  0  0  0  0  0  0  0  0  0  0  0
   -6.6374   -0.6679  -17.9491 N   0  0  0  0  0  0  0  0  0  0  0  0
   -5.5831    0.0677  -18.2142 C   0  0  0  0  0  0  0  0  0  0  0  0
   -5.1779    0.4592  -19.5239 C   0  0  0  0  0  0  0  0  0  0  0  0
   -4.0311    1.2630  -19.7491 C   0  0  0  0  0  0  0  0  0  0  0  0
   -3.6585    1.6117  -21.0171 C   0  0  0  0  0  0  0  0  0  0  0  0
   -4.4119    1.1762  -22.1278 C   0  0  0  0  0  0  0  0  0  0  0  0
   -5.5339    0.4052  -21.9360 C   0  0  0  0  0  0  0  0  0  0  0  0
   -5.9454    0.0215  -20.6269 C   0  0  0  0  0  0  0  0  0  0  0  0
   -7.7656   -2.5102  -22.0416 C   0  0  0  0  0  0  0  0  0  0  0  0
   -9.1472   -2.7051  -22.6931 C   0  0  2  0  0  0  0  0  0  0  0  0
   -9.1620   -3.7076  -23.8578 C   0  0  0  0  0  0  0  0  0  0  0  0
   -8.8937   -5.0711  -23.4366 N   0  0  0  0  0  0  0  0  0  0  0  0
   -7.6573   -5.6264  -23.3670 C   0  0  0  0  0  0  0  0  0  0  0  0
   -6.6073   -4.9308  -23.8333 N   0  0  0  0  0  0  0  0  0  0  0  0
   -5.4173   -5.5238  -23.7230 C   0  0  0  0  0  0  0  0  0  0  0  0
   -5.2534   -6.7820  -23.1630 C   0  0  0  0  0  0  0  0  0  0  0  0
   -6.4165   -7.4086  -22.7246 C   0  0  0  0  0  0  0  0  0  0  0  0
   -7.6162   -6.8610  -22.8203 N   0  0  0  0  0  0  0  0  0  0  0  0
  1  2  2  0
  2  3  1  0
  3  4  2  0
  4  5  1  0
  5  6  2  0
  6  7  1  0
  6  8  1  0
  8  9  2  0
  9 10  1  0
 10 11  1  6
 11 12  1  0
 12 13  1  0
 13 14  1  0
 14 15  1  0
 15 16  1  0
 16 17  1  0
 17 18  1  0
 18 19  1  0
 19 20  1  0
 10 21  1  0
 21 22  2  0
 21 23  1  0
 23 24  1  0
 24 25  2  0
 25 26  1  0
 26 27  2  0
 27 28  1  0
 28 29  2  0
 29 30  1  0
 30 31  2  0
 31 32  1  0
 32 33  2  0
 23 34  1  0
 34 35  1  0
 35 36  1  6
 36 37  1  0
 37 38  1  0
 38 39  2  0
 39 40  1  0
 40 41  2  0
 41 42  1  0
 42 43  2  0
 12  2  1  0
 20 15  1  0
 33 24  1  0
 43 38  1  0
  9  3  1  0
 35 10  1  0
 33 28  1  0
M  CHG  1  15   1
M  END
>  <template_ligand>  (23) 
mol-246

>  <template_receptor>  (23) 
receptors/receptor-246.pdb

>  <SMILES>  (23) 
O=C1c2ccc(Cl)cc2C2(CN1CC[NH+]1CCOCC1)C(=O)N(c1cncc3ccccc13)CC2CNc1ncccn1

>  <LABEL>  (23) 
SARS-CoV-2 Mpro

$$$$
ligand_12
     RDKit          3D

 41 46  0  0  0  0  0  0  0  0999 V2000
   -7.0494    3.5899  -22.7153 C   0  0  0  0  0  0  0  0  0  0  0  0
   -7.8085    2.6155  -23.4766 N   0  0  0  0  0  0  0  0  0  0  0  0
   -7.4578    2.3475  -24.7528 C   0  0  0  0  0  0  0  0  0  0  0  0
   -6.6026    2.9741  -25.3663 O   0  0  0  0  0  0  0  0  0  0  0  0
   -8.1774    1.1975  -25.4654 C   0  0  0  0  0  0  0  0  0  0  0  0
   -9.0267    0.3543  -24.6579 N   0  0  0  0  0  0  0  0  0  0  0  0
   -8.5633   -0.9868  -24.3400 C   0  0  0  0  0  0  0  0  0  0  0  0
   -9.1324   -1.4923  -22.9928 C   0  0  2  0  0  0  0  0  0  0  0  0
   -8.5538   -0.6405  -21.8350 C   0  0  0  0  0  0  0  0  0  0  0  0
   -8.9238    0.4600  -21.4743 O   0  0  0  0  0  0  0  0  0  0  0  0
   -7.5149   -1.3361  -21.2585 N   0  0  0  0  0  0  0  0  0  0  0  0
   -6.7267   -0.7572  -20.2315 C   0  0  0  0  0  0  0  0  0  0  0  0
   -7.0327   -1.0044  -18.9188 C   0  0  0  0  0  0  0  0  0  0  0  0
   -6.3518   -0.4968  -17.8576 N   0  0  0  0  0  0  0  0  0  0  0  0
   -5.3309    0.2842  -18.1222 C   0  0  0  0  0  0  0  0  0  0  0  0
   -4.9066    0.6266  -19.4393 C   0  0  0  0  0  0  0  0  0  0  0  0
   -3.7960    1.4789  -19.6752 C   0  0  0  0  0  0  0  0  0  0  0  0
   -3.4008    1.7769  -20.9494 C   0  0  0  0  0  0  0  0  0  0  0  0
   -4.0977    1.2369  -22.0532 C   0  0  0  0  0  0  0  0  0  0  0  0
   -5.1838    0.4216  -21.8537 C   0  0  0  0  0  0  0  0  0  0  0  0
   -5.6191    0.0929  -20.5381 C   0  0  0  0  0  0  0  0  0  0  0  0
   -7.2474   -2.6138  -21.8915 C   0  0  0  0  0  0  0  0  0  0  0  0
   -8.5811   -2.8883  -22.5959 C   0  0  2  0  0  0  0  0  0  0  0  0
   -8.5299   -3.9798  -23.6593 C   0  0  0  0  0  0  0  0  0  0  0  0
   -7.5148   -3.7703  -24.6894 N   0  0  0  0  0  0  0  0  0  0  0  0
   -7.7548   -4.0968  -26.0036 C   0  0  0  0  0  0  0  0  0  0  0  0
   -9.0295   -4.0043  -26.5949 C   0  0  0  0  0  0  0  0  0  0  0  0
   -9.1143   -4.3828  -27.9186 C   0  0  0  0  0  0  0  0  0  0  0  0
   -8.0656   -4.8171  -28.6217 N   0  0  0  0  0  0  0  0  0  0  0  0
   -6.8970   -4.8114  -27.9779 C   0  0  0  0  0  0  0  0  0  0  0  0
   -5.6895   -5.2154  -28.7664 C   0  0  0  0  0  0  0  0  0  0  0  0
   -6.6874   -4.4674  -26.7107 N   0  0  0  0  0  0  0  0  0  0  0  0
  -10.6417   -1.3562  -23.0695 C   0  0  0  0  0  0  0  0  0  0  0  0
  -11.5303   -2.2360  -22.4354 C   0  0  0  0  0  0  0  0  0  0  0  0
  -12.8903   -1.9773  -22.4377 C   0  0  0  0  0  0  0  0  0  0  0  0
  -13.9677   -3.0658  -21.6048 Cl  0  0  0  0  0  0  0  0  0  0  0  0
  -13.4260   -0.8560  -23.0704 C   0  0  0  0  0  0  0  0  0  0  0  0
  -12.5616    0.0055  -23.7151 C   0  0  0  0  0  0  0  0  0  0  0  0
  -11.1905   -0.2450  -23.7298 C   0  0  0  0  0  0  0  0  0  0  0  0
  -10.3324    0.7235  -24.4845 C   0  0  0  0  0  0  0  0  0  0  0  0
  -10.7741    1.7901  -24.9000 O   0  0  0  0  0  0  0  0  0  0  0  0
  1  2  1  0
  2  3  1  0
  3  4  2  0
  3  5  1  0
  5  6  1  0
  6  7  1  0
  8  7  1  6
  8  9  1  0
  9 10  2  0
  9 11  1  0
 11 12  1  0
 12 13  2  0
 13 14  1  0
 14 15  2  0
 15 16  1  0
 16 17  2  0
 17 18  1  0
 18 19  2  0
 19 20  1  0
 20 21  2  0
 11 22  1  0
 22 23  1  0
 23 24  1  6
 24 25  1  0
 25 26  1  0
 26 27  2  0
 27 28  1  0
 28 29  2  0
 29 30  1  0
 30 31  1  0
 30 32  2  0
  8 33  1  0
 33 34  2  0
 34 35  1  0
 35 36  1  0
 35 37  2  0
 37 38  1  0
 38 39  2  0
 39 40  1  0
 40 41  2  0
 40  6  1  0
 23  8  1  0
 32 26  1  0
 39 33  1  0
 21 12  1  0
 21 16  1  0
M  END
>  <template_ligand>  (24) 
mol-218

>  <template_receptor>  (24) 
receptors/receptor-218.pdb

>  <SMILES>  (24) 
CNC(=O)CN1CC2(C(=O)N(c3cncc4ccccc34)CC2CNc2ccnc(C)n2)c2cc(Cl)ccc2C1=O

>  <LABEL>  (24) 
SARS-CoV-2 Mpro

$$$$
ligand_9
     RDKit          3D

 38 43  0  0  0  0  0  0  0  0999 V2000
    5.1996    6.6805   25.0502 C   0  0  0  0  0  0  0  0  0  0  0  0
    6.2969    6.9368   24.0178 C   0  0  1  0  0  0  0  0  0  0  0  0
    7.3609    5.8414   23.9050 C   0  0  0  0  0  0  0  0  0  0  0  0
    6.8227    4.5897   23.2409 N   0  0  0  0  0  0  0  0  0  0  0  0
    7.8637    3.5342   23.0771 C   0  0  0  0  0  0  0  0  0  0  0  0
    8.2330    2.9020   24.4270 C   0  0  0  0  0  0  0  0  0  0  0  0
    9.1819    1.8168   24.2640 N   0  0  0  0  0  0  0  0  0  0  0  0
    8.7400    0.4548   24.0143 C   0  0  0  0  0  0  0  0  0  0  0  0
    9.4366   -0.1698   22.7688 C   0  0  2  0  0  0  0  0  0  0  0  0
    8.8243    0.3851   21.4631 C   0  0  0  0  0  0  0  0  0  0  0  0
    9.1972    1.3291   20.7911 O   0  0  0  0  0  0  0  0  0  0  0  0
    7.7272   -0.3937   21.1668 N   0  0  0  0  0  0  0  0  0  0  0  0
    6.8434   -0.0054   20.1354 C   0  0  0  0  0  0  0  0  0  0  0  0
    7.1701   -0.2758   18.8308 C   0  0  0  0  0  0  0  0  0  0  0  0
    6.4073    0.0686   17.7651 N   0  0  0  0  0  0  0  0  0  0  0  0
    5.2965    0.7220   18.0214 C   0  0  0  0  0  0  0  0  0  0  0  0
    4.8551    1.0918   19.3243 C   0  0  0  0  0  0  0  0  0  0  0  0
    3.6614    1.8348   19.5321 C   0  0  0  0  0  0  0  0  0  0  0  0
    3.2792    2.1918   20.7974 C   0  0  0  0  0  0  0  0  0  0  0  0
    4.0572    1.8174   21.9157 C   0  0  0  0  0  0  0  0  0  0  0  0
    5.2191    1.1004   21.7406 C   0  0  0  0  0  0  0  0  0  0  0  0
    5.6469    0.7145   20.4351 C   0  0  0  0  0  0  0  0  0  0  0  0
    7.6544   -1.6254   21.9366 C   0  0  0  0  0  0  0  0  0  0  0  0
    9.0469   -1.6718   22.5818 C   0  0  2  0  0  0  0  0  0  0  0  0
    9.1600   -2.5911   23.7880 C   0  0  0  0  0  0  0  0  0  0  0  0
   10.9123    0.1340   22.8442 C   0  0  0  0  0  0  0  0  0  0  0  0
   11.8000   -0.5322   21.9922 C   0  0  0  0  0  0  0  0  0  0  0  0
   13.1429   -0.2105   22.0084 C   0  0  0  0  0  0  0  0  0  0  0  0
   14.2040   -1.0190   20.8948 Cl  0  0  0  0  0  0  0  0  0  0  0  0
   13.6630    0.7347   22.8914 C   0  0  0  0  0  0  0  0  0  0  0  0
   12.7895    1.4049   23.7231 C   0  0  0  0  0  0  0  0  0  0  0  0
   11.4220    1.1517   23.6638 C   0  0  0  0  0  0  0  0  0  0  0  0
   10.5159    2.0896   24.4053 C   0  0  0  0  0  0  0  0  0  0  0  0
   10.9434    3.0485   25.0285 O   0  0  0  0  0  0  0  0  0  0  0  0
    6.1572    4.9642   21.9439 C   0  0  0  0  0  0  0  0  0  0  0  0
    5.0899    6.0125   22.2240 C   0  0  2  0  0  0  0  0  0  0  0  0
    4.3032    6.4534   21.0177 C   0  0  0  0  0  0  0  0  0  0  0  0
    5.7246    7.1761   22.7423 O   0  0  0  0  0  0  0  0  0  0  0  0
  2  1  1  1
  2  3  1  0
  3  4  1  0
  4  5  1  0
  5  6  1  0
  6  7  1  0
  7  8  1  0
  9  8  1  1
  9 10  1  0
 10 11  2  0
 10 12  1  0
 12 13  1  0
 13 14  2  0
 14 15  1  0
 15 16  2  0
 16 17  1  0
 17 18  2  0
 18 19  1  0
 19 20  2  0
 20 21  1  0
 21 22  2  0
 12 23  1  0
 23 24  1  0
 24 25  1  1
  9 26  1  0
 26 27  2  0
 27 28  1  0
 28 29  1  0
 28 30  2  0
 30 31  1  0
 31 32  2  0
 32 33  1  0
 33 34  2  0
  4 35  1  0
 35 36  1  0
 36 37  1  6
 36 38  1  0
 38  2  1  0
 33  7  1  0
 24  9  1  0
 32 26  1  0
 22 13  1  0
 22 17  1  0
M  CHG  1   4   1
M  END
>  <template_ligand>  (25) 
mol-246

>  <template_receptor>  (25) 
receptors/receptor-246.pdb

>  <SMILES>  (25) 
CC1C[NH+](CCN2CC3(C(=O)N(c4cncc5ccccc45)CC3C)c3cc(Cl)ccc3C2=O)CC(C)O1

>  <LABEL>  (25) 
MERS-CoV Mpro

$$$$
ligand_13
     RDKit          3D

 40 45  0  0  0  0  0  0  0  0999 V2000
   -9.2150   -3.5788  -23.8824 C   0  0  0  0  0  0  0  0  0  0  0  0
   -9.1557   -2.6462  -22.6812 C   0  0  1  0  0  0  0  0  0  0  0  0
   -7.7618   -2.4941  -22.0517 C   0  0  0  0  0  0  0  0  0  0  0  0
   -7.9249   -1.2683  -21.2844 N   0  0  0  0  0  0  0  0  0  0  0  0
   -7.0595   -0.7923  -20.2710 C   0  0  0  0  0  0  0  0  0  0  0  0
   -7.3518   -1.0670  -18.9605 C   0  0  0  0  0  0  0  0  0  0  0  0
   -6.6033   -0.6546  -17.9070 N   0  0  0  0  0  0  0  0  0  0  0  0
   -5.5482    0.0781  -18.1777 C   0  0  0  0  0  0  0  0  0  0  0  0
   -5.1376    0.4553  -19.4906 C   0  0  0  0  0  0  0  0  0  0  0  0
   -4.0054    1.2823  -19.7239 C   0  0  0  0  0  0  0  0  0  0  0  0
   -3.6607    1.6542  -20.9953 C   0  0  0  0  0  0  0  0  0  0  0  0
   -4.4309    1.2205  -22.0980 C   0  0  0  0  0  0  0  0  0  0  0  0
   -5.5250    0.4081  -21.8997 C   0  0  0  0  0  0  0  0  0  0  0  0
   -5.9145    0.0090  -20.5881 C   0  0  0  0  0  0  0  0  0  0  0  0
   -9.0880   -0.5844  -21.5746 C   0  0  0  0  0  0  0  0  0  0  0  0
   -9.5433    0.3087  -20.8902 O   0  0  0  0  0  0  0  0  0  0  0  0
   -9.6571   -1.1814  -22.8762 C   0  0  1  0  0  0  0  0  0  0  0  0
   -9.0049   -0.5133  -24.1224 C   0  0  0  0  0  0  0  0  0  0  0  0
   -9.5371    0.8138  -24.3972 N   0  0  0  0  0  0  0  0  0  0  0  0
   -8.6455    1.9570  -24.6001 C   0  0  0  0  0  0  0  0  0  0  0  0
   -8.2880    2.6155  -23.2662 C   0  0  0  0  0  0  0  0  0  0  0  0
   -7.3278    3.7472  -23.3657 N   0  0  0  0  0  0  0  0  0  0  0  0
   -7.9480    4.9622  -23.9871 C   0  0  0  0  0  0  0  0  0  0  0  0
   -6.9038    6.0534  -24.2476 C   0  0  0  0  0  0  0  0  0  0  0  0
   -5.9019    6.1508  -23.1613 N   0  0  0  0  0  0  0  0  0  0  0  0
   -4.4219    5.5245  -23.7044 S   0  0  0  0  0  0  0  0  0  0  0  0
   -3.3389    5.9364  -22.3573 C   0  0  0  0  0  0  0  0  0  0  0  0
   -4.5567    4.0753  -23.8453 O   0  0  0  0  0  0  0  0  0  0  0  0
   -4.0124    6.3203  -24.8523 O   0  0  0  0  0  0  0  0  0  0  0  0
   -6.4067    5.5795  -21.8957 C   0  0  0  0  0  0  0  0  0  0  0  0
   -6.7887    4.0935  -21.9933 C   0  0  0  0  0  0  0  0  0  0  0  0
  -10.8923    1.0075  -24.4824 C   0  0  0  0  0  0  0  0  0  0  0  0
  -11.3950    1.9629  -25.0540 O   0  0  0  0  0  0  0  0  0  0  0  0
  -11.7323   -0.0120  -23.7598 C   0  0  0  0  0  0  0  0  0  0  0  0
  -13.1177    0.1220  -23.8424 C   0  0  0  0  0  0  0  0  0  0  0  0
  -13.9464   -0.6174  -23.0211 C   0  0  0  0  0  0  0  0  0  0  0  0
  -13.3612   -1.5226  -22.1322 C   0  0  0  0  0  0  0  0  0  0  0  0
  -14.3744   -2.3909  -21.0054 Cl  0  0  0  0  0  0  0  0  0  0  0  0
  -11.9921   -1.7195  -22.0915 C   0  0  0  0  0  0  0  0  0  0  0  0
  -11.1510   -0.9921  -22.9441 C   0  0  0  0  0  0  0  0  0  0  0  0
  2  1  1  6
  2  3  1  0
  3  4  1  0
  4  5  1  0
  5  6  2  0
  6  7  1  0
  7  8  2  0
  8  9  1  0
  9 10  2  0
 10 11  1  0
 11 12  2  0
 12 13  1  0
 13 14  2  0
  4 15  1  0
 15 16  2  0
 15 17  1  0
 17 18  1  6
 18 19  1  0
 19 20  1  0
 20 21  1  0
 21 22  1  0
 22 23  1  0
 23 24  1  0
 24 25  1  0
 25 26  1  0
 26 27  1  0
 26 28  2  0
 26 29  2  0
 25 30  1  0
 30 31  1  0
 19 32  1  0
 32 33  2  0
 32 34  1  0
 34 35  2  0
 35 36  1  0
 36 37  2  0
 37 38  1  0
 37 39  1  0
 39 40  2  0
 17  2  1  0
 31 22  1  0
 40 34  1  0
 14  5  1  0
 40 17  1  0
 14  9  1  0
M  CHG  1  22   1
M  END
>  <template_ligand>  (26) 
mol-246

>  <template_receptor>  (26) 
receptors/receptor-246.pdb

>  <SMILES>  (26) 
CC1CN(c2cncc3ccccc23)C(=O)C12CN(CC[NH+]1CCN(S(C)(=O)=O)CC1)C(=O)c1ccc(Cl)cc12

>  <LABEL>  (26) 
SARS-CoV-2 Mpro

$$$$
ligand_10
     RDKit          3D

 28 31  0  0  0  0  0  0  0  0999 V2000
    5.3902   -3.5925   25.1367 C   0  0  0  0  0  0  0  0  0  0  0  0
    5.8427   -2.6099   24.2154 O   0  0  0  0  0  0  0  0  0  0  0  0
    5.4447   -1.3154   24.4244 C   0  0  0  0  0  0  0  0  0  0  0  0
    4.1614   -1.0335   24.8878 C   0  0  0  0  0  0  0  0  0  0  0  0
    3.7454    0.2815   25.0385 C   0  0  0  0  0  0  0  0  0  0  0  0
    4.6104    1.3200   24.7134 C   0  0  0  0  0  0  0  0  0  0  0  0
    5.9042    1.0272   24.2802 C   0  0  0  0  0  0  0  0  0  0  0  0
    6.3657   -0.2837   24.1541 C   0  0  0  0  0  0  0  0  0  0  0  0
    7.8569   -0.6241   24.0048 C   0  0  2  0  0  0  0  0  0  0  0  0
    8.6857    0.2946   24.9259 C   0  0  0  0  0  0  0  0  0  0  0  0
    9.3046    1.4528   24.1382 C   0  0  1  0  0  0  0  0  0  0  0  0
    9.8193    2.4900   25.1085 C   0  0  0  0  0  0  0  0  0  0  0  0
   10.4174    0.8297   23.2887 C   0  0  0  0  0  0  0  0  0  0  0  0
    9.9588   -0.5490   22.7945 C   0  0  0  0  0  0  0  0  0  0  0  0
    8.4963   -0.5893   22.6707 N   0  0  0  0  0  0  0  0  0  0  0  0
    7.9997   -0.2788   21.4133 C   0  0  0  0  0  0  0  0  0  0  0  0
    8.6373    0.4253   20.6507 O   0  0  0  0  0  0  0  0  0  0  0  0
    6.7406   -1.0019   20.9222 C   0  0  0  0  0  0  0  0  0  0  0  0
    6.0245   -0.2539   19.8329 C   0  0  0  0  0  0  0  0  0  0  0  0
    6.5291   -0.2678   18.5552 C   0  0  0  0  0  0  0  0  0  0  0  0
    5.9624    0.3337   17.4764 N   0  0  0  0  0  0  0  0  0  0  0  0
    4.8588    1.0161   17.6918 C   0  0  0  0  0  0  0  0  0  0  0  0
    4.2455    1.1555   18.9701 C   0  0  0  0  0  0  0  0  0  0  0  0
    3.0631    1.9144   19.1750 C   0  0  0  0  0  0  0  0  0  0  0  0
    2.5023    2.0174   20.4184 C   0  0  0  0  0  0  0  0  0  0  0  0
    3.0899    1.3542   21.5193 C   0  0  0  0  0  0  0  0  0  0  0  0
    4.2237    0.6049   21.3472 C   0  0  0  0  0  0  0  0  0  0  0  0
    4.8372    0.4911   20.0722 C   0  0  0  0  0  0  0  0  0  0  0  0
  1  2  1  0
  2  3  1  0
  3  4  2  0
  4  5  1  0
  5  6  2  0
  6  7  1  0
  7  8  2  0
  9  8  1  6
  9 10  1  0
 10 11  1  0
 11 12  1  1
 11 13  1  0
 13 14  1  0
 14 15  1  0
 15 16  1  0
 16 17  2  0
 16 18  1  0
 18 19  1  0
 19 20  2  0
 20 21  1  0
 21 22  2  0
 22 23  1  0
 23 24  2  0
 24 25  1  0
 25 26  2  0
 26 27  1  0
 27 28  2  0
  8  3  1  0
 15  9  1  0
 28 19  1  0
 28 23  1  0
M  END
>  <template_ligand>  (27) 
mol-115

>  <template_receptor>  (27) 
receptors/receptor-115.pdb

>  <SMILES>  (27) 
COc1ccccc1C1CC(C)CCN1C(=O)Cc1cncc2ccccc12

>  <LABEL>  (27) 
MERS-CoV Mpro

$$$$
ligand_14
     RDKit          3D

 38 43  0  0  0  0  0  0  0  0999 V2000
   -7.0534    3.5501  -22.6866 C   0  0  0  0  0  0  0  0  0  0  0  0
   -7.7800    2.5405  -23.4299 N   0  0  0  0  0  0  0  0  0  0  0  0
   -7.4559    2.3287  -24.7219 C   0  0  0  0  0  0  0  0  0  0  0  0
   -6.6139    2.9915  -25.3171 O   0  0  0  0  0  0  0  0  0  0  0  0
   -8.2011    1.2164  -25.4690 C   0  0  0  0  0  0  0  0  0  0  0  0
   -9.0366    0.3630  -24.6542 N   0  0  0  0  0  0  0  0  0  0  0  0
   -8.5642   -0.9604  -24.3175 C   0  0  0  0  0  0  0  0  0  0  0  0
   -9.1264   -1.4710  -22.9655 C   0  0  2  0  0  0  0  0  0  0  0  0
   -8.5609   -0.6032  -21.8142 C   0  0  0  0  0  0  0  0  0  0  0  0
   -8.8953    0.5207  -21.4903 O   0  0  0  0  0  0  0  0  0  0  0  0
   -7.5392   -1.2965  -21.2172 N   0  0  0  0  0  0  0  0  0  0  0  0
   -6.7415   -0.7107  -20.2020 C   0  0  0  0  0  0  0  0  0  0  0  0
   -7.0367   -0.9715  -18.8900 C   0  0  0  0  0  0  0  0  0  0  0  0
   -6.3440   -0.4837  -17.8310 N   0  0  0  0  0  0  0  0  0  0  0  0
   -5.3207    0.2946  -18.0984 C   0  0  0  0  0  0  0  0  0  0  0  0
   -4.8973    0.6436  -19.4148 C   0  0  0  0  0  0  0  0  0  0  0  0
   -3.7812    1.4942  -19.6476 C   0  0  0  0  0  0  0  0  0  0  0  0
   -3.3933    1.7883  -20.9268 C   0  0  0  0  0  0  0  0  0  0  0  0
   -4.0923    1.2503  -22.0334 C   0  0  0  0  0  0  0  0  0  0  0  0
   -5.1812    0.4355  -21.8339 C   0  0  0  0  0  0  0  0  0  0  0  0
   -5.6205    0.1203  -20.5141 C   0  0  0  0  0  0  0  0  0  0  0  0
   -7.2252   -2.5590  -21.8465 C   0  0  0  0  0  0  0  0  0  0  0  0
   -8.5022   -2.8642  -22.6444 C   0  0  2  0  0  0  0  0  0  0  0  0
   -8.2100   -3.7414  -23.8740 C   0  0  0  0  0  0  0  0  0  0  0  0
   -7.8308   -5.0996  -23.5193 N   0  0  0  0  0  0  0  0  0  0  0  0
   -6.6393   -5.5774  -23.0743 C   0  0  0  0  0  0  0  0  0  0  0  0
   -6.8546   -6.8757  -22.6644 C   0  0  0  0  0  0  0  0  0  0  0  0
   -8.2329   -7.0817  -22.8816 C   0  0  0  0  0  0  0  0  0  0  0  0
   -8.8049   -6.0006  -23.3855 N   0  0  0  0  0  0  0  0  0  0  0  0
  -10.6403   -1.3479  -23.0413 C   0  0  0  0  0  0  0  0  0  0  0  0
  -11.5217   -2.2305  -22.4008 C   0  0  0  0  0  0  0  0  0  0  0  0
  -12.8872   -1.9842  -22.4275 C   0  0  0  0  0  0  0  0  0  0  0  0
  -13.9735   -3.0893  -21.6300 Cl  0  0  0  0  0  0  0  0  0  0  0  0
  -13.4235   -0.8651  -23.0669 C   0  0  0  0  0  0  0  0  0  0  0  0
  -12.5632    0.0013  -23.7091 C   0  0  0  0  0  0  0  0  0  0  0  0
  -11.1924   -0.2417  -23.7152 C   0  0  0  0  0  0  0  0  0  0  0  0
  -10.3472    0.7127  -24.5045 C   0  0  0  0  0  0  0  0  0  0  0  0
  -10.7918    1.7445  -24.9922 O   0  0  0  0  0  0  0  0  0  0  0  0
  1  2  1  0
  2  3  1  0
  3  4  2  0
  3  5  1  0
  5  6  1  0
  6  7  1  0
  8  7  1  6
  8  9  1  0
  9 10  2  0
  9 11  1  0
 11 12  1  0
 12 13  2  0
 13 14  1  0
 14 15  2  0
 15 16  1  0
 16 17  2  0
 17 18  1  0
 18 19  2  0
 19 20  1  0
 20 21  2  0
 11 22  1  0
 22 23  1  0
 23 24  1  6
 24 25  1  0
 25 26  1  0
 26 27  2  0
 27 28  1  0
 28 29  2  0
  8 30  1  0
 30 31  2  0
 31 32  1  0
 32 33  1  0
 32 34  2  0
 34 35  1  0
 35 36  2  0
 36 37  1  0
 37 38  2  0
 37  6  1  0
 23  8  1  0
 29 25  1  0
 36 30  1  0
 21 12  1  0
 21 16  1  0
M  END
>  <template_ligand>  (28) 
mol-218

>  <template_receptor>  (28) 
receptors/receptor-218.pdb

>  <SMILES>  (28) 
CNC(=O)CN1CC2(C(=O)N(c3cncc4ccccc34)CC2Cn2cccn2)c2cc(Cl)ccc2C1=O

>  <LABEL>  (28) 
SARS-CoV-2 Mpro

$$$$
ligand_15
     RDKit          3D

 38 43  0  0  0  0  0  0  0  0999 V2000
   -7.0573    3.5666  -22.7013 C   0  0  0  0  0  0  0  0  0  0  0  0
   -7.8040    2.5678  -23.4448 N   0  0  0  0  0  0  0  0  0  0  0  0
   -7.4592    2.3187  -24.7286 C   0  0  0  0  0  0  0  0  0  0  0  0
   -6.6126    2.9668  -25.3341 O   0  0  0  0  0  0  0  0  0  0  0  0
   -8.1876    1.1866  -25.4659 C   0  0  0  0  0  0  0  0  0  0  0  0
   -9.0239    0.3273  -24.6578 N   0  0  0  0  0  0  0  0  0  0  0  0
   -8.5553   -1.0037  -24.3188 C   0  0  0  0  0  0  0  0  0  0  0  0
   -9.1270   -1.4957  -22.9627 C   0  0  2  0  0  0  0  0  0  0  0  0
   -8.5609   -0.6182  -21.8169 C   0  0  0  0  0  0  0  0  0  0  0  0
   -8.9155    0.4997  -21.4841 O   0  0  0  0  0  0  0  0  0  0  0  0
   -7.5228   -1.3000  -21.2325 N   0  0  0  0  0  0  0  0  0  0  0  0
   -6.7317   -0.7232  -20.2118 C   0  0  0  0  0  0  0  0  0  0  0  0
   -7.0341   -0.9881  -18.9015 C   0  0  0  0  0  0  0  0  0  0  0  0
   -6.3515   -0.4936  -17.8390 N   0  0  0  0  0  0  0  0  0  0  0  0
   -5.3301    0.2882  -18.1097 C   0  0  0  0  0  0  0  0  0  0  0  0
   -4.9033    0.6359  -19.4255 C   0  0  0  0  0  0  0  0  0  0  0  0
   -3.7901    1.4888  -19.6556 C   0  0  0  0  0  0  0  0  0  0  0  0
   -3.4024    1.7850  -20.9346 C   0  0  0  0  0  0  0  0  0  0  0  0
   -4.0958    1.2502  -22.0448 C   0  0  0  0  0  0  0  0  0  0  0  0
   -5.1806    0.4309  -21.8479 C   0  0  0  0  0  0  0  0  0  0  0  0
   -5.6166    0.1109  -20.5270 C   0  0  0  0  0  0  0  0  0  0  0  0
   -7.2301   -2.5780  -21.8389 C   0  0  0  0  0  0  0  0  0  0  0  0
   -8.5312   -2.8883  -22.5912 C   0  0  2  0  0  0  0  0  0  0  0  0
   -8.2944   -3.8576  -23.7529 C   0  0  0  0  0  0  0  0  0  0  0  0
   -7.8397   -5.1672  -23.3109 N   0  0  0  0  0  0  0  0  0  0  0  0
   -6.6044   -5.4812  -22.9439 N   0  0  0  0  0  0  0  0  0  0  0  0
   -6.7501   -6.7576  -22.6137 C   0  0  0  0  0  0  0  0  0  0  0  0
   -8.0154   -7.1899  -22.7795 N   0  0  0  0  0  0  0  0  0  0  0  0
   -8.6832   -6.1657  -23.2248 N   0  0  0  0  0  0  0  0  0  0  0  0
  -10.6386   -1.3680  -23.0454 C   0  0  0  0  0  0  0  0  0  0  0  0
  -11.5280   -2.2409  -22.4039 C   0  0  0  0  0  0  0  0  0  0  0  0
  -12.8891   -1.9777  -22.4322 C   0  0  0  0  0  0  0  0  0  0  0  0
  -13.9780   -3.0686  -21.6277 Cl  0  0  0  0  0  0  0  0  0  0  0  0
  -13.4226   -0.8594  -23.0701 C   0  0  0  0  0  0  0  0  0  0  0  0
  -12.5556   -0.0005  -23.7083 C   0  0  0  0  0  0  0  0  0  0  0  0
  -11.1861   -0.2593  -23.7162 C   0  0  0  0  0  0  0  0  0  0  0  0
  -10.3324    0.6916  -24.4952 C   0  0  0  0  0  0  0  0  0  0  0  0
  -10.7771    1.7345  -24.9546 O   0  0  0  0  0  0  0  0  0  0  0  0
  1  2  1  0
  2  3  1  0
  3  4  2  0
  3  5  1  0
  5  6  1  0
  6  7  1  0
  8  7  1  6
  8  9  1  0
  9 10  2  0
  9 11  1  0
 11 12  1  0
 12 13  2  0
 13 14  1  0
 14 15  2  0
 15 16  1  0
 16 17  2  0
 17 18  1  0
 18 19  2  0
 19 20  1  0
 20 21  2  0
 11 22  1  0
 22 23  1  0
 23 24  1  6
 24 25  1  0
 25 26  1  0
 26 27  2  0
 27 28  1  0
 28 29  2  0
  8 30  1  0
 30 31  2  0
 31 32  1  0
 32 33  1  0
 32 34  2  0
 34 35  1  0
 35 36  2  0
 36 37  1  0
 37 38  2  0
 37  6  1  0
 23  8  1  0
 29 25  1  0
 36 30  1  0
 21 12  1  0
 21 16  1  0
M  END
>  <template_ligand>  (29) 
mol-218

>  <template_receptor>  (29) 
receptors/receptor-218.pdb

>  <SMILES>  (29) 
CNC(=O)CN1CC2(C(=O)N(c3cncc4ccccc34)CC2Cn2ncnn2)c2cc(Cl)ccc2C1=O

>  <LABEL>  (29) 
SARS-CoV-2 Mpro

$$$$
ligand_11
     RDKit          3D

 24 27  0  0  0  0  0  0  0  0999 V2000
    5.9749   -3.3400   25.6378 O   0  0  0  0  0  0  0  0  0  0  0  0
    6.2457   -4.3201   24.9754 C   0  0  0  0  0  0  0  0  0  0  0  0
    5.7275   -5.6975   25.3860 C   0  0  0  0  0  0  0  0  0  0  0  0
    6.0704   -5.9725   26.8296 C   0  0  0  0  0  0  0  0  0  0  0  0
    7.3686   -6.2161   27.1841 C   0  0  0  0  0  0  0  0  0  0  0  0
    7.7659   -6.7098   28.3831 N   0  0  0  0  0  0  0  0  0  0  0  0
    6.8319   -6.9354   29.2754 C   0  0  0  0  0  0  0  0  0  0  0  0
    5.4610   -6.6005   29.0876 C   0  0  0  0  0  0  0  0  0  0  0  0
    4.4674   -6.8211   30.0747 C   0  0  0  0  0  0  0  0  0  0  0  0
    3.1924   -6.3583   29.8850 C   0  0  0  0  0  0  0  0  0  0  0  0
    2.8649   -5.6150   28.7287 C   0  0  0  0  0  0  0  0  0  0  0  0
    3.8066   -5.4050   27.7539 C   0  0  0  0  0  0  0  0  0  0  0  0
    5.0976   -5.9801   27.8724 C   0  0  0  0  0  0  0  0  0  0  0  0
    7.0523   -4.2781   23.8568 N   0  0  0  0  0  0  0  0  0  0  0  0
    6.7720   -4.9729   22.6067 C   0  0  0  0  0  0  0  0  0  0  0  0
    6.5083   -3.8123   21.6433 C   0  0  2  0  0  0  0  0  0  0  0  0
    6.4819   -4.2638   20.2073 C   0  0  0  0  0  0  0  0  0  0  0  0
    5.3769   -5.0910   20.0397 F   0  0  0  0  0  0  0  0  0  0  0  0
    7.4818   -2.6881   22.0685 C   0  0  0  0  0  0  0  0  0  0  0  0
    6.8269   -1.2922   21.9196 C   0  0  0  0  0  0  0  0  0  0  0  0
    7.9605   -0.2418   21.9700 C   0  0  0  0  0  0  0  0  0  0  0  0
    9.2526   -1.0446   21.6812 C   0  0  0  0  0  0  0  0  0  0  0  0
    8.7366   -2.4149   21.2149 C   0  0  0  0  0  0  0  0  0  0  0  0
    7.8638   -3.1020   23.5266 C   0  0  0  0  0  0  0  0  0  0  0  0
  1  2  2  0
  2  3  1  0
  3  4  1  0
  4  5  2  0
  5  6  1  0
  6  7  2  0
  7  8  1  0
  8  9  2  0
  9 10  1  0
 10 11  2  0
 11 12  1  0
 12 13  2  0
  2 14  1  0
 14 15  1  0
 15 16  1  0
 16 17  1  6
 17 18  1  0
 16 19  1  0
 19 20  1  0
 20 21  1  0
 21 22  1  0
 22 23  1  0
 19 24  1  0
 13  4  1  0
 24 14  1  0
 13  8  1  0
 23 19  1  0
M  END
>  <template_ligand>  (30) 
mol-56

>  <template_receptor>  (30) 
receptors/receptor-56.pdb

>  <SMILES>  (30) 
O=C(Cc1cncc2ccccc12)N1CC(CF)C2(CCCC2)C1

>  <LABEL>  (30) 
MERS-CoV Mpro

$$$$
ligand_12
     RDKit          3D

 38 43  0  0  0  0  0  0  0  0999 V2000
    6.3818    4.1746   22.2013 C   0  0  0  0  0  0  0  0  0  0  0  0
    7.0517    3.2194   23.0584 N   0  0  0  0  0  0  0  0  0  0  0  0
    6.8744    3.2273   24.3952 C   0  0  0  0  0  0  0  0  0  0  0  0
    6.0986    3.9710   24.9817 O   0  0  0  0  0  0  0  0  0  0  0  0
    7.7245    2.2354   25.2016 C   0  0  0  0  0  0  0  0  0  0  0  0
    8.6387    1.4102   24.4404 N   0  0  0  0  0  0  0  0  0  0  0  0
    8.2502    0.0522   24.1006 C   0  0  0  0  0  0  0  0  0  0  0  0
    8.8977   -0.4401   22.7738 C   0  0  2  0  0  0  0  0  0  0  0  0
    8.2526    0.3248   21.5889 C   0  0  0  0  0  0  0  0  0  0  0  0
    8.5360    1.4403   21.1872 O   0  0  0  0  0  0  0  0  0  0  0  0
    7.2419   -0.4468   21.0723 N   0  0  0  0  0  0  0  0  0  0  0  0
    6.4348    0.0304   20.0043 C   0  0  0  0  0  0  0  0  0  0  0  0
    6.8268   -0.1990   18.7094 C   0  0  0  0  0  0  0  0  0  0  0  0
    6.1512    0.2267   17.6126 N   0  0  0  0  0  0  0  0  0  0  0  0
    5.0550    0.9183   17.8200 C   0  0  0  0  0  0  0  0  0  0  0  0
    4.5376    1.2378   19.1092 C   0  0  0  0  0  0  0  0  0  0  0  0
    3.3559    2.0106   19.2757 C   0  0  0  0  0  0  0  0  0  0  0  0
    2.8879    2.3021   20.5276 C   0  0  0  0  0  0  0  0  0  0  0  0
    3.5684    1.8305   21.6721 C   0  0  0  0  0  0  0  0  0  0  0  0
    4.7146    1.0818   21.5357 C   0  0  0  0  0  0  0  0  0  0  0  0
    5.2384    0.7737   20.2481 C   0  0  0  0  0  0  0  0  0  0  0  0
    7.1025   -1.7395   21.7197 C   0  0  0  0  0  0  0  0  0  0  0  0
    8.4587   -1.8955   22.4253 C   0  0  2  0  0  0  0  0  0  0  0  0
    8.4293   -2.8965   23.5731 C   0  0  0  0  0  0  0  0  0  0  0  0
    7.9497   -4.1390   23.0729 O   0  0  0  0  0  0  0  0  0  0  0  0
    8.1284   -5.2300   23.9758 C   0  0  0  0  0  0  0  0  0  0  0  0
    7.8336   -6.5404   23.3537 C   0  0  0  0  0  0  0  0  0  0  0  0
    6.3858   -7.0473   23.5977 C   0  0  0  0  0  0  0  0  0  0  0  0
    6.4858   -7.0649   23.4110 C   0  0  0  0  0  0  0  0  0  0  0  0
   10.3898   -0.1826   22.8674 C   0  0  0  0  0  0  0  0  0  0  0  0
   11.3394   -0.9933   22.2305 C   0  0  0  0  0  0  0  0  0  0  0  0
   12.6835   -0.6648   22.2824 C   0  0  0  0  0  0  0  0  0  0  0  0
   13.8415   -1.7024   21.4975 Cl  0  0  0  0  0  0  0  0  0  0  0  0
   13.1378    0.4794   22.9359 C   0  0  0  0  0  0  0  0  0  0  0  0
   12.2103    1.2849   23.5642 C   0  0  0  0  0  0  0  0  0  0  0  0
   10.8560    0.9527   23.5501 C   0  0  0  0  0  0  0  0  0  0  0  0
    9.9265    1.8560   24.3006 C   0  0  0  0  0  0  0  0  0  0  0  0
   10.2930    2.9309   24.7555 O   0  0  0  0  0  0  0  0  0  0  0  0
  1  2  1  0
  2  3  1  0
  3  4  2  0
  3  5  1  0
  5  6  1  0
  6  7  1  0
  8  7  1  1
  8  9  1  0
  9 10  2  0
  9 11  1  0
 11 12  1  0
 12 13  2  0
 13 14  1  0
 14 15  2  0
 15 16  1  0
 16 17  2  0
 17 18  1  0
 18 19  2  0
 19 20  1  0
 20 21  2  0
 11 22  1  0
 22 23  1  0
 23 24  1  1
 24 25  1  0
 25 26  1  0
 26 27  1  0
 27 28  1  0
 28 29  1  0
  8 30  1  0
 30 31  2  0
 31 32  1  0
 32 33  1  0
 32 34  2  0
 34 35  1  0
 35 36  2  0
 36 37  1  0
 37 38  2  0
 37  6  1  0
 23  8  1  0
 29 27  1  0
 36 30  1  0
 21 12  1  0
 21 16  1  0
M  END
>  <template_ligand>  (31) 
mol-218

>  <template_receptor>  (31) 
receptors/receptor-218.pdb

>  <SMILES>  (31) 
CNC(=O)CN1CC2(C(=O)N(c3cncc4ccccc34)CC2COCC2CC2)c2cc(Cl)ccc2C1=O

>  <LABEL>  (31) 
MERS-CoV Mpro

$$$$
ligand_16
     RDKit          3D

 22 25  0  0  0  0  0  0  0  0999 V2000
  -10.3043   -4.6168  -25.5166 C   0  0  0  0  0  0  0  0  0  0  0  0
  -10.1268   -3.5665  -24.4261 C   0  0  2  0  0  0  0  0  0  0  0  0
  -10.2870   -2.1481  -24.9657 C   0  0  0  0  0  0  0  0  0  0  0  0
  -10.2068   -1.1053  -23.8416 C   0  0  0  0  0  0  0  0  0  0  0  0
   -9.1032   -1.3796  -22.9055 C   0  0  0  0  0  0  0  0  0  0  0  0
   -8.6540   -0.6111  -21.7743 C   0  0  0  0  0  0  0  0  0  0  0  0
   -9.0168    0.4605  -21.3407 O   0  0  0  0  0  0  0  0  0  0  0  0
   -7.6759   -1.4247  -21.1507 N   0  0  0  0  0  0  0  0  0  0  0  0
   -6.8450   -0.9436  -20.0953 C   0  0  0  0  0  0  0  0  0  0  0  0
   -7.1808   -1.1540  -18.7818 C   0  0  0  0  0  0  0  0  0  0  0  0
   -6.5519   -0.5825  -17.7185 N   0  0  0  0  0  0  0  0  0  0  0  0
   -5.5460    0.2259  -17.9609 C   0  0  0  0  0  0  0  0  0  0  0  0
   -5.0518    0.4934  -19.2698 C   0  0  0  0  0  0  0  0  0  0  0  0
   -3.9545    1.3713  -19.4996 C   0  0  0  0  0  0  0  0  0  0  0  0
   -3.5005    1.5849  -20.7735 C   0  0  0  0  0  0  0  0  0  0  0  0
   -4.1189    0.9413  -21.8675 C   0  0  0  0  0  0  0  0  0  0  0  0
   -5.1893    0.1031  -21.6745 C   0  0  0  0  0  0  0  0  0  0  0  0
   -5.6927   -0.1324  -20.3665 C   0  0  0  0  0  0  0  0  0  0  0  0
   -7.5977   -2.6760  -21.7735 C   0  0  0  0  0  0  0  0  0  0  0  0
   -6.8881   -3.6024  -21.4639 O   0  0  0  0  0  0  0  0  0  0  0  0
   -8.5119   -2.6006  -22.8229 N   0  0  0  0  0  0  0  0  0  0  0  0
   -8.7674   -3.7077  -23.7399 C   0  0  0  0  0  0  0  0  0  0  0  0
  2  1  1  6
  2  3  1  0
  3  4  1  0
  4  5  1  0
  5  6  2  0
  6  7  1  0
  6  8  1  0
  8  9  1  0
  9 10  2  0
 10 11  1  0
 11 12  2  0
 12 13  1  0
 13 14  2  0
 14 15  1  0
 15 16  2  0
 16 17  1  0
 17 18  2  0
  8 19  1  0
 19 20  2  0
 19 21  1  0
 21 22  1  0
 22  2  1  0
 21  5  1  0
 18  9  1  0
 18 13  1  0
M  CHG  1   7  -1
M  END
>  <template_ligand>  (32) 
mol-109

>  <template_receptor>  (32) 
receptors/receptor-109.pdb

>  <SMILES>  (32) 
CC1CCc2c([O-])n(-c3cncc4ccccc34)c(=O)n2C1

>  <LABEL>  (32) 
SARS-CoV-2 Mpro

$$$$
ligand_13
     RDKit          3D

 37 43  0  0  0  0  0  0  0  0999 V2000
    9.1582   -2.5971   23.7835 C   0  0  0  0  0  0  0  0  0  0  0  0
    9.0440   -1.6670   22.5871 C   0  0  1  0  0  0  0  0  0  0  0  0
    7.6530   -1.6242   21.9363 C   0  0  0  0  0  0  0  0  0  0  0  0
    7.7171   -0.3858   21.1831 N   0  0  0  0  0  0  0  0  0  0  0  0
    6.8370   -0.0020   20.1492 C   0  0  0  0  0  0  0  0  0  0  0  0
    7.1722   -0.2726   18.8463 C   0  0  0  0  0  0  0  0  0  0  0  0
    6.4196    0.0752   17.7750 N   0  0  0  0  0  0  0  0  0  0  0  0
    5.3097    0.7322   18.0299 C   0  0  0  0  0  0  0  0  0  0  0  0
    4.8624    1.1017   19.3326 C   0  0  0  0  0  0  0  0  0  0  0  0
    3.6593    1.8259   19.5368 C   0  0  0  0  0  0  0  0  0  0  0  0
    3.2455    2.1467   20.8005 C   0  0  0  0  0  0  0  0  0  0  0  0
    4.0138    1.7678   21.9213 C   0  0  0  0  0  0  0  0  0  0  0  0
    5.1934    1.0813   21.7532 C   0  0  0  0  0  0  0  0  0  0  0  0
    5.6419    0.7199   20.4481 C   0  0  0  0  0  0  0  0  0  0  0  0
    8.8022    0.4063   21.4892 C   0  0  0  0  0  0  0  0  0  0  0  0
    9.1523    1.3629   20.8334 O   0  0  0  0  0  0  0  0  0  0  0  0
    9.4310   -0.1670   22.7811 C   0  0  1  0  0  0  0  0  0  0  0  0
    8.7493    0.4667   24.0217 C   0  0  0  0  0  0  0  0  0  0  0  0
    9.1943    1.8270   24.2532 N   0  0  0  0  0  0  0  0  0  0  0  0
    8.2535    2.9228   24.3960 C   0  0  0  0  0  0  0  0  0  0  0  0
    7.9101    3.5443   23.0353 C   0  0  0  0  0  0  0  0  0  0  0  0
    7.1042    4.7900   23.1870 N   0  0  2  0  0  0  0  0  0  0  0  0
    5.6646    4.5811   23.6908 C   0  0  0  0  0  0  0  0  0  0  0  0
    4.8239    5.3074   22.6329 C   0  0  2  0  0  0  0  0  0  0  0  0
    5.5901    5.0107   21.3446 C   0  0  0  0  0  0  0  0  0  0  0  0
    6.8812    5.6039   21.9138 C   0  0  1  0  0  0  0  0  0  0  0  0
    6.3600    6.9701   22.3590 C   0  0  0  0  0  0  0  0  0  0  0  0
    5.0113    6.7169   22.7932 O   0  0  0  0  0  0  0  0  0  0  0  0
   10.5263    2.0714   24.4375 C   0  0  0  0  0  0  0  0  0  0  0  0
   10.9562    3.0092   25.0930 O   0  0  0  0  0  0  0  0  0  0  0  0
   11.4241    1.1443   23.6722 C   0  0  0  0  0  0  0  0  0  0  0  0
   12.7902    1.4002   23.7263 C   0  0  0  0  0  0  0  0  0  0  0  0
   13.6568    0.7362   22.8829 C   0  0  0  0  0  0  0  0  0  0  0  0
   13.1316   -0.2071   22.0027 C   0  0  0  0  0  0  0  0  0  0  0  0
   14.1842   -1.0174   20.8825 Cl  0  0  0  0  0  0  0  0  0  0  0  0
   11.7897   -0.5293   21.9917 C   0  0  0  0  0  0  0  0  0  0  0  0
   10.9084    0.1283   22.8548 C   0  0  0  0  0  0  0  0  0  0  0  0
  2  1  1  1
  2  3  1  0
  3  4  1  0
  4  5  1  0
  5  6  2  0
  6  7  1  0
  7  8  2  0
  8  9  1  0
  9 10  2  0
 10 11  1  0
 11 12  2  0
 12 13  1  0
 13 14  2  0
  4 15  1  0
 15 16  2  0
 15 17  1  0
 17 18  1  1
 18 19  1  0
 19 20  1  0
 20 21  1  0
 22 21  1  6
 22 23  1  0
 24 23  1  1
 24 25  1  0
 25 26  1  0
 26 27  1  1
 27 28  1  0
 19 29  1  0
 29 30  2  0
 29 31  1  0
 31 32  2  0
 32 33  1  0
 33 34  2  0
 34 35  1  0
 34 36  1  0
 36 37  2  0
 17  2  1  0
 26 22  1  0
 37 31  1  0
 14  5  1  0
 37 17  1  0
 14  9  1  0
 28 24  1  0
M  CHG  1  22   1
M  END
>  <template_ligand>  (33) 
mol-246

>  <template_receptor>  (33) 
receptors/receptor-246.pdb

>  <SMILES>  (33) 
CC1CN(c2cncc3ccccc23)C(=O)C12CN(CC[NH+]1CC3CC1CO3)C(=O)c1ccc(Cl)cc12

>  <LABEL>  (33) 
MERS-CoV Mpro

$$$$
ligand_14
     RDKit          3D

 38 43  0  0  0  0  0  0  0  0999 V2000
    8.6235    8.0727   23.1360 C   0  0  0  0  0  0  0  0  0  0  0  0
    8.1416    6.7312   22.6322 C   0  0  1  0  0  0  0  0  0  0  0  0
    7.4421    5.9143   23.7146 C   0  0  0  0  0  0  0  0  0  0  0  0
    6.8590    4.6310   23.1603 N   0  0  2  0  0  0  0  0  0  0  0  0
    7.8812    3.5258   23.0189 C   0  0  0  0  0  0  0  0  0  0  0  0
    8.2298    2.8836   24.3689 C   0  0  0  0  0  0  0  0  0  0  0  0
    9.1839    1.8055   24.2485 N   0  0  0  0  0  0  0  0  0  0  0  0
    8.7479    0.4389   24.0357 C   0  0  0  0  0  0  0  0  0  0  0  0
    9.4313   -0.1839   22.7989 C   0  0  2  0  0  0  0  0  0  0  0  0
    8.8011    0.4012   21.5202 C   0  0  0  0  0  0  0  0  0  0  0  0
    9.1477    1.3813   20.8896 O   0  0  0  0  0  0  0  0  0  0  0  0
    7.7242   -0.3876   21.1976 N   0  0  0  0  0  0  0  0  0  0  0  0
    6.8465    0.0008   20.1655 C   0  0  0  0  0  0  0  0  0  0  0  0
    7.1750   -0.2807   18.8629 C   0  0  0  0  0  0  0  0  0  0  0  0
    6.4196    0.0654   17.7928 N   0  0  0  0  0  0  0  0  0  0  0  0
    5.3107    0.7220   18.0410 C   0  0  0  0  0  0  0  0  0  0  0  0
    4.8683    1.0970   19.3435 C   0  0  0  0  0  0  0  0  0  0  0  0
    3.6641    1.8171   19.5499 C   0  0  0  0  0  0  0  0  0  0  0  0
    3.2577    2.1578   20.8081 C   0  0  0  0  0  0  0  0  0  0  0  0
    4.0352    1.8009   21.9299 C   0  0  0  0  0  0  0  0  0  0  0  0
    5.2128    1.1087   21.7587 C   0  0  0  0  0  0  0  0  0  0  0  0
    5.6559    0.7307   20.4590 C   0  0  0  0  0  0  0  0  0  0  0  0
    7.6663   -1.6346   21.9363 C   0  0  0  0  0  0  0  0  0  0  0  0
    9.0565   -1.6846   22.5915 C   0  0  2  0  0  0  0  0  0  0  0  0
    9.1594   -2.6222   23.7888 C   0  0  0  0  0  0  0  0  0  0  0  0
   10.9067    0.1183   22.8679 C   0  0  0  0  0  0  0  0  0  0  0  0
   11.7833   -0.5339   21.9898 C   0  0  0  0  0  0  0  0  0  0  0  0
   13.1298   -0.2201   21.9994 C   0  0  0  0  0  0  0  0  0  0  0  0
   14.1880   -1.0180   20.8625 Cl  0  0  0  0  0  0  0  0  0  0  0  0
   13.6520    0.7459   22.8603 C   0  0  0  0  0  0  0  0  0  0  0  0
   12.7886    1.4033   23.7193 C   0  0  0  0  0  0  0  0  0  0  0  0
   11.4222    1.1251   23.6992 C   0  0  0  0  0  0  0  0  0  0  0  0
   10.5136    2.0443   24.4701 C   0  0  0  0  0  0  0  0  0  0  0  0
   10.9374    2.9315   25.1946 O   0  0  0  0  0  0  0  0  0  0  0  0
    6.0039    4.9461   21.9267 C   0  0  1  0  0  0  0  0  0  0  0  0
    4.6764    5.6108   22.2905 C   0  0  0  0  0  0  0  0  0  0  0  0
    6.7411    5.8655   20.9517 C   0  0  0  0  0  0  0  0  0  0  0  0
    7.2373    7.0225   21.5803 O   0  0  0  0  0  0  0  0  0  0  0  0
  2  1  1  1
  2  3  1  0
  3  4  1  0
  4  5  1  6
  5  6  1  0
  6  7  1  0
  7  8  1  0
  9  8  1  1
  9 10  1  0
 10 11  2  0
 10 12  1  0
 12 13  1  0
 13 14  2  0
 14 15  1  0
 15 16  2  0
 16 17  1  0
 17 18  2  0
 18 19  1  0
 19 20  2  0
 20 21  1  0
 21 22  2  0
 12 23  1  0
 23 24  1  0
 24 25  1  1
  9 26  1  0
 26 27  2  0
 27 28  1  0
 28 29  1  0
 28 30  2  0
 30 31  1  0
 31 32  2  0
 32 33  1  0
 33 34  2  0
  4 35  1  0
 35 36  1  1
 35 37  1  0
 37 38  1  0
 38  2  1  0
 33  7  1  0
 24  9  1  0
 32 26  1  0
 22 13  1  0
 22 17  1  0
M  CHG  1   4   1
M  END
>  <template_ligand>  (34) 
mol-246

>  <template_receptor>  (34) 
receptors/receptor-246.pdb

>  <SMILES>  (34) 
CC1C[NH+](CCN2CC3(C(=O)N(c4cncc5ccccc45)CC3C)c3cc(Cl)ccc3C2=O)C(C)CO1

>  <LABEL>  (34) 
MERS-CoV Mpro

$$$$
ligand_17
     RDKit          3D

 34 39  0  0  0  0  0  0  0  0999 V2000
   -8.4801   -3.9142  -23.7109 C   0  0  0  0  0  0  0  0  0  0  0  0
   -8.5920   -2.8992  -22.5816 C   0  0  1  0  0  0  0  0  0  0  0  0
   -7.2702   -2.5941  -21.8671 C   0  0  0  0  0  0  0  0  0  0  0  0
   -7.5252   -1.3064  -21.2477 N   0  0  0  0  0  0  0  0  0  0  0  0
   -6.7250   -0.7388  -20.2211 C   0  0  0  0  0  0  0  0  0  0  0  0
   -7.0128   -1.0008  -18.9043 C   0  0  0  0  0  0  0  0  0  0  0  0
   -6.3231   -0.4995  -17.8496 N   0  0  0  0  0  0  0  0  0  0  0  0
   -5.3033    0.2885  -18.1099 C   0  0  0  0  0  0  0  0  0  0  0  0
   -4.8757    0.6251  -19.4283 C   0  0  0  0  0  0  0  0  0  0  0  0
   -3.7712    1.4896  -19.6761 C   0  0  0  0  0  0  0  0  0  0  0  0
   -3.3959    1.7829  -20.9602 C   0  0  0  0  0  0  0  0  0  0  0  0
   -4.0902    1.2204  -22.0525 C   0  0  0  0  0  0  0  0  0  0  0  0
   -5.1671    0.3925  -21.8421 C   0  0  0  0  0  0  0  0  0  0  0  0
   -5.5934    0.0849  -20.5213 C   0  0  0  0  0  0  0  0  0  0  0  0
   -8.5823   -0.6226  -21.8190 C   0  0  0  0  0  0  0  0  0  0  0  0
   -8.9692    0.4635  -21.4592 O   0  0  0  0  0  0  0  0  0  0  0  0
   -9.1436   -1.5008  -22.9715 C   0  0  1  0  0  0  0  0  0  0  0  0
   -8.5534   -1.0088  -24.3205 C   0  0  0  0  0  0  0  0  0  0  0  0
   -8.9989    0.3304  -24.6476 N   0  0  0  0  0  0  0  0  0  0  0  0
   -8.1359    1.1792  -25.4390 C   0  0  0  0  0  0  0  0  0  0  0  0
   -7.6040    2.3533  -24.6836 C   0  0  0  0  0  0  0  0  0  0  0  0
   -7.3495    3.6255  -25.2252 C   0  0  0  0  0  0  0  0  0  0  0  0
   -6.8142    4.3551  -24.1944 C   0  0  0  0  0  0  0  0  0  0  0  0
   -6.7816    3.5120  -23.1392 N   0  0  0  0  0  0  0  0  0  0  0  0
   -7.2453    2.2826  -23.4018 N   0  0  0  0  0  0  0  0  0  0  0  0
  -10.2859    0.7438  -24.4399 C   0  0  0  0  0  0  0  0  0  0  0  0
  -10.6915    1.8318  -24.8279 O   0  0  0  0  0  0  0  0  0  0  0  0
  -11.1798   -0.2365  -23.7289 C   0  0  0  0  0  0  0  0  0  0  0  0
  -12.5579    0.0014  -23.7214 C   0  0  0  0  0  0  0  0  0  0  0  0
  -13.4202   -0.8609  -23.0729 C   0  0  0  0  0  0  0  0  0  0  0  0
  -12.8784   -1.9743  -22.4432 C   0  0  0  0  0  0  0  0  0  0  0  0
  -13.6986   -2.8208  -21.7994 F   0  0  0  0  0  0  0  0  0  0  0  0
  -11.5247   -2.2428  -22.4330 C   0  0  0  0  0  0  0  0  0  0  0  0
  -10.6482   -1.3604  -23.0724 C   0  0  0  0  0  0  0  0  0  0  0  0
  2  1  1  6
  2  3  1  0
  3  4  1  0
  4  5  1  0
  5  6  2  0
  6  7  1  0
  7  8  2  0
  8  9  1  0
  9 10  2  0
 10 11  1  0
 11 12  2  0
 12 13  1  0
 13 14  2  0
  4 15  1  0
 15 16  2  0
 15 17  1  0
 17 18  1  6
 18 19  1  0
 19 20  1  0
 20 21  1  0
 21 22  1  0
 22 23  2  0
 23 24  1  0
 24 25  1  0
 19 26  1  0
 26 27  2  0
 26 28  1  0
 28 29  2  0
 29 30  1  0
 30 31  2  0
 31 32  1  0
 31 33  1  0
 33 34  2  0
 17  2  1  0
 25 21  2  0
 34 28  1  0
 14  5  1  0
 34 17  1  0
 14  9  1  0
M  END
>  <template_ligand>  (35) 
mol-218

>  <template_receptor>  (35) 
receptors/receptor-218.pdb

>  <SMILES>  (35) 
CC1CN(c2cncc3ccccc23)C(=O)C12CN(Cc1cc[nH]n1)C(=O)c1ccc(F)cc12

>  <LABEL>  (35) 
SARS-CoV-2 Mpro

$$$$
ligand_15
     RDKit          3D

 25 28  0  0  0  0  0  0  0  0999 V2000
   10.5947    1.7705   23.1770 C   0  0  0  0  0  0  0  0  0  0  0  0
   10.5209    0.4177   23.8800 C   0  0  1  0  0  0  0  0  0  0  0  0
    9.4032    0.3802   24.9281 C   0  0  0  0  0  0  0  0  0  0  0  0
    8.1302   -0.0014   24.1324 C   0  0  2  0  0  0  0  0  0  0  0  0
    7.2163   -0.9295   24.9010 C   0  0  0  0  0  0  0  0  0  0  0  0
    5.9957   -0.4797   25.3953 C   0  0  0  0  0  0  0  0  0  0  0  0
    5.1535   -1.3415   26.0875 C   0  0  0  0  0  0  0  0  0  0  0  0
    5.5290   -2.6622   26.3020 C   0  0  0  0  0  0  0  0  0  0  0  0
    6.7575   -3.1156   25.8307 C   0  0  0  0  0  0  0  0  0  0  0  0
    7.5967   -2.2516   25.1404 C   0  0  0  0  0  0  0  0  0  0  0  0
    8.5969   -0.6536   22.8761 N   0  0  0  0  0  0  0  0  0  0  0  0
    7.9735   -0.2325   21.6495 C   0  0  0  0  0  0  0  0  0  0  0  0
    8.2786    0.8087   21.1108 O   0  0  0  0  0  0  0  0  0  0  0  0
    6.9173   -1.1809   21.0512 C   0  0  0  0  0  0  0  0  0  0  0  0
    6.1939   -0.5156   19.9157 C   0  0  0  0  0  0  0  0  0  0  0  0
    6.6732   -0.6293   18.6404 C   0  0  0  0  0  0  0  0  0  0  0  0
    6.1537   -0.0149   17.5491 N   0  0  0  0  0  0  0  0  0  0  0  0
    5.1147    0.7576   17.7293 C   0  0  0  0  0  0  0  0  0  0  0  0
    4.5231    0.9991   18.9973 C   0  0  0  0  0  0  0  0  0  0  0  0
    3.4127    1.8683   19.1554 C   0  0  0  0  0  0  0  0  0  0  0  0
    2.8820    2.0974   20.3957 C   0  0  0  0  0  0  0  0  0  0  0  0
    3.4415    1.4637   21.5312 C   0  0  0  0  0  0  0  0  0  0  0  0
    4.5133    0.6156   21.4027 C   0  0  0  0  0  0  0  0  0  0  0  0
    5.0849    0.3525   20.1303 C   0  0  0  0  0  0  0  0  0  0  0  0
   10.0677   -0.6893   22.9240 C   0  0  0  0  0  0  0  0  0  0  0  0
  2  1  1  6
  2  3  1  0
  3  4  1  0
  4  5  1  1
  5  6  2  0
  6  7  1  0
  7  8  2  0
  8  9  1  0
  9 10  2  0
  4 11  1  0
 11 12  1  0
 12 13  2  0
 12 14  1  0
 14 15  1  0
 15 16  2  0
 16 17  1  0
 17 18  2  0
 18 19  1  0
 19 20  2  0
 20 21  1  0
 21 22  2  0
 22 23  1  0
 23 24  2  0
 11 25  1  0
 25  2  1  0
 10  5  1  0
 24 15  1  0
 24 19  1  0
M  END
>  <template_ligand>  (36) 
mol-160

>  <template_receptor>  (36) 
receptors/receptor-160.pdb

>  <SMILES>  (36) 
CC1CC(c2ccccc2)N(C(=O)Cc2cncc3ccccc23)C1

>  <LABEL>  (36) 
MERS-CoV Mpro

$$$$
ligand_18
     RDKit          3D

 26 29  0  0  0  0  0  0  0  0999 V2000
   -8.4263   -0.2145  -21.2686 O   0  0  0  0  0  0  0  0  0  0  0  0
   -7.9594   -1.3049  -21.5253 C   0  0  0  0  0  0  0  0  0  0  0  0
   -8.7245   -2.4204  -22.2403 C   0  0  1  0  0  0  0  0  0  0  0  0
  -10.0711   -1.9527  -22.7574 C   0  0  0  0  0  0  0  0  0  0  0  0
  -10.1955   -0.9463  -23.7165 C   0  0  0  0  0  0  0  0  0  0  0  0
  -11.4512   -0.4986  -24.1160 C   0  0  0  0  0  0  0  0  0  0  0  0
  -12.6094   -1.0621  -23.5831 C   0  0  0  0  0  0  0  0  0  0  0  0
  -14.1579   -0.4347  -24.0525 Cl  0  0  0  0  0  0  0  0  0  0  0  0
  -12.4979   -2.1177  -22.6734 C   0  0  0  0  0  0  0  0  0  0  0  0
  -13.9013   -2.9134  -22.0342 Cl  0  0  0  0  0  0  0  0  0  0  0  0
  -11.2358   -2.5429  -22.2604 C   0  0  0  0  0  0  0  0  0  0  0  0
   -7.8149   -3.0804  -23.2769 C   0  0  0  0  0  0  0  0  0  0  0  0
   -6.6082   -3.6979  -22.5823 C   0  0  2  0  0  0  0  0  0  0  0  0
   -6.9912   -4.7623  -21.7282 O   0  0  0  0  0  0  0  0  0  0  0  0
   -5.8516   -2.6635  -21.7575 C   0  0  0  0  0  0  0  0  0  0  0  0
   -6.6902   -1.6673  -21.0948 N   0  0  0  0  0  0  0  0  0  0  0  0
   -6.1077   -0.8967  -20.0442 C   0  0  0  0  0  0  0  0  0  0  0  0
   -6.5409   -1.0826  -18.7523 C   0  0  0  0  0  0  0  0  0  0  0  0
   -6.0382   -0.4521  -17.6617 N   0  0  0  0  0  0  0  0  0  0  0  0
   -5.0645    0.4095  -17.8576 C   0  0  0  0  0  0  0  0  0  0  0  0
   -4.5106    0.7042  -19.1396 C   0  0  0  0  0  0  0  0  0  0  0  0
   -3.4551    1.6496  -19.3009 C   0  0  0  0  0  0  0  0  0  0  0  0
   -2.9657    1.9309  -20.5499 C   0  0  0  0  0  0  0  0  0  0  0  0
   -3.5164    1.2952  -21.6857 C   0  0  0  0  0  0  0  0  0  0  0  0
   -4.5425    0.3889  -21.5587 C   0  0  0  0  0  0  0  0  0  0  0  0
   -5.0498    0.0468  -20.2714 C   0  0  0  0  0  0  0  0  0  0  0  0
  1  2  2  0
  2  3  1  0
  3  4  1  6
  4  5  2  0
  5  6  1  0
  6  7  2  0
  7  8  1  0
  7  9  1  0
  9 10  1  0
  9 11  2  0
  3 12  1  0
 12 13  1  0
 13 14  1  1
 13 15  1  0
 15 16  1  0
 16 17  1  0
 17 18  2  0
 18 19  1  0
 19 20  2  0
 20 21  1  0
 21 22  2  0
 22 23  1  0
 23 24  2  0
 24 25  1  0
 25 26  2  0
 16  2  1  0
 26 17  1  0
 11  4  1  0
 26 21  1  0
M  END
>  <template_ligand>  (37) 
mol-690

>  <template_receptor>  (37) 
receptors/receptor-690.pdb

>  <SMILES>  (37) 
O=C1C(c2ccc(Cl)c(Cl)c2)CC(O)CN1c1cncc2ccccc12

>  <LABEL>  (37) 
SARS-CoV-2 Mpro

$$$$
ligand_16
     RDKit          3D

 35 40  0  0  0  0  0  0  0  0999 V2000
    8.3732   -2.9130   23.5810 C   0  0  0  0  0  0  0  0  0  0  0  0
    8.4156   -1.9090   22.4363 C   0  0  1  0  0  0  0  0  0  0  0  0
    7.0810   -1.7306   21.6997 C   0  0  0  0  0  0  0  0  0  0  0  0
    7.2455   -0.4393   21.0559 N   0  0  0  0  0  0  0  0  0  0  0  0
    6.4112    0.0508   20.0126 C   0  0  0  0  0  0  0  0  0  0  0  0
    6.7343   -0.2094   18.7058 C   0  0  0  0  0  0  0  0  0  0  0  0
    6.0158    0.2130   17.6342 N   0  0  0  0  0  0  0  0  0  0  0  0
    4.9357    0.9196   17.8736 C   0  0  0  0  0  0  0  0  0  0  0  0
    4.4659    1.2463   19.1788 C   0  0  0  0  0  0  0  0  0  0  0  0
    3.2907    2.0202   19.4017 C   0  0  0  0  0  0  0  0  0  0  0  0
    2.8751    2.3042   20.6727 C   0  0  0  0  0  0  0  0  0  0  0  0
    3.5986    1.8237   21.7865 C   0  0  0  0  0  0  0  0  0  0  0  0
    4.7325    1.0707   21.5970 C   0  0  0  0  0  0  0  0  0  0  0  0
    5.2133    0.7823   20.2911 C   0  0  0  0  0  0  0  0  0  0  0  0
    8.2352    0.3311   21.6250 C   0  0  0  0  0  0  0  0  0  0  0  0
    8.5331    1.4476   21.2520 O   0  0  0  0  0  0  0  0  0  0  0  0
    8.8470   -0.4644   22.8030 C   0  0  1  0  0  0  0  0  0  0  0  0
    8.2040    0.0215   24.1286 C   0  0  0  0  0  0  0  0  0  0  0  0
    8.5124    1.4261   24.3741 N   0  0  0  0  0  0  0  0  0  0  0  0
    7.6011    2.1628   25.2512 C   0  0  0  0  0  0  0  0  0  0  0  0
    7.5757    3.6452   25.0262 C   0  0  0  0  0  0  0  0  0  0  0  0
    7.8854    4.5207   25.9414 N   0  0  0  0  0  0  0  0  0  0  0  0
    7.7598    5.7668   25.3848 N   0  0  0  0  0  0  0  0  0  0  0  0
    7.3292    5.5969   24.1629 C   0  0  0  0  0  0  0  0  0  0  0  0
    7.1825    4.2736   23.8777 N   0  0  0  0  0  0  0  0  0  0  0  0
    6.6285    3.7128   22.6624 C   0  0  0  0  0  0  0  0  0  0  0  0
    9.8013    1.8832   24.2267 C   0  0  0  0  0  0  0  0  0  0  0  0
   10.1715    2.9807   24.6105 O   0  0  0  0  0  0  0  0  0  0  0  0
   10.7696    0.9585   23.5524 C   0  0  0  0  0  0  0  0  0  0  0  0
   12.1215    1.3145   23.5596 C   0  0  0  0  0  0  0  0  0  0  0  0
   13.0633    0.5181   22.9382 C   0  0  0  0  0  0  0  0  0  0  0  0
   12.6166   -0.6480   22.3216 C   0  0  0  0  0  0  0  0  0  0  0  0
   13.5141   -1.4342   21.7027 F   0  0  0  0  0  0  0  0  0  0  0  0
   11.2897   -1.0256   22.3004 C   0  0  0  0  0  0  0  0  0  0  0  0
   10.3338   -0.2090   22.9114 C   0  0  0  0  0  0  0  0  0  0  0  0
  2  1  1  1
  2  3  1  0
  3  4  1  0
  4  5  1  0
  5  6  2  0
  6  7  1  0
  7  8  2  0
  8  9  1  0
  9 10  2  0
 10 11  1  0
 11 12  2  0
 12 13  1  0
 13 14  2  0
  4 15  1  0
 15 16  2  0
 15 17  1  0
 17 18  1  1
 18 19  1  0
 19 20  1  0
 20 21  1  0
 21 22  2  0
 22 23  1  0
 23 24  2  0
 24 25  1  0
 25 26  1  0
 19 27  1  0
 27 28  2  0
 27 29  1  0
 29 30  2  0
 30 31  1  0
 31 32  2  0
 32 33  1  0
 32 34  1  0
 34 35  2  0
 17  2  1  0
 25 21  1  0
 35 29  1  0
 14  5  1  0
 35 17  1  0
 14  9  1  0
M  END
>  <template_ligand>  (38) 
mol-218

>  <template_receptor>  (38) 
receptors/receptor-218.pdb

>  <SMILES>  (38) 
CC1CN(c2cncc3ccccc23)C(=O)C12CN(Cc1nncn1C)C(=O)c1ccc(F)cc12

>  <LABEL>  (38) 
MERS-CoV Mpro

$$$$
ligand_19
     RDKit          3D

 39 44  0  0  0  0  0  0  0  0999 V2000
   -7.0482    3.5969  -22.7358 C   0  0  0  0  0  0  0  0  0  0  0  0
   -7.7855    2.6142  -23.4975 N   0  0  0  0  0  0  0  0  0  0  0  0
   -7.4499    2.3562  -24.7789 C   0  0  0  0  0  0  0  0  0  0  0  0
   -6.6056    2.9906  -25.3960 O   0  0  0  0  0  0  0  0  0  0  0  0
   -8.1502    1.1783  -25.4653 C   0  0  0  0  0  0  0  0  0  0  0  0
   -8.9990    0.3443  -24.6400 N   0  0  0  0  0  0  0  0  0  0  0  0
   -8.5580   -1.0032  -24.3223 C   0  0  0  0  0  0  0  0  0  0  0  0
   -9.1440   -1.4972  -22.9759 C   0  0  2  0  0  0  0  0  0  0  0  0
   -8.5834   -0.6282  -21.8222 C   0  0  0  0  0  0  0  0  0  0  0  0
   -8.9593    0.4749  -21.4734 O   0  0  0  0  0  0  0  0  0  0  0  0
   -7.5422   -1.3155  -21.2390 N   0  0  0  0  0  0  0  0  0  0  0  0
   -6.7345   -0.7337  -20.2230 C   0  0  0  0  0  0  0  0  0  0  0  0
   -7.0162   -0.9972  -18.9071 C   0  0  0  0  0  0  0  0  0  0  0  0
   -6.3229   -0.5011  -17.8513 N   0  0  0  0  0  0  0  0  0  0  0  0
   -5.3052    0.2871  -18.1129 C   0  0  0  0  0  0  0  0  0  0  0  0
   -4.8778    0.6264  -19.4306 C   0  0  0  0  0  0  0  0  0  0  0  0
   -3.7703    1.4878  -19.6753 C   0  0  0  0  0  0  0  0  0  0  0  0
   -3.3923    1.7807  -20.9590 C   0  0  0  0  0  0  0  0  0  0  0  0
   -4.0912    1.2271  -22.0580 C   0  0  0  0  0  0  0  0  0  0  0  0
   -5.1727    0.4074  -21.8467 C   0  0  0  0  0  0  0  0  0  0  0  0
   -5.6031    0.0922  -20.5268 C   0  0  0  0  0  0  0  0  0  0  0  0
   -7.2684   -2.5964  -21.8700 C   0  0  0  0  0  0  0  0  0  0  0  0
   -8.6007   -2.9010  -22.5754 C   0  0  2  0  0  0  0  0  0  0  0  0
   -8.6093   -4.0060  -23.6653 C   0  0  0  0  0  0  0  0  0  0  0  0
   -7.3021   -4.2833  -24.3740 C   0  0  0  0  0  0  0  0  0  0  0  0
   -6.3060   -5.0142  -23.7197 C   0  0  0  0  0  0  0  0  0  0  0  0
   -5.0773   -5.2590  -24.3198 C   0  0  0  0  0  0  0  0  0  0  0  0
   -4.8185   -4.7806  -25.5989 C   0  0  0  0  0  0  0  0  0  0  0  0
   -5.8054   -4.0674  -26.2710 C   0  0  0  0  0  0  0  0  0  0  0  0
   -7.0354   -3.8253  -25.6640 C   0  0  0  0  0  0  0  0  0  0  0  0
  -10.6485   -1.3576  -23.0713 C   0  0  0  0  0  0  0  0  0  0  0  0
  -11.5288   -2.2389  -22.4319 C   0  0  0  0  0  0  0  0  0  0  0  0
  -12.8882   -1.9796  -22.4283 C   0  0  0  0  0  0  0  0  0  0  0  0
  -13.9474   -3.0631  -21.5689 Cl  0  0  0  0  0  0  0  0  0  0  0  0
  -13.4225   -0.8604  -23.0707 C   0  0  0  0  0  0  0  0  0  0  0  0
  -12.5584    0.0016  -23.7236 C   0  0  0  0  0  0  0  0  0  0  0  0
  -11.1830   -0.2387  -23.7326 C   0  0  0  0  0  0  0  0  0  0  0  0
  -10.2964    0.7370  -24.4546 C   0  0  0  0  0  0  0  0  0  0  0  0
  -10.6907    1.8306  -24.8380 O   0  0  0  0  0  0  0  0  0  0  0  0
  1  2  1  0
  2  3  1  0
  3  4  2  0
  3  5  1  0
  5  6  1  0
  6  7  1  0
  8  7  1  6
  8  9  1  0
  9 10  2  0
  9 11  1  0
 11 12  1  0
 12 13  2  0
 13 14  1  0
 14 15  2  0
 15 16  1  0
 16 17  2  0
 17 18  1  0
 18 19  2  0
 19 20  1  0
 20 21  2  0
 11 22  1  0
 22 23  1  0
 23 24  1  6
 24 25  1  0
 25 26  2  0
 26 27  1  0
 27 28  2  0
 28 29  1  0
 29 30  2  0
  8 31  1  0
 31 32  2  0
 32 33  1  0
 33 34  1  0
 33 35  2  0
 35 36  1  0
 36 37  2  0
 37 38  1  0
 38 39  2  0
 38  6  1  0
 23  8  1  0
 30 25  1  0
 37 31  1  0
 21 12  1  0
 21 16  1  0
M  END
>  <template_ligand>  (39) 
mol-218

>  <template_receptor>  (39) 
receptors/receptor-218.pdb

>  <SMILES>  (39) 
CNC(=O)CN1CC2(C(=O)N(c3cncc4ccccc34)CC2Cc2ccccc2)c2cc(Cl)ccc2C1=O

>  <LABEL>  (39) 
SARS-CoV-2 Mpro

$$$$
ligand_17
     RDKit          3D

 24 27  0  0  0  0  0  0  0  0999 V2000
    2.4007    2.9327   22.5296 C   0  0  0  0  0  0  0  0  0  0  0  0
    3.2652    2.0962   21.5967 C   0  0  1  0  0  0  0  0  0  0  0  0
    2.6287    1.9314   20.2217 C   0  0  0  0  0  0  0  0  0  0  0  0
    3.3348    0.8068   19.4681 C   0  0  0  0  0  0  0  0  0  0  0  0
    4.8696    0.8088   19.5931 C   0  0  2  0  0  0  0  0  0  0  0  0
    5.4999    0.4079   18.2414 C   0  0  0  0  0  0  0  0  0  0  0  0
    6.8430   -0.2625   18.5467 C   0  0  0  0  0  0  0  0  0  0  0  0
    6.7526   -0.6067   19.9719 N   0  0  0  0  0  0  0  0  0  0  0  0
    7.9601   -0.5383   20.6553 C   0  0  0  0  0  0  0  0  0  0  0  0
    8.9055   -1.1702   20.2348 O   0  0  0  0  0  0  0  0  0  0  0  0
    8.1223    0.5580   21.7146 C   0  0  0  0  0  0  0  0  0  0  0  0
    8.6341    0.2695   23.0964 C   0  0  0  0  0  0  0  0  0  0  0  0
    7.8253    0.5443   24.1616 C   0  0  0  0  0  0  0  0  0  0  0  0
    8.2134    0.5707   25.4601 N   0  0  0  0  0  0  0  0  0  0  0  0
    9.4893    0.3782   25.6912 C   0  0  0  0  0  0  0  0  0  0  0  0
   10.4557    0.1268   24.6772 C   0  0  0  0  0  0  0  0  0  0  0  0
   11.8471    0.0645   24.9416 C   0  0  0  0  0  0  0  0  0  0  0  0
   12.7469   -0.1860   23.9389 C   0  0  0  0  0  0  0  0  0  0  0  0
   12.2772   -0.4481   22.6353 C   0  0  0  0  0  0  0  0  0  0  0  0
   10.9412   -0.3890   22.3412 C   0  0  0  0  0  0  0  0  0  0  0  0
   10.0019   -0.0260   23.3440 C   0  0  0  0  0  0  0  0  0  0  0  0
    5.4384   -0.3061   20.5044 C   0  0  0  0  0  0  0  0  0  0  0  0
    5.3637    2.1754   20.1050 C   0  0  0  0  0  0  0  0  0  0  0  0
    4.6655    2.6957   21.3875 C   0  0  0  0  0  0  0  0  0  0  0  0
  2  1  1  1
  2  3  1  0
  3  4  1  0
  5  4  1  6
  5  6  1  0
  6  7  1  0
  7  8  1  0
  8  9  1  0
  9 10  2  0
  9 11  1  0
 11 12  1  0
 12 13  2  0
 13 14  1  0
 14 15  2  0
 15 16  1  0
 16 17  2  0
 17 18  1  0
 18 19  2  0
 19 20  1  0
 20 21  2  0
  8 22  1  0
  5 23  1  0
 23 24  1  0
 24  2  1  0
 22  5  1  0
 21 12  1  0
 21 16  1  0
M  END
>  <template_ligand>  (40) 
mol-351

>  <template_receptor>  (40) 
receptors/receptor-351.pdb

>  <SMILES>  (40) 
CC1CCC2(CC1)CCN(C(=O)Cc1cncc3ccccc13)C2

>  <LABEL>  (40) 
MERS-CoV Mpro

$$$$
ligand_18
     RDKit          3D

 39 43  0  0  0  0  0  0  0  0999 V2000
    5.5595    3.2439   25.5508 O   0  0  0  0  0  0  0  0  0  0  0  0
    6.0953    2.4325   24.8260 C   0  0  0  0  0  0  0  0  0  0  0  0
    6.9242    1.2526   25.3767 C   0  0  0  0  0  0  0  0  0  0  0  0
    7.9268    0.7753   24.3710 N   0  0  1  0  0  0  0  0  0  0  0  0
    9.3446    1.1865   24.6708 C   0  0  0  0  0  0  0  0  0  0  0  0
   10.3756    0.5058   23.8020 C   0  0  0  0  0  0  0  0  0  0  0  0
   11.6933    0.9632   23.8466 C   0  0  0  0  0  0  0  0  0  0  0  0
   12.7004    0.3291   23.1309 C   0  0  0  0  0  0  0  0  0  0  0  0
   12.3731   -0.7798   22.3538 C   0  0  0  0  0  0  0  0  0  0  0  0
   13.6223   -1.6356   21.4899 Cl  0  0  0  0  0  0  0  0  0  0  0  0
   11.0581   -1.2121   22.2558 C   0  0  0  0  0  0  0  0  0  0  0  0
   10.0495   -0.5576   22.9612 C   0  0  0  0  0  0  0  0  0  0  0  0
    8.6092   -0.9552   22.7463 C   0  0  2  0  0  0  0  0  0  0  0  0
    7.9851   -0.1909   21.5686 C   0  0  0  0  0  0  0  0  0  0  0  0
    8.2622    0.9637   21.2953 O   0  0  0  0  0  0  0  0  0  0  0  0
    6.9973   -0.8713   20.8893 N   0  0  0  0  0  0  0  0  0  0  0  0
    6.2348   -0.2604   19.8507 C   0  0  0  0  0  0  0  0  0  0  0  0
    6.6461   -0.3510   18.5469 C   0  0  0  0  0  0  0  0  0  0  0  0
    5.9980    0.2037   17.4934 N   0  0  0  0  0  0  0  0  0  0  0  0
    4.9074    0.8912   17.7418 C   0  0  0  0  0  0  0  0  0  0  0  0
    4.3531    1.0555   19.0460 C   0  0  0  0  0  0  0  0  0  0  0  0
    3.1727    1.8121   19.2882 C   0  0  0  0  0  0  0  0  0  0  0  0
    2.6541    1.9071   20.5546 C   0  0  0  0  0  0  0  0  0  0  0  0
    3.2743    1.2279   21.6265 C   0  0  0  0  0  0  0  0  0  0  0  0
    4.4067    0.4763   21.4069 C   0  0  0  0  0  0  0  0  0  0  0  0
    5.0076    0.4193   20.1243 C   0  0  0  0  0  0  0  0  0  0  0  0
    7.7912   -0.6759   24.0082 C   0  0  0  0  0  0  0  0  0  0  0  0
    6.0969    2.4894   23.4502 N   0  0  0  0  0  0  0  0  0  0  0  0
    6.3542    3.6894   22.6733 C   0  0  0  0  0  0  0  0  0  0  0  0
    7.6558    4.4124   23.0924 C   0  0  0  0  0  0  0  0  0  0  0  0
    7.5174    5.2486   24.3478 C   0  0  0  0  0  0  0  0  0  0  0  0
    8.1856    4.9580   25.5420 C   0  0  0  0  0  0  0  0  0  0  0  0
    7.9958    5.7598   26.6656 C   0  0  0  0  0  0  0  0  0  0  0  0
    7.1509    6.8643   26.6201 C   0  0  0  0  0  0  0  0  0  0  0  0
    6.9689    7.7396   27.8211 C   0  0  0  0  0  0  0  0  0  0  0  0
    5.6464    7.8286   28.1500 F   0  0  0  0  0  0  0  0  0  0  0  0
    7.3879    9.0102   27.5452 F   0  0  0  0  0  0  0  0  0  0  0  0
    6.4853    7.1599   25.4338 C   0  0  0  0  0  0  0  0  0  0  0  0
    6.6646    6.3526   24.3194 C   0  0  0  0  0  0  0  0  0  0  0  0
  1  2  2  0
  2  3  1  0
  4  3  1  1
  4  5  1  0
  5  6  1  0
  6  7  2  0
  7  8  1  0
  8  9  2  0
  9 10  1  0
  9 11  1  0
 11 12  2  0
 12 13  1  0
 13 14  1  6
 14 15  2  0
 14 16  1  0
 16 17  1  0
 17 18  2  0
 18 19  1  0
 19 20  2  0
 20 21  1  0
 21 22  2  0
 22 23  1  0
 23 24  2  0
 24 25  1  0
 25 26  2  0
 13 27  1  0
  2 28  1  0
 28 29  1  0
 29 30  1  0
 30 31  1  0
 31 32  2  0
 32 33  1  0
 33 34  2  0
 34 35  1  0
 35 36  1  0
 35 37  1  0
 34 38  1  0
 38 39  2  0
 27  4  1  0
 39 31  1  0
 12  6  1  0
 26 17  1  0
 26 21  1  0
M  CHG  1   4   1
M  END
>  <template_ligand>  (41) 
mol-209

>  <template_receptor>  (41) 
receptors/receptor-209.pdb

>  <SMILES>  (41) 
O=C(C[NH+]1Cc2ccc(Cl)cc2C(C(=O)Nc2cncc3ccccc23)C1)NCCc1ccc(C(F)F)cc1

>  <LABEL>  (41) 
MERS-CoV Mpro

$$$$

     RDKit          3D

 37 41  0  0  0  0  0  0  0  0999 V2000
    6.8592   -1.5115   23.1420 N   0  0  0  0  0  0  0  0  0  0  0  0
    6.0367   -0.5703   22.4813 C   0  0  0  0  0  0  0  0  0  0  0  0
    4.7863   -0.6458   22.5518 O   0  0  0  0  0  0  0  0  0  0  0  0
   10.7606   -3.8321   25.5997 C   0  0  0  0  0  0  0  0  0  0  0  0
    9.7374   -4.4733   25.2926 O   0  0  0  0  0  0  0  0  0  0  0  0
   11.2257   -2.6372   24.9905 N   0  0  0  0  0  0  0  0  0  0  0  0
   12.4631   -1.9904   25.3627 C   0  0  0  0  0  0  0  0  0  0  0  0
   13.0664   -1.1765   24.2956 C   0  0  0  0  0  0  0  0  0  0  0  0
   12.6021   -1.4535   22.8974 C   0  0  0  0  0  0  0  0  0  0  0  0
   11.1031   -1.4443   22.8687 C   0  0  0  0  0  0  0  0  0  0  0  0
   10.3411   -0.8837   21.8915 C   0  0  0  0  0  0  0  0  0  0  0  0
    8.9490   -0.9211   21.9910 C   0  0  0  0  0  0  0  0  0  0  0  0
    8.2898   -1.5139   23.0594 C   0  0  0  0  0  0  0  0  0  0  0  0
    9.0739   -2.0806   24.0438 C   0  0  0  0  0  0  0  0  0  0  0  0
   10.4456   -2.0472   23.9528 C   0  0  0  0  0  0  0  0  0  0  0  0
   10.7551   -4.5461   27.9819 C   0  0  0  0  0  0  0  0  0  0  0  0
   11.5684   -4.3816   26.7200 C   0  0  0  0  0  0  0  0  0  0  0  0
    6.1951   -2.4633   23.9461 N   0  0  0  0  0  0  0  0  0  0  0  0
    5.8282   -1.9590   25.2788 C   0  0  0  0  0  0  0  0  0  0  0  0
    5.9011   -3.7745   23.5820 C   0  0  0  0  0  0  0  0  0  0  0  0
    5.8276   -4.2572   22.3040 C   0  0  0  0  0  0  0  0  0  0  0  0
    5.5576   -5.5962   22.0266 C   0  0  0  0  0  0  0  0  0  0  0  0
    5.3528   -6.4886   23.0555 C   0  0  0  0  0  0  0  0  0  0  0  0
    5.4198   -6.0285   24.3635 C   0  0  0  0  0  0  0  0  0  0  0  0
    5.1571   -7.1740   25.6586 Cl  0  0  0  0  0  0  0  0  0  0  0  0
    5.6886   -4.7005   24.6043 C   0  0  0  0  0  0  0  0  0  0  0  0
    6.6623    0.5174   21.7005 C   0  0  0  0  0  0  0  0  0  0  0  0
    6.1187    0.5709   20.3145 C   0  0  0  0  0  0  0  0  0  0  0  0
    6.6811   -0.1357   19.2534 C   0  0  0  0  0  0  0  0  0  0  0  0
    6.1491   -0.0435   18.0224 N   0  0  0  0  0  0  0  0  0  0  0  0
    5.0767    0.7079   17.7323 C   0  0  0  0  0  0  0  0  0  0  0  0
    4.5052    1.4177   18.7789 C   0  0  0  0  0  0  0  0  0  0  0  0
    3.4016    2.2008   18.5276 C   0  0  0  0  0  0  0  0  0  0  0  0
    2.8059    2.9169   19.5376 C   0  0  0  0  0  0  0  0  0  0  0  0
    3.3020    2.8672   20.8311 C   0  0  0  0  0  0  0  0  0  0  0  0
    4.4182    2.0672   21.0542 C   0  0  0  0  0  0  0  0  0  0  0  0
    5.0248    1.3459   20.0566 C   0  0  0  0  0  0  0  0  0  0  0  0
 16 17  1  0
 17  4  1  0
  4  5  2  0
  4  6  1  0
  6  7  1  0
  7  8  1  0
  8  9  1  0
  9 10  1  0
 10 11  2  0
 11 12  1  0
 12 13  2  0
 13  1  1  0
  1  2  1  0
  2  3  2  0
  2 27  1  0
 27 28  1  0
 28 29  2  0
 29 30  1  0
 30 31  2  0
 31 32  1  0
 32 33  2  0
 33 34  1  0
 34 35  2  0
 35 36  1  0
 36 37  2  0
  1 18  1  0
 18 19  1  0
 18 20  1  0
 20 21  2  0
 21 22  1  0
 22 23  2  0
 23 24  1  0
 24 25  1  0
 24 26  2  0
 13 14  1  0
 14 15  2  0
 15  6  1  0
 15 10  1  0
 37 28  1  0
 26 20  1  0
 37 32  1  0
M  END
>  <minimizedAffinity>  (42) 
-9.41409

>  <CNNscore>  (42) 
0.8059092760

>  <CNNaffinity>  (42) 
7.5810880661

>  <CNN_VS>  (42) 
6.1096692085

>  <CNNaffinity_variance>  (42) 
0.0664252117

>  <SMILES>  (42) 
CCC(=O)N1CCCc2ccc(N(C(=O)Cc3cncc4ccccc34)N(C)c3cccc(Cl)c3)cc21

>  <LABEL>  (42) 
MERS-CoV Mpro

$$$$
ligand_20
     RDKit          3D

 35 40  0  0  0  0  0  0  0  0999 V2000
    8.3729   -2.9125   23.5793 C   0  0  0  0  0  0  0  0  0  0  0  0
    8.4152   -1.9062   22.4364 C   0  0  1  0  0  0  0  0  0  0  0  0
    7.0807   -1.7284   21.6989 C   0  0  0  0  0  0  0  0  0  0  0  0
    7.2471   -0.4380   21.0561 N   0  0  0  0  0  0  0  0  0  0  0  0
    6.4140    0.0552   20.0160 C   0  0  0  0  0  0  0  0  0  0  0  0
    6.7345   -0.2083   18.7100 C   0  0  0  0  0  0  0  0  0  0  0  0
    6.0172    0.2120   17.6364 N   0  0  0  0  0  0  0  0  0  0  0  0
    4.9361    0.9191   17.8752 C   0  0  0  0  0  0  0  0  0  0  0  0
    4.4653    1.2460   19.1794 C   0  0  0  0  0  0  0  0  0  0  0  0
    3.2895    2.0192   19.3979 C   0  0  0  0  0  0  0  0  0  0  0  0
    2.8713    2.3010   20.6690 C   0  0  0  0  0  0  0  0  0  0  0  0
    3.5954    1.8151   21.7821 C   0  0  0  0  0  0  0  0  0  0  0  0
    4.7472    1.0906   21.6028 C   0  0  0  0  0  0  0  0  0  0  0  0
    5.2168    0.7916   20.2952 C   0  0  0  0  0  0  0  0  0  0  0  0
    8.2337    0.3365   21.6277 C   0  0  0  0  0  0  0  0  0  0  0  0
    8.5298    1.4506   21.2535 O   0  0  0  0  0  0  0  0  0  0  0  0
    8.8486   -0.4603   22.8059 C   0  0  1  0  0  0  0  0  0  0  0  0
    8.2116    0.0038   24.1426 C   0  0  0  0  0  0  0  0  0  0  0  0
    8.5604    1.3717   24.4735 N   0  0  0  0  0  0  0  0  0  0  0  0
    7.6007    2.1534   25.2326 C   0  0  0  0  0  0  0  0  0  0  0  0
    6.7059    3.0106   24.3835 C   0  0  0  0  0  0  0  0  0  0  0  0
    5.3692    3.3705   24.6294 C   0  0  0  0  0  0  0  0  0  0  0  0
    4.8909    4.1755   23.6827 N   0  0  0  0  0  0  0  0  0  0  0  0
    5.9139    4.3365   22.8343 N   0  0  0  0  0  0  0  0  0  0  0  0
    5.7502    5.0582   21.6007 C   0  0  0  0  0  0  0  0  0  0  0  0
    7.0167    3.6520   23.2102 C   0  0  0  0  0  0  0  0  0  0  0  0
    9.8053    1.8887   24.2509 C   0  0  0  0  0  0  0  0  0  0  0  0
   10.1100    3.0182   24.6059 O   0  0  0  0  0  0  0  0  0  0  0  0
   10.7725    0.9713   23.5541 C   0  0  0  0  0  0  0  0  0  0  0  0
   12.1243    1.3199   23.5588 C   0  0  0  0  0  0  0  0  0  0  0  0
   13.0644    0.5198   22.9389 C   0  0  0  0  0  0  0  0  0  0  0  0
   12.6165   -0.6462   22.3231 C   0  0  0  0  0  0  0  0  0  0  0  0
   13.5126   -1.4334   21.7036 F   0  0  0  0  0  0  0  0  0  0  0  0
   11.2883   -1.0215   22.3023 C   0  0  0  0  0  0  0  0  0  0  0  0
   10.3346   -0.2013   22.9148 C   0  0  0  0  0  0  0  0  0  0  0  0
  2  1  1  1
  2  3  1  0
  3  4  1  0
  4  5  1  0
  5  6  2  0
  6  7  1  0
  7  8  2  0
  8  9  1  0
  9 10  2  0
 10 11  1  0
 11 12  2  0
 12 13  1  0
 13 14  2  0
  4 15  1  0
 15 16  2  0
 15 17  1  0
 17 18  1  1
 18 19  1  0
 19 20  1  0
 20 21  1  0
 21 22  1  0
 22 23  2  0
 23 24  1  0
 24 25  1  0
 24 26  1  0
 19 27  1  0
 27 28  2  0
 27 29  1  0
 29 30  2  0
 30 31  1  0
 31 32  2  0
 32 33  1  0
 32 34  1  0
 34 35  2  0
 17  2  1  0
 26 21  2  0
 35 29  1  0
 14  5  1  0
 35 17  1  0
 14  9  1  0
M  END
>  <template_ligand>  (43) 
mol-218

>  <template_receptor>  (43) 
receptors/receptor-218.pdb

>  <SMILES>  (43) 
CC1CN(c2cncc3ccccc23)C(=O)C12CN(Cc1cnn(C)c1)C(=O)c1ccc(F)cc12

>  <LABEL>  (43) 
MERS-CoV Mpro

$$$$

     RDKit          3D

 24 27  0  0  0  0  0  0  0  0999 V2000
    5.3542   -1.8938   22.1519 O   0  0  0  0  0  0  0  0  0  0  0  0
    6.5089   -1.5108   22.0450 C   0  0  0  0  0  0  0  0  0  0  0  0
    6.8944   -0.3808   21.0808 C   0  0  0  0  0  0  0  0  0  0  0  0
    5.8806   -0.1827   19.9819 C   0  0  0  0  0  0  0  0  0  0  0  0
    6.0507   -0.8050   18.7712 C   0  0  0  0  0  0  0  0  0  0  0  0
    5.2447   -0.6591   17.6883 N   0  0  0  0  0  0  0  0  0  0  0  0
    4.1844    0.0984   17.8359 C   0  0  0  0  0  0  0  0  0  0  0  0
    3.8315    0.7483   19.0490 C   0  0  0  0  0  0  0  0  0  0  0  0
    2.6521    1.5289   19.1677 C   0  0  0  0  0  0  0  0  0  0  0  0
    2.3328    2.1302   20.3528 C   0  0  0  0  0  0  0  0  0  0  0  0
    3.1984    2.0033   21.4616 C   0  0  0  0  0  0  0  0  0  0  0  0
    4.3531    1.2647   21.3671 C   0  0  0  0  0  0  0  0  0  0  0  0
    4.7001    0.6077   20.1555 C   0  0  0  0  0  0  0  0  0  0  0  0
    7.5078   -2.1050   22.7585 N   0  0  0  0  0  0  0  0  0  0  0  0
    8.8494   -1.5504   22.8762 C   0  0  0  0  0  0  0  0  0  0  0  0
    9.4847   -1.9710   24.1979 C   0  0  0  0  0  0  0  0  0  0  0  0
    9.4416   -3.4707   24.3493 C   0  0  0  0  0  0  0  0  0  0  0  0
   10.4504   -4.1919   24.9818 C   0  0  0  0  0  0  0  0  0  0  0  0
   11.9040   -3.3912   25.5235 Cl  0  0  0  0  0  0  0  0  0  0  0  0
   10.3660   -5.5594   25.1863 C   0  0  0  0  0  0  0  0  0  0  0  0
    9.2655   -6.2512   24.6853 C   0  0  0  0  0  0  0  0  0  0  0  0
    8.2372   -5.5519   24.0571 C   0  0  0  0  0  0  0  0  0  0  0  0
    8.3122   -4.1657   23.9073 C   0  0  0  0  0  0  0  0  0  0  0  0
    7.1386   -3.3843   23.3614 C   0  0  0  0  0  0  0  0  0  0  0  0
  1  2  2  0
  2  3  1  0
  3  4  1  0
  4  5  2  0
  5  6  1  0
  6  7  2  0
  7  8  1  0
  8  9  2  0
  9 10  1  0
 10 11  2  0
 11 12  1  0
 12 13  2  0
  2 14  1  0
 14 15  1  0
 15 16  1  0
 16 17  1  0
 17 18  2  0
 18 19  1  0
 18 20  1  0
 20 21  2  0
 21 22  1  0
 22 23  2  0
 23 24  1  0
 13  4  1  0
 24 14  1  0
 13  8  1  0
 23 17  1  0
M  END
>  <cnnaffinities>  (44) 
[5.48691, 5.32706, 5.79713, 5.62633, 5.31709]

>  <score>  (44) 
5.48691

>  <index>  (44) 
22

>  <Smiles>  (44) 
O=C(C(c1c(nc(c2c(c(c(c(c12)[H])[H])[H])[H])[H])[H])([H])[H])N1C(C(c2c(Cl)c(c(c(c2C1([H])[H])[H])[H])[H])([H])[H])([H])[H]

>  <h>  (44) 
<NA>

>  <Training>  (44) 
True

>  <Success>  (44) 
True

>  <enamine_searched>  (44) 
False

>  <enamine_id>  (44) 
nan

>  <SMILES>  (44) 
O=C(Cc1cncc2ccccc12)N1CCc2c(Cl)cccc2C1

>  <LABEL>  (44) 
MERS-CoV Mpro

$$$$
ligand_22
     RDKit          3D

 37 42  0  0  0  0  0  0  0  0999 V2000
    4.3843    6.5437   20.9993 C   0  0  0  0  0  0  0  0  0  0  0  0
    5.1462    6.0871   22.2161 C   0  0  1  0  0  0  0  0  0  0  0  0
    6.1722    4.9943   21.9356 C   0  0  0  0  0  0  0  0  0  0  0  0
    6.8564    4.6155   23.2224 N   0  0  1  0  0  0  0  0  0  0  0  0
    7.8706    3.5352   23.0623 C   0  0  0  0  0  0  0  0  0  0  0  0
    8.2327    2.9038   24.4183 C   0  0  0  0  0  0  0  0  0  0  0  0
    9.1791    1.8134   24.2673 N   0  0  0  0  0  0  0  0  0  0  0  0
    8.7391    0.4500   24.0184 C   0  0  0  0  0  0  0  0  0  0  0  0
    9.4382   -0.1747   22.7721 C   0  0  2  0  0  0  0  0  0  0  0  0
    8.8237    0.3884   21.4703 C   0  0  0  0  0  0  0  0  0  0  0  0
    9.1960    1.3371   20.8068 O   0  0  0  0  0  0  0  0  0  0  0  0
    7.7270   -0.3907   21.1709 N   0  0  0  0  0  0  0  0  0  0  0  0
    6.8431   -0.0049   20.1385 C   0  0  0  0  0  0  0  0  0  0  0  0
    7.1699   -0.2755   18.8327 C   0  0  0  0  0  0  0  0  0  0  0  0
    6.4096    0.0703   17.7664 N   0  0  0  0  0  0  0  0  0  0  0  0
    5.2978    0.7243   18.0208 C   0  0  0  0  0  0  0  0  0  0  0  0
    4.8555    1.0918   19.3247 C   0  0  0  0  0  0  0  0  0  0  0  0
    3.6575    1.8287   19.5308 C   0  0  0  0  0  0  0  0  0  0  0  0
    3.2711    2.1779   20.7978 C   0  0  0  0  0  0  0  0  0  0  0  0
    4.0508    1.8094   21.9149 C   0  0  0  0  0  0  0  0  0  0  0  0
    5.2166    1.0991   21.7414 C   0  0  0  0  0  0  0  0  0  0  0  0
    5.6455    0.7142   20.4353 C   0  0  0  0  0  0  0  0  0  0  0  0
    7.6562   -1.6247   21.9377 C   0  0  0  0  0  0  0  0  0  0  0  0
    9.0478   -1.6759   22.5818 C   0  0  2  0  0  0  0  0  0  0  0  0
    9.1599   -2.5937   23.7871 C   0  0  0  0  0  0  0  0  0  0  0  0
   10.9149    0.1298   22.8461 C   0  0  0  0  0  0  0  0  0  0  0  0
   11.8017   -0.5330   21.9903 C   0  0  0  0  0  0  0  0  0  0  0  0
   13.1441   -0.2094   22.0045 C   0  0  0  0  0  0  0  0  0  0  0  0
   14.2031   -1.0196   20.8923 Cl  0  0  0  0  0  0  0  0  0  0  0  0
   13.6628    0.7337   22.8881 C   0  0  0  0  0  0  0  0  0  0  0  0
   12.7901    1.4033   23.7214 C   0  0  0  0  0  0  0  0  0  0  0  0
   11.4220    1.1490   23.6650 C   0  0  0  0  0  0  0  0  0  0  0  0
   10.5138    2.0790   24.4149 C   0  0  0  0  0  0  0  0  0  0  0  0
   10.9439    3.0358   25.0447 O   0  0  0  0  0  0  0  0  0  0  0  0
    7.4291    5.8537   23.8756 C   0  0  0  0  0  0  0  0  0  0  0  0
    6.3643    6.9318   24.0016 C   0  0  0  0  0  0  0  0  0  0  0  0
    5.8010    7.2305   22.7471 O   0  0  0  0  0  0  0  0  0  0  0  0
  2  1  1  6
  2  3  1  0
  3  4  1  0
  4  5  1  6
  5  6  1  0
  6  7  1  0
  7  8  1  0
  9  8  1  1
  9 10  1  0
 10 11  2  0
 10 12  1  0
 12 13  1  0
 13 14  2  0
 14 15  1  0
 15 16  2  0
 16 17  1  0
 17 18  2  0
 18 19  1  0
 19 20  2  0
 20 21  1  0
 21 22  2  0
 12 23  1  0
 23 24  1  0
 24 25  1  1
  9 26  1  0
 26 27  2  0
 27 28  1  0
 28 29  1  0
 28 30  2  0
 30 31  1  0
 31 32  2  0
 32 33  1  0
 33 34  2  0
  4 35  1  0
 35 36  1  0
 36 37  1  0
 37  2  1  0
 33  7  1  0
 24  9  1  0
 32 26  1  0
 22 13  1  0
 22 17  1  0
M  CHG  1   4   1
M  END
>  <template_ligand>  (45) 
mol-246

>  <template_receptor>  (45) 
receptors/receptor-246.pdb

>  <SMILES>  (45) 
CC1C[NH+](CCN2CC3(C(=O)N(c4cncc5ccccc45)CC3C)c3cc(Cl)ccc3C2=O)CCO1

>  <LABEL>  (45) 
MERS-CoV Mpro

$$$$
ligand_20
     RDKit          3D

 36 41  0  0  0  0  0  0  0  0999 V2000
   -8.7029   -3.8862  -23.9690 C   0  0  0  0  0  0  0  0  0  0  0  0
   -8.8308   -2.9159  -22.7932 C   0  0  1  0  0  0  0  0  0  0  0  0
   -7.5066   -2.6611  -22.0492 C   0  0  0  0  0  0  0  0  0  0  0  0
   -7.7393   -1.3805  -21.4041 N   0  0  0  0  0  0  0  0  0  0  0  0
   -6.9414   -0.8589  -20.3529 C   0  0  0  0  0  0  0  0  0  0  0  0
   -7.2708   -1.1503  -19.0541 C   0  0  0  0  0  0  0  0  0  0  0  0
   -6.5679   -0.7421  -17.9668 N   0  0  0  0  0  0  0  0  0  0  0  0
   -5.5036   -0.0067  -18.1850 C   0  0  0  0  0  0  0  0  0  0  0  0
   -5.0415    0.3757  -19.4807 C   0  0  0  0  0  0  0  0  0  0  0  0
   -3.8919    1.1944  -19.6583 C   0  0  0  0  0  0  0  0  0  0  0  0
   -3.4685    1.5270  -20.9175 C   0  0  0  0  0  0  0  0  0  0  0  0
   -4.1635    1.0485  -22.0515 C   0  0  0  0  0  0  0  0  0  0  0  0
   -5.2858    0.2668  -21.9050 C   0  0  0  0  0  0  0  0  0  0  0  0
   -5.7671   -0.0752  -20.6090 C   0  0  0  0  0  0  0  0  0  0  0  0
   -8.8184   -0.6858  -21.9077 C   0  0  0  0  0  0  0  0  0  0  0  0
   -9.2124    0.3747  -21.4669 O   0  0  0  0  0  0  0  0  0  0  0  0
   -9.3722   -1.4887  -23.1146 C   0  0  1  0  0  0  0  0  0  0  0  0
   -8.7138   -0.9435  -24.4026 C   0  0  0  0  0  0  0  0  0  0  0  0
   -9.3240    0.3136  -24.8288 N   0  0  0  0  0  0  0  0  0  0  0  0
   -8.4752    1.1503  -25.6746 C   0  0  0  0  0  0  0  0  0  0  0  0
   -7.4503    2.0137  -24.9194 C   0  0  0  0  0  0  0  0  0  0  0  0
   -6.3389    2.2324  -25.3791 O   0  0  0  0  0  0  0  0  0  0  0  0
   -7.8715    2.5139  -23.7333 N   0  0  0  0  0  0  0  0  0  0  0  0
   -7.0327    3.4060  -22.9460 C   0  0  0  0  0  0  0  0  0  0  0  0
   -7.0557    4.8568  -23.3964 C   0  0  0  0  0  0  0  0  0  0  0  0
   -6.8040    5.9409  -22.3800 C   0  0  0  0  0  0  0  0  0  0  0  0
   -8.1889    5.7453  -22.9557 C   0  0  0  0  0  0  0  0  0  0  0  0
  -10.6726    0.2293  -25.1605 C   0  0  0  0  0  0  0  0  0  0  0  0
  -11.1636    0.7683  -26.1349 O   0  0  0  0  0  0  0  0  0  0  0  0
  -11.4892   -0.5394  -24.1610 C   0  0  0  0  0  0  0  0  0  0  0  0
  -12.8766   -0.3658  -24.1689 C   0  0  0  0  0  0  0  0  0  0  0  0
  -13.6771   -1.0001  -23.2395 C   0  0  0  0  0  0  0  0  0  0  0  0
  -13.0576   -1.8305  -22.3131 C   0  0  0  0  0  0  0  0  0  0  0  0
  -13.8214   -2.4633  -21.4085 F   0  0  0  0  0  0  0  0  0  0  0  0
  -11.6936   -2.0313  -22.2826 C   0  0  0  0  0  0  0  0  0  0  0  0
  -10.8768   -1.3743  -23.2160 C   0  0  0  0  0  0  0  0  0  0  0  0
  2  1  1  6
  2  3  1  0
  3  4  1  0
  4  5  1  0
  5  6  2  0
  6  7  1  0
  7  8  2  0
  8  9  1  0
  9 10  2  0
 10 11  1  0
 11 12  2  0
 12 13  1  0
 13 14  2  0
  4 15  1  0
 15 16  2  0
 15 17  1  0
 17 18  1  6
 18 19  1  0
 19 20  1  0
 20 21  1  0
 21 22  2  0
 21 23  1  0
 23 24  1  0
 24 25  1  0
 25 26  1  0
 26 27  1  0
 19 28  1  0
 28 29  2  0
 28 30  1  0
 30 31  2  0
 31 32  1  0
 32 33  2  0
 33 34  1  0
 33 35  1  0
 35 36  2  0
 17  2  1  0
 27 25  1  0
 36 30  1  0
 14  5  1  0
 36 17  1  0
 14  9  1  0
M  END
>  <template_ligand>  (46) 
mol-23

>  <template_receptor>  (46) 
receptors/receptor-23.pdb

>  <SMILES>  (46) 
CC1CN(c2cncc3ccccc23)C(=O)C12CN(CC(=O)NCC1CC1)C(=O)c1ccc(F)cc12

>  <LABEL>  (46) 
SARS-CoV-2 Mpro

$$$$
ligand_21
     RDKit          3D

 26 30  0  0  0  0  0  0  0  0999 V2000
   -6.9173   -3.5823  -21.3873 O   0  0  0  0  0  0  0  0  0  0  0  0
   -7.6512   -2.6807  -21.7202 C   0  0  0  0  0  0  0  0  0  0  0  0
   -8.6023   -2.6686  -22.7083 N   0  0  0  0  0  0  0  0  0  0  0  0
   -9.1860   -1.3584  -22.9700 C   0  0  1  0  0  0  0  0  0  0  0  0
   -8.5057   -0.6291  -24.1743 C   0  0  0  0  0  0  0  0  0  0  0  0
   -9.4752   -0.1487  -25.2411 C   0  0  0  0  0  0  0  0  0  0  0  0
  -10.6310    0.4474  -24.6750 O   0  0  0  0  0  0  0  0  0  0  0  0
  -11.3335   -0.4058  -23.8963 C   0  0  0  0  0  0  0  0  0  0  0  0
  -12.7156   -0.3010  -23.9035 C   0  0  0  0  0  0  0  0  0  0  0  0
  -13.4364   -1.2239  -23.1650 C   0  0  0  0  0  0  0  0  0  0  0  0
  -12.8801   -2.1962  -22.4343 N   0  0  0  0  0  0  0  0  0  0  0  0
  -11.5449   -2.2453  -22.4092 C   0  0  0  0  0  0  0  0  0  0  0  0
  -10.7017   -1.3694  -23.1029 C   0  0  0  0  0  0  0  0  0  0  0  0
   -8.7212   -0.6247  -21.6880 C   0  0  0  0  0  0  0  0  0  0  0  0
   -9.1086    0.4238  -21.2490 O   0  0  0  0  0  0  0  0  0  0  0  0
   -7.6999   -1.4025  -21.1352 N   0  0  0  0  0  0  0  0  0  0  0  0
   -6.8589   -0.9260  -20.0927 C   0  0  0  0  0  0  0  0  0  0  0  0
   -7.2051   -1.1519  -18.7894 C   0  0  0  0  0  0  0  0  0  0  0  0
   -6.5666   -0.6051  -17.7229 N   0  0  0  0  0  0  0  0  0  0  0  0
   -5.5555    0.1938  -17.9689 C   0  0  0  0  0  0  0  0  0  0  0  0
   -5.0691    0.4835  -19.2746 C   0  0  0  0  0  0  0  0  0  0  0  0
   -3.9688    1.3541  -19.4892 C   0  0  0  0  0  0  0  0  0  0  0  0
   -3.5082    1.5802  -20.7561 C   0  0  0  0  0  0  0  0  0  0  0  0
   -4.1150    0.9427  -21.8604 C   0  0  0  0  0  0  0  0  0  0  0  0
   -5.1865    0.1061  -21.6803 C   0  0  0  0  0  0  0  0  0  0  0  0
   -5.7083   -0.1232  -20.3775 C   0  0  0  0  0  0  0  0  0  0  0  0
  1  2  2  0
  2  3  1  0
  4  3  1  0
  4  5  1  6
  5  6  1  0
  6  7  1  0
  7  8  1  0
  8  9  2  0
  9 10  1  0
 10 11  2  0
 11 12  1  0
 12 13  2  0
  4 14  1  0
 14 15  2  0
 14 16  1  0
 16 17  1  0
 17 18  2  0
 18 19  1  0
 19 20  2  0
 20 21  1  0
 21 22  2  0
 22 23  1  0
 23 24  2  0
 24 25  1  0
 25 26  2  0
 16  2  1  0
 26 17  1  0
 13  4  1  0
 26 21  1  0
 13  8  1  0
M  END
>  <template_ligand>  (47) 
mol-109

>  <template_receptor>  (47) 
receptors/receptor-109.pdb

>  <SMILES>  (47) 
O=C1NC2(CCOc3ccncc32)C(=O)N1c1cncc2ccccc12

>  <LABEL>  (47) 
SARS-CoV-2 Mpro

$$$$
ligand_23
     RDKit          3D

 38 43  0  0  0  0  0  0  0  0999 V2000
    6.5304    4.3113   22.3136 C   0  0  0  0  0  0  0  0  0  0  0  0
    7.4039    3.5037   23.1685 N   0  0  0  0  0  0  0  0  0  0  0  0
    6.7911    3.2247   24.4916 C   0  0  0  0  0  0  0  0  0  0  0  0
    7.6564    2.2808   25.3476 C   0  0  0  0  0  0  0  0  0  0  0  0
    8.5305    1.4418   24.5459 N   0  0  0  0  0  0  0  0  0  0  0  0
    8.1150    0.1007   24.2054 C   0  0  0  0  0  0  0  0  0  0  0  0
    8.7098   -0.4144   22.8676 C   0  0  2  0  0  0  0  0  0  0  0  0
    8.0931    0.3588   21.6837 C   0  0  0  0  0  0  0  0  0  0  0  0
    8.2609    1.5509   21.4510 O   0  0  0  0  0  0  0  0  0  0  0  0
    7.2739   -0.4550   20.9492 N   0  0  0  0  0  0  0  0  0  0  0  0
    6.4352    0.0707   19.9163 C   0  0  0  0  0  0  0  0  0  0  0  0
    6.7340   -0.1734   18.6015 C   0  0  0  0  0  0  0  0  0  0  0  0
    6.0065    0.2722   17.5450 N   0  0  0  0  0  0  0  0  0  0  0  0
    4.9314    0.9808   17.8034 C   0  0  0  0  0  0  0  0  0  0  0  0
    4.4924    1.2978   19.1186 C   0  0  0  0  0  0  0  0  0  0  0  0
    3.3128    2.0582   19.3502 C   0  0  0  0  0  0  0  0  0  0  0  0
    2.9084    2.3365   20.6295 C   0  0  0  0  0  0  0  0  0  0  0  0
    3.6677    1.8752   21.7278 C   0  0  0  0  0  0  0  0  0  0  0  0
    4.8202    1.1550   21.5304 C   0  0  0  0  0  0  0  0  0  0  0  0
    5.2648    0.8400   20.2140 C   0  0  0  0  0  0  0  0  0  0  0  0
    7.0378   -1.7351   21.5959 C   0  0  0  0  0  0  0  0  0  0  0  0
    8.2122   -1.8693   22.5939 C   0  0  2  0  0  0  0  0  0  0  0  0
    7.8089   -2.6904   23.8396 C   0  0  0  0  0  0  0  0  0  0  0  0
    7.4721   -4.0352   23.5431 O   0  0  0  0  0  0  0  0  0  0  0  0
    8.5441   -4.9389   23.7318 C   0  0  0  0  0  0  0  0  0  0  0  0
    8.3795   -6.1277   22.8117 C   0  0  0  0  0  0  0  0  0  0  0  0
    7.0799   -6.9463   22.7547 C   0  0  0  0  0  0  0  0  0  0  0  0
    6.8835   -6.6148   21.3713 O   0  0  0  0  0  0  0  0  0  0  0  0
    8.0294   -5.7550   21.3754 C   0  0  0  0  0  0  0  0  0  0  0  0
   10.2152   -0.1634   22.9181 C   0  0  0  0  0  0  0  0  0  0  0  0
   11.1566   -0.9865   22.2810 C   0  0  0  0  0  0  0  0  0  0  0  0
   12.5025   -0.6542   22.3272 C   0  0  0  0  0  0  0  0  0  0  0  0
   13.6622   -1.7143   21.5783 Cl  0  0  0  0  0  0  0  0  0  0  0  0
   12.9606    0.5086   22.9437 C   0  0  0  0  0  0  0  0  0  0  0  0
   12.0331    1.3494   23.5268 C   0  0  0  0  0  0  0  0  0  0  0  0
   10.6804    1.0185   23.5250 C   0  0  0  0  0  0  0  0  0  0  0  0
    9.7258    1.9642   24.1774 C   0  0  0  0  0  0  0  0  0  0  0  0
    9.9914    3.1553   24.3624 O   0  0  0  0  0  0  0  0  0  0  0  0
  1  2  1  0
  2  3  1  0
  3  4  1  0
  4  5  1  0
  5  6  1  0
  7  6  1  1
  7  8  1  0
  8  9  2  0
  8 10  1  0
 10 11  1  0
 11 12  2  0
 12 13  1  0
 13 14  2  0
 14 15  1  0
 15 16  2  0
 16 17  1  0
 17 18  2  0
 18 19  1  0
 19 20  2  0
 10 21  1  0
 21 22  1  0
 22 23  1  1
 23 24  1  0
 24 25  1  0
 25 26  1  0
 26 27  1  0
 27 28  1  0
 28 29  1  0
  7 30  1  0
 30 31  2  0
 31 32  1  0
 32 33  1  0
 32 34  2  0
 34 35  1  0
 35 36  2  0
 36 37  1  0
 37 38  2  0
 37  5  1  0
 22  7  1  0
 29 26  1  0
 36 30  1  0
 20 11  1  0
 20 15  1  0
M  CHG  1   2   1
M  END
>  <template_ligand>  (48) 
mol-218

>  <template_receptor>  (48) 
receptors/receptor-218.pdb

>  <SMILES>  (48) 
C[NH2+]CCN1CC2(C(=O)N(c3cncc4ccccc34)CC2COCC2COC2)c2cc(Cl)ccc2C1=O

>  <LABEL>  (48) 
MERS-CoV Mpro

$$$$
ligand_22
     RDKit          3D

 40 45  0  0  0  0  0  0  0  0999 V2000
   -7.0550    3.5556  -22.6913 C   0  0  0  0  0  0  0  0  0  0  0  0
   -7.7888    2.5489  -23.4317 N   0  0  0  0  0  0  0  0  0  0  0  0
   -7.4565    2.3151  -24.7201 C   0  0  0  0  0  0  0  0  0  0  0  0
   -6.6224    2.9742  -25.3223 O   0  0  0  0  0  0  0  0  0  0  0  0
   -8.1882    1.1857  -25.4617 C   0  0  0  0  0  0  0  0  0  0  0  0
   -9.0241    0.3210  -24.6577 N   0  0  0  0  0  0  0  0  0  0  0  0
   -8.5553   -1.0085  -24.3095 C   0  0  0  0  0  0  0  0  0  0  0  0
   -9.1507   -1.4894  -22.9546 C   0  0  2  0  0  0  0  0  0  0  0  0
   -8.5678   -0.6151  -21.8170 C   0  0  0  0  0  0  0  0  0  0  0  0
   -8.9098    0.5091  -21.5000 O   0  0  0  0  0  0  0  0  0  0  0  0
   -7.5341   -1.3107  -21.2346 N   0  0  0  0  0  0  0  0  0  0  0  0
   -6.7372   -0.7338  -20.2139 C   0  0  0  0  0  0  0  0  0  0  0  0
   -7.0426   -0.9879  -18.9021 C   0  0  0  0  0  0  0  0  0  0  0  0
   -6.3551   -0.4928  -17.8428 N   0  0  0  0  0  0  0  0  0  0  0  0
   -5.3324    0.2846  -18.1138 C   0  0  0  0  0  0  0  0  0  0  0  0
   -4.9082    0.6333  -19.4280 C   0  0  0  0  0  0  0  0  0  0  0  0
   -3.7945    1.4861  -19.6559 C   0  0  0  0  0  0  0  0  0  0  0  0
   -3.4028    1.7837  -20.9322 C   0  0  0  0  0  0  0  0  0  0  0  0
   -4.0987    1.2487  -22.0398 C   0  0  0  0  0  0  0  0  0  0  0  0
   -5.1857    0.4307  -21.8462 C   0  0  0  0  0  0  0  0  0  0  0  0
   -5.6247    0.1062  -20.5284 C   0  0  0  0  0  0  0  0  0  0  0  0
   -7.2648   -2.5941  -21.8578 C   0  0  0  0  0  0  0  0  0  0  0  0
   -8.6031   -2.8844  -22.5509 C   0  0  2  0  0  0  0  0  0  0  0  0
   -8.5411   -3.9231  -23.6858 C   0  0  0  0  0  0  0  0  0  0  0  0
   -8.3405   -5.2838  -23.2373 N   0  0  0  0  0  0  0  0  0  0  0  0
   -7.0998   -5.7244  -22.7865 C   0  0  0  0  0  0  0  0  0  0  0  0
   -5.8779   -5.2810  -23.3287 C   0  0  0  0  0  0  0  0  0  0  0  0
   -4.6909   -5.9086  -22.9723 C   0  0  0  0  0  0  0  0  0  0  0  0
   -4.6711   -6.8712  -21.9718 C   0  0  0  0  0  0  0  0  0  0  0  0
   -5.8569   -7.1839  -21.3151 C   0  0  0  0  0  0  0  0  0  0  0  0
   -7.0660   -6.6652  -21.7442 C   0  0  0  0  0  0  0  0  0  0  0  0
  -10.6579   -1.3558  -23.0440 C   0  0  0  0  0  0  0  0  0  0  0  0
  -11.5447   -2.2405  -22.4134 C   0  0  0  0  0  0  0  0  0  0  0  0
  -12.9041   -1.9813  -22.4330 C   0  0  0  0  0  0  0  0  0  0  0  0
  -13.9919   -3.0756  -21.6298 Cl  0  0  0  0  0  0  0  0  0  0  0  0
  -13.4311   -0.8583  -23.0693 C   0  0  0  0  0  0  0  0  0  0  0  0
  -12.5669    0.0014  -23.7126 C   0  0  0  0  0  0  0  0  0  0  0  0
  -11.1982   -0.2533  -23.7227 C   0  0  0  0  0  0  0  0  0  0  0  0
  -10.3333    0.6865  -24.5036 C   0  0  0  0  0  0  0  0  0  0  0  0
  -10.7696    1.7268  -24.9784 O   0  0  0  0  0  0  0  0  0  0  0  0
  1  2  1  0
  2  3  1  0
  3  4  2  0
  3  5  1  0
  5  6  1  0
  6  7  1  0
  8  7  1  6
  8  9  1  0
  9 10  2  0
  9 11  1  0
 11 12  1  0
 12 13  2  0
 13 14  1  0
 14 15  2  0
 15 16  1  0
 16 17  2  0
 17 18  1  0
 18 19  2  0
 19 20  1  0
 20 21  2  0
 11 22  1  0
 22 23  1  0
 23 24  1  6
 24 25  1  0
 25 26  1  0
 26 27  2  0
 27 28  1  0
 28 29  2  0
 29 30  1  0
 30 31  2  0
  8 32  1  0
 32 33  2  0
 33 34  1  0
 34 35  1  0
 34 36  2  0
 36 37  1  0
 37 38  2  0
 38 39  1  0
 39 40  2  0
 39  6  1  0
 23  8  1  0
 31 26  1  0
 38 32  1  0
 21 12  1  0
 21 16  1  0
M  END
>  <template_ligand>  (49) 
mol-218

>  <template_receptor>  (49) 
receptors/receptor-218.pdb

>  <SMILES>  (49) 
CNC(=O)CN1CC2(C(=O)N(c3cncc4ccccc34)CC2CNc2ccccc2)c2cc(Cl)ccc2C1=O

>  <LABEL>  (49) 
SARS-CoV-2 Mpro

$$$$
ligand_23
     RDKit          3D

 36 41  0  0  0  0  0  0  0  0999 V2000
   -6.2960    2.2311  -25.3832 O   0  0  0  0  0  0  0  0  0  0  0  0
   -7.4160    2.0455  -24.9442 C   0  0  0  0  0  0  0  0  0  0  0  0
   -8.4483    1.1777  -25.6734 C   0  0  0  0  0  0  0  0  0  0  0  0
   -9.2903    0.3885  -24.7248 N   0  0  1  0  0  0  0  0  0  0  0  0
  -10.6931    0.1793  -25.2053 C   0  0  0  0  0  0  0  0  0  0  0  0
  -11.5047   -0.5512  -24.1607 C   0  0  0  0  0  0  0  0  0  0  0  0
  -12.8865   -0.3685  -24.1439 C   0  0  0  0  0  0  0  0  0  0  0  0
  -13.6901   -1.0091  -23.2139 C   0  0  0  0  0  0  0  0  0  0  0  0
  -13.0810   -1.8488  -22.2882 C   0  0  0  0  0  0  0  0  0  0  0  0
  -14.0686   -2.6508  -21.0987 Cl  0  0  0  0  0  0  0  0  0  0  0  0
  -11.7074   -2.0387  -22.2757 C   0  0  0  0  0  0  0  0  0  0  0  0
  -10.8967   -1.3953  -23.2187 C   0  0  0  0  0  0  0  0  0  0  0  0
   -9.3847   -1.5149  -23.1126 C   0  0  2  0  0  0  0  0  0  0  0  0
   -8.8336   -2.9166  -22.8029 C   0  0  0  0  0  0  0  0  0  0  0  0
   -7.5155   -2.6572  -22.0614 C   0  0  0  0  0  0  0  0  0  0  0  0
   -7.7519   -1.3765  -21.4086 N   0  0  0  0  0  0  0  0  0  0  0  0
   -6.9406   -0.8608  -20.3560 C   0  0  0  0  0  0  0  0  0  0  0  0
   -7.2650   -1.1570  -19.0587 C   0  0  0  0  0  0  0  0  0  0  0  0
   -6.5651   -0.7448  -17.9694 N   0  0  0  0  0  0  0  0  0  0  0  0
   -5.4994   -0.0087  -18.1838 C   0  0  0  0  0  0  0  0  0  0  0  0
   -5.0344    0.3700  -19.4761 C   0  0  0  0  0  0  0  0  0  0  0  0
   -3.8904    1.1978  -19.6587 C   0  0  0  0  0  0  0  0  0  0  0  0
   -3.4715    1.5346  -20.9162 C   0  0  0  0  0  0  0  0  0  0  0  0
   -4.1651    1.0524  -22.0508 C   0  0  0  0  0  0  0  0  0  0  0  0
   -5.2815    0.2656  -21.9025 C   0  0  0  0  0  0  0  0  0  0  0  0
   -5.7614   -0.0850  -20.6100 C   0  0  0  0  0  0  0  0  0  0  0  0
   -8.8347   -0.6986  -21.9225 C   0  0  0  0  0  0  0  0  0  0  0  0
   -9.2170    0.3983  -21.5704 O   0  0  0  0  0  0  0  0  0  0  0  0
   -8.6928   -0.9649  -24.3813 C   0  0  0  0  0  0  0  0  0  0  0  0
   -7.8829    2.5433  -23.7466 N   0  0  0  0  0  0  0  0  0  0  0  0
   -7.0637    3.4134  -22.9244 C   0  0  0  0  0  0  0  0  0  0  0  0
   -7.0640    4.8598  -23.3921 C   0  0  1  0  0  0  0  0  0  0  0  0
   -6.4449    5.8559  -22.3907 C   0  0  0  0  0  0  0  0  0  0  0  0
   -5.3766    6.2274  -23.4259 C   0  0  1  0  0  0  0  0  0  0  0  0
   -4.0856    5.9085  -23.0377 F   0  0  0  0  0  0  0  0  0  0  0  0
   -5.9821    5.2433  -24.4338 C   0  0  0  0  0  0  0  0  0  0  0  0
  1  2  2  0
  2  3  1  0
  4  3  1  6
  4  5  1  0
  5  6  1  0
  6  7  2  0
  7  8  1  0
  8  9  2  0
  9 10  1  0
  9 11  1  0
 11 12  2  0
 12 13  1  0
 13 14  1  1
 14 15  1  0
 15 16  1  0
 16 17  1  0
 17 18  2  0
 18 19  1  0
 19 20  2  0
 20 21  1  0
 21 22  2  0
 22 23  1  0
 23 24  2  0
 24 25  1  0
 25 26  2  0
 16 27  1  0
 27 28  2  0
 13 29  1  0
  2 30  1  0
 30 31  1  0
 32 31  1  1
 32 33  1  0
 33 34  1  0
 34 35  1  1
 34 36  1  0
 29  4  1  0
 36 32  1  0
 12  6  1  0
 27 13  1  0
 26 17  1  0
 26 21  1  0
M  CHG  1   4   1
M  END
>  <template_ligand>  (50) 
mol-23

>  <template_receptor>  (50) 
receptors/receptor-23.pdb

>  <SMILES>  (50) 
O=C(C[NH+]1Cc2ccc(Cl)cc2C2(CCN(c3cncc4ccccc34)C2=O)C1)NCC1CC(F)C1

>  <LABEL>  (50) 
SARS-CoV-2 Mpro

$$$$
ligand_24
     RDKit          3D

 41 46  0  0  0  0  0  0  0  0999 V2000
   -6.3363    2.3975  -25.9116 O   0  0  0  0  0  0  0  0  0  0  0  0
   -6.7381    1.6251  -25.0627 C   0  0  0  0  0  0  0  0  0  0  0  0
   -7.5414    0.3874  -25.4730 C   0  0  0  0  0  0  0  0  0  0  0  0
   -8.4927   -0.1770  -24.4832 N   0  0  1  0  0  0  0  0  0  0  0  0
   -9.9311    0.0313  -24.8600 C   0  0  0  0  0  0  0  0  0  0  0  0
  -10.8726   -0.6539  -23.8931 C   0  0  0  0  0  0  0  0  0  0  0  0
  -12.2280   -0.3368  -23.9558 C   0  0  0  0  0  0  0  0  0  0  0  0
  -13.1681   -1.0381  -23.2136 C   0  0  0  0  0  0  0  0  0  0  0  0
  -12.7278   -2.0765  -22.3988 C   0  0  0  0  0  0  0  0  0  0  0  0
  -13.8984   -3.0032  -21.4992 Cl  0  0  0  0  0  0  0  0  0  0  0  0
  -11.3772   -2.3860  -22.2922 C   0  0  0  0  0  0  0  0  0  0  0  0
  -10.4354   -1.6602  -23.0264 C   0  0  0  0  0  0  0  0  0  0  0  0
   -8.9538   -1.9613  -22.9016 C   0  0  2  0  0  0  0  0  0  0  0  0
   -8.2194   -1.0969  -21.8673 C   0  0  0  0  0  0  0  0  0  0  0  0
   -8.3552    0.1231  -21.8129 O   0  0  0  0  0  0  0  0  0  0  0  0
   -7.2766   -1.7297  -21.1149 N   0  0  0  0  0  0  0  0  0  0  0  0
   -6.5687   -1.0409  -20.0865 C   0  0  0  0  0  0  0  0  0  0  0  0
   -7.0165   -1.1044  -18.7947 C   0  0  0  0  0  0  0  0  0  0  0  0
   -6.4466   -0.4592  -17.7479 N   0  0  0  0  0  0  0  0  0  0  0  0
   -5.4079    0.3006  -18.0058 C   0  0  0  0  0  0  0  0  0  0  0  0
   -4.8505    0.4765  -19.3050 C   0  0  0  0  0  0  0  0  0  0  0  0
   -3.7562    1.3493  -19.5507 C   0  0  0  0  0  0  0  0  0  0  0  0
   -3.2487    1.4947  -20.8150 C   0  0  0  0  0  0  0  0  0  0  0  0
   -3.7783    0.7308  -21.8820 C   0  0  0  0  0  0  0  0  0  0  0  0
   -4.8246   -0.1353  -21.6601 C   0  0  0  0  0  0  0  0  0  0  0  0
   -5.4227   -0.2442  -20.3772 C   0  0  0  0  0  0  0  0  0  0  0  0
   -8.2573   -1.6415  -24.2218 C   0  0  0  0  0  0  0  0  0  0  0  0
   -6.4855    1.7594  -23.7277 N   0  0  0  0  0  0  0  0  0  0  0  0
   -6.0284    2.9503  -23.1360 C   0  0  0  0  0  0  0  0  0  0  0  0
   -6.7159    3.3781  -22.0060 C   0  0  0  0  0  0  0  0  0  0  0  0
   -6.3725    4.5713  -21.3958 C   0  0  0  0  0  0  0  0  0  0  0  0
   -5.2510    5.2739  -21.8330 C   0  0  0  0  0  0  0  0  0  0  0  0
   -4.8043    6.4394  -21.1669 N   0  0  0  0  0  0  0  0  0  0  0  0
   -5.7889    7.2626  -20.4766 C   0  0  0  0  0  0  0  0  0  0  0  0
   -5.2159    8.6296  -20.1377 C   0  0  0  0  0  0  0  0  0  0  0  0
   -3.9261    8.5269  -19.5782 O   0  0  0  0  0  0  0  0  0  0  0  0
   -3.0240    7.9486  -20.4858 C   0  0  0  0  0  0  0  0  0  0  0  0
   -3.4483    6.5533  -20.9049 C   0  0  0  0  0  0  0  0  0  0  0  0
   -2.6488    5.6539  -21.0691 O   0  0  0  0  0  0  0  0  0  0  0  0
   -4.5381    4.8166  -22.9377 C   0  0  0  0  0  0  0  0  0  0  0  0
   -4.9431    3.6781  -23.6092 C   0  0  0  0  0  0  0  0  0  0  0  0
  1  2  2  0
  2  3  1  0
  4  3  1  6
  4  5  1  0
  5  6  1  0
  6  7  2  0
  7  8  1  0
  8  9  2  0
  9 10  1  0
  9 11  1  0
 11 12  2  0
 12 13  1  0
 13 14  1  1
 14 15  2  0
 14 16  1  0
 16 17  1  0
 17 18  2  0
 18 19  1  0
 19 20  2  0
 20 21  1  0
 21 22  2  0
 22 23  1  0
 23 24  2  0
 24 25  1  0
 25 26  2  0
 13 27  1  0
  2 28  1  0
 28 29  1  0
 29 30  2  0
 30 31  1  0
 31 32  2  0
 32 33  1  0
 33 34  1  0
 34 35  1  0
 35 36  1  0
 36 37  1  0
 37 38  1  0
 38 39  2  0
 32 40  1  0
 40 41  2  0
 27  4  1  0
 41 29  1  0
 12  6  1  0
 26 17  1  0
 38 33  1  0
 26 21  1  0
M  CHG  1   4   1
M  END
>  <template_ligand>  (51) 
mol-209

>  <template_receptor>  (51) 
receptors/receptor-209.pdb

>  <SMILES>  (51) 
O=C(C[NH+]1Cc2ccc(Cl)cc2C(C(=O)Nc2cncc3ccccc23)C1)Nc1ccc(N2CCOCC2=O)cc1

>  <LABEL>  (51) 
SARS-CoV-2 Mpro

$$$$
ligand_25
     RDKit          3D

 34 39  0  0  0  0  0  0  0  0999 V2000
   -8.4800   -3.9142  -23.7110 C   0  0  0  0  0  0  0  0  0  0  0  0
   -8.5931   -2.8983  -22.5816 C   0  0  1  0  0  0  0  0  0  0  0  0
   -7.2711   -2.5946  -21.8674 C   0  0  0  0  0  0  0  0  0  0  0  0
   -7.5256   -1.3060  -21.2481 N   0  0  0  0  0  0  0  0  0  0  0  0
   -6.7246   -0.7392  -20.2210 C   0  0  0  0  0  0  0  0  0  0  0  0
   -7.0128   -1.0006  -18.9037 C   0  0  0  0  0  0  0  0  0  0  0  0
   -6.3231   -0.4994  -17.8494 N   0  0  0  0  0  0  0  0  0  0  0  0
   -5.3030    0.2885  -18.1100 C   0  0  0  0  0  0  0  0  0  0  0  0
   -4.8756    0.6249  -19.4282 C   0  0  0  0  0  0  0  0  0  0  0  0
   -3.7710    1.4894  -19.6765 C   0  0  0  0  0  0  0  0  0  0  0  0
   -3.3970    1.7838  -20.9604 C   0  0  0  0  0  0  0  0  0  0  0  0
   -4.0938    1.2252  -22.0534 C   0  0  0  0  0  0  0  0  0  0  0  0
   -5.1674    0.3939  -21.8422 C   0  0  0  0  0  0  0  0  0  0  0  0
   -5.5933    0.0847  -20.5215 C   0  0  0  0  0  0  0  0  0  0  0  0
   -8.5825   -0.6220  -21.8194 C   0  0  0  0  0  0  0  0  0  0  0  0
   -8.9679    0.4637  -21.4598 O   0  0  0  0  0  0  0  0  0  0  0  0
   -9.1432   -1.4994  -22.9705 C   0  0  1  0  0  0  0  0  0  0  0  0
   -8.5531   -1.0080  -24.3199 C   0  0  0  0  0  0  0  0  0  0  0  0
   -8.9978    0.3320  -24.6441 N   0  0  0  0  0  0  0  0  0  0  0  0
   -8.1374    1.1776  -25.4452 C   0  0  0  0  0  0  0  0  0  0  0  0
   -7.6104    2.3525  -24.6930 C   0  0  0  0  0  0  0  0  0  0  0  0
   -7.3407    3.6295  -25.1781 C   0  0  0  0  0  0  0  0  0  0  0  0
   -6.8129    4.3686  -24.2070 N   0  0  0  0  0  0  0  0  0  0  0  0
   -6.7874    3.5278  -23.1987 N   0  0  0  0  0  0  0  0  0  0  0  0
   -7.2426    2.3066  -23.4120 N   0  0  0  0  0  0  0  0  0  0  0  0
  -10.2862    0.7441  -24.4389 C   0  0  0  0  0  0  0  0  0  0  0  0
  -10.6865    1.8327  -24.8277 O   0  0  0  0  0  0  0  0  0  0  0  0
  -11.1799   -0.2360  -23.7291 C   0  0  0  0  0  0  0  0  0  0  0  0
  -12.5574    0.0016  -23.7218 C   0  0  0  0  0  0  0  0  0  0  0  0
  -13.4198   -0.8609  -23.0730 C   0  0  0  0  0  0  0  0  0  0  0  0
  -12.8783   -1.9747  -22.4428 C   0  0  0  0  0  0  0  0  0  0  0  0
  -13.6995   -2.8212  -21.7991 F   0  0  0  0  0  0  0  0  0  0  0  0
  -11.5241   -2.2426  -22.4335 C   0  0  0  0  0  0  0  0  0  0  0  0
  -10.6477   -1.3597  -23.0729 C   0  0  0  0  0  0  0  0  0  0  0  0
  2  1  1  6
  2  3  1  0
  3  4  1  0
  4  5  1  0
  5  6  2  0
  6  7  1  0
  7  8  2  0
  8  9  1  0
  9 10  2  0
 10 11  1  0
 11 12  2  0
 12 13  1  0
 13 14  2  0
  4 15  1  0
 15 16  2  0
 15 17  1  0
 17 18  1  6
 18 19  1  0
 19 20  1  0
 20 21  1  0
 21 22  1  0
 22 23  2  0
 23 24  1  0
 24 25  1  0
 19 26  1  0
 26 27  2  0
 26 28  1  0
 28 29  2  0
 29 30  1  0
 30 31  2  0
 31 32  1  0
 31 33  1  0
 33 34  2  0
 17  2  1  0
 25 21  2  0
 34 28  1  0
 14  5  1  0
 34 17  1  0
 14  9  1  0
M  END
>  <template_ligand>  (52) 
mol-218

>  <template_receptor>  (52) 
receptors/receptor-218.pdb

>  <SMILES>  (52) 
CC1CN(c2cncc3ccccc23)C(=O)C12CN(Cc1cn[nH]n1)C(=O)c1ccc(F)cc12

>  <LABEL>  (52) 
SARS-CoV-2 Mpro

$$$$
ligand_26
     RDKit          3D

 32 36  0  0  0  0  0  0  0  0999 V2000
   -7.0754    3.5440  -22.6901 C   0  0  0  0  0  0  0  0  0  0  0  0
   -7.8658    2.5198  -23.3816 N   0  0  0  0  0  0  0  0  0  0  0  0
   -7.4271    2.3212  -24.7831 C   0  0  0  0  0  0  0  0  0  0  0  0
   -8.1498    1.1528  -25.4993 C   0  0  0  0  0  0  0  0  0  0  0  0
   -8.9946    0.3289  -24.6540 N   0  0  0  0  0  0  0  0  0  0  0  0
   -8.5410   -1.0069  -24.3227 C   0  0  0  0  0  0  0  0  0  0  0  0
   -9.1257   -1.4824  -22.9728 C   0  0  2  0  0  0  0  0  0  0  0  0
   -8.4893   -0.5871  -21.8852 C   0  0  0  0  0  0  0  0  0  0  0  0
   -8.6927    0.6055  -21.7087 O   0  0  0  0  0  0  0  0  0  0  0  0
   -7.5416   -1.3142  -21.2191 N   0  0  0  0  0  0  0  0  0  0  0  0
   -6.7304   -0.7363  -20.2106 C   0  0  0  0  0  0  0  0  0  0  0  0
   -7.0191   -0.9998  -18.8957 C   0  0  0  0  0  0  0  0  0  0  0  0
   -6.3321   -0.4944  -17.8436 N   0  0  0  0  0  0  0  0  0  0  0  0
   -5.3142    0.2916  -18.1148 C   0  0  0  0  0  0  0  0  0  0  0  0
   -4.8992    0.6332  -19.4366 C   0  0  0  0  0  0  0  0  0  0  0  0
   -3.7885    1.4861  -19.6794 C   0  0  0  0  0  0  0  0  0  0  0  0
   -3.4004    1.7835  -20.9581 C   0  0  0  0  0  0  0  0  0  0  0  0
   -4.1028    1.2416  -22.0558 C   0  0  0  0  0  0  0  0  0  0  0  0
   -5.1901    0.4256  -21.8499 C   0  0  0  0  0  0  0  0  0  0  0  0
   -5.6213    0.1038  -20.5288 C   0  0  0  0  0  0  0  0  0  0  0  0
   -7.2716   -2.5944  -21.8450 C   0  0  0  0  0  0  0  0  0  0  0  0
   -8.5904   -2.8849  -22.5735 C   0  0  2  0  0  0  0  0  0  0  0  0
   -8.4854   -3.9071  -23.7019 C   0  0  0  0  0  0  0  0  0  0  0  0
  -10.6341   -1.3376  -23.0483 C   0  0  0  0  0  0  0  0  0  0  0  0
  -11.5247   -2.2289  -22.4322 C   0  0  0  0  0  0  0  0  0  0  0  0
  -12.8773   -1.9655  -22.4561 C   0  0  0  0  0  0  0  0  0  0  0  0
  -13.7129   -2.8103  -21.8261 F   0  0  0  0  0  0  0  0  0  0  0  0
  -13.4135   -0.8509  -23.0866 C   0  0  0  0  0  0  0  0  0  0  0  0
  -12.5459    0.0155  -23.7221 C   0  0  0  0  0  0  0  0  0  0  0  0
  -11.1703   -0.2229  -23.7152 C   0  0  0  0  0  0  0  0  0  0  0  0
  -10.2767    0.7438  -24.4344 C   0  0  0  0  0  0  0  0  0  0  0  0
  -10.6626    1.8592  -24.7844 O   0  0  0  0  0  0  0  0  0  0  0  0
  1  2  1  0
  2  3  1  0
  3  4  1  0
  4  5  1  0
  5  6  1  0
  7  6  1  6
  7  8  1  0
  8  9  2  0
  8 10  1  0
 10 11  1  0
 11 12  2  0
 12 13  1  0
 13 14  2  0
 14 15  1  0
 15 16  2  0
 16 17  1  0
 17 18  2  0
 18 19  1  0
 19 20  2  0
 10 21  1  0
 21 22  1  0
 22 23  1  6
  7 24  1  0
 24 25  2  0
 25 26  1  0
 26 27  1  0
 26 28  2  0
 28 29  1  0
 29 30  2  0
 30 31  1  0
 31 32  2  0
 31  5  1  0
 22  7  1  0
 30 24  1  0
 20 11  1  0
 20 15  1  0
M  CHG  1   2   1
M  END
>  <template_ligand>  (53) 
mol-218

>  <template_receptor>  (53) 
receptors/receptor-218.pdb

>  <SMILES>  (53) 
C[NH2+]CCN1CC2(C(=O)N(c3cncc4ccccc34)CC2C)c2cc(F)ccc2C1=O

>  <LABEL>  (53) 
SARS-CoV-2 Mpro

$$$$
ligand_24
     RDKit          3D

 40 45  0  0  0  0  0  0  0  0999 V2000
    6.3488    4.4414   22.4470 C   0  0  0  0  0  0  0  0  0  0  0  0
    7.1648    3.5398   23.2386 N   0  0  0  0  0  0  0  0  0  0  0  0
    6.8302    3.2658   24.5170 C   0  0  0  0  0  0  0  0  0  0  0  0
    5.9254    3.8403   25.1112 O   0  0  0  0  0  0  0  0  0  0  0  0
    7.6223    2.1637   25.2384 C   0  0  0  0  0  0  0  0  0  0  0  0
    8.5457    1.3807   24.4448 N   0  0  0  0  0  0  0  0  0  0  0  0
    8.2077    0.0023   24.1420 C   0  0  0  0  0  0  0  0  0  0  0  0
    8.8485   -0.4575   22.8087 C   0  0  2  0  0  0  0  0  0  0  0  0
    8.2236    0.3377   21.6291 C   0  0  0  0  0  0  0  0  0  0  0  0
    8.5093    1.4590   21.2541 O   0  0  0  0  0  0  0  0  0  0  0  0
    7.2383   -0.4449   21.0628 N   0  0  0  0  0  0  0  0  0  0  0  0
    6.4136    0.0510   20.0174 C   0  0  0  0  0  0  0  0  0  0  0  0
    6.7395   -0.2055   18.7116 C   0  0  0  0  0  0  0  0  0  0  0  0
    6.0194    0.2139   17.6379 N   0  0  0  0  0  0  0  0  0  0  0  0
    4.9382    0.9167   17.8807 C   0  0  0  0  0  0  0  0  0  0  0  0
    4.4727    1.2511   19.1870 C   0  0  0  0  0  0  0  0  0  0  0  0
    3.2942    2.0167   19.4015 C   0  0  0  0  0  0  0  0  0  0  0  0
    2.8721    2.2994   20.6722 C   0  0  0  0  0  0  0  0  0  0  0  0
    3.6024    1.8290   21.7884 C   0  0  0  0  0  0  0  0  0  0  0  0
    4.7510    1.0987   21.6054 C   0  0  0  0  0  0  0  0  0  0  0  0
    5.2254    0.7994   20.2979 C   0  0  0  0  0  0  0  0  0  0  0  0
    7.0765   -1.7429   21.6953 C   0  0  0  0  0  0  0  0  0  0  0  0
    8.4202   -1.9057   22.4268 C   0  0  2  0  0  0  0  0  0  0  0  0
    8.4036   -2.9317   23.5771 C   0  0  0  0  0  0  0  0  0  0  0  0
    8.2450   -4.3111   23.1771 N   0  0  0  0  0  0  0  0  0  0  0  0
    6.9962   -4.8734   22.9587 C   0  0  0  0  0  0  0  0  0  0  0  0
    6.7249   -6.1099   22.3084 C   0  0  0  0  0  0  0  0  0  0  0  0
    5.4274   -6.3929   22.3259 N   0  0  0  0  0  0  0  0  0  0  0  0
    4.8498   -5.3835   22.9772 N   0  0  0  0  0  0  0  0  0  0  0  0
    3.4152   -5.3363   23.1485 C   0  0  0  0  0  0  0  0  0  0  0  0
    5.7501   -4.4409   23.3759 C   0  0  0  0  0  0  0  0  0  0  0  0
   10.3374   -0.1967   22.9108 C   0  0  0  0  0  0  0  0  0  0  0  0
   11.2942   -1.0158   22.2993 C   0  0  0  0  0  0  0  0  0  0  0  0
   12.6287   -0.6500   22.3054 C   0  0  0  0  0  0  0  0  0  0  0  0
   13.7918   -1.6592   21.4873 Cl  0  0  0  0  0  0  0  0  0  0  0  0
   13.0631    0.5189   22.9323 C   0  0  0  0  0  0  0  0  0  0  0  0
   12.1262    1.3174   23.5612 C   0  0  0  0  0  0  0  0  0  0  0  0
   10.7780    0.9657   23.5618 C   0  0  0  0  0  0  0  0  0  0  0  0
    9.8097    1.8728   24.2662 C   0  0  0  0  0  0  0  0  0  0  0  0
   10.1093    3.0006   24.6417 O   0  0  0  0  0  0  0  0  0  0  0  0
  1  2  1  0
  2  3  1  0
  3  4  2  0
  3  5  1  0
  5  6  1  0
  6  7  1  0
  8  7  1  1
  8  9  1  0
  9 10  2  0
  9 11  1  0
 11 12  1  0
 12 13  2  0
 13 14  1  0
 14 15  2  0
 15 16  1  0
 16 17  2  0
 17 18  1  0
 18 19  2  0
 19 20  1  0
 20 21  2  0
 11 22  1  0
 22 23  1  0
 23 24  1  1
 24 25  1  0
 25 26  1  0
 26 27  1  0
 27 28  2  0
 28 29  1  0
 29 30  1  0
 29 31  1  0
  8 32  1  0
 32 33  2  0
 33 34  1  0
 34 35  1  0
 34 36  2  0
 36 37  1  0
 37 38  2  0
 38 39  1  0
 39 40  2  0
 39  6  1  0
 23  8  1  0
 31 26  2  0
 38 32  1  0
 21 12  1  0
 21 16  1  0
M  END
>  <template_ligand>  (54) 
mol-218

>  <template_receptor>  (54) 
receptors/receptor-218.pdb

>  <SMILES>  (54) 
CNC(=O)CN1CC2(C(=O)N(c3cncc4ccccc34)CC2CNc2cnn(C)c2)c2cc(Cl)ccc2C1=O

>  <LABEL>  (54) 
MERS-CoV Mpro

$$$$
ligand_25
     RDKit          3D

 27 31  0  0  0  0  0  0  0  0999 V2000
    8.5895    1.4178   21.1638 O   0  0  0  0  0  0  0  0  0  0  0  0
    8.3364    0.3119   21.5785 C   0  0  0  0  0  0  0  0  0  0  0  0
    8.8297   -0.3230   22.6855 N   0  0  0  0  0  0  0  0  0  0  0  0
    8.3935   -1.6859   22.8276 C   0  0  2  0  0  0  0  0  0  0  0  0
    7.8363   -2.1401   24.1871 C   0  0  0  0  0  0  0  0  0  0  0  0
    8.7979   -3.3512   24.1756 C   0  0  2  0  0  0  0  0  0  0  0  0
    9.6440   -3.6304   25.3878 C   0  0  0  0  0  0  0  0  0  0  0  0
    9.5830   -4.9119   25.9397 C   0  0  0  0  0  0  0  0  0  0  0  0
   10.3185   -5.2781   27.0554 C   0  0  0  0  0  0  0  0  0  0  0  0
   11.1527   -4.3488   27.6604 C   0  0  0  0  0  0  0  0  0  0  0  0
   11.2430   -3.0657   27.1425 C   0  0  0  0  0  0  0  0  0  0  0  0
   10.4979   -2.7159   26.0219 C   0  0  0  0  0  0  0  0  0  0  0  0
   10.7053   -1.0714   25.4708 Cl  0  0  0  0  0  0  0  0  0  0  0  0
    9.4691   -2.7806   22.9060 C   0  0  0  0  0  0  0  0  0  0  0  0
    7.4311   -1.8276   21.6666 C   0  0  0  0  0  0  0  0  0  0  0  0
    6.7977   -2.8037   21.3540 O   0  0  0  0  0  0  0  0  0  0  0  0
    7.4188   -0.5910   21.0132 N   0  0  0  0  0  0  0  0  0  0  0  0
    6.5590   -0.1914   19.9511 C   0  0  0  0  0  0  0  0  0  0  0  0
    6.9295   -0.3930   18.6492 C   0  0  0  0  0  0  0  0  0  0  0  0
    6.2684    0.1085   17.5722 N   0  0  0  0  0  0  0  0  0  0  0  0
    5.2008    0.8388   17.7916 C   0  0  0  0  0  0  0  0  0  0  0  0
    4.6696    1.0847   19.0893 C   0  0  0  0  0  0  0  0  0  0  0  0
    3.5043    1.8757   19.2953 C   0  0  0  0  0  0  0  0  0  0  0  0
    3.0194    2.0699   20.5585 C   0  0  0  0  0  0  0  0  0  0  0  0
    3.6722    1.4898   21.6704 C   0  0  0  0  0  0  0  0  0  0  0  0
    4.8048    0.7353   21.5000 C   0  0  0  0  0  0  0  0  0  0  0  0
    5.3458    0.5279   20.2036 C   0  0  0  0  0  0  0  0  0  0  0  0
  1  2  2  0
  2  3  1  0
  4  3  1  0
  4  5  1  1
  5  6  1  0
  6  7  1  1
  7  8  2  0
  8  9  1  0
  9 10  2  0
 10 11  1  0
 11 12  2  0
 12 13  1  0
  6 14  1  0
  4 15  1  0
 15 16  2  0
 15 17  1  0
 17 18  1  0
 18 19  2  0
 19 20  1  0
 20 21  2  0
 21 22  1  0
 22 23  2  0
 23 24  1  0
 24 25  2  0
 25 26  1  0
 26 27  2  0
 17  2  1  0
 27 18  1  0
 14  4  1  0
 27 22  1  0
 12  7  1  0
M  END
>  <template_ligand>  (55) 
mol-109

>  <template_receptor>  (55) 
receptors/receptor-109.pdb

>  <SMILES>  (55) 
O=C1NC2(CC(c3ccccc3Cl)C2)C(=O)N1c1cncc2ccccc12

>  <LABEL>  (55) 
MERS-CoV Mpro

$$$$
ligand_27
     RDKit          3D

 38 42  0  0  0  0  0  0  0  0999 V2000
   -7.0516    3.5870  -22.7191 C   0  0  0  0  0  0  0  0  0  0  0  0
   -7.8084    2.6082  -23.4782 N   0  0  0  0  0  0  0  0  0  0  0  0
   -7.4553    2.3364  -24.7552 C   0  0  0  0  0  0  0  0  0  0  0  0
   -6.6069    2.9684  -25.3666 O   0  0  0  0  0  0  0  0  0  0  0  0
   -8.1691    1.1781  -25.4630 C   0  0  0  0  0  0  0  0  0  0  0  0
   -9.0172    0.3260  -24.6601 N   0  0  0  0  0  0  0  0  0  0  0  0
   -8.5528   -1.0067  -24.3176 C   0  0  0  0  0  0  0  0  0  0  0  0
   -9.1359   -1.4899  -22.9658 C   0  0  2  0  0  0  0  0  0  0  0  0
   -8.5686   -0.6186  -21.8147 C   0  0  0  0  0  0  0  0  0  0  0  0
   -8.9359    0.4846  -21.4607 O   0  0  0  0  0  0  0  0  0  0  0  0
   -7.5232   -1.3061  -21.2426 N   0  0  0  0  0  0  0  0  0  0  0  0
   -6.7291   -0.7338  -20.2201 C   0  0  0  0  0  0  0  0  0  0  0  0
   -7.0285   -0.9968  -18.9093 C   0  0  0  0  0  0  0  0  0  0  0  0
   -6.3437   -0.4974  -17.8487 N   0  0  0  0  0  0  0  0  0  0  0  0
   -5.3241    0.2862  -18.1166 C   0  0  0  0  0  0  0  0  0  0  0  0
   -4.8988    0.6311  -19.4339 C   0  0  0  0  0  0  0  0  0  0  0  0
   -3.7882    1.4831  -19.6723 C   0  0  0  0  0  0  0  0  0  0  0  0
   -3.3974    1.7791  -20.9496 C   0  0  0  0  0  0  0  0  0  0  0  0
   -4.0940    1.2378  -22.0531 C   0  0  0  0  0  0  0  0  0  0  0  0
   -5.1798    0.4223  -21.8513 C   0  0  0  0  0  0  0  0  0  0  0  0
   -5.6142    0.1026  -20.5323 C   0  0  0  0  0  0  0  0  0  0  0  0
   -7.2525   -2.5900  -21.8487 C   0  0  0  0  0  0  0  0  0  0  0  0
   -8.5790   -2.8869  -22.5687 C   0  0  2  0  0  0  0  0  0  0  0  0
   -8.4818   -3.9219  -23.6914 C   0  0  0  0  0  0  0  0  0  0  0  0
   -8.0724   -5.5613  -23.0982 S   0  0  0  0  0  0  0  0  0  0  0  0
   -8.6324   -6.5127  -24.0482 O   0  0  0  0  0  0  0  0  0  0  0  0
   -8.3615   -5.6259  -21.6764 O   0  0  0  0  0  0  0  0  0  0  0  0
   -6.4303   -5.6268  -23.2001 N   0  0  0  0  0  0  0  0  0  0  0  0
   -5.7449   -5.9332  -24.4379 C   0  0  0  0  0  0  0  0  0  0  0  0
  -10.6435   -1.3591  -23.0527 C   0  0  0  0  0  0  0  0  0  0  0  0
  -11.5345   -2.2348  -22.4179 C   0  0  0  0  0  0  0  0  0  0  0  0
  -12.8951   -1.9747  -22.4316 C   0  0  0  0  0  0  0  0  0  0  0  0
  -13.9749   -3.0639  -21.6014 Cl  0  0  0  0  0  0  0  0  0  0  0  0
  -13.4255   -0.8548  -23.0721 C   0  0  0  0  0  0  0  0  0  0  0  0
  -12.5554    0.0018  -23.7169 C   0  0  0  0  0  0  0  0  0  0  0  0
  -11.1849   -0.2533  -23.7252 C   0  0  0  0  0  0  0  0  0  0  0  0
  -10.3192    0.7071  -24.4809 C   0  0  0  0  0  0  0  0  0  0  0  0
  -10.7442    1.7771  -24.8950 O   0  0  0  0  0  0  0  0  0  0  0  0
  1  2  1  0
  2  3  1  0
  3  4  2  0
  3  5  1  0
  5  6  1  0
  6  7  1  0
  8  7  1  6
  8  9  1  0
  9 10  2  0
  9 11  1  0
 11 12  1  0
 12 13  2  0
 13 14  1  0
 14 15  2  0
 15 16  1  0
 16 17  2  0
 17 18  1  0
 18 19  2  0
 19 20  1  0
 20 21  2  0
 11 22  1  0
 22 23  1  0
 23 24  1  6
 24 25  1  0
 25 26  2  0
 25 27  2  0
 25 28  1  0
 28 29  1  0
  8 30  1  0
 30 31  2  0
 31 32  1  0
 32 33  1  0
 32 34  2  0
 34 35  1  0
 35 36  2  0
 36 37  1  0
 37 38  2  0
 37  6  1  0
 23  8  1  0
 36 30  1  0
 21 12  1  0
 21 16  1  0
M  END
>  <template_ligand>  (56) 
mol-218

>  <template_receptor>  (56) 
receptors/receptor-218.pdb

>  <SMILES>  (56) 
CNC(=O)CN1CC2(C(=O)N(c3cncc4ccccc34)CC2CS(=O)(=O)NC)c2cc(Cl)ccc2C1=O

>  <LABEL>  (56) 
SARS-CoV-2 Mpro

$$$$
ligand_26
     RDKit          3D

 25 27  0  0  0  0  0  0  0  0999 V2000
   11.3849   -1.9129   21.3819 C   0  0  0  0  0  0  0  0  0  0  0  0
   11.2004   -0.5664   22.0722 C   0  0  0  0  0  0  0  0  0  0  0  0
   10.0927   -0.6229   23.1300 C   0  0  1  0  0  0  0  0  0  0  0  0
   10.1689    0.5295   24.1293 C   0  0  0  0  0  0  0  0  0  0  0  0
    9.1867    0.3353   25.2890 C   0  0  1  0  0  0  0  0  0  0  0  0
    9.4397    1.4755   26.2567 C   0  0  0  0  0  0  0  0  0  0  0  0
    9.3685    2.6817   25.6572 F   0  0  0  0  0  0  0  0  0  0  0  0
    8.6169    1.5088   27.3166 F   0  0  0  0  0  0  0  0  0  0  0  0
   10.6990    1.3267   26.7336 F   0  0  0  0  0  0  0  0  0  0  0  0
    7.7768    0.1637   24.7214 C   0  0  0  0  0  0  0  0  0  0  0  0
    7.7803   -1.0205   23.7346 C   0  0  0  0  0  0  0  0  0  0  0  0
    8.7047   -0.7629   22.6265 N   0  0  0  0  0  0  0  0  0  0  0  0
    8.2989   -0.3358   21.3621 C   0  0  0  0  0  0  0  0  0  0  0  0
    8.8975    0.4963   20.7030 O   0  0  0  0  0  0  0  0  0  0  0  0
    7.0738   -1.0558   20.7622 C   0  0  0  0  0  0  0  0  0  0  0  0
    6.2851   -0.2970   19.7200 C   0  0  0  0  0  0  0  0  0  0  0  0
    6.6355   -0.3728   18.3975 C   0  0  0  0  0  0  0  0  0  0  0  0
    5.9914    0.2348   17.3644 N   0  0  0  0  0  0  0  0  0  0  0  0
    4.9258    0.9375   17.6669 C   0  0  0  0  0  0  0  0  0  0  0  0
    4.4270    1.0975   18.9880 C   0  0  0  0  0  0  0  0  0  0  0  0
    3.2723    1.8710   19.2640 C   0  0  0  0  0  0  0  0  0  0  0  0
    2.8326    2.0366   20.5501 C   0  0  0  0  0  0  0  0  0  0  0  0
    3.5325    1.4285   21.6161 C   0  0  0  0  0  0  0  0  0  0  0  0
    4.6437    0.6648   21.3736 C   0  0  0  0  0  0  0  0  0  0  0  0
    5.1294    0.4731   20.0523 C   0  0  0  0  0  0  0  0  0  0  0  0
  1  2  1  0
  3  2  1  6
  3  4  1  0
  4  5  1  0
  5  6  1  1
  6  7  1  0
  6  8  1  0
  6  9  1  0
  5 10  1  0
 10 11  1  0
 11 12  1  0
 12 13  1  0
 13 14  2  0
 13 15  1  0
 15 16  1  0
 16 17  2  0
 17 18  1  0
 18 19  2  0
 19 20  1  0
 20 21  2  0
 21 22  1  0
 22 23  2  0
 23 24  1  0
 24 25  2  0
 12  3  1  0
 25 16  1  0
 25 20  1  0
M  END
>  <template_ligand>  (57) 
mol-323

>  <template_receptor>  (57) 
receptors/receptor-323.pdb

>  <SMILES>  (57) 
CCC1CC(C(F)(F)F)CCN1C(=O)Cc1cncc2ccccc12

>  <LABEL>  (57) 
MERS-CoV Mpro

$$$$
ligand_27
     RDKit          3D

 39 44  0  0  0  0  0  0  0  0999 V2000
    6.5528    4.3028   22.3060 C   0  0  0  0  0  0  0  0  0  0  0  0
    7.4078    3.4989   23.1774 N   0  0  0  0  0  0  0  0  0  0  0  0
    6.7785    3.2026   24.4836 C   0  0  0  0  0  0  0  0  0  0  0  0
    7.6467    2.2593   25.3384 C   0  0  0  0  0  0  0  0  0  0  0  0
    8.5227    1.4143   24.5429 N   0  0  0  0  0  0  0  0  0  0  0  0
    8.1049    0.0698   24.2084 C   0  0  0  0  0  0  0  0  0  0  0  0
    8.7035   -0.4451   22.8711 C   0  0  2  0  0  0  0  0  0  0  0  0
    8.0868    0.3312   21.6845 C   0  0  0  0  0  0  0  0  0  0  0  0
    8.2458    1.5273   21.4467 O   0  0  0  0  0  0  0  0  0  0  0  0
    7.2673   -0.4844   20.9571 N   0  0  0  0  0  0  0  0  0  0  0  0
    6.4311    0.0463   19.9221 C   0  0  0  0  0  0  0  0  0  0  0  0
    6.7406   -0.1874   18.6081 C   0  0  0  0  0  0  0  0  0  0  0  0
    6.0226    0.2688   17.5496 N   0  0  0  0  0  0  0  0  0  0  0  0
    4.9459    0.9774   17.8065 C   0  0  0  0  0  0  0  0  0  0  0  0
    4.4994    1.2926   19.1217 C   0  0  0  0  0  0  0  0  0  0  0  0
    3.3220    2.0563   19.3531 C   0  0  0  0  0  0  0  0  0  0  0  0
    2.9156    2.3342   20.6311 C   0  0  0  0  0  0  0  0  0  0  0  0
    3.6753    1.8736   21.7291 C   0  0  0  0  0  0  0  0  0  0  0  0
    4.8243    1.1504   21.5331 C   0  0  0  0  0  0  0  0  0  0  0  0
    5.2670    0.8285   20.2178 C   0  0  0  0  0  0  0  0  0  0  0  0
    7.0410   -1.7685   21.6044 C   0  0  0  0  0  0  0  0  0  0  0  0
    8.2167   -1.9050   22.6023 C   0  0  2  0  0  0  0  0  0  0  0  0
    7.8236   -2.7193   23.8622 C   0  0  0  0  0  0  0  0  0  0  0  0
    7.4372   -4.0476   23.5533 O   0  0  0  0  0  0  0  0  0  0  0  0
    8.4294   -5.0201   23.7920 C   0  0  0  0  0  0  0  0  0  0  0  0
    8.2122   -6.1469   22.8215 C   0  0  0  0  0  0  0  0  0  0  0  0
    9.2226   -7.0670   23.0381 F   0  0  0  0  0  0  0  0  0  0  0  0
    6.8437   -6.8174   22.6809 C   0  0  0  0  0  0  0  0  0  0  0  0
    6.7937   -6.4767   21.2838 O   0  0  0  0  0  0  0  0  0  0  0  0
    8.0184   -5.7301   21.3675 C   0  0  0  0  0  0  0  0  0  0  0  0
   10.2060   -0.1932   22.9204 C   0  0  0  0  0  0  0  0  0  0  0  0
   11.1483   -1.0155   22.2911 C   0  0  0  0  0  0  0  0  0  0  0  0
   12.4912   -0.6774   22.3285 C   0  0  0  0  0  0  0  0  0  0  0  0
   13.6505   -1.7273   21.5676 Cl  0  0  0  0  0  0  0  0  0  0  0  0
   12.9467    0.4904   22.9375 C   0  0  0  0  0  0  0  0  0  0  0  0
   12.0190    1.3299   23.5184 C   0  0  0  0  0  0  0  0  0  0  0  0
   10.6677    0.9941   23.5174 C   0  0  0  0  0  0  0  0  0  0  0  0
    9.7126    1.9398   24.1623 C   0  0  0  0  0  0  0  0  0  0  0  0
    9.9692    3.1364   24.3222 O   0  0  0  0  0  0  0  0  0  0  0  0
  1  2  1  0
  2  3  1  0
  3  4  1  0
  4  5  1  0
  5  6  1  0
  7  6  1  1
  7  8  1  0
  8  9  2  0
  8 10  1  0
 10 11  1  0
 11 12  2  0
 12 13  1  0
 13 14  2  0
 14 15  1  0
 15 16  2  0
 16 17  1  0
 17 18  2  0
 18 19  1  0
 19 20  2  0
 10 21  1  0
 21 22  1  0
 22 23  1  1
 23 24  1  0
 24 25  1  0
 25 26  1  0
 26 27  1  0
 26 28  1  0
 28 29  1  0
 29 30  1  0
  7 31  1  0
 31 32  2  0
 32 33  1  0
 33 34  1  0
 33 35  2  0
 35 36  1  0
 36 37  2  0
 37 38  1  0
 38 39  2  0
 38  5  1  0
 22  7  1  0
 30 26  1  0
 37 31  1  0
 20 11  1  0
 20 15  1  0
M  CHG  1   2   1
M  END
>  <template_ligand>  (58) 
mol-218

>  <template_receptor>  (58) 
receptors/receptor-218.pdb

>  <SMILES>  (58) 
C[NH2+]CCN1CC2(C(=O)N(c3cncc4ccccc34)CC2COCC2(F)COC2)c2cc(Cl)ccc2C1=O

>  <LABEL>  (58) 
MERS-CoV Mpro

$$$$
ligand_28
     RDKit          3D

 39 44  0  0  0  0  0  0  0  0999 V2000
    6.3809    4.3897   22.4080 C   0  0  0  0  0  0  0  0  0  0  0  0
    7.2414    3.4448   23.1296 N   0  0  0  0  0  0  0  0  0  0  0  0
    6.8083    3.2346   24.5281 C   0  0  0  0  0  0  0  0  0  0  0  0
    7.6141    2.1395   25.2700 C   0  0  0  0  0  0  0  0  0  0  0  0
    8.5308    1.3712   24.4487 N   0  0  0  0  0  0  0  0  0  0  0  0
    8.1899   -0.0032   24.1449 C   0  0  0  0  0  0  0  0  0  0  0  0
    8.8235   -0.4613   22.8118 C   0  0  2  0  0  0  0  0  0  0  0  0
    8.1289    0.3681   21.7049 C   0  0  0  0  0  0  0  0  0  0  0  0
    8.2481    1.5710   21.5148 O   0  0  0  0  0  0  0  0  0  0  0  0
    7.2508   -0.4433   21.0391 N   0  0  0  0  0  0  0  0  0  0  0  0
    6.4110    0.0491   20.0072 C   0  0  0  0  0  0  0  0  0  0  0  0
    6.7388   -0.2120   18.7019 C   0  0  0  0  0  0  0  0  0  0  0  0
    6.0260    0.2180   17.6326 N   0  0  0  0  0  0  0  0  0  0  0  0
    4.9454    0.9224   17.8793 C   0  0  0  0  0  0  0  0  0  0  0  0
    4.4866    1.2543   19.1881 C   0  0  0  0  0  0  0  0  0  0  0  0
    3.3084    2.0185   19.4045 C   0  0  0  0  0  0  0  0  0  0  0  0
    2.8822    2.3058   20.6722 C   0  0  0  0  0  0  0  0  0  0  0  0
    3.6126    1.8422   21.7874 C   0  0  0  0  0  0  0  0  0  0  0  0
    4.7641    1.1131   21.6075 C   0  0  0  0  0  0  0  0  0  0  0  0
    5.2360    0.8041   20.2984 C   0  0  0  0  0  0  0  0  0  0  0  0
    7.0758   -1.7378   21.6736 C   0  0  0  0  0  0  0  0  0  0  0  0
    8.4056   -1.9098   22.4209 C   0  0  2  0  0  0  0  0  0  0  0  0
    8.3710   -2.9516   23.5562 C   0  0  0  0  0  0  0  0  0  0  0  0
    8.1686   -4.3075   23.0834 N   0  0  0  0  0  0  0  0  0  0  0  0
    6.9670   -4.9060   22.9411 C   0  0  0  0  0  0  0  0  0  0  0  0
    5.8591   -4.3006   23.4169 N   0  0  0  0  0  0  0  0  0  0  0  0
    4.7454   -4.9976   23.2285 C   0  0  0  0  0  0  0  0  0  0  0  0
    4.6263   -6.1673   22.6016 N   0  0  0  0  0  0  0  0  0  0  0  0
    5.8004   -6.6621   22.1889 C   0  0  0  0  0  0  0  0  0  0  0  0
    6.9855   -6.1099   22.3251 N   0  0  0  0  0  0  0  0  0  0  0  0
   10.3157   -0.1875   22.8968 C   0  0  0  0  0  0  0  0  0  0  0  0
   11.2836   -1.0092   22.3019 C   0  0  0  0  0  0  0  0  0  0  0  0
   12.6158   -0.6409   22.3172 C   0  0  0  0  0  0  0  0  0  0  0  0
   13.7874   -1.6475   21.5120 Cl  0  0  0  0  0  0  0  0  0  0  0  0
   13.0451    0.5279   22.9406 C   0  0  0  0  0  0  0  0  0  0  0  0
   12.1050    1.3281   23.5590 C   0  0  0  0  0  0  0  0  0  0  0  0
   10.7548    0.9783   23.5467 C   0  0  0  0  0  0  0  0  0  0  0  0
    9.7788    1.8849   24.2371 C   0  0  0  0  0  0  0  0  0  0  0  0
   10.0684    3.0322   24.5695 O   0  0  0  0  0  0  0  0  0  0  0  0
  1  2  1  0
  2  3  1  0
  3  4  1  0
  4  5  1  0
  5  6  1  0
  7  6  1  1
  7  8  1  0
  8  9  2  0
  8 10  1  0
 10 11  1  0
 11 12  2  0
 12 13  1  0
 13 14  2  0
 14 15  1  0
 15 16  2  0
 16 17  1  0
 17 18  2  0
 18 19  1  0
 19 20  2  0
 10 21  1  0
 21 22  1  0
 22 23  1  1
 23 24  1  0
 24 25  1  0
 25 26  2  0
 26 27  1  0
 27 28  2  0
 28 29  1  0
 29 30  2  0
  7 31  1  0
 31 32  2  0
 32 33  1  0
 33 34  1  0
 33 35  2  0
 35 36  1  0
 36 37  2  0
 37 38  1  0
 38 39  2  0
 38  5  1  0
 22  7  1  0
 30 25  1  0
 37 31  1  0
 20 11  1  0
 20 15  1  0
M  CHG  1   2   1
M  END
>  <template_ligand>  (59) 
mol-218

>  <template_receptor>  (59) 
receptors/receptor-218.pdb

>  <SMILES>  (59) 
C[NH2+]CCN1CC2(C(=O)N(c3cncc4ccccc34)CC2CNc2ncncn2)c2cc(Cl)ccc2C1=O

>  <LABEL>  (59) 
MERS-CoV Mpro

$$$$
ligand_29
     RDKit          3D

 39 44  0  0  0  0  0  0  0  0999 V2000
    6.3508    4.4400   22.4531 C   0  0  0  0  0  0  0  0  0  0  0  0
    7.1562    3.5337   23.2402 N   0  0  0  0  0  0  0  0  0  0  0  0
    6.8276    3.2719   24.5227 C   0  0  0  0  0  0  0  0  0  0  0  0
    5.9277    3.8464   25.1193 O   0  0  0  0  0  0  0  0  0  0  0  0
    7.6127    2.1668   25.2377 C   0  0  0  0  0  0  0  0  0  0  0  0
    8.5358    1.3900   24.4367 N   0  0  0  0  0  0  0  0  0  0  0  0
    8.2089    0.0059   24.1393 C   0  0  0  0  0  0  0  0  0  0  0  0
    8.8487   -0.4626   22.8083 C   0  0  2  0  0  0  0  0  0  0  0  0
    8.2331    0.3378   21.6331 C   0  0  0  0  0  0  0  0  0  0  0  0
    8.5227    1.4615   21.2679 O   0  0  0  0  0  0  0  0  0  0  0  0
    7.2577   -0.4416   21.0521 N   0  0  0  0  0  0  0  0  0  0  0  0
    6.4176    0.0549   20.0173 C   0  0  0  0  0  0  0  0  0  0  0  0
    6.7350   -0.2079   18.7095 C   0  0  0  0  0  0  0  0  0  0  0  0
    6.0163    0.2118   17.6376 N   0  0  0  0  0  0  0  0  0  0  0  0
    4.9352    0.9194   17.8742 C   0  0  0  0  0  0  0  0  0  0  0  0
    4.4664    1.2459   19.1810 C   0  0  0  0  0  0  0  0  0  0  0  0
    3.2901    2.0190   19.3985 C   0  0  0  0  0  0  0  0  0  0  0  0
    2.8747    2.3027   20.6727 C   0  0  0  0  0  0  0  0  0  0  0  0
    3.6032    1.8269   21.7888 C   0  0  0  0  0  0  0  0  0  0  0  0
    4.7498    1.0939   21.6037 C   0  0  0  0  0  0  0  0  0  0  0  0
    5.2197    0.7915   20.2942 C   0  0  0  0  0  0  0  0  0  0  0  0
    7.0810   -1.7293   21.7036 C   0  0  0  0  0  0  0  0  0  0  0  0
    8.4253   -1.9126   22.4281 C   0  0  2  0  0  0  0  0  0  0  0  0
    8.5104   -2.9939   23.5382 C   0  0  0  0  0  0  0  0  0  0  0  0
    7.2217   -3.3639   24.2385 C   0  0  0  0  0  0  0  0  0  0  0  0
    6.2957   -4.1844   23.5876 C   0  0  0  0  0  0  0  0  0  0  0  0
    5.0839   -4.5174   24.1795 C   0  0  0  0  0  0  0  0  0  0  0  0
    4.7723   -4.0392   25.4469 C   0  0  0  0  0  0  0  0  0  0  0  0
    5.6904   -3.2368   26.1158 C   0  0  0  0  0  0  0  0  0  0  0  0
    6.9038   -2.9064   25.5171 C   0  0  0  0  0  0  0  0  0  0  0  0
   10.3357   -0.1999   22.9165 C   0  0  0  0  0  0  0  0  0  0  0  0
   11.2917   -1.0180   22.3024 C   0  0  0  0  0  0  0  0  0  0  0  0
   12.6257   -0.6495   22.3080 C   0  0  0  0  0  0  0  0  0  0  0  0
   13.7790   -1.6585   21.4795 Cl  0  0  0  0  0  0  0  0  0  0  0  0
   13.0602    0.5204   22.9350 C   0  0  0  0  0  0  0  0  0  0  0  0
   12.1217    1.3209   23.5631 C   0  0  0  0  0  0  0  0  0  0  0  0
   10.7703    0.9701   23.5625 C   0  0  0  0  0  0  0  0  0  0  0  0
    9.7992    1.8832   24.2573 C   0  0  0  0  0  0  0  0  0  0  0  0
   10.0994    3.0117   24.6245 O   0  0  0  0  0  0  0  0  0  0  0  0
  1  2  1  0
  2  3  1  0
  3  4  2  0
  3  5  1  0
  5  6  1  0
  6  7  1  0
  8  7  1  1
  8  9  1  0
  9 10  2  0
  9 11  1  0
 11 12  1  0
 12 13  2  0
 13 14  1  0
 14 15  2  0
 15 16  1  0
 16 17  2  0
 17 18  1  0
 18 19  2  0
 19 20  1  0
 20 21  2  0
 11 22  1  0
 22 23  1  0
 23 24  1  1
 24 25  1  0
 25 26  2  0
 26 27  1  0
 27 28  2  0
 28 29  1  0
 29 30  2  0
  8 31  1  0
 31 32  2  0
 32 33  1  0
 33 34  1  0
 33 35  2  0
 35 36  1  0
 36 37  2  0
 37 38  1  0
 38 39  2  0
 38  6  1  0
 23  8  1  0
 30 25  1  0
 37 31  1  0
 21 12  1  0
 21 16  1  0
M  END
>  <template_ligand>  (60) 
mol-218

>  <template_receptor>  (60) 
receptors/receptor-218.pdb

>  <SMILES>  (60) 
CNC(=O)CN1CC2(C(=O)N(c3cncc4ccccc34)CC2Cc2ccccc2)c2cc(Cl)ccc2C1=O

>  <LABEL>  (60) 
MERS-CoV Mpro

$$$$
ligand_30
     RDKit          3D

 41 47  0  0  0  0  0  0  0  0999 V2000
   10.9955    2.8161   25.2757 O   0  0  0  0  0  0  0  0  0  0  0  0
   10.5716    1.9067   24.5808 C   0  0  0  0  0  0  0  0  0  0  0  0
   11.4625    1.0559   23.7306 C   0  0  0  0  0  0  0  0  0  0  0  0
   12.8198    1.3708   23.7206 C   0  0  0  0  0  0  0  0  0  0  0  0
   13.6771    0.7375   22.8440 C   0  0  0  0  0  0  0  0  0  0  0  0
   13.1490   -0.2173   21.9769 C   0  0  0  0  0  0  0  0  0  0  0  0
   14.2002   -1.0193   20.8476 Cl  0  0  0  0  0  0  0  0  0  0  0  0
   11.8074   -0.5473   21.9816 C   0  0  0  0  0  0  0  0  0  0  0  0
   10.9353    0.0676   22.8859 C   0  0  0  0  0  0  0  0  0  0  0  0
    9.4533   -0.2352   22.8220 C   0  0  1  0  0  0  0  0  0  0  0  0
    8.7910    0.2893   24.1211 C   0  0  0  0  0  0  0  0  0  0  0  0
    9.2328    1.6378   24.4347 N   0  0  0  0  0  0  0  0  0  0  0  0
    8.2958    2.7238   24.6331 C   0  0  0  0  0  0  0  0  0  0  0  0
    8.1552    3.6622   23.4604 C   0  0  0  0  0  0  0  0  0  0  0  0
    8.7414    4.7969   23.2887 N   0  0  0  0  0  0  0  0  0  0  0  0
    8.1857    5.3713   22.1507 N   0  0  0  0  0  0  0  0  0  0  0  0
    7.2937    4.5408   21.7435 C   0  0  0  0  0  0  0  0  0  0  0  0
    7.2221    3.4243   22.5090 O   0  0  0  0  0  0  0  0  0  0  0  0
    8.7836    0.4404   21.6017 C   0  0  0  0  0  0  0  0  0  0  0  0
    9.0860    1.4808   21.0596 O   0  0  0  0  0  0  0  0  0  0  0  0
    7.7320   -0.3663   21.2160 N   0  0  0  0  0  0  0  0  0  0  0  0
    6.8548    0.0081   20.1708 C   0  0  0  0  0  0  0  0  0  0  0  0
    7.1766   -0.2814   18.8703 C   0  0  0  0  0  0  0  0  0  0  0  0
    6.4203    0.0602   17.7949 N   0  0  0  0  0  0  0  0  0  0  0  0
    5.3083    0.7149   18.0353 C   0  0  0  0  0  0  0  0  0  0  0  0
    4.8588    1.0857   19.3370 C   0  0  0  0  0  0  0  0  0  0  0  0
    3.6552    1.8112   19.5437 C   0  0  0  0  0  0  0  0  0  0  0  0
    3.2547    2.1486   20.8059 C   0  0  0  0  0  0  0  0  0  0  0  0
    4.0326    1.7787   21.9241 C   0  0  0  0  0  0  0  0  0  0  0  0
    5.2017    1.0783   21.7539 C   0  0  0  0  0  0  0  0  0  0  0  0
    5.6450    0.7167   20.4506 C   0  0  0  0  0  0  0  0  0  0  0  0
    7.6674   -1.6300   21.9179 C   0  0  0  0  0  0  0  0  0  0  0  0
    9.0638   -1.7187   22.5531 C   0  0  2  0  0  0  0  0  0  0  0  0
    9.1662   -2.6701   23.7533 C   0  0  0  0  0  0  0  0  0  0  0  0
    9.0801   -4.0738   23.4167 N   0  0  0  0  0  0  0  0  0  0  0  0
    7.9293   -4.7344   23.1198 C   0  0  0  0  0  0  0  0  0  0  0  0
    6.6500   -4.3296   23.5433 C   0  0  0  0  0  0  0  0  0  0  0  0
    5.5889   -5.1140   23.1367 C   0  0  0  0  0  0  0  0  0  0  0  0
    5.7208   -6.2128   22.3848 N   0  0  0  0  0  0  0  0  0  0  0  0
    6.9762   -6.5089   22.0764 C   0  0  0  0  0  0  0  0  0  0  0  0
    8.0830   -5.8573   22.4016 N   0  0  0  0  0  0  0  0  0  0  0  0
  1  2  2  0
  2  3  1  0
  3  4  2  0
  4  5  1  0
  5  6  2  0
  6  7  1  0
  6  8  1  0
  8  9  2  0
  9 10  1  0
 10 11  1  1
 11 12  1  0
 12 13  1  0
 13 14  1  0
 14 15  2  0
 15 16  1  0
 16 17  2  0
 17 18  1  0
 10 19  1  0
 19 20  2  0
 19 21  1  0
 21 22  1  0
 22 23  2  0
 23 24  1  0
 24 25  2  0
 25 26  1  0
 26 27  2  0
 27 28  1  0
 28 29  2  0
 29 30  1  0
 30 31  2  0
 21 32  1  0
 32 33  1  0
 33 34  1  1
 34 35  1  0
 35 36  1  0
 36 37  2  0
 37 38  1  0
 38 39  2  0
 39 40  1  0
 40 41  2  0
 12  2  1  0
 18 14  1  0
 31 22  1  0
 41 36  1  0
  9  3  1  0
 33 10  1  0
 31 26  1  0
M  END
>  <template_ligand>  (61) 
mol-246

>  <template_receptor>  (61) 
receptors/receptor-246.pdb

>  <SMILES>  (61) 
O=C1c2ccc(Cl)cc2C2(CN1Cc1nnco1)C(=O)N(c1cncc3ccccc13)CC2CNc1ccncn1

>  <LABEL>  (61) 
MERS-CoV Mpro

$$$$
ligand_31
     RDKit          3D

 38 43  0  0  0  0  0  0  0  0999 V2000
    9.1594   -2.6026   23.7822 C   0  0  0  0  0  0  0  0  0  0  0  0
    9.0489   -1.6776   22.5811 C   0  0  1  0  0  0  0  0  0  0  0  0
    7.6572   -1.6298   21.9327 C   0  0  0  0  0  0  0  0  0  0  0  0
    7.7227   -0.3923   21.1778 N   0  0  0  0  0  0  0  0  0  0  0  0
    6.8407   -0.0126   20.1438 C   0  0  0  0  0  0  0  0  0  0  0  0
    7.1746   -0.2777   18.8414 C   0  0  0  0  0  0  0  0  0  0  0  0
    6.4191    0.0697   17.7707 N   0  0  0  0  0  0  0  0  0  0  0  0
    5.3047    0.7185   18.0256 C   0  0  0  0  0  0  0  0  0  0  0  0
    4.8568    1.0780   19.3303 C   0  0  0  0  0  0  0  0  0  0  0  0
    3.6556    1.8064   19.5319 C   0  0  0  0  0  0  0  0  0  0  0  0
    3.2542    2.1411   20.7960 C   0  0  0  0  0  0  0  0  0  0  0  0
    4.0262    1.7643   21.9153 C   0  0  0  0  0  0  0  0  0  0  0  0
    5.1941    1.0597   21.7495 C   0  0  0  0  0  0  0  0  0  0  0  0
    5.6380    0.6967   20.4429 C   0  0  0  0  0  0  0  0  0  0  0  0
    8.7998    0.4060   21.4934 C   0  0  0  0  0  0  0  0  0  0  0  0
    9.1402    1.3795   20.8526 O   0  0  0  0  0  0  0  0  0  0  0  0
    9.4355   -0.1768   22.7771 C   0  0  1  0  0  0  0  0  0  0  0  0
    8.7517    0.4491   24.0220 C   0  0  0  0  0  0  0  0  0  0  0  0
    9.1893    1.8129   24.2440 N   0  0  0  0  0  0  0  0  0  0  0  0
    8.2397    2.8917   24.4139 C   0  0  0  0  0  0  0  0  0  0  0  0
    7.9029    3.5403   23.0635 C   0  0  0  0  0  0  0  0  0  0  0  0
    7.1039    4.8115   23.1751 N   0  0  1  0  0  0  0  0  0  0  0  0
    5.8437    4.7014   24.0042 C   0  0  0  0  0  0  0  0  0  0  0  0
    5.1061    6.0285   24.0153 C   0  0  0  0  0  0  0  0  0  0  0  0
    5.9186    7.0772   24.5004 O   0  0  0  0  0  0  0  0  0  0  0  0
    7.1049    7.2863   23.7203 C   0  0  0  0  0  0  0  0  0  0  0  0
    6.7627    7.8065   22.3186 C   0  0  0  0  0  0  0  0  0  0  0  0
    7.8974    8.3206   24.5021 C   0  0  0  0  0  0  0  0  0  0  0  0
    7.9292    5.9907   23.6245 C   0  0  0  0  0  0  0  0  0  0  0  0
   10.5189    2.0665   24.4292 C   0  0  0  0  0  0  0  0  0  0  0  0
   10.9463    3.0130   25.0767 O   0  0  0  0  0  0  0  0  0  0  0  0
   11.4241    1.1437   23.6676 C   0  0  0  0  0  0  0  0  0  0  0  0
   12.7898    1.4015   23.7226 C   0  0  0  0  0  0  0  0  0  0  0  0
   13.6591    0.7361   22.8826 C   0  0  0  0  0  0  0  0  0  0  0  0
   13.1373   -0.2076   22.0007 C   0  0  0  0  0  0  0  0  0  0  0  0
   14.1914   -1.0162   20.8841 Cl  0  0  0  0  0  0  0  0  0  0  0  0
   11.7964   -0.5333   21.9897 C   0  0  0  0  0  0  0  0  0  0  0  0
   10.9125    0.1266   22.8482 C   0  0  0  0  0  0  0  0  0  0  0  0
  2  1  1  1
  2  3  1  0
  3  4  1  0
  4  5  1  0
  5  6  2  0
  6  7  1  0
  7  8  2  0
  8  9  1  0
  9 10  2  0
 10 11  1  0
 11 12  2  0
 12 13  1  0
 13 14  2  0
  4 15  1  0
 15 16  2  0
 15 17  1  0
 17 18  1  1
 18 19  1  0
 19 20  1  0
 20 21  1  0
 22 21  1  1
 22 23  1  0
 23 24  1  0
 24 25  1  0
 25 26  1  0
 26 27  1  0
 26 28  1  0
 26 29  1  0
 19 30  1  0
 30 31  2  0
 30 32  1  0
 32 33  2  0
 33 34  1  0
 34 35  2  0
 35 36  1  0
 35 37  1  0
 37 38  2  0
 17  2  1  0
 29 22  1  0
 38 32  1  0
 14  5  1  0
 38 17  1  0
 14  9  1  0
M  CHG  1  22   1
M  END
>  <template_ligand>  (62) 
mol-246

>  <template_receptor>  (62) 
receptors/receptor-246.pdb

>  <SMILES>  (62) 
CC1CN(c2cncc3ccccc23)C(=O)C12CN(CC[NH+]1CCOC(C)(C)C1)C(=O)c1ccc(Cl)cc12

>  <LABEL>  (62) 
MERS-CoV Mpro

$$$$
ligand_25
     RDKit          3D

 34 39  0  0  0  0  0  0  0  0999 V2000
   -8.4800   -3.9142  -23.7110 C   0  0  0  0  0  0  0  0  0  0  0  0
   -8.5931   -2.8983  -22.5816 C   0  0  1  0  0  0  0  0  0  0  0  0
   -7.2711   -2.5946  -21.8674 C   0  0  0  0  0  0  0  0  0  0  0  0
   -7.5256   -1.3060  -21.2481 N   0  0  0  0  0  0  0  0  0  0  0  0
   -6.7246   -0.7392  -20.2210 C   0  0  0  0  0  0  0  0  0  0  0  0
   -7.0128   -1.0006  -18.9037 C   0  0  0  0  0  0  0  0  0  0  0  0
   -6.3231   -0.4994  -17.8494 N   0  0  0  0  0  0  0  0  0  0  0  0
   -5.3030    0.2885  -18.1100 C   0  0  0  0  0  0  0  0  0  0  0  0
   -4.8756    0.6249  -19.4282 C   0  0  0  0  0  0  0  0  0  0  0  0
   -3.7710    1.4894  -19.6765 C   0  0  0  0  0  0  0  0  0  0  0  0
   -3.3970    1.7838  -20.9604 C   0  0  0  0  0  0  0  0  0  0  0  0
   -4.0938    1.2252  -22.0534 C   0  0  0  0  0  0  0  0  0  0  0  0
   -5.1674    0.3939  -21.8422 C   0  0  0  0  0  0  0  0  0  0  0  0
   -5.5933    0.0847  -20.5215 C   0  0  0  0  0  0  0  0  0  0  0  0
   -8.5825   -0.6220  -21.8194 C   0  0  0  0  0  0  0  0  0  0  0  0
   -8.9679    0.4637  -21.4598 O   0  0  0  0  0  0  0  0  0  0  0  0
   -9.1432   -1.4994  -22.9705 C   0  0  1  0  0  0  0  0  0  0  0  0
   -8.5531   -1.0080  -24.3199 C   0  0  0  0  0  0  0  0  0  0  0  0
   -8.9978    0.3320  -24.6441 N   0  0  0  0  0  0  0  0  0  0  0  0
   -8.1374    1.1776  -25.4452 C   0  0  0  0  0  0  0  0  0  0  0  0
   -7.6104    2.3525  -24.6930 C   0  0  0  0  0  0  0  0  0  0  0  0
   -7.3407    3.6295  -25.1781 C   0  0  0  0  0  0  0  0  0  0  0  0
   -6.8129    4.3686  -24.2070 N   0  0  0  0  0  0  0  0  0  0  0  0
   -6.7874    3.5278  -23.1987 N   0  0  0  0  0  0  0  0  0  0  0  0
   -7.2426    2.3066  -23.4120 N   0  0  0  0  0  0  0  0  0  0  0  0
  -10.2862    0.7441  -24.4389 C   0  0  0  0  0  0  0  0  0  0  0  0
  -10.6865    1.8327  -24.8277 O   0  0  0  0  0  0  0  0  0  0  0  0
  -11.1799   -0.2360  -23.7291 C   0  0  0  0  0  0  0  0  0  0  0  0
  -12.5574    0.0016  -23.7218 C   0  0  0  0  0  0  0  0  0  0  0  0
  -13.4198   -0.8609  -23.0730 C   0  0  0  0  0  0  0  0  0  0  0  0
  -12.8783   -1.9747  -22.4428 C   0  0  0  0  0  0  0  0  0  0  0  0
  -13.6995   -2.8212  -21.7991 F   0  0  0  0  0  0  0  0  0  0  0  0
  -11.5241   -2.2426  -22.4335 C   0  0  0  0  0  0  0  0  0  0  0  0
  -10.6477   -1.3597  -23.0729 C   0  0  0  0  0  0  0  0  0  0  0  0
  2  1  1  6
  2  3  1  0
  3  4  1  0
  4  5  1  0
  5  6  2  0
  6  7  1  0
  7  8  2  0
  8  9  1  0
  9 10  2  0
 10 11  1  0
 11 12  2  0
 12 13  1  0
 13 14  2  0
  4 15  1  0
 15 16  2  0
 15 17  1  0
 17 18  1  6
 18 19  1  0
 19 20  1  0
 20 21  1  0
 21 22  1  0
 22 23  2  0
 23 24  1  0
 24 25  1  0
 19 26  1  0
 26 27  2  0
 26 28  1  0
 28 29  2  0
 29 30  1  0
 30 31  2  0
 31 32  1  0
 31 33  1  0
 33 34  2  0
 17  2  1  0
 25 21  2  0
 34 28  1  0
 14  5  1  0
 34 17  1  0
 14  9  1  0
M  END
>  <template_ligand>  (63) 
mol-218

>  <template_receptor>  (63) 
receptors/receptor-218.pdb

>  <SMILES>  (63) 
CC1CN(c2cncc3ccccc23)C(=O)C12CN(Cc1cn[nH]n1)C(=O)c1ccc(F)cc12

>  <LABEL>  (63) 
SARS-CoV-2 Mpro

$$$$
ligand_32
     RDKit          3D

 25 28  0  0  0  0  0  0  0  0999 V2000
    8.3008    0.8107   21.1270 O   0  0  0  0  0  0  0  0  0  0  0  0
    7.9818   -0.2319   21.6525 C   0  0  0  0  0  0  0  0  0  0  0  0
    6.9212   -1.1768   21.0537 C   0  0  0  0  0  0  0  0  0  0  0  0
    6.1955   -0.5145   19.9171 C   0  0  0  0  0  0  0  0  0  0  0  0
    6.6720   -0.6301   18.6410 C   0  0  0  0  0  0  0  0  0  0  0  0
    6.1527   -0.0152   17.5493 N   0  0  0  0  0  0  0  0  0  0  0  0
    5.1145    0.7575   17.7295 C   0  0  0  0  0  0  0  0  0  0  0  0
    4.5227    0.9990   18.9970 C   0  0  0  0  0  0  0  0  0  0  0  0
    3.4126    1.8684   19.1554 C   0  0  0  0  0  0  0  0  0  0  0  0
    2.8817    2.0974   20.3953 C   0  0  0  0  0  0  0  0  0  0  0  0
    3.4415    1.4637   21.5313 C   0  0  0  0  0  0  0  0  0  0  0  0
    4.5130    0.6156   21.4026 C   0  0  0  0  0  0  0  0  0  0  0  0
    5.0844    0.3516   20.1307 C   0  0  0  0  0  0  0  0  0  0  0  0
    8.5985   -0.6683   22.8785 N   0  0  0  0  0  0  0  0  0  0  0  0
   10.0717   -0.6844   22.9145 C   0  0  0  0  0  0  0  0  0  0  0  0
   10.5002    0.4246   23.8671 C   0  0  0  0  0  0  0  0  0  0  0  0
    9.4051    0.3767   24.9323 C   0  0  0  0  0  0  0  0  0  0  0  0
    8.1345   -0.0048   24.1356 C   0  0  2  0  0  0  0  0  0  0  0  0
    7.2135   -0.9261   24.8986 C   0  0  0  0  0  0  0  0  0  0  0  0
    5.9940   -0.4702   25.3898 C   0  0  0  0  0  0  0  0  0  0  0  0
    5.1481   -1.3301   26.0779 C   0  0  0  0  0  0  0  0  0  0  0  0
    5.5030   -2.6530   26.2979 C   0  0  0  0  0  0  0  0  0  0  0  0
    6.7303   -3.0779   25.8180 C   0  0  0  0  0  0  0  0  0  0  0  0
    7.0900   -4.3555   26.0237 F   0  0  0  0  0  0  0  0  0  0  0  0
    7.5962   -2.2462   25.1317 C   0  0  0  0  0  0  0  0  0  0  0  0
  1  2  2  0
  2  3  1  0
  3  4  1  0
  4  5  2  0
  5  6  1  0
  6  7  2  0
  7  8  1  0
  8  9  2  0
  9 10  1  0
 10 11  2  0
 11 12  1  0
 12 13  2  0
  2 14  1  0
 14 15  1  0
 15 16  1  0
 16 17  1  0
 17 18  1  0
 18 19  1  1
 19 20  2  0
 20 21  1  0
 21 22  2  0
 22 23  1  0
 23 24  1  0
 23 25  2  0
 13  4  1  0
 18 14  1  0
 25 19  1  0
 13  8  1  0
M  END
>  <template_ligand>  (64) 
mol-160

>  <template_receptor>  (64) 
receptors/receptor-160.pdb

>  <SMILES>  (64) 
O=C(Cc1cncc2ccccc12)N1CCCC1c1cccc(F)c1

>  <LABEL>  (64) 
MERS-CoV Mpro

$$$$
ligand_29
     RDKit          3D

 36 41  0  0  0  0  0  0  0  0999 V2000
   -8.4799   -3.9137  -23.7108 C   0  0  0  0  0  0  0  0  0  0  0  0
   -8.5924   -2.8966  -22.5828 C   0  0  1  0  0  0  0  0  0  0  0  0
   -7.2709   -2.5942  -21.8673 C   0  0  0  0  0  0  0  0  0  0  0  0
   -7.5265   -1.3080  -21.2473 N   0  0  0  0  0  0  0  0  0  0  0  0
   -6.7258   -0.7382  -20.2214 C   0  0  0  0  0  0  0  0  0  0  0  0
   -7.0132   -0.9999  -18.9058 C   0  0  0  0  0  0  0  0  0  0  0  0
   -6.3229   -0.4994  -17.8494 N   0  0  0  0  0  0  0  0  0  0  0  0
   -5.3040    0.2879  -18.1116 C   0  0  0  0  0  0  0  0  0  0  0  0
   -4.8763    0.6256  -19.4290 C   0  0  0  0  0  0  0  0  0  0  0  0
   -3.7721    1.4894  -19.6785 C   0  0  0  0  0  0  0  0  0  0  0  0
   -3.3956    1.7826  -20.9612 C   0  0  0  0  0  0  0  0  0  0  0  0
   -4.0968    1.2312  -22.0597 C   0  0  0  0  0  0  0  0  0  0  0  0
   -5.1740    0.4064  -21.8463 C   0  0  0  0  0  0  0  0  0  0  0  0
   -5.5957    0.0868  -20.5253 C   0  0  0  0  0  0  0  0  0  0  0  0
   -8.5824   -0.6208  -21.8169 C   0  0  0  0  0  0  0  0  0  0  0  0
   -8.9597    0.4672  -21.4552 O   0  0  0  0  0  0  0  0  0  0  0  0
   -9.1433   -1.4963  -22.9726 C   0  0  1  0  0  0  0  0  0  0  0  0
   -8.5557   -0.9997  -24.3227 C   0  0  0  0  0  0  0  0  0  0  0  0
   -9.0125    0.3360  -24.6600 N   0  0  0  0  0  0  0  0  0  0  0  0
   -8.1306    1.1832  -25.4337 C   0  0  0  0  0  0  0  0  0  0  0  0
   -7.3086    2.1621  -24.6058 C   0  0  0  0  0  0  0  0  0  0  0  0
   -6.1356    2.6505  -25.1194 C   0  0  0  0  0  0  0  0  0  0  0  0
   -5.3349    3.5951  -24.3823 C   0  0  0  0  0  0  0  0  0  0  0  0
   -4.2794    4.0998  -24.7274 O   0  0  0  0  0  0  0  0  0  0  0  0
   -5.9052    3.9011  -23.1328 N   0  0  0  0  0  0  0  0  0  0  0  0
   -7.0816    3.3638  -22.7029 C   0  0  0  0  0  0  0  0  0  0  0  0
   -7.7983    2.5214  -23.3790 N   0  0  0  0  0  0  0  0  0  0  0  0
  -10.3005    0.7459  -24.4468 C   0  0  0  0  0  0  0  0  0  0  0  0
  -10.7166    1.8295  -24.8304 O   0  0  0  0  0  0  0  0  0  0  0  0
  -11.1831   -0.2376  -23.7290 C   0  0  0  0  0  0  0  0  0  0  0  0
  -12.5592    0.0010  -23.7209 C   0  0  0  0  0  0  0  0  0  0  0  0
  -13.4218   -0.8612  -23.0728 C   0  0  0  0  0  0  0  0  0  0  0  0
  -12.8780   -1.9750  -22.4431 C   0  0  0  0  0  0  0  0  0  0  0  0
  -13.6992   -2.8209  -21.7994 F   0  0  0  0  0  0  0  0  0  0  0  0
  -11.5244   -2.2426  -22.4331 C   0  0  0  0  0  0  0  0  0  0  0  0
  -10.6478   -1.3600  -23.0731 C   0  0  0  0  0  0  0  0  0  0  0  0
  2  1  1  6
  2  3  1  0
  3  4  1  0
  4  5  1  0
  5  6  2  0
  6  7  1  0
  7  8  2  0
  8  9  1  0
  9 10  2  0
 10 11  1  0
 11 12  2  0
 12 13  1  0
 13 14  2  0
  4 15  1  0
 15 16  2  0
 15 17  1  0
 17 18  1  6
 18 19  1  0
 19 20  1  0
 20 21  1  0
 21 22  2  0
 22 23  1  0
 23 24  2  0
 23 25  1  0
 25 26  1  0
 26 27  2  0
 19 28  1  0
 28 29  2  0
 28 30  1  0
 30 31  2  0
 31 32  1  0
 32 33  2  0
 33 34  1  0
 33 35  1  0
 35 36  2  0
 17  2  1  0
 27 21  1  0
 36 30  1  0
 14  5  1  0
 36 17  1  0
 14  9  1  0
M  END
>  <template_ligand>  (65) 
mol-218

>  <template_receptor>  (65) 
receptors/receptor-218.pdb

>  <SMILES>  (65) 
CC1CN(c2cncc3ccccc23)C(=O)C12CN(Cc1cc(=O)[nH]cn1)C(=O)c1ccc(F)cc12

>  <LABEL>  (65) 
SARS-CoV-2 Mpro

$$$$
ligand_30
     RDKit          3D

 40 45  0  0  0  0  0  0  0  0999 V2000
   -7.0528    3.5827  -22.7140 C   0  0  0  0  0  0  0  0  0  0  0  0
   -7.8120    2.6025  -23.4697 N   0  0  0  0  0  0  0  0  0  0  0  0
   -7.4585    2.3298  -24.7459 C   0  0  0  0  0  0  0  0  0  0  0  0
   -6.6081    2.9643  -25.3597 O   0  0  0  0  0  0  0  0  0  0  0  0
   -8.1724    1.1761  -25.4636 C   0  0  0  0  0  0  0  0  0  0  0  0
   -9.0176    0.3180  -24.6640 N   0  0  0  0  0  0  0  0  0  0  0  0
   -8.5486   -1.0159  -24.3206 C   0  0  0  0  0  0  0  0  0  0  0  0
   -9.1345   -1.5036  -22.9692 C   0  0  2  0  0  0  0  0  0  0  0  0
   -8.5660   -0.6297  -21.8241 C   0  0  0  0  0  0  0  0  0  0  0  0
   -8.9368    0.4782  -21.4845 O   0  0  0  0  0  0  0  0  0  0  0  0
   -7.5251   -1.3128  -21.2420 N   0  0  0  0  0  0  0  0  0  0  0  0
   -6.7334   -0.7353  -20.2215 C   0  0  0  0  0  0  0  0  0  0  0  0
   -7.0323   -0.9951  -18.9096 C   0  0  0  0  0  0  0  0  0  0  0  0
   -6.3487   -0.4951  -17.8474 N   0  0  0  0  0  0  0  0  0  0  0  0
   -5.3279    0.2867  -18.1155 C   0  0  0  0  0  0  0  0  0  0  0  0
   -4.9051    0.6321  -19.4337 C   0  0  0  0  0  0  0  0  0  0  0  0
   -3.7926    1.4824  -19.6701 C   0  0  0  0  0  0  0  0  0  0  0  0
   -3.3997    1.7793  -20.9463 C   0  0  0  0  0  0  0  0  0  0  0  0
   -4.0959    1.2410  -22.0508 C   0  0  0  0  0  0  0  0  0  0  0  0
   -5.1834    0.4272  -21.8508 C   0  0  0  0  0  0  0  0  0  0  0  0
   -5.6198    0.1049  -20.5326 C   0  0  0  0  0  0  0  0  0  0  0  0
   -7.2530   -2.5991  -21.8450 C   0  0  0  0  0  0  0  0  0  0  0  0
   -8.5882   -2.8981  -22.5486 C   0  0  2  0  0  0  0  0  0  0  0  0
   -8.5152   -3.9631  -23.6556 C   0  0  0  0  0  0  0  0  0  0  0  0
   -8.2441   -5.3151  -23.2078 N   0  0  0  0  0  0  0  0  0  0  0  0
   -7.0093   -5.7682  -22.8638 C   0  0  0  0  0  0  0  0  0  0  0  0
   -5.8113   -5.2165  -23.3508 C   0  0  0  0  0  0  0  0  0  0  0  0
   -4.6425   -5.7870  -22.8915 C   0  0  0  0  0  0  0  0  0  0  0  0
   -4.6058   -6.7712  -21.9909 N   0  0  0  0  0  0  0  0  0  0  0  0
   -5.7966   -7.2059  -21.6088 C   0  0  0  0  0  0  0  0  0  0  0  0
   -6.9883   -6.8082  -22.0205 N   0  0  0  0  0  0  0  0  0  0  0  0
  -10.6408   -1.3659  -23.0555 C   0  0  0  0  0  0  0  0  0  0  0  0
  -11.5337   -2.2384  -22.4204 C   0  0  0  0  0  0  0  0  0  0  0  0
  -12.8928   -1.9749  -22.4338 C   0  0  0  0  0  0  0  0  0  0  0  0
  -13.9742   -3.0639  -21.6097 Cl  0  0  0  0  0  0  0  0  0  0  0  0
  -13.4226   -0.8543  -23.0707 C   0  0  0  0  0  0  0  0  0  0  0  0
  -12.5533    0.0012  -23.7146 C   0  0  0  0  0  0  0  0  0  0  0  0
  -11.1831   -0.2586  -23.7244 C   0  0  0  0  0  0  0  0  0  0  0  0
  -10.3214    0.6987  -24.4881 C   0  0  0  0  0  0  0  0  0  0  0  0
  -10.7582    1.7615  -24.9083 O   0  0  0  0  0  0  0  0  0  0  0  0
  1  2  1  0
  2  3  1  0
  3  4  2  0
  3  5  1  0
  5  6  1  0
  6  7  1  0
  8  7  1  6
  8  9  1  0
  9 10  2  0
  9 11  1  0
 11 12  1  0
 12 13  2  0
 13 14  1  0
 14 15  2  0
 15 16  1  0
 16 17  2  0
 17 18  1  0
 18 19  2  0
 19 20  1  0
 20 21  2  0
 11 22  1  0
 22 23  1  0
 23 24  1  6
 24 25  1  0
 25 26  1  0
 26 27  2  0
 27 28  1  0
 28 29  2  0
 29 30  1  0
 30 31  2  0
  8 32  1  0
 32 33  2  0
 33 34  1  0
 34 35  1  0
 34 36  2  0
 36 37  1  0
 37 38  2  0
 38 39  1  0
 39 40  2  0
 39  6  1  0
 23  8  1  0
 31 26  1  0
 38 32  1  0
 21 12  1  0
 21 16  1  0
M  END
>  <template_ligand>  (66) 
mol-218

>  <template_receptor>  (66) 
receptors/receptor-218.pdb

>  <SMILES>  (66) 
CNC(=O)CN1CC2(C(=O)N(c3cncc4ccccc34)CC2CNc2ccncn2)c2cc(Cl)ccc2C1=O

>  <LABEL>  (66) 
SARS-CoV-2 Mpro

$$$$
ligand_31
     RDKit          3D

 35 40  0  0  0  0  0  0  0  0999 V2000
   -8.4803   -3.9143  -23.7109 C   0  0  0  0  0  0  0  0  0  0  0  0
   -8.5904   -2.8991  -22.5833 C   0  0  1  0  0  0  0  0  0  0  0  0
   -7.2692   -2.5953  -21.8666 C   0  0  0  0  0  0  0  0  0  0  0  0
   -7.5291   -1.3097  -21.2441 N   0  0  0  0  0  0  0  0  0  0  0  0
   -6.7273   -0.7378  -20.2199 C   0  0  0  0  0  0  0  0  0  0  0  0
   -7.0140   -1.0004  -18.9026 C   0  0  0  0  0  0  0  0  0  0  0  0
   -6.3234   -0.5003  -17.8490 N   0  0  0  0  0  0  0  0  0  0  0  0
   -5.3044    0.2884  -18.1097 C   0  0  0  0  0  0  0  0  0  0  0  0
   -4.8776    0.6254  -19.4292 C   0  0  0  0  0  0  0  0  0  0  0  0
   -3.7710    1.4890  -19.6762 C   0  0  0  0  0  0  0  0  0  0  0  0
   -3.3945    1.7826  -20.9608 C   0  0  0  0  0  0  0  0  0  0  0  0
   -4.0884    1.2252  -22.0547 C   0  0  0  0  0  0  0  0  0  0  0  0
   -5.1564    0.3868  -21.8402 C   0  0  0  0  0  0  0  0  0  0  0  0
   -5.5949    0.0834  -20.5205 C   0  0  0  0  0  0  0  0  0  0  0  0
   -8.5840   -0.6317  -21.8174 C   0  0  0  0  0  0  0  0  0  0  0  0
   -8.9701    0.4624  -21.4653 O   0  0  0  0  0  0  0  0  0  0  0  0
   -9.1426   -1.5014  -22.9724 C   0  0  1  0  0  0  0  0  0  0  0  0
   -8.5529   -0.9885  -24.3139 C   0  0  0  0  0  0  0  0  0  0  0  0
   -8.9744    0.3819  -24.5821 N   0  0  0  0  0  0  0  0  0  0  0  0
   -8.1380    1.1734  -25.4814 C   0  0  0  0  0  0  0  0  0  0  0  0
   -8.2313    2.6458  -25.2682 C   0  0  0  0  0  0  0  0  0  0  0  0
   -8.6241    3.5154  -26.1674 N   0  0  0  0  0  0  0  0  0  0  0  0
   -8.5520    4.7232  -25.5737 N   0  0  0  0  0  0  0  0  0  0  0  0
   -8.0923    4.6156  -24.3763 N   0  0  0  0  0  0  0  0  0  0  0  0
   -7.8722    3.3166  -24.1592 N   0  0  0  0  0  0  0  0  0  0  0  0
   -7.2765    2.8589  -22.9264 C   0  0  0  0  0  0  0  0  0  0  0  0
  -10.2936    0.7401  -24.4281 C   0  0  0  0  0  0  0  0  0  0  0  0
  -10.7523    1.8014  -24.8244 O   0  0  0  0  0  0  0  0  0  0  0  0
  -11.1796   -0.2473  -23.7256 C   0  0  0  0  0  0  0  0  0  0  0  0
  -12.5587   -0.0027  -23.7205 C   0  0  0  0  0  0  0  0  0  0  0  0
  -13.4228   -0.8624  -23.0728 C   0  0  0  0  0  0  0  0  0  0  0  0
  -12.8792   -1.9755  -22.4430 C   0  0  0  0  0  0  0  0  0  0  0  0
  -13.6997   -2.8213  -21.7992 F   0  0  0  0  0  0  0  0  0  0  0  0
  -11.5255   -2.2454  -22.4303 C   0  0  0  0  0  0  0  0  0  0  0  0
  -10.6470   -1.3649  -23.0679 C   0  0  0  0  0  0  0  0  0  0  0  0
  2  1  1  6
  2  3  1  0
  3  4  1  0
  4  5  1  0
  5  6  2  0
  6  7  1  0
  7  8  2  0
  8  9  1  0
  9 10  2  0
 10 11  1  0
 11 12  2  0
 12 13  1  0
 13 14  2  0
  4 15  1  0
 15 16  2  0
 15 17  1  0
 17 18  1  6
 18 19  1  0
 19 20  1  0
 20 21  1  0
 21 22  2  0
 22 23  1  0
 23 24  2  0
 24 25  1  0
 25 26  1  0
 19 27  1  0
 27 28  2  0
 27 29  1  0
 29 30  2  0
 30 31  1  0
 31 32  2  0
 32 33  1  0
 32 34  1  0
 34 35  2  0
 17  2  1  0
 25 21  1  0
 35 29  1  0
 14  5  1  0
 35 17  1  0
 14  9  1  0
M  END
>  <template_ligand>  (67) 
mol-218

>  <template_receptor>  (67) 
receptors/receptor-218.pdb

>  <SMILES>  (67) 
CC1CN(c2cncc3ccccc23)C(=O)C12CN(Cc1nnnn1C)C(=O)c1ccc(F)cc12

>  <LABEL>  (67) 
SARS-CoV-2 Mpro

$$$$
ligand_33
     RDKit          3D

 35 40  0  0  0  0  0  0  0  0999 V2000
    8.3727   -2.9122   23.5782 C   0  0  0  0  0  0  0  0  0  0  0  0
    8.4135   -1.9055   22.4360 C   0  0  1  0  0  0  0  0  0  0  0  0
    7.0786   -1.7292   21.6989 C   0  0  0  0  0  0  0  0  0  0  0  0
    7.2429   -0.4400   21.0556 N   0  0  0  0  0  0  0  0  0  0  0  0
    6.4124    0.0547   20.0156 C   0  0  0  0  0  0  0  0  0  0  0  0
    6.7352   -0.2075   18.7083 C   0  0  0  0  0  0  0  0  0  0  0  0
    6.0184    0.2124   17.6372 N   0  0  0  0  0  0  0  0  0  0  0  0
    4.9375    0.9213   17.8759 C   0  0  0  0  0  0  0  0  0  0  0  0
    4.4693    1.2517   19.1806 C   0  0  0  0  0  0  0  0  0  0  0  0
    3.2933    2.0240   19.4011 C   0  0  0  0  0  0  0  0  0  0  0  0
    2.8743    2.3060   20.6733 C   0  0  0  0  0  0  0  0  0  0  0  0
    3.6015    1.8265   21.7871 C   0  0  0  0  0  0  0  0  0  0  0  0
    4.7512    1.0977   21.6007 C   0  0  0  0  0  0  0  0  0  0  0  0
    5.2193    0.7960   20.2942 C   0  0  0  0  0  0  0  0  0  0  0  0
    8.2361    0.3363   21.6191 C   0  0  0  0  0  0  0  0  0  0  0  0
    8.5426    1.4350   21.2192 O   0  0  0  0  0  0  0  0  0  0  0  0
    8.8478   -0.4598   22.8040 C   0  0  1  0  0  0  0  0  0  0  0  0
    8.2123    0.0047   24.1422 C   0  0  0  0  0  0  0  0  0  0  0  0
    8.5584    1.3764   24.4639 N   0  0  0  0  0  0  0  0  0  0  0  0
    7.6003    2.1631   25.2086 C   0  0  0  0  0  0  0  0  0  0  0  0
    6.7247    3.0285   24.3480 C   0  0  0  0  0  0  0  0  0  0  0  0
    5.4706    3.5515   24.6713 C   0  0  0  0  0  0  0  0  0  0  0  0
    5.0364    4.2965   23.6548 N   0  0  0  0  0  0  0  0  0  0  0  0
    6.0095    4.2047   22.7737 N   0  0  0  0  0  0  0  0  0  0  0  0
    5.9140    4.7684   21.4473 C   0  0  0  0  0  0  0  0  0  0  0  0
    7.0343    3.4472   23.1207 N   0  0  0  0  0  0  0  0  0  0  0  0
    9.8094    1.8890   24.2540 C   0  0  0  0  0  0  0  0  0  0  0  0
   10.1187    3.0131   24.6225 O   0  0  0  0  0  0  0  0  0  0  0  0
   10.7735    0.9695   23.5565 C   0  0  0  0  0  0  0  0  0  0  0  0
   12.1247    1.3197   23.5588 C   0  0  0  0  0  0  0  0  0  0  0  0
   13.0662    0.5199   22.9392 C   0  0  0  0  0  0  0  0  0  0  0  0
   12.6175   -0.6458   22.3239 C   0  0  0  0  0  0  0  0  0  0  0  0
   13.5134   -1.4333   21.7036 F   0  0  0  0  0  0  0  0  0  0  0  0
   11.2888   -1.0221   22.3016 C   0  0  0  0  0  0  0  0  0  0  0  0
   10.3354   -0.2031   22.9163 C   0  0  0  0  0  0  0  0  0  0  0  0
  2  1  1  1
  2  3  1  0
  3  4  1  0
  4  5  1  0
  5  6  2  0
  6  7  1  0
  7  8  2  0
  8  9  1  0
  9 10  2  0
 10 11  1  0
 11 12  2  0
 12 13  1  0
 13 14  2  0
  4 15  1  0
 15 16  2  0
 15 17  1  0
 17 18  1  1
 18 19  1  0
 19 20  1  0
 20 21  1  0
 21 22  1  0
 22 23  2  0
 23 24  1  0
 24 25  1  0
 24 26  1  0
 19 27  1  0
 27 28  2  0
 27 29  1  0
 29 30  2  0
 30 31  1  0
 31 32  2  0
 32 33  1  0
 32 34  1  0
 34 35  2  0
 17  2  1  0
 26 21  2  0
 35 29  1  0
 14  5  1  0
 35 17  1  0
 14  9  1  0
M  END
>  <template_ligand>  (68) 
mol-218

>  <template_receptor>  (68) 
receptors/receptor-218.pdb

>  <SMILES>  (68) 
CC1CN(c2cncc3ccccc23)C(=O)C12CN(Cc1cnn(C)n1)C(=O)c1ccc(F)cc12

>  <LABEL>  (68) 
MERS-CoV Mpro

$$$$
ligand_34
     RDKit          3D

 31 34  0  0  0  0  0  0  0  0999 V2000
    8.0409   -5.1466   28.0150 N   0  0  0  0  0  0  0  0  0  0  0  0
    8.3238   -5.1549   26.8956 C   0  0  0  0  0  0  0  0  0  0  0  0
    8.6433   -5.1593   25.4630 C   0  0  0  0  0  0  0  0  0  0  0  0
    8.6484   -3.7821   24.8139 C   0  0  0  0  0  0  0  0  0  0  0  0
    7.9141   -2.7070   25.3133 C   0  0  0  0  0  0  0  0  0  0  0  0
    7.9622   -1.4601   24.6906 C   0  0  0  0  0  0  0  0  0  0  0  0
    8.7206   -1.2724   23.5310 C   0  0  0  0  0  0  0  0  0  0  0  0
    8.8054    0.0190   22.9126 N   0  0  0  0  0  0  0  0  0  0  0  0
    9.5676    1.0652   23.5946 C   0  0  0  0  0  0  0  0  0  0  0  0
   11.0268    1.1918   23.1573 C   0  0  0  0  0  0  0  0  0  0  0  0
   11.7116    2.3986   23.3288 C   0  0  0  0  0  0  0  0  0  0  0  0
   13.0362    2.5265   22.9139 C   0  0  0  0  0  0  0  0  0  0  0  0
   13.7020    1.4611   22.3173 C   0  0  0  0  0  0  0  0  0  0  0  0
   13.0294    0.2552   22.1853 C   0  0  0  0  0  0  0  0  0  0  0  0
   13.8328   -1.1079   21.4543 Cl  0  0  0  0  0  0  0  0  0  0  0  0
   11.7191    0.1064   22.6210 C   0  0  0  0  0  0  0  0  0  0  0  0
    8.3500    0.2918   21.6302 C   0  0  0  0  0  0  0  0  0  0  0  0
    8.5961    1.3491   21.0716 O   0  0  0  0  0  0  0  0  0  0  0  0
    7.5037   -0.7927   20.9360 C   0  0  0  0  0  0  0  0  0  0  0  0
    6.5804   -0.2453   19.8789 C   0  0  0  0  0  0  0  0  0  0  0  0
    6.8378   -0.4121   18.5456 C   0  0  0  0  0  0  0  0  0  0  0  0
    6.1122    0.1033   17.5109 N   0  0  0  0  0  0  0  0  0  0  0  0
    5.0744    0.8269   17.8338 C   0  0  0  0  0  0  0  0  0  0  0  0
    4.6681    1.0767   19.1744 C   0  0  0  0  0  0  0  0  0  0  0  0
    3.5299    1.8693   19.4727 C   0  0  0  0  0  0  0  0  0  0  0  0
    3.1591    2.1043   20.7693 C   0  0  0  0  0  0  0  0  0  0  0  0
    3.9114    1.5504   21.8283 C   0  0  0  0  0  0  0  0  0  0  0  0
    5.0169    0.7788   21.5686 C   0  0  0  0  0  0  0  0  0  0  0  0
    5.4312    0.5255   20.2322 C   0  0  0  0  0  0  0  0  0  0  0  0
    9.3977   -2.3691   22.9938 C   0  0  0  0  0  0  0  0  0  0  0  0
    9.3911   -3.5902   23.6538 C   0  0  0  0  0  0  0  0  0  0  0  0
  1  2  3  0
  2  3  1  0
  3  4  1  0
  4  5  2  0
  5  6  1  0
  6  7  2  0
  7  8  1  0
  8  9  1  0
  9 10  1  0
 10 11  2  0
 11 12  1  0
 12 13  2  0
 13 14  1  0
 14 15  1  0
 14 16  2  0
  8 17  1  0
 17 18  2  0
 17 19  1  0
 19 20  1  0
 20 21  2  0
 21 22  1  0
 22 23  2  0
 23 24  1  0
 24 25  2  0
 25 26  1  0
 26 27  2  0
 27 28  1  0
 28 29  2  0
  7 30  1  0
 30 31  2  0
 31  4  1  0
 16 10  1  0
 29 20  1  0
 29 24  1  0
M  END
>  <template_ligand>  (69) 
mol-58

>  <template_receptor>  (69) 
receptors/receptor-58.pdb

>  <SMILES>  (69) 
N#CCc1ccc(N(Cc2cccc(Cl)c2)C(=O)Cc2cncc3ccccc23)cc1

>  <LABEL>  (69) 
MERS-CoV Mpro

$$$$
ligand_32
     RDKit          3D

 28 29  0  0  0  0  0  0  0  0999 V2000
   -8.3206   -1.4868  -21.3166 C   0  0  0  0  0  0  0  0  0  0  0  0
   -8.7027   -1.8682  -22.7451 C   0  0  2  0  0  0  0  0  0  0  0  0
   -7.7422   -1.3218  -23.7017 N   0  0  0  0  0  0  0  0  0  0  0  0
   -7.8492   -1.6447  -25.0267 C   0  0  0  0  0  0  0  0  0  0  0  0
   -8.5051   -2.5980  -25.4079 O   0  0  0  0  0  0  0  0  0  0  0  0
   -7.0970   -0.7577  -26.0221 C   0  0  0  0  0  0  0  0  0  0  0  0
   -7.8279    0.4889  -26.2267 O   0  0  0  0  0  0  0  0  0  0  0  0
   -7.0768    1.4617  -27.3083 S   0  0  0  0  0  0  0  0  0  0  0  0
   -8.0604    2.7623  -27.3307 N   0  0  0  0  0  0  0  0  0  0  0  0
   -5.8192    1.8738  -26.7339 O   0  0  0  0  0  0  0  0  0  0  0  0
   -7.1476    0.8450  -28.6118 O   0  0  0  0  0  0  0  0  0  0  0  0
  -10.1256   -1.3969  -23.0494 C   0  0  0  0  0  0  0  0  0  0  0  0
  -11.1929   -2.2893  -22.9361 C   0  0  0  0  0  0  0  0  0  0  0  0
  -12.4809   -1.8322  -23.1923 C   0  0  0  0  0  0  0  0  0  0  0  0
  -13.8132   -2.9519  -23.1119 Cl  0  0  0  0  0  0  0  0  0  0  0  0
  -12.7242   -0.5075  -23.5243 C   0  0  0  0  0  0  0  0  0  0  0  0
  -11.6637    0.3997  -23.6424 C   0  0  0  0  0  0  0  0  0  0  0  0
  -11.9234    1.8090  -24.0509 C   0  0  0  0  0  0  0  0  0  0  0  0
  -13.0813    2.4592  -23.6070 C   0  0  0  0  0  0  0  0  0  0  0  0
  -13.3923    3.7508  -24.0037 C   0  0  0  0  0  0  0  0  0  0  0  0
  -12.5194    4.4170  -24.8596 C   0  0  0  0  0  0  0  0  0  0  0  0
  -12.9360    6.0535  -25.4273 S   0  0  0  0  0  0  0  0  0  0  0  0
  -13.7567    5.8719  -26.8549 N   0  0  0  0  0  0  0  0  0  0  0  0
  -13.8815    6.6236  -24.4905 O   0  0  0  0  0  0  0  0  0  0  0  0
  -11.7011    6.7172  -25.8037 O   0  0  0  0  0  0  0  0  0  0  0  0
  -11.3487    3.8034  -25.3046 C   0  0  0  0  0  0  0  0  0  0  0  0
  -11.0515    2.5072  -24.9007 C   0  0  0  0  0  0  0  0  0  0  0  0
  -10.3699   -0.0688  -23.4005 C   0  0  0  0  0  0  0  0  0  0  0  0
  2  1  1  1
  2  3  1  0
  3  4  1  0
  4  5  2  0
  4  6  1  0
  6  7  1  0
  7  8  1  0
  8  9  1  0
  8 10  2  0
  8 11  2  0
  2 12  1  0
 12 13  2  0
 13 14  1  0
 14 15  1  0
 14 16  2  0
 16 17  1  0
 17 18  1  0
 18 19  2  0
 19 20  1  0
 20 21  2  0
 21 22  1  0
 22 23  1  0
 22 24  2  0
 22 25  2  0
 21 26  1  0
 26 27  2  0
 17 28  2  0
 28 12  1  0
 27 18  1  0
M  END
>  <template_ligand>  (70) 
mol-668

>  <template_receptor>  (70) 
receptors/receptor-668.pdb

>  <SMILES>  (70) 
CC(NC(=O)COS(N)(=O)=O)c1cc(Cl)cc(-c2ccc(S(N)(=O)=O)cc2)c1

>  <LABEL>  (70) 
SARS-CoV-2 Mpro

$$$$
ligand_2
     RDKit          3D

 37 41  0  0  0  0  0  0  0  0999 V2000
   -7.0479    3.5969  -22.7356 C   0  0  0  0  0  0  0  0  0  0  0  0
   -7.7863    2.6134  -23.4980 N   0  0  0  0  0  0  0  0  0  0  0  0
   -7.4493    2.3560  -24.7798 C   0  0  0  0  0  0  0  0  0  0  0  0
   -6.6063    2.9907  -25.3960 O   0  0  0  0  0  0  0  0  0  0  0  0
   -8.1495    1.1783  -25.4665 C   0  0  0  0  0  0  0  0  0  0  0  0
   -8.9984    0.3449  -24.6399 N   0  0  0  0  0  0  0  0  0  0  0  0
   -8.5554   -0.9988  -24.3222 C   0  0  0  0  0  0  0  0  0  0  0  0
   -9.1453   -1.4902  -22.9744 C   0  0  2  0  0  0  0  0  0  0  0  0
   -8.5813   -0.6243  -21.8213 C   0  0  0  0  0  0  0  0  0  0  0  0
   -8.9585    0.4767  -21.4717 O   0  0  0  0  0  0  0  0  0  0  0  0
   -7.5330   -1.3107  -21.2452 N   0  0  0  0  0  0  0  0  0  0  0  0
   -6.7295   -0.7366  -20.2222 C   0  0  0  0  0  0  0  0  0  0  0  0
   -7.0152   -0.9986  -18.9075 C   0  0  0  0  0  0  0  0  0  0  0  0
   -6.3231   -0.5007  -17.8509 N   0  0  0  0  0  0  0  0  0  0  0  0
   -5.3053    0.2867  -18.1130 C   0  0  0  0  0  0  0  0  0  0  0  0
   -4.8773    0.6265  -19.4297 C   0  0  0  0  0  0  0  0  0  0  0  0
   -3.7704    1.4881  -19.6759 C   0  0  0  0  0  0  0  0  0  0  0  0
   -3.3929    1.7807  -20.9590 C   0  0  0  0  0  0  0  0  0  0  0  0
   -4.0921    1.2274  -22.0578 C   0  0  0  0  0  0  0  0  0  0  0  0
   -5.1726    0.4074  -21.8463 C   0  0  0  0  0  0  0  0  0  0  0  0
   -5.6012    0.0915  -20.5261 C   0  0  0  0  0  0  0  0  0  0  0  0
   -7.2688   -2.5961  -21.8691 C   0  0  0  0  0  0  0  0  0  0  0  0
   -8.5972   -2.8856  -22.5864 C   0  0  2  0  0  0  0  0  0  0  0  0
   -8.5167   -3.9130  -23.7130 C   0  0  0  0  0  0  0  0  0  0  0  0
   -8.2738   -5.1997  -23.1929 O   0  0  0  0  0  0  0  0  0  0  0  0
   -6.9570   -5.6991  -23.3714 C   0  0  0  0  0  0  0  0  0  0  0  0
   -6.8301   -6.4044  -24.7133 C   0  0  0  0  0  0  0  0  0  0  0  0
   -6.6557   -6.6305  -22.2125 C   0  0  0  0  0  0  0  0  0  0  0  0
  -10.6490   -1.3585  -23.0724 C   0  0  0  0  0  0  0  0  0  0  0  0
  -11.5275   -2.2398  -22.4300 C   0  0  0  0  0  0  0  0  0  0  0  0
  -12.8866   -1.9796  -22.4278 C   0  0  0  0  0  0  0  0  0  0  0  0
  -13.9467   -3.0619  -21.5690 Cl  0  0  0  0  0  0  0  0  0  0  0  0
  -13.4207   -0.8606  -23.0710 C   0  0  0  0  0  0  0  0  0  0  0  0
  -12.5578    0.0015  -23.7242 C   0  0  0  0  0  0  0  0  0  0  0  0
  -11.1834   -0.2404  -23.7339 C   0  0  0  0  0  0  0  0  0  0  0  0
  -10.2960    0.7352  -24.4537 C   0  0  0  0  0  0  0  0  0  0  0  0
  -10.6909    1.8283  -24.8351 O   0  0  0  0  0  0  0  0  0  0  0  0
  1  2  1  0
  2  3  1  0
  3  4  2  0
  3  5  1  0
  5  6  1  0
  6  7  1  0
  8  7  1  6
  8  9  1  0
  9 10  2  0
  9 11  1  0
 11 12  1  0
 12 13  2  0
 13 14  1  0
 14 15  2  0
 15 16  1  0
 16 17  2  0
 17 18  1  0
 18 19  2  0
 19 20  1  0
 20 21  2  0
 11 22  1  0
 22 23  1  0
 23 24  1  6
 24 25  1  0
 25 26  1  0
 26 27  1  0
 26 28  1  0
  8 29  1  0
 29 30  2  0
 30 31  1  0
 31 32  1  0
 31 33  2  0
 33 34  1  0
 34 35  2  0
 35 36  1  0
 36 37  2  0
 36  6  1  0
 23  8  1  0
 35 29  1  0
 21 12  1  0
 21 16  1  0
M  END
>  <template_ligand>  (71) 
mol-218

>  <template_receptor>  (71) 
receptors/receptor-218.pdb

>  <SMILES>  (71) 
CNC(=O)CN1CC2(C(=O)N(c3cncc4ccccc34)CC2COC(C)C)c2cc(Cl)ccc2C1=O

>  <LABEL>  (71) 
SARS-CoV-2 Mpro

$$$$
ligand_34
     RDKit          3D

 23 25  0  0  0  0  0  0  0  0999 V2000
   -9.9090   -0.1974  -20.8828 O   0  0  0  0  0  0  0  0  0  0  0  0
   -8.9423   -0.5308  -21.5546 C   0  0  0  0  0  0  0  0  0  0  0  0
   -7.6811    0.3000  -21.5231 C   0  0  0  0  0  0  0  0  0  0  0  0
   -6.8072    0.0095  -20.3366 C   0  0  0  0  0  0  0  0  0  0  0  0
   -7.3230   -0.4453  -19.1535 C   0  0  0  0  0  0  0  0  0  0  0  0
   -6.6347   -0.5041  -17.9816 N   0  0  0  0  0  0  0  0  0  0  0  0
   -5.3995   -0.0651  -18.0033 C   0  0  0  0  0  0  0  0  0  0  0  0
   -4.7293    0.4218  -19.1633 C   0  0  0  0  0  0  0  0  0  0  0  0
   -3.4392    1.0233  -19.1552 C   0  0  0  0  0  0  0  0  0  0  0  0
   -2.8128    1.2995  -20.3411 C   0  0  0  0  0  0  0  0  0  0  0  0
   -3.4346    1.0114  -21.5727 C   0  0  0  0  0  0  0  0  0  0  0  0
   -4.7167    0.5373  -21.6014 C   0  0  0  0  0  0  0  0  0  0  0  0
   -5.4199    0.3168  -20.3900 C   0  0  0  0  0  0  0  0  0  0  0  0
   -8.9658   -1.6616  -22.3423 N   0  0  0  0  0  0  0  0  0  0  0  0
  -10.3019   -2.0670  -22.7725 C   0  0  0  0  0  0  0  0  0  0  0  0
  -10.7625   -1.1378  -23.9091 C   0  0  0  0  0  0  0  0  0  0  0  0
   -9.7269   -1.0723  -25.0562 C   0  0  0  0  0  0  0  0  0  0  0  0
  -10.0616    0.0204  -26.0547 C   0  0  0  0  0  0  0  0  0  0  0  0
   -9.1254    0.1234  -27.0205 F   0  0  0  0  0  0  0  0  0  0  0  0
  -10.1203    1.2322  -25.4590 F   0  0  0  0  0  0  0  0  0  0  0  0
  -11.2465   -0.1738  -26.6626 F   0  0  0  0  0  0  0  0  0  0  0  0
   -8.2988   -0.8234  -24.5408 C   0  0  0  0  0  0  0  0  0  0  0  0
   -8.0047   -1.8192  -23.4264 C   0  0  0  0  0  0  0  0  0  0  0  0
  1  2  2  0
  2  3  1  0
  3  4  1  0
  4  5  2  0
  5  6  1  0
  6  7  2  0
  7  8  1  0
  8  9  2  0
  9 10  1  0
 10 11  2  0
 11 12  1  0
 12 13  2  0
  2 14  1  0
 14 15  1  0
 15 16  1  0
 16 17  1  0
 17 18  1  0
 18 19  1  0
 18 20  1  0
 18 21  1  0
 17 22  1  0
 22 23  1  0
 13  4  1  0
 23 14  1  0
 13  8  1  0
M  END
>  <template_ligand>  (72) 
mol-323

>  <template_receptor>  (72) 
receptors/receptor-323.pdb

>  <SMILES>  (72) 
O=C(Cc1cncc2ccccc12)N1CCC(C(F)(F)F)CC1

>  <LABEL>  (72) 
SARS-CoV-2 Mpro

$$$$
ligand_35
     RDKit          3D

 25 28  0  0  0  0  0  0  0  0999 V2000
   -6.9048   -2.9249  -23.8957 O   0  0  0  0  0  0  0  0  0  0  0  0
   -7.9958   -3.4767  -23.9695 C   0  0  0  0  0  0  0  0  0  0  0  0
   -9.1520   -2.9913  -23.1011 C   0  0  0  0  0  0  0  0  0  0  0  0
   -9.7516   -1.6674  -23.5083 C   0  0  0  0  0  0  0  0  0  0  0  0
   -9.0382   -0.6885  -24.1506 C   0  0  0  0  0  0  0  0  0  0  0  0
   -9.5635    0.4819  -24.5962 N   0  0  0  0  0  0  0  0  0  0  0  0
  -10.8436    0.6785  -24.3971 C   0  0  0  0  0  0  0  0  0  0  0  0
  -11.6941   -0.2244  -23.7016 C   0  0  0  0  0  0  0  0  0  0  0  0
  -13.0853   -0.0001  -23.5304 C   0  0  0  0  0  0  0  0  0  0  0  0
  -13.8201   -0.8483  -22.7421 C   0  0  0  0  0  0  0  0  0  0  0  0
  -13.1866   -1.9038  -22.0467 C   0  0  0  0  0  0  0  0  0  0  0  0
  -11.8516   -2.1547  -22.2239 C   0  0  0  0  0  0  0  0  0  0  0  0
  -11.0984   -1.3756  -23.1400 C   0  0  0  0  0  0  0  0  0  0  0  0
   -8.1935   -4.5598  -24.7954 N   0  0  0  0  0  0  0  0  0  0  0  0
   -9.5101   -5.1235  -25.0938 C   0  0  0  0  0  0  0  0  0  0  0  0
   -9.5826   -5.6470  -26.5227 C   0  0  0  0  0  0  0  0  0  0  0  0
   -8.4462   -6.6178  -26.8097 C   0  0  0  0  0  0  0  0  0  0  0  0
   -7.1095   -5.9257  -26.5611 C   0  0  0  0  0  0  0  0  0  0  0  0
   -6.9814   -5.3065  -25.1668 C   0  0  2  0  0  0  0  0  0  0  0  0
   -6.5246   -6.2831  -24.0810 C   0  0  0  0  0  0  0  0  0  0  0  0
   -7.3473   -7.2898  -23.5772 C   0  0  0  0  0  0  0  0  0  0  0  0
   -6.8792   -8.1649  -22.6004 C   0  0  0  0  0  0  0  0  0  0  0  0
   -5.5876   -8.0306  -22.1022 C   0  0  0  0  0  0  0  0  0  0  0  0
   -4.7470   -7.0512  -22.6168 C   0  0  0  0  0  0  0  0  0  0  0  0
   -5.2176   -6.1825  -23.5953 C   0  0  0  0  0  0  0  0  0  0  0  0
  1  2  2  0
  2  3  1  0
  3  4  1  0
  4  5  2  0
  5  6  1  0
  6  7  2  0
  7  8  1  0
  8  9  2  0
  9 10  1  0
 10 11  2  0
 11 12  1  0
 12 13  2  0
  2 14  1  0
 14 15  1  0
 15 16  1  0
 16 17  1  0
 17 18  1  0
 18 19  1  0
 19 20  1  1
 20 21  2  0
 21 22  1  0
 22 23  2  0
 23 24  1  0
 24 25  2  0
 13  4  1  0
 19 14  1  0
 25 20  1  0
 13  8  1  0
M  END
>  <template_ligand>  (73) 
mol-73

>  <template_receptor>  (73) 
receptors/receptor-73.pdb

>  <SMILES>  (73) 
O=C(Cc1cncc2ccccc12)N1CCCCC1c1ccccc1

>  <LABEL>  (73) 
SARS-CoV-2 Mpro

$$$$
ligand_35
     RDKit          3D

 35 40  0  0  0  0  0  0  0  0999 V2000
    8.3735   -2.9117   23.5794 C   0  0  0  0  0  0  0  0  0  0  0  0
    8.4145   -1.9086   22.4359 C   0  0  1  0  0  0  0  0  0  0  0  0
    7.0815   -1.7270   21.6998 C   0  0  0  0  0  0  0  0  0  0  0  0
    7.2443   -0.4362   21.0577 N   0  0  0  0  0  0  0  0  0  0  0  0
    6.4119    0.0520   20.0179 C   0  0  0  0  0  0  0  0  0  0  0  0
    6.7328   -0.2102   18.7093 C   0  0  0  0  0  0  0  0  0  0  0  0
    6.0162    0.2127   17.6377 N   0  0  0  0  0  0  0  0  0  0  0  0
    4.9333    0.9204   17.8726 C   0  0  0  0  0  0  0  0  0  0  0  0
    4.4645    1.2438   19.1817 C   0  0  0  0  0  0  0  0  0  0  0  0
    3.2897    2.0197   19.3987 C   0  0  0  0  0  0  0  0  0  0  0  0
    2.8780    2.3052   20.6746 C   0  0  0  0  0  0  0  0  0  0  0  0
    3.6080    1.8305   21.7882 C   0  0  0  0  0  0  0  0  0  0  0  0
    4.7541    1.0973   21.6050 C   0  0  0  0  0  0  0  0  0  0  0  0
    5.2122    0.7875   20.2926 C   0  0  0  0  0  0  0  0  0  0  0  0
    8.2332    0.3372   21.6281 C   0  0  0  0  0  0  0  0  0  0  0  0
    8.5330    1.4486   21.2488 O   0  0  0  0  0  0  0  0  0  0  0  0
    8.8485   -0.4624   22.8061 C   0  0  1  0  0  0  0  0  0  0  0  0
    8.2069    0.0082   24.1406 C   0  0  0  0  0  0  0  0  0  0  0  0
    8.5364    1.3874   24.4592 N   0  0  0  0  0  0  0  0  0  0  0  0
    7.5737    2.1590   25.2330 C   0  0  0  0  0  0  0  0  0  0  0  0
    6.7025    3.0571   24.4002 C   0  0  0  0  0  0  0  0  0  0  0  0
    7.1062    3.7578   23.2488 C   0  0  0  0  0  0  0  0  0  0  0  0
    6.0015    4.4806   22.8752 C   0  0  0  0  0  0  0  0  0  0  0  0
    5.0270    4.1856   23.7665 N   0  0  0  0  0  0  0  0  0  0  0  0
    3.7190    4.7959   23.8165 C   0  0  0  0  0  0  0  0  0  0  0  0
    5.4342    3.3227   24.7115 N   0  0  0  0  0  0  0  0  0  0  0  0
    9.7953    1.8886   24.2553 C   0  0  0  0  0  0  0  0  0  0  0  0
   10.1172    3.0140   24.6170 O   0  0  0  0  0  0  0  0  0  0  0  0
   10.7680    0.9696   23.5600 C   0  0  0  0  0  0  0  0  0  0  0  0
   12.1229    1.3198   23.5603 C   0  0  0  0  0  0  0  0  0  0  0  0
   13.0614    0.5196   22.9380 C   0  0  0  0  0  0  0  0  0  0  0  0
   12.6165   -0.6449   22.3235 C   0  0  0  0  0  0  0  0  0  0  0  0
   13.5097   -1.4331   21.7033 F   0  0  0  0  0  0  0  0  0  0  0  0
   11.2881   -1.0222   22.3020 C   0  0  0  0  0  0  0  0  0  0  0  0
   10.3351   -0.2027   22.9166 C   0  0  0  0  0  0  0  0  0  0  0  0
  2  1  1  1
  2  3  1  0
  3  4  1  0
  4  5  1  0
  5  6  2  0
  6  7  1  0
  7  8  2  0
  8  9  1  0
  9 10  2  0
 10 11  1  0
 11 12  2  0
 12 13  1  0
 13 14  2  0
  4 15  1  0
 15 16  2  0
 15 17  1  0
 17 18  1  1
 18 19  1  0
 19 20  1  0
 20 21  1  0
 21 22  1  0
 22 23  2  0
 23 24  1  0
 24 25  1  0
 24 26  1  0
 19 27  1  0
 27 28  2  0
 27 29  1  0
 29 30  2  0
 30 31  1  0
 31 32  2  0
 32 33  1  0
 32 34  1  0
 34 35  2  0
 17  2  1  0
 26 21  2  0
 35 29  1  0
 14  5  1  0
 35 17  1  0
 14  9  1  0
M  END
>  <template_ligand>  (74) 
mol-218

>  <template_receptor>  (74) 
receptors/receptor-218.pdb

>  <SMILES>  (74) 
CC1CN(c2cncc3ccccc23)C(=O)C12CN(Cc1ccn(C)n1)C(=O)c1ccc(F)cc12

>  <LABEL>  (74) 
MERS-CoV Mpro

$$$$
ligand_36
     RDKit          3D

 30 33  0  0  0  0  0  0  0  0999 V2000
    8.7886   -6.0553   26.0986 N   0  0  0  0  0  0  0  0  0  0  0  0
    8.7422   -5.0320   25.5557 C   0  0  0  0  0  0  0  0  0  0  0  0
    8.6984   -3.7701   24.8610 C   0  0  0  0  0  0  0  0  0  0  0  0
    7.9575   -2.6952   25.3624 C   0  0  0  0  0  0  0  0  0  0  0  0
    7.9832   -1.4650   24.7136 C   0  0  0  0  0  0  0  0  0  0  0  0
    8.7312   -1.2942   23.5409 C   0  0  0  0  0  0  0  0  0  0  0  0
    8.8202   -0.0074   22.9146 N   0  0  0  0  0  0  0  0  0  0  0  0
    9.5718    1.0537   23.5870 C   0  0  0  0  0  0  0  0  0  0  0  0
   11.0245    1.1901   23.1452 C   0  0  0  0  0  0  0  0  0  0  0  0
   11.7034    2.3974   23.3236 C   0  0  0  0  0  0  0  0  0  0  0  0
   13.0265    2.5331   22.9099 C   0  0  0  0  0  0  0  0  0  0  0  0
   13.6980    1.4708   22.3143 C   0  0  0  0  0  0  0  0  0  0  0  0
   13.0329    0.2607   22.1831 C   0  0  0  0  0  0  0  0  0  0  0  0
   13.8589   -1.1121   21.4925 Cl  0  0  0  0  0  0  0  0  0  0  0  0
   11.7193    0.1092   22.6051 C   0  0  0  0  0  0  0  0  0  0  0  0
    8.3622    0.2705   21.6345 C   0  0  0  0  0  0  0  0  0  0  0  0
    8.6181    1.3220   21.0770 O   0  0  0  0  0  0  0  0  0  0  0  0
    7.4992   -0.7993   20.9400 C   0  0  0  0  0  0  0  0  0  0  0  0
    6.5786   -0.2359   19.8878 C   0  0  0  0  0  0  0  0  0  0  0  0
    6.8467   -0.4163   18.5558 C   0  0  0  0  0  0  0  0  0  0  0  0
    6.1254    0.0989   17.5207 N   0  0  0  0  0  0  0  0  0  0  0  0
    5.0808    0.8255   17.8355 C   0  0  0  0  0  0  0  0  0  0  0  0
    4.6628    1.0808   19.1716 C   0  0  0  0  0  0  0  0  0  0  0  0
    3.5238    1.8760   19.4664 C   0  0  0  0  0  0  0  0  0  0  0  0
    3.1526    2.1069   20.7623 C   0  0  0  0  0  0  0  0  0  0  0  0
    3.9020    1.5528   21.8229 C   0  0  0  0  0  0  0  0  0  0  0  0
    5.0082    0.7813   21.5678 C   0  0  0  0  0  0  0  0  0  0  0  0
    5.4233    0.5303   20.2325 C   0  0  0  0  0  0  0  0  0  0  0  0
    9.4043   -2.3962   23.0047 C   0  0  0  0  0  0  0  0  0  0  0  0
    9.4103   -3.6121   23.6695 C   0  0  0  0  0  0  0  0  0  0  0  0
  1  2  3  0
  2  3  1  0
  3  4  2  0
  4  5  1  0
  5  6  2  0
  6  7  1  0
  7  8  1  0
  8  9  1  0
  9 10  2  0
 10 11  1  0
 11 12  2  0
 12 13  1  0
 13 14  1  0
 13 15  2  0
  7 16  1  0
 16 17  2  0
 16 18  1  0
 18 19  1  0
 19 20  2  0
 20 21  1  0
 21 22  2  0
 22 23  1  0
 23 24  2  0
 24 25  1  0
 25 26  2  0
 26 27  1  0
 27 28  2  0
  6 29  1  0
 29 30  2  0
 30  3  1  0
 15  9  1  0
 28 19  1  0
 28 23  1  0
M  END
>  <template_ligand>  (75) 
mol-58

>  <template_receptor>  (75) 
receptors/receptor-58.pdb

>  <SMILES>  (75) 
N#Cc1ccc(N(Cc2cccc(Cl)c2)C(=O)Cc2cncc3ccccc23)cc1

>  <LABEL>  (75) 
MERS-CoV Mpro

$$$$
ligand_37
     RDKit          3D

 40 45  0  0  0  0  0  0  0  0999 V2000
    6.4524    4.3450   22.3668 C   0  0  0  0  0  0  0  0  0  0  0  0
    7.3420    3.4561   23.1347 N   0  0  0  0  0  0  0  0  0  0  0  0
    6.8365    3.1949   24.5044 C   0  0  0  0  0  0  0  0  0  0  0  0
    7.6460    2.1506   25.3126 C   0  0  0  0  0  0  0  0  0  0  0  0
    8.5599    1.3305   24.5377 N   0  0  0  0  0  0  0  0  0  0  0  0
    8.2031   -0.0301   24.1833 C   0  0  0  0  0  0  0  0  0  0  0  0
    8.8148   -0.4504   22.8167 C   0  0  2  0  0  0  0  0  0  0  0  0
    8.1168    0.3589   21.7001 C   0  0  0  0  0  0  0  0  0  0  0  0
    8.2455    1.5580   21.4688 O   0  0  0  0  0  0  0  0  0  0  0  0
    7.2306   -0.4488   21.0480 N   0  0  0  0  0  0  0  0  0  0  0  0
    6.4081    0.0388   19.9979 C   0  0  0  0  0  0  0  0  0  0  0  0
    6.7398   -0.2189   18.6915 C   0  0  0  0  0  0  0  0  0  0  0  0
    6.0335    0.2199   17.6187 N   0  0  0  0  0  0  0  0  0  0  0  0
    4.9582    0.9302   17.8674 C   0  0  0  0  0  0  0  0  0  0  0  0
    4.4974    1.2649   19.1735 C   0  0  0  0  0  0  0  0  0  0  0  0
    3.3190    2.0314   19.3861 C   0  0  0  0  0  0  0  0  0  0  0  0
    2.8975    2.3211   20.6534 C   0  0  0  0  0  0  0  0  0  0  0  0
    3.6310    1.8686   21.7724 C   0  0  0  0  0  0  0  0  0  0  0  0
    4.7799    1.1352   21.5950 C   0  0  0  0  0  0  0  0  0  0  0  0
    5.2428    0.8118   20.2861 C   0  0  0  0  0  0  0  0  0  0  0  0
    7.0573   -1.7330   21.6919 C   0  0  0  0  0  0  0  0  0  0  0  0
    8.4063   -1.8894   22.4091 C   0  0  2  0  0  0  0  0  0  0  0  0
    8.3931   -2.9267   23.5198 C   0  0  0  0  0  0  0  0  0  0  0  0
    8.1254   -4.2020   22.9728 O   0  0  0  0  0  0  0  0  0  0  0  0
    6.9583   -4.8311   23.4735 C   0  0  0  0  0  0  0  0  0  0  0  0
    6.8205   -6.1375   22.7194 C   0  0  0  0  0  0  0  0  0  0  0  0
    5.5059   -6.8658   23.0396 C   0  0  0  0  0  0  0  0  0  0  0  0
    4.8709   -6.6445   21.3188 S   0  0  0  0  0  0  0  0  0  0  0  0
    6.5769   -4.6624   20.7049 O   0  0  0  0  0  0  0  0  0  0  0  0
    4.8680   -7.8843   20.4949 O   0  0  0  0  0  0  0  0  0  0  0  0
    6.5596   -5.9596   21.1996 C   0  0  0  0  0  0  0  0  0  0  0  0
   10.3053   -0.1742   22.8796 C   0  0  0  0  0  0  0  0  0  0  0  0
   11.2774   -0.9894   22.2803 C   0  0  0  0  0  0  0  0  0  0  0  0
   12.6107   -0.6225   22.3246 C   0  0  0  0  0  0  0  0  0  0  0  0
   13.8002   -1.6527   21.5763 Cl  0  0  0  0  0  0  0  0  0  0  0  0
   13.0342    0.5499   22.9480 C   0  0  0  0  0  0  0  0  0  0  0  0
   12.0839    1.3539   23.5449 C   0  0  0  0  0  0  0  0  0  0  0  0
   10.7390    0.9925   23.5286 C   0  0  0  0  0  0  0  0  0  0  0  0
    9.7613    1.8837   24.2275 C   0  0  0  0  0  0  0  0  0  0  0  0
   10.0051    3.0611   24.4888 O   0  0  0  0  0  0  0  0  0  0  0  0
  1  2  1  0
  2  3  1  0
  3  4  1  0
  4  5  1  0
  5  6  1  0
  7  6  1  1
  7  8  1  0
  8  9  2  0
  8 10  1  0
 10 11  1  0
 11 12  2  0
 12 13  1  0
 13 14  2  0
 14 15  1  0
 15 16  2  0
 16 17  1  0
 17 18  2  0
 18 19  1  0
 19 20  2  0
 10 21  1  0
 21 22  1  0
 22 23  1  1
 23 24  1  0
 24 25  1  0
 25 26  1  0
 26 27  1  0
 27 28  1  0
 28 29  2  0
 28 30  2  0
 28 31  1  0
  7 32  1  0
 32 33  2  0
 33 34  1  0
 34 35  1  0
 34 36  2  0
 36 37  1  0
 37 38  2  0
 38 39  1  0
 39 40  2  0
 39  5  1  0
 22  7  1  0
 31 26  1  0
 38 32  1  0
 20 11  1  0
 20 15  1  0
M  CHG  1   2   1
M  END
>  <template_ligand>  (76) 
mol-218

>  <template_receptor>  (76) 
receptors/receptor-218.pdb

>  <SMILES>  (76) 
C[NH2+]CCN1CC2(C(=O)N(c3cncc4ccccc34)CC2COCC2CS(=O)(=O)C2)c2cc(Cl)ccc2C1=O

>  <LABEL>  (76) 
MERS-CoV Mpro

$$$$
ligand_36
     RDKit          3D

 32 36  0  0  0  0  0  0  0  0999 V2000
   -7.0480    3.5968  -22.7357 C   0  0  0  0  0  0  0  0  0  0  0  0
   -7.7854    2.6140  -23.4978 N   0  0  0  0  0  0  0  0  0  0  0  0
   -7.4498    2.3558  -24.7793 C   0  0  0  0  0  0  0  0  0  0  0  0
   -6.6061    2.9907  -25.3962 O   0  0  0  0  0  0  0  0  0  0  0  0
   -8.1499    1.1775  -25.4657 C   0  0  0  0  0  0  0  0  0  0  0  0
   -8.9976    0.3429  -24.6387 N   0  0  0  0  0  0  0  0  0  0  0  0
   -8.5548   -1.0023  -24.3206 C   0  0  0  0  0  0  0  0  0  0  0  0
   -9.1441   -1.4952  -22.9732 C   0  0  2  0  0  0  0  0  0  0  0  0
   -8.5807   -0.6256  -21.8198 C   0  0  0  0  0  0  0  0  0  0  0  0
   -8.9590    0.4757  -21.4707 O   0  0  0  0  0  0  0  0  0  0  0  0
   -7.5328   -1.3087  -21.2416 N   0  0  0  0  0  0  0  0  0  0  0  0
   -6.7304   -0.7321  -20.2207 C   0  0  0  0  0  0  0  0  0  0  0  0
   -7.0152   -0.9978  -18.9061 C   0  0  0  0  0  0  0  0  0  0  0  0
   -6.3230   -0.5010  -17.8500 N   0  0  0  0  0  0  0  0  0  0  0  0
   -5.3050    0.2871  -18.1123 C   0  0  0  0  0  0  0  0  0  0  0  0
   -4.8769    0.6268  -19.4297 C   0  0  0  0  0  0  0  0  0  0  0  0
   -3.7700    1.4881  -19.6754 C   0  0  0  0  0  0  0  0  0  0  0  0
   -3.3928    1.7807  -20.9591 C   0  0  0  0  0  0  0  0  0  0  0  0
   -4.0917    1.2273  -22.0579 C   0  0  0  0  0  0  0  0  0  0  0  0
   -5.1725    0.4073  -21.8465 C   0  0  0  0  0  0  0  0  0  0  0  0
   -5.6007    0.0926  -20.5256 C   0  0  0  0  0  0  0  0  0  0  0  0
   -7.2672   -2.5937  -21.8646 C   0  0  0  0  0  0  0  0  0  0  0  0
   -8.5889   -2.8939  -22.5833 C   0  0  2  0  0  0  0  0  0  0  0  0
   -8.4789   -3.9138  -23.7088 C   0  0  0  0  0  0  0  0  0  0  0  0
  -10.6510   -1.3593  -23.0697 C   0  0  0  0  0  0  0  0  0  0  0  0
  -11.5373   -2.2348  -22.4327 C   0  0  0  0  0  0  0  0  0  0  0  0
  -12.9022   -1.9941  -22.4300 C   0  0  0  0  0  0  0  0  0  0  0  0
  -13.4190   -0.8644  -23.0732 C   0  0  0  0  0  0  0  0  0  0  0  0
  -12.5607    0.0065  -23.7248 C   0  0  0  0  0  0  0  0  0  0  0  0
  -11.1853   -0.2405  -23.7311 C   0  0  0  0  0  0  0  0  0  0  0  0
  -10.2954    0.7331  -24.4521 C   0  0  0  0  0  0  0  0  0  0  0  0
  -10.6908    1.8262  -24.8348 O   0  0  0  0  0  0  0  0  0  0  0  0
  1  2  1  0
  2  3  1  0
  3  4  2  0
  3  5  1  0
  5  6  1  0
  6  7  1  0
  8  7  1  6
  8  9  1  0
  9 10  2  0
  9 11  1  0
 11 12  1  0
 12 13  2  0
 13 14  1  0
 14 15  2  0
 15 16  1  0
 16 17  2  0
 17 18  1  0
 18 19  2  0
 19 20  1  0
 20 21  2  0
 11 22  1  0
 22 23  1  0
 23 24  1  6
  8 25  1  0
 25 26  2  0
 26 27  1  0
 27 28  2  0
 28 29  1  0
 29 30  2  0
 30 31  1  0
 31 32  2  0
 31  6  1  0
 23  8  1  0
 30 25  1  0
 21 12  1  0
 21 16  1  0
M  END
>  <template_ligand>  (77) 
mol-218

>  <template_receptor>  (77) 
receptors/receptor-218.pdb

>  <SMILES>  (77) 
CNC(=O)CN1CC2(C(=O)N(c3cncc4ccccc34)CC2C)c2ccccc2C1=O

>  <LABEL>  (77) 
SARS-CoV-2 Mpro

$$$$
ligand_37
     RDKit          3D

 22 24  0  0  0  0  0  0  0  0999 V2000
  -10.0817    1.2569  -25.5140 C   0  0  0  0  0  0  0  0  0  0  0  0
   -9.6424    0.2907  -24.4145 C   0  0  1  0  0  0  0  0  0  0  0  0
  -10.7804   -0.6661  -24.0409 C   0  0  0  0  0  0  0  0  0  0  0  0
  -10.4017   -1.6663  -22.9276 C   0  0  1  0  0  0  0  0  0  0  0  0
  -11.1073   -3.0172  -23.1053 C   0  0  0  0  0  0  0  0  0  0  0  0
   -8.9484   -1.8549  -22.7867 N   0  0  0  0  0  0  0  0  0  0  0  0
   -8.3755   -1.0723  -21.7397 C   0  0  0  0  0  0  0  0  0  0  0  0
   -8.6957    0.0664  -21.4939 O   0  0  0  0  0  0  0  0  0  0  0  0
   -7.3908   -1.8658  -20.8796 C   0  0  0  0  0  0  0  0  0  0  0  0
   -6.5665   -1.0785  -19.8947 C   0  0  0  0  0  0  0  0  0  0  0  0
   -6.6661   -1.3530  -18.5543 C   0  0  0  0  0  0  0  0  0  0  0  0
   -5.9985   -0.7137  -17.5619 N   0  0  0  0  0  0  0  0  0  0  0  0
   -5.1520    0.2208  -17.9259 C   0  0  0  0  0  0  0  0  0  0  0  0
   -4.9109    0.5856  -19.2782 C   0  0  0  0  0  0  0  0  0  0  0  0
   -3.9575    1.5701  -19.6312 C   0  0  0  0  0  0  0  0  0  0  0  0
   -3.7092    1.8579  -20.9471 C   0  0  0  0  0  0  0  0  0  0  0  0
   -4.4127    1.1801  -21.9686 C   0  0  0  0  0  0  0  0  0  0  0  0
   -5.3558    0.2403  -21.6503 C   0  0  0  0  0  0  0  0  0  0  0  0
   -5.6358   -0.0803  -20.2946 C   0  0  0  0  0  0  0  0  0  0  0  0
   -8.1867   -1.8317  -24.0486 C   0  0  1  0  0  0  0  0  0  0  0  0
   -8.5048   -3.0486  -24.9230 C   0  0  0  0  0  0  0  0  0  0  0  0
   -8.3816   -0.4982  -24.8191 C   0  0  0  0  0  0  0  0  0  0  0  0
  2  1  1  6
  2  3  1  0
  3  4  1  0
  4  5  1  6
  4  6  1  0
  6  7  1  0
  7  8  2  0
  7  9  1  0
  9 10  1  0
 10 11  2  0
 11 12  1  0
 12 13  2  0
 13 14  1  0
 14 15  2  0
 15 16  1  0
 16 17  2  0
 17 18  1  0
 18 19  2  0
  6 20  1  0
 20 21  1  6
 20 22  1  0
 22  2  1  0
 19 10  1  0
 19 14  1  0
M  END
>  <template_ligand>  (78) 
mol-192

>  <template_receptor>  (78) 
receptors/receptor-192.pdb

>  <SMILES>  (78) 
CC1CC(C)N(C(=O)Cc2cncc3ccccc23)C(C)C1

>  <LABEL>  (78) 
SARS-CoV-2 Mpro

$$$$
ligand_38
     RDKit          3D

 25 29  0  0  0  0  0  0  0  0999 V2000
   -7.5837    1.5595  -24.8275 C   0  0  0  0  0  0  0  0  0  0  0  0
   -6.8962    0.2072  -25.0078 C   0  0  0  0  0  0  0  0  0  0  0  0
   -5.7022    0.1121  -25.2491 O   0  0  0  0  0  0  0  0  0  0  0  0
   -7.6668   -0.9155  -24.8975 N   0  0  0  0  0  0  0  0  0  0  0  0
   -7.0505   -2.2610  -24.7926 C   0  0  0  0  0  0  0  0  0  0  0  0
   -8.2231   -3.0721  -24.2063 C   0  0  2  0  0  0  0  0  0  0  0  0
   -9.4095   -2.4201  -24.9242 C   0  0  0  0  0  0  0  0  0  0  0  0
   -9.0586   -1.0159  -24.3896 C   0  0  1  0  0  0  0  0  0  0  0  0
   -8.9769   -1.3158  -22.9462 C   0  0  0  0  0  0  0  0  0  0  0  0
   -8.6504   -0.5836  -21.7558 C   0  0  0  0  0  0  0  0  0  0  0  0
   -9.0131    0.4864  -21.3208 O   0  0  0  0  0  0  0  0  0  0  0  0
   -7.7366   -1.4403  -21.0787 N   0  0  0  0  0  0  0  0  0  0  0  0
   -6.8636   -0.9285  -20.0797 C   0  0  0  0  0  0  0  0  0  0  0  0
   -7.1985   -1.1371  -18.7719 C   0  0  0  0  0  0  0  0  0  0  0  0
   -6.5533   -0.5860  -17.7174 N   0  0  0  0  0  0  0  0  0  0  0  0
   -5.5448    0.2105  -17.9772 C   0  0  0  0  0  0  0  0  0  0  0  0
   -5.0595    0.4885  -19.2869 C   0  0  0  0  0  0  0  0  0  0  0  0
   -3.9554    1.3567  -19.5059 C   0  0  0  0  0  0  0  0  0  0  0  0
   -3.4983    1.5781  -20.7758 C   0  0  0  0  0  0  0  0  0  0  0  0
   -4.1181    0.9340  -21.8738 C   0  0  0  0  0  0  0  0  0  0  0  0
   -5.1952    0.1025  -21.6875 C   0  0  0  0  0  0  0  0  0  0  0  0
   -5.7184   -0.1161  -20.3829 C   0  0  0  0  0  0  0  0  0  0  0  0
   -7.5865   -2.6772  -21.7321 C   0  0  0  0  0  0  0  0  0  0  0  0
   -6.8631   -3.5905  -21.4315 O   0  0  0  0  0  0  0  0  0  0  0  0
   -8.4529   -2.5800  -22.8257 N   0  0  0  0  0  0  0  0  0  0  0  0
  1  2  1  0
  2  3  2  0
  2  4  1  0
  4  5  1  0
  6  5  1  6
  6  7  1  0
  7  8  1  0
  8  9  1  0
  9 10  2  0
 10 11  1  0
 10 12  1  0
 12 13  1  0
 13 14  2  0
 14 15  1  0
 15 16  2  0
 16 17  1  0
 17 18  2  0
 18 19  1  0
 19 20  2  0
 20 21  1  0
 21 22  2  0
 12 23  1  0
 23 24  2  0
 23 25  1  0
  8  4  1  6
 25  9  1  0
 25  6  1  0
 22 13  1  0
 22 17  1  0
M  CHG  1  11  -1
M  END
>  <template_ligand>  (79) 
mol-109

>  <template_receptor>  (79) 
receptors/receptor-109.pdb

>  <SMILES>  (79) 
CC(=O)N1CC2CC1c1c([O-])n(-c3cncc4ccccc34)c(=O)n12

>  <LABEL>  (79) 
SARS-CoV-2 Mpro

$$$$
ligand_39
     RDKit          3D

 20 22  0  0  0  0  0  0  0  0999 V2000
  -10.2481    1.3305  -25.3109 C   0  0  0  0  0  0  0  0  0  0  0  0
   -9.6577    0.4002  -24.2658 C   0  0  0  0  0  0  0  0  0  0  0  0
  -10.8144   -0.3237  -23.5397 C   0  0  0  0  0  0  0  0  0  0  0  0
  -10.3916   -1.6995  -22.9970 C   0  0  0  0  0  0  0  0  0  0  0  0
   -8.9591   -1.7533  -22.7456 N   0  0  0  0  0  0  0  0  0  0  0  0
   -8.5382   -1.2913  -21.5192 C   0  0  0  0  0  0  0  0  0  0  0  0
   -9.2518   -0.6148  -20.8025 O   0  0  0  0  0  0  0  0  0  0  0  0
   -7.1699   -1.8012  -21.0936 C   0  0  0  0  0  0  0  0  0  0  0  0
   -6.4692   -0.9583  -20.0805 C   0  0  0  0  0  0  0  0  0  0  0  0
   -6.8780   -1.0141  -18.7727 C   0  0  0  0  0  0  0  0  0  0  0  0
   -6.2944   -0.3617  -17.7379 N   0  0  0  0  0  0  0  0  0  0  0  0
   -5.2541    0.3869  -18.0338 C   0  0  0  0  0  0  0  0  0  0  0  0
   -4.7277    0.5512  -19.3485 C   0  0  0  0  0  0  0  0  0  0  0  0
   -3.6050    1.3760  -19.6175 C   0  0  0  0  0  0  0  0  0  0  0  0
   -3.1462    1.5403  -20.8986 C   0  0  0  0  0  0  0  0  0  0  0  0
   -3.7875    0.8857  -21.9730 C   0  0  0  0  0  0  0  0  0  0  0  0
   -4.8674    0.0677  -21.7372 C   0  0  0  0  0  0  0  0  0  0  0  0
   -5.3636   -0.1263  -20.4169 C   0  0  0  0  0  0  0  0  0  0  0  0
   -8.1477   -1.6427  -23.9548 C   0  0  0  0  0  0  0  0  0  0  0  0
   -8.7883   -0.6609  -24.9523 C   0  0  0  0  0  0  0  0  0  0  0  0
  1  2  1  0
  2  3  1  0
  3  4  1  0
  4  5  1  0
  5  6  1  0
  6  7  2  0
  6  8  1  0
  8  9  1  0
  9 10  2  0
 10 11  1  0
 11 12  2  0
 12 13  1  0
 13 14  2  0
 14 15  1  0
 15 16  2  0
 16 17  1  0
 17 18  2  0
  5 19  1  0
 19 20  1  0
 20  2  1  0
 18  9  1  0
 18 13  1  0
M  END
>  <template_ligand>  (80) 
mol-115

>  <template_receptor>  (80) 
receptors/receptor-115.pdb

>  <SMILES>  (80) 
CC1CCN(C(=O)Cc2cncc3ccccc23)CC1

>  <LABEL>  (80) 
SARS-CoV-2 Mpro

$$$$
ligand_40
     RDKit          3D

 39 43  0  0  0  0  0  0  0  0999 V2000
   -7.0513    3.5777  -22.7095 C   0  0  0  0  0  0  0  0  0  0  0  0
   -7.7988    2.5898  -23.4627 N   0  0  0  0  0  0  0  0  0  0  0  0
   -7.4566    2.3354  -24.7446 C   0  0  0  0  0  0  0  0  0  0  0  0
   -6.6091    2.9768  -25.3531 O   0  0  0  0  0  0  0  0  0  0  0  0
   -8.1779    1.1895  -25.4664 C   0  0  0  0  0  0  0  0  0  0  0  0
   -9.0194    0.3415  -24.6515 N   0  0  0  0  0  0  0  0  0  0  0  0
   -8.5535   -0.9933  -24.3226 C   0  0  0  0  0  0  0  0  0  0  0  0
   -9.1317   -1.4889  -22.9733 C   0  0  2  0  0  0  0  0  0  0  0  0
   -8.5667   -0.6159  -21.8237 C   0  0  0  0  0  0  0  0  0  0  0  0
   -8.9344    0.4913  -21.4812 O   0  0  0  0  0  0  0  0  0  0  0  0
   -7.5246   -1.3000  -21.2414 N   0  0  0  0  0  0  0  0  0  0  0  0
   -6.7325   -0.7306  -20.2148 C   0  0  0  0  0  0  0  0  0  0  0  0
   -7.0315   -0.9923  -18.9041 C   0  0  0  0  0  0  0  0  0  0  0  0
   -6.3437   -0.4957  -17.8439 N   0  0  0  0  0  0  0  0  0  0  0  0
   -5.3225    0.2854  -18.1123 C   0  0  0  0  0  0  0  0  0  0  0  0
   -4.8986    0.6316  -19.4287 C   0  0  0  0  0  0  0  0  0  0  0  0
   -3.7880    1.4848  -19.6662 C   0  0  0  0  0  0  0  0  0  0  0  0
   -3.3999    1.7803  -20.9437 C   0  0  0  0  0  0  0  0  0  0  0  0
   -4.0969    1.2397  -22.0482 C   0  0  0  0  0  0  0  0  0  0  0  0
   -5.1813    0.4222  -21.8460 C   0  0  0  0  0  0  0  0  0  0  0  0
   -5.6162    0.1031  -20.5268 C   0  0  0  0  0  0  0  0  0  0  0  0
   -7.2388   -2.5787  -21.8484 C   0  0  0  0  0  0  0  0  0  0  0  0
   -8.5502   -2.8818  -22.5958 C   0  0  2  0  0  0  0  0  0  0  0  0
   -8.3363   -3.8716  -23.7395 C   0  0  0  0  0  0  0  0  0  0  0  0
   -7.5349   -5.3548  -23.1258 S   0  0  0  0  0  0  0  0  0  0  0  0
   -8.0910   -5.7174  -21.8310 O   0  0  0  0  0  0  0  0  0  0  0  0
   -6.0919   -5.1741  -23.2494 O   0  0  0  0  0  0  0  0  0  0  0  0
   -8.0712   -6.4351  -24.2974 N   0  0  0  0  0  0  0  0  0  0  0  0
   -7.3281   -6.3553  -25.5569 C   0  0  0  0  0  0  0  0  0  0  0  0
   -8.2885   -7.7989  -23.8218 C   0  0  0  0  0  0  0  0  0  0  0  0
  -10.6418   -1.3608  -23.0591 C   0  0  0  0  0  0  0  0  0  0  0  0
  -11.5282   -2.2399  -22.4237 C   0  0  0  0  0  0  0  0  0  0  0  0
  -12.8835   -1.9743  -22.4490 C   0  0  0  0  0  0  0  0  0  0  0  0
  -13.7209   -2.8224  -21.8284 F   0  0  0  0  0  0  0  0  0  0  0  0
  -13.4254   -0.8606  -23.0781 C   0  0  0  0  0  0  0  0  0  0  0  0
  -12.5593    0.0012  -23.7162 C   0  0  0  0  0  0  0  0  0  0  0  0
  -11.1882   -0.2499  -23.7248 C   0  0  0  0  0  0  0  0  0  0  0  0
  -10.3268    0.7106  -24.4832 C   0  0  0  0  0  0  0  0  0  0  0  0
  -10.7627    1.7699  -24.9164 O   0  0  0  0  0  0  0  0  0  0  0  0
  1  2  1  0
  2  3  1  0
  3  4  2  0
  3  5  1  0
  5  6  1  0
  6  7  1  0
  8  7  1  6
  8  9  1  0
  9 10  2  0
  9 11  1  0
 11 12  1  0
 12 13  2  0
 13 14  1  0
 14 15  2  0
 15 16  1  0
 16 17  2  0
 17 18  1  0
 18 19  2  0
 19 20  1  0
 20 21  2  0
 11 22  1  0
 22 23  1  0
 23 24  1  6
 24 25  1  0
 25 26  2  0
 25 27  2  0
 25 28  1  0
 28 29  1  0
 28 30  1  0
  8 31  1  0
 31 32  2  0
 32 33  1  0
 33 34  1  0
 33 35  2  0
 35 36  1  0
 36 37  2  0
 37 38  1  0
 38 39  2  0
 38  6  1  0
 23  8  1  0
 37 31  1  0
 21 12  1  0
 21 16  1  0
M  END
>  <template_ligand>  (81) 
mol-218

>  <template_receptor>  (81) 
receptors/receptor-218.pdb

>  <SMILES>  (81) 
CNC(=O)CN1CC2(C(=O)N(c3cncc4ccccc34)CC2CS(=O)(=O)N(C)C)c2cc(F)ccc2C1=O

>  <LABEL>  (81) 
SARS-CoV-2 Mpro

$$$$
ligand_41
     RDKit          3D

 26 29  0  0  0  0  0  0  0  0999 V2000
   -4.8608    0.0743  -22.7932 C   0  0  0  0  0  0  0  0  0  0  0  0
   -4.6074    0.2653  -21.3821 N   0  0  0  0  0  0  0  0  0  0  0  0
   -3.5380    0.9973  -21.0089 N   0  0  0  0  0  0  0  0  0  0  0  0
   -3.5766    1.0866  -19.7002 C   0  0  0  0  0  0  0  0  0  0  0  0
   -4.7050    0.3948  -19.1685 C   0  0  0  0  0  0  0  0  0  0  0  0
   -5.2821    0.1570  -17.8980 C   0  0  0  0  0  0  0  0  0  0  0  0
   -6.4006   -0.5403  -17.7661 N   0  0  0  0  0  0  0  0  0  0  0  0
   -6.9907   -1.0317  -18.8799 C   0  0  0  0  0  0  0  0  0  0  0  0
   -6.5227   -0.8812  -20.1730 C   0  0  0  0  0  0  0  0  0  0  0  0
   -7.1902   -1.4587  -21.2798 N   0  0  0  0  0  0  0  0  0  0  0  0
   -8.3308   -0.9054  -21.8046 C   0  0  0  0  0  0  0  0  0  0  0  0
   -8.8818    0.0481  -21.2852 O   0  0  0  0  0  0  0  0  0  0  0  0
   -8.7975   -1.5541  -23.1086 C   0  0  2  0  0  0  0  0  0  0  0  0
   -8.0870   -0.8682  -24.2930 C   0  0  0  0  0  0  0  0  0  0  0  0
   -8.5328    0.5144  -24.4668 N   0  0  0  0  0  0  0  0  0  0  0  0
  -10.0741    0.6054  -25.0555 S   0  0  0  0  0  0  0  0  0  0  0  0
  -10.0433    0.1271  -26.4245 O   0  0  0  0  0  0  0  0  0  0  0  0
  -10.5809    1.9250  -24.7206 O   0  0  0  0  0  0  0  0  0  0  0  0
  -10.9530   -0.5767  -24.0653 C   0  0  0  0  0  0  0  0  0  0  0  0
  -12.3426   -0.5133  -24.1509 C   0  0  0  0  0  0  0  0  0  0  0  0
  -13.1214   -1.2788  -23.2964 C   0  0  0  0  0  0  0  0  0  0  0  0
  -12.4829   -2.1140  -22.3838 C   0  0  0  0  0  0  0  0  0  0  0  0
  -13.4380   -3.0212  -21.2518 Cl  0  0  0  0  0  0  0  0  0  0  0  0
  -11.0981   -2.2150  -22.3328 C   0  0  0  0  0  0  0  0  0  0  0  0
  -10.3075   -1.4671  -23.2056 C   0  0  0  0  0  0  0  0  0  0  0  0
   -5.3438   -0.1276  -20.3063 C   0  0  0  0  0  0  0  0  0  0  0  0
  1  2  1  0
  2  3  1  0
  3  4  2  0
  4  5  1  0
  5  6  2  0
  6  7  1  0
  7  8  2  0
  8  9  1  0
  9 10  1  0
 10 11  1  0
 11 12  2  0
 13 11  1  1
 13 14  1  0
 14 15  1  0
 15 16  1  0
 16 17  2  0
 16 18  2  0
 16 19  1  0
 19 20  2  0
 20 21  1  0
 21 22  2  0
 22 23  1  0
 22 24  1  0
 24 25  2  0
  9 26  2  0
 26  2  1  0
 26  5  1  0
 25 13  1  0
 25 19  1  0
M  END
>  <template_ligand>  (82) 
mol-127

>  <template_receptor>  (82) 
receptors/receptor-127.pdb

>  <SMILES>  (82) 
Cn1ncc2cncc(NC(=O)C3CNS(=O)(=O)c4ccc(Cl)cc43)c21

>  <LABEL>  (82) 
SARS-CoV-2 Mpro

$$$$
ligand_38
     RDKit          3D

 35 39  0  0  0  0  0  0  0  0999 V2000
    9.1620   -4.3090   25.1095 C   0  0  0  0  0  0  0  0  0  0  0  0
    9.4539   -3.3615   23.9641 C   0  0  0  0  0  0  0  0  0  0  0  0
    8.2397   -2.7728   23.5320 O   0  0  0  0  0  0  0  0  0  0  0  0
    8.3987   -1.8955   22.4474 C   0  0  1  0  0  0  0  0  0  0  0  0
    7.0733   -1.7211   21.7036 C   0  0  0  0  0  0  0  0  0  0  0  0
    7.2496   -0.4356   21.0541 N   0  0  0  0  0  0  0  0  0  0  0  0
    6.4128    0.0558   20.0137 C   0  0  0  0  0  0  0  0  0  0  0  0
    6.7335   -0.2092   18.7083 C   0  0  0  0  0  0  0  0  0  0  0  0
    6.0161    0.2123   17.6358 N   0  0  0  0  0  0  0  0  0  0  0  0
    4.9351    0.9194   17.8735 C   0  0  0  0  0  0  0  0  0  0  0  0
    4.4655    1.2461   19.1797 C   0  0  0  0  0  0  0  0  0  0  0  0
    3.2900    2.0195   19.3987 C   0  0  0  0  0  0  0  0  0  0  0  0
    2.8753    2.3030   20.6726 C   0  0  0  0  0  0  0  0  0  0  0  0
    3.6038    1.8275   21.7881 C   0  0  0  0  0  0  0  0  0  0  0  0
    4.7492    1.0942   21.6025 C   0  0  0  0  0  0  0  0  0  0  0  0
    5.2167    0.7911   20.2925 C   0  0  0  0  0  0  0  0  0  0  0  0
    8.2333    0.3416   21.6257 C   0  0  0  0  0  0  0  0  0  0  0  0
    8.5221    1.4648   21.2627 O   0  0  0  0  0  0  0  0  0  0  0  0
    8.8497   -0.4524   22.8043 C   0  0  1  0  0  0  0  0  0  0  0  0
    8.2048    0.0069   24.1380 C   0  0  0  0  0  0  0  0  0  0  0  0
    8.5358    1.3891   24.4387 N   0  0  0  0  0  0  0  0  0  0  0  0
    7.6120    2.1664   25.2394 C   0  0  0  0  0  0  0  0  0  0  0  0
    6.8272    3.2718   24.5234 C   0  0  0  0  0  0  0  0  0  0  0  0
    5.9285    3.8468   25.1197 O   0  0  0  0  0  0  0  0  0  0  0  0
    7.1567    3.5337   23.2406 N   0  0  0  0  0  0  0  0  0  0  0  0
    6.3503    4.4401   22.4528 C   0  0  0  0  0  0  0  0  0  0  0  0
    9.7999    1.8824   24.2587 C   0  0  0  0  0  0  0  0  0  0  0  0
   10.1002    3.0116   24.6219 O   0  0  0  0  0  0  0  0  0  0  0  0
   10.7718    0.9680   23.5662 C   0  0  0  0  0  0  0  0  0  0  0  0
   12.1229    1.3190   23.5649 C   0  0  0  0  0  0  0  0  0  0  0  0
   13.0595    0.5179   22.9357 C   0  0  0  0  0  0  0  0  0  0  0  0
   12.6262   -0.6484   22.3016 C   0  0  0  0  0  0  0  0  0  0  0  0
   13.7848   -1.6555   21.4770 Cl  0  0  0  0  0  0  0  0  0  0  0  0
   11.2892   -1.0128   22.2900 C   0  0  0  0  0  0  0  0  0  0  0  0
   10.3365   -0.1985   22.9140 C   0  0  0  0  0  0  0  0  0  0  0  0
  1  2  1  0
  2  3  1  0
  4  3  1  1
  4  5  1  0
  5  6  1  0
  6  7  1  0
  7  8  2  0
  8  9  1  0
  9 10  2  0
 10 11  1  0
 11 12  2  0
 12 13  1  0
 13 14  2  0
 14 15  1  0
 15 16  2  0
  6 17  1  0
 17 18  2  0
 17 19  1  0
 19 20  1  1
 20 21  1  0
 21 22  1  0
 22 23  1  0
 23 24  2  0
 23 25  1  0
 25 26  1  0
 21 27  1  0
 27 28  2  0
 27 29  1  0
 29 30  2  0
 30 31  1  0
 31 32  2  0
 32 33  1  0
 32 34  1  0
 34 35  2  0
 19  4  1  0
 35 29  1  0
 16  7  1  0
 35 19  1  0
 16 11  1  0
M  END
>  <template_ligand>  (83) 
mol-218

>  <template_receptor>  (83) 
receptors/receptor-218.pdb

>  <SMILES>  (83) 
CCOC1CN(c2cncc3ccccc23)C(=O)C12CN(CC(=O)NC)C(=O)c1ccc(Cl)cc12

>  <LABEL>  (83) 
MERS-CoV Mpro

$$$$
ligand_42
     RDKit          3D

 40 45  0  0  0  0  0  0  0  0999 V2000
   -7.0473    3.5973  -22.7350 C   0  0  0  0  0  0  0  0  0  0  0  0
   -7.7872    2.6127  -23.4984 N   0  0  0  0  0  0  0  0  0  0  0  0
   -7.4498    2.3551  -24.7796 C   0  0  0  0  0  0  0  0  0  0  0  0
   -6.6053    2.9920  -25.3969 O   0  0  0  0  0  0  0  0  0  0  0  0
   -8.1499    1.1769  -25.4675 C   0  0  0  0  0  0  0  0  0  0  0  0
   -8.9987    0.3455  -24.6382 N   0  0  0  0  0  0  0  0  0  0  0  0
   -8.5543   -0.9992  -24.3230 C   0  0  0  0  0  0  0  0  0  0  0  0
   -9.1441   -1.4963  -22.9770 C   0  0  2  0  0  0  0  0  0  0  0  0
   -8.5814   -0.6251  -21.8242 C   0  0  0  0  0  0  0  0  0  0  0  0
   -8.9599    0.4736  -21.4748 O   0  0  0  0  0  0  0  0  0  0  0  0
   -7.5290   -1.3105  -21.2503 N   0  0  0  0  0  0  0  0  0  0  0  0
   -6.7285   -0.7384  -20.2228 C   0  0  0  0  0  0  0  0  0  0  0  0
   -7.0148   -0.9995  -18.9092 C   0  0  0  0  0  0  0  0  0  0  0  0
   -6.3229   -0.5001  -17.8507 N   0  0  0  0  0  0  0  0  0  0  0  0
   -5.3057    0.2861  -18.1135 C   0  0  0  0  0  0  0  0  0  0  0  0
   -4.8774    0.6267  -19.4297 C   0  0  0  0  0  0  0  0  0  0  0  0
   -3.7707    1.4885  -19.6766 C   0  0  0  0  0  0  0  0  0  0  0  0
   -3.3932    1.7805  -20.9588 C   0  0  0  0  0  0  0  0  0  0  0  0
   -4.0929    1.2274  -22.0575 C   0  0  0  0  0  0  0  0  0  0  0  0
   -5.1723    0.4073  -21.8459 C   0  0  0  0  0  0  0  0  0  0  0  0
   -5.6007    0.0911  -20.5259 C   0  0  0  0  0  0  0  0  0  0  0  0
   -7.2689   -2.6013  -21.8632 C   0  0  0  0  0  0  0  0  0  0  0  0
   -8.5924   -2.8925  -22.5823 C   0  0  2  0  0  0  0  0  0  0  0  0
   -8.4881   -3.9245  -23.7098 C   0  0  0  0  0  0  0  0  0  0  0  0
   -8.2108   -5.2710  -23.2465 N   0  0  0  0  0  0  0  0  0  0  0  0
   -6.9959   -5.6822  -22.7524 C   0  0  0  0  0  0  0  0  0  0  0  0
   -6.8443   -6.5265  -21.2306 S   0  0  0  0  0  0  0  0  0  0  0  0
   -5.1503   -6.6299  -21.5203 C   0  0  0  0  0  0  0  0  0  0  0  0
   -4.7272   -6.1245  -22.6254 N   0  0  0  0  0  0  0  0  0  0  0  0
   -5.7688   -5.6036  -23.3509 C   0  0  0  0  0  0  0  0  0  0  0  0
   -5.4992   -5.0205  -24.7028 C   0  0  0  0  0  0  0  0  0  0  0  0
  -10.6474   -1.3588  -23.0732 C   0  0  0  0  0  0  0  0  0  0  0  0
  -11.5276   -2.2378  -22.4305 C   0  0  0  0  0  0  0  0  0  0  0  0
  -12.8861   -1.9790  -22.4276 C   0  0  0  0  0  0  0  0  0  0  0  0
  -13.9462   -3.0616  -21.5690 Cl  0  0  0  0  0  0  0  0  0  0  0  0
  -13.4201   -0.8602  -23.0708 C   0  0  0  0  0  0  0  0  0  0  0  0
  -12.5579    0.0013  -23.7242 C   0  0  0  0  0  0  0  0  0  0  0  0
  -11.1839   -0.2407  -23.7334 C   0  0  0  0  0  0  0  0  0  0  0  0
  -10.2968    0.7350  -24.4531 C   0  0  0  0  0  0  0  0  0  0  0  0
  -10.6934    1.8291  -24.8340 O   0  0  0  0  0  0  0  0  0  0  0  0
  1  2  1  0
  2  3  1  0
  3  4  2  0
  3  5  1  0
  5  6  1  0
  6  7  1  0
  8  7  1  6
  8  9  1  0
  9 10  2  0
  9 11  1  0
 11 12  1  0
 12 13  2  0
 13 14  1  0
 14 15  2  0
 15 16  1  0
 16 17  2  0
 17 18  1  0
 18 19  2  0
 19 20  1  0
 20 21  2  0
 11 22  1  0
 22 23  1  0
 23 24  1  6
 24 25  1  0
 25 26  1  0
 26 27  1  0
 27 28  1  0
 28 29  2  0
 29 30  1  0
 30 31  1  0
  8 32  1  0
 32 33  2  0
 33 34  1  0
 34 35  1  0
 34 36  2  0
 36 37  1  0
 37 38  2  0
 38 39  1  0
 39 40  2  0
 39  6  1  0
 23  8  1  0
 30 26  2  0
 38 32  1  0
 21 12  1  0
 21 16  1  0
M  END
>  <template_ligand>  (84) 
mol-218

>  <template_receptor>  (84) 
receptors/receptor-218.pdb

>  <SMILES>  (84) 
CNC(=O)CN1CC2(C(=O)N(c3cncc4ccccc34)CC2CNc2scnc2C)c2cc(Cl)ccc2C1=O

>  <LABEL>  (84) 
SARS-CoV-2 Mpro

$$$$
ligand_39
     RDKit          3D

 35 39  0  0  0  0  0  0  0  0999 V2000
    6.3501    4.4399   22.4530 C   0  0  0  0  0  0  0  0  0  0  0  0
    7.1545    3.5333   23.2394 N   0  0  0  0  0  0  0  0  0  0  0  0
    6.8272    3.2735   24.5224 C   0  0  0  0  0  0  0  0  0  0  0  0
    5.9292    3.8473   25.1222 O   0  0  0  0  0  0  0  0  0  0  0  0
    7.6092    2.1660   25.2392 C   0  0  0  0  0  0  0  0  0  0  0  0
    8.5307    1.3908   24.4349 N   0  0  0  0  0  0  0  0  0  0  0  0
    8.2041    0.0066   24.1371 C   0  0  0  0  0  0  0  0  0  0  0  0
    8.8476   -0.4612   22.8063 C   0  0  2  0  0  0  0  0  0  0  0  0
    8.2304    0.3431   21.6324 C   0  0  0  0  0  0  0  0  0  0  0  0
    8.5266    1.4637   21.2705 O   0  0  0  0  0  0  0  0  0  0  0  0
    7.2451   -0.4328   21.0584 N   0  0  0  0  0  0  0  0  0  0  0  0
    6.4114    0.0530   20.0162 C   0  0  0  0  0  0  0  0  0  0  0  0
    6.7325   -0.2115   18.7102 C   0  0  0  0  0  0  0  0  0  0  0  0
    6.0169    0.2120   17.6377 N   0  0  0  0  0  0  0  0  0  0  0  0
    4.9349    0.9200   17.8721 C   0  0  0  0  0  0  0  0  0  0  0  0
    4.4651    1.2449   19.1783 C   0  0  0  0  0  0  0  0  0  0  0  0
    3.2907    2.0197   19.3978 C   0  0  0  0  0  0  0  0  0  0  0  0
    2.8770    2.3034   20.6729 C   0  0  0  0  0  0  0  0  0  0  0  0
    3.6048    1.8270   21.7875 C   0  0  0  0  0  0  0  0  0  0  0  0
    4.7505    1.0927   21.6019 C   0  0  0  0  0  0  0  0  0  0  0  0
    5.2154    0.7881   20.2915 C   0  0  0  0  0  0  0  0  0  0  0  0
    7.0815   -1.7245   21.7005 C   0  0  0  0  0  0  0  0  0  0  0  0
    8.4154   -1.9017   22.4312 C   0  0  2  0  0  0  0  0  0  0  0  0
    8.3884   -2.9070   23.5903 C   0  0  0  0  0  0  0  0  0  0  0  0
    8.1860   -4.2838   23.1296 C   0  0  0  0  0  0  0  0  0  0  0  0
    8.0248   -5.3614   22.7418 N   0  0  0  0  0  0  0  0  0  0  0  0
   10.3362   -0.2012   22.9173 C   0  0  0  0  0  0  0  0  0  0  0  0
   11.2908   -1.0176   22.3003 C   0  0  0  0  0  0  0  0  0  0  0  0
   12.6237   -0.6479   22.3083 C   0  0  0  0  0  0  0  0  0  0  0  0
   13.7744   -1.6562   21.4787 Cl  0  0  0  0  0  0  0  0  0  0  0  0
   13.0575    0.5200   22.9353 C   0  0  0  0  0  0  0  0  0  0  0  0
   12.1214    1.3216   23.5638 C   0  0  0  0  0  0  0  0  0  0  0  0
   10.7691    0.9697   23.5640 C   0  0  0  0  0  0  0  0  0  0  0  0
    9.7947    1.8832   24.2548 C   0  0  0  0  0  0  0  0  0  0  0  0
   10.1025    3.0118   24.6167 O   0  0  0  0  0  0  0  0  0  0  0  0
  1  2  1  0
  2  3  1  0
  3  4  2  0
  3  5  1  0
  5  6  1  0
  6  7  1  0
  8  7  1  1
  8  9  1  0
  9 10  2  0
  9 11  1  0
 11 12  1  0
 12 13  2  0
 13 14  1  0
 14 15  2  0
 15 16  1  0
 16 17  2  0
 17 18  1  0
 18 19  2  0
 19 20  1  0
 20 21  2  0
 11 22  1  0
 22 23  1  0
 23 24  1  1
 24 25  1  0
 25 26  3  0
  8 27  1  0
 27 28  2  0
 28 29  1  0
 29 30  1  0
 29 31  2  0
 31 32  1  0
 32 33  2  0
 33 34  1  0
 34 35  2  0
 34  6  1  0
 23  8  1  0
 33 27  1  0
 21 12  1  0
 21 16  1  0
M  END
>  <template_ligand>  (85) 
mol-218

>  <template_receptor>  (85) 
receptors/receptor-218.pdb

>  <SMILES>  (85) 
CNC(=O)CN1CC2(C(=O)N(c3cncc4ccccc34)CC2CC#N)c2cc(Cl)ccc2C1=O

>  <LABEL>  (85) 
MERS-CoV Mpro

$$$$
ligand_7
     RDKit          3D

 35 39  0  0  0  0  0  0  0  0999 V2000
   -7.0482    3.5968  -22.7358 C   0  0  0  0  0  0  0  0  0  0  0  0
   -7.7856    2.6145  -23.4977 N   0  0  0  0  0  0  0  0  0  0  0  0
   -7.4502    2.3564  -24.7790 C   0  0  0  0  0  0  0  0  0  0  0  0
   -6.6056    2.9907  -25.3959 O   0  0  0  0  0  0  0  0  0  0  0  0
   -8.1505    1.1788  -25.4658 C   0  0  0  0  0  0  0  0  0  0  0  0
   -9.0000    0.3444  -24.6410 N   0  0  0  0  0  0  0  0  0  0  0  0
   -8.5590   -1.0028  -24.3221 C   0  0  0  0  0  0  0  0  0  0  0  0
   -9.1466   -1.4970  -22.9757 C   0  0  2  0  0  0  0  0  0  0  0  0
   -8.5826   -0.6298  -21.8217 C   0  0  0  0  0  0  0  0  0  0  0  0
   -8.9577    0.4728  -21.4721 O   0  0  0  0  0  0  0  0  0  0  0  0
   -7.5344   -1.3121  -21.2437 N   0  0  0  0  0  0  0  0  0  0  0  0
   -6.7318   -0.7327  -20.2227 C   0  0  0  0  0  0  0  0  0  0  0  0
   -7.0159   -0.9980  -18.9077 C   0  0  0  0  0  0  0  0  0  0  0  0
   -6.3235   -0.5015  -17.8512 N   0  0  0  0  0  0  0  0  0  0  0  0
   -5.3055    0.2870  -18.1126 C   0  0  0  0  0  0  0  0  0  0  0  0
   -4.8773    0.6266  -19.4301 C   0  0  0  0  0  0  0  0  0  0  0  0
   -3.7701    1.4878  -19.6752 C   0  0  0  0  0  0  0  0  0  0  0  0
   -3.3924    1.7807  -20.9590 C   0  0  0  0  0  0  0  0  0  0  0  0
   -4.0912    1.2274  -22.0581 C   0  0  0  0  0  0  0  0  0  0  0  0
   -5.1724    0.4076  -21.8469 C   0  0  0  0  0  0  0  0  0  0  0  0
   -5.6016    0.0926  -20.5266 C   0  0  0  0  0  0  0  0  0  0  0  0
   -7.2701   -2.5968  -21.8678 C   0  0  0  0  0  0  0  0  0  0  0  0
   -8.5952   -2.8957  -22.5848 C   0  0  2  0  0  0  0  0  0  0  0  0
   -8.4601   -3.9241  -23.6956 C   0  0  0  0  0  0  0  0  0  0  0  0
   -9.6985   -4.1162  -24.3393 O   0  0  0  0  0  0  0  0  0  0  0  0
   -9.5799   -5.0021  -25.4269 C   0  0  0  0  0  0  0  0  0  0  0  0
  -10.6503   -1.3580  -23.0725 C   0  0  0  0  0  0  0  0  0  0  0  0
  -11.5285   -2.2337  -22.4232 C   0  0  0  0  0  0  0  0  0  0  0  0
  -12.8880   -1.9772  -22.4245 C   0  0  0  0  0  0  0  0  0  0  0  0
  -13.9484   -3.0622  -21.5691 Cl  0  0  0  0  0  0  0  0  0  0  0  0
  -13.4228   -0.8601  -23.0711 C   0  0  0  0  0  0  0  0  0  0  0  0
  -12.5588    0.0016  -23.7242 C   0  0  0  0  0  0  0  0  0  0  0  0
  -11.1840   -0.2401  -23.7358 C   0  0  0  0  0  0  0  0  0  0  0  0
  -10.2976    0.7367  -24.4554 C   0  0  0  0  0  0  0  0  0  0  0  0
  -10.6905    1.8309  -24.8376 O   0  0  0  0  0  0  0  0  0  0  0  0
  1  2  1  0
  2  3  1  0
  3  4  2  0
  3  5  1  0
  5  6  1  0
  6  7  1  0
  8  7  1  6
  8  9  1  0
  9 10  2  0
  9 11  1  0
 11 12  1  0
 12 13  2  0
 13 14  1  0
 14 15  2  0
 15 16  1  0
 16 17  2  0
 17 18  1  0
 18 19  2  0
 19 20  1  0
 20 21  2  0
 11 22  1  0
 22 23  1  0
 23 24  1  6
 24 25  1  0
 25 26  1  0
  8 27  1  0
 27 28  2  0
 28 29  1  0
 29 30  1  0
 29 31  2  0
 31 32  1  0
 32 33  2  0
 33 34  1  0
 34 35  2  0
 34  6  1  0
 23  8  1  0
 33 27  1  0
 21 12  1  0
 21 16  1  0
M  END
>  <template_ligand>  (86) 
mol-218

>  <template_receptor>  (86) 
receptors/receptor-218.pdb

>  <SMILES>  (86) 
CNC(=O)CN1CC2(C(=O)N(c3cncc4ccccc34)CC2COC)c2cc(Cl)ccc2C1=O

>  <LABEL>  (86) 
SARS-CoV-2 Mpro

$$$$
ligand_40
     RDKit          3D

 38 43  0  0  0  0  0  0  0  0999 V2000
    9.1587   -2.5904   23.7875 C   0  0  0  0  0  0  0  0  0  0  0  0
    9.0437   -1.6696   22.5827 C   0  0  1  0  0  0  0  0  0  0  0  0
    7.6530   -1.6291   21.9347 C   0  0  0  0  0  0  0  0  0  0  0  0
    7.7207   -0.3976   21.1655 N   0  0  0  0  0  0  0  0  0  0  0  0
    6.8393   -0.0086   20.1362 C   0  0  0  0  0  0  0  0  0  0  0  0
    7.1717   -0.2751   18.8317 C   0  0  0  0  0  0  0  0  0  0  0  0
    6.4128    0.0712   17.7661 N   0  0  0  0  0  0  0  0  0  0  0  0
    5.2985    0.7194   18.0212 C   0  0  0  0  0  0  0  0  0  0  0  0
    4.8538    1.0828   19.3257 C   0  0  0  0  0  0  0  0  0  0  0  0
    3.6525    1.8154   19.5281 C   0  0  0  0  0  0  0  0  0  0  0  0
    3.2584    2.1644   20.7933 C   0  0  0  0  0  0  0  0  0  0  0  0
    4.0416    1.8044   21.9126 C   0  0  0  0  0  0  0  0  0  0  0  0
    5.2070    1.0896   21.7423 C   0  0  0  0  0  0  0  0  0  0  0  0
    5.6409    0.7064   20.4365 C   0  0  0  0  0  0  0  0  0  0  0  0
    8.8072    0.3915   21.4645 C   0  0  0  0  0  0  0  0  0  0  0  0
    9.1676    1.3438   20.7959 O   0  0  0  0  0  0  0  0  0  0  0  0
    9.4289   -0.1651   22.7649 C   0  0  1  0  0  0  0  0  0  0  0  0
    8.7396    0.4650   24.0075 C   0  0  0  0  0  0  0  0  0  0  0  0
    9.1708    1.8336   24.2304 N   0  0  0  0  0  0  0  0  0  0  0  0
    8.2208    2.9208   24.3934 C   0  0  0  0  0  0  0  0  0  0  0  0
    7.8703    3.5629   23.0465 C   0  0  0  0  0  0  0  0  0  0  0  0
    6.9191    4.6555   23.1994 N   0  0  0  0  0  0  0  0  0  0  0  0
    6.1165    4.8846   22.0043 C   0  0  0  0  0  0  0  0  0  0  0  0
    4.8660    5.7049   22.3107 C   0  0  0  0  0  0  0  0  0  0  0  0
    5.2870    7.3045   23.0090 S   0  0  0  0  0  0  0  0  0  0  0  0
    4.1213    7.8516   23.6965 O   0  0  0  0  0  0  0  0  0  0  0  0
    5.9720    8.0762   21.9714 O   0  0  0  0  0  0  0  0  0  0  0  0
    6.5247    6.8633   24.2301 C   0  0  0  0  0  0  0  0  0  0  0  0
    7.5487    5.8994   23.6340 C   0  0  0  0  0  0  0  0  0  0  0  0
   10.5016    2.1029   24.3888 C   0  0  0  0  0  0  0  0  0  0  0  0
   10.9225    3.0613   25.0205 O   0  0  0  0  0  0  0  0  0  0  0  0
   11.4138    1.1599   23.6624 C   0  0  0  0  0  0  0  0  0  0  0  0
   12.7818    1.4110   23.7257 C   0  0  0  0  0  0  0  0  0  0  0  0
   13.6539    0.7380   22.8943 C   0  0  0  0  0  0  0  0  0  0  0  0
   13.1350   -0.2058   22.0108 C   0  0  0  0  0  0  0  0  0  0  0  0
   14.1942   -1.0130   20.8975 Cl  0  0  0  0  0  0  0  0  0  0  0  0
   11.7922   -0.5284   21.9940 C   0  0  0  0  0  0  0  0  0  0  0  0
   10.9052    0.1434   22.8411 C   0  0  0  0  0  0  0  0  0  0  0  0
  2  1  1  1
  2  3  1  0
  3  4  1  0
  4  5  1  0
  5  6  2  0
  6  7  1  0
  7  8  2  0
  8  9  1  0
  9 10  2  0
 10 11  1  0
 11 12  2  0
 12 13  1  0
 13 14  2  0
  4 15  1  0
 15 16  2  0
 15 17  1  0
 17 18  1  1
 18 19  1  0
 19 20  1  0
 20 21  1  0
 21 22  1  0
 22 23  1  0
 23 24  1  0
 24 25  1  0
 25 26  2  0
 25 27  2  0
 25 28  1  0
 28 29  1  0
 19 30  1  0
 30 31  2  0
 30 32  1  0
 32 33  2  0
 33 34  1  0
 34 35  2  0
 35 36  1  0
 35 37  1  0
 37 38  2  0
 17  2  1  0
 29 22  1  0
 38 32  1  0
 14  5  1  0
 38 17  1  0
 14  9  1  0
M  END
>  <template_ligand>  (87) 
mol-246

>  <template_receptor>  (87) 
receptors/receptor-246.pdb

>  <SMILES>  (87) 
CC1CN(c2cncc3ccccc23)C(=O)C12CN(CCN1CCS(=O)(=O)CC1)C(=O)c1ccc(Cl)cc12

>  <LABEL>  (87) 
MERS-CoV Mpro

$$$$
ligand_19
     RDKit          3D

 39 44  0  0  0  0  0  0  0  0999 V2000
   -7.0482    3.5969  -22.7358 C   0  0  0  0  0  0  0  0  0  0  0  0
   -7.7855    2.6142  -23.4975 N   0  0  0  0  0  0  0  0  0  0  0  0
   -7.4499    2.3562  -24.7789 C   0  0  0  0  0  0  0  0  0  0  0  0
   -6.6056    2.9906  -25.3960 O   0  0  0  0  0  0  0  0  0  0  0  0
   -8.1502    1.1783  -25.4653 C   0  0  0  0  0  0  0  0  0  0  0  0
   -8.9990    0.3443  -24.6400 N   0  0  0  0  0  0  0  0  0  0  0  0
   -8.5580   -1.0032  -24.3223 C   0  0  0  0  0  0  0  0  0  0  0  0
   -9.1440   -1.4972  -22.9759 C   0  0  2  0  0  0  0  0  0  0  0  0
   -8.5834   -0.6282  -21.8222 C   0  0  0  0  0  0  0  0  0  0  0  0
   -8.9593    0.4749  -21.4734 O   0  0  0  0  0  0  0  0  0  0  0  0
   -7.5422   -1.3155  -21.2390 N   0  0  0  0  0  0  0  0  0  0  0  0
   -6.7345   -0.7337  -20.2230 C   0  0  0  0  0  0  0  0  0  0  0  0
   -7.0162   -0.9972  -18.9071 C   0  0  0  0  0  0  0  0  0  0  0  0
   -6.3229   -0.5011  -17.8513 N   0  0  0  0  0  0  0  0  0  0  0  0
   -5.3052    0.2871  -18.1129 C   0  0  0  0  0  0  0  0  0  0  0  0
   -4.8778    0.6264  -19.4306 C   0  0  0  0  0  0  0  0  0  0  0  0
   -3.7703    1.4878  -19.6753 C   0  0  0  0  0  0  0  0  0  0  0  0
   -3.3923    1.7807  -20.9590 C   0  0  0  0  0  0  0  0  0  0  0  0
   -4.0912    1.2271  -22.0580 C   0  0  0  0  0  0  0  0  0  0  0  0
   -5.1727    0.4074  -21.8467 C   0  0  0  0  0  0  0  0  0  0  0  0
   -5.6031    0.0922  -20.5268 C   0  0  0  0  0  0  0  0  0  0  0  0
   -7.2684   -2.5964  -21.8700 C   0  0  0  0  0  0  0  0  0  0  0  0
   -8.6007   -2.9010  -22.5754 C   0  0  2  0  0  0  0  0  0  0  0  0
   -8.6093   -4.0060  -23.6653 C   0  0  0  0  0  0  0  0  0  0  0  0
   -7.3021   -4.2833  -24.3740 C   0  0  0  0  0  0  0  0  0  0  0  0
   -6.3060   -5.0142  -23.7197 C   0  0  0  0  0  0  0  0  0  0  0  0
   -5.0773   -5.2590  -24.3198 C   0  0  0  0  0  0  0  0  0  0  0  0
   -4.8185   -4.7806  -25.5989 C   0  0  0  0  0  0  0  0  0  0  0  0
   -5.8054   -4.0674  -26.2710 C   0  0  0  0  0  0  0  0  0  0  0  0
   -7.0354   -3.8253  -25.6640 C   0  0  0  0  0  0  0  0  0  0  0  0
  -10.6485   -1.3576  -23.0713 C   0  0  0  0  0  0  0  0  0  0  0  0
  -11.5288   -2.2389  -22.4319 C   0  0  0  0  0  0  0  0  0  0  0  0
  -12.8882   -1.9796  -22.4283 C   0  0  0  0  0  0  0  0  0  0  0  0
  -13.9474   -3.0631  -21.5689 Cl  0  0  0  0  0  0  0  0  0  0  0  0
  -13.4225   -0.8604  -23.0707 C   0  0  0  0  0  0  0  0  0  0  0  0
  -12.5584    0.0016  -23.7236 C   0  0  0  0  0  0  0  0  0  0  0  0
  -11.1830   -0.2387  -23.7326 C   0  0  0  0  0  0  0  0  0  0  0  0
  -10.2964    0.7370  -24.4546 C   0  0  0  0  0  0  0  0  0  0  0  0
  -10.6907    1.8306  -24.8380 O   0  0  0  0  0  0  0  0  0  0  0  0
  1  2  1  0
  2  3  1  0
  3  4  2  0
  3  5  1  0
  5  6  1  0
  6  7  1  0
  8  7  1  6
  8  9  1  0
  9 10  2  0
  9 11  1  0
 11 12  1  0
 12 13  2  0
 13 14  1  0
 14 15  2  0
 15 16  1  0
 16 17  2  0
 17 18  1  0
 18 19  2  0
 19 20  1  0
 20 21  2  0
 11 22  1  0
 22 23  1  0
 23 24  1  6
 24 25  1  0
 25 26  2  0
 26 27  1  0
 27 28  2  0
 28 29  1  0
 29 30  2  0
  8 31  1  0
 31 32  2  0
 32 33  1  0
 33 34  1  0
 33 35  2  0
 35 36  1  0
 36 37  2  0
 37 38  1  0
 38 39  2  0
 38  6  1  0
 23  8  1  0
 30 25  1  0
 37 31  1  0
 21 12  1  0
 21 16  1  0
M  END
>  <template_ligand>  (88) 
mol-218

>  <template_receptor>  (88) 
receptors/receptor-218.pdb

>  <SMILES>  (88) 
CNC(=O)CN1CC2(C(=O)N(c3cncc4ccccc34)CC2Cc2ccccc2)c2cc(Cl)ccc2C1=O

>  <LABEL>  (88) 
SARS-CoV-2 Mpro

$$$$
ligand_45
     RDKit          3D

 31 35  0  0  0  0  0  0  0  0999 V2000
   -9.2026   -3.6523  -23.8821 C   0  0  0  0  0  0  0  0  0  0  0  0
   -9.1739   -2.6893  -22.6955 C   0  0  1  0  0  0  0  0  0  0  0  0
   -7.7839   -2.5166  -22.0550 C   0  0  0  0  0  0  0  0  0  0  0  0
   -7.9317   -1.2601  -21.3460 N   0  0  0  0  0  0  0  0  0  0  0  0
   -7.0806   -0.7924  -20.3211 C   0  0  0  0  0  0  0  0  0  0  0  0
   -7.3728   -1.0856  -19.0129 C   0  0  0  0  0  0  0  0  0  0  0  0
   -6.6349   -0.6736  -17.9516 N   0  0  0  0  0  0  0  0  0  0  0  0
   -5.5790    0.0607  -18.2148 C   0  0  0  0  0  0  0  0  0  0  0  0
   -5.1719    0.4463  -19.5248 C   0  0  0  0  0  0  0  0  0  0  0  0
   -4.0256    1.2502  -19.7477 C   0  0  0  0  0  0  0  0  0  0  0  0
   -3.6555    1.6028  -21.0155 C   0  0  0  0  0  0  0  0  0  0  0  0
   -4.4152    1.1727  -22.1252 C   0  0  0  0  0  0  0  0  0  0  0  0
   -5.5349    0.4001  -21.9382 C   0  0  0  0  0  0  0  0  0  0  0  0
   -5.9391    0.0147  -20.6275 C   0  0  0  0  0  0  0  0  0  0  0  0
   -9.0683   -0.5579  -21.6828 C   0  0  0  0  0  0  0  0  0  0  0  0
   -9.4758    0.4019  -21.0662 O   0  0  0  0  0  0  0  0  0  0  0  0
   -9.6673   -1.2322  -22.9378 C   0  0  1  0  0  0  0  0  0  0  0  0
   -9.0522   -0.6197  -24.2116 C   0  0  0  0  0  0  0  0  0  0  0  0
   -9.6015    0.6962  -24.4595 N   0  0  0  0  0  0  0  0  0  0  0  0
   -8.7553    1.8558  -24.5318 C   0  0  0  0  0  0  0  0  0  0  0  0
   -8.4545    2.5358  -23.2494 C   0  0  0  0  0  0  0  0  0  0  0  0
   -8.1336    3.1352  -22.3134 N   0  0  0  0  0  0  0  0  0  0  0  0
  -10.9537    0.8384  -24.6711 C   0  0  0  0  0  0  0  0  0  0  0  0
  -11.4326    1.6846  -25.4053 O   0  0  0  0  0  0  0  0  0  0  0  0
  -11.7707   -0.1056  -23.8429 C   0  0  0  0  0  0  0  0  0  0  0  0
  -13.1515    0.0913  -23.8369 C   0  0  0  0  0  0  0  0  0  0  0  0
  -13.9538   -0.6077  -22.9531 C   0  0  0  0  0  0  0  0  0  0  0  0
  -13.3412   -1.5142  -22.0917 C   0  0  0  0  0  0  0  0  0  0  0  0
  -14.1028   -2.1758  -21.2012 F   0  0  0  0  0  0  0  0  0  0  0  0
  -11.9794   -1.7403  -22.0892 C   0  0  0  0  0  0  0  0  0  0  0  0
  -11.1638   -1.0452  -22.9921 C   0  0  0  0  0  0  0  0  0  0  0  0
  2  1  1  6
  2  3  1  0
  3  4  1  0
  4  5  1  0
  5  6  2  0
  6  7  1  0
  7  8  2  0
  8  9  1  0
  9 10  2  0
 10 11  1  0
 11 12  2  0
 12 13  1  0
 13 14  2  0
  4 15  1  0
 15 16  2  0
 15 17  1  0
 17 18  1  6
 18 19  1  0
 19 20  1  0
 20 21  1  0
 21 22  3  0
 19 23  1  0
 23 24  2  0
 23 25  1  0
 25 26  2  0
 26 27  1  0
 27 28  2  0
 28 29  1  0
 28 30  1  0
 30 31  2  0
 17  2  1  0
 31 25  1  0
 14  5  1  0
 31 17  1  0
 14  9  1  0
M  END
>  <template_ligand>  (89) 
mol-246

>  <template_receptor>  (89) 
receptors/receptor-246.pdb

>  <SMILES>  (89) 
CC1CN(c2cncc3ccccc23)C(=O)C12CN(CC#N)C(=O)c1ccc(F)cc12

>  <LABEL>  (89) 
SARS-CoV-2 Mpro

$$$$
ligand_46
     RDKit          3D

 31 36  0  0  0  0  0  0  0  0999 V2000
   -9.0469    0.3195  -21.2528 O   0  0  0  0  0  0  0  0  0  0  0  0
   -8.6856   -0.7128  -21.7929 C   0  0  0  0  0  0  0  0  0  0  0  0
   -7.7104   -1.6467  -21.0671 C   0  0  0  0  0  0  0  0  0  0  0  0
   -6.8879   -0.9703  -20.0163 C   0  0  0  0  0  0  0  0  0  0  0  0
   -7.1603   -1.1588  -18.6891 C   0  0  0  0  0  0  0  0  0  0  0  0
   -6.4765   -0.5993  -17.6551 N   0  0  0  0  0  0  0  0  0  0  0  0
   -5.4709    0.1822  -17.9731 C   0  0  0  0  0  0  0  0  0  0  0  0
   -5.0698    0.4656  -19.3086 C   0  0  0  0  0  0  0  0  0  0  0  0
   -3.9835    1.3299  -19.6009 C   0  0  0  0  0  0  0  0  0  0  0  0
   -3.6232    1.5795  -20.8977 C   0  0  0  0  0  0  0  0  0  0  0  0
   -4.3319    0.9774  -21.9607 C   0  0  0  0  0  0  0  0  0  0  0  0
   -5.3913    0.1427  -21.7041 C   0  0  0  0  0  0  0  0  0  0  0  0
   -5.7909   -0.1312  -20.3665 C   0  0  0  0  0  0  0  0  0  0  0  0
   -9.1669   -1.0554  -23.0506 N   0  0  0  0  0  0  0  0  0  0  0  0
   -9.9915   -0.0282  -23.6875 C   0  0  0  0  0  0  0  0  0  0  0  0
  -11.4381   -0.0030  -23.2212 C   0  0  0  0  0  0  0  0  0  0  0  0
  -12.2120    1.1377  -23.4432 C   0  0  0  0  0  0  0  0  0  0  0  0
  -13.5415    1.1835  -23.0346 C   0  0  0  0  0  0  0  0  0  0  0  0
  -14.1252    0.0908  -22.4024 C   0  0  0  0  0  0  0  0  0  0  0  0
  -13.3519   -1.0414  -22.1887 C   0  0  0  0  0  0  0  0  0  0  0  0
  -14.0589   -2.4293  -21.4086 Cl  0  0  0  0  0  0  0  0  0  0  0  0
  -12.0193   -1.0946  -22.5791 C   0  0  0  0  0  0  0  0  0  0  0  0
   -8.9083   -2.3016  -23.7351 C   0  0  1  0  0  0  0  0  0  0  0  0
   -9.8675   -2.7335  -24.8673 C   0  0  0  0  0  0  0  0  0  0  0  0
   -9.1856   -4.0605  -25.3316 N   0  0  2  0  0  0  0  0  0  0  0  0
  -10.0660   -5.2018  -25.3416 C   0  0  0  0  0  0  0  0  0  0  0  0
  -10.1601   -6.1855  -26.5306 C   0  0  0  0  0  0  0  0  0  0  0  0
  -10.0468   -6.2682  -26.2344 C   0  0  0  0  0  0  0  0  0  0  0  0
   -8.0220   -4.0327  -24.3225 C   0  0  1  0  0  0  0  0  0  0  0  0
   -7.5507   -2.5778  -24.4257 C   0  0  0  0  0  0  0  0  0  0  0  0
   -8.7642   -3.6855  -23.0273 C   0  0  0  0  0  0  0  0  0  0  0  0
  1  2  2  0
  2  3  1  0
  3  4  1  0
  4  5  2  0
  5  6  1  0
  6  7  2  0
  7  8  1  0
  8  9  2  0
  9 10  1  0
 10 11  2  0
 11 12  1  0
 12 13  2  0
  2 14  1  0
 14 15  1  0
 15 16  1  0
 16 17  2  0
 17 18  1  0
 18 19  2  0
 19 20  1  0
 20 21  1  0
 20 22  2  0
 23 14  1  1
 23 24  1  0
 24 25  1  0
 25 26  1  1
 26 27  1  0
 27 28  1  0
 25 29  1  0
 29 30  1  6
 29 31  1  0
 13  4  1  0
 22 16  1  0
 30 23  1  0
 13  8  1  0
 31 23  1  0
 28 26  1  0
M  CHG  1  25   1
M  END
>  <template_ligand>  (90) 
mol-58

>  <template_receptor>  (90) 
receptors/receptor-58.pdb

>  <SMILES>  (90) 
O=C(Cc1cncc2ccccc12)N(Cc1cccc(Cl)c1)C12CC(C1)[NH+](C1CC1)C2

>  <LABEL>  (90) 
SARS-CoV-2 Mpro

$$$$
ligand_47
     RDKit          3D

 22 24  0  0  0  0  0  0  0  0999 V2000
   -9.5206   -0.1356  -27.5378 C   0  0  0  0  0  0  0  0  0  0  0  0
  -10.1733    0.2804  -26.2114 C   0  0  0  0  0  0  0  0  0  0  0  0
   -9.7637    1.7105  -25.8512 C   0  0  0  0  0  0  0  0  0  0  0  0
   -9.8403   -0.7560  -25.1037 C   0  0  0  0  0  0  0  0  0  0  0  0
  -10.7368   -0.6843  -23.8457 C   0  0  0  0  0  0  0  0  0  0  0  0
  -10.4146   -1.8166  -22.8658 C   0  0  0  0  0  0  0  0  0  0  0  0
   -8.9948   -1.8861  -22.5371 N   0  0  0  0  0  0  0  0  0  0  0  0
   -8.5651   -1.3229  -21.3441 C   0  0  0  0  0  0  0  0  0  0  0  0
   -9.2263   -0.5009  -20.7362 O   0  0  0  0  0  0  0  0  0  0  0  0
   -7.2416   -1.8855  -20.8097 C   0  0  0  0  0  0  0  0  0  0  0  0
   -6.5237   -1.0177  -19.8185 C   0  0  0  0  0  0  0  0  0  0  0  0
   -6.8768   -1.0811  -18.4975 C   0  0  0  0  0  0  0  0  0  0  0  0
   -6.2695   -0.4027  -17.4887 N   0  0  0  0  0  0  0  0  0  0  0  0
   -5.2627    0.3718  -17.8253 C   0  0  0  0  0  0  0  0  0  0  0  0
   -4.7930    0.5494  -19.1550 C   0  0  0  0  0  0  0  0  0  0  0  0
   -3.7154    1.4188  -19.4663 C   0  0  0  0  0  0  0  0  0  0  0  0
   -3.3208    1.6003  -20.7614 C   0  0  0  0  0  0  0  0  0  0  0  0
   -3.9856    0.9208  -21.8051 C   0  0  0  0  0  0  0  0  0  0  0  0
   -5.0239    0.0617  -21.5320 C   0  0  0  0  0  0  0  0  0  0  0  0
   -5.4547   -0.1506  -20.1951 C   0  0  0  0  0  0  0  0  0  0  0  0
   -8.1441   -1.9677  -23.7234 C   0  0  0  0  0  0  0  0  0  0  0  0
   -8.3728   -0.7512  -24.6258 C   0  0  0  0  0  0  0  0  0  0  0  0
  1  2  1  0
  2  3  1  0
  2  4  1  0
  4  5  1  0
  5  6  1  0
  6  7  1  0
  7  8  1  0
  8  9  2  0
  8 10  1  0
 10 11  1  0
 11 12  2  0
 12 13  1  0
 13 14  2  0
 14 15  1  0
 15 16  2  0
 16 17  1  0
 17 18  2  0
 18 19  1  0
 19 20  2  0
  7 21  1  0
 21 22  1  0
 22  4  1  0
 20 11  1  0
 20 15  1  0
M  END
>  <template_ligand>  (91) 
mol-323

>  <template_receptor>  (91) 
receptors/receptor-323.pdb

>  <SMILES>  (91) 
CC(C)C1CCN(C(=O)Cc2cncc3ccccc23)CC1

>  <LABEL>  (91) 
SARS-CoV-2 Mpro

$$$$
ligand_48
     RDKit          3D

 40 45  0  0  0  0  0  0  0  0999 V2000
   -7.0557    3.5657  -22.6975 C   0  0  0  0  0  0  0  0  0  0  0  0
   -7.8013    2.5654  -23.4397 N   0  0  0  0  0  0  0  0  0  0  0  0
   -7.4577    2.3186  -24.7263 C   0  0  0  0  0  0  0  0  0  0  0  0
   -6.6146    2.9691  -25.3305 O   0  0  0  0  0  0  0  0  0  0  0  0
   -8.1867    1.1873  -25.4641 C   0  0  0  0  0  0  0  0  0  0  0  0
   -9.0234    0.3246  -24.6592 N   0  0  0  0  0  0  0  0  0  0  0  0
   -8.5515   -1.0078  -24.3148 C   0  0  0  0  0  0  0  0  0  0  0  0
   -9.1388   -1.4943  -22.9605 C   0  0  2  0  0  0  0  0  0  0  0  0
   -8.5476   -0.6385  -21.8127 C   0  0  0  0  0  0  0  0  0  0  0  0
   -8.8871    0.4797  -21.4714 O   0  0  0  0  0  0  0  0  0  0  0  0
   -7.5130   -1.3426  -21.2399 N   0  0  0  0  0  0  0  0  0  0  0  0
   -6.7190   -0.7625  -20.2205 C   0  0  0  0  0  0  0  0  0  0  0  0
   -7.0365   -1.0002  -18.9077 C   0  0  0  0  0  0  0  0  0  0  0  0
   -6.3602   -0.4933  -17.8460 N   0  0  0  0  0  0  0  0  0  0  0  0
   -5.3366    0.2843  -18.1167 C   0  0  0  0  0  0  0  0  0  0  0  0
   -4.9093    0.6272  -19.4321 C   0  0  0  0  0  0  0  0  0  0  0  0
   -3.7987    1.4832  -19.6594 C   0  0  0  0  0  0  0  0  0  0  0  0
   -3.4071    1.7829  -20.9345 C   0  0  0  0  0  0  0  0  0  0  0  0
   -4.1008    1.2495  -22.0444 C   0  0  0  0  0  0  0  0  0  0  0  0
   -5.1833    0.4269  -21.8512 C   0  0  0  0  0  0  0  0  0  0  0  0
   -5.6174    0.0924  -20.5342 C   0  0  0  0  0  0  0  0  0  0  0  0
   -7.2571   -2.6214  -21.8719 C   0  0  0  0  0  0  0  0  0  0  0  0
   -8.6017   -2.8898  -22.5578 C   0  0  2  0  0  0  0  0  0  0  0  0
   -8.5279   -3.9429  -23.6620 C   0  0  0  0  0  0  0  0  0  0  0  0
   -8.2527   -5.2607  -23.1404 N   0  0  0  0  0  0  0  0  0  0  0  0
   -6.9676   -5.6866  -22.9486 C   0  0  0  0  0  0  0  0  0  0  0  0
   -5.8126   -5.1388  -23.4329 C   0  0  0  0  0  0  0  0  0  0  0  0
   -4.6589   -5.8260  -23.1672 N   0  0  0  0  0  0  0  0  0  0  0  0
   -4.8907   -6.9044  -22.4893 C   0  0  0  0  0  0  0  0  0  0  0  0
   -3.7840   -7.8497  -22.1607 C   0  0  0  0  0  0  0  0  0  0  0  0
   -6.5791   -7.1594  -22.0888 S   0  0  0  0  0  0  0  0  0  0  0  0
  -10.6463   -1.3558  -23.0430 C   0  0  0  0  0  0  0  0  0  0  0  0
  -11.5358   -2.2359  -22.4105 C   0  0  0  0  0  0  0  0  0  0  0  0
  -12.8942   -1.9747  -22.4344 C   0  0  0  0  0  0  0  0  0  0  0  0
  -13.9812   -3.0680  -21.6313 Cl  0  0  0  0  0  0  0  0  0  0  0  0
  -13.4258   -0.8551  -23.0708 C   0  0  0  0  0  0  0  0  0  0  0  0
  -12.5604    0.0042  -23.7107 C   0  0  0  0  0  0  0  0  0  0  0  0
  -11.1912   -0.2528  -23.7184 C   0  0  0  0  0  0  0  0  0  0  0  0
  -10.3328    0.6893  -24.4993 C   0  0  0  0  0  0  0  0  0  0  0  0
  -10.7789    1.7327  -24.9624 O   0  0  0  0  0  0  0  0  0  0  0  0
  1  2  1  0
  2  3  1  0
  3  4  2  0
  3  5  1  0
  5  6  1  0
  6  7  1  0
  8  7  1  6
  8  9  1  0
  9 10  2  0
  9 11  1  0
 11 12  1  0
 12 13  2  0
 13 14  1  0
 14 15  2  0
 15 16  1  0
 16 17  2  0
 17 18  1  0
 18 19  2  0
 19 20  1  0
 20 21  2  0
 11 22  1  0
 22 23  1  0
 23 24  1  6
 24 25  1  0
 25 26  1  0
 26 27  2  0
 27 28  1  0
 28 29  2  0
 29 30  1  0
 29 31  1  0
  8 32  1  0
 32 33  2  0
 33 34  1  0
 34 35  1  0
 34 36  2  0
 36 37  1  0
 37 38  2  0
 38 39  1  0
 39 40  2  0
 39  6  1  0
 23  8  1  0
 31 26  1  0
 38 32  1  0
 21 12  1  0
 21 16  1  0
M  END
>  <template_ligand>  (92) 
mol-218

>  <template_receptor>  (92) 
receptors/receptor-218.pdb

>  <SMILES>  (92) 
CNC(=O)CN1CC2(C(=O)N(c3cncc4ccccc34)CC2CNc2cnc(C)s2)c2cc(Cl)ccc2C1=O

>  <LABEL>  (92) 
SARS-CoV-2 Mpro

$$$$
ligand_41
     RDKit          3D

 38 43  0  0  0  0  0  0  0  0999 V2000
    6.3584    4.4215   22.4284 C   0  0  0  0  0  0  0  0  0  0  0  0
    7.1834    3.5175   23.2086 N   0  0  0  0  0  0  0  0  0  0  0  0
    6.8377    3.2463   24.4890 C   0  0  0  0  0  0  0  0  0  0  0  0
    5.9326    3.8201   25.0776 O   0  0  0  0  0  0  0  0  0  0  0  0
    7.6391    2.1776   25.2393 C   0  0  0  0  0  0  0  0  0  0  0  0
    8.5619    1.3860   24.4612 N   0  0  0  0  0  0  0  0  0  0  0  0
    8.2019    0.0214   24.1328 C   0  0  0  0  0  0  0  0  0  0  0  0
    8.8274   -0.4533   22.7988 C   0  0  2  0  0  0  0  0  0  0  0  0
    8.2024    0.3270   21.6184 C   0  0  0  0  0  0  0  0  0  0  0  0
    8.4792    1.4521   21.2479 O   0  0  0  0  0  0  0  0  0  0  0  0
    7.2301   -0.4586   21.0456 N   0  0  0  0  0  0  0  0  0  0  0  0
    6.4042    0.0358   20.0096 C   0  0  0  0  0  0  0  0  0  0  0  0
    6.7489   -0.2102   18.7060 C   0  0  0  0  0  0  0  0  0  0  0  0
    6.0464    0.2215   17.6279 N   0  0  0  0  0  0  0  0  0  0  0  0
    4.9608    0.9218   17.8720 C   0  0  0  0  0  0  0  0  0  0  0  0
    4.4937    1.2496   19.1800 C   0  0  0  0  0  0  0  0  0  0  0  0
    3.3156    2.0134   19.3900 C   0  0  0  0  0  0  0  0  0  0  0  0
    2.8872    2.3016   20.6564 C   0  0  0  0  0  0  0  0  0  0  0  0
    3.6110    1.8435   21.7779 C   0  0  0  0  0  0  0  0  0  0  0  0
    4.7603    1.1129   21.6055 C   0  0  0  0  0  0  0  0  0  0  0  0
    5.2309    0.7967   20.2965 C   0  0  0  0  0  0  0  0  0  0  0  0
    7.0580   -1.7431   21.6851 C   0  0  0  0  0  0  0  0  0  0  0  0
    8.3652   -1.9018   22.4748 C   0  0  2  0  0  0  0  0  0  0  0  0
    8.2207   -2.8707   23.6548 C   0  0  0  0  0  0  0  0  0  0  0  0
    7.8409   -4.2354   23.1959 C   0  0  0  0  0  0  0  0  0  0  0  0
    6.6262   -4.6225   22.8259 N   0  0  0  0  0  0  0  0  0  0  0  0
    6.7695   -5.8940   22.4666 N   0  0  0  0  0  0  0  0  0  0  0  0
    8.0189   -6.2474   22.6182 N   0  0  0  0  0  0  0  0  0  0  0  0
    8.7149   -5.2172   23.0755 N   0  0  0  0  0  0  0  0  0  0  0  0
   10.3218   -0.2009   22.8945 C   0  0  0  0  0  0  0  0  0  0  0  0
   11.2892   -1.0116   22.2859 C   0  0  0  0  0  0  0  0  0  0  0  0
   12.6237   -0.6396   22.3143 C   0  0  0  0  0  0  0  0  0  0  0  0
   13.8003   -1.6550   21.5277 Cl  0  0  0  0  0  0  0  0  0  0  0  0
   13.0587    0.5290   22.9350 C   0  0  0  0  0  0  0  0  0  0  0  0
   12.1166    1.3250   23.5498 C   0  0  0  0  0  0  0  0  0  0  0  0
   10.7712    0.9581   23.5489 C   0  0  0  0  0  0  0  0  0  0  0  0
    9.8355    1.8553   24.2918 C   0  0  0  0  0  0  0  0  0  0  0  0
   10.1944    2.9511   24.7091 O   0  0  0  0  0  0  0  0  0  0  0  0
  1  2  1  0
  2  3  1  0
  3  4  2  0
  3  5  1  0
  5  6  1  0
  6  7  1  0
  8  7  1  1
  8  9  1  0
  9 10  2  0
  9 11  1  0
 11 12  1  0
 12 13  2  0
 13 14  1  0
 14 15  2  0
 15 16  1  0
 16 17  2  0
 17 18  1  0
 18 19  2  0
 19 20  1  0
 20 21  2  0
 11 22  1  0
 22 23  1  0
 23 24  1  1
 24 25  1  0
 25 26  1  0
 26 27  2  0
 27 28  1  0
 28 29  1  0
  8 30  1  0
 30 31  2  0
 31 32  1  0
 32 33  1  0
 32 34  2  0
 34 35  1  0
 35 36  2  0
 36 37  1  0
 37 38  2  0
 37  6  1  0
 23  8  1  0
 29 25  2  0
 36 30  1  0
 21 12  1  0
 21 16  1  0
M  CHG  1  28  -1
M  END
>  <template_ligand>  (93) 
mol-218

>  <template_receptor>  (93) 
receptors/receptor-218.pdb

>  <SMILES>  (93) 
CNC(=O)CN1CC2(C(=O)N(c3cncc4ccccc34)CC2Cc2nn[n-]n2)c2cc(Cl)ccc2C1=O

>  <LABEL>  (93) 
MERS-CoV Mpro

$$$$
ligand_49
     RDKit          3D

 37 41  0  0  0  0  0  0  0  0999 V2000
   -7.0479    3.5969  -22.7356 C   0  0  0  0  0  0  0  0  0  0  0  0
   -7.7863    2.6133  -23.4980 N   0  0  0  0  0  0  0  0  0  0  0  0
   -7.4492    2.3561  -24.7800 C   0  0  0  0  0  0  0  0  0  0  0  0
   -6.6064    2.9908  -25.3961 O   0  0  0  0  0  0  0  0  0  0  0  0
   -8.1496    1.1780  -25.4665 C   0  0  0  0  0  0  0  0  0  0  0  0
   -8.9992    0.3448  -24.6393 N   0  0  0  0  0  0  0  0  0  0  0  0
   -8.5562   -0.9989  -24.3214 C   0  0  0  0  0  0  0  0  0  0  0  0
   -9.1453   -1.4905  -22.9735 C   0  0  2  0  0  0  0  0  0  0  0  0
   -8.5816   -0.6241  -21.8215 C   0  0  0  0  0  0  0  0  0  0  0  0
   -8.9591    0.4772  -21.4725 O   0  0  0  0  0  0  0  0  0  0  0  0
   -7.5330   -1.3101  -21.2457 N   0  0  0  0  0  0  0  0  0  0  0  0
   -6.7294   -0.7369  -20.2223 C   0  0  0  0  0  0  0  0  0  0  0  0
   -7.0151   -0.9988  -18.9074 C   0  0  0  0  0  0  0  0  0  0  0  0
   -6.3231   -0.5006  -17.8508 N   0  0  0  0  0  0  0  0  0  0  0  0
   -5.3052    0.2868  -18.1129 C   0  0  0  0  0  0  0  0  0  0  0  0
   -4.8773    0.6265  -19.4296 C   0  0  0  0  0  0  0  0  0  0  0  0
   -3.7704    1.4882  -19.6759 C   0  0  0  0  0  0  0  0  0  0  0  0
   -3.3931    1.7807  -20.9590 C   0  0  0  0  0  0  0  0  0  0  0  0
   -4.0922    1.2274  -22.0576 C   0  0  0  0  0  0  0  0  0  0  0  0
   -5.1726    0.4073  -21.8461 C   0  0  0  0  0  0  0  0  0  0  0  0
   -5.6011    0.0912  -20.5259 C   0  0  0  0  0  0  0  0  0  0  0  0
   -7.2696   -2.5961  -21.8689 C   0  0  0  0  0  0  0  0  0  0  0  0
   -8.5978   -2.8861  -22.5860 C   0  0  2  0  0  0  0  0  0  0  0  0
   -8.5166   -3.9131  -23.7131 C   0  0  0  0  0  0  0  0  0  0  0  0
   -8.2732   -5.1997  -23.1931 O   0  0  0  0  0  0  0  0  0  0  0  0
   -6.9563   -5.6987  -23.3719 C   0  0  0  0  0  0  0  0  0  0  0  0
   -6.6538   -6.6300  -22.2133 C   0  0  0  0  0  0  0  0  0  0  0  0
   -6.8298   -6.4038  -24.7139 C   0  0  0  0  0  0  0  0  0  0  0  0
  -10.6479   -1.3595  -23.0699 C   0  0  0  0  0  0  0  0  0  0  0  0
  -11.5250   -2.2450  -22.4325 C   0  0  0  0  0  0  0  0  0  0  0  0
  -12.8788   -1.9763  -22.4442 C   0  0  0  0  0  0  0  0  0  0  0  0
  -13.7023   -2.8214  -21.8006 F   0  0  0  0  0  0  0  0  0  0  0  0
  -13.4253   -0.8610  -23.0743 C   0  0  0  0  0  0  0  0  0  0  0  0
  -12.5591    0.0008  -23.7217 C   0  0  0  0  0  0  0  0  0  0  0  0
  -11.1840   -0.2410  -23.7309 C   0  0  0  0  0  0  0  0  0  0  0  0
  -10.2972    0.7342  -24.4521 C   0  0  0  0  0  0  0  0  0  0  0  0
  -10.6922    1.8271  -24.8337 O   0  0  0  0  0  0  0  0  0  0  0  0
  1  2  1  0
  2  3  1  0
  3  4  2  0
  3  5  1  0
  5  6  1  0
  6  7  1  0
  8  7  1  6
  8  9  1  0
  9 10  2  0
  9 11  1  0
 11 12  1  0
 12 13  2  0
 13 14  1  0
 14 15  2  0
 15 16  1  0
 16 17  2  0
 17 18  1  0
 18 19  2  0
 19 20  1  0
 20 21  2  0
 11 22  1  0
 22 23  1  0
 23 24  1  6
 24 25  1  0
 25 26  1  0
 26 27  1  0
 26 28  1  0
  8 29  1  0
 29 30  2  0
 30 31  1  0
 31 32  1  0
 31 33  2  0
 33 34  1  0
 34 35  2  0
 35 36  1  0
 36 37  2  0
 36  6  1  0
 23  8  1  0
 35 29  1  0
 21 12  1  0
 21 16  1  0
M  END
>  <template_ligand>  (94) 
mol-218

>  <template_receptor>  (94) 
receptors/receptor-218.pdb

>  <SMILES>  (94) 
CNC(=O)CN1CC2(C(=O)N(c3cncc4ccccc34)CC2COC(C)C)c2cc(F)ccc2C1=O

>  <LABEL>  (94) 
SARS-CoV-2 Mpro

$$$$
ligand_42
     RDKit          3D

 36 41  0  0  0  0  0  0  0  0999 V2000
    8.5183    5.3705   26.8524 C   0  0  0  0  0  0  0  0  0  0  0  0
    7.0883    4.9306   26.5726 C   0  0  0  0  0  0  0  0  0  0  0  0
    6.8470    4.5826   25.1784 N   0  0  0  0  0  0  0  0  0  0  0  0
    6.3920    5.5055   24.3143 N   0  0  0  0  0  0  0  0  0  0  0  0
    6.3299    4.8773   23.1446 C   0  0  0  0  0  0  0  0  0  0  0  0
    6.7726    3.5480   23.2428 C   0  0  0  0  0  0  0  0  0  0  0  0
    7.1191    3.4012   24.5651 C   0  0  0  0  0  0  0  0  0  0  0  0
    7.6133    2.1675   25.2555 C   0  0  0  0  0  0  0  0  0  0  0  0
    8.5204    1.3931   24.4211 N   0  0  0  0  0  0  0  0  0  0  0  0
    8.2035    0.0046   24.1344 C   0  0  0  0  0  0  0  0  0  0  0  0
    8.8482   -0.4650   22.8049 C   0  0  2  0  0  0  0  0  0  0  0  0
    8.2325    0.3326   21.6270 C   0  0  0  0  0  0  0  0  0  0  0  0
    8.5296    1.4463   21.2513 O   0  0  0  0  0  0  0  0  0  0  0  0
    7.2452   -0.4409   21.0555 N   0  0  0  0  0  0  0  0  0  0  0  0
    6.4112    0.0490   20.0136 C   0  0  0  0  0  0  0  0  0  0  0  0
    6.7340   -0.2096   18.7066 C   0  0  0  0  0  0  0  0  0  0  0  0
    6.0155    0.2135   17.6353 N   0  0  0  0  0  0  0  0  0  0  0  0
    4.9347    0.9194   17.8743 C   0  0  0  0  0  0  0  0  0  0  0  0
    4.4651    1.2438   19.1809 C   0  0  0  0  0  0  0  0  0  0  0  0
    3.2903    2.0180   19.4012 C   0  0  0  0  0  0  0  0  0  0  0  0
    2.8791    2.3065   20.6735 C   0  0  0  0  0  0  0  0  0  0  0  0
    3.6113    1.8364   21.7881 C   0  0  0  0  0  0  0  0  0  0  0  0
    4.7454    1.0832   21.6006 C   0  0  0  0  0  0  0  0  0  0  0  0
    5.2129    0.7819   20.2921 C   0  0  0  0  0  0  0  0  0  0  0  0
    7.0806   -1.7305   21.6996 C   0  0  0  0  0  0  0  0  0  0  0  0
    8.4154   -1.9095   22.4354 C   0  0  2  0  0  0  0  0  0  0  0  0
    8.3733   -2.9129   23.5798 C   0  0  0  0  0  0  0  0  0  0  0  0
   10.3346   -0.2023   22.9140 C   0  0  0  0  0  0  0  0  0  0  0  0
   11.2890   -1.0218   22.3024 C   0  0  0  0  0  0  0  0  0  0  0  0
   12.6164   -0.6456   22.3232 C   0  0  0  0  0  0  0  0  0  0  0  0
   13.5123   -1.4330   21.7036 F   0  0  0  0  0  0  0  0  0  0  0  0
   13.0612    0.5209   22.9396 C   0  0  0  0  0  0  0  0  0  0  0  0
   12.1198    1.3207   23.5605 C   0  0  0  0  0  0  0  0  0  0  0  0
   10.7661    0.9717   23.5552 C   0  0  0  0  0  0  0  0  0  0  0  0
    9.7859    1.8828   24.2443 C   0  0  0  0  0  0  0  0  0  0  0  0
   10.1088    2.9921   24.6430 O   0  0  0  0  0  0  0  0  0  0  0  0
  1  2  1  0
  2  3  1  0
  3  4  1  0
  4  5  2  0
  5  6  1  0
  6  7  2  0
  7  8  1  0
  8  9  1  0
  9 10  1  0
 11 10  1  1
 11 12  1  0
 12 13  2  0
 12 14  1  0
 14 15  1  0
 15 16  2  0
 16 17  1  0
 17 18  2  0
 18 19  1  0
 19 20  2  0
 20 21  1  0
 21 22  2  0
 22 23  1  0
 23 24  2  0
 14 25  1  0
 25 26  1  0
 26 27  1  1
 11 28  1  0
 28 29  2  0
 29 30  1  0
 30 31  1  0
 30 32  2  0
 32 33  1  0
 33 34  2  0
 34 35  1  0
 35 36  2  0
  7  3  1  0
 35  9  1  0
 26 11  1  0
 34 28  1  0
 24 15  1  0
 24 19  1  0
M  END
>  <template_ligand>  (95) 
mol-218

>  <template_receptor>  (95) 
receptors/receptor-218.pdb

>  <SMILES>  (95) 
CCn1nccc1CN1CC2(C(=O)N(c3cncc4ccccc34)CC2C)c2cc(F)ccc2C1=O

>  <LABEL>  (95) 
MERS-CoV Mpro

$$$$
ligand_50
     RDKit          3D

 29 31  0  0  0  0  0  0  0  0999 V2000
   -6.9333    0.6280  -24.1889 C   0  0  0  0  0  0  0  0  0  0  0  0
   -6.8249   -0.6709  -24.4817 C   0  0  0  0  0  0  0  0  0  0  0  0
   -7.4764   -1.8707  -23.7829 C   0  0  0  0  0  0  0  0  0  0  0  0
   -8.4652   -1.5800  -22.7525 N   0  0  0  0  0  0  0  0  0  0  0  0
   -8.0517   -0.9747  -21.5634 C   0  0  0  0  0  0  0  0  0  0  0  0
   -8.5707    0.0170  -21.0980 O   0  0  0  0  0  0  0  0  0  0  0  0
   -6.9549   -1.6255  -20.9746 N   0  0  0  0  0  0  0  0  0  0  0  0
   -6.3050   -0.9661  -19.8976 C   0  0  0  0  0  0  0  0  0  0  0  0
   -6.6398   -1.1594  -18.5816 C   0  0  0  0  0  0  0  0  0  0  0  0
   -6.0592   -0.4976  -17.5497 N   0  0  0  0  0  0  0  0  0  0  0  0
   -5.1241    0.3757  -17.8262 C   0  0  0  0  0  0  0  0  0  0  0  0
   -4.6646    0.6551  -19.1419 C   0  0  0  0  0  0  0  0  0  0  0  0
   -3.6466    1.6053  -19.4166 C   0  0  0  0  0  0  0  0  0  0  0  0
   -3.2485    1.8327  -20.7064 C   0  0  0  0  0  0  0  0  0  0  0  0
   -3.8528    1.1319  -21.7769 C   0  0  0  0  0  0  0  0  0  0  0  0
   -4.8317    0.2027  -21.5314 C   0  0  0  0  0  0  0  0  0  0  0  0
   -5.2720   -0.0373  -20.2069 C   0  0  0  0  0  0  0  0  0  0  0  0
   -9.8343   -1.4070  -23.1268 C   0  0  0  0  0  0  0  0  0  0  0  0
  -10.2212   -0.5041  -24.1156 C   0  0  0  0  0  0  0  0  0  0  0  0
  -11.5747   -0.3031  -24.3911 C   0  0  0  0  0  0  0  0  0  0  0  0
  -12.5509   -1.0508  -23.7434 C   0  0  0  0  0  0  0  0  0  0  0  0
  -12.1494   -1.9847  -22.7976 C   0  0  0  0  0  0  0  0  0  0  0  0
  -13.3632   -2.9674  -22.0271 Cl  0  0  0  0  0  0  0  0  0  0  0  0
  -10.8118   -2.1520  -22.4623 C   0  0  0  0  0  0  0  0  0  0  0  0
   -5.8614   -1.0042  -25.5992 C   0  0  0  0  0  0  0  0  0  0  0  0
   -4.9004   -0.2911  -25.8499 O   0  0  0  0  0  0  0  0  0  0  0  0
   -6.1118   -2.1304  -26.3184 N   0  0  0  0  0  0  0  0  0  0  0  0
   -5.0511   -2.7121  -27.1214 C   0  0  0  0  0  0  0  0  0  0  0  0
   -5.5146   -3.9771  -27.8268 C   0  0  0  0  0  0  0  0  0  0  0  0
  1  2  2  0
  2  3  1  0
  3  4  1  0
  4  5  1  0
  5  6  2  0
  5  7  1  0
  7  8  1  0
  8  9  2  0
  9 10  1  0
 10 11  2  0
 11 12  1  0
 12 13  2  0
 13 14  1  0
 14 15  2  0
 15 16  1  0
 16 17  2  0
  4 18  1  0
 18 19  2  0
 19 20  1  0
 20 21  2  0
 21 22  1  0
 22 23  1  0
 22 24  2  0
  2 25  1  0
 25 26  2  0
 25 27  1  0
 27 28  1  0
 28 29  1  0
 17  8  1  0
 24 18  1  0
 17 12  1  0
M  END
>  <template_ligand>  (96) 
mol-173

>  <template_receptor>  (96) 
receptors/receptor-173.pdb

>  <SMILES>  (96) 
C=C(CN(C(=O)Nc1cncc2ccccc12)c1cccc(Cl)c1)C(=O)NCC

>  <LABEL>  (96) 
SARS-CoV-2 Mpro

$$$$
ligand_43
     RDKit          3D

 34 38  0  0  0  0  0  0  0  0999 V2000
    6.3507    4.4399   22.4529 C   0  0  0  0  0  0  0  0  0  0  0  0
    7.1562    3.5335   23.2404 N   0  0  0  0  0  0  0  0  0  0  0  0
    6.8275    3.2717   24.5232 C   0  0  0  0  0  0  0  0  0  0  0  0
    5.9281    3.8467   25.1196 O   0  0  0  0  0  0  0  0  0  0  0  0
    7.6121    2.1664   25.2386 C   0  0  0  0  0  0  0  0  0  0  0  0
    8.5344    1.3898   24.4362 N   0  0  0  0  0  0  0  0  0  0  0  0
    8.2053    0.0076   24.1399 C   0  0  0  0  0  0  0  0  0  0  0  0
    8.8486   -0.4579   22.8080 C   0  0  2  0  0  0  0  0  0  0  0  0
    8.2322    0.3396   21.6320 C   0  0  0  0  0  0  0  0  0  0  0  0
    8.5232    1.4619   21.2663 O   0  0  0  0  0  0  0  0  0  0  0  0
    7.2476   -0.4356   21.0569 N   0  0  0  0  0  0  0  0  0  0  0  0
    6.4141    0.0561   20.0162 C   0  0  0  0  0  0  0  0  0  0  0  0
    6.7344   -0.2089   18.7097 C   0  0  0  0  0  0  0  0  0  0  0  0
    6.0167    0.2118   17.6373 N   0  0  0  0  0  0  0  0  0  0  0  0
    4.9352    0.9194   17.8739 C   0  0  0  0  0  0  0  0  0  0  0  0
    4.4658    1.2462   19.1803 C   0  0  0  0  0  0  0  0  0  0  0  0
    3.2901    2.0193   19.3987 C   0  0  0  0  0  0  0  0  0  0  0  0
    2.8754    2.3026   20.6728 C   0  0  0  0  0  0  0  0  0  0  0  0
    3.6038    1.8270   21.7885 C   0  0  0  0  0  0  0  0  0  0  0  0
    4.7498    1.0936   21.6035 C   0  0  0  0  0  0  0  0  0  0  0  0
    5.2176    0.7915   20.2934 C   0  0  0  0  0  0  0  0  0  0  0  0
    7.0756   -1.7259   21.6987 C   0  0  0  0  0  0  0  0  0  0  0  0
    8.4137   -1.9000   22.4315 C   0  0  2  0  0  0  0  0  0  0  0  0
    8.3887   -2.8924   23.5834 C   0  0  0  0  0  0  0  0  0  0  0  0
    8.1450   -4.5729   23.0210 Cl  0  0  0  0  0  0  0  0  0  0  0  0
   10.3363   -0.2036   22.9185 C   0  0  0  0  0  0  0  0  0  0  0  0
   11.2910   -1.0194   22.3001 C   0  0  0  0  0  0  0  0  0  0  0  0
   12.6248   -0.6493   22.3077 C   0  0  0  0  0  0  0  0  0  0  0  0
   13.7785   -1.6576   21.4794 Cl  0  0  0  0  0  0  0  0  0  0  0  0
   13.0591    0.5201   22.9354 C   0  0  0  0  0  0  0  0  0  0  0  0
   12.1212    1.3204   23.5634 C   0  0  0  0  0  0  0  0  0  0  0  0
   10.7704    0.9670   23.5636 C   0  0  0  0  0  0  0  0  0  0  0  0
    9.7985    1.8806   24.2562 C   0  0  0  0  0  0  0  0  0  0  0  0
   10.0996    3.0089   24.6216 O   0  0  0  0  0  0  0  0  0  0  0  0
  1  2  1  0
  2  3  1  0
  3  4  2  0
  3  5  1  0
  5  6  1  0
  6  7  1  0
  8  7  1  1
  8  9  1  0
  9 10  2  0
  9 11  1  0
 11 12  1  0
 12 13  2  0
 13 14  1  0
 14 15  2  0
 15 16  1  0
 16 17  2  0
 17 18  1  0
 18 19  2  0
 19 20  1  0
 20 21  2  0
 11 22  1  0
 22 23  1  0
 23 24  1  1
 24 25  1  0
  8 26  1  0
 26 27  2  0
 27 28  1  0
 28 29  1  0
 28 30  2  0
 30 31  1  0
 31 32  2  0
 32 33  1  0
 33 34  2  0
 33  6  1  0
 23  8  1  0
 32 26  1  0
 21 12  1  0
 21 16  1  0
M  END
>  <template_ligand>  (97) 
mol-218

>  <template_receptor>  (97) 
receptors/receptor-218.pdb

>  <SMILES>  (97) 
CNC(=O)CN1CC2(C(=O)N(c3cncc4ccccc34)CC2CCl)c2cc(Cl)ccc2C1=O

>  <LABEL>  (97) 
MERS-CoV Mpro

$$$$
ligand_51
     RDKit          3D

 32 35  0  0  0  0  0  0  0  0999 V2000
  -14.9972   -0.5713  -22.9154 C   0  0  0  0  0  0  0  0  0  0  0  0
  -14.2873   -1.4098  -21.8366 C   0  0  0  0  0  0  0  0  0  0  0  0
  -13.9079   -2.8467  -22.1429 C   0  0  0  0  0  0  0  0  0  0  0  0
  -14.4728   -3.7867  -21.6169 O   0  0  0  0  0  0  0  0  0  0  0  0
  -12.8313   -3.0677  -22.9870 N   0  0  0  0  0  0  0  0  0  0  0  0
  -11.8371   -2.1419  -23.4053 C   0  0  0  0  0  0  0  0  0  0  0  0
  -12.1097   -1.1282  -24.3197 C   0  0  0  0  0  0  0  0  0  0  0  0
  -11.1463   -0.1727  -24.6047 C   0  0  0  0  0  0  0  0  0  0  0  0
   -9.8494   -0.2809  -24.1236 C   0  0  0  0  0  0  0  0  0  0  0  0
   -9.5368   -1.3813  -23.3260 C   0  0  0  0  0  0  0  0  0  0  0  0
   -8.2001   -1.6560  -22.8806 N   0  0  0  0  0  0  0  0  0  0  0  0
   -7.4147   -2.5629  -23.7249 C   0  0  0  0  0  0  0  0  0  0  0  0
   -7.9129   -4.0014  -23.7717 C   0  0  0  0  0  0  0  0  0  0  0  0
   -7.4544   -4.9519  -22.8580 C   0  0  0  0  0  0  0  0  0  0  0  0
   -7.8974   -6.2720  -22.9144 C   0  0  0  0  0  0  0  0  0  0  0  0
   -8.8173   -6.6628  -23.8819 C   0  0  0  0  0  0  0  0  0  0  0  0
   -9.2905   -5.7246  -24.7946 C   0  0  0  0  0  0  0  0  0  0  0  0
   -8.8410   -4.4086  -24.7381 C   0  0  0  0  0  0  0  0  0  0  0  0
   -7.9122   -1.2013  -21.5943 C   0  0  0  0  0  0  0  0  0  0  0  0
   -8.5629   -0.2982  -21.1008 O   0  0  0  0  0  0  0  0  0  0  0  0
   -6.8341   -1.9144  -20.7608 C   0  0  0  0  0  0  0  0  0  0  0  0
   -6.1869   -1.0091  -19.7433 C   0  0  0  0  0  0  0  0  0  0  0  0
   -6.5515   -1.0613  -18.4234 C   0  0  0  0  0  0  0  0  0  0  0  0
   -5.9890   -0.3384  -17.4196 N   0  0  0  0  0  0  0  0  0  0  0  0
   -5.0291    0.4878  -17.7435 C   0  0  0  0  0  0  0  0  0  0  0  0
   -4.5807    0.6931  -19.0756 C   0  0  0  0  0  0  0  0  0  0  0  0
   -3.5791    1.6472  -19.3838 C   0  0  0  0  0  0  0  0  0  0  0  0
   -3.1924    1.8480  -20.6802 C   0  0  0  0  0  0  0  0  0  0  0  0
   -3.7861    1.0968  -21.7199 C   0  0  0  0  0  0  0  0  0  0  0  0
   -4.7508    0.1608  -21.4428 C   0  0  0  0  0  0  0  0  0  0  0  0
   -5.1811   -0.0652  -20.1093 C   0  0  0  0  0  0  0  0  0  0  0  0
  -10.5342   -2.2671  -22.9330 C   0  0  0  0  0  0  0  0  0  0  0  0
  1  2  1  0
  2  3  1  0
  3  4  2  0
  3  5  1  0
  5  6  1  0
  6  7  2  0
  7  8  1  0
  8  9  2  0
  9 10  1  0
 10 11  1  0
 11 12  1  0
 12 13  1  0
 13 14  2  0
 14 15  1  0
 15 16  2  0
 16 17  1  0
 17 18  2  0
 11 19  1  0
 19 20  2  0
 19 21  1  0
 21 22  1  0
 22 23  2  0
 23 24  1  0
 24 25  2  0
 25 26  1  0
 26 27  2  0
 27 28  1  0
 28 29  2  0
 29 30  1  0
 30 31  2  0
 10 32  2  0
 32  6  1  0
 18 13  1  0
 31 22  1  0
 31 26  1  0
M  END
>  <template_ligand>  (98) 
mol-173

>  <template_receptor>  (98) 
receptors/receptor-173.pdb

>  <SMILES>  (98) 
CCC(=O)Nc1cccc(N(Cc2ccccc2)C(=O)Cc2cncc3ccccc23)c1

>  <LABEL>  (98) 
SARS-CoV-2 Mpro

$$$$
ligand_44
     RDKit          3D

 35 39  0  0  0  0  0  0  0  0999 V2000
    6.3508    4.4399   22.4531 C   0  0  0  0  0  0  0  0  0  0  0  0
    7.1563    3.5340   23.2404 N   0  0  0  0  0  0  0  0  0  0  0  0
    6.8279    3.2721   24.5228 C   0  0  0  0  0  0  0  0  0  0  0  0
    5.9277    3.8465   25.1192 O   0  0  0  0  0  0  0  0  0  0  0  0
    7.6129    2.1674   25.2382 C   0  0  0  0  0  0  0  0  0  0  0  0
    8.5368    1.3902   24.4377 N   0  0  0  0  0  0  0  0  0  0  0  0
    8.2098    0.0063   24.1391 C   0  0  0  0  0  0  0  0  0  0  0  0
    8.8511   -0.4621   22.8081 C   0  0  2  0  0  0  0  0  0  0  0  0
    8.2324    0.3362   21.6326 C   0  0  0  0  0  0  0  0  0  0  0  0
    8.5212    1.4593   21.2667 O   0  0  0  0  0  0  0  0  0  0  0  0
    7.2496   -0.4388   21.0566 N   0  0  0  0  0  0  0  0  0  0  0  0
    6.4148    0.0556   20.0169 C   0  0  0  0  0  0  0  0  0  0  0  0
    6.7347   -0.2087   18.7100 C   0  0  0  0  0  0  0  0  0  0  0  0
    6.0169    0.2114   17.6375 N   0  0  0  0  0  0  0  0  0  0  0  0
    4.9355    0.9193   17.8739 C   0  0  0  0  0  0  0  0  0  0  0  0
    4.4659    1.2461   19.1805 C   0  0  0  0  0  0  0  0  0  0  0  0
    3.2899    2.0189   19.3984 C   0  0  0  0  0  0  0  0  0  0  0  0
    2.8748    2.3027   20.6727 C   0  0  0  0  0  0  0  0  0  0  0  0
    3.6031    1.8272   21.7889 C   0  0  0  0  0  0  0  0  0  0  0  0
    4.7495    1.0941   21.6039 C   0  0  0  0  0  0  0  0  0  0  0  0
    5.2182    0.7919   20.2940 C   0  0  0  0  0  0  0  0  0  0  0  0
    7.0828   -1.7296   21.7015 C   0  0  0  0  0  0  0  0  0  0  0  0
    8.4193   -1.9076   22.4373 C   0  0  2  0  0  0  0  0  0  0  0  0
    8.3548   -2.9239   23.5655 C   0  0  0  0  0  0  0  0  0  0  0  0
    9.5970   -3.0037   24.2252 O   0  0  0  0  0  0  0  0  0  0  0  0
    9.5377   -3.8771   25.3277 C   0  0  0  0  0  0  0  0  0  0  0  0
   10.3375   -0.2001   22.9177 C   0  0  0  0  0  0  0  0  0  0  0  0
   11.2911   -1.0130   22.2937 C   0  0  0  0  0  0  0  0  0  0  0  0
   12.6254   -0.6472   22.3041 C   0  0  0  0  0  0  0  0  0  0  0  0
   13.7799   -1.6574   21.4797 Cl  0  0  0  0  0  0  0  0  0  0  0  0
   13.0605    0.5208   22.9354 C   0  0  0  0  0  0  0  0  0  0  0  0
   12.1221    1.3209   23.5638 C   0  0  0  0  0  0  0  0  0  0  0  0
   10.7713    0.9688   23.5658 C   0  0  0  0  0  0  0  0  0  0  0  0
    9.8005    1.8830   24.2582 C   0  0  0  0  0  0  0  0  0  0  0  0
   10.0992    3.0120   24.6241 O   0  0  0  0  0  0  0  0  0  0  0  0
  1  2  1  0
  2  3  1  0
  3  4  2  0
  3  5  1  0
  5  6  1  0
  6  7  1  0
  8  7  1  1
  8  9  1  0
  9 10  2  0
  9 11  1  0
 11 12  1  0
 12 13  2  0
 13 14  1  0
 14 15  2  0
 15 16  1  0
 16 17  2  0
 17 18  1  0
 18 19  2  0
 19 20  1  0
 20 21  2  0
 11 22  1  0
 22 23  1  0
 23 24  1  1
 24 25  1  0
 25 26  1  0
  8 27  1  0
 27 28  2  0
 28 29  1  0
 29 30  1  0
 29 31  2  0
 31 32  1  0
 32 33  2  0
 33 34  1  0
 34 35  2  0
 34  6  1  0
 23  8  1  0
 33 27  1  0
 21 12  1  0
 21 16  1  0
M  END
>  <template_ligand>  (99) 
mol-218

>  <template_receptor>  (99) 
receptors/receptor-218.pdb

>  <SMILES>  (99) 
CNC(=O)CN1CC2(C(=O)N(c3cncc4ccccc34)CC2COC)c2cc(Cl)ccc2C1=O

>  <LABEL>  (99) 
MERS-CoV Mpro

$$$$
ligand_45
     RDKit          3D

 38 42  0  0  0  0  0  0  0  0999 V2000
    5.5981   -4.1631   24.5042 C   0  0  0  0  0  0  0  0  0  0  0  0
    6.2318   -4.6705   23.2232 C   0  0  0  0  0  0  0  0  0  0  0  0
    7.9947   -4.4666   23.1580 S   0  0  0  0  0  0  0  0  0  0  0  0
    8.3405   -4.7373   21.7696 O   0  0  0  0  0  0  0  0  0  0  0  0
    8.5619   -5.2280   24.2560 O   0  0  0  0  0  0  0  0  0  0  0  0
    8.3164   -2.8515   23.5403 N   0  0  0  0  0  0  0  0  0  0  0  0
    8.4131   -1.9034   22.4233 C   0  0  1  0  0  0  0  0  0  0  0  0
    7.0748   -1.7309   21.6936 C   0  0  0  0  0  0  0  0  0  0  0  0
    7.2437   -0.4378   21.0627 N   0  0  0  0  0  0  0  0  0  0  0  0
    6.4167    0.0561   20.0163 C   0  0  0  0  0  0  0  0  0  0  0  0
    6.7394   -0.2038   18.7095 C   0  0  0  0  0  0  0  0  0  0  0  0
    6.0178    0.2139   17.6361 N   0  0  0  0  0  0  0  0  0  0  0  0
    4.9368    0.9172   17.8793 C   0  0  0  0  0  0  0  0  0  0  0  0
    4.4710    1.2508   19.1855 C   0  0  0  0  0  0  0  0  0  0  0  0
    3.2927    2.0173   19.4010 C   0  0  0  0  0  0  0  0  0  0  0  0
    2.8723    2.3002   20.6726 C   0  0  0  0  0  0  0  0  0  0  0  0
    3.6025    1.8289   21.7885 C   0  0  0  0  0  0  0  0  0  0  0  0
    4.7503    1.0980   21.6046 C   0  0  0  0  0  0  0  0  0  0  0  0
    5.2246    0.7997   20.2964 C   0  0  0  0  0  0  0  0  0  0  0  0
    8.2301    0.3363   21.6352 C   0  0  0  0  0  0  0  0  0  0  0  0
    8.5210    1.4577   21.2657 O   0  0  0  0  0  0  0  0  0  0  0  0
    8.8482   -0.4667   22.8104 C   0  0  1  0  0  0  0  0  0  0  0  0
    8.2037   -0.0133   24.1420 C   0  0  0  0  0  0  0  0  0  0  0  0
    8.5432    1.3704   24.4427 N   0  0  0  0  0  0  0  0  0  0  0  0
    7.6213    2.1585   25.2364 C   0  0  0  0  0  0  0  0  0  0  0  0
    6.8309    3.2637   24.5178 C   0  0  0  0  0  0  0  0  0  0  0  0
    5.9276    3.8401   25.1130 O   0  0  0  0  0  0  0  0  0  0  0  0
    7.1645    3.5386   23.2397 N   0  0  0  0  0  0  0  0  0  0  0  0
    6.3490    4.4414   22.4481 C   0  0  0  0  0  0  0  0  0  0  0  0
    9.8061    1.8666   24.2627 C   0  0  0  0  0  0  0  0  0  0  0  0
   10.1023    2.9953   24.6380 O   0  0  0  0  0  0  0  0  0  0  0  0
   10.7751    0.9629   23.5581 C   0  0  0  0  0  0  0  0  0  0  0  0
   12.1234    1.3168   23.5604 C   0  0  0  0  0  0  0  0  0  0  0  0
   13.0613    0.5183   22.9324 C   0  0  0  0  0  0  0  0  0  0  0  0
   12.6265   -0.6491   22.3028 C   0  0  0  0  0  0  0  0  0  0  0  0
   13.7893   -1.6589   21.4861 Cl  0  0  0  0  0  0  0  0  0  0  0  0
   11.2912   -1.0154   22.2929 C   0  0  0  0  0  0  0  0  0  0  0  0
   10.3355   -0.2021   22.9103 C   0  0  0  0  0  0  0  0  0  0  0  0
  1  2  1  0
  2  3  1  0
  3  4  2  0
  3  5  2  0
  3  6  1  0
  7  6  1  1
  7  8  1  0
  8  9  1  0
  9 10  1  0
 10 11  2  0
 11 12  1  0
 12 13  2  0
 13 14  1  0
 14 15  2  0
 15 16  1  0
 16 17  2  0
 17 18  1  0
 18 19  2  0
  9 20  1  0
 20 21  2  0
 20 22  1  0
 22 23  1  1
 23 24  1  0
 24 25  1  0
 25 26  1  0
 26 27  2  0
 26 28  1  0
 28 29  1  0
 24 30  1  0
 30 31  2  0
 30 32  1  0
 32 33  2  0
 33 34  1  0
 34 35  2  0
 35 36  1  0
 35 37  1  0
 37 38  2  0
 22  7  1  0
 38 32  1  0
 19 10  1  0
 38 22  1  0
 19 14  1  0
M  END
>  <template_ligand>  (100) 
mol-218

>  <template_receptor>  (100) 
receptors/receptor-218.pdb

>  <SMILES>  (100) 
CCS(=O)(=O)NC1CN(c2cncc3ccccc23)C(=O)C12CN(CC(=O)NC)C(=O)c1ccc(Cl)cc12

>  <LABEL>  (100) 
MERS-CoV Mpro

$$$$
ligand_46
     RDKit          3D

 33 37  0  0  0  0  0  0  0  0999 V2000
    6.3507    4.4398   22.4530 C   0  0  0  0  0  0  0  0  0  0  0  0
    7.1562    3.5336   23.2404 N   0  0  0  0  0  0  0  0  0  0  0  0
    6.8277    3.2716   24.5229 C   0  0  0  0  0  0  0  0  0  0  0  0
    5.9281    3.8465   25.1195 O   0  0  0  0  0  0  0  0  0  0  0  0
    7.6128    2.1660   25.2380 C   0  0  0  0  0  0  0  0  0  0  0  0
    8.5358    1.3886   24.4356 N   0  0  0  0  0  0  0  0  0  0  0  0
    8.2075    0.0065   24.1368 C   0  0  0  0  0  0  0  0  0  0  0  0
    8.8491   -0.4608   22.8047 C   0  0  2  0  0  0  0  0  0  0  0  0
    8.2324    0.3401   21.6299 C   0  0  0  0  0  0  0  0  0  0  0  0
    8.5225    1.4632   21.2657 O   0  0  0  0  0  0  0  0  0  0  0  0
    7.2491   -0.4352   21.0546 N   0  0  0  0  0  0  0  0  0  0  0  0
    6.4139    0.0563   20.0155 C   0  0  0  0  0  0  0  0  0  0  0  0
    6.7342   -0.2088   18.7088 C   0  0  0  0  0  0  0  0  0  0  0  0
    6.0164    0.2118   17.6366 N   0  0  0  0  0  0  0  0  0  0  0  0
    4.9351    0.9194   17.8736 C   0  0  0  0  0  0  0  0  0  0  0  0
    4.4655    1.2462   19.1802 C   0  0  0  0  0  0  0  0  0  0  0  0
    3.2899    2.0191   19.3985 C   0  0  0  0  0  0  0  0  0  0  0  0
    2.8752    2.3027   20.6728 C   0  0  0  0  0  0  0  0  0  0  0  0
    3.6036    1.8271   21.7887 C   0  0  0  0  0  0  0  0  0  0  0  0
    4.7497    1.0938   21.6036 C   0  0  0  0  0  0  0  0  0  0  0  0
    5.2174    0.7916   20.2933 C   0  0  0  0  0  0  0  0  0  0  0  0
    7.0808   -1.7263   21.6987 C   0  0  0  0  0  0  0  0  0  0  0  0
    8.4144   -1.9060   22.4358 C   0  0  2  0  0  0  0  0  0  0  0  0
    8.3732   -2.9117   23.5786 C   0  0  0  0  0  0  0  0  0  0  0  0
   10.3358   -0.2036   22.9141 C   0  0  0  0  0  0  0  0  0  0  0  0
   11.2897   -1.0228   22.3007 C   0  0  0  0  0  0  0  0  0  0  0  0
   12.6174   -0.6454   22.3239 C   0  0  0  0  0  0  0  0  0  0  0  0
   13.5127   -1.4331   21.7037 F   0  0  0  0  0  0  0  0  0  0  0  0
   13.0646    0.5204   22.9391 C   0  0  0  0  0  0  0  0  0  0  0  0
   12.1229    1.3199   23.5608 C   0  0  0  0  0  0  0  0  0  0  0  0
   10.7712    0.9669   23.5602 C   0  0  0  0  0  0  0  0  0  0  0  0
    9.7998    1.8793   24.2547 C   0  0  0  0  0  0  0  0  0  0  0  0
   10.1000    3.0076   24.6214 O   0  0  0  0  0  0  0  0  0  0  0  0
  1  2  1  0
  2  3  1  0
  3  4  2  0
  3  5  1  0
  5  6  1  0
  6  7  1  0
  8  7  1  1
  8  9  1  0
  9 10  2  0
  9 11  1  0
 11 12  1  0
 12 13  2  0
 13 14  1  0
 14 15  2  0
 15 16  1  0
 16 17  2  0
 17 18  1  0
 18 19  2  0
 19 20  1  0
 20 21  2  0
 11 22  1  0
 22 23  1  0
 23 24  1  1
  8 25  1  0
 25 26  2  0
 26 27  1  0
 27 28  1  0
 27 29  2  0
 29 30  1  0
 30 31  2  0
 31 32  1  0
 32 33  2  0
 32  6  1  0
 23  8  1  0
 31 25  1  0
 21 12  1  0
 21 16  1  0
M  END
>  <template_ligand>  (101) 
mol-218

>  <template_receptor>  (101) 
receptors/receptor-218.pdb

>  <SMILES>  (101) 
CNC(=O)CN1CC2(C(=O)N(c3cncc4ccccc34)CC2C)c2cc(F)ccc2C1=O

>  <LABEL>  (101) 
MERS-CoV Mpro

$$$$
ligand_47
     RDKit          3D

 21 23  0  0  0  0  0  0  0  0999 V2000
   13.0803   -2.0328   22.0173 C   0  0  0  0  0  0  0  0  0  0  0  0
   11.7717   -1.3669   22.3976 C   0  0  1  0  0  0  0  0  0  0  0  0
   10.6169   -2.3768   22.4664 C   0  0  0  0  0  0  0  0  0  0  0  0
    9.4068   -1.8793   23.2852 C   0  0  0  0  0  0  0  0  0  0  0  0
    9.1028   -0.4540   23.1279 N   0  0  0  0  0  0  0  0  0  0  0  0
    8.6110    0.0398   21.9274 C   0  0  0  0  0  0  0  0  0  0  0  0
    9.0446    1.0477   21.4006 O   0  0  0  0  0  0  0  0  0  0  0  0
    7.4478   -0.7868   21.3700 C   0  0  0  0  0  0  0  0  0  0  0  0
    6.6167   -0.1478   20.2934 C   0  0  0  0  0  0  0  0  0  0  0  0
    6.9673   -0.3509   18.9901 C   0  0  0  0  0  0  0  0  0  0  0  0
    6.2849    0.0995   17.9046 N   0  0  0  0  0  0  0  0  0  0  0  0
    5.1793    0.7656   18.1400 C   0  0  0  0  0  0  0  0  0  0  0  0
    4.6505    1.0128   19.4385 C   0  0  0  0  0  0  0  0  0  0  0  0
    3.3769    1.6087   19.6561 C   0  0  0  0  0  0  0  0  0  0  0  0
    2.8422    1.6705   20.9147 C   0  0  0  0  0  0  0  0  0  0  0  0
    3.6161    1.2755   22.0255 C   0  0  0  0  0  0  0  0  0  0  0  0
    4.8844    0.7876   21.8550 C   0  0  0  0  0  0  0  0  0  0  0  0
    5.4074    0.5647   20.5558 C   0  0  0  0  0  0  0  0  0  0  0  0
    9.8360    0.4557   24.0000 C   0  0  0  0  0  0  0  0  0  0  0  0
   11.3375    0.5611   23.7317 C   0  0  0  0  0  0  0  0  0  0  0  0
   11.9720   -0.6959   23.6380 O   0  0  0  0  0  0  0  0  0  0  0  0
  2  1  1  1
  2  3  1  0
  3  4  1  0
  4  5  1  0
  5  6  1  0
  6  7  2  0
  6  8  1  0
  8  9  1  0
  9 10  2  0
 10 11  1  0
 11 12  2  0
 12 13  1  0
 13 14  2  0
 14 15  1  0
 15 16  2  0
 16 17  1  0
 17 18  2  0
  5 19  1  0
 19 20  1  0
 20 21  1  0
 21  2  1  0
 18  9  1  0
 18 13  1  0
M  END
>  <template_ligand>  (102) 
mol-100

>  <template_receptor>  (102) 
receptors/receptor-100.pdb

>  <SMILES>  (102) 
CC1CCN(C(=O)Cc2cncc3ccccc23)CCO1

>  <LABEL>  (102) 
MERS-CoV Mpro

$$$$
ligand_48
     RDKit          3D

 26 29  0  0  0  0  0  0  0  0999 V2000
    7.2025    1.6136   25.4485 C   0  0  0  0  0  0  0  0  0  0  0  0
    8.1431    1.0321   24.5094 N   0  0  0  0  0  0  0  0  0  0  0  0
    7.8941   -0.3453   24.1306 C   0  0  0  0  0  0  0  0  0  0  0  0
    8.6345   -0.7112   22.8403 C   0  0  1  0  0  0  0  0  0  0  0  0
    8.0218   -0.0011   21.6266 C   0  0  0  0  0  0  0  0  0  0  0  0
    8.3923    1.0832   21.2256 O   0  0  0  0  0  0  0  0  0  0  0  0
    6.9898   -0.6838   21.0206 N   0  0  0  0  0  0  0  0  0  0  0  0
    6.2188   -0.1236   19.9665 C   0  0  0  0  0  0  0  0  0  0  0  0
    6.6088   -0.2597   18.6593 C   0  0  0  0  0  0  0  0  0  0  0  0
    5.9371    0.2489   17.5960 N   0  0  0  0  0  0  0  0  0  0  0  0
    4.8394    0.9262   17.8441 C   0  0  0  0  0  0  0  0  0  0  0  0
    4.2981    1.1164   19.1489 C   0  0  0  0  0  0  0  0  0  0  0  0
    3.1110    1.8619   19.3923 C   0  0  0  0  0  0  0  0  0  0  0  0
    2.6329    2.0017   20.6682 C   0  0  0  0  0  0  0  0  0  0  0  0
    3.3060    1.4066   21.7602 C   0  0  0  0  0  0  0  0  0  0  0  0
    4.4561    0.6896   21.5548 C   0  0  0  0  0  0  0  0  0  0  0  0
    4.9869    0.5465   20.2427 C   0  0  0  0  0  0  0  0  0  0  0  0
   10.0843   -0.3515   22.9819 C   0  0  0  0  0  0  0  0  0  0  0  0
   11.0606   -1.0896   22.3123 C   0  0  0  0  0  0  0  0  0  0  0  0
   12.3842   -0.6794   22.3665 C   0  0  0  0  0  0  0  0  0  0  0  0
   13.5985   -1.6065   21.5347 Cl  0  0  0  0  0  0  0  0  0  0  0  0
   12.7550    0.4671   23.0729 C   0  0  0  0  0  0  0  0  0  0  0  0
   11.7787    1.1957   23.7327 C   0  0  0  0  0  0  0  0  0  0  0  0
   10.4406    0.7858   23.6983 C   0  0  0  0  0  0  0  0  0  0  0  0
    9.4019    1.5772   24.4495 C   0  0  0  0  0  0  0  0  0  0  0  0
    9.6863    2.6182   25.0108 O   0  0  0  0  0  0  0  0  0  0  0  0
  1  2  1  0
  2  3  1  0
  3  4  1  0
  4  5  1  6
  5  6  2  0
  5  7  1  0
  7  8  1  0
  8  9  2  0
  9 10  1  0
 10 11  2  0
 11 12  1  0
 12 13  2  0
 13 14  1  0
 14 15  2  0
 15 16  1  0
 16 17  2  0
  4 18  1  0
 18 19  2  0
 19 20  1  0
 20 21  1  0
 20 22  2  0
 22 23  1  0
 23 24  2  0
 24 25  1  0
 25 26  2  0
 25  2  1  0
 17  8  1  0
 24 18  1  0
 17 12  1  0
M  END
>  <template_ligand>  (103) 
mol-115

>  <template_receptor>  (103) 
receptors/receptor-115.pdb

>  <SMILES>  (103) 
CN1CC(C(=O)Nc2cncc3ccccc23)c2cc(Cl)ccc2C1=O

>  <LABEL>  (103) 
MERS-CoV Mpro

$$$$

     RDKit          3D

 22 25  0  0  0  0  0  0  0  0999 V2000
    5.3242   -1.8081   22.1240 O   0  0  0  0  0  0  0  0  0  0  0  0
    6.4914   -1.4662   22.0555 C   0  0  0  0  0  0  0  0  0  0  0  0
    6.9027   -0.3589   21.0565 C   0  0  0  0  0  0  0  0  0  0  0  0
    5.8699   -0.1738   19.9708 C   0  0  0  0  0  0  0  0  0  0  0  0
    6.0295   -0.8077   18.7673 C   0  0  0  0  0  0  0  0  0  0  0  0
    5.2145   -0.6835   17.6873 N   0  0  0  0  0  0  0  0  0  0  0  0
    4.1585    0.0818   17.8284 C   0  0  0  0  0  0  0  0  0  0  0  0
    3.8176    0.7421   19.0416 C   0  0  0  0  0  0  0  0  0  0  0  0
    2.6281    1.5027   19.1720 C   0  0  0  0  0  0  0  0  0  0  0  0
    2.3162    2.1241   20.3506 C   0  0  0  0  0  0  0  0  0  0  0  0
    3.1911    2.0157   21.4519 C   0  0  0  0  0  0  0  0  0  0  0  0
    4.3509    1.2834   21.3531 C   0  0  0  0  0  0  0  0  0  0  0  0
    4.6936    0.6177   20.1458 C   0  0  0  0  0  0  0  0  0  0  0  0
    7.4672   -2.0571   22.8297 N   0  0  0  0  0  0  0  0  0  0  0  0
    7.2395   -3.3969   23.3783 C   0  0  0  0  0  0  0  0  0  0  0  0
    7.6139   -3.4705   24.8563 C   0  0  0  0  0  0  0  0  0  0  0  0
    8.9623   -2.8563   25.0686 C   0  0  0  0  0  0  0  0  0  0  0  0
    9.9880   -3.1506   26.4331 S   0  0  0  0  0  0  0  0  0  0  0  0
   11.1577   -2.0263   25.8431 C   0  0  0  0  0  0  0  0  0  0  0  0
   10.7751   -1.4659   24.6596 C   0  0  0  0  0  0  0  0  0  0  0  0
    9.5069   -1.9504   24.2141 C   0  0  0  0  0  0  0  0  0  0  0  0
    8.8148   -1.5203   22.9475 C   0  0  0  0  0  0  0  0  0  0  0  0
  1  2  2  0
  2  3  1  0
  3  4  1  0
  4  5  2  0
  5  6  1  0
  6  7  2  0
  7  8  1  0
  8  9  2  0
  9 10  1  0
 10 11  2  0
 11 12  1  0
 12 13  2  0
  2 14  1  0
 14 15  1  0
 15 16  1  0
 16 17  1  0
 17 18  1  0
 18 19  1  0
 19 20  2  0
 20 21  1  0
 21 22  1  0
 13  4  1  0
 22 14  1  0
 13  8  1  0
 21 17  2  0
M  END
>  <cnnaffinities>  (104) 
[5.09864, 5.09269, 5.05003, 5.10686, 5.23147]

>  <score>  (104) 
5.09864

>  <index>  (104) 
50

>  <Smiles>  (104) 
O=C(C(c1c(nc(c2c(c(c(c(c12)[H])[H])[H])[H])[H])[H])([H])[H])N1C(C(c2sc(c(c2C1([H])[H])[H])[H])([H])[H])([H])[H]

>  <h>  (104) 
<NA>

>  <Training>  (104) 
True

>  <Success>  (104) 
True

>  <enamine_searched>  (104) 
False

>  <enamine_id>  (104) 
nan

>  <SMILES>  (104) 
O=C(Cc1cncc2ccccc12)N1CCc2sccc2C1

>  <LABEL>  (104) 
MERS-CoV Mpro

$$$$
ligand_50
     RDKit          3D

 42 48  0  0  0  0  0  0  0  0999 V2000
    7.6416    3.1251   29.4120 C   0  0  0  0  0  0  0  0  0  0  0  0
    7.3341    2.7909   27.9953 C   0  0  0  0  0  0  0  0  0  0  0  0
    6.3076    2.1568   27.5368 N   0  0  0  0  0  0  0  0  0  0  0  0
    6.4850    2.0644   26.1589 N   0  0  0  0  0  0  0  0  0  0  0  0
    7.6050    2.6444   25.8990 C   0  0  0  0  0  0  0  0  0  0  0  0
    8.2797    2.7520   24.5674 C   0  0  0  0  0  0  0  0  0  0  0  0
    9.2483    1.7031   24.3261 N   0  0  0  0  0  0  0  0  0  0  0  0
    8.7962    0.3413   24.1155 C   0  0  0  0  0  0  0  0  0  0  0  0
    9.4639   -0.2358   22.8448 C   0  0  2  0  0  0  0  0  0  0  0  0
    8.7948    0.4444   21.6206 C   0  0  0  0  0  0  0  0  0  0  0  0
    9.0735    1.5008   21.0973 O   0  0  0  0  0  0  0  0  0  0  0  0
    7.7535   -0.3654   21.2211 N   0  0  0  0  0  0  0  0  0  0  0  0
    6.8726    0.0358   20.1889 C   0  0  0  0  0  0  0  0  0  0  0  0
    7.1782   -0.2744   18.8897 C   0  0  0  0  0  0  0  0  0  0  0  0
    6.4115    0.0490   17.8177 N   0  0  0  0  0  0  0  0  0  0  0  0
    5.3015    0.7072   18.0569 C   0  0  0  0  0  0  0  0  0  0  0  0
    4.8530    1.0851   19.3573 C   0  0  0  0  0  0  0  0  0  0  0  0
    3.6431    1.8041   19.5558 C   0  0  0  0  0  0  0  0  0  0  0  0
    3.2399    2.1460   20.8189 C   0  0  0  0  0  0  0  0  0  0  0  0
    4.0215    1.7822   21.9391 C   0  0  0  0  0  0  0  0  0  0  0  0
    5.1976    1.0896   21.7715 C   0  0  0  0  0  0  0  0  0  0  0  0
    5.6508    0.7328   20.4695 C   0  0  0  0  0  0  0  0  0  0  0  0
    7.6798   -1.6294   21.9262 C   0  0  0  0  0  0  0  0  0  0  0  0
    9.0678   -1.7198   22.5827 C   0  0  2  0  0  0  0  0  0  0  0  0
    9.1443   -2.6988   23.7708 C   0  0  0  0  0  0  0  0  0  0  0  0
    9.0578   -4.0968   23.4040 N   0  0  0  0  0  0  0  0  0  0  0  0
    7.9173   -4.7544   23.0881 C   0  0  0  0  0  0  0  0  0  0  0  0
    6.6446   -4.3469   23.5318 C   0  0  0  0  0  0  0  0  0  0  0  0
    5.5758   -5.1291   23.1433 C   0  0  0  0  0  0  0  0  0  0  0  0
    5.7141   -6.2189   22.3789 N   0  0  0  0  0  0  0  0  0  0  0  0
    6.9621   -6.5133   22.0402 C   0  0  0  0  0  0  0  0  0  0  0  0
    8.0763   -5.8628   22.3475 N   0  0  0  0  0  0  0  0  0  0  0  0
   10.9469    0.0699   22.8887 C   0  0  0  0  0  0  0  0  0  0  0  0
   11.8114   -0.5534   21.9786 C   0  0  0  0  0  0  0  0  0  0  0  0
   13.1530   -0.2204   21.9585 C   0  0  0  0  0  0  0  0  0  0  0  0
   14.2046   -1.0317   20.8368 Cl  0  0  0  0  0  0  0  0  0  0  0  0
   13.6862    0.7413   22.8158 C   0  0  0  0  0  0  0  0  0  0  0  0
   12.8358    1.3793   23.6981 C   0  0  0  0  0  0  0  0  0  0  0  0
   11.4770    1.0630   23.7267 C   0  0  0  0  0  0  0  0  0  0  0  0
   10.5800    1.8967   24.5950 C   0  0  0  0  0  0  0  0  0  0  0  0
   10.9883    2.7112   25.4021 O   0  0  0  0  0  0  0  0  0  0  0  0
    8.1995    3.1458   27.0073 O   0  0  0  0  0  0  0  0  0  0  0  0
  1  2  1  0
  2  3  2  0
  3  4  1  0
  4  5  2  0
  5  6  1  0
  6  7  1  0
  7  8  1  0
  9  8  1  1
  9 10  1  0
 10 11  2  0
 10 12  1  0
 12 13  1  0
 13 14  2  0
 14 15  1  0
 15 16  2  0
 16 17  1  0
 17 18  2  0
 18 19  1  0
 19 20  2  0
 20 21  1  0
 21 22  2  0
 12 23  1  0
 23 24  1  0
 24 25  1  1
 25 26  1  0
 26 27  1  0
 27 28  2  0
 28 29  1  0
 29 30  2  0
 30 31  1  0
 31 32  2  0
  9 33  1  0
 33 34  2  0
 34 35  1  0
 35 36  1  0
 35 37  2  0
 37 38  1  0
 38 39  2  0
 39 40  1  0
 40 41  2  0
  5 42  1  0
 42  2  1  0
 40  7  1  0
 24  9  1  0
 32 27  1  0
 39 33  1  0
 22 13  1  0
 22 17  1  0
M  END
>  <template_ligand>  (105) 
mol-246

>  <template_receptor>  (105) 
receptors/receptor-246.pdb

>  <SMILES>  (105) 
Cc1nnc(CN2CC3(C(=O)N(c4cncc5ccccc45)CC3CNc3ccncn3)c3cc(Cl)ccc3C2=O)o1

>  <LABEL>  (105) 
MERS-CoV Mpro

$$$$
ligand_52
     RDKit          3D

 34 38  0  0  0  0  0  0  0  0999 V2000
   -7.0757    3.5431  -21.7007 C   0  0  0  0  0  0  0  0  0  0  0  0
   -6.7813    3.6739  -23.1918 C   0  0  0  0  0  0  0  0  0  0  0  0
   -7.6297    2.6910  -23.8453 N   0  0  0  0  0  0  0  0  0  0  0  0
   -7.3791    2.2786  -25.1061 C   0  0  0  0  0  0  0  0  0  0  0  0
   -6.5494    2.7995  -25.8378 O   0  0  0  0  0  0  0  0  0  0  0  0
   -8.2146    1.0997  -25.6289 C   0  0  0  0  0  0  0  0  0  0  0  0
   -8.9943    0.3530  -24.6516 N   0  0  0  0  0  0  0  0  0  0  0  0
   -8.5446   -0.9854  -24.3012 C   0  0  0  0  0  0  0  0  0  0  0  0
   -9.1359   -1.4681  -22.9499 C   0  0  2  0  0  0  0  0  0  0  0  0
   -8.5528   -0.6015  -21.8054 C   0  0  0  0  0  0  0  0  0  0  0  0
   -8.8848    0.5234  -21.4746 O   0  0  0  0  0  0  0  0  0  0  0  0
   -7.5277   -1.3082  -21.2245 N   0  0  0  0  0  0  0  0  0  0  0  0
   -6.7308   -0.7367  -20.2056 C   0  0  0  0  0  0  0  0  0  0  0  0
   -7.0435   -0.9870  -18.8949 C   0  0  0  0  0  0  0  0  0  0  0  0
   -6.3634   -0.4878  -17.8357 N   0  0  0  0  0  0  0  0  0  0  0  0
   -5.3397    0.2908  -18.1081 C   0  0  0  0  0  0  0  0  0  0  0  0
   -4.9087    0.6319  -19.4228 C   0  0  0  0  0  0  0  0  0  0  0  0
   -3.7959    1.4858  -19.6543 C   0  0  0  0  0  0  0  0  0  0  0  0
   -3.4067    1.7815  -20.9334 C   0  0  0  0  0  0  0  0  0  0  0  0
   -4.1028    1.2471  -22.0400 C   0  0  0  0  0  0  0  0  0  0  0  0
   -5.1860    0.4218  -21.8443 C   0  0  0  0  0  0  0  0  0  0  0  0
   -5.6168    0.0961  -20.5239 C   0  0  0  0  0  0  0  0  0  0  0  0
   -7.2546   -2.5823  -21.8593 C   0  0  0  0  0  0  0  0  0  0  0  0
   -8.5857   -2.8716  -22.5646 C   0  0  2  0  0  0  0  0  0  0  0  0
   -8.4943   -3.9043  -23.6799 C   0  0  0  0  0  0  0  0  0  0  0  0
  -10.6431   -1.3357  -23.0327 C   0  0  0  0  0  0  0  0  0  0  0  0
  -11.5311   -2.2203  -22.4035 C   0  0  0  0  0  0  0  0  0  0  0  0
  -12.8913   -1.9647  -22.4351 C   0  0  0  0  0  0  0  0  0  0  0  0
  -13.9794   -3.0637  -21.6389 Cl  0  0  0  0  0  0  0  0  0  0  0  0
  -13.4194   -0.8450  -23.0761 C   0  0  0  0  0  0  0  0  0  0  0  0
  -12.5520    0.0199  -23.7083 C   0  0  0  0  0  0  0  0  0  0  0  0
  -11.1790   -0.2282  -23.7060 C   0  0  0  0  0  0  0  0  0  0  0  0
  -10.3095    0.7167  -24.4875 C   0  0  0  0  0  0  0  0  0  0  0  0
  -10.7509    1.7511  -24.9616 O   0  0  0  0  0  0  0  0  0  0  0  0
  1  2  1  0
  2  3  1  0
  3  4  1  0
  4  5  2  0
  4  6  1  0
  6  7  1  0
  7  8  1  0
  9  8  1  6
  9 10  1  0
 10 11  2  0
 10 12  1  0
 12 13  1  0
 13 14  2  0
 14 15  1  0
 15 16  2  0
 16 17  1  0
 17 18  2  0
 18 19  1  0
 19 20  2  0
 20 21  1  0
 21 22  2  0
 12 23  1  0
 23 24  1  0
 24 25  1  6
  9 26  1  0
 26 27  2  0
 27 28  1  0
 28 29  1  0
 28 30  2  0
 30 31  1  0
 31 32  2  0
 32 33  1  0
 33 34  2  0
 33  7  1  0
 24  9  1  0
 32 26  1  0
 22 13  1  0
 22 17  1  0
M  END
>  <template_ligand>  (106) 
mol-218

>  <template_receptor>  (106) 
receptors/receptor-218.pdb

>  <SMILES>  (106) 
CCNC(=O)CN1CC2(C(=O)N(c3cncc4ccccc34)CC2C)c2cc(Cl)ccc2C1=O

>  <LABEL>  (106) 
SARS-CoV-2 Mpro

$$$$
ligand_51
     RDKit          3D

 40 45  0  0  0  0  0  0  0  0999 V2000
    6.3568    4.4258   22.4316 C   0  0  0  0  0  0  0  0  0  0  0  0
    7.1839    3.5237   23.2129 N   0  0  0  0  0  0  0  0  0  0  0  0
    6.8387    3.2457   24.4902 C   0  0  0  0  0  0  0  0  0  0  0  0
    5.9327    3.8199   25.0835 O   0  0  0  0  0  0  0  0  0  0  0  0
    7.6351    2.1664   25.2363 C   0  0  0  0  0  0  0  0  0  0  0  0
    8.5562    1.3657   24.4613 N   0  0  0  0  0  0  0  0  0  0  0  0
    8.2005   -0.0077   24.1378 C   0  0  0  0  0  0  0  0  0  0  0  0
    8.8397   -0.4698   22.8016 C   0  0  2  0  0  0  0  0  0  0  0  0
    8.2158    0.3350   21.6348 C   0  0  0  0  0  0  0  0  0  0  0  0
    8.4999    1.4632   21.2788 O   0  0  0  0  0  0  0  0  0  0  0  0
    7.2404   -0.4403   21.0548 N   0  0  0  0  0  0  0  0  0  0  0  0
    6.4166    0.0532   20.0159 C   0  0  0  0  0  0  0  0  0  0  0  0
    6.7509   -0.2045   18.7120 C   0  0  0  0  0  0  0  0  0  0  0  0
    6.0416    0.2198   17.6339 N   0  0  0  0  0  0  0  0  0  0  0  0
    4.9578    0.9209   17.8771 C   0  0  0  0  0  0  0  0  0  0  0  0
    4.4932    1.2539   19.1843 C   0  0  0  0  0  0  0  0  0  0  0  0
    3.3128    2.0153   19.3937 C   0  0  0  0  0  0  0  0  0  0  0  0
    2.8824    2.3017   20.6601 C   0  0  0  0  0  0  0  0  0  0  0  0
    3.6068    1.8410   21.7814 C   0  0  0  0  0  0  0  0  0  0  0  0
    4.7588    1.1146   21.6075 C   0  0  0  0  0  0  0  0  0  0  0  0
    5.2352    0.8056   20.3000 C   0  0  0  0  0  0  0  0  0  0  0  0
    7.0662   -1.7336   21.6786 C   0  0  0  0  0  0  0  0  0  0  0  0
    8.4129   -1.9112   22.4011 C   0  0  2  0  0  0  0  0  0  0  0  0
    8.4133   -2.9590   23.5267 C   0  0  0  0  0  0  0  0  0  0  0  0
    8.2576   -4.3362   23.1012 N   0  0  0  0  0  0  0  0  0  0  0  0
    7.0676   -4.8938   22.7529 C   0  0  0  0  0  0  0  0  0  0  0  0
    5.8233   -4.4326   23.2174 C   0  0  0  0  0  0  0  0  0  0  0  0
    4.7099   -5.1039   22.7568 C   0  0  0  0  0  0  0  0  0  0  0  0
    4.7634   -6.1034   21.8742 N   0  0  0  0  0  0  0  0  0  0  0  0
    5.9898   -6.4468   21.5124 C   0  0  0  0  0  0  0  0  0  0  0  0
    7.1406   -5.9467   21.9288 N   0  0  0  0  0  0  0  0  0  0  0  0
   10.3289   -0.2090   22.9007 C   0  0  0  0  0  0  0  0  0  0  0  0
   11.2967   -1.0173   22.2909 C   0  0  0  0  0  0  0  0  0  0  0  0
   12.6298   -0.6443   22.3134 C   0  0  0  0  0  0  0  0  0  0  0  0
   13.8052   -1.6563   21.5206 Cl  0  0  0  0  0  0  0  0  0  0  0  0
   13.0599    0.5265   22.9349 C   0  0  0  0  0  0  0  0  0  0  0  0
   12.1168    1.3199   23.5541 C   0  0  0  0  0  0  0  0  0  0  0  0
   10.7720    0.9502   23.5547 C   0  0  0  0  0  0  0  0  0  0  0  0
    9.8269    1.8477   24.2918 C   0  0  0  0  0  0  0  0  0  0  0  0
   10.1714    2.9496   24.6968 O   0  0  0  0  0  0  0  0  0  0  0  0
  1  2  1  0
  2  3  1  0
  3  4  2  0
  3  5  1  0
  5  6  1  0
  6  7  1  0
  8  7  1  1
  8  9  1  0
  9 10  2  0
  9 11  1  0
 11 12  1  0
 12 13  2  0
 13 14  1  0
 14 15  2  0
 15 16  1  0
 16 17  2  0
 17 18  1  0
 18 19  2  0
 19 20  1  0
 20 21  2  0
 11 22  1  0
 22 23  1  0
 23 24  1  1
 24 25  1  0
 25 26  1  0
 26 27  2  0
 27 28  1  0
 28 29  2  0
 29 30  1  0
 30 31  2  0
  8 32  1  0
 32 33  2  0
 33 34  1  0
 34 35  1  0
 34 36  2  0
 36 37  1  0
 37 38  2  0
 38 39  1  0
 39 40  2  0
 39  6  1  0
 23  8  1  0
 31 26  1  0
 38 32  1  0
 21 12  1  0
 21 16  1  0
M  END
>  <template_ligand>  (107) 
mol-218

>  <template_receptor>  (107) 
receptors/receptor-218.pdb

>  <SMILES>  (107) 
CNC(=O)CN1CC2(C(=O)N(c3cncc4ccccc34)CC2CNc2ccncn2)c2cc(Cl)ccc2C1=O

>  <LABEL>  (107) 
MERS-CoV Mpro

$$$$
ligand_52
     RDKit          3D

 44 51  0  0  0  0  0  0  0  0999 V2000
   10.9701    2.8247   25.3019 O   0  0  0  0  0  0  0  0  0  0  0  0
   10.5396    1.9793   24.5281 C   0  0  0  0  0  0  0  0  0  0  0  0
   11.4416    1.0918   23.7177 C   0  0  0  0  0  0  0  0  0  0  0  0
   12.8032    1.3930   23.7059 C   0  0  0  0  0  0  0  0  0  0  0  0
   13.6623    0.7459   22.8362 C   0  0  0  0  0  0  0  0  0  0  0  0
   13.1357   -0.2249   21.9821 C   0  0  0  0  0  0  0  0  0  0  0  0
   14.1947   -1.0224   20.8483 Cl  0  0  0  0  0  0  0  0  0  0  0  0
   11.7891   -0.5446   21.9853 C   0  0  0  0  0  0  0  0  0  0  0  0
   10.9156    0.0936   22.8802 C   0  0  0  0  0  0  0  0  0  0  0  0
    9.4348   -0.2148   22.8297 C   0  0  1  0  0  0  0  0  0  0  0  0
    8.7604    0.4060   24.0760 C   0  0  0  0  0  0  0  0  0  0  0  0
    9.2053    1.7730   24.2761 N   0  0  0  0  0  0  0  0  0  0  0  0
    8.2756    2.8857   24.3563 C   0  0  0  0  0  0  0  0  0  0  0  0
    7.9376    3.5209   23.0003 C   0  0  0  0  0  0  0  0  0  0  0  0
    7.3112    4.8825   23.1961 N   0  0  0  0  0  0  0  0  0  0  0  0
    6.8334    5.6712   21.9851 C   0  0  0  0  0  0  0  0  0  0  0  0
    5.4018    5.8074   22.5539 C   0  0  0  0  0  0  0  0  0  0  0  0
    4.1610    5.3910   21.7562 C   0  0  0  0  0  0  0  0  0  0  0  0
    3.5697    6.6806   21.9156 O   0  0  0  0  0  0  0  0  0  0  0  0
    4.6805    7.1533   22.6789 C   0  0  0  0  0  0  0  0  0  0  0  0
    5.8859    4.9892   23.7716 C   0  0  0  0  0  0  0  0  0  0  0  0
    8.7928    0.4239   21.5753 C   0  0  0  0  0  0  0  0  0  0  0  0
    9.1180    1.4426   21.0015 O   0  0  0  0  0  0  0  0  0  0  0  0
    7.7331   -0.3718   21.2105 N   0  0  0  0  0  0  0  0  0  0  0  0
    6.8562    0.0157   20.1733 C   0  0  0  0  0  0  0  0  0  0  0  0
    7.1776   -0.2794   18.8753 C   0  0  0  0  0  0  0  0  0  0  0  0
    6.4185    0.0583   17.8031 N   0  0  0  0  0  0  0  0  0  0  0  0
    5.3064    0.7118   18.0472 C   0  0  0  0  0  0  0  0  0  0  0  0
    4.8584    1.0846   19.3476 C   0  0  0  0  0  0  0  0  0  0  0  0
    3.6541    1.8040   19.5543 C   0  0  0  0  0  0  0  0  0  0  0  0
    3.2530    2.1497   20.8160 C   0  0  0  0  0  0  0  0  0  0  0  0
    4.0310    1.7846   21.9346 C   0  0  0  0  0  0  0  0  0  0  0  0
    5.2003    1.0822   21.7636 C   0  0  0  0  0  0  0  0  0  0  0  0
    5.6506    0.7237   20.4611 C   0  0  0  0  0  0  0  0  0  0  0  0
    7.6608   -1.6302   21.9233 C   0  0  0  0  0  0  0  0  0  0  0  0
    9.0458   -1.7147   22.5883 C   0  0  2  0  0  0  0  0  0  0  0  0
    9.1179   -2.7032   23.7684 C   0  0  0  0  0  0  0  0  0  0  0  0
    8.9566   -4.0895   23.3685 N   0  0  0  0  0  0  0  0  0  0  0  0
    7.7678   -4.7378   23.2905 C   0  0  0  0  0  0  0  0  0  0  0  0
    7.8265   -5.9792   22.7582 N   0  0  0  0  0  0  0  0  0  0  0  0
    6.6738   -6.6182   22.6645 C   0  0  0  0  0  0  0  0  0  0  0  0
    5.4632   -6.0729   23.0886 C   0  0  0  0  0  0  0  0  0  0  0  0
    5.5269   -4.7966   23.6291 C   0  0  0  0  0  0  0  0  0  0  0  0
    6.6661   -4.1117   23.7378 N   0  0  0  0  0  0  0  0  0  0  0  0
  1  2  2  0
  2  3  1  0
  3  4  2  0
  4  5  1  0
  5  6  2  0
  6  7  1  0
  6  8  1  0
  8  9  2  0
  9 10  1  0
 10 11  1  1
 11 12  1  0
 12 13  1  0
 13 14  1  0
 14 15  1  0
 15 16  1  0
 16 17  1  0
 17 18  1  0
 18 19  1  0
 19 20  1  0
 17 21  1  0
 10 22  1  0
 22 23  2  0
 22 24  1  0
 24 25  1  0
 25 26  2  0
 26 27  1  0
 27 28  2  0
 28 29  1  0
 29 30  2  0
 30 31  1  0
 31 32  2  0
 32 33  1  0
 33 34  2  0
 24 35  1  0
 35 36  1  0
 36 37  1  1
 37 38  1  0
 38 39  1  0
 39 40  2  0
 40 41  1  0
 41 42  2  0
 42 43  1  0
 43 44  2  0
 12  2  1  0
 21 15  1  0
 34 25  1  0
 44 39  1  0
  9  3  1  0
 36 10  1  0
 20 17  1  0
 34 29  1  0
M  CHG  1  15   1
M  END
>  <template_ligand>  (108) 
mol-246

>  <template_receptor>  (108) 
receptors/receptor-246.pdb

>  <SMILES>  (108) 
O=C1c2ccc(Cl)cc2C2(CN1CC[NH+]1CC3(COC3)C1)C(=O)N(c1cncc3ccccc13)CC2CNc1ncccn1

>  <LABEL>  (108) 
MERS-CoV Mpro

$$$$
ligand_53
     RDKit          3D

 24 27  0  0  0  0  0  0  0  0999 V2000
  -10.9490   -1.0566  -23.4239 C   0  0  0  0  0  0  0  0  0  0  0  0
   -9.7613   -1.4305  -22.6813 N   0  0  0  0  0  0  0  0  0  0  0  0
   -9.0031   -2.5680  -22.7376 C   0  0  0  0  0  0  0  0  0  0  0  0
   -9.1617   -3.5853  -23.8216 C   0  0  0  0  0  0  0  0  0  0  0  0
   -8.4177   -3.0932  -25.0544 C   0  0  0  0  0  0  0  0  0  0  0  0
   -7.0230   -3.1175  -25.0430 C   0  0  0  0  0  0  0  0  0  0  0  0
   -6.3031   -2.5506  -26.0864 C   0  0  0  0  0  0  0  0  0  0  0  0
   -6.9730   -1.9446  -27.1457 C   0  0  0  0  0  0  0  0  0  0  0  0
   -8.3647   -1.9177  -27.1661 C   0  0  0  0  0  0  0  0  0  0  0  0
   -9.0842   -2.4911  -26.1199 C   0  0  0  0  0  0  0  0  0  0  0  0
   -7.9894   -2.5235  -21.9213 N   0  0  0  0  0  0  0  0  0  0  0  0
   -8.0511   -1.2873  -21.3394 N   0  0  0  0  0  0  0  0  0  0  0  0
   -7.1141   -0.8244  -20.3611 C   0  0  0  0  0  0  0  0  0  0  0  0
   -7.3835   -1.1218  -19.0529 C   0  0  0  0  0  0  0  0  0  0  0  0
   -6.6477   -0.6968  -17.9982 N   0  0  0  0  0  0  0  0  0  0  0  0
   -5.5980    0.0440  -18.2606 C   0  0  0  0  0  0  0  0  0  0  0  0
   -5.1838    0.4286  -19.5629 C   0  0  0  0  0  0  0  0  0  0  0  0
   -4.0360    1.2423  -19.7636 C   0  0  0  0  0  0  0  0  0  0  0  0
   -3.6620    1.5993  -21.0294 C   0  0  0  0  0  0  0  0  0  0  0  0
   -4.4248    1.1592  -22.1357 C   0  0  0  0  0  0  0  0  0  0  0  0
   -5.5433    0.3765  -21.9675 C   0  0  0  0  0  0  0  0  0  0  0  0
   -5.9568   -0.0165  -20.6649 C   0  0  0  0  0  0  0  0  0  0  0  0
   -9.1599   -0.5742  -21.7647 C   0  0  0  0  0  0  0  0  0  0  0  0
   -9.5290    0.5209  -21.4023 O   0  0  0  0  0  0  0  0  0  0  0  0
  1  2  1  0
  2  3  1  0
  3  4  1  0
  4  5  1  0
  5  6  2  0
  6  7  1  0
  7  8  2  0
  8  9  1  0
  9 10  2  0
  3 11  2  0
 11 12  1  0
 12 13  1  0
 13 14  2  0
 14 15  1  0
 15 16  2  0
 16 17  1  0
 17 18  2  0
 18 19  1  0
 19 20  2  0
 20 21  1  0
 21 22  2  0
 12 23  1  0
 23 24  2  0
 23  2  1  0
 10  5  1  0
 22 13  1  0
 22 17  1  0
M  END
>  <template_ligand>  (109) 
mol-246

>  <template_receptor>  (109) 
receptors/receptor-246.pdb

>  <SMILES>  (109) 
Cn1c(Cc2ccccc2)nn(-c2cncc3ccccc23)c1=O

>  <LABEL>  (109) 
SARS-CoV-2 Mpro

$$$$
ligand_53
     RDKit          3D

 40 45  0  0  0  0  0  0  0  0999 V2000
    6.3484    4.4411   22.4442 C   0  0  0  0  0  0  0  0  0  0  0  0
    7.1691    3.5437   23.2358 N   0  0  0  0  0  0  0  0  0  0  0  0
    6.8312    3.2642   24.5126 C   0  0  0  0  0  0  0  0  0  0  0  0
    5.9271    3.8346   25.1068 O   0  0  0  0  0  0  0  0  0  0  0  0
    7.6261    2.1638   25.2372 C   0  0  0  0  0  0  0  0  0  0  0  0
    8.5496    1.3763   24.4504 N   0  0  0  0  0  0  0  0  0  0  0  0
    8.2054   -0.0003   24.1503 C   0  0  0  0  0  0  0  0  0  0  0  0
    8.8532   -0.4718   22.8300 C   0  0  2  0  0  0  0  0  0  0  0  0
    8.2326    0.3196   21.6406 C   0  0  0  0  0  0  0  0  0  0  0  0
    8.5110    1.4431   21.2678 O   0  0  0  0  0  0  0  0  0  0  0  0
    7.2574   -0.4616   21.0629 N   0  0  0  0  0  0  0  0  0  0  0  0
    6.4242    0.0433   20.0239 C   0  0  0  0  0  0  0  0  0  0  0  0
    6.7453   -0.2034   18.7147 C   0  0  0  0  0  0  0  0  0  0  0  0
    6.0228    0.2159   17.6420 N   0  0  0  0  0  0  0  0  0  0  0  0
    4.9402    0.9163   17.8835 C   0  0  0  0  0  0  0  0  0  0  0  0
    4.4808    1.2513   19.1917 C   0  0  0  0  0  0  0  0  0  0  0  0
    3.2993    2.0138   19.4022 C   0  0  0  0  0  0  0  0  0  0  0  0
    2.8720    2.2983   20.6722 C   0  0  0  0  0  0  0  0  0  0  0  0
    3.6033    1.8291   21.7871 C   0  0  0  0  0  0  0  0  0  0  0  0
    4.7550    1.0999   21.6057 C   0  0  0  0  0  0  0  0  0  0  0  0
    5.2363    0.7990   20.3015 C   0  0  0  0  0  0  0  0  0  0  0  0
    7.0898   -1.7508   21.7081 C   0  0  0  0  0  0  0  0  0  0  0  0
    8.4174   -1.9253   22.4761 C   0  0  2  0  0  0  0  0  0  0  0  0
    8.2730   -2.9422   23.6203 C   0  0  0  0  0  0  0  0  0  0  0  0
    9.4955   -3.1718   24.3645 N   0  0  0  0  0  0  0  0  0  0  0  0
    9.5571   -4.0190   25.4388 C   0  0  0  0  0  0  0  0  0  0  0  0
    8.4372   -4.7268   25.9458 C   0  0  0  0  0  0  0  0  0  0  0  0
    8.5121   -5.4669   27.0419 N   0  0  0  0  0  0  0  0  0  0  0  0
    9.6990   -5.5414   27.6536 C   0  0  0  0  0  0  0  0  0  0  0  0
   10.8105   -4.9111   27.1214 C   0  0  0  0  0  0  0  0  0  0  0  0
   10.7483   -4.1579   26.0214 N   0  0  0  0  0  0  0  0  0  0  0  0
   10.3422   -0.2069   22.9228 C   0  0  0  0  0  0  0  0  0  0  0  0
   11.2961   -1.0207   22.3006 C   0  0  0  0  0  0  0  0  0  0  0  0
   12.6328   -0.6529   22.3000 C   0  0  0  0  0  0  0  0  0  0  0  0
   13.8029   -1.6556   21.4850 Cl  0  0  0  0  0  0  0  0  0  0  0  0
   13.0646    0.5144   22.9299 C   0  0  0  0  0  0  0  0  0  0  0  0
   12.1295    1.3112   23.5615 C   0  0  0  0  0  0  0  0  0  0  0  0
   10.7828    0.9575   23.5685 C   0  0  0  0  0  0  0  0  0  0  0  0
    9.8155    1.8659   24.2734 C   0  0  0  0  0  0  0  0  0  0  0  0
   10.1193    2.9917   24.6501 O   0  0  0  0  0  0  0  0  0  0  0  0
  1  2  1  0
  2  3  1  0
  3  4  2  0
  3  5  1  0
  5  6  1  0
  6  7  1  0
  8  7  1  1
  8  9  1  0
  9 10  2  0
  9 11  1  0
 11 12  1  0
 12 13  2  0
 13 14  1  0
 14 15  2  0
 15 16  1  0
 16 17  2  0
 17 18  1  0
 18 19  2  0
 19 20  1  0
 20 21  2  0
 11 22  1  0
 22 23  1  0
 23 24  1  1
 24 25  1  0
 25 26  1  0
 26 27  2  0
 27 28  1  0
 28 29  2  0
 29 30  1  0
 30 31  2  0
  8 32  1  0
 32 33  2  0
 33 34  1  0
 34 35  1  0
 34 36  2  0
 36 37  1  0
 37 38  2  0
 38 39  1  0
 39 40  2  0
 39  6  1  0
 23  8  1  0
 31 26  1  0
 38 32  1  0
 21 12  1  0
 21 16  1  0
M  END
>  <template_ligand>  (110) 
mol-218

>  <template_receptor>  (110) 
receptors/receptor-218.pdb

>  <SMILES>  (110) 
CNC(=O)CN1CC2(C(=O)N(c3cncc4ccccc34)CC2CNc2cnccn2)c2cc(Cl)ccc2C1=O

>  <LABEL>  (110) 
MERS-CoV Mpro

$$$$
ligand_54
     RDKit          3D

 34 39  0  0  0  0  0  0  0  0999 V2000
    6.0218    4.7449   21.3734 C   0  0  0  0  0  0  0  0  0  0  0  0
    6.0581    4.2292   22.7246 N   0  0  0  0  0  0  0  0  0  0  0  0
    5.0797    4.3246   23.6535 C   0  0  0  0  0  0  0  0  0  0  0  0
    5.4822    3.5740   24.7339 C   0  0  0  0  0  0  0  0  0  0  0  0
    6.7365    3.0475   24.3498 C   0  0  0  0  0  0  0  0  0  0  0  0
    7.6031    2.1602   25.2026 C   0  0  0  0  0  0  0  0  0  0  0  0
    8.5593    1.3647   24.4692 N   0  0  0  0  0  0  0  0  0  0  0  0
    8.2106   -0.0032   24.1371 C   0  0  0  0  0  0  0  0  0  0  0  0
    8.8530   -0.4557   22.7983 C   0  0  1  0  0  0  0  0  0  0  0  0
    8.4130   -1.8894   22.4429 C   0  0  0  0  0  0  0  0  0  0  0  0
    7.0756   -1.7284   21.7093 C   0  0  0  0  0  0  0  0  0  0  0  0
    7.2440   -0.4409   21.0588 N   0  0  0  0  0  0  0  0  0  0  0  0
    6.4129    0.0528   20.0180 C   0  0  0  0  0  0  0  0  0  0  0  0
    6.7359   -0.2080   18.7106 C   0  0  0  0  0  0  0  0  0  0  0  0
    6.0189    0.2122   17.6395 N   0  0  0  0  0  0  0  0  0  0  0  0
    4.9376    0.9211   17.8772 C   0  0  0  0  0  0  0  0  0  0  0  0
    4.4697    1.2511   19.1825 C   0  0  0  0  0  0  0  0  0  0  0  0
    3.2939    2.0244   19.4016 C   0  0  0  0  0  0  0  0  0  0  0  0
    2.8761    2.3093   20.6744 C   0  0  0  0  0  0  0  0  0  0  0  0
    3.6067    1.8342   21.7876 C   0  0  0  0  0  0  0  0  0  0  0  0
    4.7554    1.1035   21.6031 C   0  0  0  0  0  0  0  0  0  0  0  0
    5.2207    0.7961   20.2957 C   0  0  0  0  0  0  0  0  0  0  0  0
    8.2391    0.3359   21.6152 C   0  0  0  0  0  0  0  0  0  0  0  0
    8.5466    1.4333   21.2152 O   0  0  0  0  0  0  0  0  0  0  0  0
   10.3393   -0.1981   22.9117 C   0  0  0  0  0  0  0  0  0  0  0  0
   11.2896   -1.0138   22.2909 C   0  0  0  0  0  0  0  0  0  0  0  0
   12.6255   -0.6485   22.3051 C   0  0  0  0  0  0  0  0  0  0  0  0
   13.7770   -1.6595   21.4793 Cl  0  0  0  0  0  0  0  0  0  0  0  0
   13.0610    0.5192   22.9362 C   0  0  0  0  0  0  0  0  0  0  0  0
   12.1232    1.3210   23.5616 C   0  0  0  0  0  0  0  0  0  0  0  0
   10.7730    0.9702   23.5579 C   0  0  0  0  0  0  0  0  0  0  0  0
    9.8067    1.8828   24.2557 C   0  0  0  0  0  0  0  0  0  0  0  0
   10.1120    3.0092   24.6229 O   0  0  0  0  0  0  0  0  0  0  0  0
    7.0637    3.4399   23.1245 N   0  0  0  0  0  0  0  0  0  0  0  0
  1  2  1  0
  2  3  1  0
  3  4  2  0
  4  5  1  0
  5  6  1  0
  6  7  1  0
  7  8  1  0
  9  8  1  1
  9 10  1  0
 10 11  1  0
 11 12  1  0
 12 13  1  0
 13 14  2  0
 14 15  1  0
 15 16  2  0
 16 17  1  0
 17 18  2  0
 18 19  1  0
 19 20  2  0
 20 21  1  0
 21 22  2  0
 12 23  1  0
 23 24  2  0
  9 25  1  0
 25 26  2  0
 26 27  1  0
 27 28  1  0
 27 29  2  0
 29 30  1  0
 30 31  2  0
 31 32  1  0
 32 33  2  0
  5 34  2  0
 34  2  1  0
 32  7  1  0
 23  9  1  0
 31 25  1  0
 22 13  1  0
 22 17  1  0
M  END
>  <template_ligand>  (111) 
mol-218

>  <template_receptor>  (111) 
receptors/receptor-218.pdb

>  <SMILES>  (111) 
Cn1ccc(CN2CC3(CCN(c4cncc5ccccc45)C3=O)c3cc(Cl)ccc3C2=O)n1

>  <LABEL>  (111) 
MERS-CoV Mpro

$$$$
ligand_54
     RDKit          3D

 36 41  0  0  0  0  0  0  0  0999 V2000
   -8.9472   -5.8804  -24.4894 C   0  0  0  0  0  0  0  0  0  0  0  0
   -8.9524   -4.9551  -23.4345 O   0  0  0  0  0  0  0  0  0  0  0  0
   -9.2108   -3.6473  -23.8771 C   0  0  0  0  0  0  0  0  0  0  0  0
   -9.1778   -2.7204  -22.6747 C   0  0  1  0  0  0  0  0  0  0  0  0
   -7.7823   -2.5374  -22.0512 C   0  0  0  0  0  0  0  0  0  0  0  0
   -7.9321   -1.2729  -21.3472 N   0  0  0  0  0  0  0  0  0  0  0  0
   -7.0850   -0.8012  -20.3163 C   0  0  0  0  0  0  0  0  0  0  0  0
   -7.3811   -1.0837  -19.0072 C   0  0  0  0  0  0  0  0  0  0  0  0
   -6.6429   -0.6705  -17.9466 N   0  0  0  0  0  0  0  0  0  0  0  0
   -5.5824    0.0589  -18.2029 C   0  0  0  0  0  0  0  0  0  0  0  0
   -5.1653    0.4333  -19.5130 C   0  0  0  0  0  0  0  0  0  0  0  0
   -4.0251    1.2522  -19.7317 C   0  0  0  0  0  0  0  0  0  0  0  0
   -3.6521    1.5964  -21.0027 C   0  0  0  0  0  0  0  0  0  0  0  0
   -4.3995    1.1431  -22.1116 C   0  0  0  0  0  0  0  0  0  0  0  0
   -5.5134    0.3593  -21.9254 C   0  0  0  0  0  0  0  0  0  0  0  0
   -5.9279   -0.0165  -20.6149 C   0  0  0  0  0  0  0  0  0  0  0  0
   -9.0733   -0.5729  -21.6890 C   0  0  0  0  0  0  0  0  0  0  0  0
   -9.4914    0.3959  -21.0959 O   0  0  0  0  0  0  0  0  0  0  0  0
   -9.6834   -1.2722  -22.9277 C   0  0  1  0  0  0  0  0  0  0  0  0
   -9.0739   -0.7071  -24.2415 C   0  0  0  0  0  0  0  0  0  0  0  0
   -9.5995    0.6023  -24.5716 N   0  0  0  0  0  0  0  0  0  0  0  0
   -8.7327    1.7438  -24.8333 C   0  0  0  0  0  0  0  0  0  0  0  0
   -8.7683    2.7748  -23.7406 C   0  0  0  0  0  0  0  0  0  0  0  0
   -7.8614    3.1486  -22.8012 C   0  0  0  0  0  0  0  0  0  0  0  0
   -8.3813    4.2440  -22.1411 N   0  0  0  0  0  0  0  0  0  0  0  0
   -9.5850    4.5114  -22.6559 C   0  0  0  0  0  0  0  0  0  0  0  0
   -9.8612    3.6111  -23.5993 N   0  0  0  0  0  0  0  0  0  0  0  0
  -10.9421    0.8272  -24.6002 C   0  0  0  0  0  0  0  0  0  0  0  0
  -11.4221    1.8244  -25.1434 O   0  0  0  0  0  0  0  0  0  0  0  0
  -11.7809   -0.1423  -23.8324 C   0  0  0  0  0  0  0  0  0  0  0  0
  -13.1653    0.0397  -23.8482 C   0  0  0  0  0  0  0  0  0  0  0  0
  -13.9753   -0.6518  -22.9663 C   0  0  0  0  0  0  0  0  0  0  0  0
  -13.3763   -1.5532  -22.0833 C   0  0  0  0  0  0  0  0  0  0  0  0
  -14.3703   -2.3854  -20.9158 Cl  0  0  0  0  0  0  0  0  0  0  0  0
  -12.0093   -1.7745  -22.0818 C   0  0  0  0  0  0  0  0  0  0  0  0
  -11.1840   -1.0881  -22.9839 C   0  0  0  0  0  0  0  0  0  0  0  0
  1  2  1  0
  2  3  1  0
  4  3  1  6
  4  5  1  0
  5  6  1  0
  6  7  1  0
  7  8  2  0
  8  9  1  0
  9 10  2  0
 10 11  1  0
 11 12  2  0
 12 13  1  0
 13 14  2  0
 14 15  1  0
 15 16  2  0
  6 17  1  0
 17 18  2  0
 17 19  1  0
 19 20  1  6
 20 21  1  0
 21 22  1  0
 22 23  1  0
 23 24  2  0
 24 25  1  0
 25 26  2  0
 26 27  1  0
 21 28  1  0
 28 29  2  0
 28 30  1  0
 30 31  2  0
 31 32  1  0
 32 33  2  0
 33 34  1  0
 33 35  1  0
 35 36  2  0
 19  4  1  0
 27 23  1  0
 36 30  1  0
 16  7  1  0
 36 19  1  0
 16 11  1  0
M  CHG  1  25   1
M  END
>  <template_ligand>  (112) 
mol-246

>  <template_receptor>  (112) 
receptors/receptor-246.pdb

>  <SMILES>  (112) 
COCC1CN(c2cncc3ccccc23)C(=O)C12CN(Cc1c[nH+]c[nH]1)C(=O)c1ccc(Cl)cc12

>  <LABEL>  (112) 
SARS-CoV-2 Mpro

$$$$
ligand_55
     RDKit          3D

 35 40  0  0  0  0  0  0  0  0999 V2000
   -8.4795   -3.9143  -23.7094 C   0  0  0  0  0  0  0  0  0  0  0  0
   -8.5917   -2.8947  -22.5825 C   0  0  1  0  0  0  0  0  0  0  0  0
   -7.2681   -2.5953  -21.8655 C   0  0  0  0  0  0  0  0  0  0  0  0
   -7.5276   -1.3104  -21.2442 N   0  0  0  0  0  0  0  0  0  0  0  0
   -6.7273   -0.7361  -20.2197 C   0  0  0  0  0  0  0  0  0  0  0  0
   -7.0150   -0.9982  -18.9053 C   0  0  0  0  0  0  0  0  0  0  0  0
   -6.3226   -0.4997  -17.8497 N   0  0  0  0  0  0  0  0  0  0  0  0
   -5.3062    0.2874  -18.1131 C   0  0  0  0  0  0  0  0  0  0  0  0
   -4.8767    0.6272  -19.4286 C   0  0  0  0  0  0  0  0  0  0  0  0
   -3.7692    1.4894  -19.6778 C   0  0  0  0  0  0  0  0  0  0  0  0
   -3.3925    1.7813  -20.9589 C   0  0  0  0  0  0  0  0  0  0  0  0
   -4.0901    1.2236  -22.0549 C   0  0  0  0  0  0  0  0  0  0  0  0
   -5.1631    0.3907  -21.8410 C   0  0  0  0  0  0  0  0  0  0  0  0
   -5.5952    0.0853  -20.5238 C   0  0  0  0  0  0  0  0  0  0  0  0
   -8.5825   -0.6244  -21.8146 C   0  0  0  0  0  0  0  0  0  0  0  0
   -8.9621    0.4638  -21.4481 O   0  0  0  0  0  0  0  0  0  0  0  0
   -9.1426   -1.4955  -22.9714 C   0  0  1  0  0  0  0  0  0  0  0  0
   -8.5525   -1.0005  -24.3237 C   0  0  0  0  0  0  0  0  0  0  0  0
   -8.9902    0.3453  -24.6392 N   0  0  0  0  0  0  0  0  0  0  0  0
   -8.1375    1.2225  -25.4314 C   0  0  0  0  0  0  0  0  0  0  0  0
   -7.6883    2.4729  -24.7078 C   0  0  0  0  0  0  0  0  0  0  0  0
   -7.2385    2.3019  -23.4628 N   0  0  0  0  0  0  0  0  0  0  0  0
   -6.8391    3.4072  -22.8341 C   0  0  0  0  0  0  0  0  0  0  0  0
   -6.8723    4.6629  -23.4130 C   0  0  0  0  0  0  0  0  0  0  0  0
   -7.3442    4.7156  -24.7146 C   0  0  0  0  0  0  0  0  0  0  0  0
   -7.7353    3.6268  -25.3721 N   0  0  0  0  0  0  0  0  0  0  0  0
  -10.2838    0.7379  -24.4411 C   0  0  0  0  0  0  0  0  0  0  0  0
  -10.6936    1.8203  -24.8333 O   0  0  0  0  0  0  0  0  0  0  0  0
  -11.1783   -0.2397  -23.7273 C   0  0  0  0  0  0  0  0  0  0  0  0
  -12.5550    0.0016  -23.7214 C   0  0  0  0  0  0  0  0  0  0  0  0
  -13.4230   -0.8596  -23.0755 C   0  0  0  0  0  0  0  0  0  0  0  0
  -12.8797   -1.9755  -22.4435 C   0  0  0  0  0  0  0  0  0  0  0  0
  -13.7028   -2.8208  -21.8000 F   0  0  0  0  0  0  0  0  0  0  0  0
  -11.5259   -2.2430  -22.4320 C   0  0  0  0  0  0  0  0  0  0  0  0
  -10.6465   -1.3617  -23.0703 C   0  0  0  0  0  0  0  0  0  0  0  0
  2  1  1  6
  2  3  1  0
  3  4  1  0
  4  5  1  0
  5  6  2  0
  6  7  1  0
  7  8  2  0
  8  9  1  0
  9 10  2  0
 10 11  1  0
 11 12  2  0
 12 13  1  0
 13 14  2  0
  4 15  1  0
 15 16  2  0
 15 17  1  0
 17 18  1  6
 18 19  1  0
 19 20  1  0
 20 21  1  0
 21 22  2  0
 22 23  1  0
 23 24  2  0
 24 25  1  0
 25 26  2  0
 19 27  1  0
 27 28  2  0
 27 29  1  0
 29 30  2  0
 30 31  1  0
 31 32  2  0
 32 33  1  0
 32 34  1  0
 34 35  2  0
 17  2  1  0
 26 21  1  0
 35 29  1  0
 14  5  1  0
 35 17  1  0
 14  9  1  0
M  END
>  <template_ligand>  (113) 
mol-218

>  <template_receptor>  (113) 
receptors/receptor-218.pdb

>  <SMILES>  (113) 
CC1CN(c2cncc3ccccc23)C(=O)C12CN(Cc1ncccn1)C(=O)c1ccc(F)cc12

>  <LABEL>  (113) 
SARS-CoV-2 Mpro

$$$$
ligand_56
     RDKit          3D

 34 38  0  0  0  0  0  0  0  0999 V2000
   -7.0454    3.5997  -22.7269 C   0  0  0  0  0  0  0  0  0  0  0  0
   -7.7985    2.6262  -23.4931 N   0  0  0  0  0  0  0  0  0  0  0  0
   -7.4545    2.3452  -24.7653 C   0  0  0  0  0  0  0  0  0  0  0  0
   -6.6095    2.9733  -25.3861 O   0  0  0  0  0  0  0  0  0  0  0  0
   -8.1652    1.1656  -25.4500 C   0  0  0  0  0  0  0  0  0  0  0  0
   -9.0190    0.3264  -24.6309 N   0  0  0  0  0  0  0  0  0  0  0  0
   -8.5732   -1.0126  -24.2951 C   0  0  0  0  0  0  0  0  0  0  0  0
   -9.1576   -1.5269  -22.9424 C   0  0  2  0  0  0  0  0  0  0  0  0
   -8.5828   -0.6518  -21.8003 C   0  0  0  0  0  0  0  0  0  0  0  0
   -8.9699    0.4481  -21.4572 O   0  0  0  0  0  0  0  0  0  0  0  0
   -7.5089   -1.3085  -21.2488 N   0  0  0  0  0  0  0  0  0  0  0  0
   -6.7264   -0.7283  -20.2160 C   0  0  0  0  0  0  0  0  0  0  0  0
   -7.0192   -0.9851  -18.9017 C   0  0  0  0  0  0  0  0  0  0  0  0
   -6.3231   -0.4934  -17.8451 N   0  0  0  0  0  0  0  0  0  0  0  0
   -5.3026    0.2883  -18.1123 C   0  0  0  0  0  0  0  0  0  0  0  0
   -4.8840    0.6350  -19.4318 C   0  0  0  0  0  0  0  0  0  0  0  0
   -3.7733    1.4860  -19.6759 C   0  0  0  0  0  0  0  0  0  0  0  0
   -3.3884    1.7776  -20.9586 C   0  0  0  0  0  0  0  0  0  0  0  0
   -4.0893    1.2301  -22.0558 C   0  0  0  0  0  0  0  0  0  0  0  0
   -5.1753    0.4145  -21.8445 C   0  0  0  0  0  0  0  0  0  0  0  0
   -5.6079    0.1059  -20.5236 C   0  0  0  0  0  0  0  0  0  0  0  0
   -7.1855   -2.5568  -21.9046 C   0  0  0  0  0  0  0  0  0  0  0  0
   -8.5201   -2.9505  -22.6041 C   0  0  0  0  0  0  0  0  0  0  0  0
   -9.2511   -3.8340  -21.5921 C   0  0  0  0  0  0  0  0  0  0  0  0
   -8.3025   -3.8292  -23.8403 C   0  0  0  0  0  0  0  0  0  0  0  0
  -10.6718   -1.3366  -23.0288 C   0  0  0  0  0  0  0  0  0  0  0  0
  -11.5768   -2.1467  -22.3429 C   0  0  0  0  0  0  0  0  0  0  0  0
  -12.9373   -1.9156  -22.3896 C   0  0  0  0  0  0  0  0  0  0  0  0
  -14.0082   -3.0324  -21.5837 Cl  0  0  0  0  0  0  0  0  0  0  0  0
  -13.4619   -0.8373  -23.0929 C   0  0  0  0  0  0  0  0  0  0  0  0
  -12.5817   -0.0004  -23.7486 C   0  0  0  0  0  0  0  0  0  0  0  0
  -11.2095   -0.2475  -23.7342 C   0  0  0  0  0  0  0  0  0  0  0  0
  -10.3201    0.7121  -24.4613 C   0  0  0  0  0  0  0  0  0  0  0  0
  -10.7152    1.7998  -24.8586 O   0  0  0  0  0  0  0  0  0  0  0  0
  1  2  1  0
  2  3  1  0
  3  4  2  0
  3  5  1  0
  5  6  1  0
  6  7  1  0
  8  7  1  6
  8  9  1  0
  9 10  2  0
  9 11  1  0
 11 12  1  0
 12 13  2  0
 13 14  1  0
 14 15  2  0
 15 16  1  0
 16 17  2  0
 17 18  1  0
 18 19  2  0
 19 20  1  0
 20 21  2  0
 11 22  1  0
 22 23  1  0
 23 24  1  0
 23 25  1  0
  8 26  1  0
 26 27  2  0
 27 28  1  0
 28 29  1  0
 28 30  2  0
 30 31  1  0
 31 32  2  0
 32 33  1  0
 33 34  2  0
 33  6  1  0
 23  8  1  0
 32 26  1  0
 21 12  1  0
 21 16  1  0
M  END
>  <template_ligand>  (114) 
mol-218

>  <template_receptor>  (114) 
receptors/receptor-218.pdb

>  <SMILES>  (114) 
CNC(=O)CN1CC2(C(=O)N(c3cncc4ccccc34)CC2(C)C)c2cc(Cl)ccc2C1=O

>  <LABEL>  (114) 
SARS-CoV-2 Mpro

$$$$
ligand_57
     RDKit          3D

 26 29  0  0  0  0  0  0  0  0999 V2000
   -7.7721    0.6719  -25.6730 C   0  0  0  0  0  0  0  0  0  0  0  0
   -8.6485    0.0312  -24.7106 N   0  0  0  0  0  0  0  0  0  0  0  0
   -8.2810   -1.3140  -24.3128 C   0  0  0  0  0  0  0  0  0  0  0  0
   -8.9712   -1.7170  -23.0058 C   0  0  1  0  0  0  0  0  0  0  0  0
   -8.4033   -0.9372  -21.8133 C   0  0  0  0  0  0  0  0  0  0  0  0
   -8.8572    0.1196  -21.4247 O   0  0  0  0  0  0  0  0  0  0  0  0
   -7.3102   -1.5215  -21.2114 N   0  0  0  0  0  0  0  0  0  0  0  0
   -6.5743   -0.8808  -20.1782 C   0  0  0  0  0  0  0  0  0  0  0  0
   -6.9341   -1.0257  -18.8634 C   0  0  0  0  0  0  0  0  0  0  0  0
   -6.2928   -0.4444  -17.8186 N   0  0  0  0  0  0  0  0  0  0  0  0
   -5.2584    0.3169  -18.0941 C   0  0  0  0  0  0  0  0  0  0  0  0
   -4.7524    0.5281  -19.4097 C   0  0  0  0  0  0  0  0  0  0  0  0
   -3.6346    1.3648  -19.6829 C   0  0  0  0  0  0  0  0  0  0  0  0
   -3.1868    1.5211  -20.9679 C   0  0  0  0  0  0  0  0  0  0  0  0
   -3.8228    0.8531  -22.0399 C   0  0  0  0  0  0  0  0  0  0  0  0
   -4.9066    0.0472  -21.8057 C   0  0  0  0  0  0  0  0  0  0  0  0
   -5.4061   -0.1161  -20.4837 C   0  0  0  0  0  0  0  0  0  0  0  0
  -10.4476   -1.4810  -23.1319 C   0  0  0  0  0  0  0  0  0  0  0  0
  -11.3503   -2.2854  -22.4358 C   0  0  0  0  0  0  0  0  0  0  0  0
  -12.7039   -1.9872  -22.4771 C   0  0  0  0  0  0  0  0  0  0  0  0
  -13.8259   -2.9967  -21.6122 Cl  0  0  0  0  0  0  0  0  0  0  0  0
  -13.1780   -0.8879  -23.1968 C   0  0  0  0  0  0  0  0  0  0  0  0
  -12.2744   -0.0928  -23.8829 C   0  0  0  0  0  0  0  0  0  0  0  0
  -10.9066   -0.3899  -23.8616 C   0  0  0  0  0  0  0  0  0  0  0  0
   -9.9473    0.4713  -24.6410 C   0  0  0  0  0  0  0  0  0  0  0  0
  -10.3246    1.4752  -25.2152 O   0  0  0  0  0  0  0  0  0  0  0  0
  1  2  1  0
  2  3  1  0
  3  4  1  0
  4  5  1  1
  5  6  2  0
  5  7  1  0
  7  8  1  0
  8  9  2  0
  9 10  1  0
 10 11  2  0
 11 12  1  0
 12 13  2  0
 13 14  1  0
 14 15  2  0
 15 16  1  0
 16 17  2  0
  4 18  1  0
 18 19  2  0
 19 20  1  0
 20 21  1  0
 20 22  2  0
 22 23  1  0
 23 24  2  0
 24 25  1  0
 25 26  2  0
 25  2  1  0
 17  8  1  0
 24 18  1  0
 17 12  1  0
M  END
>  <template_ligand>  (115) 
mol-115

>  <template_receptor>  (115) 
receptors/receptor-115.pdb

>  <SMILES>  (115) 
CN1CC(C(=O)Nc2cncc3ccccc23)c2cc(Cl)ccc2C1=O

>  <LABEL>  (115) 
SARS-CoV-2 Mpro

$$$$
ligand_58
     RDKit          3D

 38 43  0  0  0  0  0  0  0  0999 V2000
   -7.0540    3.5783  -22.7107 C   0  0  0  0  0  0  0  0  0  0  0  0
   -7.8109    2.5965  -23.4652 N   0  0  0  0  0  0  0  0  0  0  0  0
   -7.4576    2.3305  -24.7447 C   0  0  0  0  0  0  0  0  0  0  0  0
   -6.6080    2.9647  -25.3538 O   0  0  0  0  0  0  0  0  0  0  0  0
   -8.1773    1.1869  -25.4667 C   0  0  0  0  0  0  0  0  0  0  0  0
   -9.0249    0.3378  -24.6642 N   0  0  0  0  0  0  0  0  0  0  0  0
   -8.5522   -0.9871  -24.3162 C   0  0  0  0  0  0  0  0  0  0  0  0
   -9.1235   -1.4861  -22.9668 C   0  0  2  0  0  0  0  0  0  0  0  0
   -8.5517   -0.6363  -21.8077 C   0  0  0  0  0  0  0  0  0  0  0  0
   -8.9150    0.4694  -21.4538 O   0  0  0  0  0  0  0  0  0  0  0  0
   -7.5132   -1.3300  -21.2326 N   0  0  0  0  0  0  0  0  0  0  0  0
   -6.7196   -0.7515  -20.2151 C   0  0  0  0  0  0  0  0  0  0  0  0
   -7.0299   -1.0005  -18.9035 C   0  0  0  0  0  0  0  0  0  0  0  0
   -6.3537   -0.4936  -17.8414 N   0  0  0  0  0  0  0  0  0  0  0  0
   -5.3309    0.2875  -18.1103 C   0  0  0  0  0  0  0  0  0  0  0  0
   -4.9053    0.6279  -19.4293 C   0  0  0  0  0  0  0  0  0  0  0  0
   -3.7952    1.4804  -19.6664 C   0  0  0  0  0  0  0  0  0  0  0  0
   -3.4045    1.7789  -20.9426 C   0  0  0  0  0  0  0  0  0  0  0  0
   -4.1002    1.2433  -22.0473 C   0  0  0  0  0  0  0  0  0  0  0  0
   -5.1847    0.4254  -21.8487 C   0  0  0  0  0  0  0  0  0  0  0  0
   -5.6147    0.0964  -20.5290 C   0  0  0  0  0  0  0  0  0  0  0  0
   -7.2441   -2.6079  -21.8515 C   0  0  0  0  0  0  0  0  0  0  0  0
   -8.5422   -2.8863  -22.6230 C   0  0  2  0  0  0  0  0  0  0  0  0
   -8.3317   -3.8619  -23.7874 C   0  0  0  0  0  0  0  0  0  0  0  0
   -7.8379   -5.1827  -23.3092 C   0  0  0  0  0  0  0  0  0  0  0  0
   -6.5921   -5.4635  -22.9467 N   0  0  0  0  0  0  0  0  0  0  0  0
   -6.6282   -6.7356  -22.5635 N   0  0  0  0  0  0  0  0  0  0  0  0
   -7.8464   -7.1916  -22.6943 N   0  0  0  0  0  0  0  0  0  0  0  0
   -8.6283   -6.2296  -23.1614 N   0  0  0  0  0  0  0  0  0  0  0  0
  -10.6343   -1.3571  -23.0494 C   0  0  0  0  0  0  0  0  0  0  0  0
  -11.5267   -2.2320  -22.4155 C   0  0  0  0  0  0  0  0  0  0  0  0
  -12.8871   -1.9697  -22.4348 C   0  0  0  0  0  0  0  0  0  0  0  0
  -13.9695   -3.0623  -21.6169 Cl  0  0  0  0  0  0  0  0  0  0  0  0
  -13.4216   -0.8517  -23.0708 C   0  0  0  0  0  0  0  0  0  0  0  0
  -12.5535    0.0063  -23.7103 C   0  0  0  0  0  0  0  0  0  0  0  0
  -11.1828   -0.2505  -23.7188 C   0  0  0  0  0  0  0  0  0  0  0  0
  -10.3306    0.7056  -24.4882 C   0  0  0  0  0  0  0  0  0  0  0  0
  -10.7814    1.7609  -24.9203 O   0  0  0  0  0  0  0  0  0  0  0  0
  1  2  1  0
  2  3  1  0
  3  4  2  0
  3  5  1  0
  5  6  1  0
  6  7  1  0
  8  7  1  6
  8  9  1  0
  9 10  2  0
  9 11  1  0
 11 12  1  0
 12 13  2  0
 13 14  1  0
 14 15  2  0
 15 16  1  0
 16 17  2  0
 17 18  1  0
 18 19  2  0
 19 20  1  0
 20 21  2  0
 11 22  1  0
 22 23  1  0
 23 24  1  6
 24 25  1  0
 25 26  1  0
 26 27  2  0
 27 28  1  0
 28 29  1  0
  8 30  1  0
 30 31  2  0
 31 32  1  0
 32 33  1  0
 32 34  2  0
 34 35  1  0
 35 36  2  0
 36 37  1  0
 37 38  2  0
 37  6  1  0
 23  8  1  0
 29 25  2  0
 36 30  1  0
 21 12  1  0
 21 16  1  0
M  CHG  1  28  -1
M  END
>  <template_ligand>  (116) 
mol-218

>  <template_receptor>  (116) 
receptors/receptor-218.pdb

>  <SMILES>  (116) 
CNC(=O)CN1CC2(C(=O)N(c3cncc4ccccc34)CC2Cc2nn[n-]n2)c2cc(Cl)ccc2C1=O

>  <LABEL>  (116) 
SARS-CoV-2 Mpro

$$$$
ligand_55
     RDKit          3D

 24 26  0  0  0  0  0  0  0  0999 V2000
    9.0002    1.0060   21.3413 O   0  0  0  0  0  0  0  0  0  0  0  0
    8.5968    0.0086   21.9151 C   0  0  0  0  0  0  0  0  0  0  0  0
    7.4172   -0.8150   21.3825 C   0  0  0  0  0  0  0  0  0  0  0  0
    6.6138   -0.1715   20.2907 C   0  0  0  0  0  0  0  0  0  0  0  0
    6.9956   -0.3242   18.9831 C   0  0  0  0  0  0  0  0  0  0  0  0
    6.3228    0.1515   17.9010 N   0  0  0  0  0  0  0  0  0  0  0  0
    5.1948    0.7764   18.1452 C   0  0  0  0  0  0  0  0  0  0  0  0
    4.6522    0.9809   19.4439 C   0  0  0  0  0  0  0  0  0  0  0  0
    3.3775    1.5707   19.6449 C   0  0  0  0  0  0  0  0  0  0  0  0
    2.8612    1.6853   20.9092 C   0  0  0  0  0  0  0  0  0  0  0  0
    3.6254    1.2797   22.0270 C   0  0  0  0  0  0  0  0  0  0  0  0
    4.8826    0.7514   21.8603 C   0  0  0  0  0  0  0  0  0  0  0  0
    5.4018    0.5307   20.5567 C   0  0  0  0  0  0  0  0  0  0  0  0
    9.2069   -0.4518   23.0673 N   0  0  0  0  0  0  0  0  0  0  0  0
   10.3266    0.3504   23.5746 C   0  0  0  0  0  0  0  0  0  0  0  0
   11.5881    0.1962   22.7205 C   0  0  0  0  0  0  0  0  0  0  0  0
   12.3528   -1.0815   23.0422 C   0  0  0  0  0  0  0  0  0  0  0  0
   11.4747   -2.6605   22.8364 S   0  0  0  0  0  0  0  0  0  0  0  0
   10.1617   -2.5508   24.0838 C   0  0  0  0  0  0  0  0  0  0  0  0
    8.9196   -1.7351   23.6780 C   0  0  1  0  0  0  0  0  0  0  0  0
    8.0005   -1.5420   24.8851 C   0  0  0  0  0  0  0  0  0  0  0  0
    7.5322   -2.7207   25.3312 F   0  0  0  0  0  0  0  0  0  0  0  0
    8.6487   -0.9546   25.9109 F   0  0  0  0  0  0  0  0  0  0  0  0
    6.9496   -0.7698   24.5691 F   0  0  0  0  0  0  0  0  0  0  0  0
  1  2  2  0
  2  3  1  0
  3  4  1  0
  4  5  2  0
  5  6  1  0
  6  7  2  0
  7  8  1  0
  8  9  2  0
  9 10  1  0
 10 11  2  0
 11 12  1  0
 12 13  2  0
  2 14  1  0
 14 15  1  0
 15 16  1  0
 16 17  1  0
 17 18  1  0
 18 19  1  0
 19 20  1  0
 20 21  1  1
 21 22  1  0
 21 23  1  0
 21 24  1  0
 13  4  1  0
 20 14  1  0
 13  8  1  0
M  END
>  <template_ligand>  (117) 
mol-100

>  <template_receptor>  (117) 
receptors/receptor-100.pdb

>  <SMILES>  (117) 
O=C(Cc1cncc2ccccc12)N1CCCSCC1C(F)(F)F

>  <LABEL>  (117) 
MERS-CoV Mpro

$$$$
ligand_56
     RDKit          3D

 40 45  0  0  0  0  0  0  0  0999 V2000
    6.3612    4.4088   22.4154 C   0  0  0  0  0  0  0  0  0  0  0  0
    7.1766    3.4854   23.1835 N   0  0  0  0  0  0  0  0  0  0  0  0
    6.8391    3.2341   24.4708 C   0  0  0  0  0  0  0  0  0  0  0  0
    5.9391    3.8247   25.0543 O   0  0  0  0  0  0  0  0  0  0  0  0
    7.6484    2.1787   25.2367 C   0  0  0  0  0  0  0  0  0  0  0  0
    8.5615    1.3727   24.4565 N   0  0  0  0  0  0  0  0  0  0  0  0
    8.2029    0.0006   24.1319 C   0  0  0  0  0  0  0  0  0  0  0  0
    8.8434   -0.4603   22.7927 C   0  0  2  0  0  0  0  0  0  0  0  0
    8.1983    0.3245   21.6234 C   0  0  0  0  0  0  0  0  0  0  0  0
    8.4502    1.4604   21.2651 O   0  0  0  0  0  0  0  0  0  0  0  0
    7.2308   -0.4710   21.0532 N   0  0  0  0  0  0  0  0  0  0  0  0
    6.4045    0.0249   20.0152 C   0  0  0  0  0  0  0  0  0  0  0  0
    6.7555   -0.2093   18.7102 C   0  0  0  0  0  0  0  0  0  0  0  0
    6.0529    0.2224   17.6326 N   0  0  0  0  0  0  0  0  0  0  0  0
    4.9667    0.9192   17.8784 C   0  0  0  0  0  0  0  0  0  0  0  0
    4.4977    1.2493   19.1828 C   0  0  0  0  0  0  0  0  0  0  0  0
    3.3190    2.0164   19.3830 C   0  0  0  0  0  0  0  0  0  0  0  0
    2.8895    2.3056   20.6484 C   0  0  0  0  0  0  0  0  0  0  0  0
    3.6111    1.8497   21.7749 C   0  0  0  0  0  0  0  0  0  0  0  0
    4.7587    1.1143   21.6080 C   0  0  0  0  0  0  0  0  0  0  0  0
    5.2338    0.7931   20.3019 C   0  0  0  0  0  0  0  0  0  0  0  0
    7.0718   -1.7551   21.7059 C   0  0  0  0  0  0  0  0  0  0  0  0
    8.4255   -1.9016   22.4103 C   0  0  2  0  0  0  0  0  0  0  0  0
    8.4242   -2.9377   23.5330 C   0  0  0  0  0  0  0  0  0  0  0  0
    8.2626   -4.2824   23.0329 N   0  0  0  0  0  0  0  0  0  0  0  0
    7.0185   -4.8144   22.8358 C   0  0  0  0  0  0  0  0  0  0  0  0
    5.8174   -4.3535   23.2981 C   0  0  0  0  0  0  0  0  0  0  0  0
    4.7261   -5.1365   23.0334 N   0  0  0  0  0  0  0  0  0  0  0  0
    5.0522   -6.2043   22.3777 C   0  0  0  0  0  0  0  0  0  0  0  0
    4.0295   -7.2417   22.0554 C   0  0  0  0  0  0  0  0  0  0  0  0
    6.7602   -6.3286   21.9993 S   0  0  0  0  0  0  0  0  0  0  0  0
   10.3337   -0.1987   22.8881 C   0  0  0  0  0  0  0  0  0  0  0  0
   11.2988   -1.0148   22.2811 C   0  0  0  0  0  0  0  0  0  0  0  0
   12.6312   -0.6440   22.3140 C   0  0  0  0  0  0  0  0  0  0  0  0
   13.8123   -1.6596   21.5424 Cl  0  0  0  0  0  0  0  0  0  0  0  0
   13.0631    0.5259   22.9351 C   0  0  0  0  0  0  0  0  0  0  0  0
   12.1236    1.3234   23.5503 C   0  0  0  0  0  0  0  0  0  0  0  0
   10.7797    0.9564   23.5487 C   0  0  0  0  0  0  0  0  0  0  0  0
    9.8389    1.8394   24.3032 C   0  0  0  0  0  0  0  0  0  0  0  0
   10.1937    2.9235   24.7516 O   0  0  0  0  0  0  0  0  0  0  0  0
  1  2  1  0
  2  3  1  0
  3  4  2  0
  3  5  1  0
  5  6  1  0
  6  7  1  0
  8  7  1  1
  8  9  1  0
  9 10  2  0
  9 11  1  0
 11 12  1  0
 12 13  2  0
 13 14  1  0
 14 15  2  0
 15 16  1  0
 16 17  2  0
 17 18  1  0
 18 19  2  0
 19 20  1  0
 20 21  2  0
 11 22  1  0
 22 23  1  0
 23 24  1  1
 24 25  1  0
 25 26  1  0
 26 27  2  0
 27 28  1  0
 28 29  2  0
 29 30  1  0
 29 31  1  0
  8 32  1  0
 32 33  2  0
 33 34  1  0
 34 35  1  0
 34 36  2  0
 36 37  1  0
 37 38  2  0
 38 39  1  0
 39 40  2  0
 39  6  1  0
 23  8  1  0
 31 26  1  0
 38 32  1  0
 21 12  1  0
 21 16  1  0
M  END
>  <template_ligand>  (118) 
mol-218

>  <template_receptor>  (118) 
receptors/receptor-218.pdb

>  <SMILES>  (118) 
CNC(=O)CN1CC2(C(=O)N(c3cncc4ccccc34)CC2CNc2cnc(C)s2)c2cc(Cl)ccc2C1=O

>  <LABEL>  (118) 
MERS-CoV Mpro

$$$$
ligand_59
     RDKit          3D

 36 41  0  0  0  0  0  0  0  0999 V2000
   -9.3288    4.2681  -27.1251 C   0  0  0  0  0  0  0  0  0  0  0  0
   -7.8651    3.9505  -26.8544 C   0  0  0  0  0  0  0  0  0  0  0  0
   -7.5822    3.6488  -25.4572 N   0  0  0  0  0  0  0  0  0  0  0  0
   -7.1946    4.6211  -24.6148 N   0  0  0  0  0  0  0  0  0  0  0  0
   -7.0698    4.0217  -23.4351 C   0  0  0  0  0  0  0  0  0  0  0  0
   -7.4043    2.6593  -23.5048 C   0  0  0  0  0  0  0  0  0  0  0  0
   -7.7513    2.4607  -24.8202 C   0  0  0  0  0  0  0  0  0  0  0  0
   -8.1510    1.1786  -25.4831 C   0  0  0  0  0  0  0  0  0  0  0  0
   -8.9837    0.3489  -24.6247 N   0  0  0  0  0  0  0  0  0  0  0  0
   -8.5525   -1.0039  -24.3174 C   0  0  0  0  0  0  0  0  0  0  0  0
   -9.1433   -1.4995  -22.9725 C   0  0  2  0  0  0  0  0  0  0  0  0
   -8.5823   -0.6332  -21.8160 C   0  0  0  0  0  0  0  0  0  0  0  0
   -8.9649    0.4595  -21.4564 O   0  0  0  0  0  0  0  0  0  0  0  0
   -7.5298   -1.3137  -21.2426 N   0  0  0  0  0  0  0  0  0  0  0  0
   -6.7276   -0.7389  -20.2193 C   0  0  0  0  0  0  0  0  0  0  0  0
   -7.0150   -0.9987  -18.9043 C   0  0  0  0  0  0  0  0  0  0  0  0
   -6.3222   -0.4993  -17.8490 N   0  0  0  0  0  0  0  0  0  0  0  0
   -5.3047    0.2872  -18.1130 C   0  0  0  0  0  0  0  0  0  0  0  0
   -4.8763    0.6243  -19.4304 C   0  0  0  0  0  0  0  0  0  0  0  0
   -3.7704    1.4868  -19.6780 C   0  0  0  0  0  0  0  0  0  0  0  0
   -3.3970    1.7841  -20.9598 C   0  0  0  0  0  0  0  0  0  0  0  0
   -4.1000    1.2360  -22.0574 C   0  0  0  0  0  0  0  0  0  0  0  0
   -5.1674    0.3971  -21.8435 C   0  0  0  0  0  0  0  0  0  0  0  0
   -5.5956    0.0831  -20.5246 C   0  0  0  0  0  0  0  0  0  0  0  0
   -7.2678   -2.5975  -21.8659 C   0  0  0  0  0  0  0  0  0  0  0  0
   -8.5912   -2.8973  -22.5829 C   0  0  2  0  0  0  0  0  0  0  0  0
   -8.4797   -3.9149  -23.7099 C   0  0  0  0  0  0  0  0  0  0  0  0
  -10.6472   -1.3600  -23.0688 C   0  0  0  0  0  0  0  0  0  0  0  0
  -11.5258   -2.2425  -22.4318 C   0  0  0  0  0  0  0  0  0  0  0  0
  -12.8795   -1.9752  -22.4437 C   0  0  0  0  0  0  0  0  0  0  0  0
  -13.7022   -2.8210  -21.8000 F   0  0  0  0  0  0  0  0  0  0  0  0
  -13.4236   -0.8601  -23.0752 C   0  0  0  0  0  0  0  0  0  0  0  0
  -12.5564    0.0017  -23.7210 C   0  0  0  0  0  0  0  0  0  0  0  0
  -11.1789   -0.2366  -23.7254 C   0  0  0  0  0  0  0  0  0  0  0  0
  -10.2829    0.7379  -24.4418 C   0  0  0  0  0  0  0  0  0  0  0  0
  -10.6987    1.8099  -24.8560 O   0  0  0  0  0  0  0  0  0  0  0  0
  1  2  1  0
  2  3  1  0
  3  4  1  0
  4  5  2  0
  5  6  1  0
  6  7  2  0
  7  8  1  0
  8  9  1  0
  9 10  1  0
 11 10  1  6
 11 12  1  0
 12 13  2  0
 12 14  1  0
 14 15  1  0
 15 16  2  0
 16 17  1  0
 17 18  2  0
 18 19  1  0
 19 20  2  0
 20 21  1  0
 21 22  2  0
 22 23  1  0
 23 24  2  0
 14 25  1  0
 25 26  1  0
 26 27  1  6
 11 28  1  0
 28 29  2  0
 29 30  1  0
 30 31  1  0
 30 32  2  0
 32 33  1  0
 33 34  2  0
 34 35  1  0
 35 36  2  0
  7  3  1  0
 35  9  1  0
 26 11  1  0
 34 28  1  0
 24 15  1  0
 24 19  1  0
M  END
>  <template_ligand>  (119) 
mol-218

>  <template_receptor>  (119) 
receptors/receptor-218.pdb

>  <SMILES>  (119) 
CCn1nccc1CN1CC2(C(=O)N(c3cncc4ccccc34)CC2C)c2cc(F)ccc2C1=O

>  <LABEL>  (119) 
SARS-CoV-2 Mpro

$$$$
ligand_57
     RDKit          3D

 35 40  0  0  0  0  0  0  0  0999 V2000
    8.3733   -2.9124   23.5802 C   0  0  0  0  0  0  0  0  0  0  0  0
    8.4175   -1.9079   22.4345 C   0  0  1  0  0  0  0  0  0  0  0  0
    7.0823   -1.7283   21.6999 C   0  0  0  0  0  0  0  0  0  0  0  0
    7.2414   -0.4363   21.0590 N   0  0  0  0  0  0  0  0  0  0  0  0
    6.4093    0.0497   20.0138 C   0  0  0  0  0  0  0  0  0  0  0  0
    6.7334   -0.2099   18.7069 C   0  0  0  0  0  0  0  0  0  0  0  0
    6.0158    0.2136   17.6353 N   0  0  0  0  0  0  0  0  0  0  0  0
    4.9357    0.9203   17.8741 C   0  0  0  0  0  0  0  0  0  0  0  0
    4.4659    1.2474   19.1787 C   0  0  0  0  0  0  0  0  0  0  0  0
    3.2905    2.0220   19.4016 C   0  0  0  0  0  0  0  0  0  0  0  0
    2.8759    2.3035   20.6727 C   0  0  0  0  0  0  0  0  0  0  0  0
    3.6047    1.8261   21.7851 C   0  0  0  0  0  0  0  0  0  0  0  0
    4.7439    1.0798   21.5973 C   0  0  0  0  0  0  0  0  0  0  0  0
    5.2122    0.7836   20.2906 C   0  0  0  0  0  0  0  0  0  0  0  0
    8.2318    0.3427   21.6270 C   0  0  0  0  0  0  0  0  0  0  0  0
    8.5286    1.4510   21.2457 O   0  0  0  0  0  0  0  0  0  0  0  0
    8.8481   -0.4624   22.8028 C   0  0  1  0  0  0  0  0  0  0  0  0
    8.2056    0.0020   24.1385 C   0  0  0  0  0  0  0  0  0  0  0  0
    8.5367    1.3774   24.4411 N   0  0  0  0  0  0  0  0  0  0  0  0
    7.6027    2.1744   25.2142 C   0  0  0  0  0  0  0  0  0  0  0  0
    7.0530    3.3615   24.4606 C   0  0  0  0  0  0  0  0  0  0  0  0
    6.9114    4.5934   25.0859 C   0  0  0  0  0  0  0  0  0  0  0  0
    6.3879    5.6246   24.3242 C   0  0  0  0  0  0  0  0  0  0  0  0
    6.0260    5.4650   23.0525 N   0  0  0  0  0  0  0  0  0  0  0  0
    6.1950    4.2418   22.5619 C   0  0  0  0  0  0  0  0  0  0  0  0
    6.6761    3.1727   23.1986 N   0  0  0  0  0  0  0  0  0  0  0  0
    9.7906    1.8848   24.2447 C   0  0  0  0  0  0  0  0  0  0  0  0
   10.0996    3.0053   24.6189 O   0  0  0  0  0  0  0  0  0  0  0  0
   10.7675    0.9707   23.5577 C   0  0  0  0  0  0  0  0  0  0  0  0
   12.1196    1.3207   23.5611 C   0  0  0  0  0  0  0  0  0  0  0  0
   13.0593    0.5207   22.9389 C   0  0  0  0  0  0  0  0  0  0  0  0
   12.6158   -0.6462   22.3223 C   0  0  0  0  0  0  0  0  0  0  0  0
   13.5123   -1.4333   21.7032 F   0  0  0  0  0  0  0  0  0  0  0  0
   11.2885   -1.0217   22.3038 C   0  0  0  0  0  0  0  0  0  0  0  0
   10.3342   -0.2025   22.9168 C   0  0  0  0  0  0  0  0  0  0  0  0
  2  1  1  1
  2  3  1  0
  3  4  1  0
  4  5  1  0
  5  6  2  0
  6  7  1  0
  7  8  2  0
  8  9  1  0
  9 10  2  0
 10 11  1  0
 11 12  2  0
 12 13  1  0
 13 14  2  0
  4 15  1  0
 15 16  2  0
 15 17  1  0
 17 18  1  1
 18 19  1  0
 19 20  1  0
 20 21  1  0
 21 22  2  0
 22 23  1  0
 23 24  2  0
 24 25  1  0
 25 26  2  0
 19 27  1  0
 27 28  2  0
 27 29  1  0
 29 30  2  0
 30 31  1  0
 31 32  2  0
 32 33  1  0
 32 34  1  0
 34 35  2  0
 17  2  1  0
 26 21  1  0
 35 29  1  0
 14  5  1  0
 35 17  1  0
 14  9  1  0
M  END
>  <template_ligand>  (120) 
mol-218

>  <template_receptor>  (120) 
receptors/receptor-218.pdb

>  <SMILES>  (120) 
CC1CN(c2cncc3ccccc23)C(=O)C12CN(Cc1ccncn1)C(=O)c1ccc(F)cc12

>  <LABEL>  (120) 
MERS-CoV Mpro

$$$$
ligand_60
     RDKit          3D

 22 25  0  0  0  0  0  0  0  0999 V2000
   -9.5461   -0.2736  -21.0249 O   0  0  0  0  0  0  0  0  0  0  0  0
   -8.6660   -0.5036  -21.8324 C   0  0  0  0  0  0  0  0  0  0  0  0
   -7.3691    0.2708  -21.7641 C   0  0  0  0  0  0  0  0  0  0  0  0
   -6.5388   -0.0540  -20.5546 C   0  0  0  0  0  0  0  0  0  0  0  0
   -7.0991   -0.3628  -19.3370 C   0  0  0  0  0  0  0  0  0  0  0  0
   -6.4118   -0.4104  -18.1622 N   0  0  0  0  0  0  0  0  0  0  0  0
   -5.1430   -0.0904  -18.2182 C   0  0  0  0  0  0  0  0  0  0  0  0
   -4.4535    0.2907  -19.4002 C   0  0  0  0  0  0  0  0  0  0  0  0
   -3.1384    0.8098  -19.3742 C   0  0  0  0  0  0  0  0  0  0  0  0
   -2.4589    1.0508  -20.5344 C   0  0  0  0  0  0  0  0  0  0  0  0
   -3.0821    0.7893  -21.7783 C   0  0  0  0  0  0  0  0  0  0  0  0
   -4.3953    0.3894  -21.8252 C   0  0  0  0  0  0  0  0  0  0  0  0
   -5.1351    0.1915  -20.6271 C   0  0  0  0  0  0  0  0  0  0  0  0
   -8.7963   -1.4601  -22.8315 N   0  0  0  0  0  0  0  0  0  0  0  0
   -8.1970   -1.1963  -24.1485 C   0  0  0  0  0  0  0  0  0  0  0  0
   -8.7647    0.1048  -24.7295 C   0  0  0  0  0  0  0  0  0  0  0  0
  -10.2449    0.2687  -24.3483 C   0  0  0  0  0  0  0  0  0  0  0  0
  -10.5172    1.3800  -23.2948 C   0  0  0  0  0  0  0  0  0  0  0  0
  -11.0533    2.3221  -24.3872 C   0  0  0  0  0  0  0  0  0  0  0  0
  -11.0019    1.1295  -25.3700 C   0  0  0  0  0  0  0  0  0  0  0  0
  -10.9306   -1.0752  -24.0395 C   0  0  0  0  0  0  0  0  0  0  0  0
  -10.1650   -1.9508  -23.0152 C   0  0  0  0  0  0  0  0  0  0  0  0
  1  2  2  0
  2  3  1  0
  3  4  1  0
  4  5  2  0
  5  6  1  0
  6  7  2  0
  7  8  1  0
  8  9  2  0
  9 10  1  0
 10 11  2  0
 11 12  1  0
 12 13  2  0
  2 14  1  0
 14 15  1  0
 15 16  1  0
 16 17  1  0
 17 18  1  0
 18 19  1  0
 19 20  1  0
 17 21  1  0
 21 22  1  0
 13  4  1  0
 22 14  1  0
 13  8  1  0
 20 17  1  0
M  END
>  <template_ligand>  (121) 
mol-100

>  <template_receptor>  (121) 
receptors/receptor-100.pdb

>  <SMILES>  (121) 
O=C(Cc1cncc2ccccc12)N1CCC2(CCC2)CC1

>  <LABEL>  (121) 
SARS-CoV-2 Mpro

$$$$
ligand_61
     RDKit          3D

 22 25  0  0  0  0  0  0  0  0999 V2000
   -9.2827   -0.3881  -21.0348 O   0  0  0  0  0  0  0  0  0  0  0  0
   -8.5906   -0.9882  -21.8386 C   0  0  0  0  0  0  0  0  0  0  0  0
   -7.2607   -1.6160  -21.4094 C   0  0  0  0  0  0  0  0  0  0  0  0
   -6.5125   -0.9138  -20.3048 C   0  0  0  0  0  0  0  0  0  0  0  0
   -6.9238   -1.0218  -18.9980 C   0  0  0  0  0  0  0  0  0  0  0  0
   -6.3082   -0.4569  -17.9225 N   0  0  0  0  0  0  0  0  0  0  0  0
   -5.2020    0.2036  -18.1651 C   0  0  0  0  0  0  0  0  0  0  0  0
   -4.6264    0.3607  -19.4522 C   0  0  0  0  0  0  0  0  0  0  0  0
   -3.4063    1.0550  -19.6455 C   0  0  0  0  0  0  0  0  0  0  0  0
   -2.9222    1.2696  -20.9046 C   0  0  0  0  0  0  0  0  0  0  0  0
   -3.6344    0.7767  -22.0192 C   0  0  0  0  0  0  0  0  0  0  0  0
   -4.8013    0.0682  -21.8557 C   0  0  0  0  0  0  0  0  0  0  0  0
   -5.3232   -0.1735  -20.5608 C   0  0  0  0  0  0  0  0  0  0  0  0
   -9.0424   -1.2533  -23.1301 N   0  0  0  0  0  0  0  0  0  0  0  0
   -8.3681   -0.8981  -24.3730 C   0  0  0  0  0  0  0  0  0  0  0  0
   -8.9006    0.4371  -24.9240 C   0  0  0  0  0  0  0  0  0  0  0  0
  -10.4377    0.5764  -24.7432 C   0  0  0  0  0  0  0  0  0  0  0  0
  -10.7542    1.6042  -23.6644 C   0  0  0  0  0  0  0  0  0  0  0  0
  -11.7846    2.6682  -23.8959 C   0  0  0  0  0  0  0  0  0  0  0  0
  -10.3202    3.0328  -23.8145 C   0  0  0  0  0  0  0  0  0  0  0  0
  -11.1049   -0.7791  -24.4337 C   0  0  0  0  0  0  0  0  0  0  0  0
  -10.4679   -1.5334  -23.2584 C   0  0  0  0  0  0  0  0  0  0  0  0
  1  2  2  0
  2  3  1  0
  3  4  1  0
  4  5  2  0
  5  6  1  0
  6  7  2  0
  7  8  1  0
  8  9  2  0
  9 10  1  0
 10 11  2  0
 11 12  1  0
 12 13  2  0
  2 14  1  0
 14 15  1  0
 15 16  1  0
 16 17  1  0
 17 18  1  0
 18 19  1  0
 19 20  1  0
 17 21  1  0
 21 22  1  0
 13  4  1  0
 22 14  1  0
 13  8  1  0
 20 18  1  0
M  END
>  <template_ligand>  (122) 
mol-100

>  <template_receptor>  (122) 
receptors/receptor-100.pdb

>  <SMILES>  (122) 
O=C(Cc1cncc2ccccc12)N1CCC(C2CC2)CC1

>  <LABEL>  (122) 
SARS-CoV-2 Mpro

$$$$
ligand_62
     RDKit          3D

 34 38  0  0  0  0  0  0  0  0999 V2000
   -7.0481    3.5968  -22.7358 C   0  0  0  0  0  0  0  0  0  0  0  0
   -7.7860    2.6136  -23.4978 N   0  0  0  0  0  0  0  0  0  0  0  0
   -7.4498    2.3559  -24.7793 C   0  0  0  0  0  0  0  0  0  0  0  0
   -6.6058    2.9907  -25.3961 O   0  0  0  0  0  0  0  0  0  0  0  0
   -8.1499    1.1786  -25.4663 C   0  0  0  0  0  0  0  0  0  0  0  0
   -8.9986    0.3445  -24.6405 N   0  0  0  0  0  0  0  0  0  0  0  0
   -8.5565   -0.9996  -24.3234 C   0  0  0  0  0  0  0  0  0  0  0  0
   -9.1455   -1.4916  -22.9757 C   0  0  2  0  0  0  0  0  0  0  0  0
   -8.5820   -0.6230  -21.8217 C   0  0  0  0  0  0  0  0  0  0  0  0
   -8.9588    0.4781  -21.4713 O   0  0  0  0  0  0  0  0  0  0  0  0
   -7.5334   -1.3088  -21.2448 N   0  0  0  0  0  0  0  0  0  0  0  0
   -6.7307   -0.7335  -20.2220 C   0  0  0  0  0  0  0  0  0  0  0  0
   -7.0156   -0.9983  -18.9073 C   0  0  0  0  0  0  0  0  0  0  0  0
   -6.3232   -0.5011  -17.8509 N   0  0  0  0  0  0  0  0  0  0  0  0
   -5.3054    0.2869  -18.1128 C   0  0  0  0  0  0  0  0  0  0  0  0
   -4.8772    0.6267  -19.4298 C   0  0  0  0  0  0  0  0  0  0  0  0
   -3.7701    1.4880  -19.6755 C   0  0  0  0  0  0  0  0  0  0  0  0
   -3.3926    1.7807  -20.9590 C   0  0  0  0  0  0  0  0  0  0  0  0
   -4.0916    1.2274  -22.0580 C   0  0  0  0  0  0  0  0  0  0  0  0
   -5.1724    0.4075  -21.8467 C   0  0  0  0  0  0  0  0  0  0  0  0
   -5.6012    0.0923  -20.5261 C   0  0  0  0  0  0  0  0  0  0  0  0
   -7.2672   -2.5960  -21.8678 C   0  0  0  0  0  0  0  0  0  0  0  0
   -8.5934   -2.8861  -22.5869 C   0  0  2  0  0  0  0  0  0  0  0  0
   -8.5008   -3.9156  -23.7082 C   0  0  0  0  0  0  0  0  0  0  0  0
   -8.1446   -5.2004  -23.2401 O   0  0  0  0  0  0  0  0  0  0  0  0
  -10.6498   -1.3595  -23.0725 C   0  0  0  0  0  0  0  0  0  0  0  0
  -11.5288   -2.2393  -22.4289 C   0  0  0  0  0  0  0  0  0  0  0  0
  -12.8881   -1.9790  -22.4278 C   0  0  0  0  0  0  0  0  0  0  0  0
  -13.9471   -3.0624  -21.5688 Cl  0  0  0  0  0  0  0  0  0  0  0  0
  -13.4219   -0.8603  -23.0712 C   0  0  0  0  0  0  0  0  0  0  0  0
  -12.5583    0.0016  -23.7242 C   0  0  0  0  0  0  0  0  0  0  0  0
  -11.1836   -0.2408  -23.7339 C   0  0  0  0  0  0  0  0  0  0  0  0
  -10.2959    0.7346  -24.4539 C   0  0  0  0  0  0  0  0  0  0  0  0
  -10.6904    1.8284  -24.8359 O   0  0  0  0  0  0  0  0  0  0  0  0
  1  2  1  0
  2  3  1  0
  3  4  2  0
  3  5  1  0
  5  6  1  0
  6  7  1  0
  8  7  1  6
  8  9  1  0
  9 10  2  0
  9 11  1  0
 11 12  1  0
 12 13  2  0
 13 14  1  0
 14 15  2  0
 15 16  1  0
 16 17  2  0
 17 18  1  0
 18 19  2  0
 19 20  1  0
 20 21  2  0
 11 22  1  0
 22 23  1  0
 23 24  1  6
 24 25  1  0
  8 26  1  0
 26 27  2  0
 27 28  1  0
 28 29  1  0
 28 30  2  0
 30 31  1  0
 31 32  2  0
 32 33  1  0
 33 34  2  0
 33  6  1  0
 23  8  1  0
 32 26  1  0
 21 12  1  0
 21 16  1  0
M  END
>  <template_ligand>  (123) 
mol-218

>  <template_receptor>  (123) 
receptors/receptor-218.pdb

>  <SMILES>  (123) 
CNC(=O)CN1CC2(C(=O)N(c3cncc4ccccc34)CC2CO)c2cc(Cl)ccc2C1=O

>  <LABEL>  (123) 
SARS-CoV-2 Mpro

$$$$
ligand_58
     RDKit          3D

 36 41  0  0  0  0  0  0  0  0999 V2000
    9.0727   -4.8714   24.4145 C   0  0  0  0  0  0  0  0  0  0  0  0
    9.0186   -3.9681   23.3410 O   0  0  0  0  0  0  0  0  0  0  0  0
    9.1711   -2.6380   23.7683 C   0  0  0  0  0  0  0  0  0  0  0  0
    9.0773   -1.7288   22.5551 C   0  0  1  0  0  0  0  0  0  0  0  0
    7.6726   -1.6591   21.9192 C   0  0  0  0  0  0  0  0  0  0  0  0
    7.7324   -0.3943   21.1996 N   0  0  0  0  0  0  0  0  0  0  0  0
    6.8585   -0.0061   20.1529 C   0  0  0  0  0  0  0  0  0  0  0  0
    7.1879   -0.2831   18.8506 C   0  0  0  0  0  0  0  0  0  0  0  0
    6.4272    0.0523   17.7771 N   0  0  0  0  0  0  0  0  0  0  0  0
    5.3076    0.6951   18.0139 C   0  0  0  0  0  0  0  0  0  0  0  0
    4.8455    1.0526   19.3138 C   0  0  0  0  0  0  0  0  0  0  0  0
    3.6404    1.7782   19.5176 C   0  0  0  0  0  0  0  0  0  0  0  0
    3.2444    2.1309   20.7775 C   0  0  0  0  0  0  0  0  0  0  0  0
    4.0326    1.7764   21.8954 C   0  0  0  0  0  0  0  0  0  0  0  0
    5.1991    1.0695   21.7258 C   0  0  0  0  0  0  0  0  0  0  0  0
    5.6382    0.6931   20.4283 C   0  0  0  0  0  0  0  0  0  0  0  0
    8.8315    0.3790   21.5231 C   0  0  0  0  0  0  0  0  0  0  0  0
    9.1934    1.3553   20.8986 O   0  0  0  0  0  0  0  0  0  0  0  0
    9.4800   -0.2436   22.7862 C   0  0  1  0  0  0  0  0  0  0  0  0
    8.8221    0.3054   24.0872 C   0  0  0  0  0  0  0  0  0  0  0  0
    9.2250    1.6623   24.3886 N   0  0  0  0  0  0  0  0  0  0  0  0
    8.2667    2.7157   24.6944 C   0  0  0  0  0  0  0  0  0  0  0  0
    8.1110    3.6905   23.5675 C   0  0  0  0  0  0  0  0  0  0  0  0
    7.0844    3.6945   22.7444 N   0  0  0  0  0  0  0  0  0  0  0  0
    7.3355    4.7286   21.8785 C   0  0  0  0  0  0  0  0  0  0  0  0
    8.4925    5.3800   22.2139 C   0  0  0  0  0  0  0  0  0  0  0  0
    8.9947    4.6820   23.2792 N   0  0  0  0  0  0  0  0  0  0  0  0
   10.5401    2.0102   24.3840 C   0  0  0  0  0  0  0  0  0  0  0  0
   10.9215    3.0763   24.8681 O   0  0  0  0  0  0  0  0  0  0  0  0
   11.4647    1.0735   23.6728 C   0  0  0  0  0  0  0  0  0  0  0  0
   12.8324    1.3475   23.7178 C   0  0  0  0  0  0  0  0  0  0  0  0
   13.7071    0.6904   22.8730 C   0  0  0  0  0  0  0  0  0  0  0  0
   13.1905   -0.2577   21.9884 C   0  0  0  0  0  0  0  0  0  0  0  0
   14.2581   -1.0215   20.8476 Cl  0  0  0  0  0  0  0  0  0  0  0  0
   11.8469   -0.5848   21.9735 C   0  0  0  0  0  0  0  0  0  0  0  0
   10.9614    0.0536   22.8504 C   0  0  0  0  0  0  0  0  0  0  0  0
  1  2  1  0
  2  3  1  0
  4  3  1  1
  4  5  1  0
  5  6  1  0
  6  7  1  0
  7  8  2  0
  8  9  1  0
  9 10  2  0
 10 11  1  0
 11 12  2  0
 12 13  1  0
 13 14  2  0
 14 15  1  0
 15 16  2  0
  6 17  1  0
 17 18  2  0
 17 19  1  0
 19 20  1  1
 20 21  1  0
 21 22  1  0
 22 23  1  0
 23 24  2  0
 24 25  1  0
 25 26  2  0
 26 27  1  0
 21 28  1  0
 28 29  2  0
 28 30  1  0
 30 31  2  0
 31 32  1  0
 32 33  2  0
 33 34  1  0
 33 35  1  0
 35 36  2  0
 19  4  1  0
 27 23  1  0
 36 30  1  0
 16  7  1  0
 36 19  1  0
 16 11  1  0
M  END
>  <template_ligand>  (124) 
mol-246

>  <template_receptor>  (124) 
receptors/receptor-246.pdb

>  <SMILES>  (124) 
COCC1CN(c2cncc3ccccc23)C(=O)C12CN(Cc1ncc[nH]1)C(=O)c1ccc(Cl)cc12

>  <LABEL>  (124) 
MERS-CoV Mpro

$$$$

     RDKit          3D

 22 25  0  0  0  0  0  0  0  0999 V2000
    5.3242   -1.8081   22.1240 O   0  0  0  0  0  0  0  0  0  0  0  0
    6.4914   -1.4662   22.0555 C   0  0  0  0  0  0  0  0  0  0  0  0
    6.9027   -0.3589   21.0565 C   0  0  0  0  0  0  0  0  0  0  0  0
    5.8699   -0.1738   19.9708 C   0  0  0  0  0  0  0  0  0  0  0  0
    6.0295   -0.8077   18.7673 C   0  0  0  0  0  0  0  0  0  0  0  0
    5.2145   -0.6835   17.6873 N   0  0  0  0  0  0  0  0  0  0  0  0
    4.1585    0.0818   17.8284 C   0  0  0  0  0  0  0  0  0  0  0  0
    3.8176    0.7421   19.0416 C   0  0  0  0  0  0  0  0  0  0  0  0
    2.6281    1.5027   19.1720 C   0  0  0  0  0  0  0  0  0  0  0  0
    2.3162    2.1241   20.3506 C   0  0  0  0  0  0  0  0  0  0  0  0
    3.1911    2.0157   21.4519 C   0  0  0  0  0  0  0  0  0  0  0  0
    4.3509    1.2834   21.3531 C   0  0  0  0  0  0  0  0  0  0  0  0
    4.6936    0.6177   20.1458 C   0  0  0  0  0  0  0  0  0  0  0  0
    7.4672   -2.0571   22.8297 N   0  0  0  0  0  0  0  0  0  0  0  0
    7.2395   -3.3969   23.3783 C   0  0  0  0  0  0  0  0  0  0  0  0
    7.6139   -3.4705   24.8563 C   0  0  0  0  0  0  0  0  0  0  0  0
    8.9623   -2.8563   25.0686 C   0  0  0  0  0  0  0  0  0  0  0  0
    9.9880   -3.1506   26.4331 S   0  0  0  0  0  0  0  0  0  0  0  0
   11.1577   -2.0263   25.8431 C   0  0  0  0  0  0  0  0  0  0  0  0
   10.7751   -1.4659   24.6596 C   0  0  0  0  0  0  0  0  0  0  0  0
    9.5069   -1.9504   24.2141 C   0  0  0  0  0  0  0  0  0  0  0  0
    8.8148   -1.5203   22.9475 C   0  0  0  0  0  0  0  0  0  0  0  0
  1  2  2  0
  2  3  1  0
  3  4  1  0
  4  5  2  0
  5  6  1  0
  6  7  2  0
  7  8  1  0
  8  9  2  0
  9 10  1  0
 10 11  2  0
 11 12  1  0
 12 13  2  0
  2 14  1  0
 14 15  1  0
 15 16  1  0
 16 17  1  0
 17 18  1  0
 18 19  1  0
 19 20  2  0
 20 21  1  0
 21 22  1  0
 13  4  1  0
 22 14  1  0
 13  8  1  0
 21 17  2  0
M  END
>  <cnnaffinities>  (125) 
[5.09864, 5.09269, 5.05003, 5.10686, 5.23147]

>  <score>  (125) 
5.09864

>  <index>  (125) 
50

>  <Smiles>  (125) 
O=C(C(c1c(nc(c2c(c(c(c(c12)[H])[H])[H])[H])[H])[H])([H])[H])N1C(C(c2sc(c(c2C1([H])[H])[H])[H])([H])[H])([H])[H]

>  <h>  (125) 
<NA>

>  <Training>  (125) 
True

>  <Success>  (125) 
True

>  <enamine_searched>  (125) 
False

>  <enamine_id>  (125) 
nan

>  <SMILES>  (125) 
O=C(Cc1cncc2ccccc12)N1CCc2sccc2C1

>  <LABEL>  (125) 
MERS-CoV Mpro

$$$$
ligand_63
     RDKit          3D

 34 39  0  0  0  0  0  0  0  0999 V2000
   -8.4801   -3.9143  -23.7112 C   0  0  0  0  0  0  0  0  0  0  0  0
   -8.5923   -2.8993  -22.5817 C   0  0  1  0  0  0  0  0  0  0  0  0
   -7.2704   -2.5942  -21.8671 C   0  0  0  0  0  0  0  0  0  0  0  0
   -7.5251   -1.3064  -21.2480 N   0  0  0  0  0  0  0  0  0  0  0  0
   -6.7248   -0.7388  -20.2214 C   0  0  0  0  0  0  0  0  0  0  0  0
   -7.0126   -1.0009  -18.9047 C   0  0  0  0  0  0  0  0  0  0  0  0
   -6.3231   -0.4994  -17.8496 N   0  0  0  0  0  0  0  0  0  0  0  0
   -5.3031    0.2884  -18.1097 C   0  0  0  0  0  0  0  0  0  0  0  0
   -4.8754    0.6244  -19.4284 C   0  0  0  0  0  0  0  0  0  0  0  0
   -3.7711    1.4893  -19.6762 C   0  0  0  0  0  0  0  0  0  0  0  0
   -3.3976    1.7845  -20.9604 C   0  0  0  0  0  0  0  0  0  0  0  0
   -4.0966    1.2275  -22.0530 C   0  0  0  0  0  0  0  0  0  0  0  0
   -5.1708    0.3964  -21.8430 C   0  0  0  0  0  0  0  0  0  0  0  0
   -5.5928    0.0841  -20.5211 C   0  0  0  0  0  0  0  0  0  0  0  0
   -8.5828   -0.6227  -21.8188 C   0  0  0  0  0  0  0  0  0  0  0  0
   -8.9696    0.4636  -21.4607 O   0  0  0  0  0  0  0  0  0  0  0  0
   -9.1433   -1.5005  -22.9717 C   0  0  1  0  0  0  0  0  0  0  0  0
   -8.5513   -1.0072  -24.3207 C   0  0  0  0  0  0  0  0  0  0  0  0
   -8.9916    0.3372  -24.6441 N   0  0  0  0  0  0  0  0  0  0  0  0
   -8.1370    1.1906  -25.4456 C   0  0  0  0  0  0  0  0  0  0  0  0
   -7.6338    2.3775  -24.6847 C   0  0  0  0  0  0  0  0  0  0  0  0
   -7.5072    3.6110  -25.2350 N   0  0  0  0  0  0  0  0  0  0  0  0
   -6.9926    4.3275  -24.2557 C   0  0  0  0  0  0  0  0  0  0  0  0
   -6.8099    3.5395  -23.1855 N   0  0  0  0  0  0  0  0  0  0  0  0
   -7.2054    2.2801  -23.4325 N   0  0  0  0  0  0  0  0  0  0  0  0
  -10.2825    0.7428  -24.4386 C   0  0  0  0  0  0  0  0  0  0  0  0
  -10.6925    1.8287  -24.8269 O   0  0  0  0  0  0  0  0  0  0  0  0
  -11.1788   -0.2371  -23.7292 C   0  0  0  0  0  0  0  0  0  0  0  0
  -12.5572    0.0016  -23.7217 C   0  0  0  0  0  0  0  0  0  0  0  0
  -13.4195   -0.8607  -23.0729 C   0  0  0  0  0  0  0  0  0  0  0  0
  -12.8783   -1.9743  -22.4431 C   0  0  0  0  0  0  0  0  0  0  0  0
  -13.6985   -2.8207  -21.7994 F   0  0  0  0  0  0  0  0  0  0  0  0
  -11.5246   -2.2428  -22.4332 C   0  0  0  0  0  0  0  0  0  0  0  0
  -10.6479   -1.3605  -23.0724 C   0  0  0  0  0  0  0  0  0  0  0  0
  2  1  1  6
  2  3  1  0
  3  4  1  0
  4  5  1  0
  5  6  2  0
  6  7  1  0
  7  8  2  0
  8  9  1  0
  9 10  2  0
 10 11  1  0
 11 12  2  0
 12 13  1  0
 13 14  2  0
  4 15  1  0
 15 16  2  0
 15 17  1  0
 17 18  1  6
 18 19  1  0
 19 20  1  0
 20 21  1  0
 21 22  1  0
 22 23  2  0
 23 24  1  0
 24 25  1  0
 19 26  1  0
 26 27  2  0
 26 28  1  0
 28 29  2  0
 29 30  1  0
 30 31  2  0
 31 32  1  0
 31 33  1  0
 33 34  2  0
 17  2  1  0
 25 21  2  0
 34 28  1  0
 14  5  1  0
 34 17  1  0
 14  9  1  0
M  END
>  <template_ligand>  (126) 
mol-218

>  <template_receptor>  (126) 
receptors/receptor-218.pdb

>  <SMILES>  (126) 
CC1CN(c2cncc3ccccc23)C(=O)C12CN(Cc1nc[nH]n1)C(=O)c1ccc(F)cc12

>  <LABEL>  (126) 
SARS-CoV-2 Mpro

$$$$
ligand_60
     RDKit          3D

 41 47  0  0  0  0  0  0  0  0999 V2000
   11.0224    2.7979   25.3191 O   0  0  0  0  0  0  0  0  0  0  0  0
   10.5848    1.9122   24.5993 C   0  0  0  0  0  0  0  0  0  0  0  0
   11.4647    1.0580   23.7403 C   0  0  0  0  0  0  0  0  0  0  0  0
   12.8223    1.3757   23.7176 C   0  0  0  0  0  0  0  0  0  0  0  0
   13.6747    0.7425   22.8344 C   0  0  0  0  0  0  0  0  0  0  0  0
   13.1430   -0.2205   21.9762 C   0  0  0  0  0  0  0  0  0  0  0  0
   14.1988   -1.0214   20.8433 Cl  0  0  0  0  0  0  0  0  0  0  0  0
   11.7984   -0.5433   21.9837 C   0  0  0  0  0  0  0  0  0  0  0  0
   10.9298    0.0755   22.8914 C   0  0  0  0  0  0  0  0  0  0  0  0
    9.4494   -0.2255   22.8307 C   0  0  1  0  0  0  0  0  0  0  0  0
    8.7990    0.3197   24.1205 C   0  0  0  0  0  0  0  0  0  0  0  0
    9.2486    1.6605   24.4395 N   0  0  0  0  0  0  0  0  0  0  0  0
    8.3049    2.7494   24.6335 C   0  0  0  0  0  0  0  0  0  0  0  0
    8.4062    3.8893   23.6286 C   0  0  0  0  0  0  0  0  0  0  0  0
    7.6397    3.9736   22.4801 C   0  0  0  0  0  0  0  0  0  0  0  0
    7.7467    5.1289   21.7054 C   0  0  0  0  0  0  0  0  0  0  0  0
    8.5528    6.1411   22.0165 N   0  0  0  0  0  0  0  0  0  0  0  0
    9.3309    6.0458   23.0852 N   0  0  0  0  0  0  0  0  0  0  0  0
    9.2752    4.9637   23.8564 C   0  0  0  0  0  0  0  0  0  0  0  0
    8.7995    0.4066   21.5740 C   0  0  0  0  0  0  0  0  0  0  0  0
    9.1420    1.3944   20.9663 O   0  0  0  0  0  0  0  0  0  0  0  0
    7.7224   -0.3841   21.2292 N   0  0  0  0  0  0  0  0  0  0  0  0
    6.8560    0.0064   20.1833 C   0  0  0  0  0  0  0  0  0  0  0  0
    7.1801   -0.2830   18.8819 C   0  0  0  0  0  0  0  0  0  0  0  0
    6.4223    0.0581   17.8088 N   0  0  0  0  0  0  0  0  0  0  0  0
    5.3117    0.7145   18.0512 C   0  0  0  0  0  0  0  0  0  0  0  0
    4.8667    1.0886   19.3527 C   0  0  0  0  0  0  0  0  0  0  0  0
    3.6598    1.8057   19.5543 C   0  0  0  0  0  0  0  0  0  0  0  0
    3.2512    2.1460   20.8142 C   0  0  0  0  0  0  0  0  0  0  0  0
    4.0302    1.7879   21.9353 C   0  0  0  0  0  0  0  0  0  0  0  0
    5.2075    1.0977   21.7683 C   0  0  0  0  0  0  0  0  0  0  0  0
    5.6556    0.7285   20.4670 C   0  0  0  0  0  0  0  0  0  0  0  0
    7.6659   -1.6495   21.9315 C   0  0  0  0  0  0  0  0  0  0  0  0
    9.0588   -1.7136   22.5789 C   0  0  2  0  0  0  0  0  0  0  0  0
    9.1395   -2.6800   23.7659 C   0  0  0  0  0  0  0  0  0  0  0  0
    8.9983   -4.0679   23.3678 N   0  0  0  0  0  0  0  0  0  0  0  0
    7.7986   -4.6949   23.3186 C   0  0  0  0  0  0  0  0  0  0  0  0
    6.6766   -4.1711   23.7409 N   0  0  0  0  0  0  0  0  0  0  0  0
    5.6125   -5.0163   23.5846 N   0  0  0  0  0  0  0  0  0  0  0  0
    5.9375   -6.1442   23.0540 C   0  0  0  0  0  0  0  0  0  0  0  0
    7.6209   -6.3076   22.6788 S   0  0  0  0  0  0  0  0  0  0  0  0
  1  2  2  0
  2  3  1  0
  3  4  2  0
  4  5  1  0
  5  6  2  0
  6  7  1  0
  6  8  1  0
  8  9  2  0
  9 10  1  0
 10 11  1  1
 11 12  1  0
 12 13  1  0
 13 14  1  0
 14 15  2  0
 15 16  1  0
 16 17  2  0
 17 18  1  0
 18 19  2  0
 10 20  1  0
 20 21  2  0
 20 22  1  0
 22 23  1  0
 23 24  2  0
 24 25  1  0
 25 26  2  0
 26 27  1  0
 27 28  2  0
 28 29  1  0
 29 30  2  0
 30 31  1  0
 31 32  2  0
 22 33  1  0
 33 34  1  0
 34 35  1  1
 35 36  1  0
 36 37  1  0
 37 38  2  0
 38 39  1  0
 39 40  2  0
 40 41  1  0
 12  2  1  0
 19 14  1  0
 32 23  1  0
 41 37  1  0
  9  3  1  0
 34 10  1  0
 32 27  1  0
M  END
>  <template_ligand>  (127) 
mol-246

>  <template_receptor>  (127) 
receptors/receptor-246.pdb

>  <SMILES>  (127) 
O=C1c2ccc(Cl)cc2C2(CN1Cc1ccnnc1)C(=O)N(c1cncc3ccccc13)CC2CNc1nncs1

>  <LABEL>  (127) 
MERS-CoV Mpro

$$$$
ligand_64
     RDKit          3D

 34 39  0  0  0  0  0  0  0  0999 V2000
   -8.4799   -3.9130  -23.7088 C   0  0  0  0  0  0  0  0  0  0  0  0
   -8.5896   -2.8964  -22.5828 C   0  0  1  0  0  0  0  0  0  0  0  0
   -7.2695   -2.5924  -21.8660 C   0  0  0  0  0  0  0  0  0  0  0  0
   -7.5313   -1.3076  -21.2443 N   0  0  0  0  0  0  0  0  0  0  0  0
   -6.7295   -0.7342  -20.2237 C   0  0  0  0  0  0  0  0  0  0  0  0
   -7.0133   -0.9993  -18.9079 C   0  0  0  0  0  0  0  0  0  0  0  0
   -6.3231   -0.5006  -17.8521 N   0  0  0  0  0  0  0  0  0  0  0  0
   -5.3040    0.2882  -18.1121 C   0  0  0  0  0  0  0  0  0  0  0  0
   -4.8766    0.6241  -19.4300 C   0  0  0  0  0  0  0  0  0  0  0  0
   -3.7702    1.4881  -19.6753 C   0  0  0  0  0  0  0  0  0  0  0  0
   -3.3940    1.7826  -20.9587 C   0  0  0  0  0  0  0  0  0  0  0  0
   -4.0905    1.2231  -22.0556 C   0  0  0  0  0  0  0  0  0  0  0  0
   -5.1719    0.4040  -21.8475 C   0  0  0  0  0  0  0  0  0  0  0  0
   -5.5963    0.0888  -20.5268 C   0  0  0  0  0  0  0  0  0  0  0  0
   -8.5823   -0.6242  -21.8193 C   0  0  0  0  0  0  0  0  0  0  0  0
   -8.9575    0.4723  -21.4671 O   0  0  0  0  0  0  0  0  0  0  0  0
   -9.1435   -1.4977  -22.9730 C   0  0  1  0  0  0  0  0  0  0  0  0
   -8.5567   -1.0027  -24.3221 C   0  0  0  0  0  0  0  0  0  0  0  0
   -9.0099    0.3331  -24.6667 N   0  0  0  0  0  0  0  0  0  0  0  0
   -8.1297    1.1654  -25.4641 C   0  0  0  0  0  0  0  0  0  0  0  0
   -7.3494    2.1438  -24.6518 C   0  0  0  0  0  0  0  0  0  0  0  0
   -7.7949    2.8322  -23.5808 C   0  0  0  0  0  0  0  0  0  0  0  0
   -6.7898    3.6618  -23.1767 O   0  0  0  0  0  0  0  0  0  0  0  0
   -5.7823    3.4110  -24.0336 C   0  0  0  0  0  0  0  0  0  0  0  0
   -6.0393    2.5118  -24.9257 N   0  0  0  0  0  0  0  0  0  0  0  0
  -10.2949    0.7443  -24.4472 C   0  0  0  0  0  0  0  0  0  0  0  0
  -10.7002    1.8381  -24.8205 O   0  0  0  0  0  0  0  0  0  0  0  0
  -11.1832   -0.2386  -23.7285 C   0  0  0  0  0  0  0  0  0  0  0  0
  -12.5602    0.0005  -23.7206 C   0  0  0  0  0  0  0  0  0  0  0  0
  -13.4244   -0.8613  -23.0737 C   0  0  0  0  0  0  0  0  0  0  0  0
  -12.8792   -1.9743  -22.4445 C   0  0  0  0  0  0  0  0  0  0  0  0
  -13.6986   -2.8205  -21.7999 F   0  0  0  0  0  0  0  0  0  0  0  0
  -11.5250   -2.2428  -22.4312 C   0  0  0  0  0  0  0  0  0  0  0  0
  -10.6485   -1.3608  -23.0712 C   0  0  0  0  0  0  0  0  0  0  0  0
  2  1  1  6
  2  3  1  0
  3  4  1  0
  4  5  1  0
  5  6  2  0
  6  7  1  0
  7  8  2  0
  8  9  1  0
  9 10  2  0
 10 11  1  0
 11 12  2  0
 12 13  1  0
 13 14  2  0
  4 15  1  0
 15 16  2  0
 15 17  1  0
 17 18  1  6
 18 19  1  0
 19 20  1  0
 20 21  1  0
 21 22  2  0
 22 23  1  0
 23 24  1  0
 24 25  2  0
 19 26  1  0
 26 27  2  0
 26 28  1  0
 28 29  2  0
 29 30  1  0
 30 31  2  0
 31 32  1  0
 31 33  1  0
 33 34  2  0
 17  2  1  0
 25 21  1  0
 34 28  1  0
 14  5  1  0
 34 17  1  0
 14  9  1  0
M  END
>  <template_ligand>  (128) 
mol-218

>  <template_receptor>  (128) 
receptors/receptor-218.pdb

>  <SMILES>  (128) 
CC1CN(c2cncc3ccccc23)C(=O)C12CN(Cc1cocn1)C(=O)c1ccc(F)cc12

>  <LABEL>  (128) 
SARS-CoV-2 Mpro

$$$$
ligand_61
     RDKit          3D

 38 44  0  0  0  0  0  0  0  0999 V2000
    9.1625   -2.5852   23.7888 C   0  0  0  0  0  0  0  0  0  0  0  0
    9.0508   -1.6742   22.5748 C   0  0  1  0  0  0  0  0  0  0  0  0
    7.6558   -1.6243   21.9328 C   0  0  0  0  0  0  0  0  0  0  0  0
    7.7332   -0.3955   21.1559 N   0  0  0  0  0  0  0  0  0  0  0  0
    6.8476   -0.0011   20.1260 C   0  0  0  0  0  0  0  0  0  0  0  0
    7.1697   -0.2701   18.8199 C   0  0  0  0  0  0  0  0  0  0  0  0
    6.3996    0.0716   17.7573 N   0  0  0  0  0  0  0  0  0  0  0  0
    5.2875    0.7211   18.0090 C   0  0  0  0  0  0  0  0  0  0  0  0
    4.8432    1.0833   19.3150 C   0  0  0  0  0  0  0  0  0  0  0  0
    3.6516    1.8282   19.5266 C   0  0  0  0  0  0  0  0  0  0  0  0
    3.2622    2.1697   20.7940 C   0  0  0  0  0  0  0  0  0  0  0  0
    4.0410    1.7863   21.9076 C   0  0  0  0  0  0  0  0  0  0  0  0
    5.2044    1.0721   21.7286 C   0  0  0  0  0  0  0  0  0  0  0  0
    5.6394    0.7057   20.4213 C   0  0  0  0  0  0  0  0  0  0  0  0
    8.8333    0.3802   21.4545 C   0  0  0  0  0  0  0  0  0  0  0  0
    9.2179    1.3171   20.7815 O   0  0  0  0  0  0  0  0  0  0  0  0
    9.4419   -0.1718   22.7626 C   0  0  1  0  0  0  0  0  0  0  0  0
    8.7405    0.4420   24.0159 C   0  0  0  0  0  0  0  0  0  0  0  0
    9.1856    1.7991   24.2954 N   0  0  0  0  0  0  0  0  0  0  0  0
    8.2315    2.8871   24.4291 C   0  0  0  0  0  0  0  0  0  0  0  0
    7.8734    3.4947   23.0746 C   0  0  0  0  0  0  0  0  0  0  0  0
    6.8959    4.5964   23.2104 N   0  0  2  0  0  0  0  0  0  0  0  0
    6.3638    5.1154   21.9089 C   0  0  0  0  0  0  0  0  0  0  0  0
    5.7509    6.4716   22.2435 C   0  0  0  0  0  0  0  0  0  0  0  0
    6.5179    6.9848   23.4723 C   0  0  0  0  0  0  0  0  0  0  0  0
    7.2092    8.3491   23.3339 C   0  0  0  0  0  0  0  0  0  0  0  0
    6.6341    8.8396   24.5479 O   0  0  0  0  0  0  0  0  0  0  0  0
    5.7377    7.7236   24.5806 C   0  0  0  0  0  0  0  0  0  0  0  0
    7.4065    5.8239   23.9325 C   0  0  0  0  0  0  0  0  0  0  0  0
   10.5218    2.0876   24.3927 C   0  0  0  0  0  0  0  0  0  0  0  0
   10.9614    3.0721   24.9758 O   0  0  0  0  0  0  0  0  0  0  0  0
   11.4295    1.1457   23.6590 C   0  0  0  0  0  0  0  0  0  0  0  0
   12.7991    1.4067   23.7131 C   0  0  0  0  0  0  0  0  0  0  0  0
   13.6774    0.7325   22.8883 C   0  0  0  0  0  0  0  0  0  0  0  0
   13.1599   -0.2259   22.0146 C   0  0  0  0  0  0  0  0  0  0  0  0
   14.2348   -1.0273   20.9002 Cl  0  0  0  0  0  0  0  0  0  0  0  0
   11.8106   -0.5331   21.9830 C   0  0  0  0  0  0  0  0  0  0  0  0
   10.9187    0.1366   22.8310 C   0  0  0  0  0  0  0  0  0  0  0  0
  2  1  1  1
  2  3  1  0
  3  4  1  0
  4  5  1  0
  5  6  2  0
  6  7  1  0
  7  8  2  0
  8  9  1  0
  9 10  2  0
 10 11  1  0
 11 12  2  0
 12 13  1  0
 13 14  2  0
  4 15  1  0
 15 16  2  0
 15 17  1  0
 17 18  1  1
 18 19  1  0
 19 20  1  0
 20 21  1  0
 22 21  1  6
 22 23  1  0
 23 24  1  0
 24 25  1  0
 25 26  1  0
 26 27  1  0
 27 28  1  0
 25 29  1  0
 19 30  1  0
 30 31  2  0
 30 32  1  0
 32 33  2  0
 33 34  1  0
 34 35  2  0
 35 36  1  0
 35 37  1  0
 37 38  2  0
 17  2  1  0
 29 22  1  0
 38 32  1  0
 14  5  1  0
 38 17  1  0
 14  9  1  0
 28 25  1  0
M  CHG  1  22   1
M  END
>  <template_ligand>  (129) 
mol-246

>  <template_receptor>  (129) 
receptors/receptor-246.pdb

>  <SMILES>  (129) 
CC1CN(c2cncc3ccccc23)C(=O)C12CN(CC[NH+]1CCC3(COC3)C1)C(=O)c1ccc(Cl)cc12

>  <LABEL>  (129) 
MERS-CoV Mpro

$$$$

     RDKit          3D

 24 27  0  0  0  0  0  0  0  0999 V2000
   -9.8236    1.4199  -24.4304 C   0  0  0  0  0  0  0  0  0  0  0  0
  -10.9580    0.5041  -23.9938 C   0  0  0  0  0  0  0  0  0  0  0  0
  -10.7774   -0.1444  -22.6088 C   0  0  1  0  0  0  0  0  0  0  0  0
  -11.9959   -0.9587  -22.2769 C   0  0  0  0  0  0  0  0  0  0  0  0
  -13.3238   -0.4426  -22.1250 C   0  0  0  0  0  0  0  0  0  0  0  0
  -14.2162   -1.4148  -21.8014 C   0  0  0  0  0  0  0  0  0  0  0  0
  -13.4767   -2.9683  -21.7503 S   0  0  0  0  0  0  0  0  0  0  0  0
  -11.9267   -2.3064  -22.1083 C   0  0  0  0  0  0  0  0  0  0  0  0
  -10.6905   -3.1503  -22.2546 C   0  0  0  0  0  0  0  0  0  0  0  0
   -9.6556   -2.3130  -23.0073 C   0  0  0  0  0  0  0  0  0  0  0  0
   -9.5722   -0.9614  -22.4595 N   0  0  0  0  0  0  0  0  0  0  0  0
   -8.5264   -0.4264  -21.7485 C   0  0  0  0  0  0  0  0  0  0  0  0
   -8.4695    0.7609  -21.4641 O   0  0  0  0  0  0  0  0  0  0  0  0
   -7.4610   -1.4118  -21.2629 C   0  0  0  0  0  0  0  0  0  0  0  0
   -6.5970   -0.8339  -20.1813 C   0  0  0  0  0  0  0  0  0  0  0  0
   -6.9084   -1.0538  -18.8663 C   0  0  0  0  0  0  0  0  0  0  0  0
   -6.2369   -0.5498  -17.7955 N   0  0  0  0  0  0  0  0  0  0  0  0
   -5.1962    0.2060  -18.0639 C   0  0  0  0  0  0  0  0  0  0  0  0
   -4.7572    0.5221  -19.3776 C   0  0  0  0  0  0  0  0  0  0  0  0
   -3.6274    1.3491  -19.6119 C   0  0  0  0  0  0  0  0  0  0  0  0
   -3.2346    1.6432  -20.8897 C   0  0  0  0  0  0  0  0  0  0  0  0
   -3.9535    1.1254  -21.9911 C   0  0  0  0  0  0  0  0  0  0  0  0
   -5.0545    0.3274  -21.7916 C   0  0  0  0  0  0  0  0  0  0  0  0
   -5.4791   -0.0011  -20.4751 C   0  0  0  0  0  0  0  0  0  0  0  0
  1  2  1  0
  3  2  1  6
  3  4  1  0
  4  5  1  0
  5  6  2  0
  6  7  1  0
  7  8  1  0
  8  9  1  0
  9 10  1  0
 10 11  1  0
 11 12  1  0
 12 13  2  0
 12 14  1  0
 14 15  1  0
 15 16  2  0
 16 17  1  0
 17 18  2  0
 18 19  1  0
 19 20  2  0
 20 21  1  0
 21 22  2  0
 22 23  1  0
 23 24  2  0
 11  3  1  0
 24 15  1  0
  8  4  2  0
 24 19  1  0
M  END
>  <cnnaffinities>  (130) 
[5.73898]

>  <score>  (130) 
5.73898

>  <index>  (130) 
66

>  <Smiles>  (130) 
C(C([C@]1(c2c(c(sc2C(C(N1C(=O)C(c1c(nc(c2c(c(c(c(c12)[H])[H])[H])[H])[H])[H])([H])[H])([H])[H])([H])[H])[H])[H])[H])([H])[H])([H])([H])[H]

>  <h>  (130) 
<NA>

>  <Training>  (130) 
True

>  <Success>  (130) 
True

>  <enamine_searched>  (130) 
False

>  <enamine_id>  (130) 
nan

>  <SMILES>  (130) 
CCC1c2ccsc2CCN1C(=O)Cc1cncc2ccccc12

>  <LABEL>  (130) 
SARS-CoV-2 Mpro

$$$$
ligand_54
     RDKit          3D

 34 39  0  0  0  0  0  0  0  0999 V2000
    6.0218    4.7449   21.3734 C   0  0  0  0  0  0  0  0  0  0  0  0
    6.0581    4.2292   22.7246 N   0  0  0  0  0  0  0  0  0  0  0  0
    5.0797    4.3246   23.6535 C   0  0  0  0  0  0  0  0  0  0  0  0
    5.4822    3.5740   24.7339 C   0  0  0  0  0  0  0  0  0  0  0  0
    6.7365    3.0475   24.3498 C   0  0  0  0  0  0  0  0  0  0  0  0
    7.6031    2.1602   25.2026 C   0  0  0  0  0  0  0  0  0  0  0  0
    8.5593    1.3647   24.4692 N   0  0  0  0  0  0  0  0  0  0  0  0
    8.2106   -0.0032   24.1371 C   0  0  0  0  0  0  0  0  0  0  0  0
    8.8530   -0.4557   22.7983 C   0  0  1  0  0  0  0  0  0  0  0  0
    8.4130   -1.8894   22.4429 C   0  0  0  0  0  0  0  0  0  0  0  0
    7.0756   -1.7284   21.7093 C   0  0  0  0  0  0  0  0  0  0  0  0
    7.2440   -0.4409   21.0588 N   0  0  0  0  0  0  0  0  0  0  0  0
    6.4129    0.0528   20.0180 C   0  0  0  0  0  0  0  0  0  0  0  0
    6.7359   -0.2080   18.7106 C   0  0  0  0  0  0  0  0  0  0  0  0
    6.0189    0.2122   17.6395 N   0  0  0  0  0  0  0  0  0  0  0  0
    4.9376    0.9211   17.8772 C   0  0  0  0  0  0  0  0  0  0  0  0
    4.4697    1.2511   19.1825 C   0  0  0  0  0  0  0  0  0  0  0  0
    3.2939    2.0244   19.4016 C   0  0  0  0  0  0  0  0  0  0  0  0
    2.8761    2.3093   20.6744 C   0  0  0  0  0  0  0  0  0  0  0  0
    3.6067    1.8342   21.7876 C   0  0  0  0  0  0  0  0  0  0  0  0
    4.7554    1.1035   21.6031 C   0  0  0  0  0  0  0  0  0  0  0  0
    5.2207    0.7961   20.2957 C   0  0  0  0  0  0  0  0  0  0  0  0
    8.2391    0.3359   21.6152 C   0  0  0  0  0  0  0  0  0  0  0  0
    8.5466    1.4333   21.2152 O   0  0  0  0  0  0  0  0  0  0  0  0
   10.3393   -0.1981   22.9117 C   0  0  0  0  0  0  0  0  0  0  0  0
   11.2896   -1.0138   22.2909 C   0  0  0  0  0  0  0  0  0  0  0  0
   12.6255   -0.6485   22.3051 C   0  0  0  0  0  0  0  0  0  0  0  0
   13.7770   -1.6595   21.4793 Cl  0  0  0  0  0  0  0  0  0  0  0  0
   13.0610    0.5192   22.9362 C   0  0  0  0  0  0  0  0  0  0  0  0
   12.1232    1.3210   23.5616 C   0  0  0  0  0  0  0  0  0  0  0  0
   10.7730    0.9702   23.5579 C   0  0  0  0  0  0  0  0  0  0  0  0
    9.8067    1.8828   24.2557 C   0  0  0  0  0  0  0  0  0  0  0  0
   10.1120    3.0092   24.6229 O   0  0  0  0  0  0  0  0  0  0  0  0
    7.0637    3.4399   23.1245 N   0  0  0  0  0  0  0  0  0  0  0  0
  1  2  1  0
  2  3  1  0
  3  4  2  0
  4  5  1  0
  5  6  1  0
  6  7  1  0
  7  8  1  0
  9  8  1  1
  9 10  1  0
 10 11  1  0
 11 12  1  0
 12 13  1  0
 13 14  2  0
 14 15  1  0
 15 16  2  0
 16 17  1  0
 17 18  2  0
 18 19  1  0
 19 20  2  0
 20 21  1  0
 21 22  2  0
 12 23  1  0
 23 24  2  0
  9 25  1  0
 25 26  2  0
 26 27  1  0
 27 28  1  0
 27 29  2  0
 29 30  1  0
 30 31  2  0
 31 32  1  0
 32 33  2  0
  5 34  2  0
 34  2  1  0
 32  7  1  0
 23  9  1  0
 31 25  1  0
 22 13  1  0
 22 17  1  0
M  END
>  <template_ligand>  (131) 
mol-218

>  <template_receptor>  (131) 
receptors/receptor-218.pdb

>  <SMILES>  (131) 
Cn1ccc(CN2CC3(CCN(c4cncc5ccccc45)C3=O)c3cc(Cl)ccc3C2=O)n1

>  <LABEL>  (131) 
MERS-CoV Mpro

$$$$
ligand_63
     RDKit          3D

 36 41  0  0  0  0  0  0  0  0999 V2000
    9.1673   -2.6106   23.7735 C   0  0  0  0  0  0  0  0  0  0  0  0
    9.0669   -1.6983   22.5587 C   0  0  1  0  0  0  0  0  0  0  0  0
    7.6698   -1.6273   21.9211 C   0  0  0  0  0  0  0  0  0  0  0  0
    7.7509   -0.3907   21.1560 N   0  0  0  0  0  0  0  0  0  0  0  0
    6.8553    0.0021   20.1292 C   0  0  0  0  0  0  0  0  0  0  0  0
    7.1709   -0.2724   18.8232 C   0  0  0  0  0  0  0  0  0  0  0  0
    6.4005    0.0653   17.7573 N   0  0  0  0  0  0  0  0  0  0  0  0
    5.2867    0.7110   18.0066 C   0  0  0  0  0  0  0  0  0  0  0  0
    4.8391    1.0670   19.3121 C   0  0  0  0  0  0  0  0  0  0  0  0
    3.6393    1.7986   19.5206 C   0  0  0  0  0  0  0  0  0  0  0  0
    3.2445    2.1387   20.7833 C   0  0  0  0  0  0  0  0  0  0  0  0
    4.0292    1.7710   21.8977 C   0  0  0  0  0  0  0  0  0  0  0  0
    5.2013    1.0731   21.7246 C   0  0  0  0  0  0  0  0  0  0  0  0
    5.6390    0.7021   20.4215 C   0  0  0  0  0  0  0  0  0  0  0  0
    8.8359    0.3912   21.4924 C   0  0  0  0  0  0  0  0  0  0  0  0
    9.2058    1.3707   20.8710 O   0  0  0  0  0  0  0  0  0  0  0  0
    9.4602   -0.2013   22.7750 C   0  0  1  0  0  0  0  0  0  0  0  0
    8.7576    0.3575   24.0477 C   0  0  0  0  0  0  0  0  0  0  0  0
    9.1993    1.6922   24.4112 N   0  0  0  0  0  0  0  0  0  0  0  0
    8.2204    2.7576   24.6007 C   0  0  0  0  0  0  0  0  0  0  0  0
    7.8131    3.4222   23.2792 C   0  0  0  0  0  0  0  0  0  0  0  0
    8.5803    4.6788   23.0032 N   0  0  0  0  0  0  0  0  0  0  0  0
    7.8862    5.5806   22.0203 C   0  0  0  0  0  0  0  0  0  0  0  0
    8.6347    6.9000   21.8854 C   0  0  0  0  0  0  0  0  0  0  0  0
    9.9798    6.7348   21.4863 O   0  0  0  0  0  0  0  0  0  0  0  0
   10.6874    5.7994   22.2725 C   0  0  0  0  0  0  0  0  0  0  0  0
    9.9768    4.4619   22.4640 C   0  0  0  0  0  0  0  0  0  0  0  0
   10.5319    1.9791   24.5031 C   0  0  0  0  0  0  0  0  0  0  0  0
   10.9764    2.9407   25.1180 O   0  0  0  0  0  0  0  0  0  0  0  0
   11.4465    1.0992   23.6914 C   0  0  0  0  0  0  0  0  0  0  0  0
   12.8125    1.3890   23.7159 C   0  0  0  0  0  0  0  0  0  0  0  0
   13.6906    0.7360   22.8707 C   0  0  0  0  0  0  0  0  0  0  0  0
   13.1766   -0.2258   21.9978 C   0  0  0  0  0  0  0  0  0  0  0  0
   14.2529   -1.0212   20.8789 Cl  0  0  0  0  0  0  0  0  0  0  0  0
   11.8296   -0.5403   21.9739 C   0  0  0  0  0  0  0  0  0  0  0  0
   10.9376    0.1025   22.8458 C   0  0  0  0  0  0  0  0  0  0  0  0
  2  1  1  1
  2  3  1  0
  3  4  1  0
  4  5  1  0
  5  6  2  0
  6  7  1  0
  7  8  2  0
  8  9  1  0
  9 10  2  0
 10 11  1  0
 11 12  2  0
 12 13  1  0
 13 14  2  0
  4 15  1  0
 15 16  2  0
 15 17  1  0
 17 18  1  1
 18 19  1  0
 19 20  1  0
 20 21  1  0
 21 22  1  0
 22 23  1  0
 23 24  1  0
 24 25  1  0
 25 26  1  0
 26 27  1  0
 19 28  1  0
 28 29  2  0
 28 30  1  0
 30 31  2  0
 31 32  1  0
 32 33  2  0
 33 34  1  0
 33 35  1  0
 35 36  2  0
 17  2  1  0
 27 22  1  0
 36 30  1  0
 14  5  1  0
 36 17  1  0
 14  9  1  0
M  CHG  1  22   1
M  END
>  <template_ligand>  (132) 
mol-246

>  <template_receptor>  (132) 
receptors/receptor-246.pdb

>  <SMILES>  (132) 
CC1CN(c2cncc3ccccc23)C(=O)C12CN(CC[NH+]1CCOCC1)C(=O)c1ccc(Cl)cc12

>  <LABEL>  (132) 
MERS-CoV Mpro

$$$$

     RDKit          3D

 34 39  0  0  0  0  0  0  0  0999 V2000
   13.3041   -2.9847   23.8066 C   0  0  0  0  0  0  0  0  0  0  0  0
   13.0501   -1.6038   24.1416 N   0  0  0  0  0  0  0  0  0  0  0  0
   12.4665   -0.8364   23.1855 C   0  0  0  0  0  0  0  0  0  0  0  0
   12.2964   -1.2168   22.0387 O   0  0  0  0  0  0  0  0  0  0  0  0
   11.9942    0.5298   23.6518 C   0  0  0  0  0  0  0  0  0  0  0  0
   10.5766    0.4759   23.9223 N   0  0  0  0  0  0  0  0  0  0  0  0
   10.1055    0.0261   25.1442 C   0  0  0  0  0  0  0  0  0  0  0  0
   10.8002   -0.5467   25.9689 O   0  0  0  0  0  0  0  0  0  0  0  0
    8.6803    0.4828   25.2282 C   0  0  0  0  0  0  0  0  0  0  0  0
    7.8116    0.4367   26.2922 C   0  0  0  0  0  0  0  0  0  0  0  0
    6.5784    1.1256   26.1914 C   0  0  0  0  0  0  0  0  0  0  0  0
    6.3056    1.9268   25.1130 C   0  0  0  0  0  0  0  0  0  0  0  0
    4.7986    2.7783   25.0151 Cl  0  0  0  0  0  0  0  0  0  0  0  0
    7.3113    2.2432   24.0713 C   0  0  0  0  0  0  0  0  0  0  0  0
    8.3233    1.1179   23.9646 C   0  0  1  0  0  0  0  0  0  0  0  0
    9.5744    1.1220   23.1381 C   0  0  2  0  0  0  0  0  0  0  0  0
    8.4167    0.3058   22.6365 C   0  0  2  0  0  0  0  0  0  0  0  0
    7.6873    0.7745   21.3901 C   0  0  0  0  0  0  0  0  0  0  0  0
    7.7325    1.8528   20.8367 O   0  0  0  0  0  0  0  0  0  0  0  0
    6.8850   -0.2748   20.9720 N   0  0  0  0  0  0  0  0  0  0  0  0
    5.9094   -0.1403   19.9542 C   0  0  0  0  0  0  0  0  0  0  0  0
    6.0768   -0.7949   18.7602 C   0  0  0  0  0  0  0  0  0  0  0  0
    5.2547   -0.6637   17.6933 N   0  0  0  0  0  0  0  0  0  0  0  0
    4.1954    0.0982   17.8428 C   0  0  0  0  0  0  0  0  0  0  0  0
    3.8560    0.7668   19.0543 C   0  0  0  0  0  0  0  0  0  0  0  0
    2.6673    1.5359   19.1843 C   0  0  0  0  0  0  0  0  0  0  0  0
    2.3437    2.1291   20.3744 C   0  0  0  0  0  0  0  0  0  0  0  0
    3.2057    1.9987   21.4891 C   0  0  0  0  0  0  0  0  0  0  0  0
    4.3653    1.2691   21.3868 C   0  0  0  0  0  0  0  0  0  0  0  0
    4.7272    0.6433   20.1583 C   0  0  0  0  0  0  0  0  0  0  0  0
    7.1818   -1.5332   21.6310 C   0  0  0  0  0  0  0  0  0  0  0  0
    8.3319   -1.1704   22.5449 C   0  0  0  0  0  0  0  0  0  0  0  0
    9.0916   -2.0997   23.1176 C   0  0  0  0  0  0  0  0  0  0  0  0
    8.8168   -3.4065   22.9529 F   0  0  0  0  0  0  0  0  0  0  0  0
  1  2  1  0
  2  3  1  0
  3  4  2  0
  3  5  1  0
  5  6  1  0
  6  7  1  0
  7  8  2  0
  7  9  1  0
  9 10  2  0
 10 11  1  0
 11 12  2  0
 12 13  1  0
 12 14  1  0
 15 14  1  1
 15 16  1  0
 16 17  1  0
 17 18  1  6
 18 19  2  0
 18 20  1  0
 20 21  1  0
 21 22  2  0
 22 23  1  0
 23 24  2  0
 24 25  1  0
 25 26  2  0
 26 27  1  0
 27 28  2  0
 28 29  1  0
 29 30  2  0
 20 31  1  0
 31 32  1  0
 32 33  2  0
 33 34  1  0
 16  6  1  1
 32 17  1  0
 15  9  1  0
 30 21  1  0
 17 15  1  0
 30 25  1  0
M  END
>  <cnnaffinities>  (133) 
[5.9545]

>  <score>  (133) 
5.9545

>  <index>  (133) 
65

>  <Smiles>  (133) 
C(N(C(=O)C(N1C(=O)C2=C(C(=C(Cl)C([C@]32[C@@]1([C@@]13C(=O)N(c2c(nc(c3c(c(c(c(c23)[H])[H])[H])[H])[H])[H])C(/C/1=C(\F)/[H])([H])[H])[H])([H])[H])[H])[H])([H])[H])[H])([H])([H])[H]

>  <h>  (133) 
<NA>

>  <Training>  (133) 
True

>  <Success>  (133) 
True

>  <enamine_searched>  (133) 
False

>  <enamine_id>  (133) 
nan

>  <SMILES>  (133) 
CNC(=O)CN1C(=O)C2=CC=C(Cl)CC23C1C31C(=O)N(c2cncc3ccccc23)CC1=CF

>  <LABEL>  (133) 
MERS-CoV Mpro

$$$$
ligand_66
     RDKit          3D

 35 40  0  0  0  0  0  0  0  0999 V2000
   -4.8433    4.5881  -23.7144 C   0  0  0  0  0  0  0  0  0  0  0  0
   -5.9977    3.6611  -23.8786 C   0  0  0  0  0  0  0  0  0  0  0  0
   -6.2300    2.8178  -24.9919 C   0  0  0  0  0  0  0  0  0  0  0  0
   -7.3809    2.1790  -24.6658 C   0  0  0  0  0  0  0  0  0  0  0  0
   -8.1499    1.1640  -25.4521 C   0  0  0  0  0  0  0  0  0  0  0  0
   -9.0129    0.3302  -24.6551 N   0  0  0  0  0  0  0  0  0  0  0  0
   -8.5587   -1.0083  -24.3212 C   0  0  0  0  0  0  0  0  0  0  0  0
   -9.1446   -1.4980  -22.9716 C   0  0  2  0  0  0  0  0  0  0  0  0
   -8.5841   -0.6261  -21.8148 C   0  0  0  0  0  0  0  0  0  0  0  0
   -8.9586    0.4661  -21.4566 O   0  0  0  0  0  0  0  0  0  0  0  0
   -7.5279   -1.3091  -21.2458 N   0  0  0  0  0  0  0  0  0  0  0  0
   -6.7289   -0.7346  -20.2227 C   0  0  0  0  0  0  0  0  0  0  0  0
   -7.0145   -0.9982  -18.9077 C   0  0  0  0  0  0  0  0  0  0  0  0
   -6.3226   -0.4999  -17.8515 N   0  0  0  0  0  0  0  0  0  0  0  0
   -5.3038    0.2878  -18.1131 C   0  0  0  0  0  0  0  0  0  0  0  0
   -4.8751    0.6253  -19.4306 C   0  0  0  0  0  0  0  0  0  0  0  0
   -3.7702    1.4875  -19.6774 C   0  0  0  0  0  0  0  0  0  0  0  0
   -3.3963    1.7830  -20.9600 C   0  0  0  0  0  0  0  0  0  0  0  0
   -4.1005    1.2323  -22.0571 C   0  0  0  0  0  0  0  0  0  0  0  0
   -5.1739    0.4043  -21.8465 C   0  0  0  0  0  0  0  0  0  0  0  0
   -5.5965    0.0877  -20.5269 C   0  0  0  0  0  0  0  0  0  0  0  0
   -7.2675   -2.5946  -21.8660 C   0  0  0  0  0  0  0  0  0  0  0  0
   -8.5904   -2.8958  -22.5825 C   0  0  2  0  0  0  0  0  0  0  0  0
   -8.4794   -3.9141  -23.7093 C   0  0  0  0  0  0  0  0  0  0  0  0
  -10.6481   -1.3602  -23.0709 C   0  0  0  0  0  0  0  0  0  0  0  0
  -11.5253   -2.2422  -22.4320 C   0  0  0  0  0  0  0  0  0  0  0  0
  -12.8789   -1.9743  -22.4445 C   0  0  0  0  0  0  0  0  0  0  0  0
  -13.7007   -2.8205  -21.8003 F   0  0  0  0  0  0  0  0  0  0  0  0
  -13.4252   -0.8608  -23.0745 C   0  0  0  0  0  0  0  0  0  0  0  0
  -12.5591    0.0016  -23.7194 C   0  0  0  0  0  0  0  0  0  0  0  0
  -11.1824   -0.2350  -23.7235 C   0  0  0  0  0  0  0  0  0  0  0  0
  -10.2982    0.7471  -24.4400 C   0  0  0  0  0  0  0  0  0  0  0  0
  -10.7056    1.8292  -24.8326 O   0  0  0  0  0  0  0  0  0  0  0  0
   -7.8114    2.5810  -23.4716 O   0  0  0  0  0  0  0  0  0  0  0  0
   -6.9411    3.5288  -22.9689 N   0  0  0  0  0  0  0  0  0  0  0  0
  1  2  1  0
  2  3  1  0
  3  4  2  0
  4  5  1  0
  5  6  1  0
  6  7  1  0
  8  7  1  6
  8  9  1  0
  9 10  2  0
  9 11  1  0
 11 12  1  0
 12 13  2  0
 13 14  1  0
 14 15  2  0
 15 16  1  0
 16 17  2  0
 17 18  1  0
 18 19  2  0
 19 20  1  0
 20 21  2  0
 11 22  1  0
 22 23  1  0
 23 24  1  6
  8 25  1  0
 25 26  2  0
 26 27  1  0
 27 28  1  0
 27 29  2  0
 29 30  1  0
 30 31  2  0
 31 32  1  0
 32 33  2  0
  4 34  1  0
 34 35  1  0
 35  2  2  0
 32  6  1  0
 23  8  1  0
 31 25  1  0
 21 12  1  0
 21 16  1  0
M  END
>  <template_ligand>  (134) 
mol-218

>  <template_receptor>  (134) 
receptors/receptor-218.pdb

>  <SMILES>  (134) 
Cc1cc(CN2CC3(C(=O)N(c4cncc5ccccc45)CC3C)c3cc(F)ccc3C2=O)on1

>  <LABEL>  (134) 
SARS-CoV-2 Mpro

$$$$

     RDKit          3D

 25 28  0  0  0  0  0  0  0  0999 V2000
    5.3166   -2.0058   21.8448 O   0  0  0  0  0  0  0  0  0  0  0  0
    6.4487   -1.5554   21.9060 C   0  0  0  0  0  0  0  0  0  0  0  0
    6.8718   -0.3514   21.0668 C   0  0  0  0  0  0  0  0  0  0  0  0
    5.9154   -0.1152   19.9539 C   0  0  0  0  0  0  0  0  0  0  0  0
    6.1221   -0.7295   18.7521 C   0  0  0  0  0  0  0  0  0  0  0  0
    5.3195   -0.6107   17.6662 N   0  0  0  0  0  0  0  0  0  0  0  0
    4.2477    0.1355   17.8188 C   0  0  0  0  0  0  0  0  0  0  0  0
    3.8843    0.7903   19.0287 C   0  0  0  0  0  0  0  0  0  0  0  0
    2.7199    1.5861   19.1500 C   0  0  0  0  0  0  0  0  0  0  0  0
    2.3920    2.1614   20.3496 C   0  0  0  0  0  0  0  0  0  0  0  0
    3.2186    1.9778   21.4809 C   0  0  0  0  0  0  0  0  0  0  0  0
    4.3647    1.2365   21.3857 C   0  0  0  0  0  0  0  0  0  0  0  0
    4.7318    0.6404   20.1493 C   0  0  0  0  0  0  0  0  0  0  0  0
    7.4197   -2.1003   22.6975 N   0  0  0  0  0  0  0  0  0  0  0  0
    7.2977   -3.5120   23.0555 C   0  0  0  0  0  0  0  0  0  0  0  0
    7.7170   -3.7396   24.5054 C   0  0  0  0  0  0  0  0  0  0  0  0
    9.0491   -3.0549   24.8761 C   0  0  1  0  0  0  0  0  0  0  0  0
   10.2293   -3.8434   24.2713 C   0  0  0  0  0  0  0  0  0  0  0  0
   11.6049   -3.2152   24.5178 C   0  0  0  0  0  0  0  0  0  0  0  0
   11.6349   -1.7439   24.1460 C   0  0  0  0  0  0  0  0  0  0  0  0
   11.6247   -1.6525   22.7662 F   0  0  0  0  0  0  0  0  0  0  0  0
   12.8254   -1.1880   24.5368 F   0  0  0  0  0  0  0  0  0  0  0  0
   10.4693   -0.9447   24.7144 C   0  0  0  0  0  0  0  0  0  0  0  0
    9.0986   -1.5834   24.4053 C   0  0  1  0  0  0  0  0  0  0  0  0
    8.7352   -1.5034   22.9168 C   0  0  0  0  0  0  0  0  0  0  0  0
  1  2  2  0
  2  3  1  0
  3  4  1  0
  4  5  2  0
  5  6  1  0
  6  7  2  0
  7  8  1  0
  8  9  2  0
  9 10  1  0
 10 11  2  0
 11 12  1  0
 12 13  2  0
  2 14  1  0
 14 15  1  0
 15 16  1  0
 17 16  1  6
 17 18  1  0
 18 19  1  0
 19 20  1  0
 20 21  1  0
 20 22  1  0
 20 23  1  0
 24 23  1  6
 24 25  1  0
 13  4  1  0
 25 14  1  0
 13  8  1  0
 24 17  1  0
M  END
>  <cnnaffinities>  (135) 
[5.82527, 5.78101, 5.78599, 5.38251, 5.38252, 5.86894, 5.56959, 5.56957, 5.67149, 5.47461]

>  <score>  (135) 
5.82527

>  <index>  (135) 
66

>  <Smiles>  (135) 
O=C(C(c1c(nc(c2c(c(c(c(c12)[H])[H])[H])[H])[H])[H])([H])[H])N1C(C([C@]2(C(C(C(F)(F)C([C@]2(C1([H])[H])[H])([H])[H])([H])[H])([H])[H])[H])([H])[H])([H])[H]

>  <h>  (135) 
<NA>

>  <Training>  (135) 
True

>  <Success>  (135) 
True

>  <enamine_searched>  (135) 
False

>  <enamine_id>  (135) 
nan

>  <SMILES>  (135) 
O=C(Cc1cncc2ccccc12)N1CCC2CCC(F)(F)CC2C1

>  <LABEL>  (135) 
MERS-CoV Mpro

$$$$
ligand_66
     RDKit          3D

 38 43  0  0  0  0  0  0  0  0999 V2000
    6.6316    4.3571   22.2023 C   0  0  0  0  0  0  0  0  0  0  0  0
    7.4372    3.5787   23.1526 N   0  0  0  0  0  0  0  0  0  0  0  0
    6.7244    3.1353   24.3748 C   0  0  0  0  0  0  0  0  0  0  0  0
    7.6757    2.3470   25.2925 C   0  0  0  0  0  0  0  0  0  0  0  0
    8.5974    1.4925   24.5595 N   0  0  0  0  0  0  0  0  0  0  0  0
    8.1863    0.1532   24.1805 C   0  0  0  0  0  0  0  0  0  0  0  0
    8.8067   -0.2993   22.8268 C   0  0  2  0  0  0  0  0  0  0  0  0
    8.1164    0.4613   21.6730 C   0  0  0  0  0  0  0  0  0  0  0  0
    8.2349    1.6524   21.4105 O   0  0  0  0  0  0  0  0  0  0  0  0
    7.2725   -0.3835   21.0095 N   0  0  0  0  0  0  0  0  0  0  0  0
    6.4372    0.0750   19.9596 C   0  0  0  0  0  0  0  0  0  0  0  0
    6.7409   -0.2431   18.6619 C   0  0  0  0  0  0  0  0  0  0  0  0
    6.0361    0.1835   17.5851 N   0  0  0  0  0  0  0  0  0  0  0  0
    4.9812    0.9312   17.8186 C   0  0  0  0  0  0  0  0  0  0  0  0
    4.5312    1.2969   19.1213 C   0  0  0  0  0  0  0  0  0  0  0  0
    3.3639    2.0815   19.3273 C   0  0  0  0  0  0  0  0  0  0  0  0
    2.9452    2.3893   20.5942 C   0  0  0  0  0  0  0  0  0  0  0  0
    3.6693    1.9278   21.7172 C   0  0  0  0  0  0  0  0  0  0  0  0
    4.8047    1.1754   21.5449 C   0  0  0  0  0  0  0  0  0  0  0  0
    5.2742    0.8518   20.2374 C   0  0  0  0  0  0  0  0  0  0  0  0
    7.1174   -1.6690   21.6583 C   0  0  0  0  0  0  0  0  0  0  0  0
    8.4128   -1.7494   22.4751 C   0  0  2  0  0  0  0  0  0  0  0  0
    8.3492   -2.7454   23.6181 C   0  0  0  0  0  0  0  0  0  0  0  0
    8.3213   -4.0020   22.9840 O   0  0  0  0  0  0  0  0  0  0  0  0
    8.3042   -5.1718   23.7738 C   0  0  0  0  0  0  0  0  0  0  0  0
    8.5930   -6.2396   22.8056 C   0  0  0  0  0  0  0  0  0  0  0  0
    6.9039   -7.4621   22.1220 F   0  0  0  0  0  0  0  0  0  0  0  0
    8.9963   -7.4777   23.1630 C   0  0  0  0  0  0  0  0  0  0  0  0
    9.1554   -7.4904   23.3404 C   0  0  0  0  0  0  0  0  0  0  0  0
   10.3032   -0.0388   22.8741 C   0  0  0  0  0  0  0  0  0  0  0  0
   11.2669   -0.8681   22.2763 C   0  0  0  0  0  0  0  0  0  0  0  0
   12.6072   -0.5294   22.3425 C   0  0  0  0  0  0  0  0  0  0  0  0
   13.7871   -1.5891   21.6199 Cl  0  0  0  0  0  0  0  0  0  0  0  0
   13.0435    0.6432   22.9564 C   0  0  0  0  0  0  0  0  0  0  0  0
   12.0986    1.4764   23.5194 C   0  0  0  0  0  0  0  0  0  0  0  0
   10.7505    1.1287   23.5063 C   0  0  0  0  0  0  0  0  0  0  0  0
    9.7843    2.0380   24.1923 C   0  0  0  0  0  0  0  0  0  0  0  0
   10.0375    3.2281   24.3948 O   0  0  0  0  0  0  0  0  0  0  0  0
  1  2  1  0
  2  3  1  0
  3  4  1  0
  4  5  1  0
  5  6  1  0
  7  6  1  1
  7  8  1  0
  8  9  2  0
  8 10  1  0
 10 11  1  0
 11 12  2  0
 12 13  1  0
 13 14  2  0
 14 15  1  0
 15 16  2  0
 16 17  1  0
 17 18  2  0
 18 19  1  0
 19 20  2  0
 10 21  1  0
 21 22  1  0
 22 23  1  1
 23 24  1  0
 24 25  1  0
 25 26  1  0
 26 27  1  0
 26 28  1  0
 28 29  1  0
  7 30  1  0
 30 31  2  0
 31 32  1  0
 32 33  1  0
 32 34  2  0
 34 35  1  0
 35 36  2  0
 36 37  1  0
 37 38  2  0
 37  5  1  0
 22  7  1  0
 29 26  1  0
 36 30  1  0
 20 11  1  0
 20 15  1  0
M  CHG  1   2   1
M  END
>  <template_ligand>  (136) 
mol-218

>  <template_receptor>  (136) 
receptors/receptor-218.pdb

>  <SMILES>  (136) 
C[NH2+]CCN1CC2(C(=O)N(c3cncc4ccccc34)CC2COCC2(F)CC2)c2cc(Cl)ccc2C1=O

>  <LABEL>  (136) 
MERS-CoV Mpro

$$$$

     RDKit          3D

 34 39  0  0  0  0  0  0  0  0999 V2000
   -7.9836    0.8543  -21.6132 O   0  0  0  0  0  0  0  0  0  0  0  0
   -8.0194   -0.3050  -21.9764 C   0  0  0  0  0  0  0  0  0  0  0  0
   -7.4327   -1.4416  -21.1361 C   0  0  0  0  0  0  0  0  0  0  0  0
   -6.5774   -0.8888  -20.0574 C   0  0  0  0  0  0  0  0  0  0  0  0
   -6.9089   -1.0689  -18.7425 C   0  0  0  0  0  0  0  0  0  0  0  0
   -6.2437   -0.5367  -17.6903 N   0  0  0  0  0  0  0  0  0  0  0  0
   -5.2025    0.2167  -17.9808 C   0  0  0  0  0  0  0  0  0  0  0  0
   -4.7525    0.4887  -19.3039 C   0  0  0  0  0  0  0  0  0  0  0  0
   -3.6500    1.3386  -19.5644 C   0  0  0  0  0  0  0  0  0  0  0  0
   -3.2622    1.6154  -20.8478 C   0  0  0  0  0  0  0  0  0  0  0  0
   -3.9637    1.0513  -21.9349 C   0  0  0  0  0  0  0  0  0  0  0  0
   -5.0330    0.2221  -21.7097 C   0  0  0  0  0  0  0  0  0  0  0  0
   -5.4581   -0.0752  -20.3824 C   0  0  0  0  0  0  0  0  0  0  0  0
   -8.5263   -0.6796  -23.2005 N   0  0  0  0  0  0  0  0  0  0  0  0
   -8.5687    0.3608  -24.2262 C   0  0  0  0  0  0  0  0  0  0  0  0
   -7.8600   -0.0722  -25.4850 C   0  0  0  0  0  0  0  0  0  0  0  0
   -6.6890   -0.8246  -25.4512 C   0  0  0  0  0  0  0  0  0  0  0  0
   -6.0985   -1.2526  -26.6334 C   0  0  0  0  0  0  0  0  0  0  0  0
   -6.6525   -0.9244  -27.8637 C   0  0  0  0  0  0  0  0  0  0  0  0
   -7.8157   -0.1713  -27.8890 C   0  0  0  0  0  0  0  0  0  0  0  0
   -8.4931    0.2796  -29.4243 Cl  0  0  0  0  0  0  0  0  0  0  0  0
   -8.4329    0.2325  -26.7113 C   0  0  0  0  0  0  0  0  0  0  0  0
   -9.3121   -1.8994  -23.3705 C   0  0  2  0  0  0  0  0  0  0  0  0
   -8.5936   -3.2746  -23.4930 C   0  0  0  0  0  0  0  0  0  0  0  0
   -9.6596   -4.1772  -24.1767 C   0  0  0  0  0  0  0  0  0  0  0  0
  -10.8634   -3.2528  -24.2742 C   0  0  2  0  0  0  0  0  0  0  0  0
  -10.2136   -1.9328  -24.6180 C   0  0  0  0  0  0  0  0  0  0  0  0
  -11.3478   -3.0463  -22.8266 N   0  0  2  0  0  0  0  0  0  0  0  0
  -12.7445   -2.6238  -22.5704 C   0  0  0  0  0  0  0  0  0  0  0  0
  -13.2757   -1.5804  -23.5345 C   0  0  0  0  0  0  0  0  0  0  0  0
  -14.7784   -1.4404  -23.4242 C   0  0  0  0  0  0  0  0  0  0  0  0
  -14.6625   -0.2483  -22.6310 O   0  0  0  0  0  0  0  0  0  0  0  0
  -13.3051   -0.1110  -23.0892 C   0  0  0  0  0  0  0  0  0  0  0  0
  -10.3573   -2.0779  -22.2544 C   0  0  0  0  0  0  0  0  0  0  0  0
  1  2  2  0
  2  3  1  0
  3  4  1  0
  4  5  2  0
  5  6  1  0
  6  7  2  0
  7  8  1  0
  8  9  2  0
  9 10  1  0
 10 11  2  0
 11 12  1  0
 12 13  2  0
  2 14  1  0
 14 15  1  0
 15 16  1  0
 16 17  2  0
 17 18  1  0
 18 19  2  0
 19 20  1  0
 20 21  1  0
 20 22  2  0
 23 14  1  1
 23 24  1  0
 24 25  1  0
 26 25  1  1
 26 27  1  0
 26 28  1  0
 28 29  1  6
 29 30  1  0
 30 31  1  0
 31 32  1  0
 32 33  1  0
 28 34  1  0
 13  4  1  0
 22 16  1  0
 27 23  1  0
 33 30  1  0
 13  8  1  0
 34 23  1  0
M  CHG  1  28   1
M  END
>  <cnnaffinities>  (137) 
[6.05603, 5.97339, 6.02527, 6.0841]

>  <score>  (137) 
6.05603

>  <index>  (137) 
8

>  <Smiles>  (137) 
O=C(C(c1c(nc(c2c(c(c(c(c12)[H])[H])[H])[H])[H])[H])([H])[H])N(C(c1c(c(c(c(Cl)c1[H])[H])[H])[H])([H])[H])[C@]12C(C([C@](C1([H])[H])([N@+](C(C1(C(OC1([H])[H])([H])[H])[H])([H])[H])(C2([H])[H])[H])[H])([H])[H])([H])[H]

>  <h>  (137) 
<NA>

>  <Training>  (137) 
True

>  <Success>  (137) 
True

>  <enamine_searched>  (137) 
False

>  <enamine_id>  (137) 
nan

>  <SMILES>  (137) 
O=C(Cc1cncc2ccccc12)N(Cc1cccc(Cl)c1)C12CCC(C1)[NH+](CC1COC1)C2

>  <LABEL>  (137) 
SARS-CoV-2 Mpro

$$$$
ligand_67
     RDKit          3D

 35 40  0  0  0  0  0  0  0  0999 V2000
    5.5372    4.8377   21.6297 C   0  0  0  0  0  0  0  0  0  0  0  0
    6.1303    4.3438   22.9026 C   0  0  0  0  0  0  0  0  0  0  0  0
    6.6300    3.1704   23.1723 N   0  0  0  0  0  0  0  0  0  0  0  0
    7.0186    3.3171   24.4774 C   0  0  0  0  0  0  0  0  0  0  0  0
    7.6131    2.1771   25.2394 C   0  0  0  0  0  0  0  0  0  0  0  0
    8.5325    1.3811   24.4487 N   0  0  0  0  0  0  0  0  0  0  0  0
    8.2055    0.0005   24.1407 C   0  0  0  0  0  0  0  0  0  0  0  0
    8.8477   -0.4621   22.8043 C   0  0  2  0  0  0  0  0  0  0  0  0
    8.2372    0.3349   21.6180 C   0  0  0  0  0  0  0  0  0  0  0  0
    8.5489    1.4325   21.2180 O   0  0  0  0  0  0  0  0  0  0  0  0
    7.2415   -0.4396   21.0559 N   0  0  0  0  0  0  0  0  0  0  0  0
    6.4111    0.0527   20.0146 C   0  0  0  0  0  0  0  0  0  0  0  0
    6.7351   -0.2087   18.7080 C   0  0  0  0  0  0  0  0  0  0  0  0
    6.0183    0.2118   17.6359 N   0  0  0  0  0  0  0  0  0  0  0  0
    4.9368    0.9198   17.8733 C   0  0  0  0  0  0  0  0  0  0  0  0
    4.4649    1.2468   19.1789 C   0  0  0  0  0  0  0  0  0  0  0  0
    3.2887    2.0190   19.3999 C   0  0  0  0  0  0  0  0  0  0  0  0
    2.8742    2.3033   20.6733 C   0  0  0  0  0  0  0  0  0  0  0  0
    3.6077    1.8313   21.7849 C   0  0  0  0  0  0  0  0  0  0  0  0
    4.7452    1.0824   21.5991 C   0  0  0  0  0  0  0  0  0  0  0  0
    5.2129    0.7863   20.2911 C   0  0  0  0  0  0  0  0  0  0  0  0
    7.0777   -1.7290   21.6987 C   0  0  0  0  0  0  0  0  0  0  0  0
    8.4139   -1.9067   22.4351 C   0  0  2  0  0  0  0  0  0  0  0  0
    8.3728   -2.9127   23.5786 C   0  0  0  0  0  0  0  0  0  0  0  0
   10.3346   -0.2040   22.9155 C   0  0  0  0  0  0  0  0  0  0  0  0
   11.2893   -1.0222   22.3021 C   0  0  0  0  0  0  0  0  0  0  0  0
   12.6173   -0.6449   22.3243 C   0  0  0  0  0  0  0  0  0  0  0  0
   13.5134   -1.4326   21.7040 F   0  0  0  0  0  0  0  0  0  0  0  0
   13.0626    0.5211   22.9405 C   0  0  0  0  0  0  0  0  0  0  0  0
   12.1198    1.3206   23.5602 C   0  0  0  0  0  0  0  0  0  0  0  0
   10.7658    0.9708   23.5561 C   0  0  0  0  0  0  0  0  0  0  0  0
    9.7873    1.8852   24.2437 C   0  0  0  0  0  0  0  0  0  0  0  0
   10.0920    3.0059   24.6238 O   0  0  0  0  0  0  0  0  0  0  0  0
    6.7567    4.4811   24.9980 N   0  0  0  0  0  0  0  0  0  0  0  0
    6.1775    5.1764   23.9429 O   0  0  0  0  0  0  0  0  0  0  0  0
  1  2  1  0
  2  3  2  0
  3  4  1  0
  4  5  1  0
  5  6  1  0
  6  7  1  0
  8  7  1  1
  8  9  1  0
  9 10  2  0
  9 11  1  0
 11 12  1  0
 12 13  2  0
 13 14  1  0
 14 15  2  0
 15 16  1  0
 16 17  2  0
 17 18  1  0
 18 19  2  0
 19 20  1  0
 20 21  2  0
 11 22  1  0
 22 23  1  0
 23 24  1  1
  8 25  1  0
 25 26  2  0
 26 27  1  0
 27 28  1  0
 27 29  2  0
 29 30  1  0
 30 31  2  0
 31 32  1  0
 32 33  2  0
  4 34  2  0
 34 35  1  0
 35  2  1  0
 32  6  1  0
 23  8  1  0
 31 25  1  0
 21 12  1  0
 21 16  1  0
M  END
>  <template_ligand>  (138) 
mol-218

>  <template_receptor>  (138) 
receptors/receptor-218.pdb

>  <SMILES>  (138) 
Cc1nc(CN2CC3(C(=O)N(c4cncc5ccccc45)CC3C)c3cc(F)ccc3C2=O)no1

>  <LABEL>  (138) 
MERS-CoV Mpro

$$$$
ligand_68
     RDKit          3D

 36 40  0  0  0  0  0  0  0  0999 V2000
   -5.7295   -4.6448  -20.4796 C   0  0  0  0  0  0  0  0  0  0  0  0
   -5.9395   -4.8972  -21.8904 C   0  0  0  0  0  0  0  0  0  0  0  0
   -7.3066   -5.0261  -22.3209 C   0  0  0  0  0  0  0  0  0  0  0  0
   -8.1806   -5.5890  -21.5949 O   0  0  0  0  0  0  0  0  0  0  0  0
   -7.3688   -4.2422  -23.4271 N   0  0  0  0  0  0  0  0  0  0  0  0
   -6.2623   -3.7363  -24.2136 C   0  0  0  0  0  0  0  0  0  0  0  0
   -6.8854   -2.2145  -26.5795 C   0  0  0  0  0  0  0  0  0  0  0  0
   -8.4421   -2.0057  -26.7473 C   0  0  0  0  0  0  0  0  0  0  0  0
   -9.8662   -3.0606  -24.4829 C   0  0  0  0  0  0  0  0  0  0  0  0
   -9.4779   -4.1166  -23.8348 C   0  0  0  0  0  0  0  0  0  0  0  0
   -8.8072   -4.7141  -24.9363 C   0  0  0  0  0  0  0  0  0  0  0  0
   -8.0213   -3.7737  -25.4874 C   0  0  0  0  0  0  0  0  0  0  0  0
   -8.3479   -2.3500  -25.0657 C   0  0  0  0  0  0  0  0  0  0  0  0
   -9.0170   -2.1898  -23.4860 C   0  0  0  0  0  0  0  0  0  0  0  0
   -9.0847   -0.9450  -23.0587 N   0  0  1  0  0  0  0  0  0  0  0  0
  -10.0509    0.0473  -23.8018 C   0  0  0  0  0  0  0  0  0  0  0  0
  -11.4661    0.0026  -23.3310 C   0  0  0  0  0  0  0  0  0  0  0  0
  -12.2075    1.1598  -23.4648 C   0  0  0  0  0  0  0  0  0  0  0  0
  -13.5209    1.1848  -23.0280 C   0  0  0  0  0  0  0  0  0  0  0  0
  -14.0780    0.0633  -22.4259 C   0  0  0  0  0  0  0  0  0  0  0  0
  -13.3044   -1.0720  -22.2697 C   0  0  0  0  0  0  0  0  0  0  0  0
  -13.9244   -2.4146  -21.3496 Cl  0  0  0  0  0  0  0  0  0  0  0  0
  -12.0180   -1.1396  -22.7433 C   0  0  0  0  0  0  0  0  0  0  0  0
   -8.7010   -0.6845  -21.7243 C   0  0  0  0  0  0  0  0  0  0  0  0
   -8.9105    0.4454  -21.2616 O   0  0  0  0  0  0  0  0  0  0  0  0
   -7.7065   -1.7043  -21.1345 C   0  0  0  0  0  0  0  0  0  0  0  0
   -6.8571   -1.0746  -20.0916 C   0  0  0  0  0  0  0  0  0  0  0  0
   -7.1529   -1.2660  -18.7451 C   0  0  0  0  0  0  0  0  0  0  0  0
   -6.4966   -0.6878  -17.7267 N   0  0  0  0  0  0  0  0  0  0  0  0
   -5.4819    0.1314  -18.0268 C   0  0  0  0  0  0  0  0  0  0  0  0
   -5.0864    0.4207  -19.3654 C   0  0  0  0  0  0  0  0  0  0  0  0
   -4.0114    1.3022  -19.6506 C   0  0  0  0  0  0  0  0  0  0  0  0
   -3.6594    1.5616  -20.9574 C   0  0  0  0  0  0  0  0  0  0  0  0
   -4.3561    0.9645  -22.0061 C   0  0  0  0  0  0  0  0  0  0  0  0
   -5.4084    0.1052  -21.7590 C   0  0  0  0  0  0  0  0  0  0  0  0
   -5.7987   -0.1881  -20.4228 C   0  0  0  0  0  0  0  0  0  0  0  0
  1  2  2  0
  2  3  1  0
  3  4  2  0
  3  5  1  0
  5  6  1  0
  6  7  1  0
  7  8  1  0
  8  9  1  0
  9 10  2  0
 10 11  1  0
 11 12  2  0
 12 13  1  0
 13 14  2  0
 14 15  1  0
 15 16  1  1
 16 17  1  0
 17 18  2  0
 18 19  1  0
 19 20  2  0
 20 21  1  0
 21 22  1  0
 21 23  2  0
 15 24  1  0
 24 25  2  0
 24 26  1  0
 26 27  1  0
 27 28  2  0
 28 29  1  0
 29 30  2  0
 30 31  1  0
 31 32  2  0
 32 33  1  0
 33 34  2  0
 34 35  1  0
 35 36  2  0
 10  5  1  0
 23 17  1  0
 36 27  1  0
 14  9  1  0
 36 31  1  0
M  CHG  1  15   1
M  END
>  <template_ligand>  (139) 
mol-58

>  <template_receptor>  (139) 
receptors/receptor-58.pdb

>  <SMILES>  (139) 
C=CC(=O)N1CCCc2c1cccc2[NH+](Cc1cccc(Cl)c1)C(=O)Cc1cncc2ccccc12

>  <LABEL>  (139) 
SARS-CoV-2 Mpro

$$$$
ligand_69
     RDKit          3D

 24 26  0  0  0  0  0  0  0  0999 V2000
   -8.8035    3.2589  -26.0510 C   0  0  0  0  0  0  0  0  0  0  0  0
   -9.0701    1.7630  -26.2912 C   0  0  0  0  0  0  0  0  0  0  0  0
   -9.2867    1.5145  -27.7844 C   0  0  0  0  0  0  0  0  0  0  0  0
  -10.2287    1.3283  -25.3745 C   0  0  0  0  0  0  0  0  0  0  0  0
  -10.7363   -0.1428  -25.3411 C   0  0  0  0  0  0  0  0  0  0  0  0
  -11.7524   -0.4683  -26.4454 C   0  0  0  0  0  0  0  0  0  0  0  0
  -11.5052   -0.3022  -23.9936 C   0  0  0  0  0  0  0  0  0  0  0  0
  -10.8834   -1.3461  -23.0866 C   0  0  0  0  0  0  0  0  0  0  0  0
   -9.4448   -1.1447  -22.9772 N   0  0  0  0  0  0  0  0  0  0  0  0
   -8.9269   -0.9280  -21.7282 C   0  0  0  0  0  0  0  0  0  0  0  0
   -9.5991   -0.4191  -20.8433 O   0  0  0  0  0  0  0  0  0  0  0  0
   -7.5297   -1.4752  -21.4408 C   0  0  0  0  0  0  0  0  0  0  0  0
   -6.8048   -0.8078  -20.3079 C   0  0  0  0  0  0  0  0  0  0  0  0
   -7.1696   -1.0752  -19.0104 C   0  0  0  0  0  0  0  0  0  0  0  0
   -6.5430   -0.5971  -17.9027 N   0  0  0  0  0  0  0  0  0  0  0  0
   -5.5199    0.2013  -18.1049 C   0  0  0  0  0  0  0  0  0  0  0  0
   -5.0371    0.5796  -19.3884 C   0  0  0  0  0  0  0  0  0  0  0  0
   -3.9162    1.4350  -19.5581 C   0  0  0  0  0  0  0  0  0  0  0  0
   -3.5108    1.8034  -20.8115 C   0  0  0  0  0  0  0  0  0  0  0  0
   -4.1769    1.3126  -21.9542 C   0  0  0  0  0  0  0  0  0  0  0  0
   -5.2584    0.4789  -21.8162 C   0  0  0  0  0  0  0  0  0  0  0  0
   -5.7076    0.0732  -20.5297 C   0  0  0  0  0  0  0  0  0  0  0  0
   -8.6615   -1.1652  -24.2092 C   0  0  0  0  0  0  0  0  0  0  0  0
   -9.6026   -1.1856  -25.4115 C   0  0  0  0  0  0  0  0  0  0  0  0
  1  2  1  0
  2  3  1  0
  2  4  1  0
  4  5  1  0
  5  6  1  0
  5  7  1  0
  7  8  1  0
  8  9  1  0
  9 10  1  0
 10 11  2  0
 10 12  1  0
 12 13  1  0
 13 14  2  0
 14 15  1  0
 15 16  2  0
 16 17  1  0
 17 18  2  0
 18 19  1  0
 19 20  2  0
 20 21  1  0
 21 22  2  0
  9 23  1  0
 23 24  1  0
 24  5  1  0
 22 13  1  0
 22 17  1  0
M  END
>  <template_ligand>  (140) 
mol-275

>  <template_receptor>  (140) 
receptors/receptor-275.pdb

>  <SMILES>  (140) 
CC(C)CC1(C)CCN(C(=O)Cc2cncc3ccccc23)CC1

>  <LABEL>  (140) 
SARS-CoV-2 Mpro

$$$$

     RDKit          3D

 37 41  0  0  0  0  0  0  0  0999 V2000
    3.7930    3.1662   26.9143 C   0  0  0  0  0  0  0  0  0  0  0  0
    3.2664    1.7305   26.7811 C   0  0  0  0  0  0  0  0  0  0  0  0
    4.1674    0.9513   25.8527 C   0  0  0  0  0  0  0  0  0  0  0  0
    3.9129    0.8505   24.6645 O   0  0  0  0  0  0  0  0  0  0  0  0
    5.3235    0.4385   26.4234 N   0  0  0  0  0  0  0  0  0  0  0  0
    5.3104   -0.0125   27.8222 C   0  0  0  0  0  0  0  0  0  0  0  0
    6.6588   -0.5819   28.2143 C   0  0  0  0  0  0  0  0  0  0  0  0
    7.1154   -1.5839   27.1570 C   0  0  0  0  0  0  0  0  0  0  0  0
    7.3515   -0.7966   25.9021 C   0  0  0  0  0  0  0  0  0  0  0  0
    8.4696   -0.9763   25.0982 C   0  0  0  0  0  0  0  0  0  0  0  0
    8.6558   -0.2118   23.9548 C   0  0  0  0  0  0  0  0  0  0  0  0
    7.7215    0.7764   23.6516 C   0  0  0  0  0  0  0  0  0  0  0  0
    7.8731    1.5216   22.4558 N   0  0  0  0  0  0  0  0  0  0  0  0
    8.3328    2.9041   22.5490 C   0  0  0  0  0  0  0  0  0  0  0  0
    7.1882    3.8743   22.7437 C   0  0  0  0  0  0  0  0  0  0  0  0
    6.2798    4.0375   21.7029 C   0  0  0  0  0  0  0  0  0  0  0  0
    5.1865    4.8832   21.8394 C   0  0  0  0  0  0  0  0  0  0  0  0
    4.9529    5.5431   23.0405 C   0  0  0  0  0  0  0  0  0  0  0  0
    5.8477    5.3489   24.0825 C   0  0  0  0  0  0  0  0  0  0  0  0
    5.5237    6.1008   25.6253 Cl  0  0  0  0  0  0  0  0  0  0  0  0
    6.9763    4.5482   23.9453 C   0  0  0  0  0  0  0  0  0  0  0  0
    7.6895    0.9444   21.2233 C   0  0  0  0  0  0  0  0  0  0  0  0
    8.1426    1.4448   20.2149 O   0  0  0  0  0  0  0  0  0  0  0  0
    6.8757   -0.3550   21.1254 C   0  0  0  0  0  0  0  0  0  0  0  0
    5.8657   -0.2097   20.0225 C   0  0  0  0  0  0  0  0  0  0  0  0
    6.0650   -0.7777   18.7911 C   0  0  0  0  0  0  0  0  0  0  0  0
    5.2592   -0.6071   17.7110 N   0  0  0  0  0  0  0  0  0  0  0  0
    4.2185    0.1839   17.8549 C   0  0  0  0  0  0  0  0  0  0  0  0
    3.9195    0.8640   19.0698 C   0  0  0  0  0  0  0  0  0  0  0  0
    2.8316    1.7538   19.2096 C   0  0  0  0  0  0  0  0  0  0  0  0
    2.1447    2.0553   18.0958 F   0  0  0  0  0  0  0  0  0  0  0  0
    2.4410    2.2802   20.4055 C   0  0  0  0  0  0  0  0  0  0  0  0
    3.2453    2.0186   21.5308 C   0  0  0  0  0  0  0  0  0  0  0  0
    4.3905    1.2685   21.4232 C   0  0  0  0  0  0  0  0  0  0  0  0
    4.7381    0.6427   20.1978 C   0  0  0  0  0  0  0  0  0  0  0  0
    6.6308    1.0166   24.4652 C   0  0  0  0  0  0  0  0  0  0  0  0
    6.4315    0.2089   25.5828 C   0  0  0  0  0  0  0  0  0  0  0  0
  1  2  1  0
  2  3  1  0
  3  4  2  0
  3  5  1  0
  5  6  1  0
  6  7  1  0
  7  8  1  0
  8  9  1  0
  9 10  2  0
 10 11  1  0
 11 12  2  0
 12 13  1  0
 13 14  1  0
 14 15  1  0
 15 16  2  0
 16 17  1  0
 17 18  2  0
 18 19  1  0
 19 20  1  0
 19 21  2  0
 13 22  1  0
 22 23  2  0
 22 24  1  0
 24 25  1  0
 25 26  2  0
 26 27  1  0
 27 28  2  0
 28 29  1  0
 29 30  2  0
 30 31  1  0
 30 32  1  0
 32 33  2  0
 33 34  1  0
 34 35  2  0
 12 36  1  0
 36 37  2  0
 37  5  1  0
 37  9  1  0
 21 15  1  0
 35 25  1  0
 35 29  1  0
M  END
>  <cnnaffinities>  (141) 
[6.22617, 6.32806, 6.58774, 6.72164, 6.46541, 6.84748, 6.9595]

>  <score>  (141) 
6.22617

>  <index>  (141) 
69

>  <Smiles>  (141) 
C(C(C(=O)N1C(C(C(c2c(c(c(N(C(c3c(c(c(c(Cl)c3[H])[H])[H])[H])([H])[H])C(=O)C(c3c(nc(c4c(F)c(c(c(c34)[H])[H])[H])[H])[H])([H])[H])c(c12)[H])[H])[H])([H])[H])([H])[H])([H])[H])([H])[H])([H])([H])[H]

>  <h>  (141) 
<NA>

>  <Training>  (141) 
True

>  <Success>  (141) 
True

>  <enamine_searched>  (141) 
False

>  <enamine_id>  (141) 
nan

>  <SMILES>  (141) 
CCC(=O)N1CCCc2ccc(N(Cc3cccc(Cl)c3)C(=O)Cc3cncc4c(F)cccc34)cc21

>  <LABEL>  (141) 
MERS-CoV Mpro

$$$$
ligand_69
     RDKit          3D

 35 40  0  0  0  0  0  0  0  0999 V2000
    8.3729   -2.9119   23.5787 C   0  0  0  0  0  0  0  0  0  0  0  0
    8.4142   -1.9056   22.4361 C   0  0  1  0  0  0  0  0  0  0  0  0
    7.0794   -1.7292   21.6993 C   0  0  0  0  0  0  0  0  0  0  0  0
    7.2425   -0.4396   21.0560 N   0  0  0  0  0  0  0  0  0  0  0  0
    6.4111    0.0540   20.0161 C   0  0  0  0  0  0  0  0  0  0  0  0
    6.7343   -0.2082   18.7087 C   0  0  0  0  0  0  0  0  0  0  0  0
    6.0182    0.2122   17.6369 N   0  0  0  0  0  0  0  0  0  0  0  0
    4.9370    0.9206   17.8757 C   0  0  0  0  0  0  0  0  0  0  0  0
    4.4686    1.2501   19.1806 C   0  0  0  0  0  0  0  0  0  0  0  0
    3.2927    2.0236   19.4013 C   0  0  0  0  0  0  0  0  0  0  0  0
    2.8747    2.3061   20.6738 C   0  0  0  0  0  0  0  0  0  0  0  0
    3.6027    1.8308   21.7890 C   0  0  0  0  0  0  0  0  0  0  0  0
    4.7522    1.1008   21.6030 C   0  0  0  0  0  0  0  0  0  0  0  0
    5.2185    0.7954   20.2954 C   0  0  0  0  0  0  0  0  0  0  0  0
    8.2356    0.3372   21.6199 C   0  0  0  0  0  0  0  0  0  0  0  0
    8.5417    1.4360   21.2216 O   0  0  0  0  0  0  0  0  0  0  0  0
    8.8471   -0.4590   22.8044 C   0  0  1  0  0  0  0  0  0  0  0  0
    8.2087    0.0072   24.1416 C   0  0  0  0  0  0  0  0  0  0  0  0
    8.5462    1.3840   24.4601 N   0  0  0  0  0  0  0  0  0  0  0  0
    7.5856    2.1677   25.2110 C   0  0  0  0  0  0  0  0  0  0  0  0
    6.7213    3.0332   24.3408 C   0  0  0  0  0  0  0  0  0  0  0  0
    5.4998    3.4889   24.7056 N   0  0  0  0  0  0  0  0  0  0  0  0
    5.0653    4.2069   23.7042 N   0  0  0  0  0  0  0  0  0  0  0  0
    6.0096    4.1854   22.7945 N   0  0  0  0  0  0  0  0  0  0  0  0
    5.8644    4.7910   21.4942 C   0  0  0  0  0  0  0  0  0  0  0  0
    7.0577    3.4530   23.1270 N   0  0  0  0  0  0  0  0  0  0  0  0
    9.8028    1.8921   24.2544 C   0  0  0  0  0  0  0  0  0  0  0  0
   10.1156    3.0145   24.6242 O   0  0  0  0  0  0  0  0  0  0  0  0
   10.7704    0.9708   23.5582 C   0  0  0  0  0  0  0  0  0  0  0  0
   12.1227    1.3198   23.5595 C   0  0  0  0  0  0  0  0  0  0  0  0
   13.0644    0.5200   22.9392 C   0  0  0  0  0  0  0  0  0  0  0  0
   12.6170   -0.6458   22.3236 C   0  0  0  0  0  0  0  0  0  0  0  0
   13.5128   -1.4333   21.7035 F   0  0  0  0  0  0  0  0  0  0  0  0
   11.2884   -1.0216   22.3023 C   0  0  0  0  0  0  0  0  0  0  0  0
   10.3346   -0.2019   22.9168 C   0  0  0  0  0  0  0  0  0  0  0  0
  2  1  1  1
  2  3  1  0
  3  4  1  0
  4  5  1  0
  5  6  2  0
  6  7  1  0
  7  8  2  0
  8  9  1  0
  9 10  2  0
 10 11  1  0
 11 12  2  0
 12 13  1  0
 13 14  2  0
  4 15  1  0
 15 16  2  0
 15 17  1  0
 17 18  1  1
 18 19  1  0
 19 20  1  0
 20 21  1  0
 21 22  1  0
 22 23  2  0
 23 24  1  0
 24 25  1  0
 24 26  1  0
 19 27  1  0
 27 28  2  0
 27 29  1  0
 29 30  2  0
 30 31  1  0
 31 32  2  0
 32 33  1  0
 32 34  1  0
 34 35  2  0
 17  2  1  0
 26 21  2  0
 35 29  1  0
 14  5  1  0
 35 17  1  0
 14  9  1  0
M  END
>  <template_ligand>  (142) 
mol-218

>  <template_receptor>  (142) 
receptors/receptor-218.pdb

>  <SMILES>  (142) 
CC1CN(c2cncc3ccccc23)C(=O)C12CN(Cc1nnn(C)n1)C(=O)c1ccc(F)cc12

>  <LABEL>  (142) 
MERS-CoV Mpro

$$$$
ligand_45
     RDKit          3D

 31 35  0  0  0  0  0  0  0  0999 V2000
   -9.2026   -3.6523  -23.8821 C   0  0  0  0  0  0  0  0  0  0  0  0
   -9.1739   -2.6893  -22.6955 C   0  0  1  0  0  0  0  0  0  0  0  0
   -7.7839   -2.5166  -22.0550 C   0  0  0  0  0  0  0  0  0  0  0  0
   -7.9317   -1.2601  -21.3460 N   0  0  0  0  0  0  0  0  0  0  0  0
   -7.0806   -0.7924  -20.3211 C   0  0  0  0  0  0  0  0  0  0  0  0
   -7.3728   -1.0856  -19.0129 C   0  0  0  0  0  0  0  0  0  0  0  0
   -6.6349   -0.6736  -17.9516 N   0  0  0  0  0  0  0  0  0  0  0  0
   -5.5790    0.0607  -18.2148 C   0  0  0  0  0  0  0  0  0  0  0  0
   -5.1719    0.4463  -19.5248 C   0  0  0  0  0  0  0  0  0  0  0  0
   -4.0256    1.2502  -19.7477 C   0  0  0  0  0  0  0  0  0  0  0  0
   -3.6555    1.6028  -21.0155 C   0  0  0  0  0  0  0  0  0  0  0  0
   -4.4152    1.1727  -22.1252 C   0  0  0  0  0  0  0  0  0  0  0  0
   -5.5349    0.4001  -21.9382 C   0  0  0  0  0  0  0  0  0  0  0  0
   -5.9391    0.0147  -20.6275 C   0  0  0  0  0  0  0  0  0  0  0  0
   -9.0683   -0.5579  -21.6828 C   0  0  0  0  0  0  0  0  0  0  0  0
   -9.4758    0.4019  -21.0662 O   0  0  0  0  0  0  0  0  0  0  0  0
   -9.6673   -1.2322  -22.9378 C   0  0  1  0  0  0  0  0  0  0  0  0
   -9.0522   -0.6197  -24.2116 C   0  0  0  0  0  0  0  0  0  0  0  0
   -9.6015    0.6962  -24.4595 N   0  0  0  0  0  0  0  0  0  0  0  0
   -8.7553    1.8558  -24.5318 C   0  0  0  0  0  0  0  0  0  0  0  0
   -8.4545    2.5358  -23.2494 C   0  0  0  0  0  0  0  0  0  0  0  0
   -8.1336    3.1352  -22.3134 N   0  0  0  0  0  0  0  0  0  0  0  0
  -10.9537    0.8384  -24.6711 C   0  0  0  0  0  0  0  0  0  0  0  0
  -11.4326    1.6846  -25.4053 O   0  0  0  0  0  0  0  0  0  0  0  0
  -11.7707   -0.1056  -23.8429 C   0  0  0  0  0  0  0  0  0  0  0  0
  -13.1515    0.0913  -23.8369 C   0  0  0  0  0  0  0  0  0  0  0  0
  -13.9538   -0.6077  -22.9531 C   0  0  0  0  0  0  0  0  0  0  0  0
  -13.3412   -1.5142  -22.0917 C   0  0  0  0  0  0  0  0  0  0  0  0
  -14.1028   -2.1758  -21.2012 F   0  0  0  0  0  0  0  0  0  0  0  0
  -11.9794   -1.7403  -22.0892 C   0  0  0  0  0  0  0  0  0  0  0  0
  -11.1638   -1.0452  -22.9921 C   0  0  0  0  0  0  0  0  0  0  0  0
  2  1  1  6
  2  3  1  0
  3  4  1  0
  4  5  1  0
  5  6  2  0
  6  7  1  0
  7  8  2  0
  8  9  1  0
  9 10  2  0
 10 11  1  0
 11 12  2  0
 12 13  1  0
 13 14  2  0
  4 15  1  0
 15 16  2  0
 15 17  1  0
 17 18  1  6
 18 19  1  0
 19 20  1  0
 20 21  1  0
 21 22  3  0
 19 23  1  0
 23 24  2  0
 23 25  1  0
 25 26  2  0
 26 27  1  0
 27 28  2  0
 28 29  1  0
 28 30  1  0
 30 31  2  0
 17  2  1  0
 31 25  1  0
 14  5  1  0
 31 17  1  0
 14  9  1  0
M  END
>  <template_ligand>  (143) 
mol-246

>  <template_receptor>  (143) 
receptors/receptor-246.pdb

>  <SMILES>  (143) 
CC1CN(c2cncc3ccccc23)C(=O)C12CN(CC#N)C(=O)c1ccc(F)cc12

>  <LABEL>  (143) 
SARS-CoV-2 Mpro

$$$$
ligand_70
     RDKit          3D

 35 40  0  0  0  0  0  0  0  0999 V2000
    8.3731   -2.9123   23.5792 C   0  0  0  0  0  0  0  0  0  0  0  0
    8.4150   -1.9068   22.4355 C   0  0  1  0  0  0  0  0  0  0  0  0
    7.0800   -1.7289   21.6999 C   0  0  0  0  0  0  0  0  0  0  0  0
    7.2411   -0.4389   21.0575 N   0  0  0  0  0  0  0  0  0  0  0  0
    6.4101    0.0510   20.0148 C   0  0  0  0  0  0  0  0  0  0  0  0
    6.7340   -0.2089   18.7082 C   0  0  0  0  0  0  0  0  0  0  0  0
    6.0161    0.2131   17.6360 N   0  0  0  0  0  0  0  0  0  0  0  0
    4.9348    0.9193   17.8734 C   0  0  0  0  0  0  0  0  0  0  0  0
    4.4637    1.2444   19.1789 C   0  0  0  0  0  0  0  0  0  0  0  0
    3.2892    2.0191   19.3995 C   0  0  0  0  0  0  0  0  0  0  0  0
    2.8767    2.3044   20.6715 C   0  0  0  0  0  0  0  0  0  0  0  0
    3.6019    1.8214   21.7856 C   0  0  0  0  0  0  0  0  0  0  0  0
    4.7374    1.0702   21.5990 C   0  0  0  0  0  0  0  0  0  0  0  0
    5.2101    0.7834   20.2917 C   0  0  0  0  0  0  0  0  0  0  0  0
    8.2389    0.3355   21.6170 C   0  0  0  0  0  0  0  0  0  0  0  0
    8.5513    1.4302   21.2126 O   0  0  0  0  0  0  0  0  0  0  0  0
    8.8475   -0.4611   22.8036 C   0  0  1  0  0  0  0  0  0  0  0  0
    8.2056    0.0038   24.1404 C   0  0  0  0  0  0  0  0  0  0  0  0
    8.5391    1.3798   24.4547 N   0  0  0  0  0  0  0  0  0  0  0  0
    7.6055    2.1706   25.2361 C   0  0  0  0  0  0  0  0  0  0  0  0
    6.9175    3.2307   24.4186 C   0  0  0  0  0  0  0  0  0  0  0  0
    6.8144    3.2016   23.1097 N   0  0  0  0  0  0  0  0  0  0  0  0
    6.0774    4.3082   22.7772 C   0  0  0  0  0  0  0  0  0  0  0  0
    5.7198    5.0013   23.9047 C   0  0  0  0  0  0  0  0  0  0  0  0
    6.2594    4.2965   24.9599 N   0  0  0  0  0  0  0  0  0  0  0  0
    6.1712    4.6297   26.3653 C   0  0  0  0  0  0  0  0  0  0  0  0
    9.7943    1.8855   24.2512 C   0  0  0  0  0  0  0  0  0  0  0  0
   10.1044    3.0061   24.6253 O   0  0  0  0  0  0  0  0  0  0  0  0
   10.7679    0.9698   23.5583 C   0  0  0  0  0  0  0  0  0  0  0  0
   12.1204    1.3205   23.5606 C   0  0  0  0  0  0  0  0  0  0  0  0
   13.0618    0.5209   22.9396 C   0  0  0  0  0  0  0  0  0  0  0  0
   12.6166   -0.6455   22.3235 C   0  0  0  0  0  0  0  0  0  0  0  0
   13.5126   -1.4328   21.7037 F   0  0  0  0  0  0  0  0  0  0  0  0
   11.2886   -1.0219   22.3027 C   0  0  0  0  0  0  0  0  0  0  0  0
   10.3345   -0.2034   22.9171 C   0  0  0  0  0  0  0  0  0  0  0  0
  2  1  1  1
  2  3  1  0
  3  4  1  0
  4  5  1  0
  5  6  2  0
  6  7  1  0
  7  8  2  0
  8  9  1  0
  9 10  2  0
 10 11  1  0
 11 12  2  0
 12 13  1  0
 13 14  2  0
  4 15  1  0
 15 16  2  0
 15 17  1  0
 17 18  1  1
 18 19  1  0
 19 20  1  0
 20 21  1  0
 21 22  2  0
 22 23  1  0
 23 24  2  0
 24 25  1  0
 25 26  1  0
 19 27  1  0
 27 28  2  0
 27 29  1  0
 29 30  2  0
 30 31  1  0
 31 32  2  0
 32 33  1  0
 32 34  1  0
 34 35  2  0
 17  2  1  0
 25 21  1  0
 35 29  1  0
 14  5  1  0
 35 17  1  0
 14  9  1  0
M  END
>  <template_ligand>  (144) 
mol-218

>  <template_receptor>  (144) 
receptors/receptor-218.pdb

>  <SMILES>  (144) 
CC1CN(c2cncc3ccccc23)C(=O)C12CN(Cc1nccn1C)C(=O)c1ccc(F)cc12

>  <LABEL>  (144) 
MERS-CoV Mpro

$$$$
ligand_71
     RDKit          3D

 36 40  0  0  0  0  0  0  0  0999 V2000
    6.3479    4.4418   22.4454 C   0  0  0  0  0  0  0  0  0  0  0  0
    7.1643    3.5423   23.2390 N   0  0  0  0  0  0  0  0  0  0  0  0
    6.8304    3.2664   24.5172 C   0  0  0  0  0  0  0  0  0  0  0  0
    5.9257    3.8407   25.1119 O   0  0  0  0  0  0  0  0  0  0  0  0
    7.6221    2.1649   25.2387 C   0  0  0  0  0  0  0  0  0  0  0  0
    8.5455    1.3888   24.4406 N   0  0  0  0  0  0  0  0  0  0  0  0
    8.2053    0.0110   24.1481 C   0  0  0  0  0  0  0  0  0  0  0  0
    8.8403   -0.4542   22.8185 C   0  0  2  0  0  0  0  0  0  0  0  0
    8.2245    0.3298   21.6340 C   0  0  0  0  0  0  0  0  0  0  0  0
    8.5174    1.4509   21.2585 O   0  0  0  0  0  0  0  0  0  0  0  0
    7.2484   -0.4498   21.0568 N   0  0  0  0  0  0  0  0  0  0  0  0
    6.4148    0.0443   20.0162 C   0  0  0  0  0  0  0  0  0  0  0  0
    6.7403   -0.2067   18.7093 C   0  0  0  0  0  0  0  0  0  0  0  0
    6.0204    0.2157   17.6370 N   0  0  0  0  0  0  0  0  0  0  0  0
    4.9376    0.9171   17.8811 C   0  0  0  0  0  0  0  0  0  0  0  0
    4.4755    1.2502   19.1882 C   0  0  0  0  0  0  0  0  0  0  0  0
    3.2974    2.0158   19.4026 C   0  0  0  0  0  0  0  0  0  0  0  0
    2.8739    2.2990   20.6727 C   0  0  0  0  0  0  0  0  0  0  0  0
    3.6051    1.8286   21.7863 C   0  0  0  0  0  0  0  0  0  0  0  0
    4.7533    1.0974   21.6035 C   0  0  0  0  0  0  0  0  0  0  0  0
    5.2286    0.7954   20.2976 C   0  0  0  0  0  0  0  0  0  0  0  0
    7.0717   -1.7363   21.6973 C   0  0  0  0  0  0  0  0  0  0  0  0
    8.3820   -1.9112   22.4825 C   0  0  2  0  0  0  0  0  0  0  0  0
    8.2347   -2.8458   23.5875 N   0  0  0  0  0  0  0  0  0  0  0  0
    9.3410   -3.5107   24.0671 C   0  0  0  0  0  0  0  0  0  0  0  0
    9.1685   -4.2896   25.3570 C   0  0  0  0  0  0  0  0  0  0  0  0
   10.4141   -3.4680   23.4937 O   0  0  0  0  0  0  0  0  0  0  0  0
   10.3319   -0.1857   22.9079 C   0  0  0  0  0  0  0  0  0  0  0  0
   11.2796   -0.9868   22.2657 C   0  0  0  0  0  0  0  0  0  0  0  0
   12.6155   -0.6322   22.2862 C   0  0  0  0  0  0  0  0  0  0  0  0
   13.7782   -1.6590   21.4928 Cl  0  0  0  0  0  0  0  0  0  0  0  0
   13.0593    0.5220   22.9304 C   0  0  0  0  0  0  0  0  0  0  0  0
   12.1284    1.3184   23.5652 C   0  0  0  0  0  0  0  0  0  0  0  0
   10.7800    0.9699   23.5651 C   0  0  0  0  0  0  0  0  0  0  0  0
    9.8135    1.8774   24.2682 C   0  0  0  0  0  0  0  0  0  0  0  0
   10.1193    3.0018   24.6427 O   0  0  0  0  0  0  0  0  0  0  0  0
  1  2  1  0
  2  3  1  0
  3  4  2  0
  3  5  1  0
  5  6  1  0
  6  7  1  0
  8  7  1  1
  8  9  1  0
  9 10  2  0
  9 11  1  0
 11 12  1  0
 12 13  2  0
 13 14  1  0
 14 15  2  0
 15 16  1  0
 16 17  2  0
 17 18  1  0
 18 19  2  0
 19 20  1  0
 20 21  2  0
 11 22  1  0
 22 23  1  0
 23 24  1  1
 24 25  1  0
 25 26  1  0
 25 27  2  0
  8 28  1  0
 28 29  2  0
 29 30  1  0
 30 31  1  0
 30 32  2  0
 32 33  1  0
 33 34  2  0
 34 35  1  0
 35 36  2  0
 35  6  1  0
 23  8  1  0
 34 28  1  0
 21 12  1  0
 21 16  1  0
M  END
>  <template_ligand>  (145) 
mol-218

>  <template_receptor>  (145) 
receptors/receptor-218.pdb

>  <SMILES>  (145) 
CNC(=O)CN1CC2(C(=O)N(c3cncc4ccccc34)CC2NC(C)=O)c2cc(Cl)ccc2C1=O

>  <LABEL>  (145) 
MERS-CoV Mpro

$$$$

     RDKit          3D

 23 26  0  0  0  0  0  0  0  0999 V2000
   -8.6552    0.7030  -21.2778 O   0  0  0  0  0  0  0  0  0  0  0  0
   -8.6395   -0.4437  -21.7006 C   0  0  0  0  0  0  0  0  0  0  0  0
   -7.5214   -1.4109  -21.2833 C   0  0  0  0  0  0  0  0  0  0  0  0
   -6.6484   -0.8446  -20.1950 C   0  0  0  0  0  0  0  0  0  0  0  0
   -6.9584   -1.0659  -18.8823 C   0  0  0  0  0  0  0  0  0  0  0  0
   -6.2856   -0.5735  -17.8056 N   0  0  0  0  0  0  0  0  0  0  0  0
   -5.2447    0.1875  -18.0657 C   0  0  0  0  0  0  0  0  0  0  0  0
   -4.7992    0.5096  -19.3767 C   0  0  0  0  0  0  0  0  0  0  0  0
   -3.6634    1.3305  -19.6024 C   0  0  0  0  0  0  0  0  0  0  0  0
   -3.2628    1.6209  -20.8781 C   0  0  0  0  0  0  0  0  0  0  0  0
   -3.9841    1.1140  -21.9793 C   0  0  0  0  0  0  0  0  0  0  0  0
   -5.0923    0.3284  -21.7873 C   0  0  0  0  0  0  0  0  0  0  0  0
   -5.5250   -0.0073  -20.4772 C   0  0  0  0  0  0  0  0  0  0  0  0
   -9.6213   -0.9370  -22.5267 N   0  0  0  0  0  0  0  0  0  0  0  0
   -9.5826   -2.2395  -23.2062 C   0  0  0  0  0  0  0  0  0  0  0  0
  -10.3181   -3.3440  -22.4320 C   0  0  0  0  0  0  0  0  0  0  0  0
  -11.5432   -2.7729  -21.6921 C   0  0  0  0  0  0  0  0  0  0  0  0
  -12.4375   -1.8308  -22.4788 C   0  0  0  0  0  0  0  0  0  0  0  0
  -14.1507   -2.0928  -22.6402 S   0  0  0  0  0  0  0  0  0  0  0  0
  -14.3751   -0.5531  -23.3848 C   0  0  0  0  0  0  0  0  0  0  0  0
  -13.2023    0.1218  -23.5031 C   0  0  0  0  0  0  0  0  0  0  0  0
  -12.0752   -0.6085  -22.9777 C   0  0  0  0  0  0  0  0  0  0  0  0
  -10.6821   -0.0068  -22.9078 C   0  0  0  0  0  0  0  0  0  0  0  0
  1  2  2  0
  2  3  1  0
  3  4  1  0
  4  5  2  0
  5  6  1  0
  6  7  2  0
  7  8  1  0
  8  9  2  0
  9 10  1  0
 10 11  2  0
 11 12  1  0
 12 13  2  0
  2 14  1  0
 14 15  1  0
 15 16  1  0
 16 17  1  0
 17 18  1  0
 18 19  1  0
 19 20  1  0
 20 21  2  0
 21 22  1  0
 22 23  1  0
 13  4  1  0
 23 14  1  0
 13  8  1  0
 22 18  2  0
M  END
>  <cnnaffinities>  (146) 
[5.62526, 5.41941, 5.3597, 5.23042, 5.20166, 5.07236, 5.15493, 5.11482, 5.01826, 5.2796]

>  <score>  (146) 
5.62526

>  <index>  (146) 
72

>  <Smiles>  (146) 
O=C(C(c1c(nc(c2c(c(c(c(c12)[H])[H])[H])[H])[H])[H])([H])[H])N1C(C(C(c2sc(c(c2C1([H])[H])[H])[H])([H])[H])([H])[H])([H])[H]

>  <h>  (146) 
<NA>

>  <Training>  (146) 
True

>  <Success>  (146) 
True

>  <enamine_searched>  (146) 
False

>  <enamine_id>  (146) 
nan

>  <SMILES>  (146) 
O=C(Cc1cncc2ccccc12)N1CCCc2sccc2C1

>  <LABEL>  (146) 
SARS-CoV-2 Mpro

$$$$
ligand_72
     RDKit          3D

 26 29  0  0  0  0  0  0  0  0999 V2000
   -8.8545    0.3002  -21.3950 O   0  0  0  0  0  0  0  0  0  0  0  0
   -8.4663   -0.7638  -21.8139 C   0  0  0  0  0  0  0  0  0  0  0  0
   -7.4158   -1.5987  -21.1038 C   0  0  0  0  0  0  0  0  0  0  0  0
   -6.6597   -0.9134  -20.0054 C   0  0  0  0  0  0  0  0  0  0  0  0
   -6.9962   -1.1278  -18.6966 C   0  0  0  0  0  0  0  0  0  0  0  0
   -6.3421   -0.6240  -17.6147 N   0  0  0  0  0  0  0  0  0  0  0  0
   -5.3021    0.1349  -17.8683 C   0  0  0  0  0  0  0  0  0  0  0  0
   -4.8579    0.4798  -19.1773 C   0  0  0  0  0  0  0  0  0  0  0  0
   -3.7471    1.3391  -19.3998 C   0  0  0  0  0  0  0  0  0  0  0  0
   -3.3553    1.6574  -20.6738 C   0  0  0  0  0  0  0  0  0  0  0  0
   -4.0534    1.1249  -21.7821 C   0  0  0  0  0  0  0  0  0  0  0  0
   -5.1300    0.2904  -21.5976 C   0  0  0  0  0  0  0  0  0  0  0  0
   -5.5611   -0.0536  -20.2846 C   0  0  0  0  0  0  0  0  0  0  0  0
   -9.0259   -1.4133  -22.9671 N   0  0  0  0  0  0  0  0  0  0  0  0
  -10.4834   -1.4052  -23.0039 C   0  0  0  0  0  0  0  0  0  0  0  0
  -11.1542   -0.1496  -23.6138 C   0  0  0  0  0  0  0  0  0  0  0  0
  -10.2017    0.9049  -24.2355 C   0  0  0  0  0  0  0  0  0  0  0  0
   -8.7736    0.4412  -24.6274 C   0  0  0  0  0  0  0  0  0  0  0  0
   -8.4079   -1.0053  -24.2383 C   0  0  2  0  0  0  0  0  0  0  0  0
   -8.7108   -1.9722  -25.3972 C   0  0  0  0  0  0  0  0  0  0  0  0
   -8.3542   -3.3983  -25.0718 C   0  0  0  0  0  0  0  0  0  0  0  0
   -7.0196   -3.7583  -24.8774 C   0  0  0  0  0  0  0  0  0  0  0  0
   -6.6787   -5.0582  -24.5252 C   0  0  0  0  0  0  0  0  0  0  0  0
   -7.6728   -6.0164  -24.3607 C   0  0  0  0  0  0  0  0  0  0  0  0
   -9.0034   -5.6691  -24.5559 C   0  0  0  0  0  0  0  0  0  0  0  0
   -9.3398   -4.3668  -24.9078 C   0  0  0  0  0  0  0  0  0  0  0  0
  1  2  2  0
  2  3  1  0
  3  4  1  0
  4  5  2  0
  5  6  1  0
  6  7  2  0
  7  8  1  0
  8  9  2  0
  9 10  1  0
 10 11  2  0
 11 12  1  0
 12 13  2  0
  2 14  1  0
 14 15  1  0
 15 16  1  0
 16 17  1  0
 17 18  1  0
 18 19  1  0
 19 20  1  6
 20 21  1  0
 21 22  2  0
 22 23  1  0
 23 24  2  0
 24 25  1  0
 25 26  2  0
 13  4  1  0
 19 14  1  0
 26 21  1  0
 13  8  1  0
M  END
>  <template_ligand>  (147) 
mol-180

>  <template_receptor>  (147) 
receptors/receptor-180.pdb

>  <SMILES>  (147) 
O=C(Cc1cncc2ccccc12)N1CCCCC1Cc1ccccc1

>  <LABEL>  (147) 
SARS-CoV-2 Mpro

$$$$
ligand_72
     RDKit          3D

 32 37  0  0  0  0  0  0  0  0999 V2000
    8.3033   -2.8924   23.6089 C   0  0  0  0  0  0  0  0  0  0  0  0
    8.3616   -1.8986   22.4583 C   0  0  1  0  0  0  0  0  0  0  0  0
    7.0463   -1.7315   21.6902 C   0  0  0  0  0  0  0  0  0  0  0  0
    7.2367   -0.4557   21.0250 N   0  0  0  0  0  0  0  0  0  0  0  0
    6.4083    0.0350   19.9828 C   0  0  0  0  0  0  0  0  0  0  0  0
    6.7486   -0.1991   18.6768 C   0  0  0  0  0  0  0  0  0  0  0  0
    6.0435    0.2431   17.6043 N   0  0  0  0  0  0  0  0  0  0  0  0
    4.9595    0.9454   17.8443 C   0  0  0  0  0  0  0  0  0  0  0  0
    4.4698    1.2370   19.1513 C   0  0  0  0  0  0  0  0  0  0  0  0
    3.2963    2.0112   19.3741 C   0  0  0  0  0  0  0  0  0  0  0  0
    2.8613    2.2558   20.6487 C   0  0  0  0  0  0  0  0  0  0  0  0
    3.5666    1.7409   21.7604 C   0  0  0  0  0  0  0  0  0  0  0  0
    4.7063    0.9997   21.5721 C   0  0  0  0  0  0  0  0  0  0  0  0
    5.1972    0.7454   20.2616 C   0  0  0  0  0  0  0  0  0  0  0  0
    8.2149    0.3300   21.6036 C   0  0  0  0  0  0  0  0  0  0  0  0
    8.5336    1.4255   21.2029 O   0  0  0  0  0  0  0  0  0  0  0  0
    8.7818   -0.4500   22.8220 C   0  0  1  0  0  0  0  0  0  0  0  0
    8.0869    0.0396   24.1280 C   0  0  0  0  0  0  0  0  0  0  0  0
    8.4475    1.4114   24.4588 N   0  0  0  0  0  0  0  0  0  0  0  0
    7.4697    2.2564   25.1273 C   0  0  0  0  0  0  0  0  0  0  0  0
    7.8907    2.9896   26.4361 C   0  0  0  0  0  0  0  0  0  0  0  0
    7.6823    4.3559   25.7901 N   0  0  0  0  0  0  0  0  0  0  0  0
    7.2286    3.6618   24.5111 C   0  0  0  0  0  0  0  0  0  0  0  0
    9.7113    1.8972   24.2621 C   0  0  0  0  0  0  0  0  0  0  0  0
   10.0271    3.0439   24.5922 O   0  0  0  0  0  0  0  0  0  0  0  0
   10.6970    0.9535   23.6396 C   0  0  0  0  0  0  0  0  0  0  0  0
   12.0554    1.2804   23.6832 C   0  0  0  0  0  0  0  0  0  0  0  0
   12.9987    0.4768   23.0699 C   0  0  0  0  0  0  0  0  0  0  0  0
   12.5668   -0.6749   22.4099 C   0  0  0  0  0  0  0  0  0  0  0  0
   13.7256   -1.6733   21.5762 Cl  0  0  0  0  0  0  0  0  0  0  0  0
   11.2297   -1.0274   22.3695 C   0  0  0  0  0  0  0  0  0  0  0  0
   10.2688   -0.2097   22.9789 C   0  0  0  0  0  0  0  0  0  0  0  0
  2  1  1  1
  2  3  1  0
  3  4  1  0
  4  5  1  0
  5  6  2  0
  6  7  1  0
  7  8  2  0
  8  9  1  0
  9 10  2  0
 10 11  1  0
 11 12  2  0
 12 13  1  0
 13 14  2  0
  4 15  1  0
 15 16  2  0
 15 17  1  0
 17 18  1  1
 18 19  1  0
 19 20  1  0
 20 21  1  0
 21 22  1  0
 22 23  1  0
 19 24  1  0
 24 25  2  0
 24 26  1  0
 26 27  2  0
 27 28  1  0
 28 29  2  0
 29 30  1  0
 29 31  1  0
 31 32  2  0
 17  2  1  0
 23 20  1  0
 32 26  1  0
 14  5  1  0
 32 17  1  0
 14  9  1  0
M  CHG  1  22   1
M  END
>  <template_ligand>  (148) 
mol-295

>  <template_receptor>  (148) 
receptors/receptor-295.pdb

>  <SMILES>  (148) 
CC1CN(c2cncc3ccccc23)C(=O)C12CN(C1C[NH2+]C1)C(=O)c1ccc(Cl)cc12

>  <LABEL>  (148) 
MERS-CoV Mpro

$$$$
ligand_73
     RDKit          3D

 34 39  0  0  0  0  0  0  0  0999 V2000
    8.3732   -2.9124   23.5784 C   0  0  0  0  0  0  0  0  0  0  0  0
    8.4136   -1.9091   22.4340 C   0  0  1  0  0  0  0  0  0  0  0  0
    7.0791   -1.7279   21.6989 C   0  0  0  0  0  0  0  0  0  0  0  0
    7.2437   -0.4384   21.0554 N   0  0  0  0  0  0  0  0  0  0  0  0
    6.4117    0.0532   20.0155 C   0  0  0  0  0  0  0  0  0  0  0  0
    6.7337   -0.2093   18.7090 C   0  0  0  0  0  0  0  0  0  0  0  0
    6.0161    0.2126   17.6374 N   0  0  0  0  0  0  0  0  0  0  0  0
    4.9348    0.9199   17.8735 C   0  0  0  0  0  0  0  0  0  0  0  0
    4.4642    1.2436   19.1796 C   0  0  0  0  0  0  0  0  0  0  0  0
    3.2895    2.0183   19.3992 C   0  0  0  0  0  0  0  0  0  0  0  0
    2.8757    2.3036   20.6710 C   0  0  0  0  0  0  0  0  0  0  0  0
    3.5999    1.8179   21.7838 C   0  0  0  0  0  0  0  0  0  0  0  0
    4.7386    1.0706   21.5998 C   0  0  0  0  0  0  0  0  0  0  0  0
    5.2104    0.7815   20.2926 C   0  0  0  0  0  0  0  0  0  0  0  0
    8.2323    0.3394   21.6234 C   0  0  0  0  0  0  0  0  0  0  0  0
    8.5324    1.4449   21.2347 O   0  0  0  0  0  0  0  0  0  0  0  0
    8.8487   -0.4655   22.8029 C   0  0  1  0  0  0  0  0  0  0  0  0
    8.2077   -0.0039   24.1370 C   0  0  0  0  0  0  0  0  0  0  0  0
    8.5359    1.3723   24.4411 N   0  0  0  0  0  0  0  0  0  0  0  0
    7.6077    2.1557   25.2227 C   0  0  0  0  0  0  0  0  0  0  0  0
    7.0205    3.3063   24.4682 C   0  0  0  0  0  0  0  0  0  0  0  0
    6.7305    4.5926   24.9806 C   0  0  0  0  0  0  0  0  0  0  0  0
    6.1766    5.2316   23.9272 C   0  0  0  0  0  0  0  0  0  0  0  0
    6.1297    4.4162   22.8666 O   0  0  0  0  0  0  0  0  0  0  0  0
    6.6610    3.1926   23.2109 N   0  0  0  0  0  0  0  0  0  0  0  0
    9.7869    1.8875   24.2414 C   0  0  0  0  0  0  0  0  0  0  0  0
   10.0902    3.0080   24.6213 O   0  0  0  0  0  0  0  0  0  0  0  0
   10.7668    0.9715   23.5559 C   0  0  0  0  0  0  0  0  0  0  0  0
   12.1206    1.3207   23.5601 C   0  0  0  0  0  0  0  0  0  0  0  0
   13.0627    0.5208   22.9396 C   0  0  0  0  0  0  0  0  0  0  0  0
   12.6168   -0.6446   22.3243 C   0  0  0  0  0  0  0  0  0  0  0  0
   13.5115   -1.4325   21.7039 F   0  0  0  0  0  0  0  0  0  0  0  0
   11.2897   -1.0224   22.3015 C   0  0  0  0  0  0  0  0  0  0  0  0
   10.3360   -0.2042   22.9150 C   0  0  0  0  0  0  0  0  0  0  0  0
  2  1  1  1
  2  3  1  0
  3  4  1  0
  4  5  1  0
  5  6  2  0
  6  7  1  0
  7  8  2  0
  8  9  1  0
  9 10  2  0
 10 11  1  0
 11 12  2  0
 12 13  1  0
 13 14  2  0
  4 15  1  0
 15 16  2  0
 15 17  1  0
 17 18  1  1
 18 19  1  0
 19 20  1  0
 20 21  1  0
 21 22  1  0
 22 23  2  0
 23 24  1  0
 24 25  1  0
 19 26  1  0
 26 27  2  0
 26 28  1  0
 28 29  2  0
 29 30  1  0
 30 31  2  0
 31 32  1  0
 31 33  1  0
 33 34  2  0
 17  2  1  0
 25 21  2  0
 34 28  1  0
 14  5  1  0
 34 17  1  0
 14  9  1  0
M  END
>  <template_ligand>  (149) 
mol-218

>  <template_receptor>  (149) 
receptors/receptor-218.pdb

>  <SMILES>  (149) 
CC1CN(c2cncc3ccccc23)C(=O)C12CN(Cc1ccon1)C(=O)c1ccc(F)cc12

>  <LABEL>  (149) 
MERS-CoV Mpro

$$$$
ligand_74
     RDKit          3D

 41 46  0  0  0  0  0  0  0  0999 V2000
    4.6306    8.6431   25.1885 C   0  0  0  0  0  0  0  0  0  0  0  0
    5.7987    9.0727   24.5299 O   0  0  0  0  0  0  0  0  0  0  0  0
    6.4524    8.1249   23.8035 C   0  0  0  0  0  0  0  0  0  0  0  0
    7.6627    8.5441   23.2468 C   0  0  0  0  0  0  0  0  0  0  0  0
    8.4634    7.6366   22.5728 C   0  0  0  0  0  0  0  0  0  0  0  0
    8.0503    6.3130   22.4308 C   0  0  0  0  0  0  0  0  0  0  0  0
    6.7905    5.9213   22.8710 C   0  0  0  0  0  0  0  0  0  0  0  0
    6.3377    4.5082   22.5345 C   0  0  0  0  0  0  0  0  0  0  0  0
    7.1172    3.4887   23.2199 N   0  0  0  0  0  0  0  0  0  0  0  0
    6.8027    3.2075   24.5051 C   0  0  0  0  0  0  0  0  0  0  0  0
    5.8855    3.7629   25.0973 O   0  0  0  0  0  0  0  0  0  0  0  0
    7.6403    2.1663   25.2531 C   0  0  0  0  0  0  0  0  0  0  0  0
    8.5525    1.3825   24.4508 N   0  0  0  0  0  0  0  0  0  0  0  0
    8.1987    0.0125   24.1216 C   0  0  0  0  0  0  0  0  0  0  0  0
    8.8448   -0.4447   22.7868 C   0  0  2  0  0  0  0  0  0  0  0  0
    8.2120    0.3524   21.6173 C   0  0  0  0  0  0  0  0  0  0  0  0
    8.4760    1.4874   21.2647 O   0  0  0  0  0  0  0  0  0  0  0  0
    7.2403   -0.4364   21.0456 N   0  0  0  0  0  0  0  0  0  0  0  0
    6.4120    0.0481   20.0036 C   0  0  0  0  0  0  0  0  0  0  0  0
    6.7554   -0.1984   18.6997 C   0  0  0  0  0  0  0  0  0  0  0  0
    6.0453    0.2242   17.6229 N   0  0  0  0  0  0  0  0  0  0  0  0
    4.9578    0.9189   17.8691 C   0  0  0  0  0  0  0  0  0  0  0  0
    4.4878    1.2468   19.1739 C   0  0  0  0  0  0  0  0  0  0  0  0
    3.3084    2.0112   19.3785 C   0  0  0  0  0  0  0  0  0  0  0  0
    2.8801    2.2946   20.6460 C   0  0  0  0  0  0  0  0  0  0  0  0
    3.6028    1.8325   21.7692 C   0  0  0  0  0  0  0  0  0  0  0  0
    4.7503    1.0975   21.5991 C   0  0  0  0  0  0  0  0  0  0  0  0
    5.2267    0.7927   20.2900 C   0  0  0  0  0  0  0  0  0  0  0  0
    7.0715   -1.7231   21.6949 C   0  0  0  0  0  0  0  0  0  0  0  0
    8.4141   -1.8937   22.4194 C   0  0  2  0  0  0  0  0  0  0  0  0
    8.3871   -2.9073   23.5572 C   0  0  0  0  0  0  0  0  0  0  0  0
   10.3350   -0.1861   22.8869 C   0  0  0  0  0  0  0  0  0  0  0  0
   11.2969   -1.0046   22.2793 C   0  0  0  0  0  0  0  0  0  0  0  0
   12.6304   -0.6387   22.3125 C   0  0  0  0  0  0  0  0  0  0  0  0
   13.8092   -1.6560   21.5393 Cl  0  0  0  0  0  0  0  0  0  0  0  0
   13.0615    0.5294   22.9374 C   0  0  0  0  0  0  0  0  0  0  0  0
   12.1240    1.3290   23.5541 C   0  0  0  0  0  0  0  0  0  0  0  0
   10.7778    0.9685   23.5490 C   0  0  0  0  0  0  0  0  0  0  0  0
    9.8296    1.8534   24.2968 C   0  0  0  0  0  0  0  0  0  0  0  0
   10.1790    2.9383   24.7432 O   0  0  0  0  0  0  0  0  0  0  0  0
    5.9931    6.8136   23.6081 C   0  0  0  0  0  0  0  0  0  0  0  0
  1  2  1  0
  2  3  1  0
  3  4  2  0
  4  5  1  0
  5  6  2  0
  6  7  1  0
  7  8  1  0
  8  9  1  0
  9 10  1  0
 10 11  2  0
 10 12  1  0
 12 13  1  0
 13 14  1  0
 15 14  1  1
 15 16  1  0
 16 17  2  0
 16 18  1  0
 18 19  1  0
 19 20  2  0
 20 21  1  0
 21 22  2  0
 22 23  1  0
 23 24  2  0
 24 25  1  0
 25 26  2  0
 26 27  1  0
 27 28  2  0
 18 29  1  0
 29 30  1  0
 30 31  1  1
 15 32  1  0
 32 33  2  0
 33 34  1  0
 34 35  1  0
 34 36  2  0
 36 37  1  0
 37 38  2  0
 38 39  1  0
 39 40  2  0
  7 41  2  0
 41  3  1  0
 39 13  1  0
 30 15  1  0
 38 32  1  0
 28 19  1  0
 28 23  1  0
M  END
>  <template_ligand>  (150) 
mol-218

>  <template_receptor>  (150) 
receptors/receptor-218.pdb

>  <SMILES>  (150) 
COc1cccc(CNC(=O)CN2CC3(C(=O)N(c4cncc5ccccc45)CC3C)c3cc(Cl)ccc3C2=O)c1

>  <LABEL>  (150) 
MERS-CoV Mpro

$$$$
ligand_73
     RDKit          3D

 27 31  0  0  0  0  0  0  0  0999 V2000
   -9.0084    0.4930  -21.3003 O   0  0  0  0  0  0  0  0  0  0  0  0
   -8.6743   -0.5951  -21.7049 C   0  0  0  0  0  0  0  0  0  0  0  0
   -9.1292   -1.2809  -22.7979 N   0  0  0  0  0  0  0  0  0  0  0  0
   -8.5893   -2.6073  -22.9290 C   0  0  2  0  0  0  0  0  0  0  0  0
   -8.0140   -3.0342  -24.2898 C   0  0  0  0  0  0  0  0  0  0  0  0
   -8.8777   -4.3165  -24.2517 C   0  0  2  0  0  0  0  0  0  0  0  0
   -9.7133   -4.6765  -25.4498 C   0  0  0  0  0  0  0  0  0  0  0  0
   -9.5586   -5.9564  -25.9869 C   0  0  0  0  0  0  0  0  0  0  0  0
  -10.2760   -6.3934  -27.0889 C   0  0  0  0  0  0  0  0  0  0  0  0
  -11.1872   -5.5399  -27.6946 C   0  0  0  0  0  0  0  0  0  0  0  0
  -11.3716   -4.2611  -27.1911 C   0  0  0  0  0  0  0  0  0  0  0  0
  -10.6433   -3.8397  -26.0841 C   0  0  0  0  0  0  0  0  0  0  0  0
  -10.9723   -2.2094  -25.5504 Cl  0  0  0  0  0  0  0  0  0  0  0  0
   -9.5769   -3.7835  -22.9807 C   0  0  0  0  0  0  0  0  0  0  0  0
   -7.6056   -2.6584  -21.7784 C   0  0  0  0  0  0  0  0  0  0  0  0
   -6.8943   -3.5779  -21.4620 O   0  0  0  0  0  0  0  0  0  0  0  0
   -7.6825   -1.4162  -21.1401 N   0  0  0  0  0  0  0  0  0  0  0  0
   -6.8445   -0.9369  -20.0938 C   0  0  0  0  0  0  0  0  0  0  0  0
   -7.1831   -1.1499  -18.7850 C   0  0  0  0  0  0  0  0  0  0  0  0
   -6.5510   -0.5844  -17.7224 N   0  0  0  0  0  0  0  0  0  0  0  0
   -5.5463    0.2240  -17.9639 C   0  0  0  0  0  0  0  0  0  0  0  0
   -5.0509    0.4938  -19.2710 C   0  0  0  0  0  0  0  0  0  0  0  0
   -3.9534    1.3705  -19.5009 C   0  0  0  0  0  0  0  0  0  0  0  0
   -3.4997    1.5856  -20.7723 C   0  0  0  0  0  0  0  0  0  0  0  0
   -4.1178    0.9419  -21.8690 C   0  0  0  0  0  0  0  0  0  0  0  0
   -5.1859    0.1036  -21.6754 C   0  0  0  0  0  0  0  0  0  0  0  0
   -5.6941   -0.1286  -20.3699 C   0  0  0  0  0  0  0  0  0  0  0  0
  1  2  2  0
  2  3  1  0
  4  3  1  0
  4  5  1  6
  5  6  1  0
  6  7  1  6
  7  8  2  0
  8  9  1  0
  9 10  2  0
 10 11  1  0
 11 12  2  0
 12 13  1  0
  6 14  1  0
  4 15  1  0
 15 16  2  0
 15 17  1  0
 17 18  1  0
 18 19  2  0
 19 20  1  0
 20 21  2  0
 21 22  1  0
 22 23  2  0
 23 24  1  0
 24 25  2  0
 25 26  1  0
 26 27  2  0
 17  2  1  0
 27 18  1  0
 14  4  1  0
 27 22  1  0
 12  7  1  0
M  END
>  <template_ligand>  (151) 
mol-109

>  <template_receptor>  (151) 
receptors/receptor-109.pdb

>  <SMILES>  (151) 
O=C1NC2(CC(c3ccccc3Cl)C2)C(=O)N1c1cncc2ccccc12

>  <LABEL>  (151) 
SARS-CoV-2 Mpro

$$$$
ligand_75
     RDKit          3D

 33 37  0  0  0  0  0  0  0  0999 V2000
    8.3799   -2.9080   23.5679 C   0  0  0  0  0  0  0  0  0  0  0  0
    8.4106   -1.8967   22.4261 C   0  0  1  0  0  0  0  0  0  0  0  0
    7.0758   -1.7345   21.6833 C   0  0  0  0  0  0  0  0  0  0  0  0
    7.2530   -0.4506   21.0319 N   0  0  0  0  0  0  0  0  0  0  0  0
    6.4134    0.0494   20.0060 C   0  0  0  0  0  0  0  0  0  0  0  0
    6.7420   -0.2077   18.7002 C   0  0  0  0  0  0  0  0  0  0  0  0
    6.0302    0.2206   17.6295 N   0  0  0  0  0  0  0  0  0  0  0  0
    4.9503    0.9264   17.8785 C   0  0  0  0  0  0  0  0  0  0  0  0
    4.4923    1.2581   19.1883 C   0  0  0  0  0  0  0  0  0  0  0  0
    3.3126    2.0214   19.4010 C   0  0  0  0  0  0  0  0  0  0  0  0
    2.8842    2.3056   20.6696 C   0  0  0  0  0  0  0  0  0  0  0  0
    3.6090    1.8380   21.7867 C   0  0  0  0  0  0  0  0  0  0  0  0
    4.7647    1.1128   21.6102 C   0  0  0  0  0  0  0  0  0  0  0  0
    5.2391    0.8066   20.3003 C   0  0  0  0  0  0  0  0  0  0  0  0
    8.1681    0.3527   21.6577 C   0  0  0  0  0  0  0  0  0  0  0  0
    8.3293    1.5363   21.4028 O   0  0  0  0  0  0  0  0  0  0  0  0
    8.8354   -0.4493   22.7966 C   0  0  1  0  0  0  0  0  0  0  0  0
    8.1937    0.0089   24.1287 C   0  0  0  0  0  0  0  0  0  0  0  0
    8.5522    1.3755   24.4559 N   0  0  0  0  0  0  0  0  0  0  0  0
    7.6293    2.1828   25.2349 C   0  0  0  0  0  0  0  0  0  0  0  0
    6.8228    3.2677   24.4758 C   0  0  0  0  0  0  0  0  0  0  0  0
    7.2509    3.5941   23.0716 N   0  0  0  0  0  0  0  0  0  0  0  0
    6.1861    4.3876   22.3900 C   0  0  0  0  0  0  0  0  0  0  0  0
    8.5591    4.3308   23.0178 C   0  0  0  0  0  0  0  0  0  0  0  0
    9.8593    1.7717   24.4168 C   0  0  0  0  0  0  0  0  0  0  0  0
   10.2624    2.7708   24.9995 O   0  0  0  0  0  0  0  0  0  0  0  0
   10.7827    0.9323   23.5842 C   0  0  0  0  0  0  0  0  0  0  0  0
   12.1265    1.3048   23.5602 C   0  0  0  0  0  0  0  0  0  0  0  0
   13.0635    0.5202   22.9186 C   0  0  0  0  0  0  0  0  0  0  0  0
   12.6292   -0.6476   22.2944 C   0  0  0  0  0  0  0  0  0  0  0  0
   13.8043   -1.6678   21.5067 Cl  0  0  0  0  0  0  0  0  0  0  0  0
   11.2933   -1.0126   22.2733 C   0  0  0  0  0  0  0  0  0  0  0  0
   10.3293   -0.1995   22.8931 C   0  0  0  0  0  0  0  0  0  0  0  0
  2  1  1  1
  2  3  1  0
  3  4  1  0
  4  5  1  0
  5  6  2  0
  6  7  1  0
  7  8  2  0
  8  9  1  0
  9 10  2  0
 10 11  1  0
 11 12  2  0
 12 13  1  0
 13 14  2  0
  4 15  1  0
 15 16  2  0
 15 17  1  0
 17 18  1  1
 18 19  1  0
 19 20  1  0
 20 21  1  0
 21 22  1  0
 22 23  1  0
 22 24  1  0
 19 25  1  0
 25 26  2  0
 25 27  1  0
 27 28  2  0
 28 29  1  0
 29 30  2  0
 30 31  1  0
 30 32  1  0
 32 33  2  0
 17  2  1  0
 33 27  1  0
 14  5  1  0
 33 17  1  0
 14  9  1  0
M  CHG  1  22   1
M  END
>  <template_ligand>  (152) 
mol-218

>  <template_receptor>  (152) 
receptors/receptor-218.pdb

>  <SMILES>  (152) 
CC1CN(c2cncc3ccccc23)C(=O)C12CN(CC[NH+](C)C)C(=O)c1ccc(Cl)cc12

>  <LABEL>  (152) 
MERS-CoV Mpro

$$$$
ligand_76
     RDKit          3D

 33 36  0  0  0  0  0  0  0  0999 V2000
    8.3046   -5.1794   26.8955 C   0  0  0  0  0  0  0  0  0  0  0  0
    8.4357   -5.1954   25.3589 C   0  0  0  0  0  0  0  0  0  0  0  0
    9.5948   -6.1332   24.9667 C   0  0  0  0  0  0  0  0  0  0  0  0
    7.1882   -5.7313   24.7699 C   0  0  0  0  0  0  0  0  0  0  0  0
    6.2145   -6.1173   24.2723 N   0  0  0  0  0  0  0  0  0  0  0  0
    8.5999   -3.7824   24.7718 C   0  0  0  0  0  0  0  0  0  0  0  0
    7.8910   -2.6978   25.2994 C   0  0  0  0  0  0  0  0  0  0  0  0
    7.9871   -1.4327   24.7313 C   0  0  0  0  0  0  0  0  0  0  0  0
    8.7574   -1.2371   23.5846 C   0  0  0  0  0  0  0  0  0  0  0  0
    8.8205    0.0538   22.9828 N   0  0  0  0  0  0  0  0  0  0  0  0
    9.5972    1.0972   23.6391 C   0  0  0  0  0  0  0  0  0  0  0  0
   11.0502    1.2064   23.1810 C   0  0  0  0  0  0  0  0  0  0  0  0
   11.7334    2.4147   23.3381 C   0  0  0  0  0  0  0  0  0  0  0  0
   13.0549    2.5390   22.9142 C   0  0  0  0  0  0  0  0  0  0  0  0
   13.7128    1.4665   22.3181 C   0  0  0  0  0  0  0  0  0  0  0  0
   13.0363    0.2609   22.1889 C   0  0  0  0  0  0  0  0  0  0  0  0
   13.8284   -1.1068   21.4473 Cl  0  0  0  0  0  0  0  0  0  0  0  0
   11.7290    0.1163   22.6360 C   0  0  0  0  0  0  0  0  0  0  0  0
    8.3531    0.2997   21.7078 C   0  0  0  0  0  0  0  0  0  0  0  0
    8.5869    1.3350   21.1134 O   0  0  0  0  0  0  0  0  0  0  0  0
    7.5062   -0.8202   21.0922 C   0  0  0  0  0  0  0  0  0  0  0  0
    6.6551   -0.3314   19.9738 C   0  0  0  0  0  0  0  0  0  0  0  0
    7.0246   -0.5411   18.6786 C   0  0  0  0  0  0  0  0  0  0  0  0
    6.3581   -0.0607   17.5956 N   0  0  0  0  0  0  0  0  0  0  0  0
    5.2847    0.6661   17.8278 C   0  0  0  0  0  0  0  0  0  0  0  0
    4.7922    0.9729   19.1265 C   0  0  0  0  0  0  0  0  0  0  0  0
    3.6445    1.7827   19.3440 C   0  0  0  0  0  0  0  0  0  0  0  0
    3.2324    2.0501   20.6224 C   0  0  0  0  0  0  0  0  0  0  0  0
    3.9363    1.5308   21.7338 C   0  0  0  0  0  0  0  0  0  0  0  0
    5.0441    0.7486   21.5453 C   0  0  0  0  0  0  0  0  0  0  0  0
    5.5002    0.4562   20.2350 C   0  0  0  0  0  0  0  0  0  0  0  0
    9.4215   -2.3288   23.0210 C   0  0  0  0  0  0  0  0  0  0  0  0
    9.3859   -3.5676   23.6410 C   0  0  0  0  0  0  0  0  0  0  0  0
  1  2  1  0
  2  3  1  0
  2  4  1  0
  4  5  3  0
  2  6  1  0
  6  7  2  0
  7  8  1  0
  8  9  2  0
  9 10  1  0
 10 11  1  0
 11 12  1  0
 12 13  2  0
 13 14  1  0
 14 15  2  0
 15 16  1  0
 16 17  1  0
 16 18  2  0
 10 19  1  0
 19 20  2  0
 19 21  1  0
 21 22  1  0
 22 23  2  0
 23 24  1  0
 24 25  2  0
 25 26  1  0
 26 27  2  0
 27 28  1  0
 28 29  2  0
 29 30  1  0
 30 31  2  0
  9 32  1  0
 32 33  2  0
 33  6  1  0
 18 12  1  0
 31 22  1  0
 31 26  1  0
M  END
>  <template_ligand>  (153) 
mol-58

>  <template_receptor>  (153) 
receptors/receptor-58.pdb

>  <SMILES>  (153) 
CC(C)(C#N)c1ccc(N(Cc2cccc(Cl)c2)C(=O)Cc2cncc3ccccc23)cc1

>  <LABEL>  (153) 
MERS-CoV Mpro

$$$$
ligand_74
     RDKit          3D

 40 45  0  0  0  0  0  0  0  0999 V2000
   -7.0458    3.5984  -22.7270 C   0  0  0  0  0  0  0  0  0  0  0  0
   -7.7992    2.6232  -23.4931 N   0  0  0  0  0  0  0  0  0  0  0  0
   -7.4528    2.3485  -24.7686 C   0  0  0  0  0  0  0  0  0  0  0  0
   -6.6040    2.9790  -25.3833 O   0  0  0  0  0  0  0  0  0  0  0  0
   -8.1633    1.1743  -25.4645 C   0  0  0  0  0  0  0  0  0  0  0  0
   -9.0118    0.3293  -24.6534 N   0  0  0  0  0  0  0  0  0  0  0  0
   -8.5542   -1.0092  -24.3333 C   0  0  0  0  0  0  0  0  0  0  0  0
   -9.1481   -1.5072  -22.9974 C   0  0  2  0  0  0  0  0  0  0  0  0
   -8.5814   -0.6465  -21.8294 C   0  0  0  0  0  0  0  0  0  0  0  0
   -8.9462    0.4575  -21.4731 O   0  0  0  0  0  0  0  0  0  0  0  0
   -7.5404   -1.3355  -21.2496 N   0  0  0  0  0  0  0  0  0  0  0  0
   -6.7402   -0.7459  -20.2293 C   0  0  0  0  0  0  0  0  0  0  0  0
   -7.0269   -0.9936  -18.9123 C   0  0  0  0  0  0  0  0  0  0  0  0
   -6.3298   -0.4976  -17.8557 N   0  0  0  0  0  0  0  0  0  0  0  0
   -5.3101    0.2835  -18.1220 C   0  0  0  0  0  0  0  0  0  0  0  0
   -4.8927    0.6303  -19.4411 C   0  0  0  0  0  0  0  0  0  0  0  0
   -3.7791    1.4819  -19.6788 C   0  0  0  0  0  0  0  0  0  0  0  0
   -3.3892    1.7766  -20.9585 C   0  0  0  0  0  0  0  0  0  0  0  0
   -4.0914    1.2294  -22.0563 C   0  0  0  0  0  0  0  0  0  0  0  0
   -5.1784    0.4129  -21.8488 C   0  0  0  0  0  0  0  0  0  0  0  0
   -5.6204    0.0981  -20.5340 C   0  0  0  0  0  0  0  0  0  0  0  0
   -7.2754   -2.6186  -21.8740 C   0  0  0  0  0  0  0  0  0  0  0  0
   -8.5924   -2.9139  -22.6232 C   0  0  2  0  0  0  0  0  0  0  0  0
   -8.3777   -3.9368  -23.7510 C   0  0  0  0  0  0  0  0  0  0  0  0
   -9.5851   -4.2781  -24.4767 N   0  0  0  0  0  0  0  0  0  0  0  0
   -9.5888   -5.1471  -25.5353 C   0  0  0  0  0  0  0  0  0  0  0  0
   -8.4205   -5.7712  -26.0428 C   0  0  0  0  0  0  0  0  0  0  0  0
   -8.4464   -6.5350  -27.1249 N   0  0  0  0  0  0  0  0  0  0  0  0
   -9.6295   -6.7165  -27.7213 C   0  0  0  0  0  0  0  0  0  0  0  0
  -10.7830   -6.1684  -27.1873 C   0  0  0  0  0  0  0  0  0  0  0  0
  -10.7708   -5.3925  -26.1015 N   0  0  0  0  0  0  0  0  0  0  0  0
  -10.6545   -1.3652  -23.0775 C   0  0  0  0  0  0  0  0  0  0  0  0
  -11.5329   -2.2420  -22.4300 C   0  0  0  0  0  0  0  0  0  0  0  0
  -12.8949   -1.9835  -22.4202 C   0  0  0  0  0  0  0  0  0  0  0  0
  -13.9715   -3.0623  -21.5741 Cl  0  0  0  0  0  0  0  0  0  0  0  0
  -13.4264   -0.8667  -23.0653 C   0  0  0  0  0  0  0  0  0  0  0  0
  -12.5653   -0.0086  -23.7217 C   0  0  0  0  0  0  0  0  0  0  0  0
  -11.1945   -0.2524  -23.7382 C   0  0  0  0  0  0  0  0  0  0  0  0
  -10.3113    0.7182  -24.4702 C   0  0  0  0  0  0  0  0  0  0  0  0
  -10.7092    1.8086  -24.8629 O   0  0  0  0  0  0  0  0  0  0  0  0
  1  2  1  0
  2  3  1  0
  3  4  2  0
  3  5  1  0
  5  6  1  0
  6  7  1  0
  8  7  1  6
  8  9  1  0
  9 10  2  0
  9 11  1  0
 11 12  1  0
 12 13  2  0
 13 14  1  0
 14 15  2  0
 15 16  1  0
 16 17  2  0
 17 18  1  0
 18 19  2  0
 19 20  1  0
 20 21  2  0
 11 22  1  0
 22 23  1  0
 23 24  1  6
 24 25  1  0
 25 26  1  0
 26 27  2  0
 27 28  1  0
 28 29  2  0
 29 30  1  0
 30 31  2  0
  8 32  1  0
 32 33  2  0
 33 34  1  0
 34 35  1  0
 34 36  2  0
 36 37  1  0
 37 38  2  0
 38 39  1  0
 39 40  2  0
 39  6  1  0
 23  8  1  0
 31 26  1  0
 38 32  1  0
 21 12  1  0
 21 16  1  0
M  END
>  <template_ligand>  (154) 
mol-218

>  <template_receptor>  (154) 
receptors/receptor-218.pdb

>  <SMILES>  (154) 
CNC(=O)CN1CC2(C(=O)N(c3cncc4ccccc34)CC2CNc2cnccn2)c2cc(Cl)ccc2C1=O

>  <LABEL>  (154) 
SARS-CoV-2 Mpro

$$$$
ligand_77
     RDKit          3D

 34 35  0  0  0  0  0  0  0  0999 V2000
   13.1742    5.6603   23.1524 C   0  0  0  0  0  0  0  0  0  0  0  0
   11.9592    5.1943   22.5804 O   0  0  0  0  0  0  0  0  0  0  0  0
   11.2652    4.3529   23.3701 C   0  0  0  0  0  0  0  0  0  0  0  0
   11.6679    3.9289   24.4385 O   0  0  0  0  0  0  0  0  0  0  0  0
   10.0623    4.0754   22.7977 N   0  0  0  0  0  0  0  0  0  0  0  0
    9.2264    3.0523   23.3839 C   0  0  2  0  0  0  0  0  0  0  0  0
    9.3681    1.7576   22.5727 C   0  0  0  0  0  0  0  0  0  0  0  0
    8.9774    1.6815   21.4119 O   0  0  0  0  0  0  0  0  0  0  0  0
    9.9582    0.6856   23.1870 N   0  0  0  0  0  0  0  0  0  0  0  0
   10.6815    0.6797   24.4531 C   0  0  0  0  0  0  0  0  0  0  0  0
   11.1687   -0.7682   24.6311 C   0  0  2  0  0  0  0  0  0  0  0  0
   12.6555   -0.8228   24.9167 C   0  0  0  0  0  0  0  0  0  0  0  0
   13.0761   -2.0845   25.1178 F   0  0  0  0  0  0  0  0  0  0  0  0
   12.9792   -0.1132   26.0138 F   0  0  0  0  0  0  0  0  0  0  0  0
   13.3783   -0.3192   23.8965 F   0  0  0  0  0  0  0  0  0  0  0  0
   10.7814   -1.5459   23.3591 C   0  0  0  0  0  0  0  0  0  0  0  0
   10.0196   -0.5676   22.4482 C   0  0  1  0  0  0  0  0  0  0  0  0
    8.6039   -1.0530   22.1770 C   0  0  0  0  0  0  0  0  0  0  0  0
    7.7663   -1.1389   23.0626 O   0  0  0  0  0  0  0  0  0  0  0  0
    8.3319   -1.3998   20.8950 N   0  0  0  0  0  0  0  0  0  0  0  0
    7.0463   -2.0019   20.5788 C   0  0  2  0  0  0  0  0  0  0  0  0
    7.1835   -3.5050   20.9474 C   0  0  0  0  0  0  0  0  0  0  0  0
    6.4055   -4.5085   20.1689 N   0  0  0  0  0  0  0  0  0  0  0  0
    6.5730   -1.4383   19.2194 C   0  0  0  0  0  0  0  0  0  0  0  0
    6.1565    0.0462   19.4120 C   0  0  2  0  0  0  0  0  0  0  0  0
    4.9565    0.2518   20.3540 C   0  0  0  0  0  0  0  0  0  0  0  0
    4.2308    1.5042   19.8313 C   0  0  0  0  0  0  0  0  0  0  0  0
    4.5820    1.4964   18.4215 N   0  0  0  0  0  0  0  0  0  0  0  0
    5.7413    0.8121   18.1471 C   0  0  0  0  0  0  0  0  0  0  0  0
    6.3632    0.8718   17.1060 O   0  0  0  0  0  0  0  0  0  0  0  0
    7.7610    3.5238   23.5368 C   0  0  0  0  0  0  0  0  0  0  0  0
    6.8861    2.3491   23.9838 C   0  0  0  0  0  0  0  0  0  0  0  0
    7.1986    4.0915   22.2283 C   0  0  0  0  0  0  0  0  0  0  0  0
    7.7261    4.6166   24.6109 C   0  0  0  0  0  0  0  0  0  0  0  0
  1  2  1  0
  2  3  1  0
  3  4  2  0
  3  5  1  0
  6  5  1  6
  6  7  1  0
  7  8  2  0
  7  9  1  0
  9 10  1  0
 10 11  1  0
 11 12  1  6
 12 13  1  0
 12 14  1  0
 12 15  1  0
 11 16  1  0
 16 17  1  0
 17 18  1  1
 18 19  2  0
 18 20  1  0
 20 21  1  0
 21 22  1  6
 22 23  1  0
 21 24  1  0
 25 24  1  6
 25 26  1  0
 26 27  1  0
 27 28  1  0
 28 29  1  0
 29 30  2  0
  6 31  1  0
 31 32  1  0
 31 33  1  0
 31 34  1  0
 17  9  1  0
 29 25  1  0
M  CHG  1  23   1
M  END
>  <template_ligand>  (155) 
mol-172

>  <template_receptor>  (155) 
receptors/receptor-172.pdb

>  <SMILES>  (155) 
COC(=O)NC(C(=O)N1CC(C(F)(F)F)CC1C(=O)NC(C[NH3+])CC1CCNC1=O)C(C)(C)C

>  <LABEL>  (155) 
MERS-CoV Mpro

$$$$
ligand_75
     RDKit          3D

 36 41  0  0  0  0  0  0  0  0999 V2000
   -9.2140   -3.6277  -23.8688 C   0  0  0  0  0  0  0  0  0  0  0  0
   -9.1754   -2.6933  -22.6673 C   0  0  1  0  0  0  0  0  0  0  0  0
   -7.7835   -2.5072  -22.0415 C   0  0  0  0  0  0  0  0  0  0  0  0
   -7.9536   -1.2696  -21.2927 N   0  0  0  0  0  0  0  0  0  0  0  0
   -7.0838   -0.7954  -20.2782 C   0  0  0  0  0  0  0  0  0  0  0  0
   -7.3690   -1.0746  -18.9662 C   0  0  0  0  0  0  0  0  0  0  0  0
   -6.6196   -0.6642  -17.9108 N   0  0  0  0  0  0  0  0  0  0  0  0
   -5.5598    0.0608  -18.1774 C   0  0  0  0  0  0  0  0  0  0  0  0
   -5.1493    0.4313  -19.4909 C   0  0  0  0  0  0  0  0  0  0  0  0
   -4.0101    1.2490  -19.7186 C   0  0  0  0  0  0  0  0  0  0  0  0
   -3.6507    1.6003  -20.9888 C   0  0  0  0  0  0  0  0  0  0  0  0
   -4.4122    1.1583  -22.0920 C   0  0  0  0  0  0  0  0  0  0  0  0
   -5.5268    0.3757  -21.9004 C   0  0  0  0  0  0  0  0  0  0  0  0
   -5.9263   -0.0090  -20.5892 C   0  0  0  0  0  0  0  0  0  0  0  0
   -9.0972   -0.5774  -21.6312 C   0  0  0  0  0  0  0  0  0  0  0  0
   -9.5365    0.3798  -21.0206 O   0  0  0  0  0  0  0  0  0  0  0  0
   -9.6829   -1.2337  -22.9010 C   0  0  1  0  0  0  0  0  0  0  0  0
   -9.0334   -0.6412  -24.1864 C   0  0  0  0  0  0  0  0  0  0  0  0
   -9.5778    0.6508  -24.5649 N   0  0  0  0  0  0  0  0  0  0  0  0
   -8.6843    1.7848  -24.7761 C   0  0  0  0  0  0  0  0  0  0  0  0
   -8.3200    2.4971  -23.4670 C   0  0  0  0  0  0  0  0  0  0  0  0
   -9.1790    3.6955  -23.2023 N   0  0  0  0  0  0  0  0  0  0  0  0
   -8.5490    4.6613  -22.2371 C   0  0  0  0  0  0  0  0  0  0  0  0
   -9.3950    5.9215  -22.1144 C   0  0  0  0  0  0  0  0  0  0  0  0
  -10.7210    5.6602  -21.7029 O   0  0  0  0  0  0  0  0  0  0  0  0
  -11.3604    4.6627  -22.4709 C   0  0  0  0  0  0  0  0  0  0  0  0
  -10.5514    3.3805  -22.6496 C   0  0  0  0  0  0  0  0  0  0  0  0
  -10.9290    0.8341  -24.6503 C   0  0  0  0  0  0  0  0  0  0  0  0
  -11.4494    1.7503  -25.2748 O   0  0  0  0  0  0  0  0  0  0  0  0
  -11.7686   -0.1011  -23.8197 C   0  0  0  0  0  0  0  0  0  0  0  0
  -13.1527    0.0834  -23.8379 C   0  0  0  0  0  0  0  0  0  0  0  0
  -13.9729   -0.6225  -22.9772 C   0  0  0  0  0  0  0  0  0  0  0  0
  -13.3815   -1.5300  -22.0952 C   0  0  0  0  0  0  0  0  0  0  0  0
  -14.3867   -2.3891  -20.9575 Cl  0  0  0  0  0  0  0  0  0  0  0  0
  -12.0144   -1.7407  -22.0773 C   0  0  0  0  0  0  0  0  0  0  0  0
  -11.1796   -1.0443  -22.9647 C   0  0  0  0  0  0  0  0  0  0  0  0
  2  1  1  6
  2  3  1  0
  3  4  1  0
  4  5  1  0
  5  6  2  0
  6  7  1  0
  7  8  2  0
  8  9  1  0
  9 10  2  0
 10 11  1  0
 11 12  2  0
 12 13  1  0
 13 14  2  0
  4 15  1  0
 15 16  2  0
 15 17  1  0
 17 18  1  6
 18 19  1  0
 19 20  1  0
 20 21  1  0
 21 22  1  0
 22 23  1  0
 23 24  1  0
 24 25  1  0
 25 26  1  0
 26 27  1  0
 19 28  1  0
 28 29  2  0
 28 30  1  0
 30 31  2  0
 31 32  1  0
 32 33  2  0
 33 34  1  0
 33 35  1  0
 35 36  2  0
 17  2  1  0
 27 22  1  0
 36 30  1  0
 14  5  1  0
 36 17  1  0
 14  9  1  0
M  CHG  1  22   1
M  END
>  <template_ligand>  (156) 
mol-246

>  <template_receptor>  (156) 
receptors/receptor-246.pdb

>  <SMILES>  (156) 
CC1CN(c2cncc3ccccc23)C(=O)C12CN(CC[NH+]1CCOCC1)C(=O)c1ccc(Cl)cc12

>  <LABEL>  (156) 
SARS-CoV-2 Mpro

$$$$
ligand_64
     RDKit          3D

 34 39  0  0  0  0  0  0  0  0999 V2000
   -8.4799   -3.9130  -23.7088 C   0  0  0  0  0  0  0  0  0  0  0  0
   -8.5896   -2.8964  -22.5828 C   0  0  1  0  0  0  0  0  0  0  0  0
   -7.2695   -2.5924  -21.8660 C   0  0  0  0  0  0  0  0  0  0  0  0
   -7.5313   -1.3076  -21.2443 N   0  0  0  0  0  0  0  0  0  0  0  0
   -6.7295   -0.7342  -20.2237 C   0  0  0  0  0  0  0  0  0  0  0  0
   -7.0133   -0.9993  -18.9079 C   0  0  0  0  0  0  0  0  0  0  0  0
   -6.3231   -0.5006  -17.8521 N   0  0  0  0  0  0  0  0  0  0  0  0
   -5.3040    0.2882  -18.1121 C   0  0  0  0  0  0  0  0  0  0  0  0
   -4.8766    0.6241  -19.4300 C   0  0  0  0  0  0  0  0  0  0  0  0
   -3.7702    1.4881  -19.6753 C   0  0  0  0  0  0  0  0  0  0  0  0
   -3.3940    1.7826  -20.9587 C   0  0  0  0  0  0  0  0  0  0  0  0
   -4.0905    1.2231  -22.0556 C   0  0  0  0  0  0  0  0  0  0  0  0
   -5.1719    0.4040  -21.8475 C   0  0  0  0  0  0  0  0  0  0  0  0
   -5.5963    0.0888  -20.5268 C   0  0  0  0  0  0  0  0  0  0  0  0
   -8.5823   -0.6242  -21.8193 C   0  0  0  0  0  0  0  0  0  0  0  0
   -8.9575    0.4723  -21.4671 O   0  0  0  0  0  0  0  0  0  0  0  0
   -9.1435   -1.4977  -22.9730 C   0  0  1  0  0  0  0  0  0  0  0  0
   -8.5567   -1.0027  -24.3221 C   0  0  0  0  0  0  0  0  0  0  0  0
   -9.0099    0.3331  -24.6667 N   0  0  0  0  0  0  0  0  0  0  0  0
   -8.1297    1.1654  -25.4641 C   0  0  0  0  0  0  0  0  0  0  0  0
   -7.3494    2.1438  -24.6518 C   0  0  0  0  0  0  0  0  0  0  0  0
   -7.7949    2.8322  -23.5808 C   0  0  0  0  0  0  0  0  0  0  0  0
   -6.7898    3.6618  -23.1767 O   0  0  0  0  0  0  0  0  0  0  0  0
   -5.7823    3.4110  -24.0336 C   0  0  0  0  0  0  0  0  0  0  0  0
   -6.0393    2.5118  -24.9257 N   0  0  0  0  0  0  0  0  0  0  0  0
  -10.2949    0.7443  -24.4472 C   0  0  0  0  0  0  0  0  0  0  0  0
  -10.7002    1.8381  -24.8205 O   0  0  0  0  0  0  0  0  0  0  0  0
  -11.1832   -0.2386  -23.7285 C   0  0  0  0  0  0  0  0  0  0  0  0
  -12.5602    0.0005  -23.7206 C   0  0  0  0  0  0  0  0  0  0  0  0
  -13.4244   -0.8613  -23.0737 C   0  0  0  0  0  0  0  0  0  0  0  0
  -12.8792   -1.9743  -22.4445 C   0  0  0  0  0  0  0  0  0  0  0  0
  -13.6986   -2.8205  -21.7999 F   0  0  0  0  0  0  0  0  0  0  0  0
  -11.5250   -2.2428  -22.4312 C   0  0  0  0  0  0  0  0  0  0  0  0
  -10.6485   -1.3608  -23.0712 C   0  0  0  0  0  0  0  0  0  0  0  0
  2  1  1  6
  2  3  1  0
  3  4  1  0
  4  5  1  0
  5  6  2  0
  6  7  1  0
  7  8  2  0
  8  9  1  0
  9 10  2  0
 10 11  1  0
 11 12  2  0
 12 13  1  0
 13 14  2  0
  4 15  1  0
 15 16  2  0
 15 17  1  0
 17 18  1  6
 18 19  1  0
 19 20  1  0
 20 21  1  0
 21 22  2  0
 22 23  1  0
 23 24  1  0
 24 25  2  0
 19 26  1  0
 26 27  2  0
 26 28  1  0
 28 29  2  0
 29 30  1  0
 30 31  2  0
 31 32  1  0
 31 33  1  0
 33 34  2  0
 17  2  1  0
 25 21  1  0
 34 28  1  0
 14  5  1  0
 34 17  1  0
 14  9  1  0
M  END
>  <template_ligand>  (157) 
mol-218

>  <template_receptor>  (157) 
receptors/receptor-218.pdb

>  <SMILES>  (157) 
CC1CN(c2cncc3ccccc23)C(=O)C12CN(Cc1cocn1)C(=O)c1ccc(F)cc12

>  <LABEL>  (157) 
SARS-CoV-2 Mpro

$$$$
ligand_78
     RDKit          3D

 20 22  0  0  0  0  0  0  0  0999 V2000
    9.6205    2.4693   25.1079 C   0  0  0  0  0  0  0  0  0  0  0  0
    9.1248    1.4759   24.0716 C   0  0  0  0  0  0  0  0  0  0  0  0
   10.3481    0.8389   23.3739 C   0  0  0  0  0  0  0  0  0  0  0  0
   10.0488   -0.5762   22.8501 C   0  0  0  0  0  0  0  0  0  0  0  0
    8.6295   -0.7527   22.5804 N   0  0  0  0  0  0  0  0  0  0  0  0
    8.1896   -0.3481   21.3408 C   0  0  0  0  0  0  0  0  0  0  0  0
    8.8554    0.3737   20.6215 O   0  0  0  0  0  0  0  0  0  0  0  0
    6.8746   -0.9765   20.9058 C   0  0  0  0  0  0  0  0  0  0  0  0
    6.1219   -0.2112   19.8688 C   0  0  0  0  0  0  0  0  0  0  0  0
    6.5533   -0.2542   18.5674 C   0  0  0  0  0  0  0  0  0  0  0  0
    5.9331    0.3304   17.5138 N   0  0  0  0  0  0  0  0  0  0  0  0
    4.8302    0.9949   17.7823 C   0  0  0  0  0  0  0  0  0  0  0  0
    4.2725    1.1365   19.0868 C   0  0  0  0  0  0  0  0  0  0  0  0
    3.0817    1.8695   19.3262 C   0  0  0  0  0  0  0  0  0  0  0  0
    2.5919    2.0165   20.5978 C   0  0  0  0  0  0  0  0  0  0  0  0
    3.2692    1.4351   21.6922 C   0  0  0  0  0  0  0  0  0  0  0  0
    4.4163    0.7057   21.4852 C   0  0  0  0  0  0  0  0  0  0  0  0
    4.9465    0.5319   20.1754 C   0  0  0  0  0  0  0  0  0  0  0  0
    7.7939   -0.6900   23.7766 C   0  0  0  0  0  0  0  0  0  0  0  0
    8.3361    0.3579   24.7652 C   0  0  0  0  0  0  0  0  0  0  0  0
  1  2  1  0
  2  3  1  0
  3  4  1  0
  4  5  1  0
  5  6  1  0
  6  7  2  0
  6  8  1  0
  8  9  1  0
  9 10  2  0
 10 11  1  0
 11 12  2  0
 12 13  1  0
 13 14  2  0
 14 15  1  0
 15 16  2  0
 16 17  1  0
 17 18  2  0
  5 19  1  0
 19 20  1  0
 20  2  1  0
 18  9  1  0
 18 13  1  0
M  END
>  <template_ligand>  (158) 
mol-115

>  <template_receptor>  (158) 
receptors/receptor-115.pdb

>  <SMILES>  (158) 
CC1CCN(C(=O)Cc2cncc3ccccc23)CC1

>  <LABEL>  (158) 
MERS-CoV Mpro

$$$$
ligand_79
     RDKit          3D

 35 40  0  0  0  0  0  0  0  0999 V2000
    8.3728   -2.9121   23.5791 C   0  0  0  0  0  0  0  0  0  0  0  0
    8.4149   -1.9054   22.4366 C   0  0  1  0  0  0  0  0  0  0  0  0
    7.0802   -1.7286   21.6993 C   0  0  0  0  0  0  0  0  0  0  0  0
    7.2455   -0.4381   21.0573 N   0  0  0  0  0  0  0  0  0  0  0  0
    6.4138    0.0541   20.0168 C   0  0  0  0  0  0  0  0  0  0  0  0
    6.7344   -0.2079   18.7105 C   0  0  0  0  0  0  0  0  0  0  0  0
    6.0159    0.2127   17.6372 N   0  0  0  0  0  0  0  0  0  0  0  0
    4.9349    0.9191   17.8750 C   0  0  0  0  0  0  0  0  0  0  0  0
    4.4650    1.2442   19.1803 C   0  0  0  0  0  0  0  0  0  0  0  0
    3.2894    2.0174   19.3975 C   0  0  0  0  0  0  0  0  0  0  0  0
    2.8703    2.2971   20.6674 C   0  0  0  0  0  0  0  0  0  0  0  0
    3.5950    1.8122   21.7827 C   0  0  0  0  0  0  0  0  0  0  0  0
    4.7474    1.0901   21.6026 C   0  0  0  0  0  0  0  0  0  0  0  0
    5.2145    0.7885   20.2950 C   0  0  0  0  0  0  0  0  0  0  0  0
    8.2334    0.3379   21.6260 C   0  0  0  0  0  0  0  0  0  0  0  0
    8.5259    1.4491   21.2443 O   0  0  0  0  0  0  0  0  0  0  0  0
    8.8485   -0.4591   22.8055 C   0  0  1  0  0  0  0  0  0  0  0  0
    8.2104    0.0063   24.1412 C   0  0  0  0  0  0  0  0  0  0  0  0
    8.5513    1.3768   24.4699 N   0  0  0  0  0  0  0  0  0  0  0  0
    7.5901    2.1447   25.2426 C   0  0  0  0  0  0  0  0  0  0  0  0
    6.7501    3.0349   24.3770 C   0  0  0  0  0  0  0  0  0  0  0  0
    7.1300    3.7822   23.2890 C   0  0  0  0  0  0  0  0  0  0  0  0
    5.9656    4.4694   22.9094 C   0  0  0  0  0  0  0  0  0  0  0  0
    4.9407    4.1734   23.7037 N   0  0  0  0  0  0  0  0  0  0  0  0
    5.4375    3.2954   24.5898 N   0  0  0  0  0  0  0  0  0  0  0  0
    4.5868    2.6975   25.5931 C   0  0  0  0  0  0  0  0  0  0  0  0
    9.8022    1.8856   24.2592 C   0  0  0  0  0  0  0  0  0  0  0  0
   10.1139    3.0117   24.6200 O   0  0  0  0  0  0  0  0  0  0  0  0
   10.7712    0.9692   23.5588 C   0  0  0  0  0  0  0  0  0  0  0  0
   12.1230    1.3195   23.5600 C   0  0  0  0  0  0  0  0  0  0  0  0
   13.0643    0.5203   22.9393 C   0  0  0  0  0  0  0  0  0  0  0  0
   12.6168   -0.6460   22.3233 C   0  0  0  0  0  0  0  0  0  0  0  0
   13.5130   -1.4333   21.7036 F   0  0  0  0  0  0  0  0  0  0  0  0
   11.2884   -1.0216   22.3021 C   0  0  0  0  0  0  0  0  0  0  0  0
   10.3347   -0.2022   22.9160 C   0  0  0  0  0  0  0  0  0  0  0  0
  2  1  1  1
  2  3  1  0
  3  4  1  0
  4  5  1  0
  5  6  2  0
  6  7  1  0
  7  8  2  0
  8  9  1  0
  9 10  2  0
 10 11  1  0
 11 12  2  0
 12 13  1  0
 13 14  2  0
  4 15  1  0
 15 16  2  0
 15 17  1  0
 17 18  1  1
 18 19  1  0
 19 20  1  0
 20 21  1  0
 21 22  2  0
 22 23  1  0
 23 24  2  0
 24 25  1  0
 25 26  1  0
 19 27  1  0
 27 28  2  0
 27 29  1  0
 29 30  2  0
 30 31  1  0
 31 32  2  0
 32 33  1  0
 32 34  1  0
 34 35  2  0
 17  2  1  0
 25 21  1  0
 35 29  1  0
 14  5  1  0
 35 17  1  0
 14  9  1  0
M  END
>  <template_ligand>  (159) 
mol-218

>  <template_receptor>  (159) 
receptors/receptor-218.pdb

>  <SMILES>  (159) 
CC1CN(c2cncc3ccccc23)C(=O)C12CN(Cc1ccnn1C)C(=O)c1ccc(F)cc12

>  <LABEL>  (159) 
MERS-CoV Mpro

$$$$
ligand_80
     RDKit          3D

 35 40  0  0  0  0  0  0  0  0999 V2000
    3.7961    4.9036   23.6200 C   0  0  0  0  0  0  0  0  0  0  0  0
    5.1096    4.2162   23.7560 C   0  0  0  0  0  0  0  0  0  0  0  0
    5.4373    3.3602   24.6708 N   0  0  0  0  0  0  0  0  0  0  0  0
    6.7648    3.0665   24.3981 C   0  0  0  0  0  0  0  0  0  0  0  0
    7.5951    2.1536   25.2344 C   0  0  0  0  0  0  0  0  0  0  0  0
    8.5473    1.3790   24.4631 N   0  0  0  0  0  0  0  0  0  0  0  0
    8.2086    0.0046   24.1390 C   0  0  0  0  0  0  0  0  0  0  0  0
    8.8485   -0.4637   22.8052 C   0  0  2  0  0  0  0  0  0  0  0  0
    8.2316    0.3396   21.6300 C   0  0  0  0  0  0  0  0  0  0  0  0
    8.5224    1.4585   21.2611 O   0  0  0  0  0  0  0  0  0  0  0  0
    7.2463   -0.4349   21.0566 N   0  0  0  0  0  0  0  0  0  0  0  0
    6.4125    0.0539   20.0174 C   0  0  0  0  0  0  0  0  0  0  0  0
    6.7327   -0.2101   18.7098 C   0  0  0  0  0  0  0  0  0  0  0  0
    6.0165    0.2123   17.6380 N   0  0  0  0  0  0  0  0  0  0  0  0
    4.9339    0.9204   17.8733 C   0  0  0  0  0  0  0  0  0  0  0  0
    4.4646    1.2438   19.1804 C   0  0  0  0  0  0  0  0  0  0  0  0
    3.2894    2.0190   19.3987 C   0  0  0  0  0  0  0  0  0  0  0  0
    2.8772    2.3043   20.6738 C   0  0  0  0  0  0  0  0  0  0  0  0
    3.6050    1.8258   21.7886 C   0  0  0  0  0  0  0  0  0  0  0  0
    4.7500    1.0916   21.6051 C   0  0  0  0  0  0  0  0  0  0  0  0
    5.2129    0.7871   20.2942 C   0  0  0  0  0  0  0  0  0  0  0  0
    7.0815   -1.7256   21.6994 C   0  0  0  0  0  0  0  0  0  0  0  0
    8.4137   -1.9088   22.4352 C   0  0  2  0  0  0  0  0  0  0  0  0
    8.3734   -2.9111   23.5787 C   0  0  0  0  0  0  0  0  0  0  0  0
   10.3362   -0.2034   22.9160 C   0  0  0  0  0  0  0  0  0  0  0  0
   11.2884   -1.0222   22.3015 C   0  0  0  0  0  0  0  0  0  0  0  0
   12.6161   -0.6447   22.3239 C   0  0  0  0  0  0  0  0  0  0  0  0
   13.5090   -1.4328   21.7034 F   0  0  0  0  0  0  0  0  0  0  0  0
   13.0626    0.5199   22.9381 C   0  0  0  0  0  0  0  0  0  0  0  0
   12.1237    1.3198   23.5601 C   0  0  0  0  0  0  0  0  0  0  0  0
   10.7706    0.9698   23.5585 C   0  0  0  0  0  0  0  0  0  0  0  0
    9.7984    1.8894   24.2511 C   0  0  0  0  0  0  0  0  0  0  0  0
   10.1087    3.0174   24.6089 O   0  0  0  0  0  0  0  0  0  0  0  0
    7.1638    3.7501   23.3085 C   0  0  0  0  0  0  0  0  0  0  0  0
    6.1067    4.5120   22.8903 O   0  0  0  0  0  0  0  0  0  0  0  0
  1  2  1  0
  2  3  2  0
  3  4  1  0
  4  5  1  0
  5  6  1  0
  6  7  1  0
  8  7  1  1
  8  9  1  0
  9 10  2  0
  9 11  1  0
 11 12  1  0
 12 13  2  0
 13 14  1  0
 14 15  2  0
 15 16  1  0
 16 17  2  0
 17 18  1  0
 18 19  2  0
 19 20  1  0
 20 21  2  0
 11 22  1  0
 22 23  1  0
 23 24  1  1
  8 25  1  0
 25 26  2  0
 26 27  1  0
 27 28  1  0
 27 29  2  0
 29 30  1  0
 30 31  2  0
 31 32  1  0
 32 33  2  0
  4 34  2  0
 34 35  1  0
 35  2  1  0
 32  6  1  0
 23  8  1  0
 31 25  1  0
 21 12  1  0
 21 16  1  0
M  END
>  <template_ligand>  (160) 
mol-218

>  <template_receptor>  (160) 
receptors/receptor-218.pdb

>  <SMILES>  (160) 
Cc1nc(CN2CC3(C(=O)N(c4cncc5ccccc45)CC3C)c3cc(F)ccc3C2=O)co1

>  <LABEL>  (160) 
MERS-CoV Mpro

$$$$
ligand_77
     RDKit          3D

 33 37  0  0  0  0  0  0  0  0999 V2000
   -7.0481    3.5968  -22.7357 C   0  0  0  0  0  0  0  0  0  0  0  0
   -7.7854    2.6141  -23.4977 N   0  0  0  0  0  0  0  0  0  0  0  0
   -7.4499    2.3559  -24.7791 C   0  0  0  0  0  0  0  0  0  0  0  0
   -6.6061    2.9904  -25.3961 O   0  0  0  0  0  0  0  0  0  0  0  0
   -8.1498    1.1778  -25.4657 C   0  0  0  0  0  0  0  0  0  0  0  0
   -8.9979    0.3432  -24.6394 N   0  0  0  0  0  0  0  0  0  0  0  0
   -8.5557   -1.0023  -24.3205 C   0  0  0  0  0  0  0  0  0  0  0  0
   -9.1443   -1.4954  -22.9734 C   0  0  2  0  0  0  0  0  0  0  0  0
   -8.5825   -0.6261  -21.8191 C   0  0  0  0  0  0  0  0  0  0  0  0
   -8.9590    0.4764  -21.4710 O   0  0  0  0  0  0  0  0  0  0  0  0
   -7.5340   -1.3087  -21.2414 N   0  0  0  0  0  0  0  0  0  0  0  0
   -6.7311   -0.7317  -20.2213 C   0  0  0  0  0  0  0  0  0  0  0  0
   -7.0154   -0.9978  -18.9065 C   0  0  0  0  0  0  0  0  0  0  0  0
   -6.3231   -0.5012  -17.8504 N   0  0  0  0  0  0  0  0  0  0  0  0
   -5.3051    0.2871  -18.1123 C   0  0  0  0  0  0  0  0  0  0  0  0
   -4.8770    0.6267  -19.4298 C   0  0  0  0  0  0  0  0  0  0  0  0
   -3.7700    1.4880  -19.6753 C   0  0  0  0  0  0  0  0  0  0  0  0
   -3.3927    1.7807  -20.9591 C   0  0  0  0  0  0  0  0  0  0  0  0
   -4.0916    1.2273  -22.0579 C   0  0  0  0  0  0  0  0  0  0  0  0
   -5.1725    0.4073  -21.8467 C   0  0  0  0  0  0  0  0  0  0  0  0
   -5.6008    0.0927  -20.5258 C   0  0  0  0  0  0  0  0  0  0  0  0
   -7.2676   -2.5932  -21.8653 C   0  0  0  0  0  0  0  0  0  0  0  0
   -8.5899   -2.8934  -22.5837 C   0  0  2  0  0  0  0  0  0  0  0  0
   -8.4795   -3.9135  -23.7087 C   0  0  0  0  0  0  0  0  0  0  0  0
  -10.6492   -1.3601  -23.0716 C   0  0  0  0  0  0  0  0  0  0  0  0
  -11.5289   -2.2382  -22.4278 C   0  0  0  0  0  0  0  0  0  0  0  0
  -12.8884   -1.9788  -22.4276 C   0  0  0  0  0  0  0  0  0  0  0  0
  -13.9471   -3.0628  -21.5686 Cl  0  0  0  0  0  0  0  0  0  0  0  0
  -13.4221   -0.8604  -23.0714 C   0  0  0  0  0  0  0  0  0  0  0  0
  -12.5581    0.0014  -23.7239 C   0  0  0  0  0  0  0  0  0  0  0  0
  -11.1830   -0.2412  -23.7334 C   0  0  0  0  0  0  0  0  0  0  0  0
  -10.2953    0.7342  -24.4535 C   0  0  0  0  0  0  0  0  0  0  0  0
  -10.6898    1.8278  -24.8358 O   0  0  0  0  0  0  0  0  0  0  0  0
  1  2  1  0
  2  3  1  0
  3  4  2  0
  3  5  1  0
  5  6  1  0
  6  7  1  0
  8  7  1  6
  8  9  1  0
  9 10  2  0
  9 11  1  0
 11 12  1  0
 12 13  2  0
 13 14  1  0
 14 15  2  0
 15 16  1  0
 16 17  2  0
 17 18  1  0
 18 19  2  0
 19 20  1  0
 20 21  2  0
 11 22  1  0
 22 23  1  0
 23 24  1  6
  8 25  1  0
 25 26  2  0
 26 27  1  0
 27 28  1  0
 27 29  2  0
 29 30  1  0
 30 31  2  0
 31 32  1  0
 32 33  2  0
 32  6  1  0
 23  8  1  0
 31 25  1  0
 21 12  1  0
 21 16  1  0
M  END
>  <template_ligand>  (161) 
mol-218

>  <template_receptor>  (161) 
receptors/receptor-218.pdb

>  <SMILES>  (161) 
CNC(=O)CN1CC2(C(=O)N(c3cncc4ccccc34)CC2C)c2cc(Cl)ccc2C1=O

>  <LABEL>  (161) 
SARS-CoV-2 Mpro

$$$$
ligand_78
     RDKit          3D

 27 31  0  0  0  0  0  0  0  0999 V2000
  -10.2660   -0.7680  -23.6042 C   0  0  0  0  0  0  0  0  0  0  0  0
   -9.1738   -1.2954  -22.8046 N   0  0  0  0  0  0  0  0  0  0  0  0
   -8.6814   -0.6123  -21.7256 C   0  0  0  0  0  0  0  0  0  0  0  0
   -9.0201    0.4725  -21.3109 O   0  0  0  0  0  0  0  0  0  0  0  0
   -7.6944   -1.4232  -21.1450 N   0  0  0  0  0  0  0  0  0  0  0  0
   -6.8539   -0.9277  -20.1001 C   0  0  0  0  0  0  0  0  0  0  0  0
   -7.1930   -1.1415  -18.7927 C   0  0  0  0  0  0  0  0  0  0  0  0
   -6.5539   -0.5870  -17.7285 N   0  0  0  0  0  0  0  0  0  0  0  0
   -5.5472    0.2155  -17.9735 C   0  0  0  0  0  0  0  0  0  0  0  0
   -5.0534    0.4935  -19.2788 C   0  0  0  0  0  0  0  0  0  0  0  0
   -3.9534    1.3650  -19.5015 C   0  0  0  0  0  0  0  0  0  0  0  0
   -3.4985    1.5826  -20.7719 C   0  0  0  0  0  0  0  0  0  0  0  0
   -4.1148    0.9386  -21.8706 C   0  0  0  0  0  0  0  0  0  0  0  0
   -5.1880    0.1047  -21.6817 C   0  0  0  0  0  0  0  0  0  0  0  0
   -5.7032   -0.1173  -20.3786 C   0  0  0  0  0  0  0  0  0  0  0  0
   -7.6052   -2.6596  -21.7816 C   0  0  0  0  0  0  0  0  0  0  0  0
   -6.8940   -3.5770  -21.4499 O   0  0  0  0  0  0  0  0  0  0  0  0
   -8.5841   -2.6006  -22.9582 C   0  0  0  0  0  0  0  0  0  0  0  0
   -7.9902   -3.0210  -24.3226 C   0  0  0  0  0  0  0  0  0  0  0  0
   -8.8534   -4.2296  -24.3550 N   0  0  0  0  0  0  0  0  0  0  0  0
   -9.8861   -4.3980  -25.6874 S   0  0  0  0  0  0  0  0  0  0  0  0
  -10.8555   -5.4111  -25.3272 O   0  0  0  0  0  0  0  0  0  0  0  0
  -10.3029   -3.0638  -26.1147 O   0  0  0  0  0  0  0  0  0  0  0  0
   -8.9096   -5.1082  -26.9923 C   0  0  0  0  0  0  0  0  0  0  0  0
   -9.6625   -5.9244  -28.0188 C   0  0  0  0  0  0  0  0  0  0  0  0
   -8.7624   -6.6061  -27.0324 C   0  0  0  0  0  0  0  0  0  0  0  0
   -9.5273   -3.8132  -23.0809 C   0  0  0  0  0  0  0  0  0  0  0  0
  1  2  1  0
  2  3  1  0
  3  4  2  0
  3  5  1  0
  5  6  1  0
  6  7  2  0
  7  8  1  0
  8  9  2  0
  9 10  1  0
 10 11  2  0
 11 12  1  0
 12 13  2  0
 13 14  1  0
 14 15  2  0
  5 16  1  0
 16 17  2  0
 16 18  1  0
 18 19  1  0
 19 20  1  0
 20 21  1  0
 21 22  2  0
 21 23  2  0
 21 24  1  0
 24 25  1  0
 25 26  1  0
 20 27  1  0
 18  2  1  0
 26 24  1  0
 15  6  1  0
 27 18  1  0
 15 10  1  0
M  END
>  <template_ligand>  (162) 
mol-109

>  <template_receptor>  (162) 
receptors/receptor-109.pdb

>  <SMILES>  (162) 
CN1C(=O)N(c2cncc3ccccc23)C(=O)C12CN(S(=O)(=O)C1CC1)C2

>  <LABEL>  (162) 
SARS-CoV-2 Mpro

$$$$
ligand_81
     RDKit          3D

 34 39  0  0  0  0  0  0  0  0999 V2000
    8.3730   -2.9122   23.5783 C   0  0  0  0  0  0  0  0  0  0  0  0
    8.4148   -1.9072   22.4343 C   0  0  1  0  0  0  0  0  0  0  0  0
    7.0799   -1.7281   21.6991 C   0  0  0  0  0  0  0  0  0  0  0  0
    7.2415   -0.4371   21.0577 N   0  0  0  0  0  0  0  0  0  0  0  0
    6.4098    0.0530   20.0157 C   0  0  0  0  0  0  0  0  0  0  0  0
    6.7332   -0.2089   18.7095 C   0  0  0  0  0  0  0  0  0  0  0  0
    6.0162    0.2127   17.6371 N   0  0  0  0  0  0  0  0  0  0  0  0
    4.9350    0.9193   17.8742 C   0  0  0  0  0  0  0  0  0  0  0  0
    4.4641    1.2451   19.1796 C   0  0  0  0  0  0  0  0  0  0  0  0
    3.2892    2.0203   19.3996 C   0  0  0  0  0  0  0  0  0  0  0  0
    2.8762    2.3039   20.6722 C   0  0  0  0  0  0  0  0  0  0  0  0
    3.6036    1.8236   21.7864 C   0  0  0  0  0  0  0  0  0  0  0  0
    4.7474    1.0832   21.6033 C   0  0  0  0  0  0  0  0  0  0  0  0
    5.2119    0.7869   20.2931 C   0  0  0  0  0  0  0  0  0  0  0  0
    8.2333    0.3389   21.6248 C   0  0  0  0  0  0  0  0  0  0  0  0
    8.5273    1.4492   21.2423 O   0  0  0  0  0  0  0  0  0  0  0  0
    8.8484   -0.4635   22.8021 C   0  0  1  0  0  0  0  0  0  0  0  0
    8.2069   -0.0015   24.1366 C   0  0  0  0  0  0  0  0  0  0  0  0
    8.5321    1.3798   24.4352 N   0  0  0  0  0  0  0  0  0  0  0  0
    7.6081    2.1654   25.2226 C   0  0  0  0  0  0  0  0  0  0  0  0
    6.9976    3.3145   24.4776 C   0  0  0  0  0  0  0  0  0  0  0  0
    6.7267    4.4868   24.9453 N   0  0  0  0  0  0  0  0  0  0  0  0
    6.1495    5.1494   23.8726 C   0  0  0  0  0  0  0  0  0  0  0  0
    6.0846    4.3242   22.8065 C   0  0  0  0  0  0  0  0  0  0  0  0
    6.6268    3.1258   23.1945 O   0  0  0  0  0  0  0  0  0  0  0  0
    9.7883    1.8837   24.2408 C   0  0  0  0  0  0  0  0  0  0  0  0
   10.0958    3.0046   24.6234 O   0  0  0  0  0  0  0  0  0  0  0  0
   10.7666    0.9710   23.5551 C   0  0  0  0  0  0  0  0  0  0  0  0
   12.1196    1.3210   23.5603 C   0  0  0  0  0  0  0  0  0  0  0  0
   13.0616    0.5211   22.9402 C   0  0  0  0  0  0  0  0  0  0  0  0
   12.6167   -0.6452   22.3239 C   0  0  0  0  0  0  0  0  0  0  0  0
   13.5123   -1.4325   21.7039 F   0  0  0  0  0  0  0  0  0  0  0  0
   11.2889   -1.0220   22.3026 C   0  0  0  0  0  0  0  0  0  0  0  0
   10.3346   -0.2036   22.9162 C   0  0  0  0  0  0  0  0  0  0  0  0
  2  1  1  1
  2  3  1  0
  3  4  1  0
  4  5  1  0
  5  6  2  0
  6  7  1  0
  7  8  2  0
  8  9  1  0
  9 10  2  0
 10 11  1  0
 11 12  2  0
 12 13  1  0
 13 14  2  0
  4 15  1  0
 15 16  2  0
 15 17  1  0
 17 18  1  1
 18 19  1  0
 19 20  1  0
 20 21  1  0
 21 22  2  0
 22 23  1  0
 23 24  2  0
 24 25  1  0
 19 26  1  0
 26 27  2  0
 26 28  1  0
 28 29  2  0
 29 30  1  0
 30 31  2  0
 31 32  1  0
 31 33  1  0
 33 34  2  0
 17  2  1  0
 25 21  1  0
 34 28  1  0
 14  5  1  0
 34 17  1  0
 14  9  1  0
M  END
>  <template_ligand>  (163) 
mol-218

>  <template_receptor>  (163) 
receptors/receptor-218.pdb

>  <SMILES>  (163) 
CC1CN(c2cncc3ccccc23)C(=O)C12CN(Cc1ncco1)C(=O)c1ccc(F)cc12

>  <LABEL>  (163) 
MERS-CoV Mpro

$$$$
ligand_82
     RDKit          3D

 38 43  0  0  0  0  0  0  0  0999 V2000
    5.2731    4.2832   24.2873 C   0  0  0  0  0  0  0  0  0  0  0  0
    5.9342    5.2078   23.2810 C   0  0  2  0  0  0  0  0  0  0  0  0
    5.3078    5.1379   21.8942 C   0  0  0  0  0  0  0  0  0  0  0  0
    5.8920    6.1030   21.0377 O   0  0  0  0  0  0  0  0  0  0  0  0
    7.2720    5.8470   20.8671 C   0  0  0  0  0  0  0  0  0  0  0  0
    8.0392    5.9669   22.1792 C   0  0  1  0  0  0  0  0  0  0  0  0
    8.0282    7.4106   22.6643 C   0  0  0  0  0  0  0  0  0  0  0  0
    7.4504    5.0103   23.2074 N   0  0  0  0  0  0  0  0  0  0  0  0
    7.9076    3.5754   23.0688 C   0  0  0  0  0  0  0  0  0  0  0  0
    8.2550    2.9344   24.4297 C   0  0  0  0  0  0  0  0  0  0  0  0
    9.1863    1.8299   24.2743 N   0  0  0  0  0  0  0  0  0  0  0  0
    8.7429    0.4699   24.0250 C   0  0  0  0  0  0  0  0  0  0  0  0
    9.4316   -0.1561   22.7726 C   0  0  2  0  0  0  0  0  0  0  0  0
    8.8110    0.4032   21.4700 C   0  0  0  0  0  0  0  0  0  0  0  0
    9.1859    1.3411   20.7965 O   0  0  0  0  0  0  0  0  0  0  0  0
    7.7147   -0.3802   21.1770 N   0  0  0  0  0  0  0  0  0  0  0  0
    6.8341   -0.0011   20.1402 C   0  0  0  0  0  0  0  0  0  0  0  0
    7.1704   -0.2681   18.8366 C   0  0  0  0  0  0  0  0  0  0  0  0
    6.4134    0.0781   17.7673 N   0  0  0  0  0  0  0  0  0  0  0  0
    5.2971    0.7241   18.0161 C   0  0  0  0  0  0  0  0  0  0  0  0
    4.8380    1.0760   19.3187 C   0  0  0  0  0  0  0  0  0  0  0  0
    3.6314    1.7975   19.5176 C   0  0  0  0  0  0  0  0  0  0  0  0
    3.2117    2.1092   20.7831 C   0  0  0  0  0  0  0  0  0  0  0  0
    3.9886    1.7424   21.9050 C   0  0  0  0  0  0  0  0  0  0  0  0
    5.1728    1.0610   21.7391 C   0  0  0  0  0  0  0  0  0  0  0  0
    5.6233    0.6963   20.4341 C   0  0  0  0  0  0  0  0  0  0  0  0
    7.6495   -1.6149   21.9412 C   0  0  0  0  0  0  0  0  0  0  0  0
    9.0423   -1.6596   22.5842 C   0  0  2  0  0  0  0  0  0  0  0  0
    9.1579   -2.5824   23.7872 C   0  0  0  0  0  0  0  0  0  0  0  0
   10.9115    0.1443   22.8404 C   0  0  0  0  0  0  0  0  0  0  0  0
   11.7990   -0.5290   21.9919 C   0  0  0  0  0  0  0  0  0  0  0  0
   13.1445   -0.2118   22.0089 C   0  0  0  0  0  0  0  0  0  0  0  0
   14.2027   -1.0223   20.8943 Cl  0  0  0  0  0  0  0  0  0  0  0  0
   13.6688    0.7326   22.8906 C   0  0  0  0  0  0  0  0  0  0  0  0
   12.7954    1.4043   23.7230 C   0  0  0  0  0  0  0  0  0  0  0  0
   11.4258    1.1513   23.6668 C   0  0  0  0  0  0  0  0  0  0  0  0
   10.5237    2.0950   24.4020 C   0  0  0  0  0  0  0  0  0  0  0  0
   10.9674    3.0571   25.0123 O   0  0  0  0  0  0  0  0  0  0  0  0
  2  1  1  1
  2  3  1  0
  3  4  1  0
  4  5  1  0
  5  6  1  0
  6  7  1  1
  6  8  1  0
  8  9  1  0
  9 10  1  0
 10 11  1  0
 11 12  1  0
 13 12  1  1
 13 14  1  0
 14 15  2  0
 14 16  1  0
 16 17  1  0
 17 18  2  0
 18 19  1  0
 19 20  2  0
 20 21  1  0
 21 22  2  0
 22 23  1  0
 23 24  2  0
 24 25  1  0
 25 26  2  0
 16 27  1  0
 27 28  1  0
 28 29  1  1
 13 30  1  0
 30 31  2  0
 31 32  1  0
 32 33  1  0
 32 34  2  0
 34 35  1  0
 35 36  2  0
 36 37  1  0
 37 38  2  0
  8  2  1  0
 37 11  1  0
 28 13  1  0
 36 30  1  0
 26 17  1  0
 26 21  1  0
M  CHG  1   8   1
M  END
>  <template_ligand>  (164) 
mol-246

>  <template_receptor>  (164) 
receptors/receptor-246.pdb

>  <SMILES>  (164) 
CC1COCC(C)[NH+]1CCN1CC2(C(=O)N(c3cncc4ccccc34)CC2C)c2cc(Cl)ccc2C1=O

>  <LABEL>  (164) 
MERS-CoV Mpro

$$$$
ligand_83
     RDKit          3D

 35 40  0  0  0  0  0  0  0  0999 V2000
    6.3471    4.3187   22.1362 C   0  0  0  0  0  0  0  0  0  0  0  0
    7.1464    3.5123   23.0394 N   0  0  0  0  0  0  0  0  0  0  0  0
    6.7717    3.3322   24.3257 C   0  0  0  0  0  0  0  0  0  0  0  0
    5.8722    3.9711   24.8518 O   0  0  0  0  0  0  0  0  0  0  0  0
    7.4877    2.2601   25.1296 C   0  0  0  0  0  0  0  0  0  0  0  0
    8.4460    1.4123   24.4636 N   0  0  0  0  0  0  0  0  0  0  0  0
    8.0840    0.0444   24.1256 C   0  0  0  0  0  0  0  0  0  0  0  0
    8.7801   -0.4422   22.8236 C   0  0  2  0  0  0  0  0  0  0  0  0
    8.2121    0.3326   21.6072 C   0  0  0  0  0  0  0  0  0  0  0  0
    8.5256    1.4395   21.2161 O   0  0  0  0  0  0  0  0  0  0  0  0
    7.2412   -0.4519   21.0228 N   0  0  0  0  0  0  0  0  0  0  0  0
    6.4102    0.0399   19.9810 C   0  0  0  0  0  0  0  0  0  0  0  0
    6.7503   -0.1977   18.6751 C   0  0  0  0  0  0  0  0  0  0  0  0
    6.0442    0.2419   17.6036 N   0  0  0  0  0  0  0  0  0  0  0  0
    4.9613    0.9448   17.8447 C   0  0  0  0  0  0  0  0  0  0  0  0
    4.4716    1.2413   19.1507 C   0  0  0  0  0  0  0  0  0  0  0  0
    3.2961    2.0136   19.3755 C   0  0  0  0  0  0  0  0  0  0  0  0
    2.8598    2.2551   20.6499 C   0  0  0  0  0  0  0  0  0  0  0  0
    3.5613    1.7359   21.7646 C   0  0  0  0  0  0  0  0  0  0  0  0
    4.7073    1.0039   21.5733 C   0  0  0  0  0  0  0  0  0  0  0  0
    5.2039    0.7533   20.2630 C   0  0  0  0  0  0  0  0  0  0  0  0
    7.0466   -1.7285   21.6889 C   0  0  0  0  0  0  0  0  0  0  0  0
    8.3612   -1.8924   22.4603 C   0  0  2  0  0  0  0  0  0  0  0  0
    8.3027   -2.8918   23.6077 C   0  0  0  0  0  0  0  0  0  0  0  0
   10.2671   -0.2055   22.9785 C   0  0  0  0  0  0  0  0  0  0  0  0
   11.2288   -1.0249   22.3686 C   0  0  0  0  0  0  0  0  0  0  0  0
   12.5671   -0.6748   22.4091 C   0  0  0  0  0  0  0  0  0  0  0  0
   13.7274   -1.6746   21.5770 Cl  0  0  0  0  0  0  0  0  0  0  0  0
   13.0003    0.4771   23.0698 C   0  0  0  0  0  0  0  0  0  0  0  0
   12.0556    1.2805   23.6836 C   0  0  0  0  0  0  0  0  0  0  0  0
   10.6978    0.9546   23.6431 C   0  0  0  0  0  0  0  0  0  0  0  0
    9.7170    1.9003   24.2764 C   0  0  0  0  0  0  0  0  0  0  0  0
   10.0068    3.0421   24.6002 O   0  0  0  0  0  0  0  0  0  0  0  0
    6.6420    1.6461   26.2337 C   0  0  0  0  0  0  0  0  0  0  0  0
    7.7140    2.6117   26.5883 C   0  0  0  0  0  0  0  0  0  0  0  0
  1  2  1  0
  2  3  1  0
  3  4  2  0
  3  5  1  0
  5  6  1  0
  6  7  1  0
  8  7  1  1
  8  9  1  0
  9 10  2  0
  9 11  1  0
 11 12  1  0
 12 13  2  0
 13 14  1  0
 14 15  2  0
 15 16  1  0
 16 17  2  0
 17 18  1  0
 18 19  2  0
 19 20  1  0
 20 21  2  0
 11 22  1  0
 22 23  1  0
 23 24  1  1
  8 25  1  0
 25 26  2  0
 26 27  1  0
 27 28  1  0
 27 29  2  0
 29 30  1  0
 30 31  2  0
 31 32  1  0
 32 33  2  0
  5 34  1  0
 34 35  1  0
 35  5  1  0
 32  6  1  0
 23  8  1  0
 31 25  1  0
 21 12  1  0
 21 16  1  0
M  END
>  <template_ligand>  (165) 
mol-295

>  <template_receptor>  (165) 
receptors/receptor-295.pdb

>  <SMILES>  (165) 
CNC(=O)C1(N2CC3(C(=O)N(c4cncc5ccccc45)CC3C)c3cc(Cl)ccc3C2=O)CC1

>  <LABEL>  (165) 
MERS-CoV Mpro

$$$$
ligand_79
     RDKit          3D

 35 40  0  0  0  0  0  0  0  0999 V2000
   -6.9780    3.4762  -22.3973 C   0  0  0  0  0  0  0  0  0  0  0  0
   -7.7179    2.5938  -23.2796 N   0  0  0  0  0  0  0  0  0  0  0  0
   -7.3400    2.4215  -24.5661 C   0  0  0  0  0  0  0  0  0  0  0  0
   -6.4979    3.1201  -25.1108 O   0  0  0  0  0  0  0  0  0  0  0  0
   -7.9753    1.2825  -25.3455 C   0  0  0  0  0  0  0  0  0  0  0  0
   -8.8585    0.3735  -24.6568 N   0  0  0  0  0  0  0  0  0  0  0  0
   -8.3871   -0.9556  -24.2993 C   0  0  0  0  0  0  0  0  0  0  0  0
   -9.0327   -1.4729  -22.9831 C   0  0  2  0  0  0  0  0  0  0  0  0
   -8.5183   -0.6347  -21.7850 C   0  0  0  0  0  0  0  0  0  0  0  0
   -8.9153    0.4507  -21.4097 O   0  0  0  0  0  0  0  0  0  0  0  0
   -7.4841   -1.3299  -21.1963 N   0  0  0  0  0  0  0  0  0  0  0  0
   -6.6866   -0.7562  -20.1704 C   0  0  0  0  0  0  0  0  0  0  0  0
   -6.9969   -0.9971  -18.8578 C   0  0  0  0  0  0  0  0  0  0  0  0
   -6.3194   -0.4847  -17.8001 N   0  0  0  0  0  0  0  0  0  0  0  0
   -5.2974    0.2971  -18.0627 C   0  0  0  0  0  0  0  0  0  0  0  0
   -4.8426    0.6086  -19.3778 C   0  0  0  0  0  0  0  0  0  0  0  0
   -3.7335    1.4671  -19.6260 C   0  0  0  0  0  0  0  0  0  0  0  0
   -3.3273    1.7201  -20.9081 C   0  0  0  0  0  0  0  0  0  0  0  0
   -3.9942    1.1279  -22.0076 C   0  0  0  0  0  0  0  0  0  0  0  0
   -5.0773    0.3112  -21.7938 C   0  0  0  0  0  0  0  0  0  0  0  0
   -5.5425    0.0451  -20.4751 C   0  0  0  0  0  0  0  0  0  0  0  0
   -7.1944   -2.5986  -21.8428 C   0  0  0  0  0  0  0  0  0  0  0  0
   -8.4978   -2.8790  -22.5995 C   0  0  2  0  0  0  0  0  0  0  0  0
   -8.3693   -3.8904  -23.7305 C   0  0  0  0  0  0  0  0  0  0  0  0
  -10.5348   -1.3568  -23.1286 C   0  0  0  0  0  0  0  0  0  0  0  0
  -11.4241   -2.2388  -22.4965 C   0  0  0  0  0  0  0  0  0  0  0  0
  -12.7861   -1.9960  -22.5308 C   0  0  0  0  0  0  0  0  0  0  0  0
  -13.8575   -3.0696  -21.6717 Cl  0  0  0  0  0  0  0  0  0  0  0  0
  -13.3140   -0.8935  -23.2067 C   0  0  0  0  0  0  0  0  0  0  0  0
  -12.4404   -0.0289  -23.8424 C   0  0  0  0  0  0  0  0  0  0  0  0
  -11.0608   -0.2460  -23.8086 C   0  0  0  0  0  0  0  0  0  0  0  0
  -10.1627    0.7629  -24.4664 C   0  0  0  0  0  0  0  0  0  0  0  0
  -10.5442    1.8725  -24.8066 O   0  0  0  0  0  0  0  0  0  0  0  0
   -7.0922    0.7180  -26.4467 C   0  0  0  0  0  0  0  0  0  0  0  0
   -8.2398    1.5898  -26.8078 C   0  0  0  0  0  0  0  0  0  0  0  0
  1  2  1  0
  2  3  1  0
  3  4  2  0
  3  5  1  0
  5  6  1  0
  6  7  1  0
  8  7  1  6
  8  9  1  0
  9 10  2  0
  9 11  1  0
 11 12  1  0
 12 13  2  0
 13 14  1  0
 14 15  2  0
 15 16  1  0
 16 17  2  0
 17 18  1  0
 18 19  2  0
 19 20  1  0
 20 21  2  0
 11 22  1  0
 22 23  1  0
 23 24  1  6
  8 25  1  0
 25 26  2  0
 26 27  1  0
 27 28  1  0
 27 29  2  0
 29 30  1  0
 30 31  2  0
 31 32  1  0
 32 33  2  0
  5 34  1  0
 34 35  1  0
 35  5  1  0
 32  6  1  0
 23  8  1  0
 31 25  1  0
 21 12  1  0
 21 16  1  0
M  END
>  <template_ligand>  (166) 
mol-295

>  <template_receptor>  (166) 
receptors/receptor-295.pdb

>  <SMILES>  (166) 
CNC(=O)C1(N2CC3(C(=O)N(c4cncc5ccccc45)CC3C)c3cc(Cl)ccc3C2=O)CC1

>  <LABEL>  (166) 
SARS-CoV-2 Mpro

$$$$
ligand_84
     RDKit          3D

 34 39  0  0  0  0  0  0  0  0999 V2000
    8.3735   -2.9110   23.5787 C   0  0  0  0  0  0  0  0  0  0  0  0
    8.4138   -1.9087   22.4353 C   0  0  1  0  0  0  0  0  0  0  0  0
    7.0819   -1.7253   21.6996 C   0  0  0  0  0  0  0  0  0  0  0  0
    7.2462   -0.4346   21.0571 N   0  0  0  0  0  0  0  0  0  0  0  0
    6.4126    0.0540   20.0179 C   0  0  0  0  0  0  0  0  0  0  0  0
    6.7323   -0.2102   18.7103 C   0  0  0  0  0  0  0  0  0  0  0  0
    6.0165    0.2123   17.6384 N   0  0  0  0  0  0  0  0  0  0  0  0
    4.9339    0.9204   17.8734 C   0  0  0  0  0  0  0  0  0  0  0  0
    4.4654    1.2436   19.1805 C   0  0  0  0  0  0  0  0  0  0  0  0
    3.2900    2.0192   19.3985 C   0  0  0  0  0  0  0  0  0  0  0  0
    2.8763    2.3047   20.6723 C   0  0  0  0  0  0  0  0  0  0  0  0
    3.6028    1.8228   21.7864 C   0  0  0  0  0  0  0  0  0  0  0  0
    4.7493    1.0905   21.6046 C   0  0  0  0  0  0  0  0  0  0  0  0
    5.2132    0.7876   20.2943 C   0  0  0  0  0  0  0  0  0  0  0  0
    8.2317    0.3417   21.6301 C   0  0  0  0  0  0  0  0  0  0  0  0
    8.5211    1.4586   21.2616 O   0  0  0  0  0  0  0  0  0  0  0  0
    8.8482   -0.4632   22.8054 C   0  0  1  0  0  0  0  0  0  0  0  0
    8.2075    0.0062   24.1391 C   0  0  0  0  0  0  0  0  0  0  0  0
    8.5473    1.3802   24.4637 N   0  0  0  0  0  0  0  0  0  0  0  0
    7.5934    2.1523   25.2365 C   0  0  0  0  0  0  0  0  0  0  0  0
    6.7461    3.0498   24.3984 C   0  0  0  0  0  0  0  0  0  0  0  0
    7.1469    3.7533   23.3196 C   0  0  0  0  0  0  0  0  0  0  0  0
    6.0829    4.4915   22.8900 O   0  0  0  0  0  0  0  0  0  0  0  0
    5.0890    4.1748   23.7410 C   0  0  0  0  0  0  0  0  0  0  0  0
    5.4074    3.3152   24.6522 N   0  0  0  0  0  0  0  0  0  0  0  0
    9.7973    1.8903   24.2498 C   0  0  0  0  0  0  0  0  0  0  0  0
   10.1084    3.0197   24.6070 O   0  0  0  0  0  0  0  0  0  0  0  0
   10.7705    0.9701   23.5584 C   0  0  0  0  0  0  0  0  0  0  0  0
   12.1236    1.3199   23.5602 C   0  0  0  0  0  0  0  0  0  0  0  0
   13.0621    0.5198   22.9381 C   0  0  0  0  0  0  0  0  0  0  0  0
   12.6161   -0.6447   22.3239 C   0  0  0  0  0  0  0  0  0  0  0  0
   13.5087   -1.4328   21.7035 F   0  0  0  0  0  0  0  0  0  0  0  0
   11.2882   -1.0222   22.3018 C   0  0  0  0  0  0  0  0  0  0  0  0
   10.3360   -0.2031   22.9165 C   0  0  0  0  0  0  0  0  0  0  0  0
  2  1  1  1
  2  3  1  0
  3  4  1  0
  4  5  1  0
  5  6  2  0
  6  7  1  0
  7  8  2  0
  8  9  1  0
  9 10  2  0
 10 11  1  0
 11 12  2  0
 12 13  1  0
 13 14  2  0
  4 15  1  0
 15 16  2  0
 15 17  1  0
 17 18  1  1
 18 19  1  0
 19 20  1  0
 20 21  1  0
 21 22  2  0
 22 23  1  0
 23 24  1  0
 24 25  2  0
 19 26  1  0
 26 27  2  0
 26 28  1  0
 28 29  2  0
 29 30  1  0
 30 31  2  0
 31 32  1  0
 31 33  1  0
 33 34  2  0
 17  2  1  0
 25 21  1  0
 34 28  1  0
 14  5  1  0
 34 17  1  0
 14  9  1  0
M  END
>  <template_ligand>  (167) 
mol-218

>  <template_receptor>  (167) 
receptors/receptor-218.pdb

>  <SMILES>  (167) 
CC1CN(c2cncc3ccccc23)C(=O)C12CN(Cc1cocn1)C(=O)c1ccc(F)cc12

>  <LABEL>  (167) 
MERS-CoV Mpro

$$$$
ligand_85
     RDKit          3D

 40 45  0  0  0  0  0  0  0  0999 V2000
    6.3490    4.4410   22.4486 C   0  0  0  0  0  0  0  0  0  0  0  0
    7.1619    3.5379   23.2394 N   0  0  0  0  0  0  0  0  0  0  0  0
    6.8310    3.2663   24.5180 C   0  0  0  0  0  0  0  0  0  0  0  0
    5.9252    3.8432   25.1146 O   0  0  0  0  0  0  0  0  0  0  0  0
    7.6196    2.1638   25.2380 C   0  0  0  0  0  0  0  0  0  0  0  0
    8.5427    1.3827   24.4412 N   0  0  0  0  0  0  0  0  0  0  0  0
    8.2066    0.0023   24.1423 C   0  0  0  0  0  0  0  0  0  0  0  0
    8.8467   -0.4645   22.8110 C   0  0  2  0  0  0  0  0  0  0  0  0
    8.2276    0.3364   21.6328 C   0  0  0  0  0  0  0  0  0  0  0  0
    8.5169    1.4576   21.2628 O   0  0  0  0  0  0  0  0  0  0  0  0
    7.2413   -0.4401   21.0610 N   0  0  0  0  0  0  0  0  0  0  0  0
    6.4145    0.0535   20.0164 C   0  0  0  0  0  0  0  0  0  0  0  0
    6.7382   -0.2059   18.7101 C   0  0  0  0  0  0  0  0  0  0  0  0
    6.0185    0.2138   17.6370 N   0  0  0  0  0  0  0  0  0  0  0  0
    4.9369    0.9177   17.8787 C   0  0  0  0  0  0  0  0  0  0  0  0
    4.4705    1.2498   19.1845 C   0  0  0  0  0  0  0  0  0  0  0  0
    3.2931    2.0174   19.4010 C   0  0  0  0  0  0  0  0  0  0  0  0
    2.8734    2.3005   20.6725 C   0  0  0  0  0  0  0  0  0  0  0  0
    3.6034    1.8285   21.7884 C   0  0  0  0  0  0  0  0  0  0  0  0
    4.7509    1.0971   21.6042 C   0  0  0  0  0  0  0  0  0  0  0  0
    5.2234    0.7970   20.2963 C   0  0  0  0  0  0  0  0  0  0  0  0
    7.0717   -1.7349   21.6926 C   0  0  0  0  0  0  0  0  0  0  0  0
    8.4067   -1.9096   22.4283 C   0  0  2  0  0  0  0  0  0  0  0  0
    8.3524   -2.9440   23.5661 C   0  0  0  0  0  0  0  0  0  0  0  0
    8.1620   -4.3127   23.1156 N   0  0  0  0  0  0  0  0  0  0  0  0
    6.9659   -4.9050   22.9410 C   0  0  0  0  0  0  0  0  0  0  0  0
    5.8549   -4.2816   23.3820 N   0  0  0  0  0  0  0  0  0  0  0  0
    4.7407   -4.9766   23.1889 C   0  0  0  0  0  0  0  0  0  0  0  0
    4.6247   -6.1505   22.5757 N   0  0  0  0  0  0  0  0  0  0  0  0
    5.7962   -6.6632   22.1815 C   0  0  0  0  0  0  0  0  0  0  0  0
    6.9875   -6.1158   22.3307 N   0  0  0  0  0  0  0  0  0  0  0  0
   10.3361   -0.2019   22.9148 C   0  0  0  0  0  0  0  0  0  0  0  0
   11.2927   -1.0169   22.2993 C   0  0  0  0  0  0  0  0  0  0  0  0
   12.6269   -0.6495   22.3057 C   0  0  0  0  0  0  0  0  0  0  0  0
   13.7872   -1.6586   21.4852 Cl  0  0  0  0  0  0  0  0  0  0  0  0
   13.0613    0.5192   22.9330 C   0  0  0  0  0  0  0  0  0  0  0  0
   12.1238    1.3181   23.5615 C   0  0  0  0  0  0  0  0  0  0  0  0
   10.7750    0.9654   23.5615 C   0  0  0  0  0  0  0  0  0  0  0  0
    9.8064    1.8744   24.2623 C   0  0  0  0  0  0  0  0  0  0  0  0
   10.1074    3.0027   24.6348 O   0  0  0  0  0  0  0  0  0  0  0  0
  1  2  1  0
  2  3  1  0
  3  4  2  0
  3  5  1  0
  5  6  1  0
  6  7  1  0
  8  7  1  1
  8  9  1  0
  9 10  2  0
  9 11  1  0
 11 12  1  0
 12 13  2  0
 13 14  1  0
 14 15  2  0
 15 16  1  0
 16 17  2  0
 17 18  1  0
 18 19  2  0
 19 20  1  0
 20 21  2  0
 11 22  1  0
 22 23  1  0
 23 24  1  1
 24 25  1  0
 25 26  1  0
 26 27  2  0
 27 28  1  0
 28 29  2  0
 29 30  1  0
 30 31  2  0
  8 32  1  0
 32 33  2  0
 33 34  1  0
 34 35  1  0
 34 36  2  0
 36 37  1  0
 37 38  2  0
 38 39  1  0
 39 40  2  0
 39  6  1  0
 23  8  1  0
 31 26  1  0
 38 32  1  0
 21 12  1  0
 21 16  1  0
M  END
>  <template_ligand>  (168) 
mol-218

>  <template_receptor>  (168) 
receptors/receptor-218.pdb

>  <SMILES>  (168) 
CNC(=O)CN1CC2(C(=O)N(c3cncc4ccccc34)CC2CNc2ncncn2)c2cc(Cl)ccc2C1=O

>  <LABEL>  (168) 
MERS-CoV Mpro

$$$$
ligand_86
     RDKit          3D

 38 43  0  0  0  0  0  0  0  0999 V2000
    6.3604    4.3929   22.4048 C   0  0  0  0  0  0  0  0  0  0  0  0
    7.1575    3.4587   23.1739 N   0  0  0  0  0  0  0  0  0  0  0  0
    6.8365    3.2440   24.4663 C   0  0  0  0  0  0  0  0  0  0  0  0
    5.9368    3.8467   25.0406 O   0  0  0  0  0  0  0  0  0  0  0  0
    7.6604    2.2090   25.2412 C   0  0  0  0  0  0  0  0  0  0  0  0
    8.5716    1.4121   24.4508 N   0  0  0  0  0  0  0  0  0  0  0  0
    8.2117    0.0489   24.1338 C   0  0  0  0  0  0  0  0  0  0  0  0
    8.8291   -0.4380   22.7972 C   0  0  2  0  0  0  0  0  0  0  0  0
    8.2088    0.3608   21.6245 C   0  0  0  0  0  0  0  0  0  0  0  0
    8.4551    1.5023   21.2833 O   0  0  0  0  0  0  0  0  0  0  0  0
    7.2535   -0.4233   21.0299 N   0  0  0  0  0  0  0  0  0  0  0  0
    6.4229    0.0779   19.9960 C   0  0  0  0  0  0  0  0  0  0  0  0
    6.7536   -0.1810   18.6920 C   0  0  0  0  0  0  0  0  0  0  0  0
    6.0361    0.2304   17.6173 N   0  0  0  0  0  0  0  0  0  0  0  0
    4.9502    0.9278   17.8598 C   0  0  0  0  0  0  0  0  0  0  0  0
    4.4846    1.2644   19.1652 C   0  0  0  0  0  0  0  0  0  0  0  0
    3.3008    2.0257   19.3708 C   0  0  0  0  0  0  0  0  0  0  0  0
    2.8755    2.3097   20.6405 C   0  0  0  0  0  0  0  0  0  0  0  0
    3.6027    1.8496   21.7638 C   0  0  0  0  0  0  0  0  0  0  0  0
    4.7562    1.1224   21.5904 C   0  0  0  0  0  0  0  0  0  0  0  0
    5.2349    0.8207   20.2812 C   0  0  0  0  0  0  0  0  0  0  0  0
    7.0352   -1.6961   21.6790 C   0  0  0  0  0  0  0  0  0  0  0  0
    8.3234   -1.8827   22.4955 C   0  0  2  0  0  0  0  0  0  0  0  0
    8.0889   -2.7590   23.7378 C   0  0  0  0  0  0  0  0  0  0  0  0
    7.8249   -4.1496   23.4044 N   0  0  0  0  0  0  0  0  0  0  0  0
    6.6810   -4.7300   22.9561 C   0  0  0  0  0  0  0  0  0  0  0  0
    7.0054   -6.0135   22.5723 C   0  0  0  0  0  0  0  0  0  0  0  0
    8.3932   -6.1033   22.8071 C   0  0  0  0  0  0  0  0  0  0  0  0
    8.8699   -4.9707   23.2969 N   0  0  0  0  0  0  0  0  0  0  0  0
   10.3270   -0.1914   22.8862 C   0  0  0  0  0  0  0  0  0  0  0  0
   11.2843   -1.0107   22.2711 C   0  0  0  0  0  0  0  0  0  0  0  0
   12.6250   -0.6541   22.3073 C   0  0  0  0  0  0  0  0  0  0  0  0
   13.8064   -1.6814   21.5414 Cl  0  0  0  0  0  0  0  0  0  0  0  0
   13.0616    0.5157   22.9314 C   0  0  0  0  0  0  0  0  0  0  0  0
   12.1266    1.3207   23.5487 C   0  0  0  0  0  0  0  0  0  0  0  0
   10.7800    0.9676   23.5453 C   0  0  0  0  0  0  0  0  0  0  0  0
    9.8512    1.8641   24.3082 C   0  0  0  0  0  0  0  0  0  0  0  0
   10.2053    2.9368   24.7812 O   0  0  0  0  0  0  0  0  0  0  0  0
  1  2  1  0
  2  3  1  0
  3  4  2  0
  3  5  1  0
  5  6  1  0
  6  7  1  0
  8  7  1  1
  8  9  1  0
  9 10  2  0
  9 11  1  0
 11 12  1  0
 12 13  2  0
 13 14  1  0
 14 15  2  0
 15 16  1  0
 16 17  2  0
 17 18  1  0
 18 19  2  0
 19 20  1  0
 20 21  2  0
 11 22  1  0
 22 23  1  0
 23 24  1  1
 24 25  1  0
 25 26  1  0
 26 27  2  0
 27 28  1  0
 28 29  2  0
  8 30  1  0
 30 31  2  0
 31 32  1  0
 32 33  1  0
 32 34  2  0
 34 35  1  0
 35 36  2  0
 36 37  1  0
 37 38  2  0
 37  6  1  0
 23  8  1  0
 29 25  1  0
 36 30  1  0
 21 12  1  0
 21 16  1  0
M  END
>  <template_ligand>  (169) 
mol-218

>  <template_receptor>  (169) 
receptors/receptor-218.pdb

>  <SMILES>  (169) 
CNC(=O)CN1CC2(C(=O)N(c3cncc4ccccc34)CC2Cn2cccn2)c2cc(Cl)ccc2C1=O

>  <LABEL>  (169) 
MERS-CoV Mpro

$$$$

     RDKit          3D

 36 40  0  0  0  0  0  0  0  0999 V2000
    3.5164    3.6007   28.3708 C   0  0  0  0  0  0  0  0  0  0  0  0
    3.5304    2.7563   27.0908 C   0  0  0  0  0  0  0  0  0  0  0  0
    4.9321    2.3999   26.5866 C   0  0  0  0  0  0  0  0  0  0  0  0
    5.5375    3.2339   25.9271 O   0  0  0  0  0  0  0  0  0  0  0  0
    5.3882    1.0894   26.6921 N   0  0  0  0  0  0  0  0  0  0  0  0
    4.8834    0.2404   27.7738 C   0  0  0  0  0  0  0  0  0  0  0  0
    6.0620   -0.5245   28.3689 C   0  0  0  0  0  0  0  0  0  0  0  0
    6.6314   -1.4570   27.2982 C   0  0  0  0  0  0  0  0  0  0  0  0
    6.9148   -0.7004   26.0238 C   0  0  0  0  0  0  0  0  0  0  0  0
    7.7694   -1.2747   25.0746 C   0  0  0  0  0  0  0  0  0  0  0  0
    7.9911   -0.6384   23.8532 C   0  0  0  0  0  0  0  0  0  0  0  0
    7.3944    0.5922   23.5801 C   0  0  0  0  0  0  0  0  0  0  0  0
    7.7267    1.2441   22.3936 N   0  0  0  0  0  0  0  0  0  0  0  0
    8.1683    2.6431   22.4596 C   0  0  0  0  0  0  0  0  0  0  0  0
    9.6397    2.8353   22.7647 C   0  0  0  0  0  0  0  0  0  0  0  0
   10.4086    1.8642   23.4212 C   0  0  0  0  0  0  0  0  0  0  0  0
   11.6648    2.1663   23.9523 C   0  0  0  0  0  0  0  0  0  0  0  0
   12.1688    3.4611   23.8059 C   0  0  0  0  0  0  0  0  0  0  0  0
   11.5017    4.3942   23.0137 C   0  0  0  0  0  0  0  0  0  0  0  0
   12.2881    6.0996   22.6455 Br  0  0  0  0  0  0  0  0  0  0  0  0
   10.2254    4.0863   22.5289 C   0  0  0  0  0  0  0  0  0  0  0  0
    7.6911    0.5632   21.1808 C   0  0  0  0  0  0  0  0  0  0  0  0
    8.2419    1.0567   20.2016 O   0  0  0  0  0  0  0  0  0  0  0  0
    6.7706   -0.6589   20.9744 C   0  0  0  0  0  0  0  0  0  0  0  0
    5.7709   -0.4021   19.8477 C   0  0  0  0  0  0  0  0  0  0  0  0
    5.9855   -0.9348   18.5631 C   0  0  0  0  0  0  0  0  0  0  0  0
    5.2082   -0.6538   17.5037 N   0  0  0  0  0  0  0  0  0  0  0  0
    4.1537    0.1591   17.6987 C   0  0  0  0  0  0  0  0  0  0  0  0
    3.8387    0.7254   18.9401 C   0  0  0  0  0  0  0  0  0  0  0  0
    2.7328    1.5788   19.0970 C   0  0  0  0  0  0  0  0  0  0  0  0
    2.4682    2.1655   20.3378 C   0  0  0  0  0  0  0  0  0  0  0  0
    3.3091    1.9133   21.4251 C   0  0  0  0  0  0  0  0  0  0  0  0
    4.4052    1.0560   21.2744 C   0  0  0  0  0  0  0  0  0  0  0  0
    4.6722    0.4500   20.0378 C   0  0  0  0  0  0  0  0  0  0  0  0
    6.5450    1.1725   24.5301 C   0  0  0  0  0  0  0  0  0  0  0  0
    6.2896    0.5385   25.7578 C   0  0  0  0  0  0  0  0  0  0  0  0
  1  2  1  0
  2  3  1  0
  3  4  2  0
  3  5  1  0
  5  6  1  0
  6  7  1  0
  7  8  1  0
  8  9  1  0
  9 10  2  0
 10 11  1  0
 11 12  2  0
 12 13  1  0
 13 14  1  0
 14 15  1  0
 15 16  2  0
 16 17  1  0
 17 18  2  0
 18 19  1  0
 19 20  1  0
 19 21  2  0
 13 22  1  0
 22 23  2  0
 22 24  1  0
 24 25  1  0
 25 26  2  0
 26 27  1  0
 27 28  2  0
 28 29  1  0
 29 30  2  0
 30 31  1  0
 31 32  2  0
 32 33  1  0
 33 34  2  0
 12 35  1  0
 35 36  2  0
 36  5  1  0
 36  9  1  0
 21 15  1  0
 34 25  1  0
 34 29  1  0
M  END
>  <cnnaffinities>  (170) 
[6.32121, 6.82452, 6.79881, 6.4433, 6.86402]

>  <score>  (170) 
6.32121

>  <index>  (170) 
88

>  <Smiles>  (170) 
C(C(C(=O)N1C(C(C(c2c(c(c(N(C(c3c(c(c(c(Br)c3[H])[H])[H])[H])([H])[H])C(=O)C(c3c(nc(c4c(c(c(c(c34)[H])[H])[H])[H])[H])[H])([H])[H])c(c12)[H])[H])[H])([H])[H])([H])[H])([H])[H])([H])[H])([H])([H])[H]

>  <h>  (170) 
<NA>

>  <Training>  (170) 
True

>  <Success>  (170) 
True

>  <enamine_searched>  (170) 
False

>  <enamine_id>  (170) 
nan

>  <SMILES>  (170) 
CCC(=O)N1CCCc2ccc(N(Cc3cccc(Br)c3)C(=O)Cc3cncc4ccccc34)cc21

>  <LABEL>  (170) 
MERS-CoV Mpro

$$$$
ligand_80
     RDKit          3D

 20 22  0  0  0  0  0  0  0  0999 V2000
   -9.9141    0.0797  -21.0715 O   0  0  0  0  0  0  0  0  0  0  0  0
   -8.9977   -0.6512  -21.3993 C   0  0  0  0  0  0  0  0  0  0  0  0
   -7.6033   -0.0923  -21.5759 C   0  0  0  0  0  0  0  0  0  0  0  0
   -6.6427   -0.3426  -20.4305 C   0  0  0  0  0  0  0  0  0  0  0  0
   -7.0399   -0.7524  -19.1817 C   0  0  0  0  0  0  0  0  0  0  0  0
   -6.2813   -0.7084  -18.0517 N   0  0  0  0  0  0  0  0  0  0  0  0
   -5.0774   -0.2103  -18.1702 C   0  0  0  0  0  0  0  0  0  0  0  0
   -4.5181    0.2261  -19.4056 C   0  0  0  0  0  0  0  0  0  0  0  0
   -3.2626    0.8780  -19.4871 C   0  0  0  0  0  0  0  0  0  0  0  0
   -2.7052    1.1430  -20.7080 C   0  0  0  0  0  0  0  0  0  0  0  0
   -3.3733    0.7657  -21.8963 C   0  0  0  0  0  0  0  0  0  0  0  0
   -4.6320    0.2155  -21.8406 C   0  0  0  0  0  0  0  0  0  0  0  0
   -5.2665    0.0153  -20.5863 C   0  0  0  0  0  0  0  0  0  0  0  0
   -9.1540   -2.0028  -21.6011 N   0  0  0  0  0  0  0  0  0  0  0  0
  -10.5169   -2.5081  -21.6926 C   0  0  0  0  0  0  0  0  0  0  0  0
  -11.1563   -2.3020  -23.0429 C   0  0  0  0  0  0  0  0  0  0  0  0
  -10.5391   -2.4899  -24.2105 C   0  0  0  0  0  0  0  0  0  0  0  0
   -9.2308   -3.1510  -24.3934 C   0  0  0  0  0  0  0  0  0  0  0  0
   -8.2825   -3.4013  -23.4853 C   0  0  0  0  0  0  0  0  0  0  0  0
   -8.1037   -2.8828  -22.0825 C   0  0  0  0  0  0  0  0  0  0  0  0
  1  2  2  0
  2  3  1  0
  3  4  1  0
  4  5  2  0
  5  6  1  0
  6  7  2  0
  7  8  1  0
  8  9  2  0
  9 10  1  0
 10 11  2  0
 11 12  1  0
 12 13  2  0
  2 14  1  0
 14 15  1  0
 15 16  1  0
 16 17  2  0
 17 18  1  0
 18 19  2  0
 19 20  1  0
 13  4  1  0
 20 14  1  0
 13  8  1  0
M  END
>  <template_ligand>  (171) 
mol-100

>  <template_receptor>  (171) 
receptors/receptor-100.pdb

>  <SMILES>  (171) 
O=C(Cc1cncc2ccccc12)N1CC=CC=CC1

>  <LABEL>  (171) 
SARS-CoV-2 Mpro

$$$$
ligand_81
     RDKit          3D

 28 31  0  0  0  0  0  0  0  0999 V2000
   -5.1790   -1.4201  -27.0063 C   0  0  0  0  0  0  0  0  0  0  0  0
   -6.1319   -1.4896  -25.9646 O   0  0  0  0  0  0  0  0  0  0  0  0
   -6.6386   -2.7200  -25.6527 C   0  0  0  0  0  0  0  0  0  0  0  0
   -6.1882   -3.8731  -26.2832 C   0  0  0  0  0  0  0  0  0  0  0  0
   -6.7313   -5.1049  -25.9554 C   0  0  0  0  0  0  0  0  0  0  0  0
   -7.7364   -5.1878  -25.0066 C   0  0  0  0  0  0  0  0  0  0  0  0
   -8.1781   -4.0337  -24.3653 C   0  0  0  0  0  0  0  0  0  0  0  0
   -7.6252   -2.7892  -24.6479 C   0  0  0  0  0  0  0  0  0  0  0  0
   -8.0895   -1.4948  -23.9848 C   0  0  1  0  0  0  0  0  0  0  0  0
   -8.8499   -0.6040  -24.9850 C   0  0  0  0  0  0  0  0  0  0  0  0
   -9.7149    0.4484  -24.2918 C   0  0  1  0  0  0  0  0  0  0  0  0
  -10.3287    1.3440  -25.3530 C   0  0  0  0  0  0  0  0  0  0  0  0
  -10.8366   -0.2820  -23.5223 C   0  0  0  0  0  0  0  0  0  0  0  0
  -10.3732   -1.6641  -23.0289 C   0  0  0  0  0  0  0  0  0  0  0  0
   -8.9290   -1.6892  -22.7933 N   0  0  0  0  0  0  0  0  0  0  0  0
   -8.5149   -1.2621  -21.5467 C   0  0  0  0  0  0  0  0  0  0  0  0
   -9.2236   -0.5932  -20.8190 O   0  0  0  0  0  0  0  0  0  0  0  0
   -7.1602   -1.8079  -21.1059 C   0  0  0  0  0  0  0  0  0  0  0  0
   -6.4648   -0.9658  -20.0870 C   0  0  0  0  0  0  0  0  0  0  0  0
   -6.8777   -1.0221  -18.7808 C   0  0  0  0  0  0  0  0  0  0  0  0
   -6.2956   -0.3701  -17.7440 N   0  0  0  0  0  0  0  0  0  0  0  0
   -5.2596    0.3822  -18.0376 C   0  0  0  0  0  0  0  0  0  0  0  0
   -4.7303    0.5472  -19.3499 C   0  0  0  0  0  0  0  0  0  0  0  0
   -3.6137    1.3772  -19.6211 C   0  0  0  0  0  0  0  0  0  0  0  0
   -3.1536    1.5413  -20.8973 C   0  0  0  0  0  0  0  0  0  0  0  0
   -3.7858    0.8803  -21.9725 C   0  0  0  0  0  0  0  0  0  0  0  0
   -4.8620    0.0577  -21.7396 C   0  0  0  0  0  0  0  0  0  0  0  0
   -5.3611   -0.1322  -20.4210 C   0  0  0  0  0  0  0  0  0  0  0  0
  1  2  1  0
  2  3  1  0
  3  4  2  0
  4  5  1  0
  5  6  2  0
  6  7  1  0
  7  8  2  0
  9  8  1  6
  9 10  1  0
 10 11  1  0
 11 12  1  6
 11 13  1  0
 13 14  1  0
 14 15  1  0
 15 16  1  0
 16 17  2  0
 16 18  1  0
 18 19  1  0
 19 20  2  0
 20 21  1  0
 21 22  2  0
 22 23  1  0
 23 24  2  0
 24 25  1  0
 25 26  2  0
 26 27  1  0
 27 28  2  0
  8  3  1  0
 15  9  1  0
 28 19  1  0
 28 23  1  0
M  END
>  <template_ligand>  (172) 
mol-115

>  <template_receptor>  (172) 
receptors/receptor-115.pdb

>  <SMILES>  (172) 
COc1ccccc1C1CC(C)CCN1C(=O)Cc1cncc2ccccc12

>  <LABEL>  (172) 
SARS-CoV-2 Mpro

$$$$
ligand_82
     RDKit          3D

 30 34  0  0  0  0  0  0  0  0999 V2000
  -13.9503   -4.4979  -22.3469 N   0  0  0  0  0  0  0  0  0  0  0  0
  -13.6368   -3.2537  -21.2857 S   0  0  0  0  0  0  0  0  0  0  0  0
  -14.8522   -2.5414  -20.9340 O   0  0  0  0  0  0  0  0  0  0  0  0
  -12.8186   -3.8189  -20.2359 O   0  0  0  0  0  0  0  0  0  0  0  0
  -12.7130   -2.2054  -22.3395 C   0  0  0  0  0  0  0  0  0  0  0  0
  -13.4155   -1.2834  -23.1165 C   0  0  0  0  0  0  0  0  0  0  0  0
  -12.7003   -0.3904  -23.8922 C   0  0  0  0  0  0  0  0  0  0  0  0
  -11.3075   -0.4534  -23.8731 C   0  0  0  0  0  0  0  0  0  0  0  0
  -10.6073   -1.3852  -23.0966 C   0  0  0  0  0  0  0  0  0  0  0  0
  -11.3330   -2.2853  -22.3266 C   0  0  0  0  0  0  0  0  0  0  0  0
   -9.1049   -1.3350  -22.9964 C   0  0  2  0  0  0  0  0  0  0  0  0
   -8.4707   -0.6142  -24.2181 C   0  0  0  0  0  0  0  0  0  0  0  0
   -9.4886   -0.1256  -25.2462 C   0  0  0  0  0  0  0  0  0  0  0  0
  -10.6312    0.4471  -24.6356 O   0  0  0  0  0  0  0  0  0  0  0  0
   -8.5182   -2.6518  -22.7539 N   0  0  0  0  0  0  0  0  0  0  0  0
   -7.6064   -2.6859  -21.7313 C   0  0  0  0  0  0  0  0  0  0  0  0
   -6.8754   -3.5862  -21.3887 O   0  0  0  0  0  0  0  0  0  0  0  0
   -7.6860   -1.4225  -21.1158 N   0  0  0  0  0  0  0  0  0  0  0  0
   -6.8420   -0.9346  -20.0803 C   0  0  0  0  0  0  0  0  0  0  0  0
   -7.1869   -1.1510  -18.7765 C   0  0  0  0  0  0  0  0  0  0  0  0
   -6.5623   -0.5869  -17.7111 N   0  0  0  0  0  0  0  0  0  0  0  0
   -5.5516    0.2104  -17.9680 C   0  0  0  0  0  0  0  0  0  0  0  0
   -5.0656    0.4921  -19.2775 C   0  0  0  0  0  0  0  0  0  0  0  0
   -3.9625    1.3563  -19.4992 C   0  0  0  0  0  0  0  0  0  0  0  0
   -3.4968    1.5760  -20.7671 C   0  0  0  0  0  0  0  0  0  0  0  0
   -4.1124    0.9392  -21.8705 C   0  0  0  0  0  0  0  0  0  0  0  0
   -5.1914    0.1129  -21.6823 C   0  0  0  0  0  0  0  0  0  0  0  0
   -5.7067   -0.1164  -20.3764 C   0  0  0  0  0  0  0  0  0  0  0  0
   -8.6603   -0.6119  -21.7001 C   0  0  0  0  0  0  0  0  0  0  0  0
   -9.0245    0.4440  -21.2543 O   0  0  0  0  0  0  0  0  0  0  0  0
  1  2  1  0
  2  3  2  0
  2  4  2  0
  2  5  1  0
  5  6  2  0
  6  7  1  0
  7  8  2  0
  8  9  1  0
  9 10  2  0
  9 11  1  0
 11 12  1  6
 12 13  1  0
 13 14  1  0
 11 15  1  0
 15 16  1  0
 16 17  2  0
 16 18  1  0
 18 19  1  0
 19 20  2  0
 20 21  1  0
 21 22  2  0
 22 23  1  0
 23 24  2  0
 24 25  1  0
 25 26  2  0
 26 27  1  0
 27 28  2  0
 18 29  1  0
 29 30  2  0
 10  5  1  0
 29 11  1  0
 14  8  1  0
 28 19  1  0
 28 23  1  0
M  END
>  <template_ligand>  (173) 
mol-109

>  <template_receptor>  (173) 
receptors/receptor-109.pdb

>  <SMILES>  (173) 
NS(=O)(=O)c1ccc2c(c1)C1(CCO2)NC(=O)N(c2cncc3ccccc23)C1=O

>  <LABEL>  (173) 
SARS-CoV-2 Mpro

$$$$
ligand_83
     RDKit          3D

 37 42  0  0  0  0  0  0  0  0999 V2000
   -8.7032   -3.8864  -23.9696 C   0  0  0  0  0  0  0  0  0  0  0  0
   -8.8297   -2.9175  -22.7929 C   0  0  1  0  0  0  0  0  0  0  0  0
   -7.5057   -2.6617  -22.0488 C   0  0  0  0  0  0  0  0  0  0  0  0
   -7.7376   -1.3807  -21.4044 N   0  0  0  0  0  0  0  0  0  0  0  0
   -6.9408   -0.8600  -20.3519 C   0  0  0  0  0  0  0  0  0  0  0  0
   -7.2713   -1.1498  -19.0542 C   0  0  0  0  0  0  0  0  0  0  0  0
   -6.5682   -0.7406  -17.9660 N   0  0  0  0  0  0  0  0  0  0  0  0
   -5.5040   -0.0064  -18.1855 C   0  0  0  0  0  0  0  0  0  0  0  0
   -5.0423    0.3763  -19.4801 C   0  0  0  0  0  0  0  0  0  0  0  0
   -3.8933    1.1939  -19.6596 C   0  0  0  0  0  0  0  0  0  0  0  0
   -3.4693    1.5268  -20.9168 C   0  0  0  0  0  0  0  0  0  0  0  0
   -4.1651    1.0489  -22.0518 C   0  0  0  0  0  0  0  0  0  0  0  0
   -5.2870    0.2687  -21.9041 C   0  0  0  0  0  0  0  0  0  0  0  0
   -5.7682   -0.0752  -20.6099 C   0  0  0  0  0  0  0  0  0  0  0  0
   -8.8166   -0.6865  -21.9065 C   0  0  0  0  0  0  0  0  0  0  0  0
   -9.2135    0.3744  -21.4638 O   0  0  0  0  0  0  0  0  0  0  0  0
   -9.3703   -1.4877  -23.1147 C   0  0  1  0  0  0  0  0  0  0  0  0
   -8.7120   -0.9396  -24.4032 C   0  0  0  0  0  0  0  0  0  0  0  0
   -9.3228    0.3168  -24.8317 N   0  0  0  0  0  0  0  0  0  0  0  0
   -8.4749    1.1547  -25.6763 C   0  0  0  0  0  0  0  0  0  0  0  0
   -7.4462    2.0214  -24.9267 C   0  0  0  0  0  0  0  0  0  0  0  0
   -6.3332    2.2256  -25.3814 O   0  0  0  0  0  0  0  0  0  0  0  0
   -7.8736    2.5271  -23.7380 N   0  0  0  0  0  0  0  0  0  0  0  0
   -7.0342    3.4036  -22.9404 C   0  0  0  0  0  0  0  0  0  0  0  0
   -7.0748    4.8563  -23.3627 C   0  0  0  0  0  0  0  0  0  0  0  0
   -6.5798    5.0215  -24.6331 F   0  0  0  0  0  0  0  0  0  0  0  0
   -6.8024    5.9373  -22.3674 C   0  0  0  0  0  0  0  0  0  0  0  0
   -8.2011    5.7438  -22.9440 C   0  0  0  0  0  0  0  0  0  0  0  0
  -10.6721    0.2321  -25.1583 C   0  0  0  0  0  0  0  0  0  0  0  0
  -11.1655    0.7739  -26.1316 O   0  0  0  0  0  0  0  0  0  0  0  0
  -11.4881   -0.5380  -24.1628 C   0  0  0  0  0  0  0  0  0  0  0  0
  -12.8752   -0.3651  -24.1698 C   0  0  0  0  0  0  0  0  0  0  0  0
  -13.6759   -0.9994  -23.2397 C   0  0  0  0  0  0  0  0  0  0  0  0
  -13.0572   -1.8312  -22.3131 C   0  0  0  0  0  0  0  0  0  0  0  0
  -13.8216   -2.4636  -21.4080 F   0  0  0  0  0  0  0  0  0  0  0  0
  -11.6932   -2.0311  -22.2837 C   0  0  0  0  0  0  0  0  0  0  0  0
  -10.8761   -1.3711  -23.2157 C   0  0  0  0  0  0  0  0  0  0  0  0
  2  1  1  6
  2  3  1  0
  3  4  1  0
  4  5  1  0
  5  6  2  0
  6  7  1  0
  7  8  2  0
  8  9  1  0
  9 10  2  0
 10 11  1  0
 11 12  2  0
 12 13  1  0
 13 14  2  0
  4 15  1  0
 15 16  2  0
 15 17  1  0
 17 18  1  6
 18 19  1  0
 19 20  1  0
 20 21  1  0
 21 22  2  0
 21 23  1  0
 23 24  1  0
 24 25  1  0
 25 26  1  0
 25 27  1  0
 27 28  1  0
 19 29  1  0
 29 30  2  0
 29 31  1  0
 31 32  2  0
 32 33  1  0
 33 34  2  0
 34 35  1  0
 34 36  1  0
 36 37  2  0
 17  2  1  0
 28 25  1  0
 37 31  1  0
 14  5  1  0
 37 17  1  0
 14  9  1  0
M  END
>  <template_ligand>  (174) 
mol-23

>  <template_receptor>  (174) 
receptors/receptor-23.pdb

>  <SMILES>  (174) 
CC1CN(c2cncc3ccccc23)C(=O)C12CN(CC(=O)NCC1(F)CC1)C(=O)c1ccc(F)cc12

>  <LABEL>  (174) 
SARS-CoV-2 Mpro

$$$$
ligand_84
     RDKit          3D

 34 39  0  0  0  0  0  0  0  0999 V2000
   -7.0447    3.5999  -22.7291 C   0  0  0  0  0  0  0  0  0  0  0  0
   -7.7909    2.6235  -23.4973 N   0  0  0  0  0  0  0  0  0  0  0  0
   -7.4518    2.3570  -24.7752 C   0  0  0  0  0  0  0  0  0  0  0  0
   -6.6000    2.9896  -25.3881 O   0  0  0  0  0  0  0  0  0  0  0  0
   -8.1632    1.1861  -25.4696 C   0  0  0  0  0  0  0  0  0  0  0  0
   -9.0196    0.3525  -24.6508 N   0  0  0  0  0  0  0  0  0  0  0  0
   -8.5659   -0.9863  -24.3255 C   0  0  0  0  0  0  0  0  0  0  0  0
   -9.1507   -1.5279  -22.9857 C   0  0  2  0  0  0  0  0  0  0  0  0
   -8.5876   -0.6586  -21.8279 C   0  0  0  0  0  0  0  0  0  0  0  0
   -8.9637    0.4469  -21.4826 O   0  0  0  0  0  0  0  0  0  0  0  0
   -7.5437   -1.3371  -21.2427 N   0  0  0  0  0  0  0  0  0  0  0  0
   -6.7385   -0.7442  -20.2239 C   0  0  0  0  0  0  0  0  0  0  0  0
   -7.0222   -0.9958  -18.9074 C   0  0  0  0  0  0  0  0  0  0  0  0
   -6.3261   -0.4982  -17.8527 N   0  0  0  0  0  0  0  0  0  0  0  0
   -5.3068    0.2849  -18.1190 C   0  0  0  0  0  0  0  0  0  0  0  0
   -4.8869    0.6286  -19.4370 C   0  0  0  0  0  0  0  0  0  0  0  0
   -3.7763    1.4839  -19.6787 C   0  0  0  0  0  0  0  0  0  0  0  0
   -3.3911    1.7772  -20.9586 C   0  0  0  0  0  0  0  0  0  0  0  0
   -4.0933    1.2270  -22.0558 C   0  0  0  0  0  0  0  0  0  0  0  0
   -5.1765    0.4082  -21.8459 C   0  0  0  0  0  0  0  0  0  0  0  0
   -5.6150    0.0931  -20.5304 C   0  0  0  0  0  0  0  0  0  0  0  0
   -7.2822   -2.6305  -21.8426 C   0  0  0  0  0  0  0  0  0  0  0  0
   -8.5256   -2.9191  -22.6991 C   0  0  0  0  0  0  0  0  0  0  0  0
   -8.3274   -3.9118  -23.8259 C   0  0  0  0  0  0  0  0  0  0  0  0
   -9.1610   -4.2849  -22.6295 C   0  0  0  0  0  0  0  0  0  0  0  0
  -10.6567   -1.3545  -23.0677 C   0  0  0  0  0  0  0  0  0  0  0  0
  -11.5292   -2.1839  -22.3639 C   0  0  0  0  0  0  0  0  0  0  0  0
  -12.8910   -1.9526  -22.3933 C   0  0  0  0  0  0  0  0  0  0  0  0
  -13.9505   -3.0594  -21.5668 Cl  0  0  0  0  0  0  0  0  0  0  0  0
  -13.4310   -0.8632  -23.0752 C   0  0  0  0  0  0  0  0  0  0  0  0
  -12.5702   -0.0068  -23.7346 C   0  0  0  0  0  0  0  0  0  0  0  0
  -11.1981   -0.2444  -23.7453 C   0  0  0  0  0  0  0  0  0  0  0  0
  -10.3208    0.7380  -24.4718 C   0  0  0  0  0  0  0  0  0  0  0  0
  -10.7214    1.8301  -24.8563 O   0  0  0  0  0  0  0  0  0  0  0  0
  1  2  1  0
  2  3  1  0
  3  4  2  0
  3  5  1  0
  5  6  1  0
  6  7  1  0
  8  7  1  6
  8  9  1  0
  9 10  2  0
  9 11  1  0
 11 12  1  0
 12 13  2  0
 13 14  1  0
 14 15  2  0
 15 16  1  0
 16 17  2  0
 17 18  1  0
 18 19  2  0
 19 20  1  0
 20 21  2  0
 11 22  1  0
 22 23  1  0
 23 24  1  0
 24 25  1  0
  8 26  1  0
 26 27  2  0
 27 28  1  0
 28 29  1  0
 28 30  2  0
 30 31  1  0
 31 32  2  0
 32 33  1  0
 33 34  2  0
 33  6  1  0
 23  8  1  0
 32 26  1  0
 21 12  1  0
 25 23  1  0
 21 16  1  0
M  END
>  <template_ligand>  (175) 
mol-218

>  <template_receptor>  (175) 
receptors/receptor-218.pdb

>  <SMILES>  (175) 
CNC(=O)CN1CC2(C(=O)N(c3cncc4ccccc34)CC23CC3)c2cc(Cl)ccc2C1=O

>  <LABEL>  (175) 
SARS-CoV-2 Mpro

$$$$
ligand_85
     RDKit          3D

 21 23  0  0  0  0  0  0  0  0999 V2000
  -10.0798    1.2582  -25.5131 C   0  0  0  0  0  0  0  0  0  0  0  0
   -9.6399    0.2928  -24.4128 C   0  0  1  0  0  0  0  0  0  0  0  0
  -10.7842   -0.6533  -24.0368 C   0  0  0  0  0  0  0  0  0  0  0  0
  -10.3822   -1.6889  -22.9626 C   0  0  0  0  0  0  0  0  0  0  0  0
   -8.9432   -1.8435  -22.7735 N   0  0  0  0  0  0  0  0  0  0  0  0
   -8.3751   -1.0579  -21.7282 C   0  0  0  0  0  0  0  0  0  0  0  0
   -8.6983    0.0801  -21.4835 O   0  0  0  0  0  0  0  0  0  0  0  0
   -7.3905   -1.8560  -20.8761 C   0  0  0  0  0  0  0  0  0  0  0  0
   -6.5637   -1.0767  -19.8902 C   0  0  0  0  0  0  0  0  0  0  0  0
   -6.6635   -1.3535  -18.5498 C   0  0  0  0  0  0  0  0  0  0  0  0
   -5.9960   -0.7135  -17.5580 N   0  0  0  0  0  0  0  0  0  0  0  0
   -5.1510    0.2216  -17.9242 C   0  0  0  0  0  0  0  0  0  0  0  0
   -4.9099    0.5864  -19.2771 C   0  0  0  0  0  0  0  0  0  0  0  0
   -3.9570    1.5712  -19.6311 C   0  0  0  0  0  0  0  0  0  0  0  0
   -3.7094    1.8582  -20.9472 C   0  0  0  0  0  0  0  0  0  0  0  0
   -4.4132    1.1802  -21.9689 C   0  0  0  0  0  0  0  0  0  0  0  0
   -5.3561    0.2403  -21.6499 C   0  0  0  0  0  0  0  0  0  0  0  0
   -5.6340   -0.0797  -20.2928 C   0  0  0  0  0  0  0  0  0  0  0  0
   -8.1984   -1.8407  -24.0428 C   0  0  1  0  0  0  0  0  0  0  0  0
   -8.5885   -3.0547  -24.8884 C   0  0  0  0  0  0  0  0  0  0  0  0
   -8.3865   -0.5070  -24.8180 C   0  0  0  0  0  0  0  0  0  0  0  0
  2  1  1  6
  2  3  1  0
  3  4  1  0
  4  5  1  0
  5  6  1  0
  6  7  2  0
  6  8  1  0
  8  9  1  0
  9 10  2  0
 10 11  1  0
 11 12  2  0
 12 13  1  0
 13 14  2  0
 14 15  1  0
 15 16  2  0
 16 17  1  0
 17 18  2  0
  5 19  1  0
 19 20  1  6
 19 21  1  0
 21  2  1  0
 18  9  1  0
 18 13  1  0
M  END
>  <template_ligand>  (176) 
mol-192

>  <template_receptor>  (176) 
receptors/receptor-192.pdb

>  <SMILES>  (176) 
CC1CCN(C(=O)Cc2cncc3ccccc23)C(C)C1

>  <LABEL>  (176) 
SARS-CoV-2 Mpro

$$$$
ligand_86
     RDKit          3D

 35 40  0  0  0  0  0  0  0  0999 V2000
   -8.4792   -3.9140  -23.7093 C   0  0  0  0  0  0  0  0  0  0  0  0
   -8.5910   -2.8932  -22.5841 C   0  0  1  0  0  0  0  0  0  0  0  0
   -7.2676   -2.5956  -21.8657 C   0  0  0  0  0  0  0  0  0  0  0  0
   -7.5303   -1.3110  -21.2445 N   0  0  0  0  0  0  0  0  0  0  0  0
   -6.7307   -0.7342  -20.2225 C   0  0  0  0  0  0  0  0  0  0  0  0
   -7.0156   -0.9972  -18.9082 C   0  0  0  0  0  0  0  0  0  0  0  0
   -6.3226   -0.5002  -17.8509 N   0  0  0  0  0  0  0  0  0  0  0  0
   -5.3049    0.2869  -18.1137 C   0  0  0  0  0  0  0  0  0  0  0  0
   -4.8762    0.6247  -19.4298 C   0  0  0  0  0  0  0  0  0  0  0  0
   -3.7695    1.4864  -19.6743 C   0  0  0  0  0  0  0  0  0  0  0  0
   -3.3874    1.7756  -20.9536 C   0  0  0  0  0  0  0  0  0  0  0  0
   -4.0818    1.2132  -22.0518 C   0  0  0  0  0  0  0  0  0  0  0  0
   -5.1700    0.4038  -21.8456 C   0  0  0  0  0  0  0  0  0  0  0  0
   -5.5977    0.0895  -20.5275 C   0  0  0  0  0  0  0  0  0  0  0  0
   -8.5837   -0.6281  -21.8151 C   0  0  0  0  0  0  0  0  0  0  0  0
   -8.9613    0.4627  -21.4495 O   0  0  0  0  0  0  0  0  0  0  0  0
   -9.1441   -1.4937  -22.9732 C   0  0  1  0  0  0  0  0  0  0  0  0
   -8.5595   -1.0029  -24.3242 C   0  0  0  0  0  0  0  0  0  0  0  0
   -9.0137    0.3293  -24.6728 N   0  0  0  0  0  0  0  0  0  0  0  0
   -8.1258    1.1580  -25.4701 C   0  0  0  0  0  0  0  0  0  0  0  0
   -7.3520    2.1290  -24.6300 C   0  0  0  0  0  0  0  0  0  0  0  0
   -7.7800    2.8631  -23.5509 C   0  0  0  0  0  0  0  0  0  0  0  0
   -6.6713    3.6490  -23.1970 C   0  0  0  0  0  0  0  0  0  0  0  0
   -5.6339    3.4222  -23.9979 N   0  0  0  0  0  0  0  0  0  0  0  0
   -6.0671    2.4907  -24.8627 N   0  0  0  0  0  0  0  0  0  0  0  0
   -5.1810    1.9453  -25.8652 C   0  0  0  0  0  0  0  0  0  0  0  0
  -10.2995    0.7391  -24.4565 C   0  0  0  0  0  0  0  0  0  0  0  0
  -10.7051    1.8294  -24.8333 O   0  0  0  0  0  0  0  0  0  0  0  0
  -11.1839   -0.2396  -23.7288 C   0  0  0  0  0  0  0  0  0  0  0  0
  -12.5595    0.0002  -23.7205 C   0  0  0  0  0  0  0  0  0  0  0  0
  -13.4266   -0.8609  -23.0748 C   0  0  0  0  0  0  0  0  0  0  0  0
  -12.8797   -1.9757  -22.4438 C   0  0  0  0  0  0  0  0  0  0  0  0
  -13.7028   -2.8213  -21.8000 F   0  0  0  0  0  0  0  0  0  0  0  0
  -11.5252   -2.2423  -22.4315 C   0  0  0  0  0  0  0  0  0  0  0  0
  -10.6474   -1.3599  -23.0708 C   0  0  0  0  0  0  0  0  0  0  0  0
  2  1  1  6
  2  3  1  0
  3  4  1  0
  4  5  1  0
  5  6  2  0
  6  7  1  0
  7  8  2  0
  8  9  1  0
  9 10  2  0
 10 11  1  0
 11 12  2  0
 12 13  1  0
 13 14  2  0
  4 15  1  0
 15 16  2  0
 15 17  1  0
 17 18  1  6
 18 19  1  0
 19 20  1  0
 20 21  1  0
 21 22  2  0
 22 23  1  0
 23 24  2  0
 24 25  1  0
 25 26  1  0
 19 27  1  0
 27 28  2  0
 27 29  1  0
 29 30  2  0
 30 31  1  0
 31 32  2  0
 32 33  1  0
 32 34  1  0
 34 35  2  0
 17  2  1  0
 25 21  1  0
 35 29  1  0
 14  5  1  0
 35 17  1  0
 14  9  1  0
M  END
>  <template_ligand>  (177) 
mol-218

>  <template_receptor>  (177) 
receptors/receptor-218.pdb

>  <SMILES>  (177) 
CC1CN(c2cncc3ccccc23)C(=O)C12CN(Cc1ccnn1C)C(=O)c1ccc(F)cc12

>  <LABEL>  (177) 
SARS-CoV-2 Mpro

$$$$
ligand_87
     RDKit          3D

 22 24  0  0  0  0  0  0  0  0999 V2000
   -9.2491   -0.5243  -20.7398 O   0  0  0  0  0  0  0  0  0  0  0  0
   -8.5775   -1.3407  -21.3424 C   0  0  0  0  0  0  0  0  0  0  0  0
   -7.2417   -1.8908  -20.8120 C   0  0  0  0  0  0  0  0  0  0  0  0
   -6.5228   -1.0190  -19.8237 C   0  0  0  0  0  0  0  0  0  0  0  0
   -6.8758   -1.0814  -18.5020 C   0  0  0  0  0  0  0  0  0  0  0  0
   -6.2716   -0.3997  -17.4929 N   0  0  0  0  0  0  0  0  0  0  0  0
   -5.2644    0.3721  -17.8259 C   0  0  0  0  0  0  0  0  0  0  0  0
   -4.7929    0.5483  -19.1562 C   0  0  0  0  0  0  0  0  0  0  0  0
   -3.7180    1.4191  -19.4656 C   0  0  0  0  0  0  0  0  0  0  0  0
   -3.3210    1.6022  -20.7609 C   0  0  0  0  0  0  0  0  0  0  0  0
   -3.9879    0.9212  -21.8036 C   0  0  0  0  0  0  0  0  0  0  0  0
   -5.0236    0.0616  -21.5332 C   0  0  0  0  0  0  0  0  0  0  0  0
   -5.4535   -0.1526  -20.1963 C   0  0  0  0  0  0  0  0  0  0  0  0
   -8.9968   -1.9146  -22.5369 N   0  0  0  0  0  0  0  0  0  0  0  0
  -10.4135   -1.8556  -22.8791 C   0  0  0  0  0  0  0  0  0  0  0  0
  -10.7247   -0.7441  -23.8899 C   0  0  0  0  0  0  0  0  0  0  0  0
   -9.7814   -0.7764  -25.1160 C   0  0  0  0  0  0  0  0  0  0  0  0
  -10.0934    0.3550  -26.0839 C   0  0  0  0  0  0  0  0  0  0  0  0
  -11.3507    0.1368  -26.5783 F   0  0  0  0  0  0  0  0  0  0  0  0
  -10.0949    1.5746  -25.4735 F   0  0  0  0  0  0  0  0  0  0  0  0
   -8.3273   -0.8200  -24.6297 C   0  0  0  0  0  0  0  0  0  0  0  0
   -8.1310   -2.0325  -23.7065 C   0  0  0  0  0  0  0  0  0  0  0  0
  1  2  2  0
  2  3  1  0
  3  4  1  0
  4  5  2  0
  5  6  1  0
  6  7  2  0
  7  8  1  0
  8  9  2  0
  9 10  1  0
 10 11  2  0
 11 12  1  0
 12 13  2  0
  2 14  1  0
 14 15  1  0
 15 16  1  0
 16 17  1  0
 17 18  1  0
 18 19  1  0
 18 20  1  0
 17 21  1  0
 21 22  1  0
 13  4  1  0
 22 14  1  0
 13  8  1  0
M  END
>  <template_ligand>  (178) 
mol-323

>  <template_receptor>  (178) 
receptors/receptor-323.pdb

>  <SMILES>  (178) 
O=C(Cc1cncc2ccccc12)N1CCC(C(F)F)CC1

>  <LABEL>  (178) 
SARS-CoV-2 Mpro

$$$$
ligand_88
     RDKit          3D

 20 22  0  0  0  0  0  0  0  0999 V2000
    9.9639    1.0406   21.0095 O   0  0  0  0  0  0  0  0  0  0  0  0
    9.0761    0.2824   21.3688 C   0  0  0  0  0  0  0  0  0  0  0  0
    7.6563    0.7865   21.5314 C   0  0  0  0  0  0  0  0  0  0  0  0
    6.7027    0.4029   20.4087 C   0  0  0  0  0  0  0  0  0  0  0  0
    7.1210    0.0004   19.1608 C   0  0  0  0  0  0  0  0  0  0  0  0
    6.3433   -0.0704   18.0403 N   0  0  0  0  0  0  0  0  0  0  0  0
    5.1075    0.3484   18.1564 C   0  0  0  0  0  0  0  0  0  0  0  0
    4.5244    0.7549   19.3967 C   0  0  0  0  0  0  0  0  0  0  0  0
    3.2349    1.3411   19.4786 C   0  0  0  0  0  0  0  0  0  0  0  0
    2.6559    1.5635   20.6981 C   0  0  0  0  0  0  0  0  0  0  0  0
    3.3558    1.2521   21.8810 C   0  0  0  0  0  0  0  0  0  0  0  0
    4.6571    0.8196   21.8301 C   0  0  0  0  0  0  0  0  0  0  0  0
    5.2982    0.6314   20.5762 C   0  0  0  0  0  0  0  0  0  0  0  0
    9.2975   -1.0420   21.6268 N   0  0  0  0  0  0  0  0  0  0  0  0
    8.2758   -1.9387   22.1492 C   0  0  0  0  0  0  0  0  0  0  0  0
    8.3895   -2.2096   23.6363 C   0  0  0  0  0  0  0  0  0  0  0  0
    9.4865   -2.6411   24.2643 C   0  0  0  0  0  0  0  0  0  0  0  0
   10.8151   -2.9255   23.6048 C   0  0  0  0  0  0  0  0  0  0  0  0
   11.4042   -1.7657   22.7847 C   0  0  0  0  0  0  0  0  0  0  0  0
   10.6475   -1.5596   21.4759 C   0  0  0  0  0  0  0  0  0  0  0  0
  1  2  2  0
  2  3  1  0
  3  4  1  0
  4  5  2  0
  5  6  1  0
  6  7  2  0
  7  8  1  0
  8  9  2  0
  9 10  1  0
 10 11  2  0
 11 12  1  0
 12 13  2  0
  2 14  1  0
 14 15  1  0
 15 16  1  0
 16 17  2  0
 17 18  1  0
 18 19  1  0
 19 20  1  0
 13  4  1  0
 20 14  1  0
 13  8  1  0
M  END
>  <template_ligand>  (179) 
mol-100

>  <template_receptor>  (179) 
receptors/receptor-100.pdb

>  <SMILES>  (179) 
O=C(Cc1cncc2ccccc12)N1CC=CCCC1

>  <LABEL>  (179) 
MERS-CoV Mpro

$$$$
ligand_89
     RDKit          3D

 34 39  0  0  0  0  0  0  0  0999 V2000
    9.1591   -2.6186   23.7869 C   0  0  0  0  0  0  0  0  0  0  0  0
    9.0561   -1.6786   22.5921 C   0  0  1  0  0  0  0  0  0  0  0  0
    7.6669   -1.6284   21.9364 C   0  0  0  0  0  0  0  0  0  0  0  0
    7.7247   -0.3819   21.1993 N   0  0  0  0  0  0  0  0  0  0  0  0
    6.8444   -0.0022   20.1629 C   0  0  0  0  0  0  0  0  0  0  0  0
    7.1763   -0.2795   18.8627 C   0  0  0  0  0  0  0  0  0  0  0  0
    6.4218    0.0663   17.7889 N   0  0  0  0  0  0  0  0  0  0  0  0
    5.3086    0.7179   18.0370 C   0  0  0  0  0  0  0  0  0  0  0  0
    4.8596    1.0824   19.3399 C   0  0  0  0  0  0  0  0  0  0  0  0
    3.6544    1.8022   19.5440 C   0  0  0  0  0  0  0  0  0  0  0  0
    3.2471    2.1350   20.8036 C   0  0  0  0  0  0  0  0  0  0  0  0
    4.0202    1.7685   21.9245 C   0  0  0  0  0  0  0  0  0  0  0  0
    5.1937    1.0732   21.7592 C   0  0  0  0  0  0  0  0  0  0  0  0
    5.6435    0.7115   20.4560 C   0  0  0  0  0  0  0  0  0  0  0  0
    8.7964    0.4144   21.5288 C   0  0  0  0  0  0  0  0  0  0  0  0
    9.1316    1.4014   20.9039 O   0  0  0  0  0  0  0  0  0  0  0  0
    9.4347   -0.1798   22.8008 C   0  0  1  0  0  0  0  0  0  0  0  0
    8.7549    0.4426   24.0401 C   0  0  0  0  0  0  0  0  0  0  0  0
    9.2060    1.8015   24.2627 N   0  0  0  0  0  0  0  0  0  0  0  0
    8.2635    2.9012   24.3720 C   0  0  0  0  0  0  0  0  0  0  0  0
    7.9236    3.5145   23.0119 C   0  0  0  0  0  0  0  0  0  0  0  0
    7.1199    4.7640   23.1816 N   0  0  0  0  0  0  0  0  0  0  0  0
    5.6625    4.6742   23.6671 C   0  0  0  0  0  0  0  0  0  0  0  0
    5.1357    5.4033   22.3926 C   0  0  0  0  0  0  0  0  0  0  0  0
    6.6309    5.5262   21.9599 C   0  0  0  0  0  0  0  0  0  0  0  0
   10.5373    2.0270   24.4885 C   0  0  0  0  0  0  0  0  0  0  0  0
   10.9633    2.9135   25.2116 O   0  0  0  0  0  0  0  0  0  0  0  0
   11.4346    1.1204   23.6961 C   0  0  0  0  0  0  0  0  0  0  0  0
   12.7980    1.3978   23.7191 C   0  0  0  0  0  0  0  0  0  0  0  0
   13.6582    0.7432   22.8588 C   0  0  0  0  0  0  0  0  0  0  0  0
   13.1315   -0.2172   21.9944 C   0  0  0  0  0  0  0  0  0  0  0  0
   14.1876   -1.0201   20.8623 Cl  0  0  0  0  0  0  0  0  0  0  0  0
   11.7869   -0.5327   21.9891 C   0  0  0  0  0  0  0  0  0  0  0  0
   10.9112    0.1169   22.8671 C   0  0  0  0  0  0  0  0  0  0  0  0
  2  1  1  1
  2  3  1  0
  3  4  1  0
  4  5  1  0
  5  6  2  0
  6  7  1  0
  7  8  2  0
  8  9  1  0
  9 10  2  0
 10 11  1  0
 11 12  2  0
 12 13  1  0
 13 14  2  0
  4 15  1  0
 15 16  2  0
 15 17  1  0
 17 18  1  1
 18 19  1  0
 19 20  1  0
 20 21  1  0
 21 22  1  0
 22 23  1  0
 23 24  1  0
 24 25  1  0
 19 26  1  0
 26 27  2  0
 26 28  1  0
 28 29  2  0
 29 30  1  0
 30 31  2  0
 31 32  1  0
 31 33  1  0
 33 34  2  0
 17  2  1  0
 25 22  1  0
 34 28  1  0
 14  5  1  0
 34 17  1  0
 14  9  1  0
M  CHG  1  22   1
M  END
>  <template_ligand>  (180) 
mol-246

>  <template_receptor>  (180) 
receptors/receptor-246.pdb

>  <SMILES>  (180) 
CC1CN(c2cncc3ccccc23)C(=O)C12CN(CC[NH+]1CCC1)C(=O)c1ccc(Cl)cc12

>  <LABEL>  (180) 
MERS-CoV Mpro

$$$$
ligand_88
     RDKit          3D

 21 23  0  0  0  0  0  0  0  0999 V2000
  -10.3298    1.2206  -25.5711 C   0  0  0  0  0  0  0  0  0  0  0  0
  -10.7930   -0.2340  -25.3697 C   0  0  0  0  0  0  0  0  0  0  0  0
  -11.7940   -0.6373  -26.4666 C   0  0  0  0  0  0  0  0  0  0  0  0
  -11.5015   -0.3380  -23.9921 C   0  0  0  0  0  0  0  0  0  0  0  0
  -10.8780   -1.3856  -23.0872 C   0  0  0  0  0  0  0  0  0  0  0  0
   -9.4377   -1.1816  -22.9770 N   0  0  0  0  0  0  0  0  0  0  0  0
   -8.9371   -0.9289  -21.7225 C   0  0  0  0  0  0  0  0  0  0  0  0
   -9.6162   -0.4028  -20.8577 O   0  0  0  0  0  0  0  0  0  0  0  0
   -7.5395   -1.4818  -21.4269 C   0  0  0  0  0  0  0  0  0  0  0  0
   -6.8070   -0.8133  -20.2971 C   0  0  0  0  0  0  0  0  0  0  0  0
   -7.1622   -1.0812  -18.9982 C   0  0  0  0  0  0  0  0  0  0  0  0
   -6.5391   -0.5950  -17.8924 N   0  0  0  0  0  0  0  0  0  0  0  0
   -5.5068    0.1934  -18.0985 C   0  0  0  0  0  0  0  0  0  0  0  0
   -5.0363    0.5772  -19.3875 C   0  0  0  0  0  0  0  0  0  0  0  0
   -3.9212    1.4368  -19.5618 C   0  0  0  0  0  0  0  0  0  0  0  0
   -3.5075    1.7897  -20.8162 C   0  0  0  0  0  0  0  0  0  0  0  0
   -4.1886    1.3125  -21.9574 C   0  0  0  0  0  0  0  0  0  0  0  0
   -5.2573    0.4647  -21.8182 C   0  0  0  0  0  0  0  0  0  0  0  0
   -5.7088    0.0662  -20.5276 C   0  0  0  0  0  0  0  0  0  0  0  0
   -8.6562   -1.1077  -24.2150 C   0  0  0  0  0  0  0  0  0  0  0  0
   -9.5965   -1.2067  -25.4187 C   0  0  0  0  0  0  0  0  0  0  0  0
  1  2  1  0
  2  3  1  0
  2  4  1  0
  4  5  1  0
  5  6  1  0
  6  7  1  0
  7  8  2  0
  7  9  1  0
  9 10  1  0
 10 11  2  0
 11 12  1  0
 12 13  2  0
 13 14  1  0
 14 15  2  0
 15 16  1  0
 16 17  2  0
 17 18  1  0
 18 19  2  0
  6 20  1  0
 20 21  1  0
 21  2  1  0
 19 10  1  0
 19 14  1  0
M  END
>  <template_ligand>  (181) 
mol-275

>  <template_receptor>  (181) 
receptors/receptor-275.pdb

>  <SMILES>  (181) 
CC1(C)CCN(C(=O)Cc2cncc3ccccc23)CC1

>  <LABEL>  (181) 
SARS-CoV-2 Mpro

$$$$
ligand_89
     RDKit          3D

 38 42  0  0  0  0  0  0  0  0999 V2000
   -7.0518    3.5868  -22.7192 C   0  0  0  0  0  0  0  0  0  0  0  0
   -7.8088    2.6082  -23.4780 N   0  0  0  0  0  0  0  0  0  0  0  0
   -7.4563    2.3363  -24.7550 C   0  0  0  0  0  0  0  0  0  0  0  0
   -6.6075    2.9677  -25.3672 O   0  0  0  0  0  0  0  0  0  0  0  0
   -8.1705    1.1779  -25.4624 C   0  0  0  0  0  0  0  0  0  0  0  0
   -9.0183    0.3264  -24.6586 N   0  0  0  0  0  0  0  0  0  0  0  0
   -8.5535   -1.0065  -24.3169 C   0  0  0  0  0  0  0  0  0  0  0  0
   -9.1352   -1.4900  -22.9653 C   0  0  2  0  0  0  0  0  0  0  0  0
   -8.5682   -0.6188  -21.8147 C   0  0  0  0  0  0  0  0  0  0  0  0
   -8.9331    0.4861  -21.4628 O   0  0  0  0  0  0  0  0  0  0  0  0
   -7.5233   -1.3063  -21.2419 N   0  0  0  0  0  0  0  0  0  0  0  0
   -6.7292   -0.7340  -20.2192 C   0  0  0  0  0  0  0  0  0  0  0  0
   -7.0281   -0.9962  -18.9080 C   0  0  0  0  0  0  0  0  0  0  0  0
   -6.3431   -0.4966  -17.8475 N   0  0  0  0  0  0  0  0  0  0  0  0
   -5.3234    0.2866  -18.1159 C   0  0  0  0  0  0  0  0  0  0  0  0
   -4.8985    0.6312  -19.4335 C   0  0  0  0  0  0  0  0  0  0  0  0
   -3.7878    1.4830  -19.6723 C   0  0  0  0  0  0  0  0  0  0  0  0
   -3.3973    1.7791  -20.9497 C   0  0  0  0  0  0  0  0  0  0  0  0
   -4.0942    1.2377  -22.0531 C   0  0  0  0  0  0  0  0  0  0  0  0
   -5.1800    0.4223  -21.8509 C   0  0  0  0  0  0  0  0  0  0  0  0
   -5.6143    0.1025  -20.5317 C   0  0  0  0  0  0  0  0  0  0  0  0
   -7.2526   -2.5905  -21.8473 C   0  0  0  0  0  0  0  0  0  0  0  0
   -8.5788   -2.8874  -22.5677 C   0  0  2  0  0  0  0  0  0  0  0  0
   -8.4815   -3.9218  -23.6907 C   0  0  0  0  0  0  0  0  0  0  0  0
   -8.0718   -5.5621  -23.0990 S   0  0  0  0  0  0  0  0  0  0  0  0
   -8.3609   -5.6280  -21.6772 O   0  0  0  0  0  0  0  0  0  0  0  0
   -8.6310   -6.5131  -24.0496 O   0  0  0  0  0  0  0  0  0  0  0  0
   -6.4296   -5.6268  -23.1999 N   0  0  0  0  0  0  0  0  0  0  0  0
   -5.7443   -5.9310  -24.4381 C   0  0  0  0  0  0  0  0  0  0  0  0
  -10.6428   -1.3607  -23.0545 C   0  0  0  0  0  0  0  0  0  0  0  0
  -11.5342   -2.2420  -22.4271 C   0  0  0  0  0  0  0  0  0  0  0  0
  -12.8901   -1.9742  -22.4520 C   0  0  0  0  0  0  0  0  0  0  0  0
  -13.7272   -2.8198  -21.8233 F   0  0  0  0  0  0  0  0  0  0  0  0
  -13.4291   -0.8568  -23.0808 C   0  0  0  0  0  0  0  0  0  0  0  0
  -12.5566    0.0032  -23.7184 C   0  0  0  0  0  0  0  0  0  0  0  0
  -11.1852   -0.2529  -23.7257 C   0  0  0  0  0  0  0  0  0  0  0  0
  -10.3199    0.7079  -24.4792 C   0  0  0  0  0  0  0  0  0  0  0  0
  -10.7444    1.7784  -24.8929 O   0  0  0  0  0  0  0  0  0  0  0  0
  1  2  1  0
  2  3  1  0
  3  4  2  0
  3  5  1  0
  5  6  1  0
  6  7  1  0
  8  7  1  6
  8  9  1  0
  9 10  2  0
  9 11  1  0
 11 12  1  0
 12 13  2  0
 13 14  1  0
 14 15  2  0
 15 16  1  0
 16 17  2  0
 17 18  1  0
 18 19  2  0
 19 20  1  0
 20 21  2  0
 11 22  1  0
 22 23  1  0
 23 24  1  6
 24 25  1  0
 25 26  2  0
 25 27  2  0
 25 28  1  0
 28 29  1  0
  8 30  1  0
 30 31  2  0
 31 32  1  0
 32 33  1  0
 32 34  2  0
 34 35  1  0
 35 36  2  0
 36 37  1  0
 37 38  2  0
 37  6  1  0
 23  8  1  0
 36 30  1  0
 21 12  1  0
 21 16  1  0
M  END
>  <template_ligand>  (182) 
mol-218

>  <template_receptor>  (182) 
receptors/receptor-218.pdb

>  <SMILES>  (182) 
CNC(=O)CN1CC2(C(=O)N(c3cncc4ccccc34)CC2CS(=O)(=O)NC)c2cc(F)ccc2C1=O

>  <LABEL>  (182) 
SARS-CoV-2 Mpro

$$$$
ligand_74
     RDKit          3D

 40 45  0  0  0  0  0  0  0  0999 V2000
   -7.0458    3.5984  -22.7270 C   0  0  0  0  0  0  0  0  0  0  0  0
   -7.7992    2.6232  -23.4931 N   0  0  0  0  0  0  0  0  0  0  0  0
   -7.4528    2.3485  -24.7686 C   0  0  0  0  0  0  0  0  0  0  0  0
   -6.6040    2.9790  -25.3833 O   0  0  0  0  0  0  0  0  0  0  0  0
   -8.1633    1.1743  -25.4645 C   0  0  0  0  0  0  0  0  0  0  0  0
   -9.0118    0.3293  -24.6534 N   0  0  0  0  0  0  0  0  0  0  0  0
   -8.5542   -1.0092  -24.3333 C   0  0  0  0  0  0  0  0  0  0  0  0
   -9.1481   -1.5072  -22.9974 C   0  0  2  0  0  0  0  0  0  0  0  0
   -8.5814   -0.6465  -21.8294 C   0  0  0  0  0  0  0  0  0  0  0  0
   -8.9462    0.4575  -21.4731 O   0  0  0  0  0  0  0  0  0  0  0  0
   -7.5404   -1.3355  -21.2496 N   0  0  0  0  0  0  0  0  0  0  0  0
   -6.7402   -0.7459  -20.2293 C   0  0  0  0  0  0  0  0  0  0  0  0
   -7.0269   -0.9936  -18.9123 C   0  0  0  0  0  0  0  0  0  0  0  0
   -6.3298   -0.4976  -17.8557 N   0  0  0  0  0  0  0  0  0  0  0  0
   -5.3101    0.2835  -18.1220 C   0  0  0  0  0  0  0  0  0  0  0  0
   -4.8927    0.6303  -19.4411 C   0  0  0  0  0  0  0  0  0  0  0  0
   -3.7791    1.4819  -19.6788 C   0  0  0  0  0  0  0  0  0  0  0  0
   -3.3892    1.7766  -20.9585 C   0  0  0  0  0  0  0  0  0  0  0  0
   -4.0914    1.2294  -22.0563 C   0  0  0  0  0  0  0  0  0  0  0  0
   -5.1784    0.4129  -21.8488 C   0  0  0  0  0  0  0  0  0  0  0  0
   -5.6204    0.0981  -20.5340 C   0  0  0  0  0  0  0  0  0  0  0  0
   -7.2754   -2.6186  -21.8740 C   0  0  0  0  0  0  0  0  0  0  0  0
   -8.5924   -2.9139  -22.6232 C   0  0  2  0  0  0  0  0  0  0  0  0
   -8.3777   -3.9368  -23.7510 C   0  0  0  0  0  0  0  0  0  0  0  0
   -9.5851   -4.2781  -24.4767 N   0  0  0  0  0  0  0  0  0  0  0  0
   -9.5888   -5.1471  -25.5353 C   0  0  0  0  0  0  0  0  0  0  0  0
   -8.4205   -5.7712  -26.0428 C   0  0  0  0  0  0  0  0  0  0  0  0
   -8.4464   -6.5350  -27.1249 N   0  0  0  0  0  0  0  0  0  0  0  0
   -9.6295   -6.7165  -27.7213 C   0  0  0  0  0  0  0  0  0  0  0  0
  -10.7830   -6.1684  -27.1873 C   0  0  0  0  0  0  0  0  0  0  0  0
  -10.7708   -5.3925  -26.1015 N   0  0  0  0  0  0  0  0  0  0  0  0
  -10.6545   -1.3652  -23.0775 C   0  0  0  0  0  0  0  0  0  0  0  0
  -11.5329   -2.2420  -22.4300 C   0  0  0  0  0  0  0  0  0  0  0  0
  -12.8949   -1.9835  -22.4202 C   0  0  0  0  0  0  0  0  0  0  0  0
  -13.9715   -3.0623  -21.5741 Cl  0  0  0  0  0  0  0  0  0  0  0  0
  -13.4264   -0.8667  -23.0653 C   0  0  0  0  0  0  0  0  0  0  0  0
  -12.5653   -0.0086  -23.7217 C   0  0  0  0  0  0  0  0  0  0  0  0
  -11.1945   -0.2524  -23.7382 C   0  0  0  0  0  0  0  0  0  0  0  0
  -10.3113    0.7182  -24.4702 C   0  0  0  0  0  0  0  0  0  0  0  0
  -10.7092    1.8086  -24.8629 O   0  0  0  0  0  0  0  0  0  0  0  0
  1  2  1  0
  2  3  1  0
  3  4  2  0
  3  5  1  0
  5  6  1  0
  6  7  1  0
  8  7  1  6
  8  9  1  0
  9 10  2  0
  9 11  1  0
 11 12  1  0
 12 13  2  0
 13 14  1  0
 14 15  2  0
 15 16  1  0
 16 17  2  0
 17 18  1  0
 18 19  2  0
 19 20  1  0
 20 21  2  0
 11 22  1  0
 22 23  1  0
 23 24  1  6
 24 25  1  0
 25 26  1  0
 26 27  2  0
 27 28  1  0
 28 29  2  0
 29 30  1  0
 30 31  2  0
  8 32  1  0
 32 33  2  0
 33 34  1  0
 34 35  1  0
 34 36  2  0
 36 37  1  0
 37 38  2  0
 38 39  1  0
 39 40  2  0
 39  6  1  0
 23  8  1  0
 31 26  1  0
 38 32  1  0
 21 12  1  0
 21 16  1  0
M  END
>  <template_ligand>  (183) 
mol-218

>  <template_receptor>  (183) 
receptors/receptor-218.pdb

>  <SMILES>  (183) 
CNC(=O)CN1CC2(C(=O)N(c3cncc4ccccc34)CC2CNc2cnccn2)c2cc(Cl)ccc2C1=O

>  <LABEL>  (183) 
SARS-CoV-2 Mpro

$$$$
ligand_90
     RDKit          3D

 34 39  0  0  0  0  0  0  0  0999 V2000
    8.3726   -2.9130   23.5808 C   0  0  0  0  0  0  0  0  0  0  0  0
    8.4183   -1.9043   22.4367 C   0  0  1  0  0  0  0  0  0  0  0  0
    7.0819   -1.7302   21.6996 C   0  0  0  0  0  0  0  0  0  0  0  0
    7.2457   -0.4377   21.0587 N   0  0  0  0  0  0  0  0  0  0  0  0
    6.4130    0.0522   20.0158 C   0  0  0  0  0  0  0  0  0  0  0  0
    6.7343   -0.2072   18.7095 C   0  0  0  0  0  0  0  0  0  0  0  0
    6.0151    0.2138   17.6358 N   0  0  0  0  0  0  0  0  0  0  0  0
    4.9341    0.9189   17.8770 C   0  0  0  0  0  0  0  0  0  0  0  0
    4.4652    1.2459   19.1813 C   0  0  0  0  0  0  0  0  0  0  0  0
    3.2904    2.0184   19.4017 C   0  0  0  0  0  0  0  0  0  0  0  0
    2.8734    2.3014   20.6702 C   0  0  0  0  0  0  0  0  0  0  0  0
    3.6019    1.8229   21.7858 C   0  0  0  0  0  0  0  0  0  0  0  0
    4.7479    1.0911   21.6029 C   0  0  0  0  0  0  0  0  0  0  0  0
    5.2164    0.7905   20.2971 C   0  0  0  0  0  0  0  0  0  0  0  0
    8.2331    0.3396   21.6274 C   0  0  0  0  0  0  0  0  0  0  0  0
    8.5248    1.4513   21.2494 O   0  0  0  0  0  0  0  0  0  0  0  0
    8.8487   -0.4570   22.8049 C   0  0  1  0  0  0  0  0  0  0  0  0
    8.2120    0.0019   24.1431 C   0  0  0  0  0  0  0  0  0  0  0  0
    8.5643    1.3688   24.4734 N   0  0  0  0  0  0  0  0  0  0  0  0
    7.6059    2.1505   25.2335 C   0  0  0  0  0  0  0  0  0  0  0  0
    6.7367    3.0333   24.3863 C   0  0  0  0  0  0  0  0  0  0  0  0
    5.3876    3.3744   24.5951 C   0  0  0  0  0  0  0  0  0  0  0  0
    4.9447    4.2329   23.6819 N   0  0  0  0  0  0  0  0  0  0  0  0
    6.0016    4.4398   22.8915 N   0  0  0  0  0  0  0  0  0  0  0  0
    7.1022    3.7476   23.2667 C   0  0  0  0  0  0  0  0  0  0  0  0
    9.8095    1.8815   24.2541 C   0  0  0  0  0  0  0  0  0  0  0  0
   10.1108    3.0165   24.6058 O   0  0  0  0  0  0  0  0  0  0  0  0
   10.7748    0.9707   23.5557 C   0  0  0  0  0  0  0  0  0  0  0  0
   12.1248    1.3197   23.5591 C   0  0  0  0  0  0  0  0  0  0  0  0
   13.0641    0.5193   22.9384 C   0  0  0  0  0  0  0  0  0  0  0  0
   12.6165   -0.6472   22.3218 C   0  0  0  0  0  0  0  0  0  0  0  0
   13.5153   -1.4343   21.7033 F   0  0  0  0  0  0  0  0  0  0  0  0
   11.2876   -1.0213   22.3035 C   0  0  0  0  0  0  0  0  0  0  0  0
   10.3342   -0.1996   22.9151 C   0  0  0  0  0  0  0  0  0  0  0  0
  2  1  1  1
  2  3  1  0
  3  4  1  0
  4  5  1  0
  5  6  2  0
  6  7  1  0
  7  8  2  0
  8  9  1  0
  9 10  2  0
 10 11  1  0
 11 12  2  0
 12 13  1  0
 13 14  2  0
  4 15  1  0
 15 16  2  0
 15 17  1  0
 17 18  1  1
 18 19  1  0
 19 20  1  0
 20 21  1  0
 21 22  1  0
 22 23  2  0
 23 24  1  0
 24 25  1  0
 19 26  1  0
 26 27  2  0
 26 28  1  0
 28 29  2  0
 29 30  1  0
 30 31  2  0
 31 32  1  0
 31 33  1  0
 33 34  2  0
 17  2  1  0
 25 21  2  0
 34 28  1  0
 14  5  1  0
 34 17  1  0
 14  9  1  0
M  END
>  <template_ligand>  (184) 
mol-218

>  <template_receptor>  (184) 
receptors/receptor-218.pdb

>  <SMILES>  (184) 
CC1CN(c2cncc3ccccc23)C(=O)C12CN(Cc1cn[nH]c1)C(=O)c1ccc(F)cc12

>  <LABEL>  (184) 
MERS-CoV Mpro

$$$$
ligand_91
     RDKit          3D

 36 41  0  0  0  0  0  0  0  0999 V2000
  -11.3045   -4.6311  -24.0868 C   0  0  0  0  0  0  0  0  0  0  0  0
  -10.4013   -3.6635  -24.5533 O   0  0  0  0  0  0  0  0  0  0  0  0
   -9.1599   -3.6517  -23.8857 C   0  0  0  0  0  0  0  0  0  0  0  0
   -9.1655   -2.7123  -22.6821 C   0  0  1  0  0  0  0  0  0  0  0  0
   -7.7837   -2.5165  -22.0452 C   0  0  0  0  0  0  0  0  0  0  0  0
   -7.9424   -1.2528  -21.3429 N   0  0  0  0  0  0  0  0  0  0  0  0
   -7.0948   -0.7828  -20.3116 C   0  0  0  0  0  0  0  0  0  0  0  0
   -7.3811   -1.0799  -19.0030 C   0  0  0  0  0  0  0  0  0  0  0  0
   -6.6393   -0.6716  -17.9430 N   0  0  0  0  0  0  0  0  0  0  0  0
   -5.5820    0.0610  -18.2057 C   0  0  0  0  0  0  0  0  0  0  0  0
   -5.1764    0.4492  -19.5163 C   0  0  0  0  0  0  0  0  0  0  0  0
   -4.0289    1.2598  -19.7341 C   0  0  0  0  0  0  0  0  0  0  0  0
   -3.6640    1.6089  -21.0052 C   0  0  0  0  0  0  0  0  0  0  0  0
   -4.4263    1.1766  -22.1147 C   0  0  0  0  0  0  0  0  0  0  0  0
   -5.5496    0.4067  -21.9291 C   0  0  0  0  0  0  0  0  0  0  0  0
   -5.9480    0.0128  -20.6170 C   0  0  0  0  0  0  0  0  0  0  0  0
   -9.0744   -0.5485  -21.6986 C   0  0  0  0  0  0  0  0  0  0  0  0
   -9.4832    0.4361  -21.1139 O   0  0  0  0  0  0  0  0  0  0  0  0
   -9.6824   -1.2611  -22.9337 C   0  0  1  0  0  0  0  0  0  0  0  0
   -9.0852   -0.7069  -24.2550 C   0  0  0  0  0  0  0  0  0  0  0  0
   -9.6289    0.5935  -24.5955 N   0  0  0  0  0  0  0  0  0  0  0  0
   -8.7772    1.7585  -24.8207 C   0  0  0  0  0  0  0  0  0  0  0  0
   -8.9004    2.8383  -23.7554 C   0  0  0  0  0  0  0  0  0  0  0  0
   -7.9700    3.2188  -22.7587 C   0  0  0  0  0  0  0  0  0  0  0  0
   -8.3979    4.2476  -22.0312 N   0  0  0  0  0  0  0  0  0  0  0  0
   -9.6145    4.5041  -22.5308 N   0  0  0  0  0  0  0  0  0  0  0  0
   -9.9667    3.6901  -23.5479 C   0  0  0  0  0  0  0  0  0  0  0  0
  -10.9810    0.7761  -24.6916 C   0  0  0  0  0  0  0  0  0  0  0  0
  -11.4768    1.7000  -25.3263 O   0  0  0  0  0  0  0  0  0  0  0  0
  -11.7973   -0.1526  -23.8564 C   0  0  0  0  0  0  0  0  0  0  0  0
  -13.1767    0.0443  -23.8523 C   0  0  0  0  0  0  0  0  0  0  0  0
  -13.9761   -0.6466  -22.9659 C   0  0  0  0  0  0  0  0  0  0  0  0
  -13.3659   -1.5408  -22.0879 C   0  0  0  0  0  0  0  0  0  0  0  0
  -14.3414   -2.4013  -20.9331 Cl  0  0  0  0  0  0  0  0  0  0  0  0
  -12.0010   -1.7705  -22.1009 C   0  0  0  0  0  0  0  0  0  0  0  0
  -11.1841   -1.0804  -23.0001 C   0  0  0  0  0  0  0  0  0  0  0  0
  1  2  1  0
  2  3  1  0
  4  3  1  6
  4  5  1  0
  5  6  1  0
  6  7  1  0
  7  8  2  0
  8  9  1  0
  9 10  2  0
 10 11  1  0
 11 12  2  0
 12 13  1  0
 13 14  2  0
 14 15  1  0
 15 16  2  0
  6 17  1  0
 17 18  2  0
 17 19  1  0
 19 20  1  6
 20 21  1  0
 21 22  1  0
 22 23  1  0
 23 24  1  0
 24 25  2  0
 25 26  1  0
 26 27  1  0
 21 28  1  0
 28 29  2  0
 28 30  1  0
 30 31  2  0
 31 32  1  0
 32 33  2  0
 33 34  1  0
 33 35  1  0
 35 36  2  0
 19  4  1  0
 27 23  2  0
 36 30  1  0
 16  7  1  0
 36 19  1  0
 16 11  1  0
M  END
>  <template_ligand>  (185) 
mol-246

>  <template_receptor>  (185) 
receptors/receptor-246.pdb

>  <SMILES>  (185) 
COCC1CN(c2cncc3ccccc23)C(=O)C12CN(Cc1cn[nH]c1)C(=O)c1ccc(Cl)cc12

>  <LABEL>  (185) 
SARS-CoV-2 Mpro

$$$$
ligand_91
     RDKit          3D

 27 30  0  0  0  0  0  0  0  0999 V2000
    8.9721    1.0288   21.4741 O   0  0  0  0  0  0  0  0  0  0  0  0
    8.5632   -0.0176   21.9390 C   0  0  0  0  0  0  0  0  0  0  0  0
    7.4340   -0.8537   21.3231 C   0  0  0  0  0  0  0  0  0  0  0  0
    6.6266   -0.1964   20.2418 C   0  0  0  0  0  0  0  0  0  0  0  0
    7.0347   -0.2807   18.9370 C   0  0  0  0  0  0  0  0  0  0  0  0
    6.3523    0.1934   17.8612 N   0  0  0  0  0  0  0  0  0  0  0  0
    5.1957    0.7661   18.1054 C   0  0  0  0  0  0  0  0  0  0  0  0
    4.6372    0.9221   19.4037 C   0  0  0  0  0  0  0  0  0  0  0  0
    3.3691    1.5269   19.6118 C   0  0  0  0  0  0  0  0  0  0  0  0
    2.8845    1.7079   20.8804 C   0  0  0  0  0  0  0  0  0  0  0  0
    3.6417    1.2877   21.9974 C   0  0  0  0  0  0  0  0  0  0  0  0
    4.8650    0.6869   21.8171 C   0  0  0  0  0  0  0  0  0  0  0  0
    5.3925    0.4719   20.5139 C   0  0  0  0  0  0  0  0  0  0  0  0
    9.0843   -0.5568   23.1085 N   0  0  0  0  0  0  0  0  0  0  0  0
    8.8665   -1.9067   23.4479 C   0  0  0  0  0  0  0  0  0  0  0  0
    7.9591   -2.3172   24.3460 C   0  0  0  0  0  0  0  0  0  0  0  0
    7.2012   -1.4418   25.2396 C   0  0  0  0  0  0  0  0  0  0  0  0
    7.7203   -0.4810   26.0195 C   0  0  0  0  0  0  0  0  0  0  0  0
    9.1558   -0.2827   26.2727 C   0  0  0  0  0  0  0  0  0  0  0  0
   10.1183   -0.1395   25.3556 C   0  0  0  0  0  0  0  0  0  0  0  0
    9.9495    0.3324   23.9192 C   0  0  1  0  0  0  0  0  0  0  0  0
   11.3331    0.5163   23.3087 C   0  0  0  0  0  0  0  0  0  0  0  0
   12.0770   -0.6057   22.9583 C   0  0  0  0  0  0  0  0  0  0  0  0
   13.4450   -0.5000   22.7622 C   0  0  0  0  0  0  0  0  0  0  0  0
   14.0794    0.7303   22.8935 C   0  0  0  0  0  0  0  0  0  0  0  0
   13.3252    1.8689   23.1646 C   0  0  0  0  0  0  0  0  0  0  0  0
   11.9505    1.7685   23.3278 C   0  0  0  0  0  0  0  0  0  0  0  0
  1  2  2  0
  2  3  1  0
  3  4  1  0
  4  5  2  0
  5  6  1  0
  6  7  2  0
  7  8  1  0
  8  9  2  0
  9 10  1  0
 10 11  2  0
 11 12  1  0
 12 13  2  0
  2 14  1  0
 14 15  1  0
 15 16  2  3
 16 17  1  0
 17 18  2  3
 18 19  1  0
 19 20  2  3
 20 21  1  0
 21 22  1  6
 22 23  2  0
 23 24  1  0
 24 25  2  0
 25 26  1  0
 26 27  2  0
 13  4  1  0
 21 14  1  0
 27 22  1  0
 13  8  1  0
M  END
>  <template_ligand>  (186) 
mol-100

>  <template_receptor>  (186) 
receptors/receptor-100.pdb

>  <SMILES>  (186) 
O=C(Cc1cncc2ccccc12)N1C=CC=CC=CC1c1ccccc1

>  <LABEL>  (186) 
MERS-CoV Mpro

$$$$
ligand_92
     RDKit          3D

 32 36  0  0  0  0  0  0  0  0999 V2000
    6.3828    4.3887   22.4086 C   0  0  0  0  0  0  0  0  0  0  0  0
    7.2452    3.4442   23.1268 N   0  0  0  0  0  0  0  0  0  0  0  0
    6.8077    3.2352   24.5273 C   0  0  0  0  0  0  0  0  0  0  0  0
    7.6140    2.1420   25.2722 C   0  0  0  0  0  0  0  0  0  0  0  0
    8.5325    1.3745   24.4509 N   0  0  0  0  0  0  0  0  0  0  0  0
    8.1923    0.0007   24.1396 C   0  0  0  0  0  0  0  0  0  0  0  0
    8.8292   -0.4493   22.8047 C   0  0  2  0  0  0  0  0  0  0  0  0
    8.1353    0.3722   21.6944 C   0  0  0  0  0  0  0  0  0  0  0  0
    8.2437    1.5741   21.4980 O   0  0  0  0  0  0  0  0  0  0  0  0
    7.2573   -0.4408   21.0322 N   0  0  0  0  0  0  0  0  0  0  0  0
    6.4139    0.0518   20.0049 C   0  0  0  0  0  0  0  0  0  0  0  0
    6.7383   -0.2103   18.6981 C   0  0  0  0  0  0  0  0  0  0  0  0
    6.0250    0.2191   17.6300 N   0  0  0  0  0  0  0  0  0  0  0  0
    4.9438    0.9246   17.8762 C   0  0  0  0  0  0  0  0  0  0  0  0
    4.4871    1.2546   19.1871 C   0  0  0  0  0  0  0  0  0  0  0  0
    3.3084    2.0188   19.4029 C   0  0  0  0  0  0  0  0  0  0  0  0
    2.8826    2.3061   20.6718 C   0  0  0  0  0  0  0  0  0  0  0  0
    3.6136    1.8422   21.7865 C   0  0  0  0  0  0  0  0  0  0  0  0
    4.7656    1.1136   21.6067 C   0  0  0  0  0  0  0  0  0  0  0  0
    5.2369    0.8046   20.2963 C   0  0  0  0  0  0  0  0  0  0  0  0
    7.0843   -1.7275   21.6787 C   0  0  0  0  0  0  0  0  0  0  0  0
    8.4138   -1.8973   22.4258 C   0  0  2  0  0  0  0  0  0  0  0  0
    8.3786   -2.9048   23.5717 C   0  0  0  0  0  0  0  0  0  0  0  0
   10.3200   -0.1815   22.8929 C   0  0  0  0  0  0  0  0  0  0  0  0
   11.2868   -1.0084   22.3025 C   0  0  0  0  0  0  0  0  0  0  0  0
   12.6134   -0.6358   22.3354 C   0  0  0  0  0  0  0  0  0  0  0  0
   13.5218   -1.4210   21.7295 F   0  0  0  0  0  0  0  0  0  0  0  0
   13.0503    0.5294   22.9507 C   0  0  0  0  0  0  0  0  0  0  0  0
   12.1081    1.3335   23.5612 C   0  0  0  0  0  0  0  0  0  0  0  0
   10.7565    0.9845   23.5447 C   0  0  0  0  0  0  0  0  0  0  0  0
    9.7793    1.8881   24.2369 C   0  0  0  0  0  0  0  0  0  0  0  0
   10.0697    3.0370   24.5702 O   0  0  0  0  0  0  0  0  0  0  0  0
  1  2  1  0
  2  3  1  0
  3  4  1  0
  4  5  1  0
  5  6  1  0
  7  6  1  1
  7  8  1  0
  8  9  2  0
  8 10  1  0
 10 11  1  0
 11 12  2  0
 12 13  1  0
 13 14  2  0
 14 15  1  0
 15 16  2  0
 16 17  1  0
 17 18  2  0
 18 19  1  0
 19 20  2  0
 10 21  1  0
 21 22  1  0
 22 23  1  1
  7 24  1  0
 24 25  2  0
 25 26  1  0
 26 27  1  0
 26 28  2  0
 28 29  1  0
 29 30  2  0
 30 31  1  0
 31 32  2  0
 31  5  1  0
 22  7  1  0
 30 24  1  0
 20 11  1  0
 20 15  1  0
M  CHG  1   2   1
M  END
>  <template_ligand>  (187) 
mol-218

>  <template_receptor>  (187) 
receptors/receptor-218.pdb

>  <SMILES>  (187) 
C[NH2+]CCN1CC2(C(=O)N(c3cncc4ccccc34)CC2C)c2cc(F)ccc2C1=O

>  <LABEL>  (187) 
MERS-CoV Mpro

$$$$
ligand_59
     RDKit          3D

 36 41  0  0  0  0  0  0  0  0999 V2000
   -9.3288    4.2681  -27.1251 C   0  0  0  0  0  0  0  0  0  0  0  0
   -7.8651    3.9505  -26.8544 C   0  0  0  0  0  0  0  0  0  0  0  0
   -7.5822    3.6488  -25.4572 N   0  0  0  0  0  0  0  0  0  0  0  0
   -7.1946    4.6211  -24.6148 N   0  0  0  0  0  0  0  0  0  0  0  0
   -7.0698    4.0217  -23.4351 C   0  0  0  0  0  0  0  0  0  0  0  0
   -7.4043    2.6593  -23.5048 C   0  0  0  0  0  0  0  0  0  0  0  0
   -7.7513    2.4607  -24.8202 C   0  0  0  0  0  0  0  0  0  0  0  0
   -8.1510    1.1786  -25.4831 C   0  0  0  0  0  0  0  0  0  0  0  0
   -8.9837    0.3489  -24.6247 N   0  0  0  0  0  0  0  0  0  0  0  0
   -8.5525   -1.0039  -24.3174 C   0  0  0  0  0  0  0  0  0  0  0  0
   -9.1433   -1.4995  -22.9725 C   0  0  2  0  0  0  0  0  0  0  0  0
   -8.5823   -0.6332  -21.8160 C   0  0  0  0  0  0  0  0  0  0  0  0
   -8.9649    0.4595  -21.4564 O   0  0  0  0  0  0  0  0  0  0  0  0
   -7.5298   -1.3137  -21.2426 N   0  0  0  0  0  0  0  0  0  0  0  0
   -6.7276   -0.7389  -20.2193 C   0  0  0  0  0  0  0  0  0  0  0  0
   -7.0150   -0.9987  -18.9043 C   0  0  0  0  0  0  0  0  0  0  0  0
   -6.3222   -0.4993  -17.8490 N   0  0  0  0  0  0  0  0  0  0  0  0
   -5.3047    0.2872  -18.1130 C   0  0  0  0  0  0  0  0  0  0  0  0
   -4.8763    0.6243  -19.4304 C   0  0  0  0  0  0  0  0  0  0  0  0
   -3.7704    1.4868  -19.6780 C   0  0  0  0  0  0  0  0  0  0  0  0
   -3.3970    1.7841  -20.9598 C   0  0  0  0  0  0  0  0  0  0  0  0
   -4.1000    1.2360  -22.0574 C   0  0  0  0  0  0  0  0  0  0  0  0
   -5.1674    0.3971  -21.8435 C   0  0  0  0  0  0  0  0  0  0  0  0
   -5.5956    0.0831  -20.5246 C   0  0  0  0  0  0  0  0  0  0  0  0
   -7.2678   -2.5975  -21.8659 C   0  0  0  0  0  0  0  0  0  0  0  0
   -8.5912   -2.8973  -22.5829 C   0  0  2  0  0  0  0  0  0  0  0  0
   -8.4797   -3.9149  -23.7099 C   0  0  0  0  0  0  0  0  0  0  0  0
  -10.6472   -1.3600  -23.0688 C   0  0  0  0  0  0  0  0  0  0  0  0
  -11.5258   -2.2425  -22.4318 C   0  0  0  0  0  0  0  0  0  0  0  0
  -12.8795   -1.9752  -22.4437 C   0  0  0  0  0  0  0  0  0  0  0  0
  -13.7022   -2.8210  -21.8000 F   0  0  0  0  0  0  0  0  0  0  0  0
  -13.4236   -0.8601  -23.0752 C   0  0  0  0  0  0  0  0  0  0  0  0
  -12.5564    0.0017  -23.7210 C   0  0  0  0  0  0  0  0  0  0  0  0
  -11.1789   -0.2366  -23.7254 C   0  0  0  0  0  0  0  0  0  0  0  0
  -10.2829    0.7379  -24.4418 C   0  0  0  0  0  0  0  0  0  0  0  0
  -10.6987    1.8099  -24.8560 O   0  0  0  0  0  0  0  0  0  0  0  0
  1  2  1  0
  2  3  1  0
  3  4  1  0
  4  5  2  0
  5  6  1  0
  6  7  2  0
  7  8  1  0
  8  9  1  0
  9 10  1  0
 11 10  1  6
 11 12  1  0
 12 13  2  0
 12 14  1  0
 14 15  1  0
 15 16  2  0
 16 17  1  0
 17 18  2  0
 18 19  1  0
 19 20  2  0
 20 21  1  0
 21 22  2  0
 22 23  1  0
 23 24  2  0
 14 25  1  0
 25 26  1  0
 26 27  1  6
 11 28  1  0
 28 29  2  0
 29 30  1  0
 30 31  1  0
 30 32  2  0
 32 33  1  0
 33 34  2  0
 34 35  1  0
 35 36  2  0
  7  3  1  0
 35  9  1  0
 26 11  1  0
 34 28  1  0
 24 15  1  0
 24 19  1  0
M  END
>  <template_ligand>  (188) 
mol-218

>  <template_receptor>  (188) 
receptors/receptor-218.pdb

>  <SMILES>  (188) 
CCn1nccc1CN1CC2(C(=O)N(c3cncc4ccccc34)CC2C)c2cc(F)ccc2C1=O

>  <LABEL>  (188) 
SARS-CoV-2 Mpro

$$$$
ligand_5
     RDKit          3D

 36 40  0  0  0  0  0  0  0  0999 V2000
    5.7794   -5.7480   24.6082 C   0  0  0  0  0  0  0  0  0  0  0  0
    5.4276   -4.4774   25.3850 C   0  0  0  0  0  0  0  0  0  0  0  0
    6.4034   -4.2427   26.5161 C   0  0  0  0  0  0  0  0  0  0  0  0
    6.6285   -5.0096   27.4158 O   0  0  0  0  0  0  0  0  0  0  0  0
    7.1004   -2.9302   26.5409 N   0  0  2  0  0  0  0  0  0  0  0  0
    6.1475   -1.8085   26.9912 C   0  0  0  0  0  0  0  0  0  0  0  0
    6.7273   -0.4503   26.6650 C   0  0  0  0  0  0  0  0  0  0  0  0
    6.9750   -0.3485   25.1637 C   0  0  0  0  0  0  0  0  0  0  0  0
    7.9243   -1.4321   24.6866 C   0  0  0  0  0  0  0  0  0  0  0  0
    8.7231   -1.2752   23.5423 C   0  0  0  0  0  0  0  0  0  0  0  0
    8.8120    0.0230   22.9532 N   0  0  0  0  0  0  0  0  0  0  0  0
    9.5853    1.0488   23.6471 C   0  0  0  0  0  0  0  0  0  0  0  0
   11.0388    1.1658   23.2025 C   0  0  0  0  0  0  0  0  0  0  0  0
   11.7177    2.3774   23.3448 C   0  0  0  0  0  0  0  0  0  0  0  0
   13.0402    2.5028   22.9254 C   0  0  0  0  0  0  0  0  0  0  0  0
   13.7029    1.4329   22.3334 C   0  0  0  0  0  0  0  0  0  0  0  0
   13.0188    0.2326   22.1870 C   0  0  0  0  0  0  0  0  0  0  0  0
   13.7670   -1.1036   21.3522 Cl  0  0  0  0  0  0  0  0  0  0  0  0
   11.7230    0.0806   22.6609 C   0  0  0  0  0  0  0  0  0  0  0  0
    8.3257    0.2912   21.6917 C   0  0  0  0  0  0  0  0  0  0  0  0
    8.5264    1.3500   21.1309 O   0  0  0  0  0  0  0  0  0  0  0  0
    7.4842   -0.8252   21.0402 C   0  0  0  0  0  0  0  0  0  0  0  0
    6.6127   -0.2889   19.9530 C   0  0  0  0  0  0  0  0  0  0  0  0
    6.9287   -0.4764   18.6347 C   0  0  0  0  0  0  0  0  0  0  0  0
    6.2314    0.0272   17.5800 N   0  0  0  0  0  0  0  0  0  0  0  0
    5.1733    0.7501   17.8677 C   0  0  0  0  0  0  0  0  0  0  0  0
    4.7284    1.0315   19.1917 C   0  0  0  0  0  0  0  0  0  0  0  0
    3.5845    1.8293   19.4552 C   0  0  0  0  0  0  0  0  0  0  0  0
    3.1942    2.0815   20.7427 C   0  0  0  0  0  0  0  0  0  0  0  0
    3.9307    1.5506   21.8282 C   0  0  0  0  0  0  0  0  0  0  0  0
    5.0418    0.7787   21.5977 C   0  0  0  0  0  0  0  0  0  0  0  0
    5.4694    0.5003   20.2697 C   0  0  0  0  0  0  0  0  0  0  0  0
    9.4056   -2.3551   22.9859 C   0  0  0  0  0  0  0  0  0  0  0  0
    9.4858   -3.5600   23.6804 C   0  0  0  0  0  0  0  0  0  0  0  0
    8.7527   -3.7116   24.8507 C   0  0  0  0  0  0  0  0  0  0  0  0
    7.9539   -2.6693   25.3223 C   0  0  0  0  0  0  0  0  0  0  0  0
  1  2  1  0
  2  3  1  0
  3  4  2  0
  5  3  1  6
  5  6  1  0
  6  7  1  0
  7  8  1  0
  8  9  1  0
  9 10  2  0
 10 11  1  0
 11 12  1  0
 12 13  1  0
 13 14  2  0
 14 15  1  0
 15 16  2  0
 16 17  1  0
 17 18  1  0
 17 19  2  0
 11 20  1  0
 20 21  2  0
 20 22  1  0
 22 23  1  0
 23 24  2  0
 24 25  1  0
 25 26  2  0
 26 27  1  0
 27 28  2  0
 28 29  1  0
 29 30  2  0
 30 31  1  0
 31 32  2  0
 10 33  1  0
 33 34  2  0
 34 35  1  0
 35 36  2  0
 36  5  1  0
 36  9  1  0
 19 13  1  0
 32 23  1  0
 32 27  1  0
M  CHG  1   5   1
M  END
>  <template_ligand>  (189) 
mol-58

>  <template_receptor>  (189) 
receptors/receptor-58.pdb

>  <SMILES>  (189) 
CCC(=O)[NH+]1CCCc2c(N(Cc3cccc(Cl)c3)C(=O)Cc3cncc4ccccc34)cccc21

>  <LABEL>  (189) 
MERS-CoV Mpro

$$$$
ligand_94
     RDKit          3D

 39 43  0  0  0  0  0  0  0  0999 V2000
    6.3558    4.4207   22.4271 C   0  0  0  0  0  0  0  0  0  0  0  0
    7.1719    3.5099   23.2060 N   0  0  0  0  0  0  0  0  0  0  0  0
    6.8364    3.2511   24.4888 C   0  0  0  0  0  0  0  0  0  0  0  0
    5.9327    3.8323   25.0767 O   0  0  0  0  0  0  0  0  0  0  0  0
    7.6395    2.1802   25.2389 C   0  0  0  0  0  0  0  0  0  0  0  0
    8.5562    1.3891   24.4483 N   0  0  0  0  0  0  0  0  0  0  0  0
    8.2036    0.0153   24.1394 C   0  0  0  0  0  0  0  0  0  0  0  0
    8.8357   -0.4553   22.8053 C   0  0  2  0  0  0  0  0  0  0  0  0
    8.2154    0.3488   21.6342 C   0  0  0  0  0  0  0  0  0  0  0  0
    8.4964    1.4759   21.2752 O   0  0  0  0  0  0  0  0  0  0  0  0
    7.2389   -0.4277   21.0540 N   0  0  0  0  0  0  0  0  0  0  0  0
    6.4155    0.0576   20.0090 C   0  0  0  0  0  0  0  0  0  0  0  0
    6.7499   -0.2018   18.7065 C   0  0  0  0  0  0  0  0  0  0  0  0
    6.0366    0.2187   17.6304 N   0  0  0  0  0  0  0  0  0  0  0  0
    4.9526    0.9191   17.8738 C   0  0  0  0  0  0  0  0  0  0  0  0
    4.4868    1.2528   19.1793 C   0  0  0  0  0  0  0  0  0  0  0  0
    3.3081    2.0173   19.3896 C   0  0  0  0  0  0  0  0  0  0  0  0
    2.8825    2.3027   20.6575 C   0  0  0  0  0  0  0  0  0  0  0  0
    3.6080    1.8397   21.7788 C   0  0  0  0  0  0  0  0  0  0  0  0
    4.7572    1.1093   21.6028 C   0  0  0  0  0  0  0  0  0  0  0  0
    5.2318    0.8035   20.2942 C   0  0  0  0  0  0  0  0  0  0  0  0
    7.0503   -1.7144   21.6815 C   0  0  0  0  0  0  0  0  0  0  0  0
    8.3732   -1.8972   22.4477 C   0  0  2  0  0  0  0  0  0  0  0  0
    8.2266   -2.8808   23.6071 C   0  0  0  0  0  0  0  0  0  0  0  0
    7.5550   -4.4346   23.0127 S   0  0  0  0  0  0  0  0  0  0  0  0
    8.1537   -4.7735   21.7306 O   0  0  0  0  0  0  0  0  0  0  0  0
    6.1007   -4.3694   23.1181 O   0  0  0  0  0  0  0  0  0  0  0  0
    8.1631   -5.4473   24.2094 N   0  0  0  0  0  0  0  0  0  0  0  0
    7.4013   -5.4059   25.4595 C   0  0  0  0  0  0  0  0  0  0  0  0
    8.4954   -6.7971   23.7612 C   0  0  0  0  0  0  0  0  0  0  0  0
   10.3294   -0.2038   22.9043 C   0  0  0  0  0  0  0  0  0  0  0  0
   11.2913   -1.0192   22.2943 C   0  0  0  0  0  0  0  0  0  0  0  0
   12.6203   -0.6443   22.3285 C   0  0  0  0  0  0  0  0  0  0  0  0
   13.5307   -1.4324   21.7322 F   0  0  0  0  0  0  0  0  0  0  0  0
   13.0631    0.5206   22.9426 C   0  0  0  0  0  0  0  0  0  0  0  0
   12.1227    1.3204   23.5557 C   0  0  0  0  0  0  0  0  0  0  0  0
   10.7764    0.9592   23.5550 C   0  0  0  0  0  0  0  0  0  0  0  0
    9.8313    1.8598   24.2867 C   0  0  0  0  0  0  0  0  0  0  0  0
   10.1751    2.9585   24.7047 O   0  0  0  0  0  0  0  0  0  0  0  0
  1  2  1  0
  2  3  1  0
  3  4  2  0
  3  5  1  0
  5  6  1  0
  6  7  1  0
  8  7  1  1
  8  9  1  0
  9 10  2  0
  9 11  1  0
 11 12  1  0
 12 13  2  0
 13 14  1  0
 14 15  2  0
 15 16  1  0
 16 17  2  0
 17 18  1  0
 18 19  2  0
 19 20  1  0
 20 21  2  0
 11 22  1  0
 22 23  1  0
 23 24  1  1
 24 25  1  0
 25 26  2  0
 25 27  2  0
 25 28  1  0
 28 29  1  0
 28 30  1  0
  8 31  1  0
 31 32  2  0
 32 33  1  0
 33 34  1  0
 33 35  2  0
 35 36  1  0
 36 37  2  0
 37 38  1  0
 38 39  2  0
 38  6  1  0
 23  8  1  0
 37 31  1  0
 21 12  1  0
 21 16  1  0
M  END
>  <template_ligand>  (190) 
mol-218

>  <template_receptor>  (190) 
receptors/receptor-218.pdb

>  <SMILES>  (190) 
CNC(=O)CN1CC2(C(=O)N(c3cncc4ccccc34)CC2CS(=O)(=O)N(C)C)c2cc(F)ccc2C1=O

>  <LABEL>  (190) 
MERS-CoV Mpro

$$$$
ligand_93
     RDKit          3D

 29 30  0  0  0  0  0  0  0  0999 V2000
   -7.7668   -2.1282  -28.6564 C   0  0  0  0  0  0  0  0  0  0  0  0
   -6.4282   -2.7020  -28.6781 N   0  0  0  0  0  0  0  0  0  0  0  0
   -5.3921   -2.1756  -27.5242 S   0  0  0  0  0  0  0  0  0  0  0  0
   -5.1793   -0.7541  -27.6736 O   0  0  0  0  0  0  0  0  0  0  0  0
   -4.2766   -3.0885  -27.4664 O   0  0  0  0  0  0  0  0  0  0  0  0
   -6.3134   -2.4055  -26.1983 O   0  0  0  0  0  0  0  0  0  0  0  0
   -5.6745   -2.0133  -24.9631 C   0  0  0  0  0  0  0  0  0  0  0  0
   -6.6633   -2.3812  -23.8696 C   0  0  0  0  0  0  0  0  0  0  0  0
   -6.4622   -3.2850  -23.0697 O   0  0  0  0  0  0  0  0  0  0  0  0
   -7.8033   -1.6365  -23.8356 N   0  0  0  0  0  0  0  0  0  0  0  0
   -8.7239   -1.8266  -22.7195 C   0  0  1  0  0  0  0  0  0  0  0  0
   -8.1588   -1.1648  -21.4563 C   0  0  0  0  0  0  0  0  0  0  0  0
  -10.1334   -1.3665  -23.0438 C   0  0  0  0  0  0  0  0  0  0  0  0
  -11.1902   -2.2740  -22.9315 C   0  0  0  0  0  0  0  0  0  0  0  0
  -12.4923   -1.8467  -23.1600 C   0  0  0  0  0  0  0  0  0  0  0  0
  -13.7998   -2.9866  -22.9730 Cl  0  0  0  0  0  0  0  0  0  0  0  0
  -12.7684   -0.5377  -23.5251 C   0  0  0  0  0  0  0  0  0  0  0  0
  -11.7177    0.3782  -23.6552 C   0  0  0  0  0  0  0  0  0  0  0  0
  -11.9891    1.7650  -24.1072 C   0  0  0  0  0  0  0  0  0  0  0  0
  -13.1686    2.4286  -23.7456 C   0  0  0  0  0  0  0  0  0  0  0  0
  -13.4810    3.6703  -24.2854 C   0  0  0  0  0  0  0  0  0  0  0  0
  -12.5839    4.2788  -25.1661 C   0  0  0  0  0  0  0  0  0  0  0  0
  -13.0227    5.8183  -25.9562 S   0  0  0  0  0  0  0  0  0  0  0  0
  -12.0018    5.8816  -27.2726 N   0  0  0  0  0  0  0  0  0  0  0  0
  -14.3671    5.6766  -26.4816 O   0  0  0  0  0  0  0  0  0  0  0  0
  -12.6684    6.9341  -25.0961 O   0  0  0  0  0  0  0  0  0  0  0  0
  -11.3808    3.6574  -25.4864 C   0  0  0  0  0  0  0  0  0  0  0  0
  -11.0929    2.4098  -24.9655 C   0  0  0  0  0  0  0  0  0  0  0  0
  -10.4106   -0.0501  -23.4025 C   0  0  0  0  0  0  0  0  0  0  0  0
  1  2  1  0
  2  3  1  0
  3  4  2  0
  3  5  2  0
  3  6  1  0
  6  7  1  0
  7  8  1  0
  8  9  2  0
  8 10  1  0
 10 11  1  0
 11 12  1  1
 11 13  1  0
 13 14  2  0
 14 15  1  0
 15 16  1  0
 15 17  2  0
 17 18  1  0
 18 19  1  0
 19 20  2  0
 20 21  1  0
 21 22  2  0
 22 23  1  0
 23 24  1  0
 23 25  2  0
 23 26  2  0
 22 27  1  0
 27 28  2  0
 18 29  2  0
 29 13  1  0
 28 19  1  0
M  END
>  <template_ligand>  (191) 
mol-668

>  <template_receptor>  (191) 
receptors/receptor-668.pdb

>  <SMILES>  (191) 
CNS(=O)(=O)OCC(=O)NC(C)c1cc(Cl)cc(-c2ccc(S(N)(=O)=O)cc2)c1

>  <LABEL>  (191) 
SARS-CoV-2 Mpro

$$$$
ligand_30
     RDKit          3D

 40 45  0  0  0  0  0  0  0  0999 V2000
   -7.0528    3.5827  -22.7140 C   0  0  0  0  0  0  0  0  0  0  0  0
   -7.8120    2.6025  -23.4697 N   0  0  0  0  0  0  0  0  0  0  0  0
   -7.4585    2.3298  -24.7459 C   0  0  0  0  0  0  0  0  0  0  0  0
   -6.6081    2.9643  -25.3597 O   0  0  0  0  0  0  0  0  0  0  0  0
   -8.1724    1.1761  -25.4636 C   0  0  0  0  0  0  0  0  0  0  0  0
   -9.0176    0.3180  -24.6640 N   0  0  0  0  0  0  0  0  0  0  0  0
   -8.5486   -1.0159  -24.3206 C   0  0  0  0  0  0  0  0  0  0  0  0
   -9.1345   -1.5036  -22.9692 C   0  0  2  0  0  0  0  0  0  0  0  0
   -8.5660   -0.6297  -21.8241 C   0  0  0  0  0  0  0  0  0  0  0  0
   -8.9368    0.4782  -21.4845 O   0  0  0  0  0  0  0  0  0  0  0  0
   -7.5251   -1.3128  -21.2420 N   0  0  0  0  0  0  0  0  0  0  0  0
   -6.7334   -0.7353  -20.2215 C   0  0  0  0  0  0  0  0  0  0  0  0
   -7.0323   -0.9951  -18.9096 C   0  0  0  0  0  0  0  0  0  0  0  0
   -6.3487   -0.4951  -17.8474 N   0  0  0  0  0  0  0  0  0  0  0  0
   -5.3279    0.2867  -18.1155 C   0  0  0  0  0  0  0  0  0  0  0  0
   -4.9051    0.6321  -19.4337 C   0  0  0  0  0  0  0  0  0  0  0  0
   -3.7926    1.4824  -19.6701 C   0  0  0  0  0  0  0  0  0  0  0  0
   -3.3997    1.7793  -20.9463 C   0  0  0  0  0  0  0  0  0  0  0  0
   -4.0959    1.2410  -22.0508 C   0  0  0  0  0  0  0  0  0  0  0  0
   -5.1834    0.4272  -21.8508 C   0  0  0  0  0  0  0  0  0  0  0  0
   -5.6198    0.1049  -20.5326 C   0  0  0  0  0  0  0  0  0  0  0  0
   -7.2530   -2.5991  -21.8450 C   0  0  0  0  0  0  0  0  0  0  0  0
   -8.5882   -2.8981  -22.5486 C   0  0  2  0  0  0  0  0  0  0  0  0
   -8.5152   -3.9631  -23.6556 C   0  0  0  0  0  0  0  0  0  0  0  0
   -8.2441   -5.3151  -23.2078 N   0  0  0  0  0  0  0  0  0  0  0  0
   -7.0093   -5.7682  -22.8638 C   0  0  0  0  0  0  0  0  0  0  0  0
   -5.8113   -5.2165  -23.3508 C   0  0  0  0  0  0  0  0  0  0  0  0
   -4.6425   -5.7870  -22.8915 C   0  0  0  0  0  0  0  0  0  0  0  0
   -4.6058   -6.7712  -21.9909 N   0  0  0  0  0  0  0  0  0  0  0  0
   -5.7966   -7.2059  -21.6088 C   0  0  0  0  0  0  0  0  0  0  0  0
   -6.9883   -6.8082  -22.0205 N   0  0  0  0  0  0  0  0  0  0  0  0
  -10.6408   -1.3659  -23.0555 C   0  0  0  0  0  0  0  0  0  0  0  0
  -11.5337   -2.2384  -22.4204 C   0  0  0  0  0  0  0  0  0  0  0  0
  -12.8928   -1.9749  -22.4338 C   0  0  0  0  0  0  0  0  0  0  0  0
  -13.9742   -3.0639  -21.6097 Cl  0  0  0  0  0  0  0  0  0  0  0  0
  -13.4226   -0.8543  -23.0707 C   0  0  0  0  0  0  0  0  0  0  0  0
  -12.5533    0.0012  -23.7146 C   0  0  0  0  0  0  0  0  0  0  0  0
  -11.1831   -0.2586  -23.7244 C   0  0  0  0  0  0  0  0  0  0  0  0
  -10.3214    0.6987  -24.4881 C   0  0  0  0  0  0  0  0  0  0  0  0
  -10.7582    1.7615  -24.9083 O   0  0  0  0  0  0  0  0  0  0  0  0
  1  2  1  0
  2  3  1  0
  3  4  2  0
  3  5  1  0
  5  6  1  0
  6  7  1  0
  8  7  1  6
  8  9  1  0
  9 10  2  0
  9 11  1  0
 11 12  1  0
 12 13  2  0
 13 14  1  0
 14 15  2  0
 15 16  1  0
 16 17  2  0
 17 18  1  0
 18 19  2  0
 19 20  1  0
 20 21  2  0
 11 22  1  0
 22 23  1  0
 23 24  1  6
 24 25  1  0
 25 26  1  0
 26 27  2  0
 27 28  1  0
 28 29  2  0
 29 30  1  0
 30 31  2  0
  8 32  1  0
 32 33  2  0
 33 34  1  0
 34 35  1  0
 34 36  2  0
 36 37  1  0
 37 38  2  0
 38 39  1  0
 39 40  2  0
 39  6  1  0
 23  8  1  0
 31 26  1  0
 38 32  1  0
 21 12  1  0
 21 16  1  0
M  END
>  <template_ligand>  (192) 
mol-218

>  <template_receptor>  (192) 
receptors/receptor-218.pdb

>  <SMILES>  (192) 
CNC(=O)CN1CC2(C(=O)N(c3cncc4ccccc34)CC2CNc2ccncn2)c2cc(Cl)ccc2C1=O

>  <LABEL>  (192) 
SARS-CoV-2 Mpro

$$$$
ligand_95
     RDKit          3D

 22 24  0  0  0  0  0  0  0  0999 V2000
    8.5217    1.3252   21.1805 O   0  0  0  0  0  0  0  0  0  0  0  0
    8.3248    0.2568   21.7281 C   0  0  0  0  0  0  0  0  0  0  0  0
    7.4904   -0.8503   21.0643 C   0  0  0  0  0  0  0  0  0  0  0  0
    6.6175   -0.2977   19.9670 C   0  0  0  0  0  0  0  0  0  0  0  0
    6.9303   -0.4790   18.6440 C   0  0  0  0  0  0  0  0  0  0  0  0
    6.2339    0.0195   17.5879 N   0  0  0  0  0  0  0  0  0  0  0  0
    5.1736    0.7455   17.8690 C   0  0  0  0  0  0  0  0  0  0  0  0
    4.7310    1.0299   19.1925 C   0  0  0  0  0  0  0  0  0  0  0  0
    3.5828    1.8304   19.4537 C   0  0  0  0  0  0  0  0  0  0  0  0
    3.1947    2.0833   20.7441 C   0  0  0  0  0  0  0  0  0  0  0  0
    3.9310    1.5509   21.8240 C   0  0  0  0  0  0  0  0  0  0  0  0
    5.0429    0.7764   21.6005 C   0  0  0  0  0  0  0  0  0  0  0  0
    5.4733    0.4979   20.2726 C   0  0  0  0  0  0  0  0  0  0  0  0
    8.8439   -0.0075   22.9645 N   0  0  0  0  0  0  0  0  0  0  0  0
    9.5963    1.0081   23.6766 C   0  0  0  0  0  0  0  0  0  0  0  0
   11.0369    1.1523   23.2199 C   0  0  0  0  0  0  0  0  0  0  0  0
   11.7083    2.3693   23.3561 C   0  0  0  0  0  0  0  0  0  0  0  0
   13.0298    2.4912   22.9333 C   0  0  0  0  0  0  0  0  0  0  0  0
   13.6895    1.4158   22.3453 C   0  0  0  0  0  0  0  0  0  0  0  0
   13.0049    0.2165   22.1993 C   0  0  0  0  0  0  0  0  0  0  0  0
   13.7442   -1.0972   21.3237 Cl  0  0  0  0  0  0  0  0  0  0  0  0
   11.7053    0.0632   22.6627 C   0  0  0  0  0  0  0  0  0  0  0  0
  1  2  2  0
  2  3  1  0
  3  4  1  0
  4  5  2  0
  5  6  1  0
  6  7  2  0
  7  8  1  0
  8  9  2  0
  9 10  1  0
 10 11  2  0
 11 12  1  0
 12 13  2  0
  2 14  1  0
 14 15  1  0
 15 16  1  0
 16 17  2  0
 17 18  1  0
 18 19  2  0
 19 20  1  0
 20 21  1  0
 20 22  2  0
 13  4  1  0
 22 16  1  0
 13  8  1  0
M  END
>  <template_ligand>  (193) 
mol-58

>  <template_receptor>  (193) 
receptors/receptor-58.pdb

>  <SMILES>  (193) 
O=C(Cc1cncc2ccccc12)NCc1cccc(Cl)c1

>  <LABEL>  (193) 
MERS-CoV Mpro

$$$$
ligand_2
     RDKit          3D

 37 41  0  0  0  0  0  0  0  0999 V2000
   -7.0479    3.5969  -22.7356 C   0  0  0  0  0  0  0  0  0  0  0  0
   -7.7863    2.6134  -23.4980 N   0  0  0  0  0  0  0  0  0  0  0  0
   -7.4493    2.3560  -24.7798 C   0  0  0  0  0  0  0  0  0  0  0  0
   -6.6063    2.9907  -25.3960 O   0  0  0  0  0  0  0  0  0  0  0  0
   -8.1495    1.1783  -25.4665 C   0  0  0  0  0  0  0  0  0  0  0  0
   -8.9984    0.3449  -24.6399 N   0  0  0  0  0  0  0  0  0  0  0  0
   -8.5554   -0.9988  -24.3222 C   0  0  0  0  0  0  0  0  0  0  0  0
   -9.1453   -1.4902  -22.9744 C   0  0  2  0  0  0  0  0  0  0  0  0
   -8.5813   -0.6243  -21.8213 C   0  0  0  0  0  0  0  0  0  0  0  0
   -8.9585    0.4767  -21.4717 O   0  0  0  0  0  0  0  0  0  0  0  0
   -7.5330   -1.3107  -21.2452 N   0  0  0  0  0  0  0  0  0  0  0  0
   -6.7295   -0.7366  -20.2222 C   0  0  0  0  0  0  0  0  0  0  0  0
   -7.0152   -0.9986  -18.9075 C   0  0  0  0  0  0  0  0  0  0  0  0
   -6.3231   -0.5007  -17.8509 N   0  0  0  0  0  0  0  0  0  0  0  0
   -5.3053    0.2867  -18.1130 C   0  0  0  0  0  0  0  0  0  0  0  0
   -4.8773    0.6265  -19.4297 C   0  0  0  0  0  0  0  0  0  0  0  0
   -3.7704    1.4881  -19.6759 C   0  0  0  0  0  0  0  0  0  0  0  0
   -3.3929    1.7807  -20.9590 C   0  0  0  0  0  0  0  0  0  0  0  0
   -4.0921    1.2274  -22.0578 C   0  0  0  0  0  0  0  0  0  0  0  0
   -5.1726    0.4074  -21.8463 C   0  0  0  0  0  0  0  0  0  0  0  0
   -5.6012    0.0915  -20.5261 C   0  0  0  0  0  0  0  0  0  0  0  0
   -7.2688   -2.5961  -21.8691 C   0  0  0  0  0  0  0  0  0  0  0  0
   -8.5972   -2.8856  -22.5864 C   0  0  2  0  0  0  0  0  0  0  0  0
   -8.5167   -3.9130  -23.7130 C   0  0  0  0  0  0  0  0  0  0  0  0
   -8.2738   -5.1997  -23.1929 O   0  0  0  0  0  0  0  0  0  0  0  0
   -6.9570   -5.6991  -23.3714 C   0  0  0  0  0  0  0  0  0  0  0  0
   -6.8301   -6.4044  -24.7133 C   0  0  0  0  0  0  0  0  0  0  0  0
   -6.6557   -6.6305  -22.2125 C   0  0  0  0  0  0  0  0  0  0  0  0
  -10.6490   -1.3585  -23.0724 C   0  0  0  0  0  0  0  0  0  0  0  0
  -11.5275   -2.2398  -22.4300 C   0  0  0  0  0  0  0  0  0  0  0  0
  -12.8866   -1.9796  -22.4278 C   0  0  0  0  0  0  0  0  0  0  0  0
  -13.9467   -3.0619  -21.5690 Cl  0  0  0  0  0  0  0  0  0  0  0  0
  -13.4207   -0.8606  -23.0710 C   0  0  0  0  0  0  0  0  0  0  0  0
  -12.5578    0.0015  -23.7242 C   0  0  0  0  0  0  0  0  0  0  0  0
  -11.1834   -0.2404  -23.7339 C   0  0  0  0  0  0  0  0  0  0  0  0
  -10.2960    0.7352  -24.4537 C   0  0  0  0  0  0  0  0  0  0  0  0
  -10.6909    1.8283  -24.8351 O   0  0  0  0  0  0  0  0  0  0  0  0
  1  2  1  0
  2  3  1  0
  3  4  2  0
  3  5  1  0
  5  6  1  0
  6  7  1  0
  8  7  1  6
  8  9  1  0
  9 10  2  0
  9 11  1  0
 11 12  1  0
 12 13  2  0
 13 14  1  0
 14 15  2  0
 15 16  1  0
 16 17  2  0
 17 18  1  0
 18 19  2  0
 19 20  1  0
 20 21  2  0
 11 22  1  0
 22 23  1  0
 23 24  1  6
 24 25  1  0
 25 26  1  0
 26 27  1  0
 26 28  1  0
  8 29  1  0
 29 30  2  0
 30 31  1  0
 31 32  1  0
 31 33  2  0
 33 34  1  0
 34 35  2  0
 35 36  1  0
 36 37  2  0
 36  6  1  0
 23  8  1  0
 35 29  1  0
 21 12  1  0
 21 16  1  0
M  END
>  <template_ligand>  (194) 
mol-218

>  <template_receptor>  (194) 
receptors/receptor-218.pdb

>  <SMILES>  (194) 
CNC(=O)CN1CC2(C(=O)N(c3cncc4ccccc34)CC2COC(C)C)c2cc(Cl)ccc2C1=O

>  <LABEL>  (194) 
SARS-CoV-2 Mpro

$$$$
ligand_96
     RDKit          3D

 23 26  0  0  0  0  0  0  0  0999 V2000
  -12.6671   -0.7641  -24.1552 C   0  0  0  0  0  0  0  0  0  0  0  0
  -11.2759   -0.3633  -23.6649 C   0  0  2  0  0  0  0  0  0  0  0  0
  -10.4721    0.2271  -24.8299 C   0  0  0  0  0  0  0  0  0  0  0  0
   -9.1031    0.4100  -24.5341 O   0  0  0  0  0  0  0  0  0  0  0  0
   -8.4546   -0.7889  -24.1885 C   0  0  0  0  0  0  0  0  0  0  0  0
   -9.0501   -1.4395  -22.9217 C   0  0  1  0  0  0  0  0  0  0  0  0
  -10.5685   -1.5734  -23.0591 C   0  0  0  0  0  0  0  0  0  0  0  0
   -8.4311   -2.7314  -22.6401 N   0  0  0  0  0  0  0  0  0  0  0  0
   -7.5379   -2.7141  -21.6013 C   0  0  0  0  0  0  0  0  0  0  0  0
   -6.8130   -3.5982  -21.2000 O   0  0  0  0  0  0  0  0  0  0  0  0
   -7.6350   -1.4206  -21.0623 N   0  0  0  0  0  0  0  0  0  0  0  0
   -6.8199   -0.9146  -20.0264 C   0  0  0  0  0  0  0  0  0  0  0  0
   -7.1808   -1.1316  -18.7263 C   0  0  0  0  0  0  0  0  0  0  0  0
   -6.5413   -0.5791  -17.6667 N   0  0  0  0  0  0  0  0  0  0  0  0
   -5.5292    0.2126  -17.9293 C   0  0  0  0  0  0  0  0  0  0  0  0
   -5.0438    0.5010  -19.2372 C   0  0  0  0  0  0  0  0  0  0  0  0
   -3.9508    1.3731  -19.4682 C   0  0  0  0  0  0  0  0  0  0  0  0
   -3.5054    1.5907  -20.7406 C   0  0  0  0  0  0  0  0  0  0  0  0
   -4.1121    0.9445  -21.8386 C   0  0  0  0  0  0  0  0  0  0  0  0
   -5.1754    0.1021  -21.6461 C   0  0  0  0  0  0  0  0  0  0  0  0
   -5.6796   -0.1147  -20.3320 C   0  0  0  0  0  0  0  0  0  0  0  0
   -8.6437   -0.6635  -21.6612 C   0  0  0  0  0  0  0  0  0  0  0  0
   -9.0821    0.3698  -21.2276 O   0  0  0  0  0  0  0  0  0  0  0  0
  2  1  1  6
  2  3  1  0
  3  4  1  0
  4  5  1  0
  6  5  1  6
  6  7  1  0
  6  8  1  0
  8  9  1  0
  9 10  2  0
  9 11  1  0
 11 12  1  0
 12 13  2  0
 13 14  1  0
 14 15  2  0
 15 16  1  0
 16 17  2  0
 17 18  1  0
 18 19  2  0
 19 20  1  0
 20 21  2  0
 11 22  1  0
 22 23  2  0
  7  2  1  0
 21 12  1  0
 22  6  1  0
 21 16  1  0
M  END
>  <template_ligand>  (195) 
mol-109

>  <template_receptor>  (195) 
receptors/receptor-109.pdb

>  <SMILES>  (195) 
CC1COCC2(C1)NC(=O)N(c1cncc3ccccc13)C2=O

>  <LABEL>  (195) 
SARS-CoV-2 Mpro

$$$$
