
     RDKit          3D

 69 74  0  0  0  0  0  0  0  0999 V2000
    5.0522    6.8112   21.0685 C   0  0  0  0  0  0  0  0  0  0  0  0
    5.8183    6.3255   22.2713 C   0  0  1  0  0  0  0  0  0  0  0  0
    6.7903    5.1886   21.9741 C   0  0  0  0  0  0  0  0  0  0  0  0
    7.4836    4.7842   23.2482 N   0  0  1  0  0  4  0  0  0  0  0  0
    8.4467    3.6607   23.0716 C   0  0  0  0  0  0  0  0  0  0  0  0
    8.8088    3.0180   24.4223 C   0  0  0  0  0  0  0  0  0  0  0  0
    9.7040    1.8873   24.2562 N   0  0  0  0  0  0  0  0  0  0  0  0
    9.2006    0.5435   24.0213 C   0  0  0  0  0  0  0  0  0  0  0  0
    9.8466   -0.1143   22.7634 C   0  0  2  0  0  0  0  0  0  0  0  0
    9.2305    0.4712   21.4722 C   0  0  0  0  0  0  0  0  0  0  0  0
    9.6298    1.4010   20.7978 O   0  0  0  0  0  0  0  0  0  0  0  0
    8.0953   -0.2606   21.1979 N   0  0  0  0  0  0  0  0  0  0  0  0
    7.2080    0.1601   20.1822 C   0  0  0  0  0  0  0  0  0  0  0  0
    7.4962   -0.1280   18.8711 C   0  0  0  0  0  0  0  0  0  0  0  0
    6.7299    0.2473   17.8191 N   0  0  0  0  0  0  0  0  0  0  0  0
    5.6528    0.9494   18.0936 C   0  0  0  0  0  0  0  0  0  0  0  0
    5.2534    1.3394   19.4048 C   0  0  0  0  0  0  0  0  0  0  0  0
    4.0928    2.1279   19.6324 C   0  0  0  0  0  0  0  0  0  0  0  0
    3.7477    2.4971   20.9057 C   0  0  0  0  0  0  0  0  0  0  0  0
    4.5334    2.0984   22.0081 C   0  0  0  0  0  0  0  0  0  0  0  0
    5.6637    1.3379   21.8137 C   0  0  0  0  0  0  0  0  0  0  0  0
    6.0489    0.9311   20.5006 C   0  0  0  0  0  0  0  0  0  0  0  0
    7.9870   -1.4883   21.9706 C   0  0  0  0  0  0  0  0  0  0  0  0
    9.3879   -1.5977   22.5865 C   0  0  2  0  0  0  0  0  0  0  0  0
    9.4849   -2.5161   23.7927 C   0  0  0  0  0  0  0  0  0  0  0  0
   11.3362    0.1263   22.8063 C   0  0  0  0  0  0  0  0  0  0  0  0
   12.1760   -0.5766   21.9352 C   0  0  0  0  0  0  0  0  0  0  0  0
   13.5311   -0.3113   21.9210 C   0  0  0  0  0  0  0  0  0  0  0  0
   14.5312   -1.1696   20.7906 Cl  0  0  0  0  0  0  0  0  0  0  0  0
   14.1079    0.6110   22.7905 C   0  0  0  0  0  0  0  0  0  0  0  0
   13.2821    1.3200   23.6388 C   0  0  0  0  0  0  0  0  0  0  0  0
   11.9034    1.1249   23.6110 C   0  0  0  0  0  0  0  0  0  0  0  0
   11.0517    2.0954   24.3757 C   0  0  0  0  0  0  0  0  0  0  0  0
   11.5354    3.0345   24.9932 O   0  0  0  0  0  0  0  0  0  0  0  0
    8.1224    5.9984   23.8851 C   0  0  0  0  0  0  0  0  0  0  0  0
    7.1079    7.1218   24.0286 C   0  0  0  0  0  0  0  0  0  0  0  0
    6.5325    7.4411   22.7847 O   0  0  0  0  0  0  0  0  0  0  0  0
    4.3465    6.0558   20.7041 H   0  0  0  0  0  0  0  0  0  0  0  0
    4.4857    7.7074   21.3292 H   0  0  0  0  0  0  0  0  0  0  0  0
    5.7590    7.0737   20.2758 H   0  0  0  0  0  0  0  0  0  0  0  0
    5.1185    5.9668   23.0410 H   0  0  0  0  0  0  0  0  0  0  0  0
    6.2830    4.3136   21.5494 H   0  0  0  0  0  0  0  0  0  0  0  0
    7.5399    5.5353   21.2542 H   0  0  0  0  0  0  0  0  0  0  0  0
    6.7435    4.4261   23.8876 H   0  0  0  0  0  0  0  0  0  0  0  0
    9.3402    4.0398   22.5566 H   0  0  0  0  0  0  0  0  0  0  0  0
    7.9848    2.9240   22.4031 H   0  0  0  0  0  0  0  0  0  0  0  0
    7.8878    2.6747   24.9128 H   0  0  0  0  0  0  0  0  0  0  0  0
    9.3020    3.7357   25.0891 H   0  0  0  0  0  0  0  0  0  0  0  0
    8.1097    0.5933   23.9265 H   0  0  0  0  0  0  0  0  0  0  0  0
    9.4294   -0.0824   24.8975 H   0  0  0  0  0  0  0  0  0  0  0  0
    8.4008   -0.6868   18.6405 H   0  0  0  0  0  0  0  0  0  0  0  0
    5.0261    1.2520   17.2558 H   0  0  0  0  0  0  0  0  0  0  0  0
    3.4883    2.4252   18.7798 H   0  0  0  0  0  0  0  0  0  0  0  0
    2.8589    3.0971   21.0759 H   0  0  0  0  0  0  0  0  0  0  0  0
    4.2442    2.3967   23.0137 H   0  0  0  0  0  0  0  0  0  0  0  0
    6.2587    1.0552   22.6771 H   0  0  0  0  0  0  0  0  0  0  0  0
    7.2024   -1.4349   22.7436 H   0  0  0  0  0  0  0  0  0  0  0  0
    7.7634   -2.3443   21.3244 H   0  0  0  0  0  0  0  0  0  0  0  0
   10.0100   -2.0285   21.7944 H   0  0  0  0  0  0  0  0  0  0  0  0
   10.4925   -2.4935   24.2213 H   0  0  0  0  0  0  0  0  0  0  0  0
    9.2622   -3.5462   23.4922 H   0  0  0  0  0  0  0  0  0  0  0  0
    8.7717   -2.2288   24.5730 H   0  0  0  0  0  0  0  0  0  0  0  0
   11.7843   -1.3094   21.2388 H   0  0  0  0  0  0  0  0  0  0  0  0
   15.1741    0.8029   22.7582 H   0  0  0  0  0  0  0  0  0  0  0  0
   13.6797    2.0698   24.3122 H   0  0  0  0  0  0  0  0  0  0  0  0
    8.5139    5.7255   24.8653 H   0  0  0  0  0  0  0  0  0  0  0  0
    8.9544    6.3330   23.2519 H   0  0  0  0  0  0  0  0  0  0  0  0
    6.3081    6.8302   24.7327 H   0  0  0  0  0  0  0  0  0  0  0  0
    7.5961    8.0221   24.4143 H   0  0  0  0  0  0  0  0  0  0  0  0
  1  2  1  0
  2  3  1  0
  3  4  1  0
  4  5  1  0
  5  6  1  0
  6  7  1  0
  7  8  1  0
  9  8  1  1
  9 10  1  0
 10 11  2  0
 10 12  1  0
 12 13  1  0
 13 14  2  0
 14 15  1  0
 15 16  2  0
 16 17  1  0
 17 18  2  0
 18 19  1  0
 19 20  2  0
 20 21  1  0
 21 22  2  0
 12 23  1  0
 23 24  1  0
 24 25  1  0
  9 26  1  0
 26 27  2  0
 27 28  1  0
 28 29  1  0
 28 30  2  0
 30 31  1  0
 31 32  2  0
 32 33  1  0
 33 34  2  0
  4 35  1  0
 35 36  1  0
 36 37  1  0
 37  2  1  0
 33  7  1  0
 24  9  1  0
 32 26  1  0
 22 13  1  0
 22 17  1  0
  1 38  1  0
  1 39  1  0
  1 40  1  0
  2 41  1  1
  3 42  1  0
  3 43  1  0
  4 44  1  1
  5 45  1  0
  5 46  1  0
  6 47  1  0
  6 48  1  0
  8 49  1  0
  8 50  1  0
 14 51  1  0
 16 52  1  0
 18 53  1  0
 19 54  1  0
 20 55  1  0
 21 56  1  0
 23 57  1  0
 23 58  1  0
 24 59  1  6
 25 60  1  0
 25 61  1  0
 25 62  1  0
 27 63  1  0
 30 64  1  0
 31 65  1  0
 35 66  1  0
 35 67  1  0
 36 68  1  0
 36 69  1  0
M  CHG  1   4   1
M  END
$$$$
