
     RDKit          3D

 52 54  0  0  0  0  0  0  0  0999 V2000
    8.9981    4.3983   25.8625 C   0  0  0  0  0  0  0  0  0  0  0  0
    9.3152    2.9157   26.1228 C   0  0  0  0  0  0  0  0  0  0  0  0
    9.5659    2.6999   27.6158 C   0  0  0  0  0  0  0  0  0  0  0  0
   10.4703    2.5009   25.1925 C   0  0  0  0  0  0  0  0  0  0  0  0
   11.0226    1.0458   25.1745 C   0  0  0  0  0  0  0  0  0  0  0  0
   12.0678    0.7709   26.2653 C   0  0  0  0  0  0  0  0  0  0  0  0
   11.7720    0.8867   23.8160 C   0  0  0  0  0  0  0  0  0  0  0  0
   11.1668   -0.1914   22.9382 C   0  0  0  0  0  0  0  0  0  0  0  0
    9.7210   -0.0362   22.8518 N   0  0  0  0  0  0  0  0  0  0  0  0
    9.1745    0.1428   21.6090 C   0  0  0  0  0  0  0  0  0  0  0  0
    9.8147    0.6567   20.7036 O   0  0  0  0  0  0  0  0  0  0  0  0
    7.7900   -0.4520   21.3565 C   0  0  0  0  0  0  0  0  0  0  0  0
    7.0247    0.1731   20.2260 C   0  0  0  0  0  0  0  0  0  0  0  0
    7.3745   -0.1055   18.9267 C   0  0  0  0  0  0  0  0  0  0  0  0
    6.7138    0.3339   17.8228 N   0  0  0  0  0  0  0  0  0  0  0  0
    5.6702    1.1039   18.0303 C   0  0  0  0  0  0  0  0  0  0  0  0
    5.1988    1.4894   19.3159 C   0  0  0  0  0  0  0  0  0  0  0  0
    4.0551    2.3127   19.4917 C   0  0  0  0  0  0  0  0  0  0  0  0
    3.6608    2.6902   20.7459 C   0  0  0  0  0  0  0  0  0  0  0  0
    4.3620    2.2400   21.8843 C   0  0  0  0  0  0  0  0  0  0  0  0
    5.4662    1.4376   21.7406 C   0  0  0  0  0  0  0  0  0  0  0  0
    5.9048    1.0237   20.4530 C   0  0  0  0  0  0  0  0  0  0  0  0
    8.9607   -0.0594   24.0981 C   0  0  0  0  0  0  0  0  0  0  0  0
    9.9232   -0.0300   25.2832 C   0  0  0  0  0  0  0  0  0  0  0  0
    9.8861    5.0302   26.0150 H   0  0  0  0  0  0  0  0  0  0  0  0
    8.6495    4.5608   24.8366 H   0  0  0  0  0  0  0  0  0  0  0  0
    8.2247    4.7693   26.5440 H   0  0  0  0  0  0  0  0  0  0  0  0
    8.4348    2.3258   25.8235 H   0  0  0  0  0  0  0  0  0  0  0  0
    8.6458    2.8080   28.2050 H   0  0  0  0  0  0  0  0  0  0  0  0
    9.9782    1.7105   27.8385 H   0  0  0  0  0  0  0  0  0  0  0  0
   10.2660    3.4619   27.9589 H   0  0  0  0  0  0  0  0  0  0  0  0
   11.3395    3.1672   25.3370 H   0  0  0  0  0  0  0  0  0  0  0  0
   10.1050    2.7211   24.1773 H   0  0  0  0  0  0  0  0  0  0  0  0
   12.9743    1.3510   26.0564 H   0  0  0  0  0  0  0  0  0  0  0  0
   11.7406    0.9929   27.2844 H   0  0  0  0  0  0  0  0  0  0  0  0
   12.3462   -0.2855   26.2516 H   0  0  0  0  0  0  0  0  0  0  0  0
   12.8355    0.6787   23.9808 H   0  0  0  0  0  0  0  0  0  0  0  0
   11.7299    1.8301   23.2619 H   0  0  0  0  0  0  0  0  0  0  0  0
   11.5610   -0.1151   21.9253 H   0  0  0  0  0  0  0  0  0  0  0  0
   11.4012   -1.1922   23.3274 H   0  0  0  0  0  0  0  0  0  0  0  0
    7.2070   -0.4719   22.2771 H   0  0  0  0  0  0  0  0  0  0  0  0
    7.9828   -1.5073   21.1054 H   0  0  0  0  0  0  0  0  0  0  0  0
    8.2306   -0.7491   18.7320 H   0  0  0  0  0  0  0  0  0  0  0  0
    5.1346    1.4516   17.1453 H   0  0  0  0  0  0  0  0  0  0  0  0
    3.5108    2.6408   18.6094 H   0  0  0  0  0  0  0  0  0  0  0  0
    2.8077    3.3506   20.8739 H   0  0  0  0  0  0  0  0  0  0  0  0
    4.0282    2.5374   22.8766 H   0  0  0  0  0  0  0  0  0  0  0  0
    6.0024    1.1201   22.6301 H   0  0  0  0  0  0  0  0  0  0  0  0
    8.3371   -0.9610   24.1510 H   0  0  0  0  0  0  0  0  0  0  0  0
    8.2744    0.7991   24.1507 H   0  0  0  0  0  0  0  0  0  0  0  0
   10.4120   -1.0108   25.3326 H   0  0  0  0  0  0  0  0  0  0  0  0
    9.3668    0.0754   26.2199 H   0  0  0  0  0  0  0  0  0  0  0  0
  1  2  1  0
  2  3  1  0
  2  4  1  0
  4  5  1  0
  5  6  1  0
  5  7  1  0
  7  8  1  0
  8  9  1  0
  9 10  1  0
 10 11  2  0
 10 12  1  0
 12 13  1  0
 13 14  2  0
 14 15  1  0
 15 16  2  0
 16 17  1  0
 17 18  2  0
 18 19  1  0
 19 20  2  0
 20 21  1  0
 21 22  2  0
  9 23  1  0
 23 24  1  0
 24  5  1  0
 22 13  1  0
 22 17  1  0
  1 25  1  0
  1 26  1  0
  1 27  1  0
  2 28  1  0
  3 29  1  0
  3 30  1  0
  3 31  1  0
  4 32  1  0
  4 33  1  0
  6 34  1  0
  6 35  1  0
  6 36  1  0
  7 37  1  0
  7 38  1  0
  8 39  1  0
  8 40  1  0
 12 41  1  0
 12 42  1  0
 14 43  1  0
 16 44  1  0
 18 45  1  0
 19 46  1  0
 20 47  1  0
 21 48  1  0
 23 49  1  0
 23 50  1  0
 24 51  1  0
 24 52  1  0
M  END
$$$$
