
     RDKit          3D

 60 64  0  0  0  0  0  0  0  0999 V2000
    7.1710    4.6482   22.5727 C   0  0  0  0  0  0  0  0  0  0  0  0
    7.9518    3.7027   23.3379 N   0  0  0  0  0  0  0  0  0  0  0  0
    7.6472    3.4574   24.6294 C   0  0  0  0  0  0  0  0  0  0  0  0
    6.7945    4.0765   25.2505 O   0  0  0  0  0  0  0  0  0  0  0  0
    8.3955    2.3143   25.3236 C   0  0  0  0  0  0  0  0  0  0  0  0
    9.2558    1.4916   24.4981 N   0  0  0  0  0  0  0  0  0  0  0  0
    8.8510    0.1261   24.2106 C   0  0  0  0  0  0  0  0  0  0  0  0
    9.4297   -0.3739   22.8625 C   0  0  2  0  0  0  0  0  0  0  0  0
    8.8189    0.4549   21.7041 C   0  0  0  0  0  0  0  0  0  0  0  0
    9.1535    1.5620   21.3287 O   0  0  0  0  0  0  0  0  0  0  0  0
    7.7822   -0.2694   21.1572 N   0  0  0  0  0  0  0  0  0  0  0  0
    6.9442    0.2668   20.1411 C   0  0  0  0  0  0  0  0  0  0  0  0
    7.2130   -0.0131   18.8260 C   0  0  0  0  0  0  0  0  0  0  0  0
    6.4871    0.4430   17.7738 N   0  0  0  0  0  0  0  0  0  0  0  0
    5.4500    1.2045   18.0400 C   0  0  0  0  0  0  0  0  0  0  0  0
    5.0348    1.5544   19.3590 C   0  0  0  0  0  0  0  0  0  0  0  0
    3.9061    2.3856   19.6093 C   0  0  0  0  0  0  0  0  0  0  0  0
    3.5423    2.6897   20.8945 C   0  0  0  0  0  0  0  0  0  0  0  0
    4.2771    2.1778   21.9901 C   0  0  0  0  0  0  0  0  0  0  0  0
    5.3793    1.3878   21.7735 C   0  0  0  0  0  0  0  0  0  0  0  0
    5.7946    1.0625   20.4512 C   0  0  0  0  0  0  0  0  0  0  0  0
    7.5688   -1.5502   21.8082 C   0  0  0  0  0  0  0  0  0  0  0  0
    8.9150   -1.7956   22.5060 C   0  0  2  0  0  0  0  0  0  0  0  0
    8.8314   -2.8076   23.6368 C   0  0  0  0  0  0  0  0  0  0  0  0
   10.0863   -2.9502   24.2610 O   0  0  0  0  0  0  0  0  0  0  0  0
   10.0144   -3.8197   25.3658 C   0  0  0  0  0  0  0  0  0  0  0  0
   10.9299   -0.1873   22.9295 C   0  0  0  0  0  0  0  0  0  0  0  0
   11.8231   -1.0472   22.2796 C   0  0  0  0  0  0  0  0  0  0  0  0
   13.1739   -0.7493   22.2516 C   0  0  0  0  0  0  0  0  0  0  0  0
   14.2520   -1.8164   21.3960 Cl  0  0  0  0  0  0  0  0  0  0  0  0
   13.6852    0.3951   22.8689 C   0  0  0  0  0  0  0  0  0  0  0  0
   12.8067    1.2415   23.5227 C   0  0  0  0  0  0  0  0  0  0  0  0
   11.4405    0.9581   23.5635 C   0  0  0  0  0  0  0  0  0  0  0  0
   10.5372    1.9200   24.2821 C   0  0  0  0  0  0  0  0  0  0  0  0
   10.9028    3.0324   24.6380 O   0  0  0  0  0  0  0  0  0  0  0  0
    7.1800    5.6459   23.0230 H   0  0  0  0  0  0  0  0  0  0  0  0
    7.5894    4.6982   21.5663 H   0  0  0  0  0  0  0  0  0  0  0  0
    6.1302    4.3159   22.4970 H   0  0  0  0  0  0  0  0  0  0  0  0
    8.7687    3.2920   22.9057 H   0  0  0  0  0  0  0  0  0  0  0  0
    7.6283    1.6745   25.7695 H   0  0  0  0  0  0  0  0  0  0  0  0
    8.9726    2.7388   26.1527 H   0  0  0  0  0  0  0  0  0  0  0  0
    7.7574    0.1014   24.1664 H   0  0  0  0  0  0  0  0  0  0  0  0
    9.1799   -0.5418   25.0184 H   0  0  0  0  0  0  0  0  0  0  0  0
    8.0697   -0.6315   18.5689 H   0  0  0  0  0  0  0  0  0  0  0  0
    4.8754    1.5814   17.1917 H   0  0  0  0  0  0  0  0  0  0  0  0
    3.3481    2.7831   18.7621 H   0  0  0  0  0  0  0  0  0  0  0  0
    2.6889    3.3347   21.0905 H   0  0  0  0  0  0  0  0  0  0  0  0
    3.9959    2.4398   23.0091 H   0  0  0  0  0  0  0  0  0  0  0  0
    5.9510    1.0032   22.6148 H   0  0  0  0  0  0  0  0  0  0  0  0
    6.7445   -1.5315   22.5440 H   0  0  0  0  0  0  0  0  0  0  0  0
    7.3269   -2.3167   21.0688 H   0  0  0  0  0  0  0  0  0  0  0  0
    9.5872   -2.2007   21.7497 H   0  0  0  0  0  0  0  0  0  0  0  0
    8.0848   -2.4758   24.3729 H   0  0  0  0  0  0  0  0  0  0  0  0
    8.4920   -3.7844   23.2535 H   0  0  0  0  0  0  0  0  0  0  0  0
   11.0187   -3.9283   25.7838 H   0  0  0  0  0  0  0  0  0  0  0  0
    9.3445   -3.4345   26.1513 H   0  0  0  0  0  0  0  0  0  0  0  0
    9.6404   -4.8141   25.0773 H   0  0  0  0  0  0  0  0  0  0  0  0
   11.4713   -1.9614   21.8120 H   0  0  0  0  0  0  0  0  0  0  0  0
   14.7492    0.6122   22.8148 H   0  0  0  0  0  0  0  0  0  0  0  0
   13.1660    2.1411   24.0125 H   0  0  0  0  0  0  0  0  0  0  0  0
  1  2  1  0
  2  3  1  0
  3  4  2  0
  3  5  1  0
  5  6  1  0
  6  7  1  0
  8  7  1  1
  8  9  1  0
  9 10  2  0
  9 11  1  0
 11 12  1  0
 12 13  2  0
 13 14  1  0
 14 15  2  0
 15 16  1  0
 16 17  2  0
 17 18  1  0
 18 19  2  0
 19 20  1  0
 20 21  2  0
 11 22  1  0
 22 23  1  0
 23 24  1  0
 24 25  1  0
 25 26  1  0
  8 27  1  0
 27 28  2  0
 28 29  1  0
 29 30  1  0
 29 31  2  0
 31 32  1  0
 32 33  2  0
 33 34  1  0
 34 35  2  0
 34  6  1  0
 23  8  1  0
 33 27  1  0
 21 12  1  0
 21 16  1  0
  1 36  1  0
  1 37  1  0
  1 38  1  0
  2 39  1  0
  5 40  1  0
  5 41  1  0
  7 42  1  0
  7 43  1  0
 13 44  1  0
 15 45  1  0
 17 46  1  0
 18 47  1  0
 19 48  1  0
 20 49  1  0
 22 50  1  0
 22 51  1  0
 23 52  1  6
 24 53  1  0
 24 54  1  0
 26 55  1  0
 26 56  1  0
 26 57  1  0
 28 58  1  0
 31 59  1  0
 32 60  1  0
M  END
$$$$
