
     RDKit          3D

 58 63  0  0  0  0  0  0  0  0999 V2000
    9.2007    1.3916   21.1127 O   0  0  0  0  0  0  0  0  0  0  0  0
    8.8811    0.3582   21.6764 C   0  0  0  0  0  0  0  0  0  0  0  0
    7.9247   -0.6187   20.9829 C   0  0  0  0  0  0  0  0  0  0  0  0
    7.0644    0.0128   19.9343 C   0  0  0  0  0  0  0  0  0  0  0  0
    7.3215   -0.1905   18.6062 C   0  0  0  0  0  0  0  0  0  0  0  0
    6.6039    0.3288   17.5742 N   0  0  0  0  0  0  0  0  0  0  0  0
    5.5791    1.0837   17.8953 C   0  0  0  0  0  0  0  0  0  0  0  0
    5.1905    1.3779   19.2322 C   0  0  0  0  0  0  0  0  0  0  0  0
    4.0821    2.2125   19.5274 C   0  0  0  0  0  0  0  0  0  0  0  0
    3.7347    2.4735   20.8255 C   0  0  0  0  0  0  0  0  0  0  0  0
    4.4791    1.9130   21.8869 C   0  0  0  0  0  0  0  0  0  0  0  0
    5.5603    1.1077   21.6272 C   0  0  0  0  0  0  0  0  0  0  0  0
    5.9470    0.8229   20.2881 C   0  0  0  0  0  0  0  0  0  0  0  0
    9.3931    0.0532   22.9316 N   0  0  0  0  0  0  0  0  0  0  0  0
   10.1946    1.1170   23.5371 C   0  0  0  0  0  0  0  0  0  0  0  0
   11.6321    1.1796   23.0467 C   0  0  0  0  0  0  0  0  0  0  0  0
   12.3727    2.3478   23.2363 C   0  0  0  0  0  0  0  0  0  0  0  0
   13.6934    2.4283   22.8051 C   0  0  0  0  0  0  0  0  0  0  0  0
   14.3014    1.3435   22.1822 C   0  0  0  0  0  0  0  0  0  0  0  0
   13.5612    0.1839   22.0007 C   0  0  0  0  0  0  0  0  0  0  0  0
   14.2995   -1.1946   21.2330 Cl  0  0  0  0  0  0  0  0  0  0  0  0
   12.2374    0.0956   22.4139 C   0  0  0  0  0  0  0  0  0  0  0  0
    9.1852   -1.1882   23.6416 C   0  0  1  0  0  0  0  0  0  0  0  0
   10.1755   -1.5696   24.7651 C   0  0  0  0  0  0  0  0  0  0  0  0
    9.5437   -2.9090   25.2633 N   0  0  2  0  0  4  0  0  0  0  0  0
   10.4600   -4.0216   25.2784 C   0  0  0  0  0  0  0  0  0  0  0  0
   10.6043   -4.9807   26.4823 C   0  0  0  0  0  0  0  0  0  0  0  0
   10.4890   -5.0721   26.1895 C   0  0  0  0  0  0  0  0  0  0  0  0
    8.3639   -2.9357   24.2732 C   0  0  1  0  0  0  0  0  0  0  0  0
    7.8482   -1.4948   24.3591 C   0  0  0  0  0  0  0  0  0  0  0  0
    9.0739   -2.5883   22.9601 C   0  0  0  0  0  0  0  0  0  0  0  0
    8.5559   -1.3794   20.5083 H   0  0  0  0  0  0  0  0  0  0  0  0
    7.2885   -1.1054   21.7237 H   0  0  0  0  0  0  0  0  0  0  0  0
    8.1606   -0.8207   18.3099 H   0  0  0  0  0  0  0  0  0  0  0  0
    4.9939    1.5041   17.0761 H   0  0  0  0  0  0  0  0  0  0  0  0
    3.5263    2.6458   18.7001 H   0  0  0  0  0  0  0  0  0  0  0  0
    2.8918    3.1216   21.0490 H   0  0  0  0  0  0  0  0  0  0  0  0
    4.1984    2.1295   22.9143 H   0  0  0  0  0  0  0  0  0  0  0  0
    6.1359    0.7012   22.4540 H   0  0  0  0  0  0  0  0  0  0  0  0
   10.1642    0.9978   24.6236 H   0  0  0  0  0  0  0  0  0  0  0  0
    9.7026    2.0680   23.3132 H   0  0  0  0  0  0  0  0  0  0  0  0
   11.9134    3.2067   23.7244 H   0  0  0  0  0  0  0  0  0  0  0  0
   14.2563    3.3464   22.9504 H   0  0  0  0  0  0  0  0  0  0  0  0
   15.3293    1.3932   21.8370 H   0  0  0  0  0  0  0  0  0  0  0  0
   11.6823   -0.8149   22.2192 H   0  0  0  0  0  0  0  0  0  0  0  0
   11.1848   -1.7850   24.4235 H   0  0  0  0  0  0  0  0  0  0  0  0
   10.2095   -0.8699   25.5981 H   0  0  0  0  0  0  0  0  0  0  0  0
    9.1802   -2.6608   26.2077 H   0  0  0  0  0  0  0  0  0  0  0  0
   10.7092   -4.3741   24.3032 H   0  0  0  0  0  0  0  0  0  0  0  0
   11.5696   -5.3903   27.1139 H   0  0  0  0  0  0  0  0  0  0  0  0
   10.7590   -4.0805   27.7377 H   0  0  0  0  0  0  0  0  0  0  0  0
    9.4440   -5.2522   26.8297 H   0  0  0  0  0  0  0  0  0  0  0  0
   10.5434   -6.1122   25.5977 H   0  0  0  0  0  0  0  0  0  0  0  0
    7.7198   -3.7971   24.3891 H   0  0  0  0  0  0  0  0  0  0  0  0
    6.9591   -1.3138   23.7576 H   0  0  0  0  0  0  0  0  0  0  0  0
    7.7036   -1.0740   25.3637 H   0  0  0  0  0  0  0  0  0  0  0  0
   10.0281   -3.0981   22.7636 H   0  0  0  0  0  0  0  0  0  0  0  0
    8.4306   -2.6730   22.0984 H   0  0  0  0  0  0  0  0  0  0  0  0
  1  2  2  0
  2  3  1  0
  3  4  1  0
  4  5  2  0
  5  6  1  0
  6  7  2  0
  7  8  1  0
  8  9  2  0
  9 10  1  0
 10 11  2  0
 11 12  1  0
 12 13  2  0
  2 14  1  0
 14 15  1  0
 15 16  1  0
 16 17  2  0
 17 18  1  0
 18 19  2  0
 19 20  1  0
 20 21  1  0
 20 22  2  0
 23 14  1  1
 23 24  1  0
 24 25  1  0
 25 26  1  0
 26 27  1  0
 27 28  1  0
 25 29  1  0
 29 30  1  0
 29 31  1  0
 13  4  1  0
 22 16  1  0
 30 23  1  0
 13  8  1  0
 31 23  1  0
 28 26  1  0
  3 32  1  0
  3 33  1  0
  5 34  1  0
  7 35  1  0
  9 36  1  0
 10 37  1  0
 11 38  1  0
 12 39  1  0
 15 40  1  0
 15 41  1  0
 17 42  1  0
 18 43  1  0
 19 44  1  0
 22 45  1  0
 24 46  1  0
 24 47  1  0
 25 48  1  6
 26 49  1  0
 27 50  1  0
 27 51  1  0
 28 52  1  0
 28 53  1  0
 29 54  1  1
 30 55  1  0
 30 56  1  0
 31 57  1  0
 31 58  1  0
M  CHG  1  25   1
M  END
$$$$
