
     RDKit          3D

 64 68  0  0  0  0  0  0  0  0999 V2000
    7.1745    4.6382   22.5561 C   0  0  0  0  0  0  0  0  0  0  0  0
    7.9744    3.6968   23.3181 N   0  0  0  0  0  0  0  0  0  0  0  0
    7.6525    3.4372   24.6058 C   0  0  0  0  0  0  0  0  0  0  0  0
    6.7960    4.0538   25.2216 O   0  0  0  0  0  0  0  0  0  0  0  0
    8.4142    2.3141   25.3205 C   0  0  0  0  0  0  0  0  0  0  0  0
    9.2739    1.4741   24.5172 N   0  0  0  0  0  0  0  0  0  0  0  0
    8.8449    0.1219   24.2063 C   0  0  0  0  0  0  0  0  0  0  0  0
    9.4187   -0.3673   22.8527 C   0  0  2  0  0  0  0  0  0  0  0  0
    8.8044    0.4655   21.6972 C   0  0  0  0  0  0  0  0  0  0  0  0
    9.1312    1.5729   21.3175 O   0  0  0  0  0  0  0  0  0  0  0  0
    7.7708   -0.2638   21.1562 N   0  0  0  0  0  0  0  0  0  0  0  0
    6.9415    0.2656   20.1386 C   0  0  0  0  0  0  0  0  0  0  0  0
    7.2256   -0.0115   18.8273 C   0  0  0  0  0  0  0  0  0  0  0  0
    6.5071    0.4477   17.7709 N   0  0  0  0  0  0  0  0  0  0  0  0
    5.4687    1.2044   18.0437 C   0  0  0  0  0  0  0  0  0  0  0  0
    5.0563    1.5596   19.3624 C   0  0  0  0  0  0  0  0  0  0  0  0
    3.9243    2.3814   19.6062 C   0  0  0  0  0  0  0  0  0  0  0  0
    3.5471    2.6881   20.8850 C   0  0  0  0  0  0  0  0  0  0  0  0
    4.2795    2.1882   21.9849 C   0  0  0  0  0  0  0  0  0  0  0  0
    5.3863    1.4028   21.7775 C   0  0  0  0  0  0  0  0  0  0  0  0
    5.8070    1.0730   20.4565 C   0  0  0  0  0  0  0  0  0  0  0  0
    7.5507   -1.5443   21.7893 C   0  0  0  0  0  0  0  0  0  0  0  0
    8.8982   -1.7876   22.4901 C   0  0  2  0  0  0  0  0  0  0  0  0
    8.8529   -2.8048   23.6321 C   0  0  0  0  0  0  0  0  0  0  0  0
    8.4840   -4.4663   23.0750 S   0  0  0  0  0  0  0  0  0  0  0  0
    9.0898   -5.3830   24.0310 O   0  0  0  0  0  0  0  0  0  0  0  0
    8.7497   -4.5475   21.6495 O   0  0  0  0  0  0  0  0  0  0  0  0
    6.8467   -4.5802   23.2079 N   0  0  0  0  0  0  0  0  0  0  0  0
    6.1931   -4.8852   24.4631 C   0  0  0  0  0  0  0  0  0  0  0  0
   10.9228   -0.1889   22.9098 C   0  0  0  0  0  0  0  0  0  0  0  0
   11.8291   -1.0482   22.2742 C   0  0  0  0  0  0  0  0  0  0  0  0
   13.1810   -0.7464   22.2586 C   0  0  0  0  0  0  0  0  0  0  0  0
   14.2791   -1.8168   21.4278 Cl  0  0  0  0  0  0  0  0  0  0  0  0
   13.6878    0.4005   22.8698 C   0  0  0  0  0  0  0  0  0  0  0  0
   12.8032    1.2414   23.5154 C   0  0  0  0  0  0  0  0  0  0  0  0
   11.4416    0.9447   23.5531 C   0  0  0  0  0  0  0  0  0  0  0  0
   10.5601    1.8916   24.3077 C   0  0  0  0  0  0  0  0  0  0  0  0
   10.9591    2.9813   24.6954 O   0  0  0  0  0  0  0  0  0  0  0  0
    6.1315    4.2984   22.4810 H   0  0  0  0  0  0  0  0  0  0  0  0
    7.5959    4.7079   21.5486 H   0  0  0  0  0  0  0  0  0  0  0  0
    7.1787    5.6342   23.0151 H   0  0  0  0  0  0  0  0  0  0  0  0
    8.6404    3.1217   22.8130 H   0  0  0  0  0  0  0  0  0  0  0  0
    9.0123    2.7816   26.1076 H   0  0  0  0  0  0  0  0  0  0  0  0
    7.6517    1.6984   25.8070 H   0  0  0  0  0  0  0  0  0  0  0  0
    9.1688   -0.5698   24.9970 H   0  0  0  0  0  0  0  0  0  0  0  0
    7.7493    0.1096   24.1702 H   0  0  0  0  0  0  0  0  0  0  0  0
    8.0901   -0.6288   18.5880 H   0  0  0  0  0  0  0  0  0  0  0  0
    4.8805    1.5708   17.2009 H   0  0  0  0  0  0  0  0  0  0  0  0
    3.3735    2.7606   18.7510 H   0  0  0  0  0  0  0  0  0  0  0  0
    2.6878    3.3261   21.0702 H   0  0  0  0  0  0  0  0  0  0  0  0
    3.9856    2.4539   22.9977 H   0  0  0  0  0  0  0  0  0  0  0  0
    5.9429    1.0232   22.6299 H   0  0  0  0  0  0  0  0  0  0  0  0
    6.7183   -1.4995   22.5124 H   0  0  0  0  0  0  0  0  0  0  0  0
    7.3079   -2.3067   21.0436 H   0  0  0  0  0  0  0  0  0  0  0  0
    9.5749   -2.1745   21.7283 H   0  0  0  0  0  0  0  0  0  0  0  0
    8.0963   -2.5453   24.3835 H   0  0  0  0  0  0  0  0  0  0  0  0
    9.8211   -2.8740   24.1344 H   0  0  0  0  0  0  0  0  0  0  0  0
    6.3320   -4.0899   22.4893 H   0  0  0  0  0  0  0  0  0  0  0  0
    6.6706   -5.7539   24.9116 H   0  0  0  0  0  0  0  0  0  0  0  0
    5.1493   -5.1280   24.2624 H   0  0  0  0  0  0  0  0  0  0  0  0
    6.2149   -4.0759   25.2014 H   0  0  0  0  0  0  0  0  0  0  0  0
   11.5031   -1.9591   21.7851 H   0  0  0  0  0  0  0  0  0  0  0  0
   14.7526    0.6122   22.8278 H   0  0  0  0  0  0  0  0  0  0  0  0
   13.1422    2.1468   24.0065 H   0  0  0  0  0  0  0  0  0  0  0  0
  1  2  1  0
  2  3  1  0
  3  4  2  0
  3  5  1  0
  5  6  1  0
  6  7  1  0
  8  7  1  1
  8  9  1  0
  9 10  2  0
  9 11  1  0
 11 12  1  0
 12 13  2  0
 13 14  1  0
 14 15  2  0
 15 16  1  0
 16 17  2  0
 17 18  1  0
 18 19  2  0
 19 20  1  0
 20 21  2  0
 11 22  1  0
 22 23  1  0
 23 24  1  0
 24 25  1  0
 25 26  2  0
 25 27  2  0
 25 28  1  0
 28 29  1  0
  8 30  1  0
 30 31  2  0
 31 32  1  0
 32 33  1  0
 32 34  2  0
 34 35  1  0
 35 36  2  0
 36 37  1  0
 37 38  2  0
 37  6  1  0
 23  8  1  0
 36 30  1  0
 21 12  1  0
 21 16  1  0
  1 39  1  0
  1 40  1  0
  1 41  1  0
  2 42  1  0
  5 43  1  0
  5 44  1  0
  7 45  1  0
  7 46  1  0
 13 47  1  0
 15 48  1  0
 17 49  1  0
 18 50  1  0
 19 51  1  0
 20 52  1  0
 22 53  1  0
 22 54  1  0
 23 55  1  6
 24 56  1  0
 24 57  1  0
 28 58  1  0
 29 59  1  0
 29 60  1  0
 29 61  1  0
 31 62  1  0
 34 63  1  0
 35 64  1  0
M  END
$$$$
