


 42 47  0  0  0  0  0  0  0  0999 V2000
   -8.6385    1.6855  -24.3448 N   0  0  0  0  0  0  0  0  0  0  0  0
   -8.1913    0.3267  -24.6643 C   0  0  0  0  0  0  0  0  0  0  0  0
   -8.6044   -0.5749  -23.5250 C   0  0  0  0  0  0  0  0  0  0  0  0
   -8.1480    0.1262  -22.2643 C   0  0  0  0  0  0  0  0  0  0  0  0
   -8.3206    1.3446  -21.9679 O   0  0  0  0  0  0  0  0  0  0  0  0
   -7.4735   -0.7736  -21.4090 N   0  0  0  0  0  0  0  0  0  0  0  0
   -7.7333   -2.0842  -21.9242 C   0  0  0  0  0  0  0  0  0  0  0  0
   -7.9745   -1.8867  -23.4302 C   0  0  0  0  0  0  0  0  0  0  0  0
  -10.0904   -0.5588  -23.4195 C   0  0  0  0  0  0  0  0  0  0  0  0
  -10.8481   -1.6300  -23.0390 C   0  0  0  0  0  0  0  0  0  0  0  0
  -12.2189   -1.5298  -22.9169 C   0  0  0  0  0  0  0  0  0  0  0  0
  -13.1839   -2.9071  -22.4284 Cl  0  0  0  0  0  0  0  0  0  0  0  0
  -12.8944   -0.3413  -23.1734 C   0  0  0  0  0  0  0  0  0  0  0  0
  -12.1292    0.7404  -23.5591 C   0  0  0  0  0  0  0  0  0  0  0  0
  -10.7588    0.6422  -23.6828 C   0  0  0  0  0  0  0  0  0  0  0  0
  -10.0554    1.8278  -24.1575 C   0  0  0  0  0  0  0  0  0  0  0  0
  -10.6236    2.9280  -24.3980 O   0  0  0  0  0  0  0  0  0  0  0  0
   -6.6857   -0.4648  -20.2575 C   0  0  0  0  0  0  0  0  0  0  0  0
   -7.0748   -0.7815  -18.9760 C   0  0  0  0  0  0  0  0  0  0  0  0
   -6.2276   -0.4279  -17.9844 N   0  0  0  0  0  0  0  0  0  0  0  0
   -5.0660    0.1958  -18.1891 C   0  0  0  0  0  0  0  0  0  0  0  0
   -4.6256    0.5378  -19.4532 C   0  0  0  0  0  0  0  0  0  0  0  0
   -3.4219    1.1852  -19.6782 C   0  0  0  0  0  0  0  0  0  0  0  0
   -3.0494    1.4940  -20.9691 C   0  0  0  0  0  0  0  0  0  0  0  0
   -3.8646    1.1635  -22.0325 C   0  0  0  0  0  0  0  0  0  0  0  0
   -5.0754    0.5107  -21.7882 C   0  0  0  0  0  0  0  0  0  0  0  0
   -5.4765    0.1875  -20.5032 C   0  0  0  0  0  0  0  0  0  0  0  0
   -7.7366    2.8068  -24.2331 C   0  0  0  0  0  0  0  0  0  0  0  0
   -8.0872    4.6565  -27.6125 C   0  0  0  0  0  0  0  0  0  0  0  0
   -8.4131    4.2267  -26.2514 N   0  0  0  0  0  0  0  0  0  0  0  0
   -7.5056    3.3186  -25.6319 C   0  0  0  0  0  0  0  0  0  0  0  0
   -6.4637    2.9090  -26.2468 O   0  0  0  0  0  0  0  0  0  0  0  0
   -9.2192    4.5489  -25.7870 H   0  0  0  0  0  0  0  0  0  0  0  0
   -6.6425   -2.0203  -24.0608 C   0  0  0  0  0  0  0  0  0  0  0  0
   -5.9406   -3.2419  -23.9341 N   0  0  0  0  0  0  0  0  0  0  0  0
   -5.0622   -3.2860  -23.4917 H   0  0  0  0  0  0  0  0  0  0  0  0
   -6.5713   -4.4267  -24.4843 C   0  0  0  0  0  0  0  0  0  0  0  0
   -6.7664   -4.5587  -25.8489 C   0  0  0  0  0  0  0  0  0  0  0  0
   -7.3767   -5.7267  -26.2672 C   0  0  0  0  0  0  0  0  0  0  0  0
   -7.7687   -6.6960  -25.4210 N   0  0  0  0  0  0  0  0  0  0  0  0
   -7.5574   -6.5235  -24.0941 C   0  0  0  0  0  0  0  0  0  0  0  0
   -6.9601   -5.3909  -23.6305 N   0  0  0  0  0  0  0  0  0  0  0  0
 29 30  1  0  0  0
 30 31  1  0  0  0
 30 33  1  0  0  0
 31 32  2  0  0  0
 31 28  1  0  0  0
 28  1  1  0  0  0
  1  2  1  0  0  0
  3  2  1  0  0  0
  3  4  1  0  0  0
  3  9  1  0  0  0
  4  5  2  0  0  0
  4  6  1  0  0  0
  6 18  1  0  0  0
  6  7  1  0  0  0
 18 19  2  0  0  0
 19 20  1  0  0  0
 20 21  2  0  0  0
 21 22  1  0  0  0
 22 23  2  0  0  0
 23 24  1  0  0  0
 24 25  2  0  0  0
 25 26  1  0  0  0
 26 27  2  0  0  0
 27 18  1  0  0  0
 27 22  1  0  0  0
  7  8  1  0  0  0
  8 34  1  0  0  0
  8  3  1  0  0  0
 34 35  1  0  0  0
 35 37  1  0  0  0
 35 36  1  0  0  0
 37 38  2  0  0  0
 38 39  1  0  0  0
 39 40  2  0  0  0
 40 41  1  0  0  0
 41 42  2  0  0  0
 42 37  1  0  0  0
  9 10  2  0  0  0
 10 11  1  0  0  0
 11 12  1  0  0  0
 11 13  2  0  0  0
 13 14  1  0  0  0
 14 15  2  0  0  0
 15 16  1  0  0  0
 15  9  1  0  0  0
 16 17  2  0  0  0
 16  1  1  0  0  0
M  END
> <minimizedAffinity>
-8.95059

> <CNNscore>
0.3919112682

> <CNNaffinity>
6.8242554665

> <CNN_VS>
2.6745026112

> <CNNaffinity_variance>
0.1311630905

$$$$



 42 47  0  0  0  0  0  0  0  0999 V2000
  -10.3162    0.5316  -23.4801 N   0  0  0  0  0  0  0  0  0  0  0  0
   -9.1033    0.5621  -24.3026 C   0  0  0  0  0  0  0  0  0  0  0  0
   -8.2517   -0.6229  -23.9129 C   0  0  0  0  0  0  0  0  0  0  0  0
   -8.1772   -0.5920  -22.4020 C   0  0  0  0  0  0  0  0  0  0  0  0
   -9.1418   -0.4388  -21.5971 O   0  0  0  0  0  0  0  0  0  0  0  0
   -6.8446   -0.7621  -21.9644 N   0  0  0  0  0  0  0  0  0  0  0  0
   -6.1014   -1.1967  -23.1087 C   0  0  0  0  0  0  0  0  0  0  0  0
   -6.8517   -0.6207  -24.3213 C   0  0  0  0  0  0  0  0  0  0  0  0
   -9.0110   -1.8714  -24.2034 C   0  0  0  0  0  0  0  0  0  0  0  0
   -8.4409   -3.0423  -24.6160 C   0  0  0  0  0  0  0  0  0  0  0  0
   -9.2013   -4.1753  -24.8210 C   0  0  0  0  0  0  0  0  0  0  0  0
   -8.4637   -5.6730  -25.3499 Cl  0  0  0  0  0  0  0  0  0  0  0  0
  -10.5775   -4.1829  -24.6196 C   0  0  0  0  0  0  0  0  0  0  0  0
  -11.1536   -2.9997  -24.2040 C   0  0  0  0  0  0  0  0  0  0  0  0
  -10.3955   -1.8655  -23.9994 C   0  0  0  0  0  0  0  0  0  0  0  0
  -11.1139   -0.6542  -23.6222 C   0  0  0  0  0  0  0  0  0  0  0  0
  -12.3590   -0.6135  -23.4234 O   0  0  0  0  0  0  0  0  0  0  0  0
   -6.3191   -0.5505  -20.6526 C   0  0  0  0  0  0  0  0  0  0  0  0
   -6.8348   -1.1592  -19.5311 C   0  0  0  0  0  0  0  0  0  0  0  0
   -6.2354   -0.8648  -18.3563 N   0  0  0  0  0  0  0  0  0  0  0  0
   -5.1971   -0.0348  -18.2414 C   0  0  0  0  0  0  0  0  0  0  0  0
   -4.6392    0.6035  -19.3324 C   0  0  0  0  0  0  0  0  0  0  0  0
   -3.5615    1.4670  -19.2257 C   0  0  0  0  0  0  0  0  0  0  0  0
   -3.0589    2.0671  -20.3606 C   0  0  0  0  0  0  0  0  0  0  0  0
   -3.6205    1.8137  -21.5954 C   0  0  0  0  0  0  0  0  0  0  0  0
   -4.7070    0.9401  -21.6856 C   0  0  0  0  0  0  0  0  0  0  0  0
   -5.2337    0.3226  -20.5641 C   0  0  0  0  0  0  0  0  0  0  0  0
  -10.6977    1.6079  -22.5974 C   0  0  0  0  0  0  0  0  0  0  0  0
  -13.6374    3.4505  -24.3084 C   0  0  0  0  0  0  0  0  0  0  0  0
  -12.9414    2.4620  -23.4824 N   0  0  0  0  0  0  0  0  0  0  0  0
  -11.5215    2.5688  -23.4158 C   0  0  0  0  0  0  0  0  0  0  0  0
  -10.9011    3.4869  -24.0510 O   0  0  0  0  0  0  0  0  0  0  0  0
  -13.4300    1.7585  -22.9970 H   0  0  0  0  0  0  0  0  0  0  0  0
   -6.2429    0.7060  -24.5643 C   0  0  0  0  0  0  0  0  0  0  0  0
   -5.3392    0.8615  -25.6414 N   0  0  0  0  0  0  0  0  0  0  0  0
   -5.6347    0.7745  -26.5765 H   0  0  0  0  0  0  0  0  0  0  0  0
   -3.9581    1.1548  -25.3083 C   0  0  0  0  0  0  0  0  0  0  0  0
   -3.4923    2.4588  -25.2948 C   0  0  0  0  0  0  0  0  0  0  0  0
   -2.1602    2.6268  -24.9645 C   0  0  0  0  0  0  0  0  0  0  0  0
   -1.3405    1.6021  -24.6689 N   0  0  0  0  0  0  0  0  0  0  0  0
   -1.8400    0.3432  -24.6947 C   0  0  0  0  0  0  0  0  0  0  0  0
   -3.1456    0.1237  -25.0140 N   0  0  0  0  0  0  0  0  0  0  0  0
 29 30  1  0  0  0
 30 31  1  0  0  0
 30 33  1  0  0  0
 31 32  2  0  0  0
 31 28  1  0  0  0
 28  1  1  0  0  0
  1  2  1  0  0  0
  3  2  1  0  0  0
  3  4  1  0  0  0
  3  9  1  0  0  0
  4  5  2  0  0  0
  4  6  1  0  0  0
  6 18  1  0  0  0
  6  7  1  0  0  0
 18 19  2  0  0  0
 19 20  1  0  0  0
 20 21  2  0  0  0
 21 22  1  0  0  0
 22 23  2  0  0  0
 23 24  1  0  0  0
 24 25  2  0  0  0
 25 26  1  0  0  0
 26 27  2  0  0  0
 27 18  1  0  0  0
 27 22  1  0  0  0
  7  8  1  0  0  0
  8 34  1  0  0  0
  8  3  1  0  0  0
 34 35  1  0  0  0
 35 37  1  0  0  0
 35 36  1  0  0  0
 37 38  2  0  0  0
 38 39  1  0  0  0
 39 40  2  0  0  0
 40 41  1  0  0  0
 41 42  2  0  0  0
 42 37  1  0  0  0
  9 10  2  0  0  0
 10 11  1  0  0  0
 11 12  1  0  0  0
 11 13  2  0  0  0
 13 14  1  0  0  0
 14 15  2  0  0  0
 15 16  1  0  0  0
 15  9  1  0  0  0
 16 17  2  0  0  0
 16  1  1  0  0  0
M  END
> <minimizedAffinity>
-7.77259

> <CNNscore>
0.2336530983

> <CNNaffinity>
6.6006469727

> <CNN_VS>
1.5422616005

> <CNNaffinity_variance>
0.0286812186

$$$$



 42 47  0  0  0  0  0  0  0  0999 V2000
   -6.1145   -3.3155  -21.9074 N   0  0  0  0  0  0  0  0  0  0  0  0
   -5.9992   -2.8082  -23.2778 C   0  0  0  0  0  0  0  0  0  0  0  0
   -6.6405   -1.4413  -23.3191 C   0  0  0  0  0  0  0  0  0  0  0  0
   -7.9889   -1.6032  -22.6523 C   0  0  0  0  0  0  0  0  0  0  0  0
   -8.2283   -2.1866  -21.5549 O   0  0  0  0  0  0  0  0  0  0  0  0
   -9.0048   -1.0007  -23.4277 N   0  0  0  0  0  0  0  0  0  0  0  0
   -8.3358   -0.2032  -24.4111 C   0  0  0  0  0  0  0  0  0  0  0  0
   -6.9729   -0.8828  -24.6246 C   0  0  0  0  0  0  0  0  0  0  0  0
   -5.8968   -0.5381  -22.3967 C   0  0  0  0  0  0  0  0  0  0  0  0
   -5.7062    0.7974  -22.6124 C   0  0  0  0  0  0  0  0  0  0  0  0
   -5.0471    1.5844  -21.6904 C   0  0  0  0  0  0  0  0  0  0  0  0
   -4.8066    3.2958  -21.9734 Cl  0  0  0  0  0  0  0  0  0  0  0  0
   -4.5465    1.0617  -20.5026 C   0  0  0  0  0  0  0  0  0  0  0  0
   -4.7378   -0.2876  -20.2853 C   0  0  0  0  0  0  0  0  0  0  0  0
   -5.3955   -1.0765  -21.2061 C   0  0  0  0  0  0  0  0  0  0  0  0
   -5.4866   -2.5002  -20.9056 C   0  0  0  0  0  0  0  0  0  0  0  0
   -5.0526   -3.0187  -19.8407 O   0  0  0  0  0  0  0  0  0  0  0  0
  -10.4192   -1.1418  -23.2814 C   0  0  0  0  0  0  0  0  0  0  0  0
  -11.0327   -2.3532  -23.0576 C   0  0  0  0  0  0  0  0  0  0  0  0
  -12.3786   -2.3343  -22.9393 N   0  0  0  0  0  0  0  0  0  0  0  0
  -13.1149   -1.2251  -23.0275 C   0  0  0  0  0  0  0  0  0  0  0  0
  -12.5528    0.0171  -23.2509 C   0  0  0  0  0  0  0  0  0  0  0  0
  -13.3066    1.1754  -23.3444 C   0  0  0  0  0  0  0  0  0  0  0  0
  -12.6739    2.3795  -23.5688 C   0  0  0  0  0  0  0  0  0  0  0  0
  -11.3013    2.4369  -23.7001 C   0  0  0  0  0  0  0  0  0  0  0  0
  -10.5558    1.2594  -23.6033 C   0  0  0  0  0  0  0  0  0  0  0  0
  -11.1626    0.0355  -23.3785 C   0  0  0  0  0  0  0  0  0  0  0  0
   -6.7957   -4.5441  -21.5761 C   0  0  0  0  0  0  0  0  0  0  0  0
   -5.0198   -6.9541  -24.0260 C   0  0  0  0  0  0  0  0  0  0  0  0
   -5.1861   -6.0145  -22.9156 N   0  0  0  0  0  0  0  0  0  0  0  0
   -6.5025   -5.5166  -22.6897 C   0  0  0  0  0  0  0  0  0  0  0  0
   -7.4787   -5.8814  -23.4282 O   0  0  0  0  0  0  0  0  0  0  0  0
   -4.4264   -5.7402  -22.3527 H   0  0  0  0  0  0  0  0  0  0  0  0
   -7.1881   -1.8569  -25.7176 C   0  0  0  0  0  0  0  0  0  0  0  0
   -6.0816   -2.2784  -26.4915 N   0  0  0  0  0  0  0  0  0  0  0  0
   -5.3439   -1.6642  -26.7101 H   0  0  0  0  0  0  0  0  0  0  0  0
   -6.0810   -3.6550  -26.9489 C   0  0  0  0  0  0  0  0  0  0  0  0
   -7.1455   -4.4961  -26.6714 C   0  0  0  0  0  0  0  0  0  0  0  0
   -7.0433   -5.7880  -27.1534 C   0  0  0  0  0  0  0  0  0  0  0  0
   -5.9837   -6.2303  -27.8541 N   0  0  0  0  0  0  0  0  0  0  0  0
   -4.9655   -5.3720  -28.1018 C   0  0  0  0  0  0  0  0  0  0  0  0
   -5.0171   -4.0886  -27.6490 N   0  0  0  0  0  0  0  0  0  0  0  0
 29 30  1  0  0  0
 30 31  1  0  0  0
 30 33  1  0  0  0
 31 32  2  0  0  0
 31 28  1  0  0  0
 28  1  1  0  0  0
  1  2  1  0  0  0
  3  2  1  0  0  0
  3  4  1  0  0  0
  3  9  1  0  0  0
  4  5  2  0  0  0
  4  6  1  0  0  0
  6 18  1  0  0  0
  6  7  1  0  0  0
 18 19  2  0  0  0
 19 20  1  0  0  0
 20 21  2  0  0  0
 21 22  1  0  0  0
 22 23  2  0  0  0
 23 24  1  0  0  0
 24 25  2  0  0  0
 25 26  1  0  0  0
 26 27  2  0  0  0
 27 18  1  0  0  0
 27 22  1  0  0  0
  7  8  1  0  0  0
  8 34  1  0  0  0
  8  3  1  0  0  0
 34 35  1  0  0  0
 35 37  1  0  0  0
 35 36  1  0  0  0
 37 38  2  0  0  0
 38 39  1  0  0  0
 39 40  2  0  0  0
 40 41  1  0  0  0
 41 42  2  0  0  0
 42 37  1  0  0  0
  9 10  2  0  0  0
 10 11  1  0  0  0
 11 12  1  0  0  0
 11 13  2  0  0  0
 13 14  1  0  0  0
 14 15  2  0  0  0
 15 16  1  0  0  0
 15  9  1  0  0  0
 16 17  2  0  0  0
 16  1  1  0  0  0
M  END
> <minimizedAffinity>
-7.57936

> <CNNscore>
0.2118282765

> <CNNaffinity>
6.3726906776

> <CNN_VS>
1.3499161005

> <CNNaffinity_variance>
0.2651609778

$$$$



 42 47  0  0  0  0  0  0  0  0999 V2000
   -9.7325    0.6899  -23.8077 N   0  0  0  0  0  0  0  0  0  0  0  0
   -8.4901    0.4465  -24.5465 C   0  0  0  0  0  0  0  0  0  0  0  0
   -7.8593   -0.8072  -23.9880 C   0  0  0  0  0  0  0  0  0  0  0  0
   -7.8576   -0.6281  -22.4857 C   0  0  0  0  0  0  0  0  0  0  0  0
   -8.8250   -0.2441  -21.7655 O   0  0  0  0  0  0  0  0  0  0  0  0
   -6.5932   -0.9535  -21.9456 N   0  0  0  0  0  0  0  0  0  0  0  0
   -5.8718   -1.6159  -22.9904 C   0  0  0  0  0  0  0  0  0  0  0  0
   -6.4581   -1.0633  -24.3004 C   0  0  0  0  0  0  0  0  0  0  0  0
   -8.7924   -1.9479  -24.2064 C   0  0  0  0  0  0  0  0  0  0  0  0
   -8.3963   -3.2295  -24.4649 C   0  0  0  0  0  0  0  0  0  0  0  0
   -9.3164   -4.2476  -24.6097 C   0  0  0  0  0  0  0  0  0  0  0  0
   -8.8014   -5.8884  -24.9407 Cl  0  0  0  0  0  0  0  0  0  0  0  0
  -10.6846   -4.0223  -24.5007 C   0  0  0  0  0  0  0  0  0  0  0  0
  -11.0848   -2.7274  -24.2410 C   0  0  0  0  0  0  0  0  0  0  0  0
  -10.1668   -1.7079  -24.0969 C   0  0  0  0  0  0  0  0  0  0  0  0
  -10.7010   -0.3676  -23.8874 C   0  0  0  0  0  0  0  0  0  0  0  0
  -11.9320   -0.1153  -23.7770 O   0  0  0  0  0  0  0  0  0  0  0  0
   -6.1079   -0.6872  -20.6283 C   0  0  0  0  0  0  0  0  0  0  0  0
   -6.6188   -1.2946  -19.5040 C   0  0  0  0  0  0  0  0  0  0  0  0
   -6.0607   -0.9452  -18.3240 N   0  0  0  0  0  0  0  0  0  0  0  0
   -5.0661   -0.0637  -18.2067 C   0  0  0  0  0  0  0  0  0  0  0  0
   -4.5150    0.5760  -19.3004 C   0  0  0  0  0  0  0  0  0  0  0  0
   -3.4825    1.4928  -19.1911 C   0  0  0  0  0  0  0  0  0  0  0  0
   -2.9839    2.0907  -20.3289 C   0  0  0  0  0  0  0  0  0  0  0  0
   -3.5050    1.7827  -21.5691 C   0  0  0  0  0  0  0  0  0  0  0  0
   -4.5462    0.8559  -21.6617 C   0  0  0  0  0  0  0  0  0  0  0  0
   -5.0677    0.2391  -20.5374 C   0  0  0  0  0  0  0  0  0  0  0  0
   -9.9816    1.8995  -23.0607 C   0  0  0  0  0  0  0  0  0  0  0  0
  -10.1712    4.7642  -25.6534 C   0  0  0  0  0  0  0  0  0  0  0  0
   -9.5783    3.8091  -24.7154 N   0  0  0  0  0  0  0  0  0  0  0  0
  -10.4759    2.9252  -24.0483 C   0  0  0  0  0  0  0  0  0  0  0  0
  -11.7330    2.9760  -24.2685 O   0  0  0  0  0  0  0  0  0  0  0  0
   -8.6076    3.7789  -24.5533 H   0  0  0  0  0  0  0  0  0  0  0  0
   -5.6338    0.1208  -24.6294 C   0  0  0  0  0  0  0  0  0  0  0  0
   -4.8106    0.0882  -25.7793 N   0  0  0  0  0  0  0  0  0  0  0  0
   -4.0180    0.6666  -25.8600 H   0  0  0  0  0  0  0  0  0  0  0  0
   -5.1849   -0.8344  -26.8342 C   0  0  0  0  0  0  0  0  0  0  0  0
   -4.5267   -2.0432  -26.9873 C   0  0  0  0  0  0  0  0  0  0  0  0
   -4.9623   -2.8473  -28.0243 C   0  0  0  0  0  0  0  0  0  0  0  0
   -5.9645   -2.5019  -28.8523 N   0  0  0  0  0  0  0  0  0  0  0  0
   -6.5795   -1.3096  -28.6647 C   0  0  0  0  0  0  0  0  0  0  0  0
   -6.1883   -0.4806  -27.6576 N   0  0  0  0  0  0  0  0  0  0  0  0
 29 30  1  0  0  0
 30 31  1  0  0  0
 30 33  1  0  0  0
 31 32  2  0  0  0
 31 28  1  0  0  0
 28  1  1  0  0  0
  1  2  1  0  0  0
  3  2  1  0  0  0
  3  4  1  0  0  0
  3  9  1  0  0  0
  4  5  2  0  0  0
  4  6  1  0  0  0
  6 18  1  0  0  0
  6  7  1  0  0  0
 18 19  2  0  0  0
 19 20  1  0  0  0
 20 21  2  0  0  0
 21 22  1  0  0  0
 22 23  2  0  0  0
 23 24  1  0  0  0
 24 25  2  0  0  0
 25 26  1  0  0  0
 26 27  2  0  0  0
 27 18  1  0  0  0
 27 22  1  0  0  0
  7  8  1  0  0  0
  8 34  1  0  0  0
  8  3  1  0  0  0
 34 35  1  0  0  0
 35 37  1  0  0  0
 35 36  1  0  0  0
 37 38  2  0  0  0
 38 39  1  0  0  0
 39 40  2  0  0  0
 40 41  1  0  0  0
 41 42  2  0  0  0
 42 37  1  0  0  0
  9 10  2  0  0  0
 10 11  1  0  0  0
 11 12  1  0  0  0
 11 13  2  0  0  0
 13 14  1  0  0  0
 14 15  2  0  0  0
 15 16  1  0  0  0
 15  9  1  0  0  0
 16 17  2  0  0  0
 16  1  1  0  0  0
M  END
> <minimizedAffinity>
-7.38345

> <CNNscore>
0.1915011704

> <CNNaffinity>
6.4068655968

> <CNN_VS>
1.2269222736

> <CNNaffinity_variance>
0.0523046181

$$$$



 42 47  0  0  0  0  0  0  0  0999 V2000
   -7.6310   -1.3857  -21.2724 N   0  0  0  0  0  0  0  0  0  0  0  0
   -6.6070   -1.5393  -22.3099 C   0  0  0  0  0  0  0  0  0  0  0  0
   -5.8992   -0.2134  -22.4593 C   0  0  0  0  0  0  0  0  0  0  0  0
   -6.9953    0.8221  -22.5845 C   0  0  0  0  0  0  0  0  0  0  0  0
   -8.0225    0.9328  -21.8534 O   0  0  0  0  0  0  0  0  0  0  0  0
   -6.7340    1.6978  -23.6621 N   0  0  0  0  0  0  0  0  0  0  0  0
   -5.3765    1.4587  -24.0500 C   0  0  0  0  0  0  0  0  0  0  0  0
   -5.0940   -0.0009  -23.6565 C   0  0  0  0  0  0  0  0  0  0  0  0
   -5.2413    0.1239  -21.1658 C   0  0  0  0  0  0  0  0  0  0  0  0
   -4.0567    0.7953  -21.0552 C   0  0  0  0  0  0  0  0  0  0  0  0
   -3.5284    1.1161  -19.8215 C   0  0  0  0  0  0  0  0  0  0  0  0
   -2.0094    1.9772  -19.6872 Cl  0  0  0  0  0  0  0  0  0  0  0  0
   -4.1705    0.7745  -18.6359 C   0  0  0  0  0  0  0  0  0  0  0  0
   -5.3665    0.0950  -18.7477 C   0  0  0  0  0  0  0  0  0  0  0  0
   -5.8959   -0.2276  -19.9799 C   0  0  0  0  0  0  0  0  0  0  0  0
   -7.1317   -1.0012  -19.9818 C   0  0  0  0  0  0  0  0  0  0  0  0
   -7.7522   -1.3296  -18.9337 O   0  0  0  0  0  0  0  0  0  0  0  0
   -7.6253    2.6400  -24.2617 C   0  0  0  0  0  0  0  0  0  0  0  0
   -8.2152    3.6661  -23.5593 C   0  0  0  0  0  0  0  0  0  0  0  0
   -9.0360    4.4808  -24.2582 N   0  0  0  0  0  0  0  0  0  0  0  0
   -9.2908    4.3368  -25.5600 C   0  0  0  0  0  0  0  0  0  0  0  0
   -8.7270    3.3257  -26.3142 C   0  0  0  0  0  0  0  0  0  0  0  0
   -8.9838    3.1662  -27.6659 C   0  0  0  0  0  0  0  0  0  0  0  0
   -8.3834    2.1324  -28.3524 C   0  0  0  0  0  0  0  0  0  0  0  0
   -7.5327    1.2603  -27.7039 C   0  0  0  0  0  0  0  0  0  0  0  0
   -7.2844    1.4353  -26.3403 C   0  0  0  0  0  0  0  0  0  0  0  0
   -7.8725    2.4638  -25.6241 C   0  0  0  0  0  0  0  0  0  0  0  0
   -9.0365   -1.6099  -21.5122 C   0  0  0  0  0  0  0  0  0  0  0  0
   -9.1440   -4.2876  -24.3021 C   0  0  0  0  0  0  0  0  0  0  0  0
   -9.0230   -3.7216  -22.9572 N   0  0  0  0  0  0  0  0  0  0  0  0
   -9.1435   -2.3057  -22.8450 C   0  0  0  0  0  0  0  0  0  0  0  0
   -9.3469   -1.5798  -23.8761 O   0  0  0  0  0  0  0  0  0  0  0  0
   -8.8661   -4.2908  -22.1693 H   0  0  0  0  0  0  0  0  0  0  0  0
   -5.4613   -0.8045  -24.8434 C   0  0  0  0  0  0  0  0  0  0  0  0
   -4.6480   -1.9026  -25.2096 N   0  0  0  0  0  0  0  0  0  0  0  0
   -4.7220   -2.7714  -24.7525 H   0  0  0  0  0  0  0  0  0  0  0  0
   -3.7004   -1.6927  -26.2877 C   0  0  0  0  0  0  0  0  0  0  0  0
   -3.9468   -2.1897  -27.5565 C   0  0  0  0  0  0  0  0  0  0  0  0
   -2.9788   -1.9336  -28.5100 C   0  0  0  0  0  0  0  0  0  0  0  0
   -1.8533   -1.2446  -28.2493 N   0  0  0  0  0  0  0  0  0  0  0  0
   -1.6547   -0.7773  -26.9935 C   0  0  0  0  0  0  0  0  0  0  0  0
   -2.5776   -1.0025  -26.0178 N   0  0  0  0  0  0  0  0  0  0  0  0
 29 30  1  0  0  0
 30 31  1  0  0  0
 30 33  1  0  0  0
 31 32  2  0  0  0
 31 28  1  0  0  0
 28  1  1  0  0  0
  1  2  1  0  0  0
  3  2  1  0  0  0
  3  4  1  0  0  0
  3  9  1  0  0  0
  4  5  2  0  0  0
  4  6  1  0  0  0
  6 18  1  0  0  0
  6  7  1  0  0  0
 18 19  2  0  0  0
 19 20  1  0  0  0
 20 21  2  0  0  0
 21 22  1  0  0  0
 22 23  2  0  0  0
 23 24  1  0  0  0
 24 25  2  0  0  0
 25 26  1  0  0  0
 26 27  2  0  0  0
 27 18  1  0  0  0
 27 22  1  0  0  0
  7  8  1  0  0  0
  8 34  1  0  0  0
  8  3  1  0  0  0
 34 35  1  0  0  0
 35 37  1  0  0  0
 35 36  1  0  0  0
 37 38  2  0  0  0
 38 39  1  0  0  0
 39 40  2  0  0  0
 40 41  1  0  0  0
 41 42  2  0  0  0
 42 37  1  0  0  0
  9 10  2  0  0  0
 10 11  1  0  0  0
 11 12  1  0  0  0
 11 13  2  0  0  0
 13 14  1  0  0  0
 14 15  2  0  0  0
 15 16  1  0  0  0
 15  9  1  0  0  0
 16 17  2  0  0  0
 16  1  1  0  0  0
M  END
> <minimizedAffinity>
-6.92672

> <CNNscore>
0.1549093872

> <CNNaffinity>
5.9452285767

> <CNN_VS>
0.9209716916

> <CNNaffinity_variance>
0.1419671923

$$$$



 42 47  0  0  0  0  0  0  0  0999 V2000
   -7.6698   -1.6084  -21.1435 N   0  0  0  0  0  0  0  0  0  0  0  0
   -6.6648   -1.7208  -22.2046 C   0  0  0  0  0  0  0  0  0  0  0  0
   -6.0197   -0.3657  -22.3746 C   0  0  0  0  0  0  0  0  0  0  0  0
   -7.1630    0.6200  -22.4767 C   0  0  0  0  0  0  0  0  0  0  0  0
   -8.1765    0.6884  -21.7217 O   0  0  0  0  0  0  0  0  0  0  0  0
   -6.9660    1.5022  -23.5626 N   0  0  0  0  0  0  0  0  0  0  0  0
   -5.6088    1.3215  -23.9820 C   0  0  0  0  0  0  0  0  0  0  0  0
   -5.2531   -0.1227  -23.5911 C   0  0  0  0  0  0  0  0  0  0  0  0
   -5.3470    0.0051  -21.0980 C   0  0  0  0  0  0  0  0  0  0  0  0
   -4.1908    0.7284  -21.0175 C   0  0  0  0  0  0  0  0  0  0  0  0
   -3.6482    1.0769  -19.7976 C   0  0  0  0  0  0  0  0  0  0  0  0
   -2.1658    2.0044  -19.7019 Cl  0  0  0  0  0  0  0  0  0  0  0  0
   -4.2465    0.7120  -18.5961 C   0  0  0  0  0  0  0  0  0  0  0  0
   -5.4137   -0.0198  -18.6775 C   0  0  0  0  0  0  0  0  0  0  0  0
   -5.9574   -0.3702  -19.8959 C   0  0  0  0  0  0  0  0  0  0  0  0
   -7.1576   -1.1973  -19.8662 C   0  0  0  0  0  0  0  0  0  0  0  0
   -7.7381   -1.5486  -18.8028 O   0  0  0  0  0  0  0  0  0  0  0  0
   -7.9118    2.4020  -24.1436 C   0  0  0  0  0  0  0  0  0  0  0  0
   -8.8053    2.0234  -25.1195 C   0  0  0  0  0  0  0  0  0  0  0  0
   -9.6413    2.9821  -25.5757 N   0  0  0  0  0  0  0  0  0  0  0  0
   -9.6371    4.2409  -25.1336 C   0  0  0  0  0  0  0  0  0  0  0  0
   -8.7629    4.6762  -24.1563 C   0  0  0  0  0  0  0  0  0  0  0  0
   -8.7490    5.9802  -23.6894 C   0  0  0  0  0  0  0  0  0  0  0  0
   -7.8466    6.3404  -22.7114 C   0  0  0  0  0  0  0  0  0  0  0  0
   -6.9618    5.4141  -22.1979 C   0  0  0  0  0  0  0  0  0  0  0  0
   -6.9889    4.1031  -22.6798 C   0  0  0  0  0  0  0  0  0  0  0  0
   -7.8834    3.7115  -23.6612 C   0  0  0  0  0  0  0  0  0  0  0  0
   -9.0693   -1.8951  -21.3493 C   0  0  0  0  0  0  0  0  0  0  0  0
   -9.0319   -4.4542  -24.2501 C   0  0  0  0  0  0  0  0  0  0  0  0
   -8.8853   -3.9287  -22.8914 N   0  0  0  0  0  0  0  0  0  0  0  0
   -9.1839   -2.5476  -22.7032 C   0  0  0  0  0  0  0  0  0  0  0  0
   -9.5596   -1.8174  -23.6815 O   0  0  0  0  0  0  0  0  0  0  0  0
   -8.5949   -4.5009  -22.1447 H   0  0  0  0  0  0  0  0  0  0  0  0
   -5.6126   -0.9464  -24.7667 C   0  0  0  0  0  0  0  0  0  0  0  0
   -4.7028   -1.9290  -25.2227 N   0  0  0  0  0  0  0  0  0  0  0  0
   -3.7694   -1.9490  -24.9104 H   0  0  0  0  0  0  0  0  0  0  0  0
   -5.2050   -2.9058  -26.1703 C   0  0  0  0  0  0  0  0  0  0  0  0
   -6.5542   -2.9704  -26.4759 C   0  0  0  0  0  0  0  0  0  0  0  0
   -6.9262   -3.9379  -27.3908 C   0  0  0  0  0  0  0  0  0  0  0  0
   -6.0508   -4.7813  -27.9669 N   0  0  0  0  0  0  0  0  0  0  0  0
   -4.7407   -4.6813  -27.6376 C   0  0  0  0  0  0  0  0  0  0  0  0
   -4.3223   -3.7451  -26.7414 N   0  0  0  0  0  0  0  0  0  0  0  0
 29 30  1  0  0  0
 30 31  1  0  0  0
 30 33  1  0  0  0
 31 32  2  0  0  0
 31 28  1  0  0  0
 28  1  1  0  0  0
  1  2  1  0  0  0
  3  2  1  0  0  0
  3  4  1  0  0  0
  3  9  1  0  0  0
  4  5  2  0  0  0
  4  6  1  0  0  0
  6 18  1  0  0  0
  6  7  1  0  0  0
 18 19  2  0  0  0
 19 20  1  0  0  0
 20 21  2  0  0  0
 21 22  1  0  0  0
 22 23  2  0  0  0
 23 24  1  0  0  0
 24 25  2  0  0  0
 25 26  1  0  0  0
 26 27  2  0  0  0
 27 18  1  0  0  0
 27 22  1  0  0  0
  7  8  1  0  0  0
  8 34  1  0  0  0
  8  3  1  0  0  0
 34 35  1  0  0  0
 35 37  1  0  0  0
 35 36  1  0  0  0
 37 38  2  0  0  0
 38 39  1  0  0  0
 39 40  2  0  0  0
 40 41  1  0  0  0
 41 42  2  0  0  0
 42 37  1  0  0  0
  9 10  2  0  0  0
 10 11  1  0  0  0
 11 12  1  0  0  0
 11 13  2  0  0  0
 13 14  1  0  0  0
 14 15  2  0  0  0
 15 16  1  0  0  0
 15  9  1  0  0  0
 16 17  2  0  0  0
 16  1  1  0  0  0
M  END
> <minimizedAffinity>
-7.89444

> <CNNscore>
0.1478208452

> <CNNaffinity>
6.0447072983

> <CNN_VS>
0.8935337663

> <CNNaffinity_variance>
0.1741216183

$$$$



 42 47  0  0  0  0  0  0  0  0999 V2000
   -6.8028   -0.6141  -21.9018 N   0  0  0  0  0  0  0  0  0  0  0  0
   -6.7261   -0.5714  -23.3649 C   0  0  0  0  0  0  0  0  0  0  0  0
   -7.0148    0.8457  -23.8009 C   0  0  0  0  0  0  0  0  0  0  0  0
   -8.2757    1.2487  -23.0683 C   0  0  0  0  0  0  0  0  0  0  0  0
   -8.5220    1.0908  -21.8369 O   0  0  0  0  0  0  0  0  0  0  0  0
   -9.1964    1.8522  -23.9540 N   0  0  0  0  0  0  0  0  0  0  0  0
   -8.4711    2.1248  -25.1582 C   0  0  0  0  0  0  0  0  0  0  0  0
   -7.3492    1.0738  -25.2019 C   0  0  0  0  0  0  0  0  0  0  0  0
   -5.9719    1.7422  -23.2278 C   0  0  0  0  0  0  0  0  0  0  0  0
   -5.4875    2.8578  -23.8500 C   0  0  0  0  0  0  0  0  0  0  0  0
   -4.5544    3.6700  -23.2386 C   0  0  0  0  0  0  0  0  0  0  0  0
   -3.9379    5.0987  -24.0421 Cl  0  0  0  0  0  0  0  0  0  0  0  0
   -4.0629    3.3961  -21.9666 C   0  0  0  0  0  0  0  0  0  0  0  0
   -4.5512    2.2684  -21.3387 C   0  0  0  0  0  0  0  0  0  0  0  0
   -5.4833    1.4545  -21.9484 C   0  0  0  0  0  0  0  0  0  0  0  0
   -5.8836    0.2554  -21.2221 C   0  0  0  0  0  0  0  0  0  0  0  0
   -5.4694   -0.0322  -20.0658 O   0  0  0  0  0  0  0  0  0  0  0  0
  -10.5758    2.1427  -23.7204 C   0  0  0  0  0  0  0  0  0  0  0  0
  -11.0665    3.4250  -23.6260 C   0  0  0  0  0  0  0  0  0  0  0  0
  -12.3936    3.5474  -23.4032 N   0  0  0  0  0  0  0  0  0  0  0  0
  -13.2225    2.5098  -23.2748 C   0  0  0  0  0  0  0  0  0  0  0  0
  -12.7853    1.2020  -23.3605 C   0  0  0  0  0  0  0  0  0  0  0  0
  -13.6361    0.1169  -23.2289 C   0  0  0  0  0  0  0  0  0  0  0  0
  -13.1258   -1.1601  -23.3266 C   0  0  0  0  0  0  0  0  0  0  0  0
  -11.7796   -1.3621  -23.5534 C   0  0  0  0  0  0  0  0  0  0  0  0
  -10.9352   -0.2568  -23.6837 C   0  0  0  0  0  0  0  0  0  0  0  0
  -11.4181    1.0373  -23.5903 C   0  0  0  0  0  0  0  0  0  0  0  0
   -7.7203   -1.4669  -21.1848 C   0  0  0  0  0  0  0  0  0  0  0  0
   -6.8835   -4.8437  -22.8765 C   0  0  0  0  0  0  0  0  0  0  0  0
   -6.6807   -3.6171  -22.1032 N   0  0  0  0  0  0  0  0  0  0  0  0
   -7.8084   -2.7571  -21.9591 C   0  0  0  0  0  0  0  0  0  0  0  0
   -8.9337   -3.0555  -22.4846 O   0  0  0  0  0  0  0  0  0  0  0  0
   -5.8087   -3.3972  -21.7025 H   0  0  0  0  0  0  0  0  0  0  0  0
   -7.9202   -0.0782  -25.9344 C   0  0  0  0  0  0  0  0  0  0  0  0
   -7.0717   -0.8658  -26.7473 N   0  0  0  0  0  0  0  0  0  0  0  0
   -6.3026   -0.4724  -27.2194 H   0  0  0  0  0  0  0  0  0  0  0  0
   -7.3840   -2.2783  -26.8549 C   0  0  0  0  0  0  0  0  0  0  0  0
   -6.4289   -3.2404  -26.5723 C   0  0  0  0  0  0  0  0  0  0  0  0
   -6.8311   -4.5564  -26.7069 C   0  0  0  0  0  0  0  0  0  0  0  0
   -8.0712   -4.9116  -27.0883 N   0  0  0  0  0  0  0  0  0  0  0  0
   -8.9726   -3.9361  -27.3544 C   0  0  0  0  0  0  0  0  0  0  0  0
   -8.6267   -2.6242  -27.2371 N   0  0  0  0  0  0  0  0  0  0  0  0
 29 30  1  0  0  0
 30 31  1  0  0  0
 30 33  1  0  0  0
 31 32  2  0  0  0
 31 28  1  0  0  0
 28  1  1  0  0  0
  1  2  1  0  0  0
  3  2  1  0  0  0
  3  4  1  0  0  0
  3  9  1  0  0  0
  4  5  2  0  0  0
  4  6  1  0  0  0
  6 18  1  0  0  0
  6  7  1  0  0  0
 18 19  2  0  0  0
 19 20  1  0  0  0
 20 21  2  0  0  0
 21 22  1  0  0  0
 22 23  2  0  0  0
 23 24  1  0  0  0
 24 25  2  0  0  0
 25 26  1  0  0  0
 26 27  2  0  0  0
 27 18  1  0  0  0
 27 22  1  0  0  0
  7  8  1  0  0  0
  8 34  1  0  0  0
  8  3  1  0  0  0
 34 35  1  0  0  0
 35 37  1  0  0  0
 35 36  1  0  0  0
 37 38  2  0  0  0
 38 39  1  0  0  0
 39 40  2  0  0  0
 40 41  1  0  0  0
 41 42  2  0  0  0
 42 37  1  0  0  0
  9 10  2  0  0  0
 10 11  1  0  0  0
 11 12  1  0  0  0
 11 13  2  0  0  0
 13 14  1  0  0  0
 14 15  2  0  0  0
 15 16  1  0  0  0
 15  9  1  0  0  0
 16 17  2  0  0  0
 16  1  1  0  0  0
M  END
> <minimizedAffinity>
-7.38445

> <CNNscore>
0.1187901869

> <CNNaffinity>
6.0400786400

> <CNN_VS>
0.7175020576

> <CNNaffinity_variance>
0.2502110898

$$$$



 42 47  0  0  0  0  0  0  0  0999 V2000
  -10.2640    0.3389  -23.5075 N   0  0  0  0  0  0  0  0  0  0  0  0
   -9.0620    0.3946  -24.3446 C   0  0  0  0  0  0  0  0  0  0  0  0
   -8.2115   -0.8082  -24.0110 C   0  0  0  0  0  0  0  0  0  0  0  0
   -8.1168   -0.8345  -22.5013 C   0  0  0  0  0  0  0  0  0  0  0  0
   -9.0698   -0.7070  -21.6782 O   0  0  0  0  0  0  0  0  0  0  0  0
   -6.7794   -1.0272  -22.0883 N   0  0  0  0  0  0  0  0  0  0  0  0
   -6.0538   -1.4220  -23.2580 C   0  0  0  0  0  0  0  0  0  0  0  0
   -6.8171   -0.7973  -24.4379 C   0  0  0  0  0  0  0  0  0  0  0  0
   -8.9811   -2.0413  -24.3379 C   0  0  0  0  0  0  0  0  0  0  0  0
   -8.4227   -3.1986  -24.8017 C   0  0  0  0  0  0  0  0  0  0  0  0
   -9.1917   -4.3195  -25.0388 C   0  0  0  0  0  0  0  0  0  0  0  0
   -8.4690   -5.7998  -25.6333 Cl  0  0  0  0  0  0  0  0  0  0  0  0
  -10.5651   -4.3281  -24.8193 C   0  0  0  0  0  0  0  0  0  0  0  0
  -11.1295   -3.1586  -24.3520 C   0  0  0  0  0  0  0  0  0  0  0  0
  -10.3628   -2.0366  -24.1152 C   0  0  0  0  0  0  0  0  0  0  0  0
  -11.0698   -0.8369  -23.6832 C   0  0  0  0  0  0  0  0  0  0  0  0
  -12.3118   -0.7978  -23.4663 O   0  0  0  0  0  0  0  0  0  0  0  0
   -6.2354   -0.8675  -20.7766 C   0  0  0  0  0  0  0  0  0  0  0  0
   -6.6240   -1.6383  -19.7048 C   0  0  0  0  0  0  0  0  0  0  0  0
   -6.0229   -1.3747  -18.5236 N   0  0  0  0  0  0  0  0  0  0  0  0
   -5.0974   -0.4280  -18.3579 C   0  0  0  0  0  0  0  0  0  0  0  0
   -4.6696    0.3748  -19.3978 C   0  0  0  0  0  0  0  0  0  0  0  0
   -3.7097    1.3606  -19.2381 C   0  0  0  0  0  0  0  0  0  0  0  0
   -3.3335    2.1224  -20.3237 C   0  0  0  0  0  0  0  0  0  0  0  0
   -3.9048    1.9096  -21.5618 C   0  0  0  0  0  0  0  0  0  0  0  0
   -4.8715    0.9114  -21.7058 C   0  0  0  0  0  0  0  0  0  0  0  0
   -5.2698    0.1304  -20.6344 C   0  0  0  0  0  0  0  0  0  0  0  0
  -10.6281    1.3831  -22.5800 C   0  0  0  0  0  0  0  0  0  0  0  0
  -13.5763    3.3010  -24.1908 C   0  0  0  0  0  0  0  0  0  0  0  0
  -12.8764    2.2774  -23.4123 N   0  0  0  0  0  0  0  0  0  0  0  0
  -11.4559    2.3791  -23.3512 C   0  0  0  0  0  0  0  0  0  0  0  0
  -10.8382    3.3223  -23.9514 O   0  0  0  0  0  0  0  0  0  0  0  0
  -13.3628    1.5547  -22.9537 H   0  0  0  0  0  0  0  0  0  0  0  0
   -6.2046    0.5346  -24.6392 C   0  0  0  0  0  0  0  0  0  0  0  0
   -5.8835    0.9531  -25.9518 N   0  0  0  0  0  0  0  0  0  0  0  0
   -5.0856    0.6138  -26.4182 H   0  0  0  0  0  0  0  0  0  0  0  0
   -6.7807    1.9038  -26.5806 C   0  0  0  0  0  0  0  0  0  0  0  0
   -7.6014    1.5202  -27.6280 C   0  0  0  0  0  0  0  0  0  0  0  0
   -8.4171    2.5043  -28.1551 C   0  0  0  0  0  0  0  0  0  0  0  0
   -8.4341    3.7691  -27.6976 N   0  0  0  0  0  0  0  0  0  0  0  0
   -7.6141    4.0989  -26.6711 C   0  0  0  0  0  0  0  0  0  0  0  0
   -6.7910    3.1665  -26.1165 N   0  0  0  0  0  0  0  0  0  0  0  0
 29 30  1  0  0  0
 30 31  1  0  0  0
 30 33  1  0  0  0
 31 32  2  0  0  0
 31 28  1  0  0  0
 28  1  1  0  0  0
  1  2  1  0  0  0
  3  2  1  0  0  0
  3  4  1  0  0  0
  3  9  1  0  0  0
  4  5  2  0  0  0
  4  6  1  0  0  0
  6 18  1  0  0  0
  6  7  1  0  0  0
 18 19  2  0  0  0
 19 20  1  0  0  0
 20 21  2  0  0  0
 21 22  1  0  0  0
 22 23  2  0  0  0
 23 24  1  0  0  0
 24 25  2  0  0  0
 25 26  1  0  0  0
 26 27  2  0  0  0
 27 18  1  0  0  0
 27 22  1  0  0  0
  7  8  1  0  0  0
  8 34  1  0  0  0
  8  3  1  0  0  0
 34 35  1  0  0  0
 35 37  1  0  0  0
 35 36  1  0  0  0
 37 38  2  0  0  0
 38 39  1  0  0  0
 39 40  2  0  0  0
 40 41  1  0  0  0
 41 42  2  0  0  0
 42 37  1  0  0  0
  9 10  2  0  0  0
 10 11  1  0  0  0
 11 12  1  0  0  0
 11 13  2  0  0  0
 13 14  1  0  0  0
 14 15  2  0  0  0
 15 16  1  0  0  0
 15  9  1  0  0  0
 16 17  2  0  0  0
 16  1  1  0  0  0
M  END
> <minimizedAffinity>
-7.65774

> <CNNscore>
0.1125278249

> <CNNaffinity>
6.3293309212

> <CNN_VS>
0.7122258544

> <CNNaffinity_variance>
0.1417856514

$$$$



 42 47  0  0  0  0  0  0  0  0999 V2000
   -7.2951   -2.3857  -26.4837 N   0  0  0  0  0  0  0  0  0  0  0  0
   -6.7350   -1.8869  -25.2243 C   0  0  0  0  0  0  0  0  0  0  0  0
   -7.3923   -2.6446  -24.0950 C   0  0  0  0  0  0  0  0  0  0  0  0
   -8.8782   -2.5826  -24.3730 C   0  0  0  0  0  0  0  0  0  0  0  0
   -9.4550   -2.8154  -25.4753 O   0  0  0  0  0  0  0  0  0  0  0  0
   -9.5892   -2.2180  -23.2077 N   0  0  0  0  0  0  0  0  0  0  0  0
   -8.6617   -2.3317  -22.1227 C   0  0  0  0  0  0  0  0  0  0  0  0
   -7.2764   -2.0977  -22.7481 C   0  0  0  0  0  0  0  0  0  0  0  0
   -7.0664   -4.0913  -24.2387 C   0  0  0  0  0  0  0  0  0  0  0  0
   -6.8830   -4.9482  -23.1908 C   0  0  0  0  0  0  0  0  0  0  0  0
   -6.6300   -6.2887  -23.3983 C   0  0  0  0  0  0  0  0  0  0  0  0
   -6.3960   -7.3816  -22.0500 Cl  0  0  0  0  0  0  0  0  0  0  0  0
   -6.5493   -6.8320  -24.6762 C   0  0  0  0  0  0  0  0  0  0  0  0
   -6.7333   -5.9660  -25.7348 C   0  0  0  0  0  0  0  0  0  0  0  0
   -6.9853   -4.6254  -25.5297 C   0  0  0  0  0  0  0  0  0  0  0  0
   -7.1007   -3.7892  -26.7185 C   0  0  0  0  0  0  0  0  0  0  0  0
   -7.0396   -4.2368  -27.8963 O   0  0  0  0  0  0  0  0  0  0  0  0
  -10.9561   -1.8142  -23.1053 C   0  0  0  0  0  0  0  0  0  0  0  0
  -11.9698   -2.6793  -22.7619 C   0  0  0  0  0  0  0  0  0  0  0  0
  -13.2145   -2.1564  -22.7039 N   0  0  0  0  0  0  0  0  0  0  0  0
  -13.4933   -0.8766  -22.9577 C   0  0  0  0  0  0  0  0  0  0  0  0
  -12.5161    0.0357  -23.3068 C   0  0  0  0  0  0  0  0  0  0  0  0
  -12.7933    1.3665  -23.5726 C   0  0  0  0  0  0  0  0  0  0  0  0
  -11.7644    2.2178  -23.9149 C   0  0  0  0  0  0  0  0  0  0  0  0
  -10.4670    1.7539  -23.9940 C   0  0  0  0  0  0  0  0  0  0  0  0
  -10.2046    0.4088  -23.7229 C   0  0  0  0  0  0  0  0  0  0  0  0
  -11.2166   -0.4700  -23.3766 C   0  0  0  0  0  0  0  0  0  0  0  0
   -7.9836   -1.5408  -27.4300 C   0  0  0  0  0  0  0  0  0  0  0  0
   -5.7508    1.6180  -27.4637 C   0  0  0  0  0  0  0  0  0  0  0  0
   -6.1638    0.2356  -27.7127 N   0  0  0  0  0  0  0  0  0  0  0  0
   -7.4509   -0.1447  -27.2325 C   0  0  0  0  0  0  0  0  0  0  0  0
   -8.1959    0.6907  -26.6172 O   0  0  0  0  0  0  0  0  0  0  0  0
   -5.5812   -0.3999  -28.1882 H   0  0  0  0  0  0  0  0  0  0  0  0
   -7.0445   -0.6394  -22.6516 C   0  0  0  0  0  0  0  0  0  0  0  0
   -7.3983    0.0363  -21.4602 N   0  0  0  0  0  0  0  0  0  0  0  0
   -8.2988    0.4128  -21.3313 H   0  0  0  0  0  0  0  0  0  0  0  0
   -6.3766    0.1504  -20.4367 C   0  0  0  0  0  0  0  0  0  0  0  0
   -6.5123   -0.5008  -19.2221 C   0  0  0  0  0  0  0  0  0  0  0  0
   -5.4814   -0.3248  -18.3177 C   0  0  0  0  0  0  0  0  0  0  0  0
   -4.3975    0.4291  -18.5750 N   0  0  0  0  0  0  0  0  0  0  0  0
   -4.3077    1.0476  -19.7768 C   0  0  0  0  0  0  0  0  0  0  0  0
   -5.2962    0.9065  -20.7028 N   0  0  0  0  0  0  0  0  0  0  0  0
 29 30  1  0  0  0
 30 31  1  0  0  0
 30 33  1  0  0  0
 31 32  2  0  0  0
 31 28  1  0  0  0
 28  1  1  0  0  0
  1  2  1  0  0  0
  3  2  1  0  0  0
  3  4  1  0  0  0
  3  9  1  0  0  0
  4  5  2  0  0  0
  4  6  1  0  0  0
  6 18  1  0  0  0
  6  7  1  0  0  0
 18 19  2  0  0  0
 19 20  1  0  0  0
 20 21  2  0  0  0
 21 22  1  0  0  0
 22 23  2  0  0  0
 23 24  1  0  0  0
 24 25  2  0  0  0
 25 26  1  0  0  0
 26 27  2  0  0  0
 27 18  1  0  0  0
 27 22  1  0  0  0
  7  8  1  0  0  0
  8 34  1  0  0  0
  8  3  1  0  0  0
 34 35  1  0  0  0
 35 37  1  0  0  0
 35 36  1  0  0  0
 37 38  2  0  0  0
 38 39  1  0  0  0
 39 40  2  0  0  0
 40 41  1  0  0  0
 41 42  2  0  0  0
 42 37  1  0  0  0
  9 10  2  0  0  0
 10 11  1  0  0  0
 11 12  1  0  0  0
 11 13  2  0  0  0
 13 14  1  0  0  0
 14 15  2  0  0  0
 15 16  1  0  0  0
 15  9  1  0  0  0
 16 17  2  0  0  0
 16  1  1  0  0  0
M  END
> <minimizedAffinity>
-8.67758

> <CNNscore>
0.1111459509

> <CNNaffinity>
6.0748252869

> <CNN_VS>
0.6751922369

> <CNNaffinity_variance>
0.8138204813

$$$$



 42 47  0  0  0  0  0  0  0  0999 V2000
   -6.6564   -0.2020  -20.6182 N   0  0  0  0  0  0  0  0  0  0  0  0
   -7.1662    0.9004  -21.4127 C   0  0  0  0  0  0  0  0  0  0  0  0
   -6.1340    1.6006  -22.2253 C   0  0  0  0  0  0  0  0  0  0  0  0
   -6.7695    2.8869  -22.6700 C   0  0  0  0  0  0  0  0  0  0  0  0
   -6.8114    3.9726  -21.9942 O   0  0  0  0  0  0  0  0  0  0  0  0
   -7.3262    2.7050  -23.9811 N   0  0  0  0  0  0  0  0  0  0  0  0
   -7.1545    1.2771  -24.2750 C   0  0  0  0  0  0  0  0  0  0  0  0
   -5.8641    1.0211  -23.5798 C   0  0  0  0  0  0  0  0  0  0  0  0
   -4.9287    1.8177  -21.4207 C   0  0  0  0  0  0  0  0  0  0  0  0
   -4.0604    2.8315  -21.8224 C   0  0  0  0  0  0  0  0  0  0  0  0
   -2.9082    3.0888  -21.1102 C   0  0  0  0  0  0  0  0  0  0  0  0
   -1.8681    4.3750  -21.6736 Cl  0  0  0  0  0  0  0  0  0  0  0  0
   -2.5944    2.3382  -19.9770 C   0  0  0  0  0  0  0  0  0  0  0  0
   -3.4365    1.3362  -19.5658 C   0  0  0  0  0  0  0  0  0  0  0  0
   -4.5906    1.0935  -20.2964 C   0  0  0  0  0  0  0  0  0  0  0  0
   -5.4815    0.0269  -19.8539 C   0  0  0  0  0  0  0  0  0  0  0  0
   -5.2577   -0.6870  -18.8414 O   0  0  0  0  0  0  0  0  0  0  0  0
   -7.9205    3.6902  -24.8256 C   0  0  0  0  0  0  0  0  0  0  0  0
   -9.3046    3.8190  -24.8428 C   0  0  0  0  0  0  0  0  0  0  0  0
   -9.9176    4.7306  -25.6199 N   0  0  0  0  0  0  0  0  0  0  0  0
   -9.1950    5.5398  -26.4003 C   0  0  0  0  0  0  0  0  0  0  0  0
   -7.8108    5.4725  -26.4386 C   0  0  0  0  0  0  0  0  0  0  0  0
   -7.0639    6.3145  -27.2502 C   0  0  0  0  0  0  0  0  0  0  0  0
   -5.6908    6.2156  -27.2592 C   0  0  0  0  0  0  0  0  0  0  0  0
   -5.1029    5.2687  -26.4485 C   0  0  0  0  0  0  0  0  0  0  0  0
   -5.7867    4.4155  -25.6313 C   0  0  0  0  0  0  0  0  0  0  0  0
   -7.1765    4.5263  -25.6317 C   0  0  0  0  0  0  0  0  0  0  0  0
   -7.3310   -1.4718  -20.6186 C   0  0  0  0  0  0  0  0  0  0  0  0
   -6.5785   -4.0246  -23.4175 C   0  0  0  0  0  0  0  0  0  0  0  0
   -7.3203   -3.0401  -22.6367 N   0  0  0  0  0  0  0  0  0  0  0  0
   -6.6878   -2.4815  -21.4972 C   0  0  0  0  0  0  0  0  0  0  0  0
   -5.5287   -2.8669  -21.2285 O   0  0  0  0  0  0  0  0  0  0  0  0
   -8.2322   -2.7718  -22.8932 H   0  0  0  0  0  0  0  0  0  0  0  0
   -5.3417   -0.3591  -23.6343 C   0  0  0  0  0  0  0  0  0  0  0  0
   -5.6553   -0.8928  -24.9496 N   0  0  0  0  0  0  0  0  0  0  0  0
   -6.5632   -0.8307  -25.3254 H   0  0  0  0  0  0  0  0  0  0  0  0
   -4.6012   -1.5047  -25.6664 C   0  0  0  0  0  0  0  0  0  0  0  0
   -3.3467   -0.9342  -25.9000 C   0  0  0  0  0  0  0  0  0  0  0  0
   -2.6252   -1.8131  -26.6101 N   0  0  0  0  0  0  0  0  0  0  0  0
   -3.3281   -2.9101  -26.8498 N   0  0  0  0  0  0  0  0  0  0  0  0
   -2.9638   -4.1090  -27.5685 C   0  0  0  0  0  0  0  0  0  0  0  0
   -4.5360   -2.7385  -26.2810 C   0  0  0  0  0  0  0  0  0  0  0  0
 29 30  1  0  0  0
 30 31  1  0  0  0
 30 33  1  0  0  0
 31 32  2  0  0  0
 31 28  1  0  0  0
 28  1  1  0  0  0
  1  2  1  0  0  0
  3  2  1  0  0  0
  3  4  1  0  0  0
  3  9  1  0  0  0
  4  5  2  0  0  0
  4  6  1  0  0  0
  6 18  1  0  0  0
  6  7  1  0  0  0
 18 19  2  0  0  0
 19 20  1  0  0  0
 20 21  2  0  0  0
 21 22  1  0  0  0
 22 23  2  0  0  0
 23 24  1  0  0  0
 24 25  2  0  0  0
 25 26  1  0  0  0
 26 27  2  0  0  0
 27 18  1  0  0  0
 27 22  1  0  0  0
  7  8  1  0  0  0
  8 34  1  0  0  0
  8  3  1  0  0  0
 34 35  1  0  0  0
 35 37  1  0  0  0
 35 36  1  0  0  0
 37 38  1  0  0  0
 38 39  2  0  0  0
 39 40  1  0  0  0
 40 41  1  0  0  0
 40 42  1  0  0  0
 42 37  2  0  0  0
  9 10  2  0  0  0
 10 11  1  0  0  0
 11 12  1  0  0  0
 11 13  2  0  0  0
 13 14  1  0  0  0
 14 15  2  0  0  0
 15 16  1  0  0  0
 15  9  1  0  0  0
 16 17  2  0  0  0
 16  1  1  0  0  0
M  END
> <minimizedAffinity>
-6.24034

> <CNNscore>
0.2172836214

> <CNNaffinity>
6.0429739952

> <CNN_VS>
1.3130393028

> <CNNaffinity_variance>
0.1016369686

$$$$



 42 47  0  0  0  0  0  0  0  0999 V2000
   -9.0314   -3.0952  -25.0401 N   0  0  0  0  0  0  0  0  0  0  0  0
   -8.1688   -2.7839  -23.9151 C   0  0  0  0  0  0  0  0  0  0  0  0
   -7.6159   -1.4018  -23.9293 C   0  0  0  0  0  0  0  0  0  0  0  0
   -6.5019   -1.3987  -22.9217 C   0  0  0  0  0  0  0  0  0  0  0  0
   -5.2949   -1.7624  -23.1409 O   0  0  0  0  0  0  0  0  0  0  0  0
   -7.0081   -0.9204  -21.6660 N   0  0  0  0  0  0  0  0  0  0  0  0
   -8.4536   -0.7665  -21.8697 C   0  0  0  0  0  0  0  0  0  0  0  0
   -8.4727   -0.3482  -23.2975 C   0  0  0  0  0  0  0  0  0  0  0  0
   -7.1549   -1.0630  -25.2783 C   0  0  0  0  0  0  0  0  0  0  0  0
   -6.2126   -0.0429  -25.3994 C   0  0  0  0  0  0  0  0  0  0  0  0
   -5.7365    0.3261  -26.6397 C   0  0  0  0  0  0  0  0  0  0  0  0
   -4.5567    1.6129  -26.7135 Cl  0  0  0  0  0  0  0  0  0  0  0  0
   -6.1907   -0.3162  -27.7917 C   0  0  0  0  0  0  0  0  0  0  0  0
   -7.1180   -1.3226  -27.6929 C   0  0  0  0  0  0  0  0  0  0  0  0
   -7.5842   -1.6786  -26.4357 C   0  0  0  0  0  0  0  0  0  0  0  0
   -8.5697   -2.7492  -26.3378 C   0  0  0  0  0  0  0  0  0  0  0  0
   -9.0209   -3.3688  -27.3365 O   0  0  0  0  0  0  0  0  0  0  0  0
   -6.2756   -0.6493  -20.4714 C   0  0  0  0  0  0  0  0  0  0  0  0
   -6.5759   -1.3649  -19.3179 C   0  0  0  0  0  0  0  0  0  0  0  0
   -5.9172   -1.1503  -18.1644 N   0  0  0  0  0  0  0  0  0  0  0  0
   -4.9485   -0.2314  -18.1073 C   0  0  0  0  0  0  0  0  0  0  0  0
   -4.5912    0.5226  -19.2145 C   0  0  0  0  0  0  0  0  0  0  0  0
   -3.5848    1.4757  -19.1512 C   0  0  0  0  0  0  0  0  0  0  0  0
   -3.2601    2.2036  -20.2738 C   0  0  0  0  0  0  0  0  0  0  0  0
   -3.9591    1.9527  -21.4348 C   0  0  0  0  0  0  0  0  0  0  0  0
   -4.9567    1.0288  -21.5546 C   0  0  0  0  0  0  0  0  0  0  0  0
   -5.2755    0.2986  -20.4104 C   0  0  0  0  0  0  0  0  0  0  0  0
  -10.3033   -3.7311  -24.8271 C   0  0  0  0  0  0  0  0  0  0  0  0
  -12.7357   -2.1868  -22.2550 C   0  0  0  0  0  0  0  0  0  0  0  0
  -11.7676   -3.1187  -22.8238 N   0  0  0  0  0  0  0  0  0  0  0  0
  -11.2884   -2.8629  -24.1336 C   0  0  0  0  0  0  0  0  0  0  0  0
  -11.7252   -1.8511  -24.7249 O   0  0  0  0  0  0  0  0  0  0  0  0
  -11.4565   -3.9013  -22.3137 H   0  0  0  0  0  0  0  0  0  0  0  0
   -9.7979   -0.1013  -23.9005 C   0  0  0  0  0  0  0  0  0  0  0  0
  -10.6147    0.5667  -22.9006 N   0  0  0  0  0  0  0  0  0  0  0  0
  -10.5301    0.3535  -21.9432 H   0  0  0  0  0  0  0  0  0  0  0  0
  -11.5360    1.5354  -23.3614 C   0  0  0  0  0  0  0  0  0  0  0  0
  -12.9274    1.4084  -23.3223 C   0  0  0  0  0  0  0  0  0  0  0  0
  -13.4534    2.5248  -23.8459 N   0  0  0  0  0  0  0  0  0  0  0  0
  -12.4971    3.3620  -24.2193 N   0  0  0  0  0  0  0  0  0  0  0  0
  -12.5911    4.6698  -24.8253 C   0  0  0  0  0  0  0  0  0  0  0  0
  -11.3211    2.7739  -23.9309 C   0  0  0  0  0  0  0  0  0  0  0  0
 29 30  1  0  0  0
 30 31  1  0  0  0
 30 33  1  0  0  0
 31 32  2  0  0  0
 31 28  1  0  0  0
 28  1  1  0  0  0
  1  2  1  0  0  0
  3  2  1  0  0  0
  3  4  1  0  0  0
  3  9  1  0  0  0
  4  5  2  0  0  0
  4  6  1  0  0  0
  6 18  1  0  0  0
  6  7  1  0  0  0
 18 19  2  0  0  0
 19 20  1  0  0  0
 20 21  2  0  0  0
 21 22  1  0  0  0
 22 23  2  0  0  0
 23 24  1  0  0  0
 24 25  2  0  0  0
 25 26  1  0  0  0
 26 27  2  0  0  0
 27 18  1  0  0  0
 27 22  1  0  0  0
  7  8  1  0  0  0
  8 34  1  0  0  0
  8  3  1  0  0  0
 34 35  1  0  0  0
 35 37  1  0  0  0
 35 36  1  0  0  0
 37 38  1  0  0  0
 38 39  2  0  0  0
 39 40  1  0  0  0
 40 41  1  0  0  0
 40 42  1  0  0  0
 42 37  2  0  0  0
  9 10  2  0  0  0
 10 11  1  0  0  0
 11 12  1  0  0  0
 11 13  2  0  0  0
 13 14  1  0  0  0
 14 15  2  0  0  0
 15 16  1  0  0  0
 15  9  1  0  0  0
 16 17  2  0  0  0
 16  1  1  0  0  0
M  END
> <minimizedAffinity>
-8.39394

> <CNNscore>
0.1354246289

> <CNNaffinity>
6.2193565369

> <CNN_VS>
0.8422540426

> <CNNaffinity_variance>
0.7278324962

$$$$



 42 47  0  0  0  0  0  0  0  0999 V2000
  -10.5198   -2.9760  -23.2986 N   0  0  0  0  0  0  0  0  0  0  0  0
   -9.4900   -2.6127  -22.3424 C   0  0  0  0  0  0  0  0  0  0  0  0
   -8.2907   -1.9700  -22.9462 C   0  0  0  0  0  0  0  0  0  0  0  0
   -7.2306   -2.0061  -21.8826 C   0  0  0  0  0  0  0  0  0  0  0  0
   -6.4447   -2.9871  -21.6437 O   0  0  0  0  0  0  0  0  0  0  0  0
   -7.2384   -0.7585  -21.1717 N   0  0  0  0  0  0  0  0  0  0  0  0
   -8.3895   -0.0208  -21.7061 C   0  0  0  0  0  0  0  0  0  0  0  0
   -8.3627   -0.4840  -23.1197 C   0  0  0  0  0  0  0  0  0  0  0  0
   -7.8954   -2.6916  -24.1587 C   0  0  0  0  0  0  0  0  0  0  0  0
   -6.5780   -2.5499  -24.5917 C   0  0  0  0  0  0  0  0  0  0  0  0
   -6.1402   -3.2013  -25.7253 C   0  0  0  0  0  0  0  0  0  0  0  0
   -4.4757   -2.9760  -26.2070 Cl  0  0  0  0  0  0  0  0  0  0  0  0
   -7.0093   -4.0120  -26.4556 C   0  0  0  0  0  0  0  0  0  0  0  0
   -8.3097   -4.1641  -26.0454 C   0  0  0  0  0  0  0  0  0  0  0  0
   -8.7301   -3.5000  -24.9022 C   0  0  0  0  0  0  0  0  0  0  0  0
  -10.1136   -3.6659  -24.4716 C   0  0  0  0  0  0  0  0  0  0  0  0
  -10.9485   -4.3818  -25.0842 O   0  0  0  0  0  0  0  0  0  0  0  0
   -6.3300   -0.3188  -20.1625 C   0  0  0  0  0  0  0  0  0  0  0  0
   -6.5899   -0.6378  -18.8345 C   0  0  0  0  0  0  0  0  0  0  0  0
   -5.7676   -0.2491  -17.8429 N   0  0  0  0  0  0  0  0  0  0  0  0
   -4.6706    0.4611  -18.1222 C   0  0  0  0  0  0  0  0  0  0  0  0
   -4.3431    0.8183  -19.4212 C   0  0  0  0  0  0  0  0  0  0  0  0
   -3.2031    1.5558  -19.7072 C   0  0  0  0  0  0  0  0  0  0  0  0
   -2.9136    1.8901  -21.0109 C   0  0  0  0  0  0  0  0  0  0  0  0
   -3.7818    1.4723  -21.9964 C   0  0  0  0  0  0  0  0  0  0  0  0
   -4.9159    0.7461  -21.7733 C   0  0  0  0  0  0  0  0  0  0  0  0
   -5.1972    0.4142  -20.4487 C   0  0  0  0  0  0  0  0  0  0  0  0
  -11.8954   -2.6404  -23.0485 C   0  0  0  0  0  0  0  0  0  0  0  0
  -12.9613    1.0489  -23.4604 C   0  0  0  0  0  0  0  0  0  0  0  0
  -12.5848   -0.1927  -22.7926 N   0  0  0  0  0  0  0  0  0  0  0  0
  -12.2905   -1.3199  -23.6009 C   0  0  0  0  0  0  0  0  0  0  0  0
  -12.3713   -1.1825  -24.8414 O   0  0  0  0  0  0  0  0  0  0  0  0
  -12.5366   -0.2462  -21.8107 H   0  0  0  0  0  0  0  0  0  0  0  0
   -9.4141    0.0435  -24.0125 C   0  0  0  0  0  0  0  0  0  0  0  0
   -8.8352    1.1436  -24.7661 N   0  0  0  0  0  0  0  0  0  0  0  0
   -9.1787    2.0621  -24.6789 H   0  0  0  0  0  0  0  0  0  0  0  0
   -7.7579    0.8384  -25.6297 C   0  0  0  0  0  0  0  0  0  0  0  0
   -6.4377    1.2622  -25.4535 C   0  0  0  0  0  0  0  0  0  0  0  0
   -5.7138    0.7746  -26.4710 N   0  0  0  0  0  0  0  0  0  0  0  0
   -6.4764    0.0660  -27.2903 N   0  0  0  0  0  0  0  0  0  0  0  0
   -6.1332   -0.6377  -28.5041 C   0  0  0  0  0  0  0  0  0  0  0  0
   -7.7265    0.0947  -26.7917 C   0  0  0  0  0  0  0  0  0  0  0  0
 29 30  1  0  0  0
 30 31  1  0  0  0
 30 33  1  0  0  0
 31 32  2  0  0  0
 31 28  1  0  0  0
 28  1  1  0  0  0
  1  2  1  0  0  0
  3  2  1  0  0  0
  3  4  1  0  0  0
  3  9  1  0  0  0
  4  5  2  0  0  0
  4  6  1  0  0  0
  6 18  1  0  0  0
  6  7  1  0  0  0
 18 19  2  0  0  0
 19 20  1  0  0  0
 20 21  2  0  0  0
 21 22  1  0  0  0
 22 23  2  0  0  0
 23 24  1  0  0  0
 24 25  2  0  0  0
 25 26  1  0  0  0
 26 27  2  0  0  0
 27 18  1  0  0  0
 27 22  1  0  0  0
  7  8  1  0  0  0
  8 34  1  0  0  0
  8  3  1  0  0  0
 34 35  1  0  0  0
 35 37  1  0  0  0
 35 36  1  0  0  0
 37 38  1  0  0  0
 38 39  2  0  0  0
 39 40  1  0  0  0
 40 41  1  0  0  0
 40 42  1  0  0  0
 42 37  2  0  0  0
  9 10  2  0  0  0
 10 11  1  0  0  0
 11 12  1  0  0  0
 11 13  2  0  0  0
 13 14  1  0  0  0
 14 15  2  0  0  0
 15 16  1  0  0  0
 15  9  1  0  0  0
 16 17  2  0  0  0
 16  1  1  0  0  0
M  END
> <minimizedAffinity>
-7.86751

> <CNNscore>
0.1205735281

> <CNNaffinity>
6.1724615097

> <CNN_VS>
0.7442354560

> <CNNaffinity_variance>
0.3975140452

$$$$



 42 47  0  0  0  0  0  0  0  0999 V2000
   -5.0171   -0.5048  -24.6499 N   0  0  0  0  0  0  0  0  0  0  0  0
   -6.4632   -0.5952  -24.5656 C   0  0  0  0  0  0  0  0  0  0  0  0
   -6.9735   -1.9435  -24.1944 C   0  0  0  0  0  0  0  0  0  0  0  0
   -8.4421   -1.9238  -24.5095 C   0  0  0  0  0  0  0  0  0  0  0  0
   -8.9647   -2.1651  -25.6522 O   0  0  0  0  0  0  0  0  0  0  0  0
   -9.1716   -1.5894  -23.3187 N   0  0  0  0  0  0  0  0  0  0  0  0
   -8.1457   -1.2694  -22.3186 C   0  0  0  0  0  0  0  0  0  0  0  0
   -7.0779   -2.2219  -22.7265 C   0  0  0  0  0  0  0  0  0  0  0  0
   -6.2513   -2.9741  -24.9451 C   0  0  0  0  0  0  0  0  0  0  0  0
   -6.8698   -4.2144  -25.0942 C   0  0  0  0  0  0  0  0  0  0  0  0
   -6.2454   -5.2285  -25.7890 C   0  0  0  0  0  0  0  0  0  0  0  0
   -7.0817   -6.7559  -25.9348 Cl  0  0  0  0  0  0  0  0  0  0  0  0
   -4.9854   -5.0282  -26.3531 C   0  0  0  0  0  0  0  0  0  0  0  0
   -4.3605   -3.8144  -26.2172 C   0  0  0  0  0  0  0  0  0  0  0  0
   -5.0059   -2.8073  -25.5143 C   0  0  0  0  0  0  0  0  0  0  0  0
   -4.3361   -1.5194  -25.3735 C   0  0  0  0  0  0  0  0  0  0  0  0
   -3.2003   -1.2728  -25.8573 O   0  0  0  0  0  0  0  0  0  0  0  0
  -10.5867   -1.5686  -23.1342 C   0  0  0  0  0  0  0  0  0  0  0  0
  -11.2330   -2.7333  -22.7361 C   0  0  0  0  0  0  0  0  0  0  0  0
  -12.5648   -2.7705  -22.5474 N   0  0  0  0  0  0  0  0  0  0  0  0
  -13.2998   -1.6716  -22.7426 C   0  0  0  0  0  0  0  0  0  0  0  0
  -12.7288   -0.4723  -23.1399 C   0  0  0  0  0  0  0  0  0  0  0  0
  -13.4953    0.6666  -23.3415 C   0  0  0  0  0  0  0  0  0  0  0  0
  -12.8894    1.8382  -23.7360 C   0  0  0  0  0  0  0  0  0  0  0  0
  -11.5233    1.8333  -23.9180 C   0  0  0  0  0  0  0  0  0  0  0  0
  -10.7208    0.7444  -23.7346 C   0  0  0  0  0  0  0  0  0  0  0  0
  -11.3470   -0.4355  -23.3351 C   0  0  0  0  0  0  0  0  0  0  0  0
   -4.3182    0.5806  -24.0167 C   0  0  0  0  0  0  0  0  0  0  0  0
   -6.1407    3.9611  -23.6075 C   0  0  0  0  0  0  0  0  0  0  0  0
   -5.5627    2.6730  -23.2388 N   0  0  0  0  0  0  0  0  0  0  0  0
   -4.9435    1.9058  -24.2578 C   0  0  0  0  0  0  0  0  0  0  0  0
   -4.9296    2.3799  -25.4151 O   0  0  0  0  0  0  0  0  0  0  0  0
   -5.6015    2.3466  -22.3107 H   0  0  0  0  0  0  0  0  0  0  0  0
   -5.8275   -2.1951  -21.9414 C   0  0  0  0  0  0  0  0  0  0  0  0
   -6.1777   -1.8447  -20.5747 N   0  0  0  0  0  0  0  0  0  0  0  0
   -6.9024   -2.3080  -20.0959 H   0  0  0  0  0  0  0  0  0  0  0  0
   -5.4333   -0.8102  -19.9623 C   0  0  0  0  0  0  0  0  0  0  0  0
   -5.5520   -0.4121  -18.6277 C   0  0  0  0  0  0  0  0  0  0  0  0
   -4.6867    0.5911  -18.4231 N   0  0  0  0  0  0  0  0  0  0  0  0
   -4.0188    0.8666  -19.5335 N   0  0  0  0  0  0  0  0  0  0  0  0
   -2.9978    1.8576  -19.7825 C   0  0  0  0  0  0  0  0  0  0  0  0
   -4.4621    0.0209  -20.4823 C   0  0  0  0  0  0  0  0  0  0  0  0
 29 30  1  0  0  0
 30 31  1  0  0  0
 30 33  1  0  0  0
 31 32  2  0  0  0
 31 28  1  0  0  0
 28  1  1  0  0  0
  1  2  1  0  0  0
  3  2  1  0  0  0
  3  4  1  0  0  0
  3  9  1  0  0  0
  4  5  2  0  0  0
  4  6  1  0  0  0
  6 18  1  0  0  0
  6  7  1  0  0  0
 18 19  2  0  0  0
 19 20  1  0  0  0
 20 21  2  0  0  0
 21 22  1  0  0  0
 22 23  2  0  0  0
 23 24  1  0  0  0
 24 25  2  0  0  0
 25 26  1  0  0  0
 26 27  2  0  0  0
 27 18  1  0  0  0
 27 22  1  0  0  0
  7  8  1  0  0  0
  8 34  1  0  0  0
  8  3  1  0  0  0
 34 35  1  0  0  0
 35 37  1  0  0  0
 35 36  1  0  0  0
 37 38  1  0  0  0
 38 39  2  0  0  0
 39 40  1  0  0  0
 40 41  1  0  0  0
 40 42  1  0  0  0
 42 37  2  0  0  0
  9 10  2  0  0  0
 10 11  1  0  0  0
 11 12  1  0  0  0
 11 13  2  0  0  0
 13 14  1  0  0  0
 14 15  2  0  0  0
 15 16  1  0  0  0
 15  9  1  0  0  0
 16 17  2  0  0  0
 16  1  1  0  0  0
M  END
> <minimizedAffinity>
-8.20618

> <CNNscore>
0.1128102317

> <CNNaffinity>
6.0789518356

> <CNN_VS>
0.6857679486

> <CNNaffinity_variance>
0.5575248003

$$$$



 42 47  0  0  0  0  0  0  0  0999 V2000
   -7.2901   -3.1068  -22.2635 N   0  0  0  0  0  0  0  0  0  0  0  0
   -8.3293   -2.0954  -22.3229 C   0  0  0  0  0  0  0  0  0  0  0  0
   -7.8732   -0.7758  -22.8394 C   0  0  0  0  0  0  0  0  0  0  0  0
   -8.9625    0.1972  -22.4888 C   0  0  0  0  0  0  0  0  0  0  0  0
   -9.0895    0.8060  -21.3706 O   0  0  0  0  0  0  0  0  0  0  0  0
   -9.8444    0.3373  -23.6134 N   0  0  0  0  0  0  0  0  0  0  0  0
   -9.3754   -0.6505  -24.5928 C   0  0  0  0  0  0  0  0  0  0  0  0
   -7.9122   -0.6068  -24.3271 C   0  0  0  0  0  0  0  0  0  0  0  0
   -6.5865   -0.4213  -22.2343 C   0  0  0  0  0  0  0  0  0  0  0  0
   -6.2320    0.9268  -22.2188 C   0  0  0  0  0  0  0  0  0  0  0  0
   -5.0352    1.3292  -21.6649 C   0  0  0  0  0  0  0  0  0  0  0  0
   -4.6586    3.0354  -21.6816 Cl  0  0  0  0  0  0  0  0  0  0  0  0
   -4.1615    0.3930  -21.1116 C   0  0  0  0  0  0  0  0  0  0  0  0
   -4.4927   -0.9384  -21.1173 C   0  0  0  0  0  0  0  0  0  0  0  0
   -5.7015   -1.3222  -21.6796 C   0  0  0  0  0  0  0  0  0  0  0  0
   -6.0475   -2.7391  -21.6824 C   0  0  0  0  0  0  0  0  0  0  0  0
   -5.3052   -3.6343  -21.2003 O   0  0  0  0  0  0  0  0  0  0  0  0
  -10.9422    1.2375  -23.7598 C   0  0  0  0  0  0  0  0  0  0  0  0
  -12.2306    0.7771  -23.5136 C   0  0  0  0  0  0  0  0  0  0  0  0
  -13.3018    1.5821  -23.6363 N   0  0  0  0  0  0  0  0  0  0  0  0
  -13.1426    2.8574  -24.0027 C   0  0  0  0  0  0  0  0  0  0  0  0
  -11.8901    3.3906  -24.2658 C   0  0  0  0  0  0  0  0  0  0  0  0
  -11.7289    4.7153  -24.6460 C   0  0  0  0  0  0  0  0  0  0  0  0
  -10.4677    5.2061  -24.8982 C   0  0  0  0  0  0  0  0  0  0  0  0
   -9.3977    4.3483  -24.7608 C   0  0  0  0  0  0  0  0  0  0  0  0
   -9.4972    3.0383  -24.3903 C   0  0  0  0  0  0  0  0  0  0  0  0
  -10.7800    2.5540  -24.1379 C   0  0  0  0  0  0  0  0  0  0  0  0
   -7.5299   -4.4272  -22.7798 C   0  0  0  0  0  0  0  0  0  0  0  0
  -10.4055   -4.2315  -25.3507 C   0  0  0  0  0  0  0  0  0  0  0  0
   -9.7315   -4.1947  -24.0570 N   0  0  0  0  0  0  0  0  0  0  0  0
   -8.3345   -4.4357  -24.0279 C   0  0  0  0  0  0  0  0  0  0  0  0
   -7.7616   -4.6661  -25.1155 O   0  0  0  0  0  0  0  0  0  0  0  0
  -10.2314   -4.0081  -23.2296 H   0  0  0  0  0  0  0  0  0  0  0  0
   -7.0627   -1.5062  -25.1334 C   0  0  0  0  0  0  0  0  0  0  0  0
   -6.3636   -0.6871  -26.1099 N   0  0  0  0  0  0  0  0  0  0  0  0
   -6.6559   -0.6468  -27.0491 H   0  0  0  0  0  0  0  0  0  0  0  0
   -5.2461    0.0494  -25.6535 C   0  0  0  0  0  0  0  0  0  0  0  0
   -5.1118    1.4388  -25.7248 C   0  0  0  0  0  0  0  0  0  0  0  0
   -3.9234    1.7612  -25.1948 N   0  0  0  0  0  0  0  0  0  0  0  0
   -3.2831    0.6755  -24.7870 N   0  0  0  0  0  0  0  0  0  0  0  0
   -1.9879    0.5399  -24.1622 C   0  0  0  0  0  0  0  0  0  0  0  0
   -4.0761   -0.3776  -25.0594 C   0  0  0  0  0  0  0  0  0  0  0  0
 29 30  1  0  0  0
 30 31  1  0  0  0
 30 33  1  0  0  0
 31 32  2  0  0  0
 31 28  1  0  0  0
 28  1  1  0  0  0
  1  2  1  0  0  0
  3  2  1  0  0  0
  3  4  1  0  0  0
  3  9  1  0  0  0
  4  5  2  0  0  0
  4  6  1  0  0  0
  6 18  1  0  0  0
  6  7  1  0  0  0
 18 19  2  0  0  0
 19 20  1  0  0  0
 20 21  2  0  0  0
 21 22  1  0  0  0
 22 23  2  0  0  0
 23 24  1  0  0  0
 24 25  2  0  0  0
 25 26  1  0  0  0
 26 27  2  0  0  0
 27 18  1  0  0  0
 27 22  1  0  0  0
  7  8  1  0  0  0
  8 34  1  0  0  0
  8  3  1  0  0  0
 34 35  1  0  0  0
 35 37  1  0  0  0
 35 36  1  0  0  0
 37 38  1  0  0  0
 38 39  2  0  0  0
 39 40  1  0  0  0
 40 41  1  0  0  0
 40 42  1  0  0  0
 42 37  2  0  0  0
  9 10  2  0  0  0
 10 11  1  0  0  0
 11 12  1  0  0  0
 11 13  2  0  0  0
 13 14  1  0  0  0
 14 15  2  0  0  0
 15 16  1  0  0  0
 15  9  1  0  0  0
 16 17  2  0  0  0
 16  1  1  0  0  0
M  END
> <minimizedAffinity>
-7.12486

> <CNNscore>
0.1128070131

> <CNNaffinity>
5.9713296890

> <CNN_VS>
0.6736078858

> <CNNaffinity_variance>
0.2905471325

$$$$



 42 47  0  0  0  0  0  0  0  0999 V2000
   -7.4000   -3.1830  -22.3319 N   0  0  0  0  0  0  0  0  0  0  0  0
   -8.4323   -2.1633  -22.3640 C   0  0  0  0  0  0  0  0  0  0  0  0
   -7.9771   -0.8448  -22.8842 C   0  0  0  0  0  0  0  0  0  0  0  0
   -9.0509    0.1349  -22.5055 C   0  0  0  0  0  0  0  0  0  0  0  0
   -9.1488    0.7393  -21.3820 O   0  0  0  0  0  0  0  0  0  0  0  0
   -9.9558    0.2872  -23.6100 N   0  0  0  0  0  0  0  0  0  0  0  0
   -9.5160   -0.6995  -24.6039 C   0  0  0  0  0  0  0  0  0  0  0  0
   -8.0470   -0.6685  -24.3699 C   0  0  0  0  0  0  0  0  0  0  0  0
   -6.6749   -0.5032  -22.3056 C   0  0  0  0  0  0  0  0  0  0  0  0
   -6.3095    0.8420  -22.2916 C   0  0  0  0  0  0  0  0  0  0  0  0
   -5.0978    1.2324  -21.7619 C   0  0  0  0  0  0  0  0  0  0  0  0
   -4.7082    2.9357  -21.7789 Cl  0  0  0  0  0  0  0  0  0  0  0  0
   -4.2197    0.2868  -21.2321 C   0  0  0  0  0  0  0  0  0  0  0  0
   -4.5614   -1.0419  -21.2368 C   0  0  0  0  0  0  0  0  0  0  0  0
   -5.7851   -1.4137  -21.7744 C   0  0  0  0  0  0  0  0  0  0  0  0
   -6.1422   -2.8278  -21.7762 C   0  0  0  0  0  0  0  0  0  0  0  0
   -5.3967   -3.7310  -21.3146 O   0  0  0  0  0  0  0  0  0  0  0  0
  -11.0494    1.1966  -23.7284 C   0  0  0  0  0  0  0  0  0  0  0  0
  -12.3423    0.7286  -23.5229 C   0  0  0  0  0  0  0  0  0  0  0  0
  -13.4098    1.5417  -23.6217 N   0  0  0  0  0  0  0  0  0  0  0  0
  -13.2425    2.8327  -23.9240 C   0  0  0  0  0  0  0  0  0  0  0  0
  -11.9853    3.3743  -24.1433 C   0  0  0  0  0  0  0  0  0  0  0  0
  -11.8157    4.7153  -24.4569 C   0  0  0  0  0  0  0  0  0  0  0  0
  -10.5499    5.2141  -24.6672 C   0  0  0  0  0  0  0  0  0  0  0  0
   -9.4840    4.3476  -24.5562 C   0  0  0  0  0  0  0  0  0  0  0  0
   -9.5916    3.0215  -24.2508 C   0  0  0  0  0  0  0  0  0  0  0  0
  -10.8789    2.5293  -24.0402 C   0  0  0  0  0  0  0  0  0  0  0  0
   -7.6613   -4.4990  -22.8490 C   0  0  0  0  0  0  0  0  0  0  0  0
   -7.6302   -4.9503  -26.6846 C   0  0  0  0  0  0  0  0  0  0  0  0
   -8.1671   -4.7864  -25.3377 N   0  0  0  0  0  0  0  0  0  0  0  0
   -7.2474   -4.6697  -24.2648 C   0  0  0  0  0  0  0  0  0  0  0  0
   -6.0276   -4.7144  -24.5374 O   0  0  0  0  0  0  0  0  0  0  0  0
   -9.1383   -4.7577  -25.1787 H   0  0  0  0  0  0  0  0  0  0  0  0
   -7.2223   -1.5705  -25.1987 C   0  0  0  0  0  0  0  0  0  0  0  0
   -6.2512   -0.7498  -25.9032 N   0  0  0  0  0  0  0  0  0  0  0  0
   -5.2905   -0.7980  -25.6937 H   0  0  0  0  0  0  0  0  0  0  0  0
   -6.7449    0.1206  -26.9023 C   0  0  0  0  0  0  0  0  0  0  0  0
   -7.4691   -0.2746  -28.0306 C   0  0  0  0  0  0  0  0  0  0  0  0
   -7.7586    0.8280  -28.7359 N   0  0  0  0  0  0  0  0  0  0  0  0
   -7.2711    1.9060  -28.1399 N   0  0  0  0  0  0  0  0  0  0  0  0
   -7.3377    3.2949  -28.5313 C   0  0  0  0  0  0  0  0  0  0  0  0
   -6.6496    1.4923  -27.0198 C   0  0  0  0  0  0  0  0  0  0  0  0
 29 30  1  0  0  0
 30 31  1  0  0  0
 30 33  1  0  0  0
 31 32  2  0  0  0
 31 28  1  0  0  0
 28  1  1  0  0  0
  1  2  1  0  0  0
  3  2  1  0  0  0
  3  4  1  0  0  0
  3  9  1  0  0  0
  4  5  2  0  0  0
  4  6  1  0  0  0
  6 18  1  0  0  0
  6  7  1  0  0  0
 18 19  2  0  0  0
 19 20  1  0  0  0
 20 21  2  0  0  0
 21 22  1  0  0  0
 22 23  2  0  0  0
 23 24  1  0  0  0
 24 25  2  0  0  0
 25 26  1  0  0  0
 26 27  2  0  0  0
 27 18  1  0  0  0
 27 22  1  0  0  0
  7  8  1  0  0  0
  8 34  1  0  0  0
  8  3  1  0  0  0
 34 35  1  0  0  0
 35 37  1  0  0  0
 35 36  1  0  0  0
 37 38  1  0  0  0
 38 39  2  0  0  0
 39 40  1  0  0  0
 40 41  1  0  0  0
 40 42  1  0  0  0
 42 37  2  0  0  0
  9 10  2  0  0  0
 10 11  1  0  0  0
 11 12  1  0  0  0
 11 13  2  0  0  0
 13 14  1  0  0  0
 14 15  2  0  0  0
 15 16  1  0  0  0
 15  9  1  0  0  0
 16 17  2  0  0  0
 16  1  1  0  0  0
M  END
> <minimizedAffinity>
-6.83915

> <CNNscore>
0.1051904857

> <CNNaffinity>
6.0164113045

> <CNN_VS>
0.6328692436

> <CNNaffinity_variance>
0.2225620449

$$$$



 42 47  0  0  0  0  0  0  0  0999 V2000
   -6.8760   -3.2083  -23.5746 N   0  0  0  0  0  0  0  0  0  0  0  0
   -7.6285   -1.9673  -23.5852 C   0  0  0  0  0  0  0  0  0  0  0  0
   -6.9597   -0.8377  -22.8831 C   0  0  0  0  0  0  0  0  0  0  0  0
   -8.0201    0.2094  -22.6947 C   0  0  0  0  0  0  0  0  0  0  0  0
   -8.8609    0.2569  -21.7314 O   0  0  0  0  0  0  0  0  0  0  0  0
   -7.9411    1.1545  -23.7729 N   0  0  0  0  0  0  0  0  0  0  0  0
   -6.9310    0.6083  -24.6873 C   0  0  0  0  0  0  0  0  0  0  0  0
   -6.0084   -0.0264  -23.7078 C   0  0  0  0  0  0  0  0  0  0  0  0
   -6.3974   -1.3033  -21.6126 C   0  0  0  0  0  0  0  0  0  0  0  0
   -6.1566   -0.3478  -20.6265 C   0  0  0  0  0  0  0  0  0  0  0  0
   -5.6284   -0.7179  -19.4078 C   0  0  0  0  0  0  0  0  0  0  0  0
   -5.3538    0.5346  -18.2208 Cl  0  0  0  0  0  0  0  0  0  0  0  0
   -5.3272   -2.0541  -19.1437 C   0  0  0  0  0  0  0  0  0  0  0  0
   -5.5571   -3.0091  -20.1015 C   0  0  0  0  0  0  0  0  0  0  0  0
   -6.0890   -2.6158  -21.3210 C   0  0  0  0  0  0  0  0  0  0  0  0
   -6.3310   -3.6359  -22.3348 C   0  0  0  0  0  0  0  0  0  0  0  0
   -6.0819   -4.8577  -22.1613 O   0  0  0  0  0  0  0  0  0  0  0  0
   -8.6788    2.3658  -23.9328 C   0  0  0  0  0  0  0  0  0  0  0  0
   -9.8996    2.3305  -24.5969 C   0  0  0  0  0  0  0  0  0  0  0  0
  -10.6365    3.4420  -24.7759 N   0  0  0  0  0  0  0  0  0  0  0  0
  -10.2004    4.6167  -24.3113 C   0  0  0  0  0  0  0  0  0  0  0  0
   -8.9936    4.7333  -23.6389 C   0  0  0  0  0  0  0  0  0  0  0  0
   -8.5441    5.9548  -23.1579 C   0  0  0  0  0  0  0  0  0  0  0  0
   -7.3397    6.0280  -22.4952 C   0  0  0  0  0  0  0  0  0  0  0  0
   -6.6162    4.8662  -22.3332 C   0  0  0  0  0  0  0  0  0  0  0  0
   -7.0088    3.6393  -22.7847 C   0  0  0  0  0  0  0  0  0  0  0  0
   -8.2304    3.5792  -23.4540 C   0  0  0  0  0  0  0  0  0  0  0  0
   -6.7002   -3.9626  -24.7860 C   0  0  0  0  0  0  0  0  0  0  0  0
   -9.9580   -5.3092  -26.3641 C   0  0  0  0  0  0  0  0  0  0  0  0
   -8.8438   -4.4029  -26.1064 N   0  0  0  0  0  0  0  0  0  0  0  0
   -7.8799   -4.7914  -25.1417 C   0  0  0  0  0  0  0  0  0  0  0  0
   -8.0425   -5.8906  -24.5676 O   0  0  0  0  0  0  0  0  0  0  0  0
   -8.7637   -3.5477  -26.5876 H   0  0  0  0  0  0  0  0  0  0  0  0
   -4.8279   -0.7211  -24.2596 C   0  0  0  0  0  0  0  0  0  0  0  0
   -3.7836    0.2730  -24.4451 N   0  0  0  0  0  0  0  0  0  0  0  0
   -3.3159    0.3713  -25.3057 H   0  0  0  0  0  0  0  0  0  0  0  0
   -3.4682    1.0926  -23.3369 C   0  0  0  0  0  0  0  0  0  0  0  0
   -3.4998    2.4900  -23.3320 C   0  0  0  0  0  0  0  0  0  0  0  0
   -3.1396    2.9016  -22.1081 N   0  0  0  0  0  0  0  0  0  0  0  0
   -2.8784    1.8660  -21.3243 N   0  0  0  0  0  0  0  0  0  0  0  0
   -2.4598    1.8284  -19.9423 C   0  0  0  0  0  0  0  0  0  0  0  0
   -3.0739    0.7547  -22.0583 C   0  0  0  0  0  0  0  0  0  0  0  0
 29 30  1  0  0  0
 30 31  1  0  0  0
 30 33  1  0  0  0
 31 32  2  0  0  0
 31 28  1  0  0  0
 28  1  1  0  0  0
  1  2  1  0  0  0
  3  2  1  0  0  0
  3  4  1  0  0  0
  3  9  1  0  0  0
  4  5  2  0  0  0
  4  6  1  0  0  0
  6 18  1  0  0  0
  6  7  1  0  0  0
 18 19  2  0  0  0
 19 20  1  0  0  0
 20 21  2  0  0  0
 21 22  1  0  0  0
 22 23  2  0  0  0
 23 24  1  0  0  0
 24 25  2  0  0  0
 25 26  1  0  0  0
 26 27  2  0  0  0
 27 18  1  0  0  0
 27 22  1  0  0  0
  7  8  1  0  0  0
  8 34  1  0  0  0
  8  3  1  0  0  0
 34 35  1  0  0  0
 35 37  1  0  0  0
 35 36  1  0  0  0
 37 38  1  0  0  0
 38 39  2  0  0  0
 39 40  1  0  0  0
 40 41  1  0  0  0
 40 42  1  0  0  0
 42 37  2  0  0  0
  9 10  2  0  0  0
 10 11  1  0  0  0
 11 12  1  0  0  0
 11 13  2  0  0  0
 13 14  1  0  0  0
 14 15  2  0  0  0
 15 16  1  0  0  0
 15  9  1  0  0  0
 16 17  2  0  0  0
 16  1  1  0  0  0
M  END
> <minimizedAffinity>
-7.45672

> <CNNscore>
0.0915407985

> <CNNaffinity>
5.9081854820

> <CNN_VS>
0.5408400297

> <CNNaffinity_variance>
0.3822051883

$$$$



 42 47  0  0  0  0  0  0  0  0999 V2000
   -7.3557   -2.6159  -24.1618 N   0  0  0  0  0  0  0  0  0  0  0  0
   -8.1309   -1.4070  -23.9515 C   0  0  0  0  0  0  0  0  0  0  0  0
   -7.4038   -0.3298  -23.2255 C   0  0  0  0  0  0  0  0  0  0  0  0
   -8.4548    0.6556  -22.8004 C   0  0  0  0  0  0  0  0  0  0  0  0
   -9.1673    0.5779  -21.7405 O   0  0  0  0  0  0  0  0  0  0  0  0
   -8.5344    1.7051  -23.7773 N   0  0  0  0  0  0  0  0  0  0  0  0
   -7.6367    1.2879  -24.8612 C   0  0  0  0  0  0  0  0  0  0  0  0
   -6.5832    0.5920  -24.0740 C   0  0  0  0  0  0  0  0  0  0  0  0
   -6.6745   -0.8990  -22.0891 C   0  0  0  0  0  0  0  0  0  0  0  0
   -6.3318   -0.0382  -21.0476 C   0  0  0  0  0  0  0  0  0  0  0  0
   -5.6451   -0.5085  -19.9484 C   0  0  0  0  0  0  0  0  0  0  0  0
   -5.2500    0.6291  -18.6823 Cl  0  0  0  0  0  0  0  0  0  0  0  0
   -5.2831   -1.8529  -19.8624 C   0  0  0  0  0  0  0  0  0  0  0  0
   -5.6113   -2.7157  -20.8773 C   0  0  0  0  0  0  0  0  0  0  0  0
   -6.3024   -2.2224  -21.9744 C   0  0  0  0  0  0  0  0  0  0  0  0
   -6.6483   -3.1449  -23.0498 C   0  0  0  0  0  0  0  0  0  0  0  0
   -6.3521   -4.3684  -23.0349 O   0  0  0  0  0  0  0  0  0  0  0  0
   -9.3133    2.8997  -23.7191 C   0  0  0  0  0  0  0  0  0  0  0  0
   -8.6636    4.1268  -23.6490 C   0  0  0  0  0  0  0  0  0  0  0  0
   -9.3480    5.2839  -23.5922 N   0  0  0  0  0  0  0  0  0  0  0  0
  -10.6844    5.2727  -23.6021 C   0  0  0  0  0  0  0  0  0  0  0  0
  -11.4042    4.0898  -23.6702 C   0  0  0  0  0  0  0  0  0  0  0  0
  -12.7916    4.0823  -23.6804 C   0  0  0  0  0  0  0  0  0  0  0  0
  -13.4690    2.8857  -23.7490 C   0  0  0  0  0  0  0  0  0  0  0  0
  -12.7300    1.7238  -23.8058 C   0  0  0  0  0  0  0  0  0  0  0  0
  -11.3660    1.6716  -23.7990 C   0  0  0  0  0  0  0  0  0  0  0  0
  -10.6925    2.8903  -23.7293 C   0  0  0  0  0  0  0  0  0  0  0  0
   -7.3184   -3.2398  -25.4568 C   0  0  0  0  0  0  0  0  0  0  0  0
  -10.3361   -5.5943  -25.9730 C   0  0  0  0  0  0  0  0  0  0  0  0
   -9.0323   -5.1351  -25.5054 N   0  0  0  0  0  0  0  0  0  0  0  0
   -8.6190   -3.8277  -25.8664 C   0  0  0  0  0  0  0  0  0  0  0  0
   -9.3985   -3.1441  -26.5659 O   0  0  0  0  0  0  0  0  0  0  0  0
   -8.4572   -5.7154  -24.9560 H   0  0  0  0  0  0  0  0  0  0  0  0
   -5.4672   -0.0028  -24.8365 C   0  0  0  0  0  0  0  0  0  0  0  0
   -4.3729    0.9542  -24.8266 N   0  0  0  0  0  0  0  0  0  0  0  0
   -4.0788    1.4057  -25.6505 H   0  0  0  0  0  0  0  0  0  0  0  0
   -3.7490    1.2089  -23.5835 C   0  0  0  0  0  0  0  0  0  0  0  0
   -3.2318    0.2340  -22.7257 C   0  0  0  0  0  0  0  0  0  0  0  0
   -2.7250    0.8610  -21.6546 N   0  0  0  0  0  0  0  0  0  0  0  0
   -2.8800    2.1722  -21.7634 N   0  0  0  0  0  0  0  0  0  0  0  0
   -2.4932    3.2318  -20.8611 C   0  0  0  0  0  0  0  0  0  0  0  0
   -3.5030    2.4015  -22.9343 C   0  0  0  0  0  0  0  0  0  0  0  0
 29 30  1  0  0  0
 30 31  1  0  0  0
 30 33  1  0  0  0
 31 32  2  0  0  0
 31 28  1  0  0  0
 28  1  1  0  0  0
  1  2  1  0  0  0
  3  2  1  0  0  0
  3  4  1  0  0  0
  3  9  1  0  0  0
  4  5  2  0  0  0
  4  6  1  0  0  0
  6 18  1  0  0  0
  6  7  1  0  0  0
 18 19  2  0  0  0
 19 20  1  0  0  0
 20 21  2  0  0  0
 21 22  1  0  0  0
 22 23  2  0  0  0
 23 24  1  0  0  0
 24 25  2  0  0  0
 25 26  1  0  0  0
 26 27  2  0  0  0
 27 18  1  0  0  0
 27 22  1  0  0  0
  7  8  1  0  0  0
  8 34  1  0  0  0
  8  3  1  0  0  0
 34 35  1  0  0  0
 35 37  1  0  0  0
 35 36  1  0  0  0
 37 38  1  0  0  0
 38 39  2  0  0  0
 39 40  1  0  0  0
 40 41  1  0  0  0
 40 42  1  0  0  0
 42 37  2  0  0  0
  9 10  2  0  0  0
 10 11  1  0  0  0
 11 12  1  0  0  0
 11 13  2  0  0  0
 13 14  1  0  0  0
 14 15  2  0  0  0
 15 16  1  0  0  0
 15  9  1  0  0  0
 16 17  2  0  0  0
 16  1  1  0  0  0
M  END
> <minimizedAffinity>
-7.79196

> <CNNscore>
0.0793540925

> <CNNaffinity>
6.0222768784

> <CNN_VS>
0.4778923094

> <CNNaffinity_variance>
0.4030304551

$$$$



 42 47  0  0  0  0  0  0  0  0999 V2000
   -7.3715   -3.1802  -22.3006 N   0  0  0  0  0  0  0  0  0  0  0  0
   -8.3947   -2.1524  -22.3552 C   0  0  0  0  0  0  0  0  0  0  0  0
   -7.9124   -0.8311  -22.8428 C   0  0  0  0  0  0  0  0  0  0  0  0
   -8.9915    0.1520  -22.4889 C   0  0  0  0  0  0  0  0  0  0  0  0
   -9.1237    0.7432  -21.3618 O   0  0  0  0  0  0  0  0  0  0  0  0
   -9.8568    0.3248  -23.6217 N   0  0  0  0  0  0  0  0  0  0  0  0
   -9.3903   -0.6528  -24.6123 C   0  0  0  0  0  0  0  0  0  0  0  0
   -7.9300   -0.6359  -24.3277 C   0  0  0  0  0  0  0  0  0  0  0  0
   -6.6284   -0.5066  -22.2156 C   0  0  0  0  0  0  0  0  0  0  0  0
   -6.2541    0.8355  -22.1722 C   0  0  0  0  0  0  0  0  0  0  0  0
   -5.0586    1.2101  -21.5964 C   0  0  0  0  0  0  0  0  0  0  0  0
   -4.6564    2.9105  -21.5786 Cl  0  0  0  0  0  0  0  0  0  0  0  0
   -4.2060    0.2514  -21.0488 C   0  0  0  0  0  0  0  0  0  0  0  0
   -4.5569   -1.0745  -21.0819 C   0  0  0  0  0  0  0  0  0  0  0  0
   -5.7640   -1.4303  -21.6658 C   0  0  0  0  0  0  0  0  0  0  0  0
   -6.1310   -2.8415  -21.6977 C   0  0  0  0  0  0  0  0  0  0  0  0
   -5.4083   -3.7560  -21.2222 O   0  0  0  0  0  0  0  0  0  0  0  0
  -10.9392    1.2439  -23.7660 C   0  0  0  0  0  0  0  0  0  0  0  0
  -12.2393    0.7925  -23.5696 C   0  0  0  0  0  0  0  0  0  0  0  0
  -13.2968    1.6153  -23.6928 N   0  0  0  0  0  0  0  0  0  0  0  0
  -13.1122    2.9001  -24.0110 C   0  0  0  0  0  0  0  0  0  0  0  0
  -11.8467    3.4253  -24.2227 C   0  0  0  0  0  0  0  0  0  0  0  0
  -11.6591    4.7598  -24.5529 C   0  0  0  0  0  0  0  0  0  0  0  0
  -10.3856    5.2423  -24.7549 C   0  0  0  0  0  0  0  0  0  0  0  0
   -9.3304    4.3662  -24.6189 C   0  0  0  0  0  0  0  0  0  0  0  0
   -9.4558    3.0458  -24.2963 C   0  0  0  0  0  0  0  0  0  0  0  0
  -10.7508    2.5702  -24.0944 C   0  0  0  0  0  0  0  0  0  0  0  0
   -7.6243   -4.4877  -22.8429 C   0  0  0  0  0  0  0  0  0  0  0  0
   -4.5794   -6.8317  -23.2316 C   0  0  0  0  0  0  0  0  0  0  0  0
   -5.7802   -6.2462  -22.6447 N   0  0  0  0  0  0  0  0  0  0  0  0
   -6.3997   -5.1712  -23.3310 C   0  0  0  0  0  0  0  0  0  0  0  0
   -5.8787   -4.7877  -24.4014 O   0  0  0  0  0  0  0  0  0  0  0  0
   -6.1490   -6.5872  -21.7979 H   0  0  0  0  0  0  0  0  0  0  0  0
   -7.0838   -1.5339  -25.1390 C   0  0  0  0  0  0  0  0  0  0  0  0
   -7.8287   -1.8663  -26.3423 N   0  0  0  0  0  0  0  0  0  0  0  0
   -8.4044   -1.2040  -26.7886 H   0  0  0  0  0  0  0  0  0  0  0  0
   -7.6913   -3.1810  -26.8444 C   0  0  0  0  0  0  0  0  0  0  0  0
   -6.5938   -3.6581  -27.5666 C   0  0  0  0  0  0  0  0  0  0  0  0
   -6.8306   -4.9431  -27.8662 N   0  0  0  0  0  0  0  0  0  0  0  0
   -8.0045   -5.3266  -27.3869 N   0  0  0  0  0  0  0  0  0  0  0  0
   -8.6672   -6.6077  -27.4657 C   0  0  0  0  0  0  0  0  0  0  0  0
   -8.5429   -4.2636  -26.7607 C   0  0  0  0  0  0  0  0  0  0  0  0
 29 30  1  0  0  0
 30 31  1  0  0  0
 30 33  1  0  0  0
 31 32  2  0  0  0
 31 28  1  0  0  0
 28  1  1  0  0  0
  1  2  1  0  0  0
  3  2  1  0  0  0
  3  4  1  0  0  0
  3  9  1  0  0  0
  4  5  2  0  0  0
  4  6  1  0  0  0
  6 18  1  0  0  0
  6  7  1  0  0  0
 18 19  2  0  0  0
 19 20  1  0  0  0
 20 21  2  0  0  0
 21 22  1  0  0  0
 22 23  2  0  0  0
 23 24  1  0  0  0
 24 25  2  0  0  0
 25 26  1  0  0  0
 26 27  2  0  0  0
 27 18  1  0  0  0
 27 22  1  0  0  0
  7  8  1  0  0  0
  8 34  1  0  0  0
  8  3  1  0  0  0
 34 35  1  0  0  0
 35 37  1  0  0  0
 35 36  1  0  0  0
 37 38  1  0  0  0
 38 39  2  0  0  0
 39 40  1  0  0  0
 40 41  1  0  0  0
 40 42  1  0  0  0
 42 37  2  0  0  0
  9 10  2  0  0  0
 10 11  1  0  0  0
 11 12  1  0  0  0
 11 13  2  0  0  0
 13 14  1  0  0  0
 14 15  2  0  0  0
 15 16  1  0  0  0
 15  9  1  0  0  0
 16 17  2  0  0  0
 16  1  1  0  0  0
M  END
> <minimizedAffinity>
-7.78815

> <CNNscore>
0.0733207241

> <CNNaffinity>
5.9628262520

> <CNN_VS>
0.4371987283

> <CNNaffinity_variance>
0.3763369918

$$$$



 36 41  0  0  0  0  0  0  0  0999 V2000
   -7.0501   -1.8360  -23.3712 N   0  0  0  0  0  0  0  0  0  0  0  0
   -7.4882   -0.7473  -24.1822 C   0  0  0  0  0  0  0  0  0  0  0  0
   -7.2113    0.6205  -23.6637 C   0  0  0  0  0  0  0  0  0  0  0  0
   -8.4640    1.1066  -22.9774 C   0  0  0  0  0  0  0  0  0  0  0  0
   -8.7220    1.1061  -21.7484 O   0  0  0  0  0  0  0  0  0  0  0  0
   -9.3693    1.5944  -23.9592 N   0  0  0  0  0  0  0  0  0  0  0  0
   -8.6109    1.9571  -25.1353 C   0  0  0  0  0  0  0  0  0  0  0  0
   -7.1645    1.5868  -24.8192 C   0  0  0  0  0  0  0  0  0  0  0  0
   -6.6127    0.9813  -26.0899 C   0  0  0  0  0  0  0  0  0  0  0  0
   -6.0767    0.7108  -22.7417 C   0  0  0  0  0  0  0  0  0  0  0  0
   -5.5477    1.9310  -22.3774 C   0  0  0  0  0  0  0  0  0  0  0  0
   -4.4615    2.0342  -21.4995 C   0  0  0  0  0  0  0  0  0  0  0  0
   -3.9600    3.2552  -21.1575 F   0  0  0  0  0  0  0  0  0  0  0  0
   -3.8752    0.9073  -20.9617 C   0  0  0  0  0  0  0  0  0  0  0  0
   -4.3919   -0.3054  -21.3161 C   0  0  0  0  0  0  0  0  0  0  0  0
   -5.4541   -0.4068  -22.1745 C   0  0  0  0  0  0  0  0  0  0  0  0
   -5.9414   -1.7628  -22.4851 C   0  0  0  0  0  0  0  0  0  0  0  0
   -5.3765   -2.7444  -21.9725 O   0  0  0  0  0  0  0  0  0  0  0  0
  -10.7821    1.7327  -23.8781 C   0  0  0  0  0  0  0  0  0  0  0  0
  -11.6371    0.6508  -23.7385 C   0  0  0  0  0  0  0  0  0  0  0  0
  -12.9582    0.8558  -23.6683 N   0  0  0  0  0  0  0  0  0  0  0  0
  -13.4325    2.1087  -23.7345 C   0  0  0  0  0  0  0  0  0  0  0  0
  -12.6331    3.2244  -23.8731 C   0  0  0  0  0  0  0  0  0  0  0  0
  -13.1424    4.5116  -23.9394 C   0  0  0  0  0  0  0  0  0  0  0  0
  -12.3155    5.6181  -24.0790 C   0  0  0  0  0  0  0  0  0  0  0  0
  -10.9601    5.3835  -24.1492 C   0  0  0  0  0  0  0  0  0  0  0  0
  -10.4163    4.1169  -24.0866 C   0  0  0  0  0  0  0  0  0  0  0  0
  -11.2698    3.0389  -23.9475 C   0  0  0  0  0  0  0  0  0  0  0  0
   -7.7775   -3.0915  -23.4572 C   0  0  0  0  0  0  0  0  0  0  0  0
  -13.4107   -2.6664  -22.4923 C   0  0  0  0  0  0  0  0  0  0  0  0
  -11.9546   -2.7893  -22.7639 C   0  0  0  0  0  0  0  0  0  0  0  0
  -11.4450   -3.3958  -23.8930 C   0  0  0  0  0  0  0  0  0  0  0  0
  -10.1042   -3.4748  -24.0806 N   0  0  0  0  0  0  0  0  0  0  0  0
   -9.2147   -2.9695  -23.1821 C   0  0  0  0  0  0  0  0  0  0  0  0
   -9.7553   -2.3702  -22.0654 C   0  0  0  0  0  0  0  0  0  0  0  0
  -11.0862   -2.2765  -21.8509 N   0  0  0  0  0  0  0  0  0  0  0  0
 30 31  1  0  0  0
 31 32  2  0  0  0
 32 33  1  0  0  0
 33 34  2  0  0  0
 34 29  1  0  0  0
 34 35  1  0  0  0
 29  1  1  0  0  0
  1  2  1  0  0  0
  3  2  1  0  0  0
  3  4  1  0  0  0
  3 10  1  0  0  0
  4  5  2  0  0  0
  4  6  1  0  0  0
  6 19  1  0  0  0
  6  7  1  0  0  0
 19 20  2  0  0  0
 20 21  1  0  0  0
 21 22  2  0  0  0
 22 23  1  0  0  0
 23 24  2  0  0  0
 24 25  1  0  0  0
 25 26  2  0  0  0
 26 27  1  0  0  0
 27 28  2  0  0  0
 28 19  1  0  0  0
 28 23  1  0  0  0
  7  8  1  0  0  0
  8  9  1  0  0  0
  8  3  1  0  0  0
 10 11  2  0  0  0
 11 12  1  0  0  0
 12 13  1  0  0  0
 12 14  2  0  0  0
 14 15  1  0  0  0
 15 16  2  0  0  0
 16 17  1  0  0  0
 16 10  1  0  0  0
 17 18  2  0  0  0
 17  1  1  0  0  0
 35 36  2  0  0  0
 36 31  1  0  0  0
M  END
> <minimizedAffinity>
-7.79651

> <CNNscore>
0.6738287807

> <CNNaffinity>
6.7905397415

> <CNN_VS>
4.5756611824

> <CNNaffinity_variance>
0.0308443867

$$$$



 36 41  0  0  0  0  0  0  0  0999 V2000
   -7.2472   -2.1686  -22.6242 N   0  0  0  0  0  0  0  0  0  0  0  0
   -7.6026   -1.1974  -23.6067 C   0  0  0  0  0  0  0  0  0  0  0  0
   -7.2294    0.2132  -23.3113 C   0  0  0  0  0  0  0  0  0  0  0  0
   -8.4462    0.8914  -22.7315 C   0  0  0  0  0  0  0  0  0  0  0  0
   -8.7080    1.1082  -21.5227 O   0  0  0  0  0  0  0  0  0  0  0  0
   -9.3103    1.2766  -23.7929 N   0  0  0  0  0  0  0  0  0  0  0  0
   -8.5235    1.3895  -25.0004 C   0  0  0  0  0  0  0  0  0  0  0  0
   -7.1088    0.9739  -24.6067 C   0  0  0  0  0  0  0  0  0  0  0  0
   -6.5976    0.1332  -25.7545 C   0  0  0  0  0  0  0  0  0  0  0  0
   -6.0946    0.3712  -22.3988 C   0  0  0  0  0  0  0  0  0  0  0  0
   -5.4802    1.5938  -22.2280 C   0  0  0  0  0  0  0  0  0  0  0  0
   -4.3925    1.7607  -21.3617 C   0  0  0  0  0  0  0  0  0  0  0  0
   -3.8054    2.9824  -21.2134 F   0  0  0  0  0  0  0  0  0  0  0  0
   -3.8911    0.6971  -20.6404 C   0  0  0  0  0  0  0  0  0  0  0  0
   -4.4928   -0.5174  -20.8025 C   0  0  0  0  0  0  0  0  0  0  0  0
   -5.5564   -0.6811  -21.6493 C   0  0  0  0  0  0  0  0  0  0  0  0
   -6.1393   -2.0315  -21.7446 C   0  0  0  0  0  0  0  0  0  0  0  0
   -5.6487   -2.9546  -21.0719 O   0  0  0  0  0  0  0  0  0  0  0  0
  -10.7097    1.5257  -23.7567 C   0  0  0  0  0  0  0  0  0  0  0  0
  -11.2554    2.7836  -23.9588 C   0  0  0  0  0  0  0  0  0  0  0  0
  -12.5836    2.9446  -23.9107 N   0  0  0  0  0  0  0  0  0  0  0  0
  -13.3652    1.8822  -23.6670 C   0  0  0  0  0  0  0  0  0  0  0  0
  -12.8819    0.6072  -23.4580 C   0  0  0  0  0  0  0  0  0  0  0  0
  -13.7063   -0.4785  -23.2077 C   0  0  0  0  0  0  0  0  0  0  0  0
  -13.1941   -1.7522  -23.0007 C   0  0  0  0  0  0  0  0  0  0  0  0
  -11.8252   -1.8944  -23.0547 C   0  0  0  0  0  0  0  0  0  0  0  0
  -10.9729   -0.8376  -23.3013 C   0  0  0  0  0  0  0  0  0  0  0  0
  -11.5181    0.4163  -23.5027 C   0  0  0  0  0  0  0  0  0  0  0  0
   -8.0631   -3.3669  -22.5177 C   0  0  0  0  0  0  0  0  0  0  0  0
   -8.4803   -6.4027  -27.3607 C   0  0  0  0  0  0  0  0  0  0  0  0
   -8.3965   -5.6089  -26.1069 C   0  0  0  0  0  0  0  0  0  0  0  0
   -9.4747   -4.9464  -25.5583 C   0  0  0  0  0  0  0  0  0  0  0  0
   -9.3306   -4.2388  -24.4103 N   0  0  0  0  0  0  0  0  0  0  0  0
   -8.1391   -4.1502  -23.7573 C   0  0  0  0  0  0  0  0  0  0  0  0
   -7.0821   -4.8229  -24.3305 C   0  0  0  0  0  0  0  0  0  0  0  0
   -7.1950   -5.5357  -25.4731 N   0  0  0  0  0  0  0  0  0  0  0  0
 30 31  1  0  0  0
 31 32  2  0  0  0
 32 33  1  0  0  0
 33 34  2  0  0  0
 34 29  1  0  0  0
 34 35  1  0  0  0
 29  1  1  0  0  0
  1  2  1  0  0  0
  3  2  1  0  0  0
  3  4  1  0  0  0
  3 10  1  0  0  0
  4  5  2  0  0  0
  4  6  1  0  0  0
  6 19  1  0  0  0
  6  7  1  0  0  0
 19 20  2  0  0  0
 20 21  1  0  0  0
 21 22  2  0  0  0
 22 23  1  0  0  0
 23 24  2  0  0  0
 24 25  1  0  0  0
 25 26  2  0  0  0
 26 27  1  0  0  0
 27 28  2  0  0  0
 28 19  1  0  0  0
 28 23  1  0  0  0
  7  8  1  0  0  0
  8  9  1  0  0  0
  8  3  1  0  0  0
 10 11  2  0  0  0
 11 12  1  0  0  0
 12 13  1  0  0  0
 12 14  2  0  0  0
 14 15  1  0  0  0
 15 16  2  0  0  0
 16 17  1  0  0  0
 16 10  1  0  0  0
 17 18  2  0  0  0
 17  1  1  0  0  0
 35 36  2  0  0  0
 36 31  1  0  0  0
M  END
> <minimizedAffinity>
-8.63062

> <CNNscore>
0.4412146211

> <CNNaffinity>
6.7590126991

> <CNN_VS>
2.9821751118

> <CNNaffinity_variance>
0.1139727235

$$$$



 36 41  0  0  0  0  0  0  0  0999 V2000
   -8.0899   -1.0584  -24.9467 N   0  0  0  0  0  0  0  0  0  0  0  0
   -8.2396   -2.4432  -25.2543 C   0  0  0  0  0  0  0  0  0  0  0  0
   -9.2574   -3.1920  -24.4669 C   0  0  0  0  0  0  0  0  0  0  0  0
   -8.5340   -3.8959  -23.3454 C   0  0  0  0  0  0  0  0  0  0  0  0
   -8.4281   -3.5350  -22.1473 O   0  0  0  0  0  0  0  0  0  0  0  0
   -7.9529   -5.0918  -23.8490 N   0  0  0  0  0  0  0  0  0  0  0  0
   -8.6780   -5.4835  -25.0367 C   0  0  0  0  0  0  0  0  0  0  0  0
   -9.7156   -4.3874  -25.2621 C   0  0  0  0  0  0  0  0  0  0  0  0
   -9.7360   -4.1472  -26.7547 C   0  0  0  0  0  0  0  0  0  0  0  0
  -10.3377   -2.3694  -23.9178 C   0  0  0  0  0  0  0  0  0  0  0  0
  -11.4726   -2.9435  -23.3852 C   0  0  0  0  0  0  0  0  0  0  0  0
  -12.5155   -2.1709  -22.8590 C   0  0  0  0  0  0  0  0  0  0  0  0
  -13.6259   -2.7673  -22.3388 F   0  0  0  0  0  0  0  0  0  0  0  0
  -12.4445   -0.7933  -22.8544 C   0  0  0  0  0  0  0  0  0  0  0  0
  -11.3248   -0.2155  -23.3793 C   0  0  0  0  0  0  0  0  0  0  0  0
  -10.3048   -0.9704  -23.8939 C   0  0  0  0  0  0  0  0  0  0  0  0
   -9.1360   -0.2484  -24.4279 C   0  0  0  0  0  0  0  0  0  0  0  0
   -9.1235    0.9944  -24.3987 O   0  0  0  0  0  0  0  0  0  0  0  0
   -6.8533   -5.8329  -23.3358 C   0  0  0  0  0  0  0  0  0  0  0  0
   -6.8840   -6.4694  -22.1049 C   0  0  0  0  0  0  0  0  0  0  0  0
   -5.8107   -7.1505  -21.6849 N   0  0  0  0  0  0  0  0  0  0  0  0
   -4.7211   -7.2048  -22.4651 C   0  0  0  0  0  0  0  0  0  0  0  0
   -4.6301   -6.5929  -23.6981 C   0  0  0  0  0  0  0  0  0  0  0  0
   -3.4948   -6.6608  -24.4901 C   0  0  0  0  0  0  0  0  0  0  0  0
   -3.4292   -6.0356  -25.7280 C   0  0  0  0  0  0  0  0  0  0  0  0
   -4.5448   -5.3408  -26.1398 C   0  0  0  0  0  0  0  0  0  0  0  0
   -5.6927   -5.2509  -25.3792 C   0  0  0  0  0  0  0  0  0  0  0  0
   -5.7222   -5.8859  -24.1522 C   0  0  0  0  0  0  0  0  0  0  0  0
   -6.7948   -0.4405  -25.1784 C   0  0  0  0  0  0  0  0  0  0  0  0
   -3.9342    0.7160  -20.3489 C   0  0  0  0  0  0  0  0  0  0  0  0
   -4.6756    0.3914  -21.5956 C   0  0  0  0  0  0  0  0  0  0  0  0
   -5.0593   -0.8891  -21.9351 C   0  0  0  0  0  0  0  0  0  0  0  0
   -5.7347   -1.1174  -23.0888 N   0  0  0  0  0  0  0  0  0  0  0  0
   -6.0599   -0.1141  -23.9499 C   0  0  0  0  0  0  0  0  0  0  0  0
   -5.6627    1.1529  -23.5821 C   0  0  0  0  0  0  0  0  0  0  0  0
   -4.9888    1.4113  -22.4396 N   0  0  0  0  0  0  0  0  0  0  0  0
 30 31  1  0  0  0
 31 32  2  0  0  0
 32 33  1  0  0  0
 33 34  2  0  0  0
 34 29  1  0  0  0
 34 35  1  0  0  0
 29  1  1  0  0  0
  1  2  1  0  0  0
  3  2  1  0  0  0
  3  4  1  0  0  0
  3 10  1  0  0  0
  4  5  2  0  0  0
  4  6  1  0  0  0
  6 19  1  0  0  0
  6  7  1  0  0  0
 19 20  2  0  0  0
 20 21  1  0  0  0
 21 22  2  0  0  0
 22 23  1  0  0  0
 23 24  2  0  0  0
 24 25  1  0  0  0
 25 26  2  0  0  0
 26 27  1  0  0  0
 27 28  2  0  0  0
 28 19  1  0  0  0
 28 23  1  0  0  0
  7  8  1  0  0  0
  8  9  1  0  0  0
  8  3  1  0  0  0
 10 11  2  0  0  0
 11 12  1  0  0  0
 12 13  1  0  0  0
 12 14  2  0  0  0
 14 15  1  0  0  0
 15 16  2  0  0  0
 16 17  1  0  0  0
 16 10  1  0  0  0
 17 18  2  0  0  0
 17  1  1  0  0  0
 35 36  2  0  0  0
 36 31  1  0  0  0
M  END
> <minimizedAffinity>
-7.80077

> <CNNscore>
0.3987852335

> <CNNaffinity>
6.6449265480

> <CNN_VS>
2.6498985291

> <CNNaffinity_variance>
0.2702435553

$$$$



 36 41  0  0  0  0  0  0  0  0999 V2000
   -7.3718   -2.4354  -22.6460 N   0  0  0  0  0  0  0  0  0  0  0  0
   -7.7649   -1.4415  -23.5906 C   0  0  0  0  0  0  0  0  0  0  0  0
   -7.4633   -0.0284  -23.2319 C   0  0  0  0  0  0  0  0  0  0  0  0
   -8.7167    0.5652  -22.6377 C   0  0  0  0  0  0  0  0  0  0  0  0
   -8.9997    0.7174  -21.4237 O   0  0  0  0  0  0  0  0  0  0  0  0
   -9.5888    0.9533  -23.6914 N   0  0  0  0  0  0  0  0  0  0  0  0
   -8.7974    1.1554  -24.8842 C   0  0  0  0  0  0  0  0  0  0  0  0
   -7.3679    0.7918  -24.4926 C   0  0  0  0  0  0  0  0  0  0  0  0
   -6.8060    0.0263  -25.6691 C   0  0  0  0  0  0  0  0  0  0  0  0
   -6.3458    0.1449  -22.3009 C   0  0  0  0  0  0  0  0  0  0  0  0
   -5.7930    1.3872  -22.0719 C   0  0  0  0  0  0  0  0  0  0  0  0
   -4.7226    1.5691  -21.1873 C   0  0  0  0  0  0  0  0  0  0  0  0
   -4.1967    2.8102  -20.9811 F   0  0  0  0  0  0  0  0  0  0  0  0
   -4.1768    0.5011  -20.5058 C   0  0  0  0  0  0  0  0  0  0  0  0
   -4.7174   -0.7329  -20.7257 C   0  0  0  0  0  0  0  0  0  0  0  0
   -5.7641   -0.9113  -21.5905 C   0  0  0  0  0  0  0  0  0  0  0  0
   -6.2800   -2.2828  -21.7491 C   0  0  0  0  0  0  0  0  0  0  0  0
   -5.7513   -3.2091  -21.1105 O   0  0  0  0  0  0  0  0  0  0  0  0
  -10.9989    1.1332  -23.6604 C   0  0  0  0  0  0  0  0  0  0  0  0
  -11.8916    0.0738  -23.6173 C   0  0  0  0  0  0  0  0  0  0  0  0
  -13.2077    0.3179  -23.5896 N   0  0  0  0  0  0  0  0  0  0  0  0
  -13.6403    1.5873  -23.6042 C   0  0  0  0  0  0  0  0  0  0  0  0
  -12.8022    2.6822  -23.6467 C   0  0  0  0  0  0  0  0  0  0  0  0
  -13.2687    3.9871  -23.6609 C   0  0  0  0  0  0  0  0  0  0  0  0
  -12.4034    5.0719  -23.7038 C   0  0  0  0  0  0  0  0  0  0  0  0
  -11.0540    4.7973  -23.7317 C   0  0  0  0  0  0  0  0  0  0  0  0
  -10.5521    3.5119  -23.7187 C   0  0  0  0  0  0  0  0  0  0  0  0
  -11.4432    2.4565  -23.6757 C   0  0  0  0  0  0  0  0  0  0  0  0
   -8.1296   -3.6749  -22.5992 C   0  0  0  0  0  0  0  0  0  0  0  0
   -9.7615   -5.6404  -27.7294 C   0  0  0  0  0  0  0  0  0  0  0  0
   -9.3614   -5.1209  -26.3955 C   0  0  0  0  0  0  0  0  0  0  0  0
  -10.2250   -4.4486  -25.5561 C   0  0  0  0  0  0  0  0  0  0  0  0
   -9.7959   -4.0000  -24.3503 N   0  0  0  0  0  0  0  0  0  0  0  0
   -8.5183   -4.1880  -23.9189 C   0  0  0  0  0  0  0  0  0  0  0  0
   -7.6808   -4.8628  -24.7801 C   0  0  0  0  0  0  0  0  0  0  0  0
   -8.0793   -5.3213  -25.9872 N   0  0  0  0  0  0  0  0  0  0  0  0
 30 31  1  0  0  0
 31 32  2  0  0  0
 32 33  1  0  0  0
 33 34  2  0  0  0
 34 29  1  0  0  0
 34 35  1  0  0  0
 29  1  1  0  0  0
  1  2  1  0  0  0
  3  2  1  0  0  0
  3  4  1  0  0  0
  3 10  1  0  0  0
  4  5  2  0  0  0
  4  6  1  0  0  0
  6 19  1  0  0  0
  6  7  1  0  0  0
 19 20  2  0  0  0
 20 21  1  0  0  0
 21 22  2  0  0  0
 22 23  1  0  0  0
 23 24  2  0  0  0
 24 25  1  0  0  0
 25 26  2  0  0  0
 26 27  1  0  0  0
 27 28  2  0  0  0
 28 19  1  0  0  0
 28 23  1  0  0  0
  7  8  1  0  0  0
  8  9  1  0  0  0
  8  3  1  0  0  0
 10 11  2  0  0  0
 11 12  1  0  0  0
 12 13  1  0  0  0
 12 14  2  0  0  0
 14 15  1  0  0  0
 15 16  2  0  0  0
 16 17  1  0  0  0
 16 10  1  0  0  0
 17 18  2  0  0  0
 17  1  1  0  0  0
 35 36  2  0  0  0
 36 31  1  0  0  0
M  END
> <minimizedAffinity>
-9.07755

> <CNNscore>
0.3628742099

> <CNNaffinity>
6.6122689247

> <CNN_VS>
2.3994219303

> <CNNaffinity_variance>
0.1818161011

$$$$



 36 41  0  0  0  0  0  0  0  0999 V2000
   -6.7072   -2.6211  -22.2427 N   0  0  0  0  0  0  0  0  0  0  0  0
   -7.2240   -1.8063  -23.2933 C   0  0  0  0  0  0  0  0  0  0  0  0
   -7.1357   -0.3333  -23.0958 C   0  0  0  0  0  0  0  0  0  0  0  0
   -8.4714    0.1341  -22.5725 C   0  0  0  0  0  0  0  0  0  0  0  0
   -8.7935    0.3778  -21.3834 O   0  0  0  0  0  0  0  0  0  0  0  0
   -9.3728    0.2716  -23.6634 N   0  0  0  0  0  0  0  0  0  0  0  0
   -8.5992    0.4525  -24.8712 C   0  0  0  0  0  0  0  0  0  0  0  0
   -7.1389    0.3465  -24.4408 C   0  0  0  0  0  0  0  0  0  0  0  0
   -6.4529   -0.4553  -25.5236 C   0  0  0  0  0  0  0  0  0  0  0  0
   -6.0706    0.1032  -22.1900 C   0  0  0  0  0  0  0  0  0  0  0  0
   -5.7069    1.4304  -22.1021 C   0  0  0  0  0  0  0  0  0  0  0  0
   -4.6888    1.8633  -21.2434 C   0  0  0  0  0  0  0  0  0  0  0  0
   -4.3512    3.1828  -21.1781 F   0  0  0  0  0  0  0  0  0  0  0  0
   -4.0058    0.9686  -20.4459 C   0  0  0  0  0  0  0  0  0  0  0  0
   -4.3588   -0.3476  -20.5256 C   0  0  0  0  0  0  0  0  0  0  0  0
   -5.3542   -0.7714  -21.3651 C   0  0  0  0  0  0  0  0  0  0  0  0
   -5.6639   -2.2125  -21.3685 C   0  0  0  0  0  0  0  0  0  0  0  0
   -5.0176   -2.9752  -20.6295 O   0  0  0  0  0  0  0  0  0  0  0  0
  -10.7944    0.2468  -23.6531 C   0  0  0  0  0  0  0  0  0  0  0  0
  -11.5260   -0.9293  -23.6020 C   0  0  0  0  0  0  0  0  0  0  0  0
  -12.8637   -0.8771  -23.5950 N   0  0  0  0  0  0  0  0  0  0  0  0
  -13.4742    0.3164  -23.6379 C   0  0  0  0  0  0  0  0  0  0  0  0
  -12.8018    1.5198  -23.6897 C   0  0  0  0  0  0  0  0  0  0  0  0
  -13.4510    2.7434  -23.7333 C   0  0  0  0  0  0  0  0  0  0  0  0
  -12.7502    3.9408  -23.7851 C   0  0  0  0  0  0  0  0  0  0  0  0
  -11.3751    3.8631  -23.7913 C   0  0  0  0  0  0  0  0  0  0  0  0
  -10.6938    2.6639  -23.7489 C   0  0  0  0  0  0  0  0  0  0  0  0
  -11.4242    1.4918  -23.6979 C   0  0  0  0  0  0  0  0  0  0  0  0
   -7.2786   -3.9447  -22.0569 C   0  0  0  0  0  0  0  0  0  0  0  0
   -4.5365   -8.0961  -24.9014 C   0  0  0  0  0  0  0  0  0  0  0  0
   -5.2349   -7.0256  -24.1427 C   0  0  0  0  0  0  0  0  0  0  0  0
   -4.9772   -6.7481  -22.8165 C   0  0  0  0  0  0  0  0  0  0  0  0
   -5.6506   -5.7564  -22.1821 N   0  0  0  0  0  0  0  0  0  0  0  0
   -6.5940   -5.0024  -22.8107 C   0  0  0  0  0  0  0  0  0  0  0  0
   -6.8280   -5.3044  -24.1346 C   0  0  0  0  0  0  0  0  0  0  0  0
   -6.1734   -6.2862  -24.7932 N   0  0  0  0  0  0  0  0  0  0  0  0
 30 31  1  0  0  0
 31 32  2  0  0  0
 32 33  1  0  0  0
 33 34  2  0  0  0
 34 29  1  0  0  0
 34 35  1  0  0  0
 29  1  1  0  0  0
  1  2  1  0  0  0
  3  2  1  0  0  0
  3  4  1  0  0  0
  3 10  1  0  0  0
  4  5  2  0  0  0
  4  6  1  0  0  0
  6 19  1  0  0  0
  6  7  1  0  0  0
 19 20  2  0  0  0
 20 21  1  0  0  0
 21 22  2  0  0  0
 22 23  1  0  0  0
 23 24  2  0  0  0
 24 25  1  0  0  0
 25 26  2  0  0  0
 26 27  1  0  0  0
 27 28  2  0  0  0
 28 19  1  0  0  0
 28 23  1  0  0  0
  7  8  1  0  0  0
  8  9  1  0  0  0
  8  3  1  0  0  0
 10 11  2  0  0  0
 11 12  1  0  0  0
 12 13  1  0  0  0
 12 14  2  0  0  0
 14 15  1  0  0  0
 15 16  2  0  0  0
 16 17  1  0  0  0
 16 10  1  0  0  0
 17 18  2  0  0  0
 17  1  1  0  0  0
 35 36  2  0  0  0
 36 31  1  0  0  0
M  END
> <minimizedAffinity>
-8.89628

> <CNNscore>
0.3460767269

> <CNNaffinity>
6.5014481544

> <CNN_VS>
2.2500000000

> <CNNaffinity_variance>
0.0568796396

$$$$



 36 41  0  0  0  0  0  0  0  0999 V2000
   -6.0709    0.6159  -22.7300 N   0  0  0  0  0  0  0  0  0  0  0  0
   -5.7386   -0.2911  -23.7796 C   0  0  0  0  0  0  0  0  0  0  0  0
   -6.6323   -0.2848  -24.9703 C   0  0  0  0  0  0  0  0  0  0  0  0
   -7.6178   -1.4149  -24.8026 C   0  0  0  0  0  0  0  0  0  0  0  0
   -8.8017   -1.3532  -24.3884 O   0  0  0  0  0  0  0  0  0  0  0  0
   -6.9972   -2.6318  -25.1970 N   0  0  0  0  0  0  0  0  0  0  0  0
   -5.9080   -2.3158  -26.0937 C   0  0  0  0  0  0  0  0  0  0  0  0
   -5.8667   -0.7919  -26.1652 C   0  0  0  0  0  0  0  0  0  0  0  0
   -4.4006   -0.4233  -26.1431 C   0  0  0  0  0  0  0  0  0  0  0  0
   -7.3539    0.9705  -25.1913 C   0  0  0  0  0  0  0  0  0  0  0  0
   -8.0177    1.2140  -26.3751 C   0  0  0  0  0  0  0  0  0  0  0  0
   -8.7096    2.4101  -26.6030 C   0  0  0  0  0  0  0  0  0  0  0  0
   -9.3571    2.6223  -27.7841 F   0  0  0  0  0  0  0  0  0  0  0  0
   -8.7527    3.3983  -25.6415 C   0  0  0  0  0  0  0  0  0  0  0  0
   -8.0987    3.1666  -24.4660 C   0  0  0  0  0  0  0  0  0  0  0  0
   -7.4220    1.9972  -24.2427 C   0  0  0  0  0  0  0  0  0  0  0  0
   -6.7573    1.8431  -22.9362 C   0  0  0  0  0  0  0  0  0  0  0  0
   -6.8279    2.7651  -22.1054 O   0  0  0  0  0  0  0  0  0  0  0  0
   -7.3273   -3.9629  -24.8218 C   0  0  0  0  0  0  0  0  0  0  0  0
   -6.8390   -4.5636  -23.6721 C   0  0  0  0  0  0  0  0  0  0  0  0
   -7.1926   -5.8215  -23.3811 N   0  0  0  0  0  0  0  0  0  0  0  0
   -8.0159   -6.4804  -24.2099 C   0  0  0  0  0  0  0  0  0  0  0  0
   -8.5340   -5.9372  -25.3672 C   0  0  0  0  0  0  0  0  0  0  0  0
   -9.3840   -6.6345  -26.2111 C   0  0  0  0  0  0  0  0  0  0  0  0
   -9.8918   -6.0642  -27.3706 C   0  0  0  0  0  0  0  0  0  0  0  0
   -9.5147   -4.7693  -27.6501 C   0  0  0  0  0  0  0  0  0  0  0  0
   -8.6708   -4.0437  -26.8343 C   0  0  0  0  0  0  0  0  0  0  0  0
   -8.1845   -4.6436  -25.6882 C   0  0  0  0  0  0  0  0  0  0  0  0
   -5.6842    0.2660  -21.3731 C   0  0  0  0  0  0  0  0  0  0  0  0
   -0.5894    2.4065  -19.8545 C   0  0  0  0  0  0  0  0  0  0  0  0
   -1.9012    1.8452  -20.2710 C   0  0  0  0  0  0  0  0  0  0  0  0
   -2.1136    1.2498  -21.4969 C   0  0  0  0  0  0  0  0  0  0  0  0
   -3.3363    0.7569  -21.8150 N   0  0  0  0  0  0  0  0  0  0  0  0
   -4.3916    0.8246  -20.9573 C   0  0  0  0  0  0  0  0  0  0  0  0
   -4.1470    1.4249  -19.7414 C   0  0  0  0  0  0  0  0  0  0  0  0
   -2.9400    1.9251  -19.3963 N   0  0  0  0  0  0  0  0  0  0  0  0
 30 31  1  0  0  0
 31 32  2  0  0  0
 32 33  1  0  0  0
 33 34  2  0  0  0
 34 29  1  0  0  0
 34 35  1  0  0  0
 29  1  1  0  0  0
  1  2  1  0  0  0
  3  2  1  0  0  0
  3  4  1  0  0  0
  3 10  1  0  0  0
  4  5  2  0  0  0
  4  6  1  0  0  0
  6 19  1  0  0  0
  6  7  1  0  0  0
 19 20  2  0  0  0
 20 21  1  0  0  0
 21 22  2  0  0  0
 22 23  1  0  0  0
 23 24  2  0  0  0
 24 25  1  0  0  0
 25 26  2  0  0  0
 26 27  1  0  0  0
 27 28  2  0  0  0
 28 19  1  0  0  0
 28 23  1  0  0  0
  7  8  1  0  0  0
  8  9  1  0  0  0
  8  3  1  0  0  0
 10 11  2  0  0  0
 11 12  1  0  0  0
 12 13  1  0  0  0
 12 14  2  0  0  0
 14 15  1  0  0  0
 15 16  2  0  0  0
 16 17  1  0  0  0
 16 10  1  0  0  0
 17 18  2  0  0  0
 17  1  1  0  0  0
 35 36  2  0  0  0
 36 31  1  0  0  0
M  END
> <minimizedAffinity>
-7.17285

> <CNNscore>
0.2343487591

> <CNNaffinity>
6.1248149872

> <CNN_VS>
1.4353427887

> <CNNaffinity_variance>
0.0768589005

$$$$



 36 41  0  0  0  0  0  0  0  0999 V2000
   -6.6024   -2.2493  -25.3355 N   0  0  0  0  0  0  0  0  0  0  0  0
   -6.1689   -2.6094  -24.0251 C   0  0  0  0  0  0  0  0  0  0  0  0
   -7.1769   -2.4899  -22.9360 C   0  0  0  0  0  0  0  0  0  0  0  0
   -6.9474   -1.1657  -22.2501 C   0  0  0  0  0  0  0  0  0  0  0  0
   -7.5675   -0.0876  -22.4234 O   0  0  0  0  0  0  0  0  0  0  0  0
   -5.8746   -1.3030  -21.3272 N   0  0  0  0  0  0  0  0  0  0  0  0
   -5.7552   -2.7000  -20.9749 C   0  0  0  0  0  0  0  0  0  0  0  0
   -6.8046   -3.4241  -21.8136 C   0  0  0  0  0  0  0  0  0  0  0  0
   -6.1407   -4.6982  -22.2844 C   0  0  0  0  0  0  0  0  0  0  0  0
   -8.5711   -2.5830  -23.3752 C   0  0  0  0  0  0  0  0  0  0  0  0
   -9.5971   -2.7391  -22.4673 C   0  0  0  0  0  0  0  0  0  0  0  0
  -10.9348   -2.8327  -22.8713 C   0  0  0  0  0  0  0  0  0  0  0  0
  -11.9282   -2.9867  -21.9500 F   0  0  0  0  0  0  0  0  0  0  0  0
  -11.2781   -2.7715  -24.2060 C   0  0  0  0  0  0  0  0  0  0  0  0
  -10.2694   -2.6169  -25.1125 C   0  0  0  0  0  0  0  0  0  0  0  0
   -8.9613   -2.5252  -24.7180 C   0  0  0  0  0  0  0  0  0  0  0  0
   -7.9498   -2.3503  -25.7758 C   0  0  0  0  0  0  0  0  0  0  0  0
   -8.3141   -2.3012  -26.9634 O   0  0  0  0  0  0  0  0  0  0  0  0
   -5.0222   -0.2968  -20.7956 C   0  0  0  0  0  0  0  0  0  0  0  0
   -5.1017    0.1400  -19.4826 C   0  0  0  0  0  0  0  0  0  0  0  0
   -4.2657    1.0919  -19.0499 N   0  0  0  0  0  0  0  0  0  0  0  0
   -3.3631    1.6077  -19.8974 C   0  0  0  0  0  0  0  0  0  0  0  0
   -3.2356    1.2147  -21.2135 C   0  0  0  0  0  0  0  0  0  0  0  0
   -2.2959    1.7599  -22.0741 C   0  0  0  0  0  0  0  0  0  0  0  0
   -2.1882    1.3464  -23.3950 C   0  0  0  0  0  0  0  0  0  0  0  0
   -3.0583    0.3662  -23.8184 C   0  0  0  0  0  0  0  0  0  0  0  0
   -4.0065   -0.2001  -22.9912 C   0  0  0  0  0  0  0  0  0  0  0  0
   -4.0849    0.2363  -21.6823 C   0  0  0  0  0  0  0  0  0  0  0  0
   -5.6097   -1.7525  -26.2740 C   0  0  0  0  0  0  0  0  0  0  0  0
   -5.2243    3.9545  -26.6292 C   0  0  0  0  0  0  0  0  0  0  0  0
   -5.3053    2.4723  -26.5537 C   0  0  0  0  0  0  0  0  0  0  0  0
   -4.4597    1.6328  -27.2484 C   0  0  0  0  0  0  0  0  0  0  0  0
   -4.5871    0.2874  -27.1353 N   0  0  0  0  0  0  0  0  0  0  0  0
   -5.5363   -0.2879  -26.3466 C   0  0  0  0  0  0  0  0  0  0  0  0
   -6.3648    0.5775  -25.6661 C   0  0  0  0  0  0  0  0  0  0  0  0
   -6.2622    1.9218  -25.7589 N   0  0  0  0  0  0  0  0  0  0  0  0
 30 31  1  0  0  0
 31 32  2  0  0  0
 32 33  1  0  0  0
 33 34  2  0  0  0
 34 29  1  0  0  0
 34 35  1  0  0  0
 29  1  1  0  0  0
  1  2  1  0  0  0
  3  2  1  0  0  0
  3  4  1  0  0  0
  3 10  1  0  0  0
  4  5  2  0  0  0
  4  6  1  0  0  0
  6 19  1  0  0  0
  6  7  1  0  0  0
 19 20  2  0  0  0
 20 21  1  0  0  0
 21 22  2  0  0  0
 22 23  1  0  0  0
 23 24  2  0  0  0
 24 25  1  0  0  0
 25 26  2  0  0  0
 26 27  1  0  0  0
 27 28  2  0  0  0
 28 19  1  0  0  0
 28 23  1  0  0  0
  7  8  1  0  0  0
  8  9  1  0  0  0
  8  3  1  0  0  0
 10 11  2  0  0  0
 11 12  1  0  0  0
 12 13  1  0  0  0
 12 14  2  0  0  0
 14 15  1  0  0  0
 15 16  2  0  0  0
 16 17  1  0  0  0
 16 10  1  0  0  0
 17 18  2  0  0  0
 17  1  1  0  0  0
 35 36  2  0  0  0
 36 31  1  0  0  0
M  END
> <minimizedAffinity>
-6.56531

> <CNNscore>
0.1853897423

> <CNNaffinity>
5.9823131561

> <CNN_VS>
1.1090594530

> <CNNaffinity_variance>
0.1823940426

$$$$



 36 41  0  0  0  0  0  0  0  0999 V2000
   -7.3675   -2.3097  -25.9950 N   0  0  0  0  0  0  0  0  0  0  0  0
   -7.7664   -2.0055  -24.6597 C   0  0  0  0  0  0  0  0  0  0  0  0
   -8.1101   -3.1633  -23.7891 C   0  0  0  0  0  0  0  0  0  0  0  0
   -9.6109   -3.3169  -23.8119 C   0  0  0  0  0  0  0  0  0  0  0  0
  -10.2958   -4.1164  -24.4964 O   0  0  0  0  0  0  0  0  0  0  0  0
  -10.1847   -2.3846  -22.9047 N   0  0  0  0  0  0  0  0  0  0  0  0
   -9.1826   -2.0289  -21.9253 C   0  0  0  0  0  0  0  0  0  0  0  0
   -7.9176   -2.7712  -22.3468 C   0  0  0  0  0  0  0  0  0  0  0  0
   -6.7830   -1.7951  -22.1333 C   0  0  0  0  0  0  0  0  0  0  0  0
   -7.4786   -4.4286  -24.1707 C   0  0  0  0  0  0  0  0  0  0  0  0
   -7.4999   -5.5202  -23.3284 C   0  0  0  0  0  0  0  0  0  0  0  0
   -6.8984   -6.7358  -23.6772 C   0  0  0  0  0  0  0  0  0  0  0  0
   -6.9359   -7.7982  -22.8231 F   0  0  0  0  0  0  0  0  0  0  0  0
   -6.2561   -6.8871  -24.8886 C   0  0  0  0  0  0  0  0  0  0  0  0
   -6.2298   -5.8122  -25.7296 C   0  0  0  0  0  0  0  0  0  0  0  0
   -6.8179   -4.6233  -25.3890 C   0  0  0  0  0  0  0  0  0  0  0  0
   -6.7407   -3.5281  -26.3724 C   0  0  0  0  0  0  0  0  0  0  0  0
   -6.1498   -3.7184  -27.4495 O   0  0  0  0  0  0  0  0  0  0  0  0
  -11.5010   -1.8471  -22.8934 C   0  0  0  0  0  0  0  0  0  0  0  0
  -12.6134   -2.5888  -22.5281 C   0  0  0  0  0  0  0  0  0  0  0  0
  -13.8237   -2.0167  -22.5405 N   0  0  0  0  0  0  0  0  0  0  0  0
  -13.9387   -0.7318  -22.9073 C   0  0  0  0  0  0  0  0  0  0  0  0
  -12.8705    0.0571  -23.2808 C   0  0  0  0  0  0  0  0  0  0  0  0
  -13.0097    1.3838  -23.6566 C   0  0  0  0  0  0  0  0  0  0  0  0
  -11.9177    2.1563  -24.0283 C   0  0  0  0  0  0  0  0  0  0  0  0
  -10.6824    1.5472  -24.0082 C   0  0  0  0  0  0  0  0  0  0  0  0
  -10.5046    0.2293  -23.6400 C   0  0  0  0  0  0  0  0  0  0  0  0
  -11.6144   -0.5093  -23.2760 C   0  0  0  0  0  0  0  0  0  0  0  0
   -7.6147   -1.3171  -27.0277 C   0  0  0  0  0  0  0  0  0  0  0  0
   -5.6603    3.8998  -25.6827 C   0  0  0  0  0  0  0  0  0  0  0  0
   -6.1434    2.5381  -26.0314 C   0  0  0  0  0  0  0  0  0  0  0  0
   -5.3060    1.4504  -26.1655 C   0  0  0  0  0  0  0  0  0  0  0  0
   -5.8117    0.2334  -26.4857 N   0  0  0  0  0  0  0  0  0  0  0  0
   -7.1431    0.0308  -26.6861 C   0  0  0  0  0  0  0  0  0  0  0  0
   -7.9526    1.1367  -26.5448 C   0  0  0  0  0  0  0  0  0  0  0  0
   -7.4780    2.3614  -26.2267 N   0  0  0  0  0  0  0  0  0  0  0  0
 30 31  1  0  0  0
 31 32  2  0  0  0
 32 33  1  0  0  0
 33 34  2  0  0  0
 34 29  1  0  0  0
 34 35  1  0  0  0
 29  1  1  0  0  0
  1  2  1  0  0  0
  3  2  1  0  0  0
  3  4  1  0  0  0
  3 10  1  0  0  0
  4  5  2  0  0  0
  4  6  1  0  0  0
  6 19  1  0  0  0
  6  7  1  0  0  0
 19 20  2  0  0  0
 20 21  1  0  0  0
 21 22  2  0  0  0
 22 23  1  0  0  0
 23 24  2  0  0  0
 24 25  1  0  0  0
 25 26  2  0  0  0
 26 27  1  0  0  0
 27 28  2  0  0  0
 28 19  1  0  0  0
 28 23  1  0  0  0
  7  8  1  0  0  0
  8  9  1  0  0  0
  8  3  1  0  0  0
 10 11  2  0  0  0
 11 12  1  0  0  0
 12 13  1  0  0  0
 12 14  2  0  0  0
 14 15  1  0  0  0
 15 16  2  0  0  0
 16 17  1  0  0  0
 16 10  1  0  0  0
 17 18  2  0  0  0
 17  1  1  0  0  0
 35 36  2  0  0  0
 36 31  1  0  0  0
M  END
> <minimizedAffinity>
-7.59339

> <CNNscore>
0.1725530922

> <CNNaffinity>
6.0880937576

> <CNN_VS>
1.0505193472

> <CNNaffinity_variance>
0.5418466330

$$$$



 36 41  0  0  0  0  0  0  0  0999 V2000
   -7.7596   -1.0947  -21.5013 N   0  0  0  0  0  0  0  0  0  0  0  0
   -7.1115   -0.6675  -22.6980 C   0  0  0  0  0  0  0  0  0  0  0  0
   -6.0874    0.4033  -22.5527 C   0  0  0  0  0  0  0  0  0  0  0  0
   -6.7551    1.7158  -22.8816 C   0  0  0  0  0  0  0  0  0  0  0  0
   -7.2116    2.5720  -22.0845 O   0  0  0  0  0  0  0  0  0  0  0  0
   -6.8043    1.8681  -24.2943 N   0  0  0  0  0  0  0  0  0  0  0  0
   -5.7674    1.0454  -24.8758 C   0  0  0  0  0  0  0  0  0  0  0  0
   -5.1169    0.3180  -23.7025 C   0  0  0  0  0  0  0  0  0  0  0  0
   -4.8744   -1.0947  -24.1836 C   0  0  0  0  0  0  0  0  0  0  0  0
   -5.4654    0.4841  -21.2291 C   0  0  0  0  0  0  0  0  0  0  0  0
   -4.3380    1.2487  -21.0151 C   0  0  0  0  0  0  0  0  0  0  0  0
   -3.7298    1.3340  -19.7565 C   0  0  0  0  0  0  0  0  0  0  0  0
   -2.6154    2.0988  -19.5754 F   0  0  0  0  0  0  0  0  0  0  0  0
   -4.2416    0.6492  -18.6740 C   0  0  0  0  0  0  0  0  0  0  0  0
   -5.3576   -0.1104  -18.8757 C   0  0  0  0  0  0  0  0  0  0  0  0
   -5.9528   -0.1941  -20.1061 C   0  0  0  0  0  0  0  0  0  0  0  0
   -7.1589   -1.0343  -20.2147 C   0  0  0  0  0  0  0  0  0  0  0  0
   -7.5780   -1.6298  -19.2071 O   0  0  0  0  0  0  0  0  0  0  0  0
   -7.6849    2.6667  -25.0743 C   0  0  0  0  0  0  0  0  0  0  0  0
   -8.9763    2.2742  -25.3895 C   0  0  0  0  0  0  0  0  0  0  0  0
   -9.7507    3.0780  -26.1288 N   0  0  0  0  0  0  0  0  0  0  0  0
   -9.2615    4.2526  -26.5528 C   0  0  0  0  0  0  0  0  0  0  0  0
   -7.9863    4.6979  -26.2721 C   0  0  0  0  0  0  0  0  0  0  0  0
   -7.4989    5.9157  -26.7195 C   0  0  0  0  0  0  0  0  0  0  0  0
   -6.2109    6.3405  -26.4227 C   0  0  0  0  0  0  0  0  0  0  0  0
   -5.4321    5.4977  -25.6610 C   0  0  0  0  0  0  0  0  0  0  0  0
   -5.8825    4.2783  -25.1978 C   0  0  0  0  0  0  0  0  0  0  0  0
   -7.1703    3.8880  -25.5127 C   0  0  0  0  0  0  0  0  0  0  0  0
   -9.1099   -1.6229  -21.6036 C   0  0  0  0  0  0  0  0  0  0  0  0
   -9.8954   -4.9703  -26.1886 C   0  0  0  0  0  0  0  0  0  0  0  0
   -9.6739   -4.1181  -24.9912 C   0  0  0  0  0  0  0  0  0  0  0  0
   -8.7253   -4.3976  -24.0296 C   0  0  0  0  0  0  0  0  0  0  0  0
   -8.5739   -3.5779  -22.9599 N   0  0  0  0  0  0  0  0  0  0  0  0
   -9.3352   -2.4623  -22.7870 C   0  0  0  0  0  0  0  0  0  0  0  0
  -10.2731   -2.2110  -23.7646 C   0  0  0  0  0  0  0  0  0  0  0  0
  -10.4472   -3.0090  -24.8412 N   0  0  0  0  0  0  0  0  0  0  0  0
 30 31  1  0  0  0
 31 32  2  0  0  0
 32 33  1  0  0  0
 33 34  2  0  0  0
 34 29  1  0  0  0
 34 35  1  0  0  0
 29  1  1  0  0  0
  1  2  1  0  0  0
  3  2  1  0  0  0
  3  4  1  0  0  0
  3 10  1  0  0  0
  4  5  2  0  0  0
  4  6  1  0  0  0
  6 19  1  0  0  0
  6  7  1  0  0  0
 19 20  2  0  0  0
 20 21  1  0  0  0
 21 22  2  0  0  0
 22 23  1  0  0  0
 23 24  2  0  0  0
 24 25  1  0  0  0
 25 26  2  0  0  0
 26 27  1  0  0  0
 27 28  2  0  0  0
 28 19  1  0  0  0
 28 23  1  0  0  0
  7  8  1  0  0  0
  8  9  1  0  0  0
  8  3  1  0  0  0
 10 11  2  0  0  0
 11 12  1  0  0  0
 12 13  1  0  0  0
 12 14  2  0  0  0
 14 15  1  0  0  0
 15 16  2  0  0  0
 16 17  1  0  0  0
 16 10  1  0  0  0
 17 18  2  0  0  0
 17  1  1  0  0  0
 35 36  2  0  0  0
 36 31  1  0  0  0
M  END
> <minimizedAffinity>
-7.47120

> <CNNscore>
0.1523606181

> <CNNaffinity>
6.0258893967

> <CNN_VS>
0.9181082249

> <CNNaffinity_variance>
0.0302792042

$$$$



 38 42  0  0  0  0  0  0  0  0999 V2000
   -7.8414    0.3642  -24.3403 N   0  0  0  0  0  0  0  0  0  0  0  0
   -7.3403   -0.7688  -23.6405 C   0  0  0  0  0  0  0  0  0  0  0  0
   -8.3505   -1.4564  -22.8282 C   0  0  0  0  0  0  0  0  0  0  0  0
   -8.1417   -0.8879  -21.4296 C   0  0  0  0  0  0  0  0  0  0  0  0
   -8.9027   -0.1535  -20.7742 O   0  0  0  0  0  0  0  0  0  0  0  0
   -6.8479   -1.4213  -21.0754 N   0  0  0  0  0  0  0  0  0  0  0  0
   -6.5887   -2.6086  -21.8965 C   0  0  0  0  0  0  0  0  0  0  0  0
   -7.9987   -2.8653  -22.4660 C   0  0  0  0  0  0  0  0  0  0  0  0
   -9.7131   -1.1841  -23.1820 C   0  0  0  0  0  0  0  0  0  0  0  0
  -10.7198   -1.9807  -22.6003 C   0  0  0  0  0  0  0  0  0  0  0  0
  -12.0545   -1.7758  -22.8841 C   0  0  0  0  0  0  0  0  0  0  0  0
  -13.2919   -2.7886  -22.1409 Cl  0  0  0  0  0  0  0  0  0  0  0  0
  -12.4898   -0.7910  -23.7448 C   0  0  0  0  0  0  0  0  0  0  0  0
  -11.5162   -0.0031  -24.3224 C   0  0  0  0  0  0  0  0  0  0  0  0
  -10.1924   -0.2121  -24.0360 C   0  0  0  0  0  0  0  0  0  0  0  0
   -9.1900    0.6362  -24.6716 C   0  0  0  0  0  0  0  0  0  0  0  0
   -9.5039    1.5531  -25.4652 O   0  0  0  0  0  0  0  0  0  0  0  0
   -5.9992   -0.8462  -20.0786 C   0  0  0  0  0  0  0  0  0  0  0  0
   -6.1162   -1.1037  -18.7469 C   0  0  0  0  0  0  0  0  0  0  0  0
   -5.2450   -0.4904  -17.9135 N   0  0  0  0  0  0  0  0  0  0  0  0
   -4.2790    0.3562  -18.3621 C   0  0  0  0  0  0  0  0  0  0  0  0
   -4.1324    0.6386  -19.6997 C   0  0  0  0  0  0  0  0  0  0  0  0
   -3.1692    1.4893  -20.2013 C   0  0  0  0  0  0  0  0  0  0  0  0
   -3.0770    1.7287  -21.5518 C   0  0  0  0  0  0  0  0  0  0  0  0
   -3.9441    1.1261  -22.4452 C   0  0  0  0  0  0  0  0  0  0  0  0
   -4.9012    0.2784  -21.9265 C   0  0  0  0  0  0  0  0  0  0  0  0
   -5.0151    0.0201  -20.5677 C   0  0  0  0  0  0  0  0  0  0  0  0
   -6.8513    1.3547  -24.7969 C   0  0  0  0  0  0  0  0  0  0  0  0
   -5.6301    0.5261  -28.3663 C   0  0  0  0  0  0  0  0  0  0  0  0
   -6.5144    0.9984  -27.3129 N   0  0  0  0  0  0  0  0  0  0  0  0
   -6.0931    0.9268  -25.9620 C   0  0  0  0  0  0  0  0  0  0  0  0
   -4.9298    0.4344  -25.7698 O   0  0  0  0  0  0  0  0  0  0  0  0
   -7.4000    1.3655  -27.5370 H   0  0  0  0  0  0  0  0  0  0  0  0
   -7.9710   -3.8830  -23.5189 C   0  0  0  0  0  0  0  0  0  0  0  0
   -6.7602   -4.5644  -23.6096 O   0  0  0  0  0  0  0  0  0  0  0  0
   -6.8680   -5.9148  -23.8298 C   0  0  0  0  0  0  0  0  0  0  0  0
   -7.1562   -6.6609  -22.5205 C   0  0  0  0  0  0  0  0  0  0  0  0
   -8.0818   -6.1423  -24.7102 C   0  0  0  0  0  0  0  0  0  0  0  0
 29 30  1  0  0  0
 30 31  1  0  0  0
 30 33  1  0  0  0
 31 32  2  0  0  0
 31 28  1  0  0  0
 28  1  1  0  0  0
  1  2  1  0  0  0
  3  2  1  0  0  0
  3  4  1  0  0  0
  3  9  1  0  0  0
  4  5  2  0  0  0
  4  6  1  0  0  0
  6 18  1  0  0  0
  6  7  1  0  0  0
 18 19  2  0  0  0
 19 20  1  0  0  0
 20 21  2  0  0  0
 21 22  1  0  0  0
 22 23  2  0  0  0
 23 24  1  0  0  0
 24 25  2  0  0  0
 25 26  1  0  0  0
 26 27  2  0  0  0
 27 18  1  0  0  0
 27 22  1  0  0  0
  7  8  1  0  0  0
  8 34  1  0  0  0
  8  3  1  0  0  0
 34 35  1  0  0  0
 35 36  1  0  0  0
 36 37  1  0  0  0
 36 38  1  0  0  0
  9 10  2  0  0  0
 10 11  1  0  0  0
 11 12  1  0  0  0
 11 13  2  0  0  0
 13 14  1  0  0  0
 14 15  2  0  0  0
 15 16  1  0  0  0
 15  9  1  0  0  0
 16 17  2  0  0  0
 16  1  1  0  0  0
M  END
> <minimizedAffinity>
-6.72555

> <CNNscore>
0.7923792601

> <CNNaffinity>
6.8909034729

> <CNN_VS>
5.4602088928

> <CNNaffinity_variance>
0.0400439724

$$$$



 38 42  0  0  0  0  0  0  0  0999 V2000
   -8.1015    1.3357  -24.6936 N   0  0  0  0  0  0  0  0  0  0  0  0
   -7.3894    0.2017  -24.2124 C   0  0  0  0  0  0  0  0  0  0  0  0
   -8.1869   -0.6733  -23.3456 C   0  0  0  0  0  0  0  0  0  0  0  0
   -7.8136   -0.2282  -21.9365 C   0  0  0  0  0  0  0  0  0  0  0  0
   -8.5274    0.3463  -21.0948 O   0  0  0  0  0  0  0  0  0  0  0  0
   -6.4349   -0.6455  -21.8419 N   0  0  0  0  0  0  0  0  0  0  0  0
   -6.1973   -1.7076  -22.8250 C   0  0  0  0  0  0  0  0  0  0  0  0
   -7.6488   -2.0628  -23.2060 C   0  0  0  0  0  0  0  0  0  0  0  0
   -9.6082   -0.5219  -23.4601 C   0  0  0  0  0  0  0  0  0  0  0  0
  -10.4287   -1.4810  -22.8330 C   0  0  0  0  0  0  0  0  0  0  0  0
  -11.8049   -1.4002  -22.8907 C   0  0  0  0  0  0  0  0  0  0  0  0
  -12.8056   -2.6152  -22.0962 Cl  0  0  0  0  0  0  0  0  0  0  0  0
  -12.4638   -0.3892  -23.5569 C   0  0  0  0  0  0  0  0  0  0  0  0
  -11.6744    0.5573  -24.1761 C   0  0  0  0  0  0  0  0  0  0  0  0
  -10.3080    0.4709  -24.1147 C   0  0  0  0  0  0  0  0  0  0  0  0
   -9.5054    1.4861  -24.7881 C   0  0  0  0  0  0  0  0  0  0  0  0
  -10.0278    2.4368  -25.4143 O   0  0  0  0  0  0  0  0  0  0  0  0
   -5.4974   -0.0817  -20.9212 C   0  0  0  0  0  0  0  0  0  0  0  0
   -5.5407   -0.2899  -19.5765 C   0  0  0  0  0  0  0  0  0  0  0  0
   -4.5894    0.3058  -18.8215 N   0  0  0  0  0  0  0  0  0  0  0  0
   -3.6149    1.0882  -19.3594 C   0  0  0  0  0  0  0  0  0  0  0  0
   -3.5414    1.3197  -20.7127 C   0  0  0  0  0  0  0  0  0  0  0  0
   -2.5730    2.1046  -21.3035 C   0  0  0  0  0  0  0  0  0  0  0  0
   -2.5565    2.2955  -22.6647 C   0  0  0  0  0  0  0  0  0  0  0  0
   -3.5070    1.7084  -23.4801 C   0  0  0  0  0  0  0  0  0  0  0  0
   -4.4681    0.9266  -22.8728 C   0  0  0  0  0  0  0  0  0  0  0  0
   -4.5066    0.7183  -21.5014 C   0  0  0  0  0  0  0  0  0  0  0  0
   -7.2961    2.4721  -25.1727 C   0  0  0  0  0  0  0  0  0  0  0  0
   -6.9433    4.8255  -22.1305 C   0  0  0  0  0  0  0  0  0  0  0  0
   -6.8883    3.5963  -22.9054 N   0  0  0  0  0  0  0  0  0  0  0  0
   -7.2911    3.6075  -24.2638 C   0  0  0  0  0  0  0  0  0  0  0  0
   -7.6858    4.7358  -24.7153 O   0  0  0  0  0  0  0  0  0  0  0  0
   -6.5733    2.7617  -22.4889 H   0  0  0  0  0  0  0  0  0  0  0  0
   -7.6918   -2.9600  -24.3629 C   0  0  0  0  0  0  0  0  0  0  0  0
   -8.5881   -4.0160  -24.2218 O   0  0  0  0  0  0  0  0  0  0  0  0
   -8.7676   -4.7808  -25.3471 C   0  0  0  0  0  0  0  0  0  0  0  0
   -9.6953   -4.0756  -26.3452 C   0  0  0  0  0  0  0  0  0  0  0  0
   -7.4253   -4.8978  -26.0432 C   0  0  0  0  0  0  0  0  0  0  0  0
 29 30  1  0  0  0
 30 31  1  0  0  0
 30 33  1  0  0  0
 31 32  2  0  0  0
 31 28  1  0  0  0
 28  1  1  0  0  0
  1  2  1  0  0  0
  3  2  1  0  0  0
  3  4  1  0  0  0
  3  9  1  0  0  0
  4  5  2  0  0  0
  4  6  1  0  0  0
  6 18  1  0  0  0
  6  7  1  0  0  0
 18 19  2  0  0  0
 19 20  1  0  0  0
 20 21  2  0  0  0
 21 22  1  0  0  0
 22 23  2  0  0  0
 23 24  1  0  0  0
 24 25  2  0  0  0
 25 26  1  0  0  0
 26 27  2  0  0  0
 27 18  1  0  0  0
 27 22  1  0  0  0
  7  8  1  0  0  0
  8 34  1  0  0  0
  8  3  1  0  0  0
 34 35  1  0  0  0
 35 36  1  0  0  0
 36 37  1  0  0  0
 36 38  1  0  0  0
  9 10  2  0  0  0
 10 11  1  0  0  0
 11 12  1  0  0  0
 11 13  2  0  0  0
 13 14  1  0  0  0
 14 15  2  0  0  0
 15 16  1  0  0  0
 15  9  1  0  0  0
 16 17  2  0  0  0
 16  1  1  0  0  0
M  END
> <minimizedAffinity>
-6.89235

> <CNNscore>
0.5370273590

> <CNNaffinity>
6.4157166481

> <CNN_VS>
3.4454152584

> <CNNaffinity_variance>
0.0796278268

$$$$



 38 42  0  0  0  0  0  0  0  0999 V2000
   -7.9305   -2.3612  -23.6842 N   0  0  0  0  0  0  0  0  0  0  0  0
   -7.9357   -1.0174  -24.1518 C   0  0  0  0  0  0  0  0  0  0  0  0
   -7.4372   -0.0476  -23.1699 C   0  0  0  0  0  0  0  0  0  0  0  0
   -8.7041    0.4994  -22.5230 C   0  0  0  0  0  0  0  0  0  0  0  0
   -9.1029    0.3428  -21.3548 O   0  0  0  0  0  0  0  0  0  0  0  0
   -9.3058    1.2357  -23.6091 N   0  0  0  0  0  0  0  0  0  0  0  0
   -8.2625    1.5706  -24.5840 C   0  0  0  0  0  0  0  0  0  0  0  0
   -6.9991    1.2574  -23.7570 C   0  0  0  0  0  0  0  0  0  0  0  0
   -6.6415   -0.5982  -22.1117 C   0  0  0  0  0  0  0  0  0  0  0  0
   -5.9460    0.2956  -21.2728 C   0  0  0  0  0  0  0  0  0  0  0  0
   -5.1661   -0.1559  -20.2280 C   0  0  0  0  0  0  0  0  0  0  0  0
   -4.3073    0.9864  -19.1951 Cl  0  0  0  0  0  0  0  0  0  0  0  0
   -5.0152   -1.4947  -19.9362 C   0  0  0  0  0  0  0  0  0  0  0  0
   -5.6897   -2.3821  -20.7486 C   0  0  0  0  0  0  0  0  0  0  0  0
   -6.4626   -1.9267  -21.7846 C   0  0  0  0  0  0  0  0  0  0  0  0
   -7.1555   -2.8952  -22.6274 C   0  0  0  0  0  0  0  0  0  0  0  0
   -7.0700   -4.1288  -22.4281 O   0  0  0  0  0  0  0  0  0  0  0  0
  -10.6972    1.5588  -23.6730 C   0  0  0  0  0  0  0  0  0  0  0  0
  -11.6927    0.6381  -23.5523 C   0  0  0  0  0  0  0  0  0  0  0  0
  -12.9677    1.0829  -23.6323 N   0  0  0  0  0  0  0  0  0  0  0  0
  -13.2719    2.3949  -23.8255 C   0  0  0  0  0  0  0  0  0  0  0  0
  -12.2921    3.3511  -23.9513 C   0  0  0  0  0  0  0  0  0  0  0  0
  -12.5515    4.6916  -24.1480 C   0  0  0  0  0  0  0  0  0  0  0  0
  -11.5236    5.5967  -24.2659 C   0  0  0  0  0  0  0  0  0  0  0  0
  -10.2031    5.1922  -24.1913 C   0  0  0  0  0  0  0  0  0  0  0  0
   -9.9617    3.8480  -23.9943 C   0  0  0  0  0  0  0  0  0  0  0  0
  -10.9812    2.9145  -23.8722 C   0  0  0  0  0  0  0  0  0  0  0  0
   -8.8054   -3.3137  -24.3891 C   0  0  0  0  0  0  0  0  0  0  0  0
  -12.2612   -2.8126  -22.7384 C   0  0  0  0  0  0  0  0  0  0  0  0
  -10.8239   -3.0091  -22.8387 N   0  0  0  0  0  0  0  0  0  0  0  0
  -10.2205   -3.1177  -24.1161 C   0  0  0  0  0  0  0  0  0  0  0  0
  -11.0151   -3.0329  -25.1131 O   0  0  0  0  0  0  0  0  0  0  0  0
  -10.2736   -3.0663  -22.0243 H   0  0  0  0  0  0  0  0  0  0  0  0
   -5.7948    1.2924  -24.5898 C   0  0  0  0  0  0  0  0  0  0  0  0
   -4.6950    1.8721  -23.9630 O   0  0  0  0  0  0  0  0  0  0  0  0
   -3.5127    1.1927  -24.1173 C   0  0  0  0  0  0  0  0  0  0  0  0
   -2.7542    1.1058  -22.7863 C   0  0  0  0  0  0  0  0  0  0  0  0
   -3.8492   -0.2373  -24.4944 C   0  0  0  0  0  0  0  0  0  0  0  0
 29 30  1  0  0  0
 30 31  1  0  0  0
 30 33  1  0  0  0
 31 32  2  0  0  0
 31 28  1  0  0  0
 28  1  1  0  0  0
  1  2  1  0  0  0
  3  2  1  0  0  0
  3  4  1  0  0  0
  3  9  1  0  0  0
  4  5  2  0  0  0
  4  6  1  0  0  0
  6 18  1  0  0  0
  6  7  1  0  0  0
 18 19  2  0  0  0
 19 20  1  0  0  0
 20 21  2  0  0  0
 21 22  1  0  0  0
 22 23  2  0  0  0
 23 24  1  0  0  0
 24 25  2  0  0  0
 25 26  1  0  0  0
 26 27  2  0  0  0
 27 18  1  0  0  0
 27 22  1  0  0  0
  7  8  1  0  0  0
  8 34  1  0  0  0
  8  3  1  0  0  0
 34 35  1  0  0  0
 35 36  1  0  0  0
 36 37  1  0  0  0
 36 38  1  0  0  0
  9 10  2  0  0  0
 10 11  1  0  0  0
 11 12  1  0  0  0
 11 13  2  0  0  0
 13 14  1  0  0  0
 14 15  2  0  0  0
 15 16  1  0  0  0
 15  9  1  0  0  0
 16 17  2  0  0  0
 16  1  1  0  0  0
M  END
> <minimizedAffinity>
-7.93703

> <CNNscore>
0.5319883823

> <CNNaffinity>
6.3813695908

> <CNN_VS>
3.3948144913

> <CNNaffinity_variance>
0.0988730565

$$$$



 38 42  0  0  0  0  0  0  0  0999 V2000
   -7.7811    2.7866  -23.9011 N   0  0  0  0  0  0  0  0  0  0  0  0
   -7.3967    1.4202  -23.8033 C   0  0  0  0  0  0  0  0  0  0  0  0
   -8.5045    0.5165  -23.4728 C   0  0  0  0  0  0  0  0  0  0  0  0
   -8.3891    0.3356  -21.9639 C   0  0  0  0  0  0  0  0  0  0  0  0
   -9.1673    0.7324  -21.0779 O   0  0  0  0  0  0  0  0  0  0  0  0
   -7.1575   -0.4073  -21.8407 N   0  0  0  0  0  0  0  0  0  0  0  0
   -6.8863   -1.0812  -23.1148 C   0  0  0  0  0  0  0  0  0  0  0  0
   -8.2531   -0.9197  -23.8106 C   0  0  0  0  0  0  0  0  0  0  0  0
   -9.8172    1.0359  -23.7240 C   0  0  0  0  0  0  0  0  0  0  0  0
  -10.9071    0.1456  -23.6477 C   0  0  0  0  0  0  0  0  0  0  0  0
  -12.2012    0.5703  -23.8683 C   0  0  0  0  0  0  0  0  0  0  0  0
  -13.5449   -0.5669  -23.7658 Cl  0  0  0  0  0  0  0  0  0  0  0  0
  -12.5135    1.8776  -24.1746 C   0  0  0  0  0  0  0  0  0  0  0  0
  -11.4573    2.7611  -24.2532 C   0  0  0  0  0  0  0  0  0  0  0  0
  -10.1744    2.3324  -24.0329 C   0  0  0  0  0  0  0  0  0  0  0  0
   -9.0818    3.2940  -24.1320 C   0  0  0  0  0  0  0  0  0  0  0  0
   -9.2823    4.4997  -24.4057 O   0  0  0  0  0  0  0  0  0  0  0  0
   -6.3705   -0.4453  -20.6475 C   0  0  0  0  0  0  0  0  0  0  0  0
   -6.6095   -1.2961  -19.6119 C   0  0  0  0  0  0  0  0  0  0  0  0
   -5.7849   -1.2246  -18.5420 N   0  0  0  0  0  0  0  0  0  0  0  0
   -4.7485   -0.3454  -18.4771 C   0  0  0  0  0  0  0  0  0  0  0  0
   -4.4785    0.5277  -19.5043 C   0  0  0  0  0  0  0  0  0  0  0  0
   -3.4404    1.4359  -19.4840 C   0  0  0  0  0  0  0  0  0  0  0  0
   -3.2253    2.2818  -20.5461 C   0  0  0  0  0  0  0  0  0  0  0  0
   -4.0404    2.2479  -21.6630 C   0  0  0  0  0  0  0  0  0  0  0  0
   -5.0738    1.3336  -21.6666 C   0  0  0  0  0  0  0  0  0  0  0  0
   -5.3120    0.4691  -20.6076 C   0  0  0  0  0  0  0  0  0  0  0  0
   -6.7092    3.7892  -23.7759 C   0  0  0  0  0  0  0  0  0  0  0  0
   -3.8152    3.4660  -26.3134 C   0  0  0  0  0  0  0  0  0  0  0  0
   -4.5531    3.2966  -25.0719 N   0  0  0  0  0  0  0  0  0  0  0  0
   -5.8439    3.8664  -24.9424 C   0  0  0  0  0  0  0  0  0  0  0  0
   -6.2713    4.5074  -25.9618 O   0  0  0  0  0  0  0  0  0  0  0  0
   -4.1584    2.7893  -24.3262 H   0  0  0  0  0  0  0  0  0  0  0  0
   -8.1843   -1.3159  -25.2189 C   0  0  0  0  0  0  0  0  0  0  0  0
   -6.9176   -1.7265  -25.6256 O   0  0  0  0  0  0  0  0  0  0  0  0
   -6.4403   -1.1083  -26.7542 C   0  0  0  0  0  0  0  0  0  0  0  0
   -6.2793   -2.1139  -27.9018 C   0  0  0  0  0  0  0  0  0  0  0  0
   -7.4926   -0.1190  -27.2171 C   0  0  0  0  0  0  0  0  0  0  0  0
 29 30  1  0  0  0
 30 31  1  0  0  0
 30 33  1  0  0  0
 31 32  2  0  0  0
 31 28  1  0  0  0
 28  1  1  0  0  0
  1  2  1  0  0  0
  3  2  1  0  0  0
  3  4  1  0  0  0
  3  9  1  0  0  0
  4  5  2  0  0  0
  4  6  1  0  0  0
  6 18  1  0  0  0
  6  7  1  0  0  0
 18 19  2  0  0  0
 19 20  1  0  0  0
 20 21  2  0  0  0
 21 22  1  0  0  0
 22 23  2  0  0  0
 23 24  1  0  0  0
 24 25  2  0  0  0
 25 26  1  0  0  0
 26 27  2  0  0  0
 27 18  1  0  0  0
 27 22  1  0  0  0
  7  8  1  0  0  0
  8 34  1  0  0  0
  8  3  1  0  0  0
 34 35  1  0  0  0
 35 36  1  0  0  0
 36 37  1  0  0  0
 36 38  1  0  0  0
  9 10  2  0  0  0
 10 11  1  0  0  0
 11 12  1  0  0  0
 11 13  2  0  0  0
 13 14  1  0  0  0
 14 15  2  0  0  0
 15 16  1  0  0  0
 15  9  1  0  0  0
 16 17  2  0  0  0
 16  1  1  0  0  0
M  END
> <minimizedAffinity>
-6.08408

> <CNNscore>
0.4641287327

> <CNNaffinity>
6.1706094742

> <CNN_VS>
2.8639571667

> <CNNaffinity_variance>
0.1354047358

$$$$



 38 42  0  0  0  0  0  0  0  0999 V2000
   -6.4920   -2.5344  -21.6962 N   0  0  0  0  0  0  0  0  0  0  0  0
   -7.6126   -1.9127  -22.3146 C   0  0  0  0  0  0  0  0  0  0  0  0
   -8.1558   -2.6673  -23.4497 C   0  0  0  0  0  0  0  0  0  0  0  0
   -7.5123   -2.0104  -24.6651 C   0  0  0  0  0  0  0  0  0  0  0  0
   -6.6736   -2.4915  -25.4481 O   0  0  0  0  0  0  0  0  0  0  0  0
   -8.1269   -0.7041  -24.6647 N   0  0  0  0  0  0  0  0  0  0  0  0
   -9.3852   -0.7775  -23.9147 C   0  0  0  0  0  0  0  0  0  0  0  0
   -9.5611   -2.3064  -23.8167 C   0  0  0  0  0  0  0  0  0  0  0  0
   -7.7950   -4.0544  -23.4945 C   0  0  0  0  0  0  0  0  0  0  0  0
   -8.4626   -4.8824  -24.4193 C   0  0  0  0  0  0  0  0  0  0  0  0
   -8.1664   -6.2255  -24.5286 C   0  0  0  0  0  0  0  0  0  0  0  0
   -9.0185   -7.2366  -25.6951 Cl  0  0  0  0  0  0  0  0  0  0  0  0
   -7.2097   -6.8425  -23.7511 C   0  0  0  0  0  0  0  0  0  0  0  0
   -6.5477   -6.0452  -22.8409 C   0  0  0  0  0  0  0  0  0  0  0  0
   -6.8469   -4.7118  -22.7377 C   0  0  0  0  0  0  0  0  0  0  0  0
   -6.1311   -3.9013  -21.7584 C   0  0  0  0  0  0  0  0  0  0  0  0
   -5.2477   -4.3864  -21.0147 O   0  0  0  0  0  0  0  0  0  0  0  0
   -7.5582    0.4397  -25.3072 C   0  0  0  0  0  0  0  0  0  0  0  0
   -7.4112    0.5534  -26.6558 C   0  0  0  0  0  0  0  0  0  0  0  0
   -6.8565    1.6925  -27.1296 N   0  0  0  0  0  0  0  0  0  0  0  0
   -6.4521    2.7021  -26.3120 C   0  0  0  0  0  0  0  0  0  0  0  0
   -6.5856    2.6208  -24.9460 C   0  0  0  0  0  0  0  0  0  0  0  0
   -6.1908    3.6173  -24.0777 C   0  0  0  0  0  0  0  0  0  0  0  0
   -6.3529    3.4721  -22.7203 C   0  0  0  0  0  0  0  0  0  0  0  0
   -6.9147    2.3266  -22.1863 C   0  0  0  0  0  0  0  0  0  0  0  0
   -7.3039    1.3401  -23.0689 C   0  0  0  0  0  0  0  0  0  0  0  0
   -7.1512    1.4622  -24.4428 C   0  0  0  0  0  0  0  0  0  0  0  0
   -5.6217   -1.6728  -20.8777 C   0  0  0  0  0  0  0  0  0  0  0  0
   -3.6672    0.1244  -23.6828 C   0  0  0  0  0  0  0  0  0  0  0  0
   -4.5218   -0.8663  -23.0482 N   0  0  0  0  0  0  0  0  0  0  0  0
   -4.7921   -0.7704  -21.6606 C   0  0  0  0  0  0  0  0  0  0  0  0
   -4.2432    0.2123  -21.0558 O   0  0  0  0  0  0  0  0  0  0  0  0
   -4.9100   -1.5988  -23.5791 H   0  0  0  0  0  0  0  0  0  0  0  0
  -10.6471   -2.6602  -22.9000 C   0  0  0  0  0  0  0  0  0  0  0  0
  -11.9177   -2.4089  -23.4110 O   0  0  0  0  0  0  0  0  0  0  0  0
  -12.7334   -1.6608  -22.5995 C   0  0  0  0  0  0  0  0  0  0  0  0
  -13.5144   -0.6231  -23.4164 C   0  0  0  0  0  0  0  0  0  0  0  0
  -13.7759   -2.5918  -22.0106 C   0  0  0  0  0  0  0  0  0  0  0  0
 29 30  1  0  0  0
 30 31  1  0  0  0
 30 33  1  0  0  0
 31 32  2  0  0  0
 31 28  1  0  0  0
 28  1  1  0  0  0
  1  2  1  0  0  0
  3  2  1  0  0  0
  3  4  1  0  0  0
  3  9  1  0  0  0
  4  5  2  0  0  0
  4  6  1  0  0  0
  6 18  1  0  0  0
  6  7  1  0  0  0
 18 19  2  0  0  0
 19 20  1  0  0  0
 20 21  2  0  0  0
 21 22  1  0  0  0
 22 23  2  0  0  0
 23 24  1  0  0  0
 24 25  2  0  0  0
 25 26  1  0  0  0
 26 27  2  0  0  0
 27 18  1  0  0  0
 27 22  1  0  0  0
  7  8  1  0  0  0
  8 34  1  0  0  0
  8  3  1  0  0  0
 34 35  1  0  0  0
 35 36  1  0  0  0
 36 37  1  0  0  0
 36 38  1  0  0  0
  9 10  2  0  0  0
 10 11  1  0  0  0
 11 12  1  0  0  0
 11 13  2  0  0  0
 13 14  1  0  0  0
 14 15  2  0  0  0
 15 16  1  0  0  0
 15  9  1  0  0  0
 16 17  2  0  0  0
 16  1  1  0  0  0
M  END
> <minimizedAffinity>
-7.31215

> <CNNscore>
0.3744657040

> <CNNaffinity>
6.3916277885

> <CNN_VS>
2.3934454918

> <CNNaffinity_variance>
0.0796155483

$$$$



 38 42  0  0  0  0  0  0  0  0999 V2000
   -7.0019   -1.9970  -22.2379 N   0  0  0  0  0  0  0  0  0  0  0  0
   -7.3802   -1.2413  -23.3826 C   0  0  0  0  0  0  0  0  0  0  0  0
   -6.9302    0.1548  -23.3446 C   0  0  0  0  0  0  0  0  0  0  0  0
   -8.1448    0.9149  -22.8251 C   0  0  0  0  0  0  0  0  0  0  0  0
   -8.2804    1.4994  -21.7351 O   0  0  0  0  0  0  0  0  0  0  0  0
   -9.0783    0.7782  -23.9177 N   0  0  0  0  0  0  0  0  0  0  0  0
   -8.3271    0.4888  -25.1436 C   0  0  0  0  0  0  0  0  0  0  0  0
   -6.8966    0.8304  -24.6797 C   0  0  0  0  0  0  0  0  0  0  0  0
   -5.8554    0.4296  -22.4361 C   0  0  0  0  0  0  0  0  0  0  0  0
   -5.2261    1.6881  -22.5166 C   0  0  0  0  0  0  0  0  0  0  0  0
   -4.1901    2.0309  -21.6722 C   0  0  0  0  0  0  0  0  0  0  0  0
   -3.4220    3.6132  -21.7965 Cl  0  0  0  0  0  0  0  0  0  0  0  0
   -3.7052    1.1775  -20.7043 C   0  0  0  0  0  0  0  0  0  0  0  0
   -4.3108   -0.0584  -20.6133 C   0  0  0  0  0  0  0  0  0  0  0  0
   -5.3394   -0.3923  -21.4552 C   0  0  0  0  0  0  0  0  0  0  0  0
   -5.9508   -1.7113  -21.3345 C   0  0  0  0  0  0  0  0  0  0  0  0
   -5.5681   -2.5441  -20.4807 O   0  0  0  0  0  0  0  0  0  0  0  0
  -10.4943    0.9134  -23.7721 C   0  0  0  0  0  0  0  0  0  0  0  0
  -11.1646    2.0834  -23.9593 C   0  0  0  0  0  0  0  0  0  0  0  0
  -12.5063    2.0687  -23.7883 N   0  0  0  0  0  0  0  0  0  0  0  0
  -13.1854    0.9415  -23.4426 C   0  0  0  0  0  0  0  0  0  0  0  0
  -12.5406   -0.2567  -23.2457 C   0  0  0  0  0  0  0  0  0  0  0  0
  -13.1856   -1.4245  -22.8948 C   0  0  0  0  0  0  0  0  0  0  0  0
  -12.4800   -2.5902  -22.7130 C   0  0  0  0  0  0  0  0  0  0  0  0
  -11.1070   -2.6272  -22.8758 C   0  0  0  0  0  0  0  0  0  0  0  0
  -10.4780   -1.4504  -23.2269 C   0  0  0  0  0  0  0  0  0  0  0  0
  -11.1671   -0.2608  -23.4162 C   0  0  0  0  0  0  0  0  0  0  0  0
   -7.7663   -3.2277  -21.9716 C   0  0  0  0  0  0  0  0  0  0  0  0
   -7.9922   -5.9763  -24.6758 C   0  0  0  0  0  0  0  0  0  0  0  0
   -8.4295   -4.9124  -23.7862 N   0  0  0  0  0  0  0  0  0  0  0  0
   -7.4939   -4.2992  -22.9166 C   0  0  0  0  0  0  0  0  0  0  0  0
   -6.2988   -4.7464  -22.9844 O   0  0  0  0  0  0  0  0  0  0  0  0
   -9.3696   -4.6200  -23.7882 H   0  0  0  0  0  0  0  0  0  0  0  0
   -5.9007    0.4047  -25.6656 C   0  0  0  0  0  0  0  0  0  0  0  0
   -6.3851   -0.5144  -26.5925 O   0  0  0  0  0  0  0  0  0  0  0  0
   -5.4677   -1.4354  -27.0324 C   0  0  0  0  0  0  0  0  0  0  0  0
   -4.4793   -0.7957  -28.0163 C   0  0  0  0  0  0  0  0  0  0  0  0
   -4.6393   -1.8670  -25.8375 C   0  0  0  0  0  0  0  0  0  0  0  0
 29 30  1  0  0  0
 30 31  1  0  0  0
 30 33  1  0  0  0
 31 32  2  0  0  0
 31 28  1  0  0  0
 28  1  1  0  0  0
  1  2  1  0  0  0
  3  2  1  0  0  0
  3  4  1  0  0  0
  3  9  1  0  0  0
  4  5  2  0  0  0
  4  6  1  0  0  0
  6 18  1  0  0  0
  6  7  1  0  0  0
 18 19  2  0  0  0
 19 20  1  0  0  0
 20 21  2  0  0  0
 21 22  1  0  0  0
 22 23  2  0  0  0
 23 24  1  0  0  0
 24 25  2  0  0  0
 25 26  1  0  0  0
 26 27  2  0  0  0
 27 18  1  0  0  0
 27 22  1  0  0  0
  7  8  1  0  0  0
  8 34  1  0  0  0
  8  3  1  0  0  0
 34 35  1  0  0  0
 35 36  1  0  0  0
 36 37  1  0  0  0
 36 38  1  0  0  0
  9 10  2  0  0  0
 10 11  1  0  0  0
 11 12  1  0  0  0
 11 13  2  0  0  0
 13 14  1  0  0  0
 14 15  2  0  0  0
 15 16  1  0  0  0
 15  9  1  0  0  0
 16 17  2  0  0  0
 16  1  1  0  0  0
M  END
> <minimizedAffinity>
-7.03987

> <CNNscore>
0.3619076908

> <CNNaffinity>
6.2125520706

> <CNN_VS>
2.2483704090

> <CNNaffinity_variance>
0.0373566002

$$$$



 38 42  0  0  0  0  0  0  0  0999 V2000
   -8.1126   -2.3282  -23.7656 N   0  0  0  0  0  0  0  0  0  0  0  0
   -8.0447   -1.0128  -24.3036 C   0  0  0  0  0  0  0  0  0  0  0  0
   -7.4076   -0.0400  -23.4087 C   0  0  0  0  0  0  0  0  0  0  0  0
   -8.5818    0.6387  -22.7135 C   0  0  0  0  0  0  0  0  0  0  0  0
   -8.9123    0.5720  -21.5159 O   0  0  0  0  0  0  0  0  0  0  0  0
   -9.1959    1.3678  -23.7977 N   0  0  0  0  0  0  0  0  0  0  0  0
   -8.1974    1.5691  -24.8530 C   0  0  0  0  0  0  0  0  0  0  0  0
   -6.9096    1.1951  -24.0915 C   0  0  0  0  0  0  0  0  0  0  0  0
   -6.5879   -0.6013  -22.3746 C   0  0  0  0  0  0  0  0  0  0  0  0
   -5.7703    0.2729  -21.6305 C   0  0  0  0  0  0  0  0  0  0  0  0
   -4.9595   -0.1890  -20.6141 C   0  0  0  0  0  0  0  0  0  0  0  0
   -3.9472    0.9287  -19.7003 Cl  0  0  0  0  0  0  0  0  0  0  0  0
   -4.8939   -1.5199  -20.2608 C   0  0  0  0  0  0  0  0  0  0  0  0
   -5.6884   -2.3881  -20.9801 C   0  0  0  0  0  0  0  0  0  0  0  0
   -6.4913   -1.9224  -21.9884 C   0  0  0  0  0  0  0  0  0  0  0  0
   -7.3123   -2.8713  -22.7325 C   0  0  0  0  0  0  0  0  0  0  0  0
   -7.3099   -4.0967  -22.4729 O   0  0  0  0  0  0  0  0  0  0  0  0
  -10.5591    1.7991  -23.7910 C   0  0  0  0  0  0  0  0  0  0  0  0
  -10.9429    3.0927  -23.9718 C   0  0  0  0  0  0  0  0  0  0  0  0
  -12.2685    3.3607  -23.9417 N   0  0  0  0  0  0  0  0  0  0  0  0
  -13.2040    2.3936  -23.7403 C   0  0  0  0  0  0  0  0  0  0  0  0
  -12.8519    1.0776  -23.5544 C   0  0  0  0  0  0  0  0  0  0  0  0
  -13.7635    0.0633  -23.3470 C   0  0  0  0  0  0  0  0  0  0  0  0
  -13.3439   -1.2334  -23.1677 C   0  0  0  0  0  0  0  0  0  0  0  0
  -11.9998   -1.5590  -23.1897 C   0  0  0  0  0  0  0  0  0  0  0  0
  -11.1018   -0.5324  -23.3983 C   0  0  0  0  0  0  0  0  0  0  0  0
  -11.4996    0.7843  -23.5819 C   0  0  0  0  0  0  0  0  0  0  0  0
   -9.1043   -3.2397  -24.3618 C   0  0  0  0  0  0  0  0  0  0  0  0
   -7.1120   -4.8163  -27.2710 C   0  0  0  0  0  0  0  0  0  0  0  0
   -7.5660   -3.8013  -26.3339 N   0  0  0  0  0  0  0  0  0  0  0  0
   -8.5466   -4.1319  -25.3660 C   0  0  0  0  0  0  0  0  0  0  0  0
   -8.9700   -5.3371  -25.3955 O   0  0  0  0  0  0  0  0  0  0  0  0
   -7.1944   -2.8904  -26.3716 H   0  0  0  0  0  0  0  0  0  0  0  0
   -5.7648    1.0917  -24.9992 C   0  0  0  0  0  0  0  0  0  0  0  0
   -6.0788    1.3497  -26.3308 O   0  0  0  0  0  0  0  0  0  0  0  0
   -5.5953    0.4330  -27.2305 C   0  0  0  0  0  0  0  0  0  0  0  0
   -4.5251    1.0632  -28.1316 C   0  0  0  0  0  0  0  0  0  0  0  0
   -4.8858   -0.6531  -26.4449 C   0  0  0  0  0  0  0  0  0  0  0  0
 29 30  1  0  0  0
 30 31  1  0  0  0
 30 33  1  0  0  0
 31 32  2  0  0  0
 31 28  1  0  0  0
 28  1  1  0  0  0
  1  2  1  0  0  0
  3  2  1  0  0  0
  3  4  1  0  0  0
  3  9  1  0  0  0
  4  5  2  0  0  0
  4  6  1  0  0  0
  6 18  1  0  0  0
  6  7  1  0  0  0
 18 19  2  0  0  0
 19 20  1  0  0  0
 20 21  2  0  0  0
 21 22  1  0  0  0
 22 23  2  0  0  0
 23 24  1  0  0  0
 24 25  2  0  0  0
 25 26  1  0  0  0
 26 27  2  0  0  0
 27 18  1  0  0  0
 27 22  1  0  0  0
  7  8  1  0  0  0
  8 34  1  0  0  0
  8  3  1  0  0  0
 34 35  1  0  0  0
 35 36  1  0  0  0
 36 37  1  0  0  0
 36 38  1  0  0  0
  9 10  2  0  0  0
 10 11  1  0  0  0
 11 12  1  0  0  0
 11 13  2  0  0  0
 13 14  1  0  0  0
 14 15  2  0  0  0
 15 16  1  0  0  0
 15  9  1  0  0  0
 16 17  2  0  0  0
 16  1  1  0  0  0
M  END
> <minimizedAffinity>
-7.12678

> <CNNscore>
0.2492545992

> <CNNaffinity>
6.0216436386

> <CNN_VS>
1.5009223223

> <CNNaffinity_variance>
0.1812949479

$$$$



 38 42  0  0  0  0  0  0  0  0999 V2000
   -6.9110   -2.6533  -22.2908 N   0  0  0  0  0  0  0  0  0  0  0  0
   -7.4010   -1.8742  -23.3759 C   0  0  0  0  0  0  0  0  0  0  0  0
   -7.1309   -0.4381  -23.2422 C   0  0  0  0  0  0  0  0  0  0  0  0
   -8.4232    0.1228  -22.6607 C   0  0  0  0  0  0  0  0  0  0  0  0
   -8.6137    0.6079  -21.5309 O   0  0  0  0  0  0  0  0  0  0  0  0
   -9.3499   -0.0555  -23.7531 N   0  0  0  0  0  0  0  0  0  0  0  0
   -8.5885   -0.1607  -25.0022 C   0  0  0  0  0  0  0  0  0  0  0  0
   -7.2053    0.3274  -24.5260 C   0  0  0  0  0  0  0  0  0  0  0  0
   -6.0846   -0.0924  -22.3246 C   0  0  0  0  0  0  0  0  0  0  0  0
   -5.6214    1.2387  -22.3202 C   0  0  0  0  0  0  0  0  0  0  0  0
   -4.6233    1.6512  -21.4615 C   0  0  0  0  0  0  0  0  0  0  0  0
   -4.0641    3.3234  -21.4788 Cl  0  0  0  0  0  0  0  0  0  0  0  0
   -4.0182    0.8014  -20.5605 C   0  0  0  0  0  0  0  0  0  0  0  0
   -4.4607   -0.5050  -20.5530 C   0  0  0  0  0  0  0  0  0  0  0  0
   -5.4525   -0.9079  -21.4086 C   0  0  0  0  0  0  0  0  0  0  0  0
   -5.8897   -2.2994  -21.3774 C   0  0  0  0  0  0  0  0  0  0  0  0
   -5.3904   -3.1339  -20.5880 O   0  0  0  0  0  0  0  0  0  0  0  0
  -10.7690   -0.1125  -23.5876 C   0  0  0  0  0  0  0  0  0  0  0  0
  -11.4582   -1.2659  -23.3683 C   0  0  0  0  0  0  0  0  0  0  0  0
  -12.8007   -1.1744  -23.2297 N   0  0  0  0  0  0  0  0  0  0  0  0
  -13.4624    0.0122  -23.3021 C   0  0  0  0  0  0  0  0  0  0  0  0
  -12.7982    1.1957  -23.5222 C   0  0  0  0  0  0  0  0  0  0  0  0
  -13.4253    2.4217  -23.6034 C   0  0  0  0  0  0  0  0  0  0  0  0
  -12.7009    3.5687  -23.8257 C   0  0  0  0  0  0  0  0  0  0  0  0
  -11.3264    3.5281  -23.9743 C   0  0  0  0  0  0  0  0  0  0  0  0
  -10.7154    2.2938  -23.8903 C   0  0  0  0  0  0  0  0  0  0  0  0
  -11.4238    1.1217  -23.6666 C   0  0  0  0  0  0  0  0  0  0  0  0
   -7.5087   -3.9869  -22.1069 C   0  0  0  0  0  0  0  0  0  0  0  0
   -8.0608   -6.3371  -25.1220 C   0  0  0  0  0  0  0  0  0  0  0  0
   -8.3905   -5.4894  -23.9874 N   0  0  0  0  0  0  0  0  0  0  0  0
   -7.3505   -4.8607  -23.2588 C   0  0  0  0  0  0  0  0  0  0  0  0
   -6.1642   -5.0979  -23.6701 O   0  0  0  0  0  0  0  0  0  0  0  0
   -9.3301   -5.3533  -23.7271 H   0  0  0  0  0  0  0  0  0  0  0  0
   -6.1800    0.1019  -25.5473 C   0  0  0  0  0  0  0  0  0  0  0  0
   -6.6028   -0.7071  -26.5986 O   0  0  0  0  0  0  0  0  0  0  0  0
   -5.7803   -1.7683  -26.8830 C   0  0  0  0  0  0  0  0  0  0  0  0
   -4.6402   -1.8657  -25.8608 C   0  0  0  0  0  0  0  0  0  0  0  0
   -6.5929   -3.0381  -26.7170 C   0  0  0  0  0  0  0  0  0  0  0  0
 29 30  1  0  0  0
 30 31  1  0  0  0
 30 33  1  0  0  0
 31 32  2  0  0  0
 31 28  1  0  0  0
 28  1  1  0  0  0
  1  2  1  0  0  0
  3  2  1  0  0  0
  3  4  1  0  0  0
  3  9  1  0  0  0
  4  5  2  0  0  0
  4  6  1  0  0  0
  6 18  1  0  0  0
  6  7  1  0  0  0
 18 19  2  0  0  0
 19 20  1  0  0  0
 20 21  2  0  0  0
 21 22  1  0  0  0
 22 23  2  0  0  0
 23 24  1  0  0  0
 24 25  2  0  0  0
 25 26  1  0  0  0
 26 27  2  0  0  0
 27 18  1  0  0  0
 27 22  1  0  0  0
  7  8  1  0  0  0
  8 34  1  0  0  0
  8  3  1  0  0  0
 34 35  1  0  0  0
 35 36  1  0  0  0
 36 37  1  0  0  0
 36 38  1  0  0  0
  9 10  2  0  0  0
 10 11  1  0  0  0
 11 12  1  0  0  0
 11 13  2  0  0  0
 13 14  1  0  0  0
 14 15  2  0  0  0
 15 16  1  0  0  0
 15  9  1  0  0  0
 16 17  2  0  0  0
 16  1  1  0  0  0
M  END
> <minimizedAffinity>
-7.37704

> <CNNscore>
0.1912176609

> <CNNaffinity>
5.9707932472

> <CNN_VS>
1.1417211294

> <CNNaffinity_variance>
0.1599961519

$$$$



 38 42  0  0  0  0  0  0  0  0999 V2000
   -6.0397   -2.2896  -21.5867 N   0  0  0  0  0  0  0  0  0  0  0  0
   -6.8488   -1.2169  -22.0548 C   0  0  0  0  0  0  0  0  0  0  0  0
   -7.6015   -1.5324  -23.2742 C   0  0  0  0  0  0  0  0  0  0  0  0
   -6.7388   -0.9604  -24.3928 C   0  0  0  0  0  0  0  0  0  0  0  0
   -6.1115   -1.5751  -25.2741 O   0  0  0  0  0  0  0  0  0  0  0  0
   -6.8440    0.4605  -24.1606 N   0  0  0  0  0  0  0  0  0  0  0  0
   -8.0609    0.7206  -23.3844 C   0  0  0  0  0  0  0  0  0  0  0  0
   -8.7755   -0.6387  -23.5250 C   0  0  0  0  0  0  0  0  0  0  0  0
   -7.7613   -2.9297  -23.5536 C   0  0  0  0  0  0  0  0  0  0  0  0
   -8.6609   -3.3024  -24.5725 C   0  0  0  0  0  0  0  0  0  0  0  0
   -8.8638   -4.6258  -24.9059 C   0  0  0  0  0  0  0  0  0  0  0  0
   -9.9960   -5.0616  -26.1855 Cl  0  0  0  0  0  0  0  0  0  0  0  0
   -8.2093   -5.6614  -24.2740 C   0  0  0  0  0  0  0  0  0  0  0  0
   -7.3255   -5.3126  -23.2741 C   0  0  0  0  0  0  0  0  0  0  0  0
   -7.1288   -3.9961  -22.9481 C   0  0  0  0  0  0  0  0  0  0  0  0
   -6.1917   -3.6657  -21.8800 C   0  0  0  0  0  0  0  0  0  0  0  0
   -5.5575   -4.5483  -21.2575 O   0  0  0  0  0  0  0  0  0  0  0  0
   -5.8889    1.4139  -24.6334 C   0  0  0  0  0  0  0  0  0  0  0  0
   -5.7384    1.7453  -25.9452 C   0  0  0  0  0  0  0  0  0  0  0  0
   -4.7945    2.6642  -26.2528 N   0  0  0  0  0  0  0  0  0  0  0  0
   -4.0116    3.2506  -25.3070 C   0  0  0  0  0  0  0  0  0  0  0  0
   -4.1367    2.9396  -23.9736 C   0  0  0  0  0  0  0  0  0  0  0  0
   -3.3666    3.5071  -22.9798 C   0  0  0  0  0  0  0  0  0  0  0  0
   -3.5431    3.1511  -21.6638 C   0  0  0  0  0  0  0  0  0  0  0  0
   -4.4946    2.2164  -21.2978 C   0  0  0  0  0  0  0  0  0  0  0  0
   -5.2560    1.6589  -22.3044 C   0  0  0  0  0  0  0  0  0  0  0  0
   -5.0976    2.0011  -23.6399 C   0  0  0  0  0  0  0  0  0  0  0  0
   -4.9364   -1.9412  -20.6751 C   0  0  0  0  0  0  0  0  0  0  0  0
   -5.4023    0.3384  -17.5921 C   0  0  0  0  0  0  0  0  0  0  0  0
   -4.8427   -0.1526  -18.8412 N   0  0  0  0  0  0  0  0  0  0  0  0
   -5.3779   -1.3224  -19.4351 C   0  0  0  0  0  0  0  0  0  0  0  0
   -6.3424   -1.8730  -18.8032 O   0  0  0  0  0  0  0  0  0  0  0  0
   -4.0968    0.3247  -19.2715 H   0  0  0  0  0  0  0  0  0  0  0  0
   -9.9361   -0.7252  -22.6358 C   0  0  0  0  0  0  0  0  0  0  0  0
  -11.0892   -0.1467  -23.1594 O   0  0  0  0  0  0  0  0  0  0  0  0
  -12.0047   -1.0331  -23.6689 C   0  0  0  0  0  0  0  0  0  0  0  0
  -12.0424   -2.3203  -22.8346 C   0  0  0  0  0  0  0  0  0  0  0  0
  -13.3793   -0.4083  -23.5258 C   0  0  0  0  0  0  0  0  0  0  0  0
 29 30  1  0  0  0
 30 31  1  0  0  0
 30 33  1  0  0  0
 31 32  2  0  0  0
 31 28  1  0  0  0
 28  1  1  0  0  0
  1  2  1  0  0  0
  3  2  1  0  0  0
  3  4  1  0  0  0
  3  9  1  0  0  0
  4  5  2  0  0  0
  4  6  1  0  0  0
  6 18  1  0  0  0
  6  7  1  0  0  0
 18 19  2  0  0  0
 19 20  1  0  0  0
 20 21  2  0  0  0
 21 22  1  0  0  0
 22 23  2  0  0  0
 23 24  1  0  0  0
 24 25  2  0  0  0
 25 26  1  0  0  0
 26 27  2  0  0  0
 27 18  1  0  0  0
 27 22  1  0  0  0
  7  8  1  0  0  0
  8 34  1  0  0  0
  8  3  1  0  0  0
 34 35  1  0  0  0
 35 36  1  0  0  0
 36 37  1  0  0  0
 36 38  1  0  0  0
  9 10  2  0  0  0
 10 11  1  0  0  0
 11 12  1  0  0  0
 11 13  2  0  0  0
 13 14  1  0  0  0
 14 15  2  0  0  0
 15 16  1  0  0  0
 15  9  1  0  0  0
 16 17  2  0  0  0
 16  1  1  0  0  0
M  END
> <minimizedAffinity>
-7.08767

> <CNNscore>
0.1809685826

> <CNNaffinity>
6.0975351334

> <CNN_VS>
1.1034623384

> <CNNaffinity_variance>
0.2281410396

$$$$



 35 40  0  0  0  0  0  0  0  0999 V2000
   -6.5185    0.7077  -22.9346 C   0  0  0  0  0  0  0  0  0  0  0  0
   -7.9248    0.1905  -22.7299 C   0  0  0  0  0  0  0  0  0  0  0  0
   -8.7639    1.4218  -22.4756 C   0  0  0  0  0  0  0  0  0  0  0  0
   -9.0400    1.9333  -23.7982 N   0  0  0  0  0  0  0  0  0  0  0  0
   -8.7663    0.9061  -24.7461 C   0  0  0  0  0  0  0  0  0  0  0  0
   -8.7937    1.0876  -25.9954 O   0  0  0  0  0  0  0  0  0  0  0  0
   -8.4547   -0.3686  -24.0085 C   0  0  0  0  0  0  0  0  0  0  0  0
   -7.5396   -1.2432  -24.7721 C   0  0  0  0  0  0  0  0  0  0  0  0
   -7.4336   -2.5680  -24.2199 N   0  0  0  0  0  0  0  0  0  0  0  0
   -8.6306   -3.2490  -23.7894 C   0  0  0  0  0  0  0  0  0  0  0  0
   -8.6866   -4.4824  -23.6292 O   0  0  0  0  0  0  0  0  0  0  0  0
   -9.8133   -2.4539  -23.5372 C   0  0  0  0  0  0  0  0  0  0  0  0
  -10.9753   -3.1216  -23.2179 C   0  0  0  0  0  0  0  0  0  0  0  0
  -12.1515   -2.4325  -23.0612 C   0  0  0  0  0  0  0  0  0  0  0  0
  -12.1095   -1.0678  -23.2369 C   0  0  0  0  0  0  0  0  0  0  0  0
  -13.2633   -0.3808  -23.0863 F   0  0  0  0  0  0  0  0  0  0  0  0
  -10.9361   -0.4039  -23.5571 C   0  0  0  0  0  0  0  0  0  0  0  0
   -9.7249   -1.0967  -23.7175 C   0  0  0  0  0  0  0  0  0  0  0  0
   -9.5209    3.2626  -24.0274 C   0  0  0  0  0  0  0  0  0  0  0  0
   -8.6787    4.3398  -24.2410 C   0  0  0  0  0  0  0  0  0  0  0  0
   -9.1382    5.5942  -24.4514 N   0  0  0  0  0  0  0  0  0  0  0  0
  -10.4317    5.8746  -24.4667 C   0  0  0  0  0  0  0  0  0  0  0  0
  -11.3307    4.8668  -24.2637 C   0  0  0  0  0  0  0  0  0  0  0  0
  -12.6791    5.1681  -24.2781 C   0  0  0  0  0  0  0  0  0  0  0  0
  -13.6051    4.1731  -24.0731 C   0  0  0  0  0  0  0  0  0  0  0  0
  -13.1858    2.8759  -23.8533 C   0  0  0  0  0  0  0  0  0  0  0  0
  -11.8339    2.6156  -23.8465 C   0  0  0  0  0  0  0  0  0  0  0  0
  -10.8812    3.5617  -24.0440 C   0  0  0  0  0  0  0  0  0  0  0  0
   -6.2154   -3.3268  -24.1080 C   0  0  0  0  0  0  0  0  0  0  0  0
   -5.6927   -3.9226  -25.3396 C   0  0  0  0  0  0  0  0  0  0  0  0
   -6.0238   -5.1477  -25.7829 N   0  0  0  0  0  0  0  0  0  0  0  0
   -5.3973   -5.4488  -26.9244 C   0  0  0  0  0  0  0  0  0  0  0  0
   -4.6226   -4.3639  -27.2337 C   0  0  0  0  0  0  0  0  0  0  0  0
   -4.8213   -3.4464  -26.2497 N   0  0  0  0  0  0  0  0  0  0  0  0
   -4.1516   -2.1740  -26.2500 C   0  0  0  0  0  0  0  0  0  0  0  0
  2  1  1  0  0  0
  2  3  1  0  0  0
  3  4  1  0  0  0
  4 19  1  0  0  0
  4  5  1  0  0  0
 19 20  2  0  0  0
 20 21  1  0  0  0
 21 22  2  0  0  0
 22 23  1  0  0  0
 23 24  2  0  0  0
 24 25  1  0  0  0
 25 26  2  0  0  0
 26 27  1  0  0  0
 27 28  2  0  0  0
 28 19  1  0  0  0
 28 23  1  0  0  0
  5  6  2  0  0  0
  7  5  1  0  0  0
  7  8  1  0  0  0
  7  2  1  0  0  0
  8  9  1  0  0  0
  9 29  1  0  0  0
  9 10  1  0  0  0
 29 30  1  0  0  0
 30 31  2  0  0  0
 31 32  1  0  0  0
 32 33  2  0  0  0
 33 34  1  0  0  0
 34 35  1  0  0  0
 34 30  1  0  0  0
 10 11  2  0  0  0
 10 12  1  0  0  0
 12 13  2  0  0  0
 13 14  1  0  0  0
 14 15  2  0  0  0
 15 16  1  0  0  0
 15 17  1  0  0  0
 17 18  2  0  0  0
 18 12  1  0  0  0
 18  7  1  0  0  0
M  END
> <minimizedAffinity>
-7.45652

> <CNNscore>
0.2812492847

> <CNNaffinity>
6.2246732712

> <CNN_VS>
1.7506848574

> <CNNaffinity_variance>
0.0885069221

$$$$



 35 40  0  0  0  0  0  0  0  0999 V2000
   -8.6404    0.3217  -21.7578 C   0  0  0  0  0  0  0  0  0  0  0  0
   -7.8077   -0.0683  -22.9585 C   0  0  0  0  0  0  0  0  0  0  0  0
   -6.5526    0.7678  -22.8553 C   0  0  0  0  0  0  0  0  0  0  0  0
   -5.7252    0.0385  -21.9221 N   0  0  0  0  0  0  0  0  0  0  0  0
   -6.2352   -1.2863  -21.8058 C   0  0  0  0  0  0  0  0  0  0  0  0
   -5.7998   -2.1280  -20.9714 O   0  0  0  0  0  0  0  0  0  0  0  0
   -7.3345   -1.4768  -22.8164 C   0  0  0  0  0  0  0  0  0  0  0  0
   -8.3381   -2.4646  -22.3663 C   0  0  0  0  0  0  0  0  0  0  0  0
   -9.2475   -2.8601  -23.4093 N   0  0  0  0  0  0  0  0  0  0  0  0
   -8.7281   -3.1481  -24.7242 C   0  0  0  0  0  0  0  0  0  0  0  0
   -9.3577   -3.8103  -25.5700 O   0  0  0  0  0  0  0  0  0  0  0  0
   -7.4155   -2.6420  -25.0640 C   0  0  0  0  0  0  0  0  0  0  0  0
   -6.8895   -3.0009  -26.2857 C   0  0  0  0  0  0  0  0  0  0  0  0
   -5.6124   -2.6330  -26.6269 C   0  0  0  0  0  0  0  0  0  0  0  0
   -4.8999   -1.9023  -25.7031 C   0  0  0  0  0  0  0  0  0  0  0  0
   -3.6406   -1.5369  -26.0295 F   0  0  0  0  0  0  0  0  0  0  0  0
   -5.4370   -1.5446  -24.4768 C   0  0  0  0  0  0  0  0  0  0  0  0
   -6.7437   -1.9123  -24.1162 C   0  0  0  0  0  0  0  0  0  0  0  0
   -4.5893    0.6241  -21.2760 C   0  0  0  0  0  0  0  0  0  0  0  0
   -4.6023    1.0253  -19.9516 C   0  0  0  0  0  0  0  0  0  0  0  0
   -3.5283    1.5829  -19.3480 N   0  0  0  0  0  0  0  0  0  0  0  0
   -2.3876    1.7824  -19.9891 C   0  0  0  0  0  0  0  0  0  0  0  0
   -2.2914    1.4141  -21.3006 C   0  0  0  0  0  0  0  0  0  0  0  0
   -1.0983    1.6284  -21.9639 C   0  0  0  0  0  0  0  0  0  0  0  0
   -0.9758    1.2702  -23.2853 C   0  0  0  0  0  0  0  0  0  0  0  0
   -2.0445    0.6977  -23.9463 C   0  0  0  0  0  0  0  0  0  0  0  0
   -3.2164    0.5003  -23.2511 C   0  0  0  0  0  0  0  0  0  0  0  0
   -3.3873    0.8358  -21.9473 C   0  0  0  0  0  0  0  0  0  0  0  0
  -10.6636   -3.0607  -23.2453 C   0  0  0  0  0  0  0  0  0  0  0  0
  -11.5153   -1.8737  -23.3486 C   0  0  0  0  0  0  0  0  0  0  0  0
  -11.1623   -0.7472  -23.9915 N   0  0  0  0  0  0  0  0  0  0  0  0
  -12.1194    0.1832  -23.9250 C   0  0  0  0  0  0  0  0  0  0  0  0
  -13.1417   -0.3701  -23.2027 C   0  0  0  0  0  0  0  0  0  0  0  0
  -12.7470   -1.6263  -22.8627 N   0  0  0  0  0  0  0  0  0  0  0  0
  -13.5823   -2.5016  -22.0857 C   0  0  0  0  0  0  0  0  0  0  0  0
  2  1  1  0  0  0
  2  3  1  0  0  0
  3  4  1  0  0  0
  4 19  1  0  0  0
  4  5  1  0  0  0
 19 20  2  0  0  0
 20 21  1  0  0  0
 21 22  2  0  0  0
 22 23  1  0  0  0
 23 24  2  0  0  0
 24 25  1  0  0  0
 25 26  2  0  0  0
 26 27  1  0  0  0
 27 28  2  0  0  0
 28 19  1  0  0  0
 28 23  1  0  0  0
  5  6  2  0  0  0
  7  5  1  0  0  0
  7  8  1  0  0  0
  7  2  1  0  0  0
  8  9  1  0  0  0
  9 29  1  0  0  0
  9 10  1  0  0  0
 29 30  1  0  0  0
 30 31  2  0  0  0
 31 32  1  0  0  0
 32 33  2  0  0  0
 33 34  1  0  0  0
 34 35  1  0  0  0
 34 30  1  0  0  0
 10 11  2  0  0  0
 10 12  1  0  0  0
 12 13  2  0  0  0
 13 14  1  0  0  0
 14 15  2  0  0  0
 15 16  1  0  0  0
 15 17  1  0  0  0
 17 18  2  0  0  0
 18 12  1  0  0  0
 18  7  1  0  0  0
M  END
> <minimizedAffinity>
-7.96114

> <CNNscore>
0.2516662180

> <CNNaffinity>
5.9741859436

> <CNN_VS>
1.5035008192

> <CNNaffinity_variance>
0.1597335488

$$$$



 35 40  0  0  0  0  0  0  0  0999 V2000
   -7.0517    1.8274  -22.7765 C   0  0  0  0  0  0  0  0  0  0  0  0
   -8.4726    1.3129  -22.7154 C   0  0  0  0  0  0  0  0  0  0  0  0
   -9.3368    2.5000  -23.0743 C   0  0  0  0  0  0  0  0  0  0  0  0
   -9.3057    2.5283  -24.5184 N   0  0  0  0  0  0  0  0  0  0  0  0
   -8.8355    1.2674  -24.9851 C   0  0  0  0  0  0  0  0  0  0  0  0
   -8.5812    1.0258  -26.1981 O   0  0  0  0  0  0  0  0  0  0  0  0
   -8.7077    0.3301  -23.8141 C   0  0  0  0  0  0  0  0  0  0  0  0
   -7.6524   -0.6832  -24.0258 C   0  0  0  0  0  0  0  0  0  0  0  0
   -7.6839   -1.7425  -23.0521 N   0  0  0  0  0  0  0  0  0  0  0  0
   -8.9526   -2.3229  -22.6842 C   0  0  0  0  0  0  0  0  0  0  0  0
   -9.0534   -3.4359  -22.1353 O   0  0  0  0  0  0  0  0  0  0  0  0
  -10.1549   -1.5706  -22.9721 C   0  0  0  0  0  0  0  0  0  0  0  0
  -11.3645   -2.1728  -22.7033 C   0  0  0  0  0  0  0  0  0  0  0  0
  -12.5400   -1.5513  -23.0418 C   0  0  0  0  0  0  0  0  0  0  0  0
  -12.4483   -0.3206  -23.6519 C   0  0  0  0  0  0  0  0  0  0  0  0
  -13.6006    0.2984  -23.9906 F   0  0  0  0  0  0  0  0  0  0  0  0
  -11.2273    0.2784  -23.9178 C   0  0  0  0  0  0  0  0  0  0  0  0
  -10.0170   -0.3455  -23.5740 C   0  0  0  0  0  0  0  0  0  0  0  0
   -9.7118    3.6728  -25.2774 C   0  0  0  0  0  0  0  0  0  0  0  0
   -8.8347    4.4082  -26.0553 C   0  0  0  0  0  0  0  0  0  0  0  0
   -9.2227    5.4916  -26.7657 N   0  0  0  0  0  0  0  0  0  0  0  0
  -10.4745    5.9216  -26.7628 C   0  0  0  0  0  0  0  0  0  0  0  0
  -11.4037    5.2512  -26.0197 C   0  0  0  0  0  0  0  0  0  0  0  0
  -12.7078    5.7080  -26.0194 C   0  0  0  0  0  0  0  0  0  0  0  0
  -13.6621    5.0537  -25.2774 C   0  0  0  0  0  0  0  0  0  0  0  0
  -13.3156    3.9424  -24.5346 C   0  0  0  0  0  0  0  0  0  0  0  0
  -12.0061    3.5180  -24.5608 C   0  0  0  0  0  0  0  0  0  0  0  0
  -11.0281    4.1285  -25.2767 C   0  0  0  0  0  0  0  0  0  0  0  0
   -6.5280   -2.3385  -22.4348 C   0  0  0  0  0  0  0  0  0  0  0  0
   -5.9370   -1.6180  -21.3049 C   0  0  0  0  0  0  0  0  0  0  0  0
   -6.3548   -1.7392  -20.0330 N   0  0  0  0  0  0  0  0  0  0  0  0
   -5.6503   -0.9640  -19.2030 C   0  0  0  0  0  0  0  0  0  0  0  0
   -4.7316   -0.3093  -19.9776 C   0  0  0  0  0  0  0  0  0  0  0  0
   -4.9284   -0.7265  -21.2570 N   0  0  0  0  0  0  0  0  0  0  0  0
   -4.1343   -0.2317  -22.3488 C   0  0  0  0  0  0  0  0  0  0  0  0
  2  1  1  0  0  0
  2  3  1  0  0  0
  3  4  1  0  0  0
  4 19  1  0  0  0
  4  5  1  0  0  0
 19 20  2  0  0  0
 20 21  1  0  0  0
 21 22  2  0  0  0
 22 23  1  0  0  0
 23 24  2  0  0  0
 24 25  1  0  0  0
 25 26  2  0  0  0
 26 27  1  0  0  0
 27 28  2  0  0  0
 28 19  1  0  0  0
 28 23  1  0  0  0
  5  6  2  0  0  0
  7  5  1  0  0  0
  7  8  1  0  0  0
  7  2  1  0  0  0
  8  9  1  0  0  0
  9 29  1  0  0  0
  9 10  1  0  0  0
 29 30  1  0  0  0
 30 31  2  0  0  0
 31 32  1  0  0  0
 32 33  2  0  0  0
 33 34  1  0  0  0
 34 35  1  0  0  0
 34 30  1  0  0  0
 10 11  2  0  0  0
 10 12  1  0  0  0
 12 13  2  0  0  0
 13 14  1  0  0  0
 14 15  2  0  0  0
 15 16  1  0  0  0
 15 17  1  0  0  0
 17 18  2  0  0  0
 18 12  1  0  0  0
 18  7  1  0  0  0
M  END
> <minimizedAffinity>
-7.96359

> <CNNscore>
0.2447143644

> <CNNaffinity>
6.0621457100

> <CNN_VS>
1.4834941626

> <CNNaffinity_variance>
0.1297089607

$$$$



 35 40  0  0  0  0  0  0  0  0999 V2000
   -6.7350    1.0882  -22.8993 C   0  0  0  0  0  0  0  0  0  0  0  0
   -8.1894    0.7143  -22.7199 C   0  0  0  0  0  0  0  0  0  0  0  0
   -8.9290    2.0309  -22.6540 C   0  0  0  0  0  0  0  0  0  0  0  0
   -9.0952    2.4057  -24.0393 N   0  0  0  0  0  0  0  0  0  0  0  0
   -8.8667    1.2563  -24.8489 C   0  0  0  0  0  0  0  0  0  0  0  0
   -8.8178    1.2928  -26.1101 O   0  0  0  0  0  0  0  0  0  0  0  0
   -8.7037    0.0551  -23.9564 C   0  0  0  0  0  0  0  0  0  0  0  0
   -7.8327   -0.9739  -24.5630 C   0  0  0  0  0  0  0  0  0  0  0  0
   -7.8696   -2.2296  -23.8608 N   0  0  0  0  0  0  0  0  0  0  0  0
   -9.1409   -2.7563  -23.4269 C   0  0  0  0  0  0  0  0  0  0  0  0
   -9.3120   -3.9541  -23.1333 O   0  0  0  0  0  0  0  0  0  0  0  0
  -10.2604   -1.8439  -23.3343 C   0  0  0  0  0  0  0  0  0  0  0  0
  -11.4903   -2.3732  -23.0102 C   0  0  0  0  0  0  0  0  0  0  0  0
  -12.6080   -1.5773  -23.0001 C   0  0  0  0  0  0  0  0  0  0  0  0
  -12.4386   -0.2503  -23.3246 C   0  0  0  0  0  0  0  0  0  0  0  0
  -13.5339    0.5410  -23.3190 F   0  0  0  0  0  0  0  0  0  0  0  0
  -11.1976    0.2743  -23.6485 C   0  0  0  0  0  0  0  0  0  0  0  0
  -10.0453   -0.5286  -23.6599 C   0  0  0  0  0  0  0  0  0  0  0  0
   -9.4465    3.7339  -24.4432 C   0  0  0  0  0  0  0  0  0  0  0  0
   -8.5096    4.6687  -24.8479 C   0  0  0  0  0  0  0  0  0  0  0  0
   -8.8465    5.9235  -25.2230 N   0  0  0  0  0  0  0  0  0  0  0  0
  -10.1023    6.3416  -25.2275 C   0  0  0  0  0  0  0  0  0  0  0  0
  -11.0890    5.4800  -24.8414 C   0  0  0  0  0  0  0  0  0  0  0  0
  -12.3972    5.9248  -24.8458 C   0  0  0  0  0  0  0  0  0  0  0  0
  -13.4091    5.0790  -24.4584 C   0  0  0  0  0  0  0  0  0  0  0  0
  -13.1162    3.7879  -24.0660 C   0  0  0  0  0  0  0  0  0  0  0  0
  -11.8006    3.3819  -24.0753 C   0  0  0  0  0  0  0  0  0  0  0  0
  -10.7668    4.1777  -24.4491 C   0  0  0  0  0  0  0  0  0  0  0  0
   -6.7291   -3.0666  -23.5944 C   0  0  0  0  0  0  0  0  0  0  0  0
   -6.1854   -3.0293  -22.2350 C   0  0  0  0  0  0  0  0  0  0  0  0
   -5.9888   -1.8997  -21.5333 N   0  0  0  0  0  0  0  0  0  0  0  0
   -5.4736   -2.1487  -20.3256 C   0  0  0  0  0  0  0  0  0  0  0  0
   -5.3301   -3.5071  -20.2431 C   0  0  0  0  0  0  0  0  0  0  0  0
   -5.7718   -4.0208  -21.4223 N   0  0  0  0  0  0  0  0  0  0  0  0
   -5.7590   -5.4337  -21.6886 C   0  0  0  0  0  0  0  0  0  0  0  0
  2  1  1  0  0  0
  2  3  1  0  0  0
  3  4  1  0  0  0
  4 19  1  0  0  0
  4  5  1  0  0  0
 19 20  2  0  0  0
 20 21  1  0  0  0
 21 22  2  0  0  0
 22 23  1  0  0  0
 23 24  2  0  0  0
 24 25  1  0  0  0
 25 26  2  0  0  0
 26 27  1  0  0  0
 27 28  2  0  0  0
 28 19  1  0  0  0
 28 23  1  0  0  0
  5  6  2  0  0  0
  7  5  1  0  0  0
  7  8  1  0  0  0
  7  2  1  0  0  0
  8  9  1  0  0  0
  9 29  1  0  0  0
  9 10  1  0  0  0
 29 30  1  0  0  0
 30 31  2  0  0  0
 31 32  1  0  0  0
 32 33  2  0  0  0
 33 34  1  0  0  0
 34 35  1  0  0  0
 34 30  1  0  0  0
 10 11  2  0  0  0
 10 12  1  0  0  0
 12 13  2  0  0  0
 13 14  1  0  0  0
 14 15  2  0  0  0
 15 16  1  0  0  0
 15 17  1  0  0  0
 17 18  2  0  0  0
 18 12  1  0  0  0
 18  7  1  0  0  0
M  END
> <minimizedAffinity>
-7.58464

> <CNNscore>
0.2176142037

> <CNNaffinity>
6.0366597176

> <CNN_VS>
1.3136628866

> <CNNaffinity_variance>
0.3208482862

$$$$



 35 40  0  0  0  0  0  0  0  0999 V2000
   -6.4439   -0.0620  -24.6328 C   0  0  0  0  0  0  0  0  0  0  0  0
   -6.7392    1.4107  -24.4564 C   0  0  0  0  0  0  0  0  0  0  0  0
   -8.2002    1.5645  -24.8127 C   0  0  0  0  0  0  0  0  0  0  0  0
   -8.8945    1.1807  -23.6052 N   0  0  0  0  0  0  0  0  0  0  0  0
   -7.9677    1.2047  -22.5240 C   0  0  0  0  0  0  0  0  0  0  0  0
   -8.2453    0.7985  -21.3612 O   0  0  0  0  0  0  0  0  0  0  0  0
   -6.6636    1.7775  -23.0114 C   0  0  0  0  0  0  0  0  0  0  0  0
   -5.5074    1.2464  -22.2587 C   0  0  0  0  0  0  0  0  0  0  0  0
   -4.2870    1.9633  -22.5194 N   0  0  0  0  0  0  0  0  0  0  0  0
   -4.3133    3.4052  -22.5625 C   0  0  0  0  0  0  0  0  0  0  0  0
   -3.2906    4.1043  -22.4375 O   0  0  0  0  0  0  0  0  0  0  0  0
   -5.5901    4.0578  -22.7583 C   0  0  0  0  0  0  0  0  0  0  0  0
   -5.6187    5.4340  -22.7042 C   0  0  0  0  0  0  0  0  0  0  0  0
   -6.8112    6.1076  -22.7867 C   0  0  0  0  0  0  0  0  0  0  0  0
   -7.9532    5.3511  -22.9229 C   0  0  0  0  0  0  0  0  0  0  0  0
   -9.1327    6.0055  -23.0032 F   0  0  0  0  0  0  0  0  0  0  0  0
   -7.9154    3.9669  -22.9775 C   0  0  0  0  0  0  0  0  0  0  0  0
   -6.7014    3.2653  -22.8970 C   0  0  0  0  0  0  0  0  0  0  0  0
  -10.2898    0.8590  -23.5858 C   0  0  0  0  0  0  0  0  0  0  0  0
  -10.7604   -0.4421  -23.5526 C   0  0  0  0  0  0  0  0  0  0  0  0
  -12.0794   -0.7403  -23.5400 N   0  0  0  0  0  0  0  0  0  0  0  0
  -13.0117    0.1990  -23.5586 C   0  0  0  0  0  0  0  0  0  0  0  0
  -12.6309    1.5101  -23.5918 C   0  0  0  0  0  0  0  0  0  0  0  0
  -13.6101    2.4848  -23.6142 C   0  0  0  0  0  0  0  0  0  0  0  0
  -13.2541    3.8120  -23.6512 C   0  0  0  0  0  0  0  0  0  0  0  0
  -11.9200    4.1677  -23.6660 C   0  0  0  0  0  0  0  0  0  0  0  0
  -10.9741    3.1676  -23.6427 C   0  0  0  0  0  0  0  0  0  0  0  0
  -11.2739    1.8446  -23.6056 C   0  0  0  0  0  0  0  0  0  0  0  0
   -2.9897    1.3622  -22.6869 C   0  0  0  0  0  0  0  0  0  0  0  0
   -1.9907    1.6485  -21.6549 C   0  0  0  0  0  0  0  0  0  0  0  0
   -2.2250    1.5582  -20.3343 N   0  0  0  0  0  0  0  0  0  0  0  0
   -1.1464    1.8834  -19.6153 C   0  0  0  0  0  0  0  0  0  0  0  0
   -0.1665    2.1997  -20.5166 C   0  0  0  0  0  0  0  0  0  0  0  0
   -0.7083    2.0483  -21.7548 N   0  0  0  0  0  0  0  0  0  0  0  0
    0.0459    2.3062  -22.9515 C   0  0  0  0  0  0  0  0  0  0  0  0
  2  1  1  0  0  0
  2  3  1  0  0  0
  3  4  1  0  0  0
  4 19  1  0  0  0
  4  5  1  0  0  0
 19 20  2  0  0  0
 20 21  1  0  0  0
 21 22  2  0  0  0
 22 23  1  0  0  0
 23 24  2  0  0  0
 24 25  1  0  0  0
 25 26  2  0  0  0
 26 27  1  0  0  0
 27 28  2  0  0  0
 28 19  1  0  0  0
 28 23  1  0  0  0
  5  6  2  0  0  0
  7  5  1  0  0  0
  7  8  1  0  0  0
  7  2  1  0  0  0
  8  9  1  0  0  0
  9 29  1  0  0  0
  9 10  1  0  0  0
 29 30  1  0  0  0
 30 31  2  0  0  0
 31 32  1  0  0  0
 32 33  2  0  0  0
 33 34  1  0  0  0
 34 35  1  0  0  0
 34 30  1  0  0  0
 10 11  2  0  0  0
 10 12  1  0  0  0
 12 13  2  0  0  0
 13 14  1  0  0  0
 14 15  2  0  0  0
 15 16  1  0  0  0
 15 17  1  0  0  0
 17 18  2  0  0  0
 18 12  1  0  0  0
 18  7  1  0  0  0
M  END
> <minimizedAffinity>
-7.56949

> <CNNscore>
0.2142903060

> <CNNaffinity>
5.6336126328

> <CNN_VS>
1.2072285414

> <CNNaffinity_variance>
0.1839835197

$$$$



 35 40  0  0  0  0  0  0  0  0999 V2000
   -6.4874    0.0020  -24.6761 C   0  0  0  0  0  0  0  0  0  0  0  0
   -6.7526    1.4821  -24.5141 C   0  0  0  0  0  0  0  0  0  0  0  0
   -8.2197    1.6563  -24.8343 C   0  0  0  0  0  0  0  0  0  0  0  0
   -8.8882    1.3025  -23.6035 N   0  0  0  0  0  0  0  0  0  0  0  0
   -7.9329    1.3259  -22.5474 C   0  0  0  0  0  0  0  0  0  0  0  0
   -8.1866    0.9416  -21.3717 O   0  0  0  0  0  0  0  0  0  0  0  0
   -6.6325    1.8685  -23.0773 C   0  0  0  0  0  0  0  0  0  0  0  0
   -5.4661    1.3281  -22.3472 C   0  0  0  0  0  0  0  0  0  0  0  0
   -4.2409    2.0196  -22.6505 N   0  0  0  0  0  0  0  0  0  0  0  0
   -4.2435    3.4610  -22.7146 C   0  0  0  0  0  0  0  0  0  0  0  0
   -3.2060    4.1437  -22.6269 O   0  0  0  0  0  0  0  0  0  0  0  0
   -5.5137    4.1330  -22.8866 C   0  0  0  0  0  0  0  0  0  0  0  0
   -5.5171    5.5102  -22.8525 C   0  0  0  0  0  0  0  0  0  0  0  0
   -6.6997    6.2034  -22.9138 C   0  0  0  0  0  0  0  0  0  0  0  0
   -7.8577    5.4651  -23.0086 C   0  0  0  0  0  0  0  0  0  0  0  0
   -9.0275    6.1389  -23.0678 F   0  0  0  0  0  0  0  0  0  0  0  0
   -7.8452    4.0799  -23.0434 C   0  0  0  0  0  0  0  0  0  0  0  0
   -6.6417    3.3582  -22.9843 C   0  0  0  0  0  0  0  0  0  0  0  0
  -10.2879    1.0056  -23.5426 C   0  0  0  0  0  0  0  0  0  0  0  0
  -11.2675    1.9764  -23.6579 C   0  0  0  0  0  0  0  0  0  0  0  0
  -12.5879    1.6912  -23.5941 N   0  0  0  0  0  0  0  0  0  0  0  0
  -13.0316    0.4569  -23.4162 C   0  0  0  0  0  0  0  0  0  0  0  0
  -12.1290   -0.5605  -23.2930 C   0  0  0  0  0  0  0  0  0  0  0  0
  -12.6001   -1.8457  -23.1044 C   0  0  0  0  0  0  0  0  0  0  0  0
  -11.7130   -2.8876  -22.9739 C   0  0  0  0  0  0  0  0  0  0  0  0
  -10.3544   -2.6476  -23.0314 C   0  0  0  0  0  0  0  0  0  0  0  0
   -9.9242   -1.3535  -23.2207 C   0  0  0  0  0  0  0  0  0  0  0  0
  -10.7588   -0.2918  -23.3553 C   0  0  0  0  0  0  0  0  0  0  0  0
   -2.9590    1.3935  -22.8429 C   0  0  0  0  0  0  0  0  0  0  0  0
   -1.9555    1.6079  -21.7980 C   0  0  0  0  0  0  0  0  0  0  0  0
   -2.2108    1.5269  -20.4807 N   0  0  0  0  0  0  0  0  0  0  0  0
   -1.1216    1.7764  -19.7475 C   0  0  0  0  0  0  0  0  0  0  0  0
   -0.1123    2.0316  -20.6357 C   0  0  0  0  0  0  0  0  0  0  0  0
   -0.6483    1.9224  -21.8809 N   0  0  0  0  0  0  0  0  0  0  0  0
    0.1353    2.1356  -23.0674 C   0  0  0  0  0  0  0  0  0  0  0  0
  2  1  1  0  0  0
  2  3  1  0  0  0
  3  4  1  0  0  0
  4 19  1  0  0  0
  4  5  1  0  0  0
 19 20  2  0  0  0
 20 21  1  0  0  0
 21 22  2  0  0  0
 22 23  1  0  0  0
 23 24  2  0  0  0
 24 25  1  0  0  0
 25 26  2  0  0  0
 26 27  1  0  0  0
 27 28  2  0  0  0
 28 19  1  0  0  0
 28 23  1  0  0  0
  5  6  2  0  0  0
  7  5  1  0  0  0
  7  8  1  0  0  0
  7  2  1  0  0  0
  8  9  1  0  0  0
  9 29  1  0  0  0
  9 10  1  0  0  0
 29 30  1  0  0  0
 30 31  2  0  0  0
 31 32  1  0  0  0
 32 33  2  0  0  0
 33 34  1  0  0  0
 34 35  1  0  0  0
 34 30  1  0  0  0
 10 11  2  0  0  0
 10 12  1  0  0  0
 12 13  2  0  0  0
 13 14  1  0  0  0
 14 15  2  0  0  0
 15 16  1  0  0  0
 15 17  1  0  0  0
 17 18  2  0  0  0
 18 12  1  0  0  0
 18  7  1  0  0  0
M  END
> <minimizedAffinity>
-7.25614

> <CNNscore>
0.1951066256

> <CNNaffinity>
5.8390893936

> <CNN_VS>
1.1392450333

> <CNNaffinity_variance>
0.1118233651

$$$$



 35 40  0  0  0  0  0  0  0  0999 V2000
   -5.3616   -1.2502  -23.1623 C   0  0  0  0  0  0  0  0  0  0  0  0
   -5.9474    0.1064  -23.4845 C   0  0  0  0  0  0  0  0  0  0  0  0
   -7.3087   -0.1829  -24.0748 C   0  0  0  0  0  0  0  0  0  0  0  0
   -8.1531   -0.3816  -22.9195 N   0  0  0  0  0  0  0  0  0  0  0  0
   -7.4854    0.1431  -21.7761 C   0  0  0  0  0  0  0  0  0  0  0  0
   -7.9158    0.0080  -20.5968 O   0  0  0  0  0  0  0  0  0  0  0  0
   -6.2347    0.8514  -22.2233 C   0  0  0  0  0  0  0  0  0  0  0  0
   -5.1793    0.8225  -21.1885 C   0  0  0  0  0  0  0  0  0  0  0  0
   -4.0812    1.7066  -21.4777 N   0  0  0  0  0  0  0  0  0  0  0  0
   -4.3578    3.0384  -21.9591 C   0  0  0  0  0  0  0  0  0  0  0  0
   -3.5252    3.9627  -21.9076 O   0  0  0  0  0  0  0  0  0  0  0  0
   -5.6644    3.3012  -22.5231 C   0  0  0  0  0  0  0  0  0  0  0  0
   -5.9512    4.5968  -22.8933 C   0  0  0  0  0  0  0  0  0  0  0  0
   -7.2036    4.9289  -23.3449 C   0  0  0  0  0  0  0  0  0  0  0  0
   -8.1384    3.9203  -23.4065 C   0  0  0  0  0  0  0  0  0  0  0  0
   -9.3751    4.2381  -23.8483 F   0  0  0  0  0  0  0  0  0  0  0  0
   -7.8412    2.6193  -23.0330 C   0  0  0  0  0  0  0  0  0  0  0  0
   -6.5627    2.2653  -22.5718 C   0  0  0  0  0  0  0  0  0  0  0  0
   -9.4418   -1.0007  -23.0022 C   0  0  0  0  0  0  0  0  0  0  0  0
   -9.6255   -2.3690  -22.9056 C   0  0  0  0  0  0  0  0  0  0  0  0
  -10.8444   -2.9488  -22.9900 N   0  0  0  0  0  0  0  0  0  0  0  0
  -11.9476   -2.2405  -23.1717 C   0  0  0  0  0  0  0  0  0  0  0  0
  -11.8532   -0.8822  -23.2775 C   0  0  0  0  0  0  0  0  0  0  0  0
  -13.0091   -0.1500  -23.4701 C   0  0  0  0  0  0  0  0  0  0  0  0
  -12.9418    1.2183  -23.5833 C   0  0  0  0  0  0  0  0  0  0  0  0
  -11.7203    1.8572  -23.5044 C   0  0  0  0  0  0  0  0  0  0  0  0
  -10.5914    1.0931  -23.3117 C   0  0  0  0  0  0  0  0  0  0  0  0
  -10.6051   -0.2588  -23.1936 C   0  0  0  0  0  0  0  0  0  0  0  0
   -2.6902    1.4002  -21.2688 C   0  0  0  0  0  0  0  0  0  0  0  0
   -1.8925    1.1044  -22.4609 C   0  0  0  0  0  0  0  0  0  0  0  0
   -2.4137    0.7277  -23.6414 N   0  0  0  0  0  0  0  0  0  0  0  0
   -1.4645    0.5118  -24.5570 C   0  0  0  0  0  0  0  0  0  0  0  0
   -0.2704    0.7613  -23.9368 C   0  0  0  0  0  0  0  0  0  0  0  0
   -0.5601    1.1211  -22.6577 N   0  0  0  0  0  0  0  0  0  0  0  0
    0.4689    1.4503  -21.7088 C   0  0  0  0  0  0  0  0  0  0  0  0
  2  1  1  0  0  0
  2  3  1  0  0  0
  3  4  1  0  0  0
  4 19  1  0  0  0
  4  5  1  0  0  0
 19 20  2  0  0  0
 20 21  1  0  0  0
 21 22  2  0  0  0
 22 23  1  0  0  0
 23 24  2  0  0  0
 24 25  1  0  0  0
 25 26  2  0  0  0
 26 27  1  0  0  0
 27 28  2  0  0  0
 28 19  1  0  0  0
 28 23  1  0  0  0
  5  6  2  0  0  0
  7  5  1  0  0  0
  7  8  1  0  0  0
  7  2  1  0  0  0
  8  9  1  0  0  0
  9 29  1  0  0  0
  9 10  1  0  0  0
 29 30  1  0  0  0
 30 31  2  0  0  0
 31 32  1  0  0  0
 32 33  2  0  0  0
 33 34  1  0  0  0
 34 35  1  0  0  0
 34 30  1  0  0  0
 10 11  2  0  0  0
 10 12  1  0  0  0
 12 13  2  0  0  0
 13 14  1  0  0  0
 14 15  2  0  0  0
 15 16  1  0  0  0
 15 17  1  0  0  0
 17 18  2  0  0  0
 18 12  1  0  0  0
 18  7  1  0  0  0
M  END
> <minimizedAffinity>
-7.67837

> <CNNscore>
0.1736887246

> <CNNaffinity>
5.6858549118

> <CNN_VS>
0.9875689149

> <CNNaffinity_variance>
0.1861530393

$$$$



 35 40  0  0  0  0  0  0  0  0999 V2000
   -8.3469    0.2538  -22.6318 C   0  0  0  0  0  0  0  0  0  0  0  0
   -7.9129   -0.4503  -23.8979 C   0  0  0  0  0  0  0  0  0  0  0  0
   -6.6094    0.2087  -24.2875 C   0  0  0  0  0  0  0  0  0  0  0  0
   -5.6249   -0.4553  -23.4646 N   0  0  0  0  0  0  0  0  0  0  0  0
   -6.1973   -1.6560  -22.9554 C   0  0  0  0  0  0  0  0  0  0  0  0
   -5.6251   -2.3923  -22.1041 O   0  0  0  0  0  0  0  0  0  0  0  0
   -7.5439   -1.8646  -23.5951 C   0  0  0  0  0  0  0  0  0  0  0  0
   -8.4680   -2.6104  -22.7146 C   0  0  0  0  0  0  0  0  0  0  0  0
   -9.6595   -3.0508  -23.3910 N   0  0  0  0  0  0  0  0  0  0  0  0
   -9.5479   -3.6318  -24.7070 C   0  0  0  0  0  0  0  0  0  0  0  0
  -10.4407   -4.3369  -25.2130 O   0  0  0  0  0  0  0  0  0  0  0  0
   -8.3398   -3.3794  -25.4628 C   0  0  0  0  0  0  0  0  0  0  0  0
   -8.2024   -4.0142  -26.6777 C   0  0  0  0  0  0  0  0  0  0  0  0
   -7.0408   -3.8919  -27.3977 C   0  0  0  0  0  0  0  0  0  0  0  0
   -6.0412   -3.1181  -26.8528 C   0  0  0  0  0  0  0  0  0  0  0  0
   -4.8928   -2.9931  -27.5538 F   0  0  0  0  0  0  0  0  0  0  0  0
   -6.1880   -2.4821  -25.6305 C   0  0  0  0  0  0  0  0  0  0  0  0
   -7.3726   -2.5966  -24.8847 C   0  0  0  0  0  0  0  0  0  0  0  0
   -4.3087    0.0702  -23.2596 C   0  0  0  0  0  0  0  0  0  0  0  0
   -3.3445    0.0897  -24.2523 C   0  0  0  0  0  0  0  0  0  0  0  0
   -2.1011    0.5822  -24.0515 N   0  0  0  0  0  0  0  0  0  0  0  0
   -1.7233    1.0806  -22.8849 C   0  0  0  0  0  0  0  0  0  0  0  0
   -2.6160    1.0984  -21.8515 C   0  0  0  0  0  0  0  0  0  0  0  0
   -2.2131    1.6175  -20.6360 C   0  0  0  0  0  0  0  0  0  0  0  0
   -3.0908    1.6442  -19.5784 C   0  0  0  0  0  0  0  0  0  0  0  0
   -4.3718    1.1525  -19.7331 C   0  0  0  0  0  0  0  0  0  0  0  0
   -4.7356    0.6437  -20.9596 C   0  0  0  0  0  0  0  0  0  0  0  0
   -3.9073    0.5953  -22.0335 C   0  0  0  0  0  0  0  0  0  0  0  0
  -10.9882   -3.0215  -22.8378 C   0  0  0  0  0  0  0  0  0  0  0  0
  -11.8144   -1.8572  -23.1647 C   0  0  0  0  0  0  0  0  0  0  0  0
  -11.3948   -0.8223  -23.9129 N   0  0  0  0  0  0  0  0  0  0  0  0
  -12.3435    0.1092  -24.0484 C   0  0  0  0  0  0  0  0  0  0  0  0
  -13.4302   -0.3468  -23.3528 C   0  0  0  0  0  0  0  0  0  0  0  0
  -13.0804   -1.5494  -22.8227 N   0  0  0  0  0  0  0  0  0  0  0  0
  -13.9891   -2.3179  -22.0158 C   0  0  0  0  0  0  0  0  0  0  0  0
  2  1  1  0  0  0
  2  3  1  0  0  0
  3  4  1  0  0  0
  4 19  1  0  0  0
  4  5  1  0  0  0
 19 20  2  0  0  0
 20 21  1  0  0  0
 21 22  2  0  0  0
 22 23  1  0  0  0
 23 24  2  0  0  0
 24 25  1  0  0  0
 25 26  2  0  0  0
 26 27  1  0  0  0
 27 28  2  0  0  0
 28 19  1  0  0  0
 28 23  1  0  0  0
  5  6  2  0  0  0
  7  5  1  0  0  0
  7  8  1  0  0  0
  7  2  1  0  0  0
  8  9  1  0  0  0
  9 29  1  0  0  0
  9 10  1  0  0  0
 29 30  1  0  0  0
 30 31  2  0  0  0
 31 32  1  0  0  0
 32 33  2  0  0  0
 33 34  1  0  0  0
 34 35  1  0  0  0
 34 30  1  0  0  0
 10 11  2  0  0  0
 10 12  1  0  0  0
 12 13  2  0  0  0
 13 14  1  0  0  0
 14 15  2  0  0  0
 15 16  1  0  0  0
 15 17  1  0  0  0
 17 18  2  0  0  0
 18 12  1  0  0  0
 18  7  1  0  0  0
M  END
> <minimizedAffinity>
-7.58652

> <CNNscore>
0.1712812334

> <CNNaffinity>
5.7651200294

> <CNN_VS>
0.9874568582

> <CNNaffinity_variance>
0.1731111258

$$$$



 35 40  0  0  0  0  0  0  0  0999 V2000
   -6.4809   -0.9165  -26.0112 C   0  0  0  0  0  0  0  0  0  0  0  0
   -7.8989   -1.2031  -25.5703 C   0  0  0  0  0  0  0  0  0  0  0  0
   -8.0113   -2.7105  -25.5618 C   0  0  0  0  0  0  0  0  0  0  0  0
   -7.4357   -3.0946  -24.2936 N   0  0  0  0  0  0  0  0  0  0  0  0
   -7.3749   -1.9430  -23.4577 C   0  0  0  0  0  0  0  0  0  0  0  0
   -6.8071   -1.9317  -22.3299 O   0  0  0  0  0  0  0  0  0  0  0  0
   -8.0808   -0.8040  -24.1435 C   0  0  0  0  0  0  0  0  0  0  0  0
   -7.5261    0.5095  -23.7531 C   0  0  0  0  0  0  0  0  0  0  0  0
   -8.3408    1.6159  -24.1815 N   0  0  0  0  0  0  0  0  0  0  0  0
   -9.7723    1.5409  -24.0176 C   0  0  0  0  0  0  0  0  0  0  0  0
  -10.5082    2.5451  -24.0317 O   0  0  0  0  0  0  0  0  0  0  0  0
  -10.3687    0.2361  -23.8268 C   0  0  0  0  0  0  0  0  0  0  0  0
  -11.7226    0.1832  -23.5777 C   0  0  0  0  0  0  0  0  0  0  0  0
  -12.3302   -1.0139  -23.2939 C   0  0  0  0  0  0  0  0  0  0  0  0
  -11.5318   -2.1351  -23.2714 C   0  0  0  0  0  0  0  0  0  0  0  0
  -12.1209   -3.3185  -22.9911 F   0  0  0  0  0  0  0  0  0  0  0  0
  -10.1707   -2.0732  -23.5242 C   0  0  0  0  0  0  0  0  0  0  0  0
   -9.5369   -0.8550  -23.8187 C   0  0  0  0  0  0  0  0  0  0  0  0
   -7.0330   -4.4378  -24.0034 C   0  0  0  0  0  0  0  0  0  0  0  0
   -7.7016   -5.2438  -23.0986 C   0  0  0  0  0  0  0  0  0  0  0  0
   -7.3135   -6.5099  -22.8242 N   0  0  0  0  0  0  0  0  0  0  0  0
   -6.2622   -7.0638  -23.4072 C   0  0  0  0  0  0  0  0  0  0  0  0
   -5.5466   -6.3351  -24.3138 C   0  0  0  0  0  0  0  0  0  0  0  0
   -4.4487   -6.9192  -24.9158 C   0  0  0  0  0  0  0  0  0  0  0  0
   -3.7089   -6.2066  -25.8293 C   0  0  0  0  0  0  0  0  0  0  0  0
   -4.0645   -4.9097  -26.1428 C   0  0  0  0  0  0  0  0  0  0  0  0
   -5.1649   -4.3628  -25.5219 C   0  0  0  0  0  0  0  0  0  0  0  0
   -5.9272   -5.0242  -24.6146 C   0  0  0  0  0  0  0  0  0  0  0  0
   -7.8433    2.8548  -24.7200 C   0  0  0  0  0  0  0  0  0  0  0  0
   -7.2059    3.7764  -23.7770 C   0  0  0  0  0  0  0  0  0  0  0  0
   -5.9585    3.6226  -23.3003 N   0  0  0  0  0  0  0  0  0  0  0  0
   -5.6280    4.5991  -22.4498 C   0  0  0  0  0  0  0  0  0  0  0  0
   -6.7165    5.4249  -22.3732 C   0  0  0  0  0  0  0  0  0  0  0  0
   -7.6661    4.8997  -23.1931 N   0  0  0  0  0  0  0  0  0  0  0  0
   -8.9566    5.5133  -23.3529 C   0  0  0  0  0  0  0  0  0  0  0  0
  2  1  1  0  0  0
  2  3  1  0  0  0
  3  4  1  0  0  0
  4 19  1  0  0  0
  4  5  1  0  0  0
 19 20  2  0  0  0
 20 21  1  0  0  0
 21 22  2  0  0  0
 22 23  1  0  0  0
 23 24  2  0  0  0
 24 25  1  0  0  0
 25 26  2  0  0  0
 26 27  1  0  0  0
 27 28  2  0  0  0
 28 19  1  0  0  0
 28 23  1  0  0  0
  5  6  2  0  0  0
  7  5  1  0  0  0
  7  8  1  0  0  0
  7  2  1  0  0  0
  8  9  1  0  0  0
  9 29  1  0  0  0
  9 10  1  0  0  0
 29 30  1  0  0  0
 30 31  2  0  0  0
 31 32  1  0  0  0
 32 33  2  0  0  0
 33 34  1  0  0  0
 34 35  1  0  0  0
 34 30  1  0  0  0
 10 11  2  0  0  0
 10 12  1  0  0  0
 12 13  2  0  0  0
 13 14  1  0  0  0
 14 15  2  0  0  0
 15 16  1  0  0  0
 15 17  1  0  0  0
 17 18  2  0  0  0
 18 12  1  0  0  0
 18  7  1  0  0  0
M  END
> <minimizedAffinity>
-7.03471

> <CNNscore>
0.1622066945

> <CNNaffinity>
5.9808959961

> <CNN_VS>
0.9701413512

> <CNNaffinity_variance>
0.1984862387

$$$$



 37 40  0  0  0  0  0  0  0  0999 V2000
   -8.4849    0.1365  -23.8974 N   0  0  0  0  0  0  0  0  0  0  0  0
   -8.3931   -0.4349  -22.6287 C   0  0  0  0  0  0  0  0  0  0  0  0
   -9.0451    0.3023  -21.7290 O   0  0  0  0  0  0  0  0  0  0  0  0
   -7.7734   -1.5989  -22.0722 C   0  0  0  0  0  0  0  0  0  0  0  0
   -6.3013   -1.4958  -21.7235 C   0  0  0  0  0  0  0  0  0  0  0  0
   -5.8612   -2.7294  -21.0462 N   0  0  0  0  0  0  0  0  0  0  0  0
   -6.1141   -3.9437  -21.7845 C   0  0  0  0  0  0  0  0  0  0  0  0
   -5.3729   -4.9485  -21.5989 O   0  0  0  0  0  0  0  0  0  0  0  0
   -7.2345   -3.9363  -22.7185 C   0  0  0  0  0  0  0  0  0  0  0  0
   -7.4552   -5.0929  -23.4419 C   0  0  0  0  0  0  0  0  0  0  0  0
   -8.4973   -5.0854  -24.3438 C   0  0  0  0  0  0  0  0  0  0  0  0
   -9.3110   -3.9768  -24.5411 C   0  0  0  0  0  0  0  0  0  0  0  0
  -10.6222   -4.0173  -25.6995 Cl  0  0  0  0  0  0  0  0  0  0  0  0
   -9.0876   -2.8055  -23.8079 C   0  0  0  0  0  0  0  0  0  0  0  0
   -8.0400   -2.8042  -22.8967 C   0  0  0  0  0  0  0  0  0  0  0  0
   -5.2307   -2.7384  -19.7625 C   0  0  0  0  0  0  0  0  0  0  0  0
   -5.7266   -1.6392  -18.8756 C   0  0  0  0  0  0  0  0  0  0  0  0
   -6.9197   -1.7298  -18.4666 O   0  0  0  0  0  0  0  0  0  0  0  0
   -4.8829   -0.5350  -18.5089 N   0  0  0  0  0  0  0  0  0  0  0  0
   -5.3388    0.5355  -17.6558 C   0  0  0  0  0  0  0  0  0  0  0  0
   -3.9606   -0.5081  -18.8523 H   0  0  0  0  0  0  0  0  0  0  0  0
   -9.3864    1.3371  -23.8753 C   0  0  0  0  0  0  0  0  0  0  0  0
   -8.8038    2.5833  -23.9362 C   0  0  0  0  0  0  0  0  0  0  0  0
   -9.6274    3.6480  -23.9153 N   0  0  0  0  0  0  0  0  0  0  0  0
  -10.9606    3.4723  -23.8376 C   0  0  0  0  0  0  0  0  0  0  0  0
  -11.5530    2.2393  -23.7765 C   0  0  0  0  0  0  0  0  0  0  0  0
  -12.9400    2.1379  -23.6976 C   0  0  0  0  0  0  0  0  0  0  0  0
  -13.4837    0.8672  -23.6382 C   0  0  0  0  0  0  0  0  0  0  0  0
  -12.6846   -0.2515  -23.6565 C   0  0  0  0  0  0  0  0  0  0  0  0
  -11.3046   -0.1286  -23.7355 C   0  0  0  0  0  0  0  0  0  0  0  0
  -10.7436    1.1253  -23.7955 C   0  0  0  0  0  0  0  0  0  0  0  0
   -7.9352   -0.1119  -25.1584 C   0  0  0  0  0  0  0  0  0  0  0  0
   -6.3515   -1.6569  -26.0513 C   0  0  0  0  0  0  0  0  0  0  0  0
   -6.5497   -0.5039  -25.3450 C   0  0  0  0  0  0  0  0  0  0  0  0
   -5.3367    0.1472  -24.9376 C   0  0  0  0  0  0  0  0  0  0  0  0
   -5.3559    1.4364  -24.9868 O   0  0  0  0  0  0  0  0  0  0  0  0
   -4.1697   -0.4076  -24.5033 O   0  0  0  0  0  0  0  0  0  0  0  0
 33 34  2  0  0  0
 34 32  1  0  0  0
 34 35  1  0  0  0
 32  1  1  0  0  0
  1  2  1  0  0  0
  1 22  1  0  0  0
  2  3  2  0  0  0
  4  2  1  0  0  0
  4  5  1  0  0  0
  5  6  1  0  0  0
  6 16  1  0  0  0
  6  7  1  0  0  0
 16 17  1  0  0  0
 17 18  2  0  0  0
 17 19  1  0  0  0
 19 20  1  0  0  0
 19 21  1  0  0  0
  7  8  2  0  0  0
  7  9  1  0  0  0
  9 10  2  0  0  0
 10 11  1  0  0  0
 11 12  2  0  0  0
 12 13  1  0  0  0
 12 14  1  0  0  0
 14 15  2  0  0  0
 15  4  1  0  0  0
 15  9  1  0  0  0
 22 23  2  0  0  0
 23 24  1  0  0  0
 24 25  2  0  0  0
 25 26  1  0  0  0
 26 27  2  0  0  0
 27 28  1  0  0  0
 28 29  2  0  0  0
 29 30  1  0  0  0
 30 31  2  0  0  0
 31 22  1  0  0  0
 31 26  1  0  0  0
 35 36  2  0  0  0
 35 37  1  0  0  0
M  CHG 1  37  -1
M  END
> <minimizedAffinity>
-7.71427

> <CNNscore>
0.3830237091

> <CNNaffinity>
6.1385488510

> <CNN_VS>
2.3512096405

> <CNNaffinity_variance>
0.1725642979

$$$$



 37 40  0  0  0  0  0  0  0  0999 V2000
   -7.3717    0.0407  -23.4450 N   0  0  0  0  0  0  0  0  0  0  0  0
   -8.4959    0.7630  -23.0464 C   0  0  0  0  0  0  0  0  0  0  0  0
   -8.6110    0.7650  -21.7178 O   0  0  0  0  0  0  0  0  0  0  0  0
   -9.5384    1.4845  -23.7109 C   0  0  0  0  0  0  0  0  0  0  0  0
   -9.6609    2.9630  -23.3976 C   0  0  0  0  0  0  0  0  0  0  0  0
  -10.6907    3.5721  -24.2593 N   0  0  0  0  0  0  0  0  0  0  0  0
  -11.9860    2.9390  -24.1878 C   0  0  0  0  0  0  0  0  0  0  0  0
  -13.0223    3.6167  -24.4331 O   0  0  0  0  0  0  0  0  0  0  0  0
  -12.0194    1.5252  -23.8304 C   0  0  0  0  0  0  0  0  0  0  0  0
  -13.2637    0.9313  -23.7375 C   0  0  0  0  0  0  0  0  0  0  0  0
  -13.3044   -0.3983  -23.3768 C   0  0  0  0  0  0  0  0  0  0  0  0
  -12.1596   -1.1390  -23.1109 C   0  0  0  0  0  0  0  0  0  0  0  0
  -12.2644   -2.8257  -22.6559 Cl  0  0  0  0  0  0  0  0  0  0  0  0
  -10.8993   -0.5374  -23.2056 C   0  0  0  0  0  0  0  0  0  0  0  0
  -10.8487    0.8017  -23.5687 C   0  0  0  0  0  0  0  0  0  0  0  0
  -10.4427    4.7011  -25.1016 C   0  0  0  0  0  0  0  0  0  0  0  0
  -10.2673    4.3144  -26.5370 C   0  0  0  0  0  0  0  0  0  0  0  0
  -11.1464    4.7216  -27.3496 O   0  0  0  0  0  0  0  0  0  0  0  0
   -9.1509    3.5178  -26.9666 N   0  0  0  0  0  0  0  0  0  0  0  0
   -8.9611    3.1329  -28.3441 C   0  0  0  0  0  0  0  0  0  0  0  0
   -8.4918    3.2241  -26.2968 H   0  0  0  0  0  0  0  0  0  0  0  0
   -6.5782   -0.4082  -22.2519 C   0  0  0  0  0  0  0  0  0  0  0  0
   -6.8261   -1.6652  -21.7473 C   0  0  0  0  0  0  0  0  0  0  0  0
   -6.1053   -2.0507  -20.6776 N   0  0  0  0  0  0  0  0  0  0  0  0
   -5.1874   -1.2216  -20.1442 C   0  0  0  0  0  0  0  0  0  0  0  0
   -4.9308    0.0304  -20.6358 C   0  0  0  0  0  0  0  0  0  0  0  0
   -3.9653    0.8306  -20.0295 C   0  0  0  0  0  0  0  0  0  0  0  0
   -3.7481    2.0860  -20.5684 C   0  0  0  0  0  0  0  0  0  0  0  0
   -4.4586    2.5256  -21.6603 C   0  0  0  0  0  0  0  0  0  0  0  0
   -5.4165    1.7126  -22.2496 C   0  0  0  0  0  0  0  0  0  0  0  0
   -5.6481    0.4609  -21.7297 C   0  0  0  0  0  0  0  0  0  0  0  0
   -6.8228   -0.3837  -24.6584 C   0  0  0  0  0  0  0  0  0  0  0  0
   -8.2523   -2.2678  -24.9736 C   0  0  0  0  0  0  0  0  0  0  0  0
   -7.5237   -1.2748  -25.5656 C   0  0  0  0  0  0  0  0  0  0  0  0
   -7.6097   -1.2625  -26.9986 C   0  0  0  0  0  0  0  0  0  0  0  0
   -7.9967   -0.1481  -27.5215 O   0  0  0  0  0  0  0  0  0  0  0  0
   -7.3361   -2.2634  -27.8829 O   0  0  0  0  0  0  0  0  0  0  0  0
 33 34  2  0  0  0
 34 32  1  0  0  0
 34 35  1  0  0  0
 32  1  1  0  0  0
  1  2  1  0  0  0
  1 22  1  0  0  0
  2  3  2  0  0  0
  4  2  1  0  0  0
  4  5  1  0  0  0
  5  6  1  0  0  0
  6 16  1  0  0  0
  6  7  1  0  0  0
 16 17  1  0  0  0
 17 18  2  0  0  0
 17 19  1  0  0  0
 19 20  1  0  0  0
 19 21  1  0  0  0
  7  8  2  0  0  0
  7  9  1  0  0  0
  9 10  2  0  0  0
 10 11  1  0  0  0
 11 12  2  0  0  0
 12 13  1  0  0  0
 12 14  1  0  0  0
 14 15  2  0  0  0
 15  4  1  0  0  0
 15  9  1  0  0  0
 22 23  2  0  0  0
 23 24  1  0  0  0
 24 25  2  0  0  0
 25 26  1  0  0  0
 26 27  2  0  0  0
 27 28  1  0  0  0
 28 29  2  0  0  0
 29 30  1  0  0  0
 30 31  2  0  0  0
 31 22  1  0  0  0
 31 26  1  0  0  0
 35 36  2  0  0  0
 35 37  1  0  0  0
M  CHG 1  37  -1
M  END
> <minimizedAffinity>
-7.16923

> <CNNscore>
0.3507217169

> <CNNaffinity>
6.0277948380

> <CNN_VS>
2.1140785217

> <CNNaffinity_variance>
0.1566264629

$$$$



 37 40  0  0  0  0  0  0  0  0999 V2000
   -6.8755   -0.4814  -21.8811 N   0  0  0  0  0  0  0  0  0  0  0  0
   -6.8430   -1.1126  -23.1241 C   0  0  0  0  0  0  0  0  0  0  0  0
   -6.6251   -0.2287  -24.0985 O   0  0  0  0  0  0  0  0  0  0  0  0
   -6.9901   -2.4564  -23.5944 C   0  0  0  0  0  0  0  0  0  0  0  0
   -6.0672   -2.8998  -24.7128 C   0  0  0  0  0  0  0  0  0  0  0  0
   -6.2630   -4.3364  -24.9814 N   0  0  0  0  0  0  0  0  0  0  0  0
   -7.6242   -4.7120  -25.2808 C   0  0  0  0  0  0  0  0  0  0  0  0
   -7.8442   -5.7247  -26.0016 O   0  0  0  0  0  0  0  0  0  0  0  0
   -8.6847   -3.8825  -24.7197 C   0  0  0  0  0  0  0  0  0  0  0  0
   -9.9849   -4.2314  -25.0317 C   0  0  0  0  0  0  0  0  0  0  0  0
  -10.9915   -3.4380  -24.5247 C   0  0  0  0  0  0  0  0  0  0  0  0
  -10.7423   -2.3264  -23.7296 C   0  0  0  0  0  0  0  0  0  0  0  0
  -12.0560   -1.3501  -23.1101 Cl  0  0  0  0  0  0  0  0  0  0  0  0
   -9.4252   -1.9735  -23.4133 C   0  0  0  0  0  0  0  0  0  0  0  0
   -8.4048   -2.7673  -23.9194 C   0  0  0  0  0  0  0  0  0  0  0  0
   -5.1998   -5.2926  -24.9541 C   0  0  0  0  0  0  0  0  0  0  0  0
   -5.3459   -6.2764  -23.8355 C   0  0  0  0  0  0  0  0  0  0  0  0
   -5.3551   -7.5012  -24.1498 O   0  0  0  0  0  0  0  0  0  0  0  0
   -5.4695   -5.8448  -22.4702 N   0  0  0  0  0  0  0  0  0  0  0  0
   -5.6114   -6.7743  -21.3759 C   0  0  0  0  0  0  0  0  0  0  0  0
   -5.4570   -4.8800  -22.2747 H   0  0  0  0  0  0  0  0  0  0  0  0
   -6.5379    0.9755  -22.0161 C   0  0  0  0  0  0  0  0  0  0  0  0
   -7.5683    1.8580  -22.2521 C   0  0  0  0  0  0  0  0  0  0  0  0
   -7.2469    3.1600  -22.3703 N   0  0  0  0  0  0  0  0  0  0  0  0
   -5.9638    3.5544  -22.2581 C   0  0  0  0  0  0  0  0  0  0  0  0
   -4.9298    2.6878  -22.0235 C   0  0  0  0  0  0  0  0  0  0  0  0
   -3.6278    3.1716  -21.9197 C   0  0  0  0  0  0  0  0  0  0  0  0
   -2.6230    2.2509  -21.6823 C   0  0  0  0  0  0  0  0  0  0  0  0
   -2.9003    0.9104  -21.5539 C   0  0  0  0  0  0  0  0  0  0  0  0
   -4.2047    0.4489  -21.6608 C   0  0  0  0  0  0  0  0  0  0  0  0
   -5.2186    1.3473  -21.8966 C   0  0  0  0  0  0  0  0  0  0  0  0
   -7.1642   -0.8565  -20.5659 C   0  0  0  0  0  0  0  0  0  0  0  0
   -5.8224   -0.7652  -18.5952 C   0  0  0  0  0  0  0  0  0  0  0  0
   -6.1848   -1.4858  -19.6983 C   0  0  0  0  0  0  0  0  0  0  0  0
   -5.5539   -2.7723  -19.7884 C   0  0  0  0  0  0  0  0  0  0  0  0
   -5.4051   -3.3966  -18.6690 O   0  0  0  0  0  0  0  0  0  0  0  0
   -5.0936   -3.4264  -20.8924 O   0  0  0  0  0  0  0  0  0  0  0  0
 33 34  2  0  0  0
 34 32  1  0  0  0
 34 35  1  0  0  0
 32  1  1  0  0  0
  1  2  1  0  0  0
  1 22  1  0  0  0
  2  3  2  0  0  0
  4  2  1  0  0  0
  4  5  1  0  0  0
  5  6  1  0  0  0
  6 16  1  0  0  0
  6  7  1  0  0  0
 16 17  1  0  0  0
 17 18  2  0  0  0
 17 19  1  0  0  0
 19 20  1  0  0  0
 19 21  1  0  0  0
  7  8  2  0  0  0
  7  9  1  0  0  0
  9 10  2  0  0  0
 10 11  1  0  0  0
 11 12  2  0  0  0
 12 13  1  0  0  0
 12 14  1  0  0  0
 14 15  2  0  0  0
 15  4  1  0  0  0
 15  9  1  0  0  0
 22 23  2  0  0  0
 23 24  1  0  0  0
 24 25  2  0  0  0
 25 26  1  0  0  0
 26 27  2  0  0  0
 27 28  1  0  0  0
 28 29  2  0  0  0
 29 30  1  0  0  0
 30 31  2  0  0  0
 31 22  1  0  0  0
 31 26  1  0  0  0
 35 36  2  0  0  0
 35 37  1  0  0  0
M  CHG 1  37  -1
M  END
> <minimizedAffinity>
-7.82594

> <CNNscore>
0.3256444335

> <CNNaffinity>
6.3020744324

> <CNN_VS>
2.0522353649

> <CNNaffinity_variance>
0.0670212880

$$$$



 37 40  0  0  0  0  0  0  0  0999 V2000
   -6.6683   -1.1032  -22.5511 N   0  0  0  0  0  0  0  0  0  0  0  0
   -6.5098   -2.4721  -22.7637 C   0  0  0  0  0  0  0  0  0  0  0  0
   -6.0931   -3.0789  -21.6517 O   0  0  0  0  0  0  0  0  0  0  0  0
   -6.6796   -3.3631  -23.8711 C   0  0  0  0  0  0  0  0  0  0  0  0
   -5.8090   -3.1222  -25.0889 C   0  0  0  0  0  0  0  0  0  0  0  0
   -6.0183   -4.2001  -26.0731 N   0  0  0  0  0  0  0  0  0  0  0  0
   -7.3921   -4.3906  -26.4730 C   0  0  0  0  0  0  0  0  0  0  0  0
   -7.6458   -4.8697  -27.6129 O   0  0  0  0  0  0  0  0  0  0  0  0
   -8.4251   -4.0115  -25.5155 C   0  0  0  0  0  0  0  0  0  0  0  0
   -9.7386   -4.1713  -25.9141 C   0  0  0  0  0  0  0  0  0  0  0  0
  -10.7202   -3.7928  -25.0237 C   0  0  0  0  0  0  0  0  0  0  0  0
  -10.4339   -3.2688  -23.7694 C   0  0  0  0  0  0  0  0  0  0  0  0
  -11.7170   -2.8024  -22.6745 Cl  0  0  0  0  0  0  0  0  0  0  0  0
   -9.1034   -3.1074  -23.3655 C   0  0  0  0  0  0  0  0  0  0  0  0
   -8.1079   -3.4865  -24.2561 C   0  0  0  0  0  0  0  0  0  0  0  0
   -4.9560   -4.9992  -26.6006 C   0  0  0  0  0  0  0  0  0  0  0  0
   -4.6202   -6.1583  -25.7150 C   0  0  0  0  0  0  0  0  0  0  0  0
   -5.2606   -7.2309  -25.9107 O   0  0  0  0  0  0  0  0  0  0  0  0
   -3.6164   -6.0525  -24.6918 N   0  0  0  0  0  0  0  0  0  0  0  0
   -3.2760   -7.1558  -23.8265 C   0  0  0  0  0  0  0  0  0  0  0  0
   -3.1442   -5.1964  -24.5771 H   0  0  0  0  0  0  0  0  0  0  0  0
   -6.4348   -0.7590  -21.1083 C   0  0  0  0  0  0  0  0  0  0  0  0
   -7.3749   -1.1645  -20.1874 C   0  0  0  0  0  0  0  0  0  0  0  0
   -7.1490   -0.8472  -18.8987 N   0  0  0  0  0  0  0  0  0  0  0  0
   -6.0422   -0.1616  -18.5534 C   0  0  0  0  0  0  0  0  0  0  0  0
   -5.0996    0.2476  -19.4585 C   0  0  0  0  0  0  0  0  0  0  0  0
   -3.9799    0.9534  -19.0247 C   0  0  0  0  0  0  0  0  0  0  0  0
   -3.0606    1.3415  -19.9828 C   0  0  0  0  0  0  0  0  0  0  0  0
   -3.2464    1.0414  -21.3116 C   0  0  0  0  0  0  0  0  0  0  0  0
   -4.3691    0.3371  -21.7231 C   0  0  0  0  0  0  0  0  0  0  0  0
   -5.2953   -0.0582  -20.7870 C   0  0  0  0  0  0  0  0  0  0  0  0
   -6.9610    0.0134  -23.3395 C   0  0  0  0  0  0  0  0  0  0  0  0
   -8.2695    0.0975  -25.3328 C   0  0  0  0  0  0  0  0  0  0  0  0
   -8.2538    0.2088  -23.9708 C   0  0  0  0  0  0  0  0  0  0  0  0
   -9.5418    0.4657  -23.3911 C   0  0  0  0  0  0  0  0  0  0  0  0
  -10.5450    0.3464  -24.1938 O   0  0  0  0  0  0  0  0  0  0  0  0
   -9.8517    0.8147  -22.1103 O   0  0  0  0  0  0  0  0  0  0  0  0
 33 34  2  0  0  0
 34 32  1  0  0  0
 34 35  1  0  0  0
 32  1  1  0  0  0
  1  2  1  0  0  0
  1 22  1  0  0  0
  2  3  2  0  0  0
  4  2  1  0  0  0
  4  5  1  0  0  0
  5  6  1  0  0  0
  6 16  1  0  0  0
  6  7  1  0  0  0
 16 17  1  0  0  0
 17 18  2  0  0  0
 17 19  1  0  0  0
 19 20  1  0  0  0
 19 21  1  0  0  0
  7  8  2  0  0  0
  7  9  1  0  0  0
  9 10  2  0  0  0
 10 11  1  0  0  0
 11 12  2  0  0  0
 12 13  1  0  0  0
 12 14  1  0  0  0
 14 15  2  0  0  0
 15  4  1  0  0  0
 15  9  1  0  0  0
 22 23  2  0  0  0
 23 24  1  0  0  0
 24 25  2  0  0  0
 25 26  1  0  0  0
 26 27  2  0  0  0
 27 28  1  0  0  0
 28 29  2  0  0  0
 29 30  1  0  0  0
 30 31  2  0  0  0
 31 22  1  0  0  0
 31 26  1  0  0  0
 35 36  2  0  0  0
 35 37  1  0  0  0
M  CHG 1  37  -1
M  END
> <minimizedAffinity>
-8.04405

> <CNNscore>
0.3198867142

> <CNNaffinity>
6.0218057632

> <CNN_VS>
1.9262956381

> <CNNaffinity_variance>
0.1394152343

$$$$



 37 40  0  0  0  0  0  0  0  0999 V2000
   -6.4011   -4.7746  -24.3597 N   0  0  0  0  0  0  0  0  0  0  0  0
   -6.1484   -3.4110  -24.5053 C   0  0  0  0  0  0  0  0  0  0  0  0
   -5.3016   -3.1911  -25.5117 O   0  0  0  0  0  0  0  0  0  0  0  0
   -6.5693   -2.2148  -23.8415 C   0  0  0  0  0  0  0  0  0  0  0  0
   -5.8171   -1.8233  -22.5845 C   0  0  0  0  0  0  0  0  0  0  0  0
   -6.2898   -0.5101  -22.1086 N   0  0  0  0  0  0  0  0  0  0  0  0
   -7.7132   -0.4293  -21.8826 C   0  0  0  0  0  0  0  0  0  0  0  0
   -8.1610    0.3896  -21.0327 O   0  0  0  0  0  0  0  0  0  0  0  0
   -8.5654   -1.3159  -22.6670 C   0  0  0  0  0  0  0  0  0  0  0  0
   -9.9248   -1.2528  -22.4272 C   0  0  0  0  0  0  0  0  0  0  0  0
  -10.7342   -2.1047  -23.1475 C   0  0  0  0  0  0  0  0  0  0  0  0
  -10.2348   -3.0016  -24.0835 C   0  0  0  0  0  0  0  0  0  0  0  0
  -11.3048   -4.0634  -24.9727 Cl  0  0  0  0  0  0  0  0  0  0  0  0
   -8.8578   -3.0651  -24.3267 C   0  0  0  0  0  0  0  0  0  0  0  0
   -8.0349   -2.2102  -23.6057 C   0  0  0  0  0  0  0  0  0  0  0  0
   -5.4204    0.6025  -21.8817 C   0  0  0  0  0  0  0  0  0  0  0  0
   -4.8715    0.6230  -20.4892 C   0  0  0  0  0  0  0  0  0  0  0  0
   -3.7598    1.2017  -20.3220 O   0  0  0  0  0  0  0  0  0  0  0  0
   -5.5784    0.0123  -19.3969 N   0  0  0  0  0  0  0  0  0  0  0  0
   -5.0691    0.0195  -18.0469 C   0  0  0  0  0  0  0  0  0  0  0  0
   -6.4410   -0.4267  -19.5763 H   0  0  0  0  0  0  0  0  0  0  0  0
   -5.7352   -5.5581  -25.4540 C   0  0  0  0  0  0  0  0  0  0  0  0
   -4.3923   -5.8343  -25.3251 C   0  0  0  0  0  0  0  0  0  0  0  0
   -3.8121   -6.5377  -26.3156 N   0  0  0  0  0  0  0  0  0  0  0  0
   -4.5385   -6.9412  -27.3758 C   0  0  0  0  0  0  0  0  0  0  0  0
   -5.8740   -6.6736  -27.5166 C   0  0  0  0  0  0  0  0  0  0  0  0
   -6.5582   -7.1250  -28.6427 C   0  0  0  0  0  0  0  0  0  0  0  0
   -7.9058   -6.8255  -28.7322 C   0  0  0  0  0  0  0  0  0  0  0  0
   -8.5438   -6.1099  -27.7467 C   0  0  0  0  0  0  0  0  0  0  0  0
   -7.8437   -5.6693  -26.6324 C   0  0  0  0  0  0  0  0  0  0  0  0
   -6.5034   -5.9562  -26.5238 C   0  0  0  0  0  0  0  0  0  0  0  0
   -7.0881   -5.5821  -23.4487 C   0  0  0  0  0  0  0  0  0  0  0  0
   -6.4084   -7.7741  -22.7962 C   0  0  0  0  0  0  0  0  0  0  0  0
   -6.4079   -6.4409  -22.4959 C   0  0  0  0  0  0  0  0  0  0  0  0
   -5.6934   -6.1133  -21.2945 C   0  0  0  0  0  0  0  0  0  0  0  0
   -5.2964   -4.8891  -21.2018 O   0  0  0  0  0  0  0  0  0  0  0  0
   -5.3796   -6.9150  -20.2376 O   0  0  0  0  0  0  0  0  0  0  0  0
 33 34  2  0  0  0
 34 32  1  0  0  0
 34 35  1  0  0  0
 32  1  1  0  0  0
  1  2  1  0  0  0
  1 22  1  0  0  0
  2  3  2  0  0  0
  4  2  1  0  0  0
  4  5  1  0  0  0
  5  6  1  0  0  0
  6 16  1  0  0  0
  6  7  1  0  0  0
 16 17  1  0  0  0
 17 18  2  0  0  0
 17 19  1  0  0  0
 19 20  1  0  0  0
 19 21  1  0  0  0
  7  8  2  0  0  0
  7  9  1  0  0  0
  9 10  2  0  0  0
 10 11  1  0  0  0
 11 12  2  0  0  0
 12 13  1  0  0  0
 12 14  1  0  0  0
 14 15  2  0  0  0
 15  4  1  0  0  0
 15  9  1  0  0  0
 22 23  2  0  0  0
 23 24  1  0  0  0
 24 25  2  0  0  0
 25 26  1  0  0  0
 26 27  2  0  0  0
 27 28  1  0  0  0
 28 29  2  0  0  0
 29 30  1  0  0  0
 30 31  2  0  0  0
 31 22  1  0  0  0
 31 26  1  0  0  0
 35 36  2  0  0  0
 35 37  1  0  0  0
M  CHG 1  37  -1
M  END
> <minimizedAffinity>
-7.19761

> <CNNscore>
0.3074241281

> <CNNaffinity>
6.3131093979

> <CNN_VS>
1.9408020973

> <CNNaffinity_variance>
0.1566322446

$$$$



 37 40  0  0  0  0  0  0  0  0999 V2000
   -7.3384    1.3335  -23.7308 N   0  0  0  0  0  0  0  0  0  0  0  0
   -8.5821    1.6609  -23.1919 C   0  0  0  0  0  0  0  0  0  0  0  0
   -8.5733    1.5274  -21.8651 O   0  0  0  0  0  0  0  0  0  0  0  0
   -9.8429    2.0927  -23.7141 C   0  0  0  0  0  0  0  0  0  0  0  0
  -10.3755    3.4225  -23.2168 C   0  0  0  0  0  0  0  0  0  0  0  0
  -11.6069    3.7721  -23.9488 N   0  0  0  0  0  0  0  0  0  0  0  0
  -12.6435    2.7691  -23.8952 C   0  0  0  0  0  0  0  0  0  0  0  0
  -13.8513    3.1185  -24.0073 O   0  0  0  0  0  0  0  0  0  0  0  0
  -12.2240    1.3841  -23.7122 C   0  0  0  0  0  0  0  0  0  0  0  0
  -13.2222    0.4317  -23.6349 C   0  0  0  0  0  0  0  0  0  0  0  0
  -12.8344   -0.8762  -23.4380 C   0  0  0  0  0  0  0  0  0  0  0  0
  -11.5030   -1.2541  -23.3183 C   0  0  0  0  0  0  0  0  0  0  0  0
  -11.0618   -2.9292  -23.0685 Cl  0  0  0  0  0  0  0  0  0  0  0  0
  -10.4919   -0.2893  -23.3971 C   0  0  0  0  0  0  0  0  0  0  0  0
  -10.8734    1.0309  -23.5956 C   0  0  0  0  0  0  0  0  0  0  0  0
  -11.7768    5.0028  -24.6573 C   0  0  0  0  0  0  0  0  0  0  0  0
  -10.7513    5.1890  -25.7316 C   0  0  0  0  0  0  0  0  0  0  0  0
  -10.0728    6.2554  -25.6949 O   0  0  0  0  0  0  0  0  0  0  0  0
  -10.5507    4.1995  -26.7546 N   0  0  0  0  0  0  0  0  0  0  0  0
   -9.5686    4.3571  -27.7998 C   0  0  0  0  0  0  0  0  0  0  0  0
  -11.1033    3.3849  -26.7417 H   0  0  0  0  0  0  0  0  0  0  0  0
   -6.3457    1.0478  -22.6410 C   0  0  0  0  0  0  0  0  0  0  0  0
   -5.6095    2.1008  -22.1458 C   0  0  0  0  0  0  0  0  0  0  0  0
   -4.7246    1.8260  -21.1692 N   0  0  0  0  0  0  0  0  0  0  0  0
   -4.5861    0.5655  -20.7150 C   0  0  0  0  0  0  0  0  0  0  0  0
   -5.3114   -0.4906  -21.1983 C   0  0  0  0  0  0  0  0  0  0  0  0
   -5.1119   -1.7669  -20.6774 C   0  0  0  0  0  0  0  0  0  0  0  0
   -5.8723   -2.7959  -21.2035 C   0  0  0  0  0  0  0  0  0  0  0  0
   -6.7893   -2.5661  -22.2018 C   0  0  0  0  0  0  0  0  0  0  0  0
   -6.9728   -1.2866  -22.7070 C   0  0  0  0  0  0  0  0  0  0  0  0
   -6.2272   -0.2495  -22.1982 C   0  0  0  0  0  0  0  0  0  0  0  0
   -6.8019    1.1830  -25.0128 C   0  0  0  0  0  0  0  0  0  0  0  0
   -8.0038    1.0781  -27.0712 C   0  0  0  0  0  0  0  0  0  0  0  0
   -7.4412    0.3801  -26.0397 C   0  0  0  0  0  0  0  0  0  0  0  0
   -7.5489   -1.0454  -26.1721 C   0  0  0  0  0  0  0  0  0  0  0  0
   -6.4503   -1.6607  -26.4540 O   0  0  0  0  0  0  0  0  0  0  0  0
   -8.6495   -1.8385  -26.0380 O   0  0  0  0  0  0  0  0  0  0  0  0
 33 34  2  0  0  0
 34 32  1  0  0  0
 34 35  1  0  0  0
 32  1  1  0  0  0
  1  2  1  0  0  0
  1 22  1  0  0  0
  2  3  2  0  0  0
  4  2  1  0  0  0
  4  5  1  0  0  0
  5  6  1  0  0  0
  6 16  1  0  0  0
  6  7  1  0  0  0
 16 17  1  0  0  0
 17 18  2  0  0  0
 17 19  1  0  0  0
 19 20  1  0  0  0
 19 21  1  0  0  0
  7  8  2  0  0  0
  7  9  1  0  0  0
  9 10  2  0  0  0
 10 11  1  0  0  0
 11 12  2  0  0  0
 12 13  1  0  0  0
 12 14  1  0  0  0
 14 15  2  0  0  0
 15  4  1  0  0  0
 15  9  1  0  0  0
 22 23  2  0  0  0
 23 24  1  0  0  0
 24 25  2  0  0  0
 25 26  1  0  0  0
 26 27  2  0  0  0
 27 28  1  0  0  0
 28 29  2  0  0  0
 29 30  1  0  0  0
 30 31  2  0  0  0
 31 22  1  0  0  0
 31 26  1  0  0  0
 35 36  2  0  0  0
 35 37  1  0  0  0
M  CHG 1  37  -1
M  END
> <minimizedAffinity>
-6.43122

> <CNNscore>
0.3043142259

> <CNNaffinity>
5.8632936478

> <CNN_VS>
1.7842836380

> <CNNaffinity_variance>
0.3387015760

$$$$



 37 40  0  0  0  0  0  0  0  0999 V2000
   -8.5226    0.1783  -23.8985 N   0  0  0  0  0  0  0  0  0  0  0  0
   -8.5160   -0.4673  -22.6626 C   0  0  0  0  0  0  0  0  0  0  0  0
   -9.3136    0.1593  -21.7967 O   0  0  0  0  0  0  0  0  0  0  0  0
   -7.8657   -1.6170  -22.1110 C   0  0  0  0  0  0  0  0  0  0  0  0
   -6.3976   -1.4757  -21.7595 C   0  0  0  0  0  0  0  0  0  0  0  0
   -5.9251   -2.7004  -21.0878 N   0  0  0  0  0  0  0  0  0  0  0  0
   -6.1437   -3.9172  -21.8329 C   0  0  0  0  0  0  0  0  0  0  0  0
   -5.3758   -4.9024  -21.6513 O   0  0  0  0  0  0  0  0  0  0  0  0
   -7.2625   -3.9354  -22.7687 C   0  0  0  0  0  0  0  0  0  0  0  0
   -7.4506   -5.0937  -23.4984 C   0  0  0  0  0  0  0  0  0  0  0  0
   -8.4912   -5.1098  -24.4020 C   0  0  0  0  0  0  0  0  0  0  0  0
   -9.3344   -4.0227  -24.5948 C   0  0  0  0  0  0  0  0  0  0  0  0
  -10.6423   -4.0928  -25.7556 Cl  0  0  0  0  0  0  0  0  0  0  0  0
   -9.1440   -2.8496  -23.8552 C   0  0  0  0  0  0  0  0  0  0  0  0
   -8.0983   -2.8247  -22.9423 C   0  0  0  0  0  0  0  0  0  0  0  0
   -5.2964   -2.6990  -19.8032 C   0  0  0  0  0  0  0  0  0  0  0  0
   -5.7881   -1.5881  -18.9287 C   0  0  0  0  0  0  0  0  0  0  0  0
   -6.9879   -1.6590  -18.5357 O   0  0  0  0  0  0  0  0  0  0  0  0
   -4.9332   -0.4945  -18.5559 N   0  0  0  0  0  0  0  0  0  0  0  0
   -5.3849    0.5870  -17.7144 C   0  0  0  0  0  0  0  0  0  0  0  0
   -4.0061   -0.4829  -18.8867 H   0  0  0  0  0  0  0  0  0  0  0  0
   -9.5145    1.3055  -23.9038 C   0  0  0  0  0  0  0  0  0  0  0  0
  -10.8521    0.9884  -23.9840 C   0  0  0  0  0  0  0  0  0  0  0  0
  -11.7269    2.0117  -23.9875 N   0  0  0  0  0  0  0  0  0  0  0  0
  -11.2844    3.2819  -23.9146 C   0  0  0  0  0  0  0  0  0  0  0  0
   -9.9578    3.6113  -23.8345 C   0  0  0  0  0  0  0  0  0  0  0  0
   -9.5772    4.9492  -23.7620 C   0  0  0  0  0  0  0  0  0  0  0  0
   -8.2236    5.2233  -23.6828 C   0  0  0  0  0  0  0  0  0  0  0  0
   -7.2910    4.2130  -23.6759 C   0  0  0  0  0  0  0  0  0  0  0  0
   -7.6912    2.8863  -23.7489 C   0  0  0  0  0  0  0  0  0  0  0  0
   -9.0320    2.5918  -23.8283 C   0  0  0  0  0  0  0  0  0  0  0  0
   -7.8285    0.0546  -25.1055 C   0  0  0  0  0  0  0  0  0  0  0  0
   -6.1276   -1.5433  -25.6018 C   0  0  0  0  0  0  0  0  0  0  0  0
   -6.4171   -0.2808  -25.1661 C   0  0  0  0  0  0  0  0  0  0  0  0
   -5.2591    0.5167  -24.8763 C   0  0  0  0  0  0  0  0  0  0  0  0
   -5.0830    1.5384  -25.6444 O   0  0  0  0  0  0  0  0  0  0  0  0
   -4.3224    0.3460  -23.9006 O   0  0  0  0  0  0  0  0  0  0  0  0
 33 34  2  0  0  0
 34 32  1  0  0  0
 34 35  1  0  0  0
 32  1  1  0  0  0
  1  2  1  0  0  0
  1 22  1  0  0  0
  2  3  2  0  0  0
  4  2  1  0  0  0
  4  5  1  0  0  0
  5  6  1  0  0  0
  6 16  1  0  0  0
  6  7  1  0  0  0
 16 17  1  0  0  0
 17 18  2  0  0  0
 17 19  1  0  0  0
 19 20  1  0  0  0
 19 21  1  0  0  0
  7  8  2  0  0  0
  7  9  1  0  0  0
  9 10  2  0  0  0
 10 11  1  0  0  0
 11 12  2  0  0  0
 12 13  1  0  0  0
 12 14  1  0  0  0
 14 15  2  0  0  0
 15  4  1  0  0  0
 15  9  1  0  0  0
 22 23  2  0  0  0
 23 24  1  0  0  0
 24 25  2  0  0  0
 25 26  1  0  0  0
 26 27  2  0  0  0
 27 28  1  0  0  0
 28 29  2  0  0  0
 29 30  1  0  0  0
 30 31  2  0  0  0
 31 22  1  0  0  0
 31 26  1  0  0  0
 35 36  2  0  0  0
 35 37  1  0  0  0
M  CHG 1  37  -1
M  END
> <minimizedAffinity>
-6.71331

> <CNNscore>
0.2999146581

> <CNNaffinity>
6.0318088531

> <CNN_VS>
1.8090279102

> <CNNaffinity_variance>
0.1279392987

$$$$



 37 40  0  0  0  0  0  0  0  0999 V2000
   -9.6884   -2.0771  -23.1286 N   0  0  0  0  0  0  0  0  0  0  0  0
   -9.3854   -2.5539  -24.4035 C   0  0  0  0  0  0  0  0  0  0  0  0
  -10.4813   -2.6089  -25.1614 O   0  0  0  0  0  0  0  0  0  0  0  0
   -8.2022   -2.9946  -25.0777 C   0  0  0  0  0  0  0  0  0  0  0  0
   -7.3527   -4.0328  -24.3709 C   0  0  0  0  0  0  0  0  0  0  0  0
   -6.2553   -4.4660  -25.2555 N   0  0  0  0  0  0  0  0  0  0  0  0
   -5.4235   -3.3950  -25.7502 C   0  0  0  0  0  0  0  0  0  0  0  0
   -4.2220   -3.6329  -26.0553 O   0  0  0  0  0  0  0  0  0  0  0  0
   -6.0347   -2.0761  -25.8714 C   0  0  0  0  0  0  0  0  0  0  0  0
   -5.2261   -1.0494  -26.3203 C   0  0  0  0  0  0  0  0  0  0  0  0
   -5.7902    0.2047  -26.4145 C   0  0  0  0  0  0  0  0  0  0  0  0
   -7.1143    0.4589  -26.0797 C   0  0  0  0  0  0  0  0  0  0  0  0
   -7.7839    2.0700  -26.2164 Cl  0  0  0  0  0  0  0  0  0  0  0  0
   -7.9333   -0.5814  -25.6255 C   0  0  0  0  0  0  0  0  0  0  0  0
   -7.3735   -1.8482  -25.5278 C   0  0  0  0  0  0  0  0  0  0  0  0
   -6.0193   -5.8332  -25.6024 C   0  0  0  0  0  0  0  0  0  0  0  0
   -5.2115   -6.5530  -24.5680 C   0  0  0  0  0  0  0  0  0  0  0  0
   -5.8396   -7.3261  -23.7891 O   0  0  0  0  0  0  0  0  0  0  0  0
   -3.7893   -6.3708  -24.4686 N   0  0  0  0  0  0  0  0  0  0  0  0
   -2.9903   -7.0535  -23.4801 C   0  0  0  0  0  0  0  0  0  0  0  0
   -3.3443   -5.7581  -25.0976 H   0  0  0  0  0  0  0  0  0  0  0  0
  -11.1295   -1.6637  -23.0446 C   0  0  0  0  0  0  0  0  0  0  0  0
  -12.0555   -2.6185  -22.6882 C   0  0  0  0  0  0  0  0  0  0  0  0
  -13.3425   -2.2299  -22.6180 N   0  0  0  0  0  0  0  0  0  0  0  0
  -13.6814   -0.9549  -22.8901 C   0  0  0  0  0  0  0  0  0  0  0  0
  -12.7712    0.0043  -23.2456 C   0  0  0  0  0  0  0  0  0  0  0  0
  -13.1986    1.3030  -23.5121 C   0  0  0  0  0  0  0  0  0  0  0  0
  -12.2355    2.2306  -23.8666 C   0  0  0  0  0  0  0  0  0  0  0  0
  -10.9081    1.8827  -23.9522 C   0  0  0  0  0  0  0  0  0  0  0  0
  -10.5031    0.5830  -23.6825 C   0  0  0  0  0  0  0  0  0  0  0  0
  -11.4443   -0.3547  -23.3283 C   0  0  0  0  0  0  0  0  0  0  0  0
   -9.0014   -1.9148  -21.9221 C   0  0  0  0  0  0  0  0  0  0  0  0
   -6.6474   -2.1244  -21.5949 C   0  0  0  0  0  0  0  0  0  0  0  0
   -7.6960   -1.2841  -21.8433 C   0  0  0  0  0  0  0  0  0  0  0  0
   -7.3146    0.0883  -22.0226 C   0  0  0  0  0  0  0  0  0  0  0  0
   -6.2280    0.2790  -22.6918 O   0  0  0  0  0  0  0  0  0  0  0  0
   -7.9428    1.2171  -21.5870 O   0  0  0  0  0  0  0  0  0  0  0  0
 33 34  2  0  0  0
 34 32  1  0  0  0
 34 35  1  0  0  0
 32  1  1  0  0  0
  1  2  1  0  0  0
  1 22  1  0  0  0
  2  3  2  0  0  0
  4  2  1  0  0  0
  4  5  1  0  0  0
  5  6  1  0  0  0
  6 16  1  0  0  0
  6  7  1  0  0  0
 16 17  1  0  0  0
 17 18  2  0  0  0
 17 19  1  0  0  0
 19 20  1  0  0  0
 19 21  1  0  0  0
  7  8  2  0  0  0
  7  9  1  0  0  0
  9 10  2  0  0  0
 10 11  1  0  0  0
 11 12  2  0  0  0
 12 13  1  0  0  0
 12 14  1  0  0  0
 14 15  2  0  0  0
 15  4  1  0  0  0
 15  9  1  0  0  0
 22 23  2  0  0  0
 23 24  1  0  0  0
 24 25  2  0  0  0
 25 26  1  0  0  0
 26 27  2  0  0  0
 27 28  1  0  0  0
 28 29  2  0  0  0
 29 30  1  0  0  0
 30 31  2  0  0  0
 31 22  1  0  0  0
 31 26  1  0  0  0
 35 36  2  0  0  0
 35 37  1  0  0  0
M  CHG 1  37  -1
M  END
> <minimizedAffinity>
-6.77126

> <CNNscore>
0.2982713580

> <CNNaffinity>
5.8540806770

> <CNN_VS>
1.7461045980

> <CNNaffinity_variance>
0.3297354579

$$$$



 37 40  0  0  0  0  0  0  0  0999 V2000
   -6.0783   -0.5200  -22.0117 N   0  0  0  0  0  0  0  0  0  0  0  0
   -6.3288   -1.2460  -23.1755 C   0  0  0  0  0  0  0  0  0  0  0  0
   -5.7570   -0.6630  -24.2297 O   0  0  0  0  0  0  0  0  0  0  0  0
   -7.0440   -2.4420  -23.5026 C   0  0  0  0  0  0  0  0  0  0  0  0
   -6.5032   -3.2770  -24.6469 C   0  0  0  0  0  0  0  0  0  0  0  0
   -7.2762   -4.5275  -24.7610 N   0  0  0  0  0  0  0  0  0  0  0  0
   -8.7001   -4.3429  -24.9088 C   0  0  0  0  0  0  0  0  0  0  0  0
   -9.3804   -5.2201  -25.5096 O   0  0  0  0  0  0  0  0  0  0  0  0
   -9.2786   -3.1296  -24.3424 C   0  0  0  0  0  0  0  0  0  0  0  0
  -10.6378   -2.9456  -24.5103 C   0  0  0  0  0  0  0  0  0  0  0  0
  -11.1874   -1.7898  -23.9986 C   0  0  0  0  0  0  0  0  0  0  0  0
  -10.4332   -0.8297  -23.3360 C   0  0  0  0  0  0  0  0  0  0  0  0
  -11.1785    0.6223  -22.7044 Cl  0  0  0  0  0  0  0  0  0  0  0  0
   -9.0564   -1.0165  -23.1655 C   0  0  0  0  0  0  0  0  0  0  0  0
   -8.4943   -2.1782  -23.6775 C   0  0  0  0  0  0  0  0  0  0  0  0
   -6.6777   -5.8262  -24.7320 C   0  0  0  0  0  0  0  0  0  0  0  0
   -6.7318   -6.4490  -23.3720 C   0  0  0  0  0  0  0  0  0  0  0  0
   -7.7468   -7.1552  -23.1072 O   0  0  0  0  0  0  0  0  0  0  0  0
   -5.6775   -6.2511  -22.4155 N   0  0  0  0  0  0  0  0  0  0  0  0
   -5.7079   -6.8411  -21.0991 C   0  0  0  0  0  0  0  0  0  0  0  0
   -4.9068   -5.6927  -22.6675 H   0  0  0  0  0  0  0  0  0  0  0  0
   -5.1463    0.6240  -22.2894 C   0  0  0  0  0  0  0  0  0  0  0  0
   -3.7931    0.3688  -22.2909 C   0  0  0  0  0  0  0  0  0  0  0  0
   -2.9727    1.4063  -22.5418 N   0  0  0  0  0  0  0  0  0  0  0  0
   -3.4814    2.6310  -22.7780 C   0  0  0  0  0  0  0  0  0  0  0  0
   -4.8243    2.8987  -22.7796 C   0  0  0  0  0  0  0  0  0  0  0  0
   -5.2747    4.1922  -23.0326 C   0  0  0  0  0  0  0  0  0  0  0  0
   -6.6416    4.4045  -23.0215 C   0  0  0  0  0  0  0  0  0  0  0  0
   -7.5205    3.3774  -22.7704 C   0  0  0  0  0  0  0  0  0  0  0  0
   -7.0510    2.0956  -22.5206 C   0  0  0  0  0  0  0  0  0  0  0  0
   -5.6959    1.8628  -22.5269 C   0  0  0  0  0  0  0  0  0  0  0  0
   -6.4925   -0.5768  -20.6778 C   0  0  0  0  0  0  0  0  0  0  0  0
   -5.5117   -0.7969  -18.5140 C   0  0  0  0  0  0  0  0  0  0  0  0
   -5.8365   -1.4139  -19.6893 C   0  0  0  0  0  0  0  0  0  0  0  0
   -5.5022   -2.8095  -19.7279 C   0  0  0  0  0  0  0  0  0  0  0  0
   -5.5223   -3.4162  -18.5893 O   0  0  0  0  0  0  0  0  0  0  0  0
   -5.1700   -3.5825  -20.8005 O   0  0  0  0  0  0  0  0  0  0  0  0
 33 34  2  0  0  0
 34 32  1  0  0  0
 34 35  1  0  0  0
 32  1  1  0  0  0
  1  2  1  0  0  0
  1 22  1  0  0  0
  2  3  2  0  0  0
  4  2  1  0  0  0
  4  5  1  0  0  0
  5  6  1  0  0  0
  6 16  1  0  0  0
  6  7  1  0  0  0
 16 17  1  0  0  0
 17 18  2  0  0  0
 17 19  1  0  0  0
 19 20  1  0  0  0
 19 21  1  0  0  0
  7  8  2  0  0  0
  7  9  1  0  0  0
  9 10  2  0  0  0
 10 11  1  0  0  0
 11 12  2  0  0  0
 12 13  1  0  0  0
 12 14  1  0  0  0
 14 15  2  0  0  0
 15  4  1  0  0  0
 15  9  1  0  0  0
 22 23  2  0  0  0
 23 24  1  0  0  0
 24 25  2  0  0  0
 25 26  1  0  0  0
 26 27  2  0  0  0
 27 28  1  0  0  0
 28 29  2  0  0  0
 29 30  1  0  0  0
 30 31  2  0  0  0
 31 22  1  0  0  0
 31 26  1  0  0  0
 35 36  2  0  0  0
 35 37  1  0  0  0
M  CHG 1  37  -1
M  END
> <minimizedAffinity>
-7.31749

> <CNNscore>
0.2872887552

> <CNNaffinity>
6.2170076370

> <CNN_VS>
1.7860764265

> <CNNaffinity_variance>
0.0978878215

$$$$



 21 23  0  0  0  0  0  0  0  0999 V2000
   -6.2970   -1.9912  -21.4777 C   0  0  0  0  0  0  0  0  0  0  0  0
   -5.8741   -1.1752  -20.3291 C   0  0  0  0  0  0  0  0  0  0  0  0
   -6.4564   -1.2728  -19.0824 C   0  0  0  0  0  0  0  0  0  0  0  0
   -6.0826   -0.5351  -18.0257 N   0  0  0  0  0  0  0  0  0  0  0  0
   -5.0722    0.3726  -18.1569 C   0  0  0  0  0  0  0  0  0  0  0  0
   -4.4686    0.4945  -19.3926 C   0  0  0  0  0  0  0  0  0  0  0  0
   -3.4436    1.4024  -19.5607 C   0  0  0  0  0  0  0  0  0  0  0  0
   -2.7844    1.5909  -20.7564 C   0  0  0  0  0  0  0  0  0  0  0  0
   -3.1730    0.8303  -21.8379 C   0  0  0  0  0  0  0  0  0  0  0  0
   -4.1897   -0.0778  -21.6919 C   0  0  0  0  0  0  0  0  0  0  0  0
   -4.8393   -0.2549  -20.4900 C   0  0  0  0  0  0  0  0  0  0  0  0
   -7.2652   -6.3928  -24.1743 C   0  0  0  0  0  0  0  0  0  0  0  0
   -5.8741   -6.3658  -23.5881 C   0  0  0  0  0  0  0  0  0  0  0  0
   -5.8308   -5.7203  -22.2335 C   0  0  0  0  0  0  0  0  0  0  0  0
   -6.2863   -4.3291  -22.3665 N   0  0  0  0  0  0  0  0  0  0  0  0
   -5.8644   -3.3929  -21.3828 C   0  0  0  0  0  0  0  0  0  0  0  0
   -5.1346   -3.7832  -20.4586 O   0  0  0  0  0  0  0  0  0  0  0  0
   -7.1358   -3.9861  -23.4855 C   0  0  0  0  0  0  0  0  0  0  0  0
   -8.0358   -5.1318  -23.8866 C   0  0  0  0  0  0  0  0  0  0  0  0
   -8.5715   -6.7087  -26.2667 C   0  0  0  0  0  0  0  0  0  0  0  0
   -7.2065   -6.7430  -25.6416 C   0  0  0  0  0  0  0  0  0  0  0  0
 20 21  1  0  0  0
 21 12  1  0  0  0
 12 13  1  0  0  0
 13 14  1  0  0  0
 14 15  1  0  0  0
 15 16  1  0  0  0
 15 18  1  0  0  0
 16 17  2  0  0  0
 16  1  1  0  0  0
  1  2  1  0  0  0
  2  3  2  0  0  0
  3  4  1  0  0  0
  4  5  2  0  0  0
  5  6  1  0  0  0
  6  7  2  0  0  0
  7  8  1  0  0  0
  8  9  2  0  0  0
  9 10  1  0  0  0
 10 11  2  0  0  0
 11  2  1  0  0  0
 11  6  1  0  0  0
 18 19  1  0  0  0
 19 12  1  0  0  0
M  END
> <minimizedAffinity>
-7.22226

> <CNNscore>
0.7672936916

> <CNNaffinity>
5.1404118538

> <CNN_VS>
3.9442055225

> <CNNaffinity_variance>
0.3495471179

$$$$



 21 23  0  0  0  0  0  0  0  0999 V2000
   -6.3928   -2.3522  -21.4116 C   0  0  0  0  0  0  0  0  0  0  0  0
   -5.8962   -1.5369  -20.2923 C   0  0  0  0  0  0  0  0  0  0  0  0
   -6.2863   -1.7380  -18.9846 C   0  0  0  0  0  0  0  0  0  0  0  0
   -5.8431   -1.0024  -17.9535 N   0  0  0  0  0  0  0  0  0  0  0  0
   -4.9554    0.0098  -18.1758 C   0  0  0  0  0  0  0  0  0  0  0  0
   -4.5453    0.2369  -19.4744 C   0  0  0  0  0  0  0  0  0  0  0  0
   -3.6483    1.2521  -19.7352 C   0  0  0  0  0  0  0  0  0  0  0  0
   -3.1843    1.5497  -20.9985 C   0  0  0  0  0  0  0  0  0  0  0  0
   -3.6433    0.7908  -22.0533 C   0  0  0  0  0  0  0  0  0  0  0  0
   -4.5351   -0.2231  -21.8154 C   0  0  0  0  0  0  0  0  0  0  0  0
   -4.9899   -0.5086  -20.5467 C   0  0  0  0  0  0  0  0  0  0  0  0
   -9.5878   -3.7457  -25.3401 C   0  0  0  0  0  0  0  0  0  0  0  0
  -10.3385   -3.4030  -24.0757 C   0  0  0  0  0  0  0  0  0  0  0  0
   -9.7137   -2.2635  -23.3243 C   0  0  0  0  0  0  0  0  0  0  0  0
   -8.3485   -2.6514  -22.9418 N   0  0  0  0  0  0  0  0  0  0  0  0
   -7.7565   -1.9947  -21.8280 C   0  0  0  0  0  0  0  0  0  0  0  0
   -8.4096   -1.1274  -21.2277 O   0  0  0  0  0  0  0  0  0  0  0  0
   -7.6813   -3.6761  -23.7140 C   0  0  0  0  0  0  0  0  0  0  0  0
   -8.0952   -3.6510  -25.1672 C   0  0  0  0  0  0  0  0  0  0  0  0
   -9.6102   -5.2786  -27.2982 C   0  0  0  0  0  0  0  0  0  0  0  0
  -10.0501   -5.0792  -25.8763 C   0  0  0  0  0  0  0  0  0  0  0  0
 20 21  1  0  0  0
 21 12  1  0  0  0
 12 13  1  0  0  0
 13 14  1  0  0  0
 14 15  1  0  0  0
 15 16  1  0  0  0
 15 18  1  0  0  0
 16 17  2  0  0  0
 16  1  1  0  0  0
  1  2  1  0  0  0
  2  3  2  0  0  0
  3  4  1  0  0  0
  4  5  2  0  0  0
  5  6  1  0  0  0
  6  7  2  0  0  0
  7  8  1  0  0  0
  8  9  2  0  0  0
  9 10  1  0  0  0
 10 11  2  0  0  0
 11  2  1  0  0  0
 11  6  1  0  0  0
 18 19  1  0  0  0
 19 12  1  0  0  0
M  END
> <minimizedAffinity>
-6.75190

> <CNNscore>
0.7575284839

> <CNNaffinity>
5.1569995880

> <CNN_VS>
3.9065740108

> <CNNaffinity_variance>
0.2081629932

$$$$



 21 23  0  0  0  0  0  0  0  0999 V2000
  -11.1050    2.0801  -23.4936 C   0  0  0  0  0  0  0  0  0  0  0  0
  -12.0683    3.1842  -23.3620 C   0  0  0  0  0  0  0  0  0  0  0  0
  -12.9897    3.2601  -22.3383 C   0  0  0  0  0  0  0  0  0  0  0  0
  -13.8749    4.2597  -22.2053 N   0  0  0  0  0  0  0  0  0  0  0  0
  -13.8918    5.2750  -23.1169 C   0  0  0  0  0  0  0  0  0  0  0  0
  -12.9818    5.2283  -24.1541 C   0  0  0  0  0  0  0  0  0  0  0  0
  -12.9710    6.2385  -25.0936 C   0  0  0  0  0  0  0  0  0  0  0  0
  -12.0991    6.2741  -26.1605 C   0  0  0  0  0  0  0  0  0  0  0  0
  -11.1924    5.2446  -26.2916 C   0  0  0  0  0  0  0  0  0  0  0  0
  -11.1866    4.2309  -25.3684 C   0  0  0  0  0  0  0  0  0  0  0  0
  -12.0647    4.2091  -24.3070 C   0  0  0  0  0  0  0  0  0  0  0  0
   -9.4258   -2.8880  -23.7777 C   0  0  0  0  0  0  0  0  0  0  0  0
  -10.7778   -2.7697  -23.1161 C   0  0  0  0  0  0  0  0  0  0  0  0
  -11.6356   -1.7082  -23.7415 C   0  0  0  0  0  0  0  0  0  0  0  0
  -10.9533   -0.4143  -23.5976 N   0  0  0  0  0  0  0  0  0  0  0  0
  -11.7470    0.7652  -23.6336 C   0  0  0  0  0  0  0  0  0  0  0  0
  -12.9737    0.6571  -23.7836 O   0  0  0  0  0  0  0  0  0  0  0  0
   -9.5172   -0.4076  -23.4276 C   0  0  0  0  0  0  0  0  0  0  0  0
   -8.8537   -1.5495  -24.1621 C   0  0  0  0  0  0  0  0  0  0  0  0
   -7.9803   -4.9092  -23.6787 C   0  0  0  0  0  0  0  0  0  0  0  0
   -8.4980   -3.7186  -22.9241 C   0  0  0  0  0  0  0  0  0  0  0  0
 20 21  1  0  0  0
 21 12  1  0  0  0
 12 13  1  0  0  0
 13 14  1  0  0  0
 14 15  1  0  0  0
 15 16  1  0  0  0
 15 18  1  0  0  0
 16 17  2  0  0  0
 16  1  1  0  0  0
  1  2  1  0  0  0
  2  3  2  0  0  0
  3  4  1  0  0  0
  4  5  2  0  0  0
  5  6  1  0  0  0
  6  7  2  0  0  0
  7  8  1  0  0  0
  8  9  2  0  0  0
  9 10  1  0  0  0
 10 11  2  0  0  0
 11  2  1  0  0  0
 11  6  1  0  0  0
 18 19  1  0  0  0
 19 12  1  0  0  0
M  END
> <minimizedAffinity>
-6.00169

> <CNNscore>
0.6546950340

> <CNNaffinity>
4.9449377060

> <CNN_VS>
3.2374260426

> <CNNaffinity_variance>
0.1201111674

$$$$



 21 23  0  0  0  0  0  0  0  0999 V2000
   -6.6202   -1.4096  -22.2083 C   0  0  0  0  0  0  0  0  0  0  0  0
   -6.3090   -0.8620  -20.8788 C   0  0  0  0  0  0  0  0  0  0  0  0
   -7.1192   -1.0526  -19.7788 C   0  0  0  0  0  0  0  0  0  0  0  0
   -6.8494   -0.5591  -18.5605 N   0  0  0  0  0  0  0  0  0  0  0  0
   -5.7177    0.1775  -18.3635 C   0  0  0  0  0  0  0  0  0  0  0  0
   -4.8855    0.3864  -19.4451 C   0  0  0  0  0  0  0  0  0  0  0  0
   -3.7327    1.1263  -19.2816 C   0  0  0  0  0  0  0  0  0  0  0  0
   -2.8447    1.3846  -20.3036 C   0  0  0  0  0  0  0  0  0  0  0  0
   -3.1273    0.8751  -21.5525 C   0  0  0  0  0  0  0  0  0  0  0  0
   -4.2680    0.1370  -21.7361 C   0  0  0  0  0  0  0  0  0  0  0  0
   -5.1463   -0.1128  -20.7045 C   0  0  0  0  0  0  0  0  0  0  0  0
  -11.6618   -1.2022  -23.6652 C   0  0  0  0  0  0  0  0  0  0  0  0
  -11.0415    0.1673  -23.5256 C   0  0  0  0  0  0  0  0  0  0  0  0
   -9.6118    0.2028  -23.9818 C   0  0  0  0  0  0  0  0  0  0  0  0
   -8.8347   -0.7263  -23.1491 N   0  0  0  0  0  0  0  0  0  0  0  0
   -7.4350   -0.5041  -23.0312 C   0  0  0  0  0  0  0  0  0  0  0  0
   -6.9287    0.4570  -23.6304 O   0  0  0  0  0  0  0  0  0  0  0  0
   -9.5302   -1.8130  -22.4959 C   0  0  0  0  0  0  0  0  0  0  0  0
  -10.7027   -2.3075  -23.3111 C   0  0  0  0  0  0  0  0  0  0  0  0
  -13.1032   -2.5667  -22.1668 C   0  0  0  0  0  0  0  0  0  0  0  0
  -12.9638   -1.2656  -22.9037 C   0  0  0  0  0  0  0  0  0  0  0  0
 20 21  1  0  0  0
 21 12  1  0  0  0
 12 13  1  0  0  0
 13 14  1  0  0  0
 14 15  1  0  0  0
 15 16  1  0  0  0
 15 18  1  0  0  0
 16 17  2  0  0  0
 16  1  1  0  0  0
  1  2  1  0  0  0
  2  3  2  0  0  0
  3  4  1  0  0  0
  4  5  2  0  0  0
  5  6  1  0  0  0
  6  7  2  0  0  0
  7  8  1  0  0  0
  8  9  2  0  0  0
  9 10  1  0  0  0
 10 11  2  0  0  0
 11  2  1  0  0  0
 11  6  1  0  0  0
 18 19  1  0  0  0
 19 12  1  0  0  0
M  END
> <minimizedAffinity>
-6.61346

> <CNNscore>
0.5939925313

> <CNNaffinity>
5.2441353798

> <CNN_VS>
3.1149773598

> <CNNaffinity_variance>
0.0591018721

$$$$



 21 23  0  0  0  0  0  0  0  0999 V2000
   -9.5185   -1.9297  -23.5397 C   0  0  0  0  0  0  0  0  0  0  0  0
  -10.9350   -1.6200  -23.2911 C   0  0  0  0  0  0  0  0  0  0  0  0
  -11.8514   -2.5670  -22.8835 C   0  0  0  0  0  0  0  0  0  0  0  0
  -13.1462   -2.3002  -22.6536 N   0  0  0  0  0  0  0  0  0  0  0  0
  -13.6165   -1.0304  -22.8230 C   0  0  0  0  0  0  0  0  0  0  0  0
  -12.7240   -0.0592  -23.2307 C   0  0  0  0  0  0  0  0  0  0  0  0
  -13.1654    1.2353  -23.4116 C   0  0  0  0  0  0  0  0  0  0  0  0
  -12.3463    2.2676  -23.8157 C   0  0  0  0  0  0  0  0  0  0  0  0
  -11.0176    1.9872  -24.0502 C   0  0  0  0  0  0  0  0  0  0  0  0
  -10.5587    0.7070  -23.8762 C   0  0  0  0  0  0  0  0  0  0  0  0
  -11.3898   -0.3146  -23.4717 C   0  0  0  0  0  0  0  0  0  0  0  0
   -6.6544   -6.3318  -23.5839 C   0  0  0  0  0  0  0  0  0  0  0  0
   -7.9555   -6.4787  -24.3358 C   0  0  0  0  0  0  0  0  0  0  0  0
   -8.3344   -5.2330  -25.0828 C   0  0  0  0  0  0  0  0  0  0  0  0
   -8.5002   -4.1411  -24.1128 N   0  0  0  0  0  0  0  0  0  0  0  0
   -9.3257   -3.0431  -24.4801 C   0  0  0  0  0  0  0  0  0  0  0  0
   -9.8692   -3.0492  -25.5952 O   0  0  0  0  0  0  0  0  0  0  0  0
   -7.8186   -4.2397  -22.8411 C   0  0  0  0  0  0  0  0  0  0  0  0
   -6.5012   -4.9707  -22.9588 C   0  0  0  0  0  0  0  0  0  0  0  0
   -5.7262   -7.0314  -21.3854 C   0  0  0  0  0  0  0  0  0  0  0  0
   -6.4863   -7.4684  -22.6046 C   0  0  0  0  0  0  0  0  0  0  0  0
 20 21  1  0  0  0
 21 12  1  0  0  0
 12 13  1  0  0  0
 13 14  1  0  0  0
 14 15  1  0  0  0
 15 16  1  0  0  0
 15 18  1  0  0  0
 16 17  2  0  0  0
 16  1  1  0  0  0
  1  2  1  0  0  0
  2  3  2  0  0  0
  3  4  1  0  0  0
  4  5  2  0  0  0
  5  6  1  0  0  0
  6  7  2  0  0  0
  7  8  1  0  0  0
  8  9  2  0  0  0
  9 10  1  0  0  0
 10 11  2  0  0  0
 11  2  1  0  0  0
 11  6  1  0  0  0
 18 19  1  0  0  0
 19 12  1  0  0  0
M  END
> <minimizedAffinity>
-6.63000

> <CNNscore>
0.5623073578

> <CNNaffinity>
5.1406984329

> <CNN_VS>
2.8906526566

> <CNNaffinity_variance>
0.3761395216

$$$$



 21 23  0  0  0  0  0  0  0  0999 V2000
   -6.7726   -1.3986  -21.8675 C   0  0  0  0  0  0  0  0  0  0  0  0
   -6.3051   -0.8139  -20.6012 C   0  0  0  0  0  0  0  0  0  0  0  0
   -6.9800   -0.9670  -19.4079 C   0  0  0  0  0  0  0  0  0  0  0  0
   -6.5669   -0.4393  -18.2454 N   0  0  0  0  0  0  0  0  0  0  0  0
   -5.4180    0.2960  -18.2057 C   0  0  0  0  0  0  0  0  0  0  0  0
   -4.7190    0.4678  -19.3838 C   0  0  0  0  0  0  0  0  0  0  0  0
   -3.5532    1.2054  -19.3799 C   0  0  0  0  0  0  0  0  0  0  0  0
   -2.7916    1.4281  -20.5069 C   0  0  0  0  0  0  0  0  0  0  0  0
   -3.2211    0.8836  -21.6978 C   0  0  0  0  0  0  0  0  0  0  0  0
   -4.3773    0.1472  -21.7231 C   0  0  0  0  0  0  0  0  0  0  0  0
   -5.1281   -0.0668  -20.5880 C   0  0  0  0  0  0  0  0  0  0  0  0
   -8.6358   -5.3521  -24.7797 C   0  0  0  0  0  0  0  0  0  0  0  0
   -7.1785   -5.5285  -24.4266 C   0  0  0  0  0  0  0  0  0  0  0  0
   -6.8577   -5.0468  -23.0415 C   0  0  0  0  0  0  0  0  0  0  0  0
   -7.1650   -3.6114  -22.9655 N   0  0  0  0  0  0  0  0  0  0  0  0
   -6.4947   -2.8378  -21.9782 C   0  0  0  0  0  0  0  0  0  0  0  0
   -5.6838   -3.3997  -21.2260 O   0  0  0  0  0  0  0  0  0  0  0  0
   -8.1281   -3.0626  -23.8943 C   0  0  0  0  0  0  0  0  0  0  0  0
   -9.2040   -4.0616  -24.2519 C   0  0  0  0  0  0  0  0  0  0  0  0
   -8.6754   -6.9782  -26.6609 C   0  0  0  0  0  0  0  0  0  0  0  0
   -8.8396   -5.5393  -26.2639 C   0  0  0  0  0  0  0  0  0  0  0  0
 20 21  1  0  0  0
 21 12  1  0  0  0
 12 13  1  0  0  0
 13 14  1  0  0  0
 14 15  1  0  0  0
 15 16  1  0  0  0
 15 18  1  0  0  0
 16 17  2  0  0  0
 16  1  1  0  0  0
  1  2  1  0  0  0
  2  3  2  0  0  0
  3  4  1  0  0  0
  4  5  2  0  0  0
  5  6  1  0  0  0
  6  7  2  0  0  0
  7  8  1  0  0  0
  8  9  2  0  0  0
  9 10  1  0  0  0
 10 11  2  0  0  0
 11  2  1  0  0  0
 11  6  1  0  0  0
 18 19  1  0  0  0
 19 12  1  0  0  0
M  END
> <minimizedAffinity>
-6.53345

> <CNNscore>
0.5403932333

> <CNNaffinity>
5.0314645767

> <CNN_VS>
2.7189693451

> <CNNaffinity_variance>
0.3005655110

$$$$



 21 23  0  0  0  0  0  0  0  0999 V2000
   -8.5726   -0.8521  -23.4955 C   0  0  0  0  0  0  0  0  0  0  0  0
   -9.8227   -0.0839  -23.6014 C   0  0  0  0  0  0  0  0  0  0  0  0
   -9.8631    1.2345  -24.0050 C   0  0  0  0  0  0  0  0  0  0  0  0
  -10.9948    1.9485  -24.1057 N   0  0  0  0  0  0  0  0  0  0  0  0
  -12.1911    1.3682  -23.7992 C   0  0  0  0  0  0  0  0  0  0  0  0
  -12.1846    0.0491  -23.3918 C   0  0  0  0  0  0  0  0  0  0  0  0
  -13.3764   -0.5691  -23.0743 C   0  0  0  0  0  0  0  0  0  0  0  0
  -13.4648   -1.8806  -22.6596 C   0  0  0  0  0  0  0  0  0  0  0  0
  -12.2990   -2.6086  -22.5581 C   0  0  0  0  0  0  0  0  0  0  0  0
  -11.1040   -2.0128  -22.8690 C   0  0  0  0  0  0  0  0  0  0  0  0
  -11.0316   -0.7005  -23.2823 C   0  0  0  0  0  0  0  0  0  0  0  0
   -6.7818   -5.7823  -23.7597 C   0  0  0  0  0  0  0  0  0  0  0  0
   -7.8807   -5.5100  -24.7586 C   0  0  0  0  0  0  0  0  0  0  0  0
   -7.8062   -4.1263  -25.3359 C   0  0  0  0  0  0  0  0  0  0  0  0
   -7.9486   -3.1569  -24.2403 N   0  0  0  0  0  0  0  0  0  0  0  0
   -8.4158   -1.8526  -24.5611 C   0  0  0  0  0  0  0  0  0  0  0  0
   -8.6827   -1.5860  -25.7429 O   0  0  0  0  0  0  0  0  0  0  0  0
   -7.6081   -3.5776  -22.8992 C   0  0  0  0  0  0  0  0  0  0  0  0
   -6.4858   -4.5894  -22.8900 C   0  0  0  0  0  0  0  0  0  0  0  0
   -6.3204   -7.0774  -21.6874 C   0  0  0  0  0  0  0  0  0  0  0  0
   -7.0856   -7.0382  -22.9789 C   0  0  0  0  0  0  0  0  0  0  0  0
 20 21  1  0  0  0
 21 12  1  0  0  0
 12 13  1  0  0  0
 13 14  1  0  0  0
 14 15  1  0  0  0
 15 16  1  0  0  0
 15 18  1  0  0  0
 16 17  2  0  0  0
 16  1  1  0  0  0
  1  2  1  0  0  0
  2  3  2  0  0  0
  3  4  1  0  0  0
  4  5  2  0  0  0
  5  6  1  0  0  0
  6  7  2  0  0  0
  7  8  1  0  0  0
  8  9  2  0  0  0
  9 10  1  0  0  0
 10 11  2  0  0  0
 11  2  1  0  0  0
 11  6  1  0  0  0
 18 19  1  0  0  0
 19 12  1  0  0  0
M  END
> <minimizedAffinity>
-5.85086

> <CNNscore>
0.4839090109

> <CNNaffinity>
5.1814370155

> <CNN_VS>
2.5073440075

> <CNNaffinity_variance>
0.1143867150

$$$$



 21 23  0  0  0  0  0  0  0  0999 V2000
   -7.7262   -0.3211  -21.8653 C   0  0  0  0  0  0  0  0  0  0  0  0
   -6.8985   -0.3800  -20.6505 C   0  0  0  0  0  0  0  0  0  0  0  0
   -7.2050   -1.1808  -19.5700 C   0  0  0  0  0  0  0  0  0  0  0  0
   -6.4608   -1.2447  -18.4552 N   0  0  0  0  0  0  0  0  0  0  0  0
   -5.3302   -0.4878  -18.3515 C   0  0  0  0  0  0  0  0  0  0  0  0
   -4.9958    0.3248  -19.4164 C   0  0  0  0  0  0  0  0  0  0  0  0
   -3.8591    1.1033  -19.3454 C   0  0  0  0  0  0  0  0  0  0  0  0
   -3.4487    1.9424  -20.3589 C   0  0  0  0  0  0  0  0  0  0  0  0
   -4.2172    2.0036  -21.5012 C   0  0  0  0  0  0  0  0  0  0  0  0
   -5.3508    1.2378  -21.5918 C   0  0  0  0  0  0  0  0  0  0  0  0
   -5.7483    0.4036  -20.5700 C   0  0  0  0  0  0  0  0  0  0  0  0
   -6.6471   -4.7804  -24.4213 C   0  0  0  0  0  0  0  0  0  0  0  0
   -7.5751   -4.9934  -23.2497 C   0  0  0  0  0  0  0  0  0  0  0  0
   -8.5493   -3.8652  -23.0722 C   0  0  0  0  0  0  0  0  0  0  0  0
   -7.7911   -2.6309  -22.8226 N   0  0  0  0  0  0  0  0  0  0  0  0
   -8.4477   -1.5730  -22.1356 C   0  0  0  0  0  0  0  0  0  0  0  0
   -9.6247   -1.7315  -21.7768 O   0  0  0  0  0  0  0  0  0  0  0  0
   -6.4233   -2.5567  -23.2861 C   0  0  0  0  0  0  0  0  0  0  0  0
   -6.2116   -3.3455  -24.5575 C   0  0  0  0  0  0  0  0  0  0  0  0
   -5.4686   -6.4868  -23.0488 C   0  0  0  0  0  0  0  0  0  0  0  0
   -5.4974   -5.7571  -24.3609 C   0  0  0  0  0  0  0  0  0  0  0  0
 20 21  1  0  0  0
 21 12  1  0  0  0
 12 13  1  0  0  0
 13 14  1  0  0  0
 14 15  1  0  0  0
 15 16  1  0  0  0
 15 18  1  0  0  0
 16 17  2  0  0  0
 16  1  1  0  0  0
  1  2  1  0  0  0
  2  3  2  0  0  0
  3  4  1  0  0  0
  4  5  2  0  0  0
  5  6  1  0  0  0
  6  7  2  0  0  0
  7  8  1  0  0  0
  8  9  2  0  0  0
  9 10  1  0  0  0
 10 11  2  0  0  0
 11  2  1  0  0  0
 11  6  1  0  0  0
 18 19  1  0  0  0
 19 12  1  0  0  0
M  END
> <minimizedAffinity>
-6.38214

> <CNNscore>
0.3868331909

> <CNNaffinity>
5.0648155212

> <CNN_VS>
1.9592387676

> <CNNaffinity_variance>
0.1081785336

$$$$



 21 23  0  0  0  0  0  0  0  0999 V2000
   -7.6209   -0.1751  -21.4281 C   0  0  0  0  0  0  0  0  0  0  0  0
   -7.7253   -1.5214  -22.0118 C   0  0  0  0  0  0  0  0  0  0  0  0
   -6.7004   -2.4433  -21.9636 C   0  0  0  0  0  0  0  0  0  0  0  0
   -6.7801   -3.6742  -22.4919 N   0  0  0  0  0  0  0  0  0  0  0  0
   -7.9257   -4.0688  -23.1196 C   0  0  0  0  0  0  0  0  0  0  0  0
   -8.9705   -3.1687  -23.1849 C   0  0  0  0  0  0  0  0  0  0  0  0
  -10.1435   -3.5347  -23.8120 C   0  0  0  0  0  0  0  0  0  0  0  0
  -11.2366   -2.7026  -23.9239 C   0  0  0  0  0  0  0  0  0  0  0  0
  -11.1484   -1.4397  -23.3793 C   0  0  0  0  0  0  0  0  0  0  0  0
   -9.9914   -1.0563  -22.7517 C   0  0  0  0  0  0  0  0  0  0  0  0
   -8.9069   -1.8996  -22.6478 C   0  0  0  0  0  0  0  0  0  0  0  0
   -2.5801    1.1993  -20.8953 C   0  0  0  0  0  0  0  0  0  0  0  0
   -3.3985    1.5078  -19.6647 C   0  0  0  0  0  0  0  0  0  0  0  0
   -4.4395    0.4625  -19.3868 C   0  0  0  0  0  0  0  0  0  0  0  0
   -5.3592    0.4059  -20.5320 N   0  0  0  0  0  0  0  0  0  0  0  0
   -6.6693   -0.1009  -20.3102 C   0  0  0  0  0  0  0  0  0  0  0  0
   -6.9823   -0.4723  -19.1687 O   0  0  0  0  0  0  0  0  0  0  0  0
   -4.8866    0.8665  -21.8188 C   0  0  0  0  0  0  0  0  0  0  0  0
   -3.4091    0.6100  -22.0054 C   0  0  0  0  0  0  0  0  0  0  0  0
   -2.4236    3.6799  -20.8139 C   0  0  0  0  0  0  0  0  0  0  0  0
   -1.7877    2.4145  -21.3133 C   0  0  0  0  0  0  0  0  0  0  0  0
 20 21  1  0  0  0
 21 12  1  0  0  0
 12 13  1  0  0  0
 13 14  1  0  0  0
 14 15  1  0  0  0
 15 16  1  0  0  0
 15 18  1  0  0  0
 16 17  2  0  0  0
 16  1  1  0  0  0
  1  2  1  0  0  0
  2  3  2  0  0  0
  3  4  1  0  0  0
  4  5  2  0  0  0
  5  6  1  0  0  0
  6  7  2  0  0  0
  7  8  1  0  0  0
  8  9  2  0  0  0
  9 10  1  0  0  0
 10 11  2  0  0  0
 11  2  1  0  0  0
 11  6  1  0  0  0
 18 19  1  0  0  0
 19 12  1  0  0  0
M  END
> <minimizedAffinity>
-5.80035

> <CNNscore>
0.3862230182

> <CNNaffinity>
4.8641562462

> <CNN_VS>
1.8786491156

> <CNNaffinity_variance>
0.2283720672

$$$$



 26 29  0  0  0  0  0  0  0  0999 V2000
   -7.9688   -2.2546  -25.0073 N   0  0  0  0  0  0  0  0  0  0  0  0
   -8.5821   -3.2119  -24.1382 C   0  0  0  0  0  0  0  0  0  0  0  0
   -7.4023   -3.0402  -23.2221 C   0  0  0  0  0  0  0  0  0  0  0  0
   -6.6645   -2.6527  -24.4521 C   0  0  0  0  0  0  0  0  0  0  0  0
   -7.5288   -1.9961  -22.1800 C   0  0  0  0  0  0  0  0  0  0  0  0
   -8.3423   -1.0592  -22.0939 O   0  0  0  0  0  0  0  0  0  0  0  0
   -6.4743   -2.2927  -21.2401 N   0  0  0  0  0  0  0  0  0  0  0  0
   -6.0813   -3.6627  -21.4668 C   0  0  0  0  0  0  0  0  0  0  0  0
   -5.1836   -4.2562  -20.8230 O   0  0  0  0  0  0  0  0  0  0  0  0
   -6.9001   -4.1766  -22.5375 N   0  0  0  0  0  0  0  0  0  0  0  0
   -7.0758   -5.5999  -22.7412 C   0  0  0  0  0  0  0  0  0  0  0  0
   -5.9434   -1.3846  -20.2824 C   0  0  0  0  0  0  0  0  0  0  0  0
   -6.4439   -1.4328  -18.9999 C   0  0  0  0  0  0  0  0  0  0  0  0
   -5.9751   -0.5909  -18.0461 N   0  0  0  0  0  0  0  0  0  0  0  0
   -5.0153    0.3140  -18.3083 C   0  0  0  0  0  0  0  0  0  0  0  0
   -4.4959    0.3806  -19.5941 C   0  0  0  0  0  0  0  0  0  0  0  0
   -3.5011    1.3060  -19.8989 C   0  0  0  0  0  0  0  0  0  0  0  0
   -3.0114    1.3401  -21.1892 C   0  0  0  0  0  0  0  0  0  0  0  0
   -3.4588    0.5097  -22.1723 C   0  0  0  0  0  0  0  0  0  0  0  0
   -4.4454   -0.4141  -21.8860 C   0  0  0  0  0  0  0  0  0  0  0  0
   -4.9523   -0.4646  -20.5918 C   0  0  0  0  0  0  0  0  0  0  0  0
   -8.0324   -2.5549  -26.6602 S   0  0  0  0  0  0  0  0  0  0  0  0
   -7.9642   -1.2082  -27.3749 O   0  0  0  0  0  0  0  0  0  0  0  0
   -9.3658   -3.2058  -26.9549 O   0  0  0  0  0  0  0  0  0  0  0  0
   -7.0062   -5.0159  -27.3660 C   0  0  0  0  0  0  0  0  0  0  0  0
   -6.7185   -3.5620  -27.2602 C   0  0  0  0  0  0  0  0  0  0  0  0
 25 26  1  0  0  0
 26 22  1  0  0  0
 22 23  2  0  0  0
 22 24  2  0  0  0
 22  1  1  0  0  0
  1  2  1  0  0  0
  2  3  1  0  0  0
  3  4  1  0  0  0
  3  5  1  0  0  0
  4  1  1  0  0  0
  5  6  2  0  0  0
  5  7  1  0  0  0
  7 12  1  0  0  0
  7  8  1  0  0  0
 12 13  2  0  0  0
 13 14  1  0  0  0
 14 15  2  0  0  0
 15 16  1  0  0  0
 16 17  2  0  0  0
 17 18  1  0  0  0
 18 19  2  0  0  0
 19 20  1  0  0  0
 20 21  2  0  0  0
 21 12  1  0  0  0
 21 16  1  0  0  0
  8  9  2  0  0  0
  8 10  1  0  0  0
 10 11  1  0  0  0
 10  3  1  0  0  0
M  END
> <minimizedAffinity>
-7.43343

> <CNNscore>
0.6257765293

> <CNNaffinity>
5.4127168655

> <CNN_VS>
3.3871512413

> <CNNaffinity_variance>
0.0127945002

$$$$



 26 29  0  0  0  0  0  0  0  0999 V2000
   -6.2156   -0.9670  -20.8147 N   0  0  0  0  0  0  0  0  0  0  0  0
   -6.5736   -2.1398  -21.5524 C   0  0  0  0  0  0  0  0  0  0  0  0
   -7.4664   -1.2640  -22.3870 C   0  0  0  0  0  0  0  0  0  0  0  0
   -7.5179   -0.3895  -21.1871 C   0  0  0  0  0  0  0  0  0  0  0  0
   -6.8562   -0.6736  -23.5999 C   0  0  0  0  0  0  0  0  0  0  0  0
   -5.6565   -0.5687  -23.9106 O   0  0  0  0  0  0  0  0  0  0  0  0
   -7.9787   -0.2227  -24.3875 N   0  0  0  0  0  0  0  0  0  0  0  0
   -9.1436   -0.9198  -23.8979 C   0  0  0  0  0  0  0  0  0  0  0  0
  -10.3012   -0.7702  -24.3561 O   0  0  0  0  0  0  0  0  0  0  0  0
   -8.7131   -1.7811  -22.8237 N   0  0  0  0  0  0  0  0  0  0  0  0
   -9.5098   -2.9116  -22.3929 C   0  0  0  0  0  0  0  0  0  0  0  0
   -7.9170    0.7307  -25.4415 C   0  0  0  0  0  0  0  0  0  0  0  0
   -7.6869    0.2678  -26.7184 C   0  0  0  0  0  0  0  0  0  0  0  0
   -7.6182    1.1312  -27.7614 N   0  0  0  0  0  0  0  0  0  0  0  0
   -7.7695    2.4572  -27.5958 C   0  0  0  0  0  0  0  0  0  0  0  0
   -8.0024    2.9465  -26.3175 C   0  0  0  0  0  0  0  0  0  0  0  0
   -8.1636    4.3142  -26.1114 C   0  0  0  0  0  0  0  0  0  0  0  0
   -8.3934    4.7601  -24.8252 C   0  0  0  0  0  0  0  0  0  0  0  0
   -8.4686    3.9216  -23.7541 C   0  0  0  0  0  0  0  0  0  0  0  0
   -8.3108    2.5619  -23.9419 C   0  0  0  0  0  0  0  0  0  0  0  0
   -8.0784    2.0921  -25.2302 C   0  0  0  0  0  0  0  0  0  0  0  0
   -6.0806   -1.1119  -19.1453 S   0  0  0  0  0  0  0  0  0  0  0  0
   -5.5307   -2.5041  -18.8478 O   0  0  0  0  0  0  0  0  0  0  0  0
   -7.4716   -0.9933  -18.5628 O   0  0  0  0  0  0  0  0  0  0  0  0
   -4.1973    0.8939  -19.3392 C   0  0  0  0  0  0  0  0  0  0  0  0
   -5.0081    0.0718  -18.4040 C   0  0  0  0  0  0  0  0  0  0  0  0
 25 26  1  0  0  0
 26 22  1  0  0  0
 22 23  2  0  0  0
 22 24  2  0  0  0
 22  1  1  0  0  0
  1  2  1  0  0  0
  2  3  1  0  0  0
  3  4  1  0  0  0
  3  5  1  0  0  0
  4  1  1  0  0  0
  5  6  2  0  0  0
  5  7  1  0  0  0
  7 12  1  0  0  0
  7  8  1  0  0  0
 12 13  2  0  0  0
 13 14  1  0  0  0
 14 15  2  0  0  0
 15 16  1  0  0  0
 16 17  2  0  0  0
 17 18  1  0  0  0
 18 19  2  0  0  0
 19 20  1  0  0  0
 20 21  2  0  0  0
 21 12  1  0  0  0
 21 16  1  0  0  0
  8  9  2  0  0  0
  8 10  1  0  0  0
 10 11  1  0  0  0
 10  3  1  0  0  0
M  END
> <minimizedAffinity>
-6.19447

> <CNNscore>
0.5086967945

> <CNNaffinity>
5.2906990051

> <CNN_VS>
2.6913616657

> <CNNaffinity_variance>
0.0618164130

$$$$



 26 29  0  0  0  0  0  0  0  0999 V2000
   -6.7661   -2.1711  -20.7063 N   0  0  0  0  0  0  0  0  0  0  0  0
   -7.6433   -1.4508  -21.5778 C   0  0  0  0  0  0  0  0  0  0  0  0
   -6.8665   -2.0259  -22.7296 C   0  0  0  0  0  0  0  0  0  0  0  0
   -5.7420   -2.1136  -21.7627 C   0  0  0  0  0  0  0  0  0  0  0  0
   -7.3600   -3.3104  -23.2760 C   0  0  0  0  0  0  0  0  0  0  0  0
   -8.1556   -4.1274  -22.7796 O   0  0  0  0  0  0  0  0  0  0  0  0
   -6.7064   -3.4341  -24.5571 N   0  0  0  0  0  0  0  0  0  0  0  0
   -6.2518   -2.1154  -24.9269 C   0  0  0  0  0  0  0  0  0  0  0  0
   -5.6382   -1.8511  -25.9881 O   0  0  0  0  0  0  0  0  0  0  0  0
   -6.6345   -1.2128  -23.8687 N   0  0  0  0  0  0  0  0  0  0  0  0
   -6.7194    0.2169  -24.0856 C   0  0  0  0  0  0  0  0  0  0  0  0
   -6.5547   -4.6425  -25.2923 C   0  0  0  0  0  0  0  0  0  0  0  0
   -5.4260   -5.3990  -25.0656 C   0  0  0  0  0  0  0  0  0  0  0  0
   -5.2291   -6.5598  -25.7379 N   0  0  0  0  0  0  0  0  0  0  0  0
   -6.1149   -7.0151  -26.6416 C   0  0  0  0  0  0  0  0  0  0  0  0
   -7.2600   -6.2692  -26.8863 C   0  0  0  0  0  0  0  0  0  0  0  0
   -8.1973   -6.7124  -27.8158 C   0  0  0  0  0  0  0  0  0  0  0  0
   -9.3224   -5.9416  -28.0300 C   0  0  0  0  0  0  0  0  0  0  0  0
   -9.5527   -4.7706  -27.3729 C   0  0  0  0  0  0  0  0  0  0  0  0
   -8.6324   -4.3171  -26.4477 C   0  0  0  0  0  0  0  0  0  0  0  0
   -7.4919   -5.0791  -26.2171 C   0  0  0  0  0  0  0  0  0  0  0  0
   -6.2372   -1.3866  -19.3167 S   0  0  0  0  0  0  0  0  0  0  0  0
   -5.7970   -2.4583  -18.3233 O   0  0  0  0  0  0  0  0  0  0  0  0
   -7.4155   -0.6318  -18.7421 O   0  0  0  0  0  0  0  0  0  0  0  0
   -4.5989    0.6693  -18.4819 C   0  0  0  0  0  0  0  0  0  0  0  0
   -4.8832   -0.2917  -19.5789 C   0  0  0  0  0  0  0  0  0  0  0  0
 25 26  1  0  0  0
 26 22  1  0  0  0
 22 23  2  0  0  0
 22 24  2  0  0  0
 22  1  1  0  0  0
  1  2  1  0  0  0
  2  3  1  0  0  0
  3  4  1  0  0  0
  3  5  1  0  0  0
  4  1  1  0  0  0
  5  6  2  0  0  0
  5  7  1  0  0  0
  7 12  1  0  0  0
  7  8  1  0  0  0
 12 13  2  0  0  0
 13 14  1  0  0  0
 14 15  2  0  0  0
 15 16  1  0  0  0
 16 17  2  0  0  0
 17 18  1  0  0  0
 18 19  2  0  0  0
 19 20  1  0  0  0
 20 21  2  0  0  0
 21 12  1  0  0  0
 21 16  1  0  0  0
  8  9  2  0  0  0
  8 10  1  0  0  0
 10 11  1  0  0  0
 10  3  1  0  0  0
M  END
> <minimizedAffinity>
-6.91337

> <CNNscore>
0.4591578245

> <CNNaffinity>
5.5310158730

> <CNN_VS>
2.5396091938

> <CNNaffinity_variance>
0.0647695288

$$$$



 26 29  0  0  0  0  0  0  0  0999 V2000
   -6.6153   -1.8507  -21.0164 N   0  0  0  0  0  0  0  0  0  0  0  0
   -7.9965   -1.7754  -21.3833 C   0  0  0  0  0  0  0  0  0  0  0  0
   -7.5570   -1.0881  -22.6463 C   0  0  0  0  0  0  0  0  0  0  0  0
   -6.3743   -0.6638  -21.8538 C   0  0  0  0  0  0  0  0  0  0  0  0
   -7.2847   -1.9647  -23.8080 C   0  0  0  0  0  0  0  0  0  0  0  0
   -7.1078   -3.1952  -23.8460 O   0  0  0  0  0  0  0  0  0  0  0  0
   -7.2639   -1.0696  -24.9403 N   0  0  0  0  0  0  0  0  0  0  0  0
   -7.9383    0.1397  -24.5334 C   0  0  0  0  0  0  0  0  0  0  0  0
   -8.1052    1.1387  -25.2727 O   0  0  0  0  0  0  0  0  0  0  0  0
   -8.3575   -0.0379  -23.1646 N   0  0  0  0  0  0  0  0  0  0  0  0
   -9.4045    0.7754  -22.5810 C   0  0  0  0  0  0  0  0  0  0  0  0
   -6.6806   -1.3543  -26.2062 C   0  0  0  0  0  0  0  0  0  0  0  0
   -7.5105   -1.7871  -27.2169 C   0  0  0  0  0  0  0  0  0  0  0  0
   -7.0093   -2.0731  -28.4438 N   0  0  0  0  0  0  0  0  0  0  0  0
   -5.6994   -1.9481  -28.7218 C   0  0  0  0  0  0  0  0  0  0  0  0
   -4.8441   -1.5133  -27.7183 C   0  0  0  0  0  0  0  0  0  0  0  0
   -3.4823   -1.3731  -27.9729 C   0  0  0  0  0  0  0  0  0  0  0  0
   -2.6658   -0.9381  -26.9483 C   0  0  0  0  0  0  0  0  0  0  0  0
   -3.1347   -0.6417  -25.7039 C   0  0  0  0  0  0  0  0  0  0  0  0
   -4.4833   -0.7757  -25.4352 C   0  0  0  0  0  0  0  0  0  0  0  0
   -5.3232   -1.2127  -26.4541 C   0  0  0  0  0  0  0  0  0  0  0  0
   -6.2210   -1.5413  -19.4118 S   0  0  0  0  0  0  0  0  0  0  0  0
   -5.6245   -2.8201  -18.8303 O   0  0  0  0  0  0  0  0  0  0  0  0
   -7.5047   -1.2158  -18.6808 O   0  0  0  0  0  0  0  0  0  0  0  0
   -5.1148    0.4833  -17.9000 C   0  0  0  0  0  0  0  0  0  0  0  0
   -5.0519   -0.2424  -19.1951 C   0  0  0  0  0  0  0  0  0  0  0  0
 25 26  1  0  0  0
 26 22  1  0  0  0
 22 23  2  0  0  0
 22 24  2  0  0  0
 22  1  1  0  0  0
  1  2  1  0  0  0
  2  3  1  0  0  0
  3  4  1  0  0  0
  3  5  1  0  0  0
  4  1  1  0  0  0
  5  6  2  0  0  0
  5  7  1  0  0  0
  7 12  1  0  0  0
  7  8  1  0  0  0
 12 13  2  0  0  0
 13 14  1  0  0  0
 14 15  2  0  0  0
 15 16  1  0  0  0
 16 17  2  0  0  0
 17 18  1  0  0  0
 18 19  2  0  0  0
 19 20  1  0  0  0
 20 21  2  0  0  0
 21 12  1  0  0  0
 21 16  1  0  0  0
  8  9  2  0  0  0
  8 10  1  0  0  0
 10 11  1  0  0  0
 10  3  1  0  0  0
M  END
> <minimizedAffinity>
-5.51709

> <CNNscore>
0.4272668064

> <CNNaffinity>
5.3009123802

> <CNN_VS>
2.2649040222

> <CNNaffinity_variance>
0.1258961260

$$$$



 26 29  0  0  0  0  0  0  0  0999 V2000
   -6.9490   -0.0378  -20.6436 N   0  0  0  0  0  0  0  0  0  0  0  0
   -6.5432   -0.2385  -22.0011 C   0  0  0  0  0  0  0  0  0  0  0  0
   -7.9960   -0.1573  -22.3798 C   0  0  0  0  0  0  0  0  0  0  0  0
   -8.2530   -0.6254  -20.9935 C   0  0  0  0  0  0  0  0  0  0  0  0
   -8.5096    1.1889  -22.7206 C   0  0  0  0  0  0  0  0  0  0  0  0
   -8.0095    2.3057  -22.4982 O   0  0  0  0  0  0  0  0  0  0  0  0
   -9.7624    0.9393  -23.3927 N   0  0  0  0  0  0  0  0  0  0  0  0
   -9.7407   -0.4371  -23.8261 C   0  0  0  0  0  0  0  0  0  0  0  0
  -10.6748   -0.9971  -24.4476 O   0  0  0  0  0  0  0  0  0  0  0  0
   -8.4793   -1.0015  -23.4123 N   0  0  0  0  0  0  0  0  0  0  0  0
   -7.9463   -2.1992  -24.0286 C   0  0  0  0  0  0  0  0  0  0  0  0
  -10.8033    1.8911  -23.5775 C   0  0  0  0  0  0  0  0  0  0  0  0
  -11.8693    1.8599  -22.7055 C   0  0  0  0  0  0  0  0  0  0  0  0
  -12.8896    2.7434  -22.8341 N   0  0  0  0  0  0  0  0  0  0  0  0
  -12.9040    3.6742  -23.8047 C   0  0  0  0  0  0  0  0  0  0  0  0
  -11.8399    3.7245  -24.6951 C   0  0  0  0  0  0  0  0  0  0  0  0
  -11.8236    4.6760  -25.7116 C   0  0  0  0  0  0  0  0  0  0  0  0
  -10.7474    4.6926  -26.5761 C   0  0  0  0  0  0  0  0  0  0  0  0
   -9.7054    3.8207  -26.4766 C   0  0  0  0  0  0  0  0  0  0  0  0
   -9.7065    2.8705  -25.4736 C   0  0  0  0  0  0  0  0  0  0  0  0
  -10.7817    2.8370  -24.5920 C   0  0  0  0  0  0  0  0  0  0  0  0
   -6.1790   -0.9511  -19.4608 S   0  0  0  0  0  0  0  0  0  0  0  0
   -5.4601   -2.0999  -20.1626 O   0  0  0  0  0  0  0  0  0  0  0  0
   -7.2484   -1.5165  -18.5524 O   0  0  0  0  0  0  0  0  0  0  0  0
   -4.1321    0.8887  -19.2783 C   0  0  0  0  0  0  0  0  0  0  0  0
   -4.9920   -0.0551  -18.5180 C   0  0  0  0  0  0  0  0  0  0  0  0
 25 26  1  0  0  0
 26 22  1  0  0  0
 22 23  2  0  0  0
 22 24  2  0  0  0
 22  1  1  0  0  0
  1  2  1  0  0  0
  2  3  1  0  0  0
  3  4  1  0  0  0
  3  5  1  0  0  0
  4  1  1  0  0  0
  5  6  2  0  0  0
  5  7  1  0  0  0
  7 12  1  0  0  0
  7  8  1  0  0  0
 12 13  2  0  0  0
 13 14  1  0  0  0
 14 15  2  0  0  0
 15 16  1  0  0  0
 16 17  2  0  0  0
 17 18  1  0  0  0
 18 19  2  0  0  0
 19 20  1  0  0  0
 20 21  2  0  0  0
 21 12  1  0  0  0
 21 16  1  0  0  0
  8  9  2  0  0  0
  8 10  1  0  0  0
 10 11  1  0  0  0
 10  3  1  0  0  0
M  END
> <minimizedAffinity>
-7.06364

> <CNNscore>
0.4246486127

> <CNNaffinity>
5.1871900558

> <CNN_VS>
2.2027330399

> <CNNaffinity_variance>
0.0849649906

$$$$



 26 29  0  0  0  0  0  0  0  0999 V2000
  -10.2847   -2.8564  -25.3225 N   0  0  0  0  0  0  0  0  0  0  0  0
  -10.5489   -3.0796  -23.9340 C   0  0  0  0  0  0  0  0  0  0  0  0
  -10.1619   -1.6464  -23.6960 C   0  0  0  0  0  0  0  0  0  0  0  0
   -9.3435   -1.7953  -24.9270 C   0  0  0  0  0  0  0  0  0  0  0  0
  -11.2583   -0.6533  -23.7566 C   0  0  0  0  0  0  0  0  0  0  0  0
  -12.4043   -0.7682  -24.2259 O   0  0  0  0  0  0  0  0  0  0  0  0
  -10.7109    0.5291  -23.1353 N   0  0  0  0  0  0  0  0  0  0  0  0
   -9.5712    0.1067  -22.3574 C   0  0  0  0  0  0  0  0  0  0  0  0
   -8.8518    0.8794  -21.6808 O   0  0  0  0  0  0  0  0  0  0  0  0
   -9.4433   -1.3213  -22.5169 N   0  0  0  0  0  0  0  0  0  0  0  0
   -8.6952   -2.1255  -21.5724 C   0  0  0  0  0  0  0  0  0  0  0  0
  -11.2211    1.8490  -23.2814 C   0  0  0  0  0  0  0  0  0  0  0  0
  -12.2504    2.2389  -22.4531 C   0  0  0  0  0  0  0  0  0  0  0  0
  -12.7755    3.4852  -22.5479 N   0  0  0  0  0  0  0  0  0  0  0  0
  -12.3202    4.3808  -23.4420 C   0  0  0  0  0  0  0  0  0  0  0  0
  -11.2831    4.0098  -24.2872 C   0  0  0  0  0  0  0  0  0  0  0  0
  -10.7882    4.9132  -25.2242 C   0  0  0  0  0  0  0  0  0  0  0  0
   -9.7565    4.5053  -26.0459 C   0  0  0  0  0  0  0  0  0  0  0  0
   -9.2049    3.2613  -25.9785 C   0  0  0  0  0  0  0  0  0  0  0  0
   -9.6847    2.3534  -25.0542 C   0  0  0  0  0  0  0  0  0  0  0  0
  -10.7240    2.7447  -24.2168 C   0  0  0  0  0  0  0  0  0  0  0  0
   -9.4921   -4.0750  -26.1670 S   0  0  0  0  0  0  0  0  0  0  0  0
   -9.3003   -3.5903  -27.6013 O   0  0  0  0  0  0  0  0  0  0  0  0
  -10.3943   -5.2893  -26.1703 O   0  0  0  0  0  0  0  0  0  0  0  0
   -7.8527   -5.7278  -24.6876 C   0  0  0  0  0  0  0  0  0  0  0  0
   -7.9117   -4.4937  -25.5131 C   0  0  0  0  0  0  0  0  0  0  0  0
 25 26  1  0  0  0
 26 22  1  0  0  0
 22 23  2  0  0  0
 22 24  2  0  0  0
 22  1  1  0  0  0
  1  2  1  0  0  0
  2  3  1  0  0  0
  3  4  1  0  0  0
  3  5  1  0  0  0
  4  1  1  0  0  0
  5  6  2  0  0  0
  5  7  1  0  0  0
  7 12  1  0  0  0
  7  8  1  0  0  0
 12 13  2  0  0  0
 13 14  1  0  0  0
 14 15  2  0  0  0
 15 16  1  0  0  0
 16 17  2  0  0  0
 17 18  1  0  0  0
 18 19  2  0  0  0
 19 20  1  0  0  0
 20 21  2  0  0  0
 21 12  1  0  0  0
 21 16  1  0  0  0
  8  9  2  0  0  0
  8 10  1  0  0  0
 10 11  1  0  0  0
 10  3  1  0  0  0
M  END
> <minimizedAffinity>
-6.77829

> <CNNscore>
0.4093610942

> <CNNaffinity>
5.1403326988

> <CNN_VS>
2.1042521000

> <CNNaffinity_variance>
0.1722207963

$$$$



 26 29  0  0  0  0  0  0  0  0999 V2000
   -5.9190    0.5996  -21.2704 N   0  0  0  0  0  0  0  0  0  0  0  0
   -5.6480    1.1462  -22.5649 C   0  0  0  0  0  0  0  0  0  0  0  0
   -6.9066    0.4753  -23.0407 C   0  0  0  0  0  0  0  0  0  0  0  0
   -6.6631   -0.4845  -21.9331 C   0  0  0  0  0  0  0  0  0  0  0  0
   -8.1493    1.2751  -22.9507 C   0  0  0  0  0  0  0  0  0  0  0  0
   -8.3749    2.3162  -22.3087 O   0  0  0  0  0  0  0  0  0  0  0  0
   -9.0911    0.5774  -23.7932 N   0  0  0  0  0  0  0  0  0  0  0  0
   -8.3225   -0.2758  -24.6672 C   0  0  0  0  0  0  0  0  0  0  0  0
   -8.8209   -1.0303  -25.5359 O   0  0  0  0  0  0  0  0  0  0  0  0
   -6.9297   -0.0845  -24.3440 N   0  0  0  0  0  0  0  0  0  0  0  0
   -5.8794   -0.4435  -25.2747 C   0  0  0  0  0  0  0  0  0  0  0  0
  -10.5053    0.7243  -23.7470 C   0  0  0  0  0  0  0  0  0  0  0  0
  -11.0416    1.9352  -24.1260 C   0  0  0  0  0  0  0  0  0  0  0  0
  -12.3829    2.1316  -24.1020 N   0  0  0  0  0  0  0  0  0  0  0  0
  -13.2343    1.1661  -23.7125 C   0  0  0  0  0  0  0  0  0  0  0  0
  -12.7163   -0.0627  -23.3263 C   0  0  0  0  0  0  0  0  0  0  0  0
  -13.5703   -1.0838  -22.9176 C   0  0  0  0  0  0  0  0  0  0  0  0
  -13.0153   -2.2906  -22.5414 C   0  0  0  0  0  0  0  0  0  0  0  0
  -11.6729   -2.5230  -22.5531 C   0  0  0  0  0  0  0  0  0  0  0  0
  -10.8122   -1.5202  -22.9560 C   0  0  0  0  0  0  0  0  0  0  0  0
  -11.3513   -0.2966  -23.3391 C   0  0  0  0  0  0  0  0  0  0  0  0
   -4.6181   -0.0130  -20.3993 S   0  0  0  0  0  0  0  0  0  0  0  0
   -3.3506    0.2859  -21.1951 O   0  0  0  0  0  0  0  0  0  0  0  0
   -4.7999   -1.5114  -20.3006 O   0  0  0  0  0  0  0  0  0  0  0  0
   -5.3719    0.1849  -17.7535 C   0  0  0  0  0  0  0  0  0  0  0  0
   -4.4348    0.6844  -18.7928 C   0  0  0  0  0  0  0  0  0  0  0  0
 25 26  1  0  0  0
 26 22  1  0  0  0
 22 23  2  0  0  0
 22 24  2  0  0  0
 22  1  1  0  0  0
  1  2  1  0  0  0
  2  3  1  0  0  0
  3  4  1  0  0  0
  3  5  1  0  0  0
  4  1  1  0  0  0
  5  6  2  0  0  0
  5  7  1  0  0  0
  7 12  1  0  0  0
  7  8  1  0  0  0
 12 13  2  0  0  0
 13 14  1  0  0  0
 14 15  2  0  0  0
 15 16  1  0  0  0
 16 17  2  0  0  0
 17 18  1  0  0  0
 18 19  2  0  0  0
 19 20  1  0  0  0
 20 21  2  0  0  0
 21 12  1  0  0  0
 21 16  1  0  0  0
  8  9  2  0  0  0
  8 10  1  0  0  0
 10 11  1  0  0  0
 10  3  1  0  0  0
M  END
> <minimizedAffinity>
-6.49865

> <CNNscore>
0.3739436269

> <CNNaffinity>
5.1031475067

> <CNN_VS>
1.9082894325

> <CNNaffinity_variance>
0.0459432416

$$$$



 26 29  0  0  0  0  0  0  0  0999 V2000
   -8.3170   -3.1374  -24.9614 N   0  0  0  0  0  0  0  0  0  0  0  0
   -8.0671   -1.8062  -25.4232 C   0  0  0  0  0  0  0  0  0  0  0  0
   -8.2277   -1.3509  -23.9993 C   0  0  0  0  0  0  0  0  0  0  0  0
   -9.0792   -2.5583  -23.8425 C   0  0  0  0  0  0  0  0  0  0  0  0
   -6.9941   -1.3109  -23.1816 C   0  0  0  0  0  0  0  0  0  0  0  0
   -5.8867   -1.8354  -23.3946 O   0  0  0  0  0  0  0  0  0  0  0  0
   -7.3450   -0.5063  -22.0356 N   0  0  0  0  0  0  0  0  0  0  0  0
   -8.5229    0.2464  -22.3945 C   0  0  0  0  0  0  0  0  0  0  0  0
   -9.1052    1.0538  -21.6319 O   0  0  0  0  0  0  0  0  0  0  0  0
   -8.8691   -0.1107  -23.7486 N   0  0  0  0  0  0  0  0  0  0  0  0
   -9.7153    0.7370  -24.5633 C   0  0  0  0  0  0  0  0  0  0  0  0
   -6.6425   -0.4814  -20.7989 C   0  0  0  0  0  0  0  0  0  0  0  0
   -7.0872   -1.3036  -19.7869 C   0  0  0  0  0  0  0  0  0  0  0  0
   -6.4560   -1.3212  -18.5872 N   0  0  0  0  0  0  0  0  0  0  0  0
   -5.3844   -0.5478  -18.3379 C   0  0  0  0  0  0  0  0  0  0  0  0
   -4.9185    0.2888  -19.3432 C   0  0  0  0  0  0  0  0  0  0  0  0
   -3.8111    1.1024  -19.1180 C   0  0  0  0  0  0  0  0  0  0  0  0
   -3.3795    1.9198  -20.1434 C   0  0  0  0  0  0  0  0  0  0  0  0
   -3.9891    1.9633  -21.3611 C   0  0  0  0  0  0  0  0  0  0  0  0
   -5.0889    1.1622  -21.6004 C   0  0  0  0  0  0  0  0  0  0  0  0
   -5.5398    0.3313  -20.5802 C   0  0  0  0  0  0  0  0  0  0  0  0
   -9.2994   -4.1164  -25.9114 S   0  0  0  0  0  0  0  0  0  0  0  0
   -9.5450   -3.3825  -27.2268 O   0  0  0  0  0  0  0  0  0  0  0  0
  -10.6152   -4.2853  -25.1846 O   0  0  0  0  0  0  0  0  0  0  0  0
   -9.5081   -6.8587  -26.1223 C   0  0  0  0  0  0  0  0  0  0  0  0
   -8.6035   -5.6908  -26.2828 C   0  0  0  0  0  0  0  0  0  0  0  0
 25 26  1  0  0  0
 26 22  1  0  0  0
 22 23  2  0  0  0
 22 24  2  0  0  0
 22  1  1  0  0  0
  1  2  1  0  0  0
  2  3  1  0  0  0
  3  4  1  0  0  0
  3  5  1  0  0  0
  4  1  1  0  0  0
  5  6  2  0  0  0
  5  7  1  0  0  0
  7 12  1  0  0  0
  7  8  1  0  0  0
 12 13  2  0  0  0
 13 14  1  0  0  0
 14 15  2  0  0  0
 15 16  1  0  0  0
 16 17  2  0  0  0
 17 18  1  0  0  0
 18 19  2  0  0  0
 19 20  1  0  0  0
 20 21  2  0  0  0
 21 12  1  0  0  0
 21 16  1  0  0  0
  8  9  2  0  0  0
  8 10  1  0  0  0
 10 11  1  0  0  0
 10  3  1  0  0  0
M  END
> <minimizedAffinity>
-7.30496

> <CNNscore>
0.3648547530

> <CNNaffinity>
5.0926823616

> <CNN_VS>
1.8580893278

> <CNNaffinity_variance>
0.0767124742

$$$$



 26 29  0  0  0  0  0  0  0  0999 V2000
   -7.6576   -5.0970  -25.9213 N   0  0  0  0  0  0  0  0  0  0  0  0
   -8.2063   -5.7450  -24.7694 C   0  0  0  0  0  0  0  0  0  0  0  0
   -7.2603   -4.9247  -23.9370 C   0  0  0  0  0  0  0  0  0  0  0  0
   -6.4151   -4.8912  -25.1584 C   0  0  0  0  0  0  0  0  0  0  0  0
   -7.7710   -3.6195  -23.4600 C   0  0  0  0  0  0  0  0  0  0  0  0
   -8.7584   -2.9683  -23.8445 O   0  0  0  0  0  0  0  0  0  0  0  0
   -6.8559   -3.2333  -22.4126 N   0  0  0  0  0  0  0  0  0  0  0  0
   -6.1629   -4.4289  -21.9970 C   0  0  0  0  0  0  0  0  0  0  0  0
   -5.2886   -4.4629  -21.0987 O   0  0  0  0  0  0  0  0  0  0  0  0
   -6.6655   -5.5203  -22.7952 N   0  0  0  0  0  0  0  0  0  0  0  0
   -6.5142   -6.8986  -22.3758 C   0  0  0  0  0  0  0  0  0  0  0  0
   -6.6908   -1.9140  -21.9066 C   0  0  0  0  0  0  0  0  0  0  0  0
   -7.3838   -1.5678  -20.7675 C   0  0  0  0  0  0  0  0  0  0  0  0
   -7.2645   -0.3242  -20.2407 N   0  0  0  0  0  0  0  0  0  0  0  0
   -6.4758    0.6105  -20.8001 C   0  0  0  0  0  0  0  0  0  0  0  0
   -5.7677    0.2839  -21.9488 C   0  0  0  0  0  0  0  0  0  0  0  0
   -4.9422    1.2285  -22.5531 C   0  0  0  0  0  0  0  0  0  0  0  0
   -4.2553    0.8640  -23.6938 C   0  0  0  0  0  0  0  0  0  0  0  0
   -4.3512   -0.3758  -24.2505 C   0  0  0  0  0  0  0  0  0  0  0  0
   -5.1661   -1.3243  -23.6630 C   0  0  0  0  0  0  0  0  0  0  0  0
   -5.8669   -0.9771  -22.5128 C   0  0  0  0  0  0  0  0  0  0  0  0
   -7.3747   -6.0426  -27.2821 S   0  0  0  0  0  0  0  0  0  0  0  0
   -6.6744   -7.3170  -26.8187 O   0  0  0  0  0  0  0  0  0  0  0  0
   -6.4454   -5.2687  -28.1908 O   0  0  0  0  0  0  0  0  0  0  0  0
  -10.1091   -5.9503  -27.6319 C   0  0  0  0  0  0  0  0  0  0  0  0
   -8.8331   -6.5039  -28.1545 C   0  0  0  0  0  0  0  0  0  0  0  0
 25 26  1  0  0  0
 26 22  1  0  0  0
 22 23  2  0  0  0
 22 24  2  0  0  0
 22  1  1  0  0  0
  1  2  1  0  0  0
  2  3  1  0  0  0
  3  4  1  0  0  0
  3  5  1  0  0  0
  4  1  1  0  0  0
  5  6  2  0  0  0
  5  7  1  0  0  0
  7 12  1  0  0  0
  7  8  1  0  0  0
 12 13  2  0  0  0
 13 14  1  0  0  0
 14 15  2  0  0  0
 15 16  1  0  0  0
 16 17  2  0  0  0
 17 18  1  0  0  0
 18 19  2  0  0  0
 19 20  1  0  0  0
 20 21  2  0  0  0
 21 12  1  0  0  0
 21 16  1  0  0  0
  8  9  2  0  0  0
  8 10  1  0  0  0
 10 11  1  0  0  0
 10  3  1  0  0  0
M  END
> <minimizedAffinity>
-6.41574

> <CNNscore>
0.3475542068

> <CNNaffinity>
5.1607236862

> <CNN_VS>
1.7936311960

> <CNNaffinity_variance>
0.0285692997

$$$$



 36 40  0  0  0  0  0  0  0  0999 V2000
   -6.3784   -3.8205  -25.6536 N   0  0  0  0  0  0  0  0  0  0  0  0
   -6.1373   -3.0122  -24.5005 C   0  0  0  0  0  0  0  0  0  0  0  0
   -7.1514   -3.1238  -23.4092 C   0  0  0  0  0  0  0  0  0  0  0  0
   -6.9716   -1.8978  -22.5615 C   0  0  0  0  0  0  0  0  0  0  0  0
   -7.5086   -0.7780  -22.7706 O   0  0  0  0  0  0  0  0  0  0  0  0
   -6.0968   -2.1867  -21.4753 N   0  0  0  0  0  0  0  0  0  0  0  0
   -5.6729   -3.5698  -21.6597 C   0  0  0  0  0  0  0  0  0  0  0  0
   -6.8297   -4.1890  -22.3756 C   0  0  0  0  0  0  0  0  0  0  0  0
   -8.5108   -3.2430  -23.9359 C   0  0  0  0  0  0  0  0  0  0  0  0
   -9.5672   -2.9595  -23.0949 C   0  0  0  0  0  0  0  0  0  0  0  0
  -10.8883   -3.0381  -23.4825 C   0  0  0  0  0  0  0  0  0  0  0  0
  -12.1473   -2.6533  -22.3238 Cl  0  0  0  0  0  0  0  0  0  0  0  0
  -11.1763   -3.4194  -24.7770 C   0  0  0  0  0  0  0  0  0  0  0  0
  -10.1381   -3.7123  -25.6513 C   0  0  0  0  0  0  0  0  0  0  0  0
   -8.8305   -3.6215  -25.2245 C   0  0  0  0  0  0  0  0  0  0  0  0
   -7.7248   -3.9242  -26.1258 C   0  0  0  0  0  0  0  0  0  0  0  0
   -7.9716   -4.2788  -27.3277 O   0  0  0  0  0  0  0  0  0  0  0  0
   -5.7096   -1.3113  -20.4206 C   0  0  0  0  0  0  0  0  0  0  0  0
   -6.3676   -1.5113  -19.2020 C   0  0  0  0  0  0  0  0  0  0  0  0
   -6.0885   -0.7452  -18.1256 N   0  0  0  0  0  0  0  0  0  0  0  0
   -5.1627    0.2280  -18.2221 C   0  0  0  0  0  0  0  0  0  0  0  0
   -4.4938    0.4471  -19.4240 C   0  0  0  0  0  0  0  0  0  0  0  0
   -3.5451    1.4443  -19.5232 C   0  0  0  0  0  0  0  0  0  0  0  0
   -2.8799    1.6596  -20.7243 C   0  0  0  0  0  0  0  0  0  0  0  0
   -3.1836    0.8559  -21.8253 C   0  0  0  0  0  0  0  0  0  0  0  0
   -4.1344   -0.1520  -21.7463 C   0  0  0  0  0  0  0  0  0  0  0  0
   -4.7623   -0.3295  -20.5520 C   0  0  0  0  0  0  0  0  0  0  0  0
   -5.3698   -4.5406  -26.3781 C   0  0  0  0  0  0  0  0  0  0  0  0
   -4.2585   -7.9777  -24.9520 C   0  0  0  0  0  0  0  0  0  0  0  0
   -4.2337   -6.5671  -25.3052 N   0  0  0  0  0  0  0  0  0  0  0  0
   -5.3074   -5.9690  -25.9782 C   0  0  0  0  0  0  0  0  0  0  0  0
   -6.3048   -6.6917  -26.2725 O   0  0  0  0  0  0  0  0  0  0  0  0
   -3.4485   -6.0229  -25.0673 H   0  0  0  0  0  0  0  0  0  0  0  0
   -6.5524   -5.5163  -22.9737 C   0  0  0  0  0  0  0  0  0  0  0  0
   -5.4610   -6.0990  -22.3745 O   0  0  0  0  0  0  0  0  0  0  0  0
   -5.7297   -7.1765  -21.5634 C   0  0  0  0  0  0  0  0  0  0  0  0
 29 30  1  0  0  0
 30 31  1  0  0  0
 30 33  1  0  0  0
 31 32  2  0  0  0
 31 28  1  0  0  0
 28  1  1  0  0  0
  1  2  1  0  0  0
  3  2  1  0  0  0
  3  4  1  0  0  0
  3  9  1  0  0  0
  4  5  2  0  0  0
  4  6  1  0  0  0
  6 18  1  0  0  0
  6  7  1  0  0  0
 18 19  2  0  0  0
 19 20  1  0  0  0
 20 21  2  0  0  0
 21 22  1  0  0  0
 22 23  2  0  0  0
 23 24  1  0  0  0
 24 25  2  0  0  0
 25 26  1  0  0  0
 26 27  2  0  0  0
 27 18  1  0  0  0
 27 22  1  0  0  0
  7  8  1  0  0  0
  8 34  1  0  0  0
  8  3  1  0  0  0
 34 35  1  0  0  0
 35 36  1  0  0  0
  9 10  2  0  0  0
 10 11  1  0  0  0
 11 12  1  0  0  0
 11 13  2  0  0  0
 13 14  1  0  0  0
 14 15  2  0  0  0
 15 16  1  0  0  0
 15  9  1  0  0  0
 16 17  2  0  0  0
 16  1  1  0  0  0
M  END
> <minimizedAffinity>
-8.44371

> <CNNscore>
0.6310224533

> <CNNaffinity>
6.4058618546

> <CNN_VS>
4.0422425270

> <CNNaffinity_variance>
0.1036892533

$$$$



 36 40  0  0  0  0  0  0  0  0999 V2000
   -7.8667   -0.6225  -22.0232 N   0  0  0  0  0  0  0  0  0  0  0  0
   -8.7871    0.4565  -22.1958 C   0  0  0  0  0  0  0  0  0  0  0  0
   -9.2648    0.6815  -23.5933 C   0  0  0  0  0  0  0  0  0  0  0  0
   -9.8038    2.0826  -23.6170 C   0  0  0  0  0  0  0  0  0  0  0  0
   -9.1255    3.1245  -23.8181 O   0  0  0  0  0  0  0  0  0  0  0  0
  -11.2075    2.0634  -23.3767 N   0  0  0  0  0  0  0  0  0  0  0  0
  -11.5543    0.6665  -23.1419 C   0  0  0  0  0  0  0  0  0  0  0  0
  -10.5335   -0.0778  -23.9406 C   0  0  0  0  0  0  0  0  0  0  0  0
   -8.1999    0.4771  -24.5749 C   0  0  0  0  0  0  0  0  0  0  0  0
   -8.3571    1.0166  -25.8350 C   0  0  0  0  0  0  0  0  0  0  0  0
   -7.4200    0.8872  -26.8384 C   0  0  0  0  0  0  0  0  0  0  0  0
   -7.7305    1.6175  -28.4025 Cl  0  0  0  0  0  0  0  0  0  0  0  0
   -6.2627    0.1829  -26.5760 C   0  0  0  0  0  0  0  0  0  0  0  0
   -6.0707   -0.3739  -25.3187 C   0  0  0  0  0  0  0  0  0  0  0  0
   -7.0322   -0.2217  -24.3426 C   0  0  0  0  0  0  0  0  0  0  0  0
   -6.8510   -0.7978  -23.0153 C   0  0  0  0  0  0  0  0  0  0  0  0
   -5.7864   -1.4530  -22.7535 O   0  0  0  0  0  0  0  0  0  0  0  0
  -12.0982    3.1749  -23.3660 C   0  0  0  0  0  0  0  0  0  0  0  0
  -12.8700    3.3148  -22.2073 C   0  0  0  0  0  0  0  0  0  0  0  0
  -13.7519    4.3290  -22.0760 N   0  0  0  0  0  0  0  0  0  0  0  0
  -13.8940    5.2222  -23.0738 C   0  0  0  0  0  0  0  0  0  0  0  0
  -13.1372    5.1048  -24.2373 C   0  0  0  0  0  0  0  0  0  0  0  0
  -13.2826    6.0199  -25.2599 C   0  0  0  0  0  0  0  0  0  0  0  0
  -12.5256    5.8991  -26.4191 C   0  0  0  0  0  0  0  0  0  0  0  0
  -11.6193    4.8429  -26.5345 C   0  0  0  0  0  0  0  0  0  0  0  0
  -11.4582    3.9120  -25.5177 C   0  0  0  0  0  0  0  0  0  0  0  0
  -12.2186    4.0668  -24.3998 C   0  0  0  0  0  0  0  0  0  0  0  0
   -7.8824   -1.5489  -20.9268 C   0  0  0  0  0  0  0  0  0  0  0  0
   -5.1290   -0.0263  -18.6502 C   0  0  0  0  0  0  0  0  0  0  0  0
   -5.8222   -0.4857  -19.8433 N   0  0  0  0  0  0  0  0  0  0  0  0
   -7.1008   -1.0537  -19.7658 C   0  0  0  0  0  0  0  0  0  0  0  0
   -7.6400   -1.1574  -18.6245 O   0  0  0  0  0  0  0  0  0  0  0  0
   -5.3853   -0.3960  -20.7210 H   0  0  0  0  0  0  0  0  0  0  0  0
  -10.4456   -1.5267  -23.6416 C   0  0  0  0  0  0  0  0  0  0  0  0
  -10.2602   -2.2491  -24.7963 O   0  0  0  0  0  0  0  0  0  0  0  0
  -10.6413   -3.5693  -24.7423 C   0  0  0  0  0  0  0  0  0  0  0  0
 29 30  1  0  0  0
 30 31  1  0  0  0
 30 33  1  0  0  0
 31 32  2  0  0  0
 31 28  1  0  0  0
 28  1  1  0  0  0
  1  2  1  0  0  0
  3  2  1  0  0  0
  3  4  1  0  0  0
  3  9  1  0  0  0
  4  5  2  0  0  0
  4  6  1  0  0  0
  6 18  1  0  0  0
  6  7  1  0  0  0
 18 19  2  0  0  0
 19 20  1  0  0  0
 20 21  2  0  0  0
 21 22  1  0  0  0
 22 23  2  0  0  0
 23 24  1  0  0  0
 24 25  2  0  0  0
 25 26  1  0  0  0
 26 27  2  0  0  0
 27 18  1  0  0  0
 27 22  1  0  0  0
  7  8  1  0  0  0
  8 34  1  0  0  0
  8  3  1  0  0  0
 34 35  1  0  0  0
 35 36  1  0  0  0
  9 10  2  0  0  0
 10 11  1  0  0  0
 11 12  1  0  0  0
 11 13  2  0  0  0
 13 14  1  0  0  0
 14 15  2  0  0  0
 15 16  1  0  0  0
 15  9  1  0  0  0
 16 17  2  0  0  0
 16  1  1  0  0  0
M  END
> <minimizedAffinity>
-7.95612

> <CNNscore>
0.3670421243

> <CNNaffinity>
5.9998307228

> <CNN_VS>
2.2021906376

> <CNNaffinity_variance>
0.3025387824

$$$$



 36 40  0  0  0  0  0  0  0  0999 V2000
   -5.9417   -1.1009  -21.3282 N   0  0  0  0  0  0  0  0  0  0  0  0
   -5.1467   -0.8005  -22.4767 C   0  0  0  0  0  0  0  0  0  0  0  0
   -5.3989    0.5299  -23.1076 C   0  0  0  0  0  0  0  0  0  0  0  0
   -4.8389    0.4326  -24.4972 C   0  0  0  0  0  0  0  0  0  0  0  0
   -5.4497   -0.0163  -25.5029 O   0  0  0  0  0  0  0  0  0  0  0  0
   -3.5029    0.9261  -24.5142 N   0  0  0  0  0  0  0  0  0  0  0  0
   -3.1897    1.2813  -23.1349 C   0  0  0  0  0  0  0  0  0  0  0  0
   -4.5226    1.6454  -22.5649 C   0  0  0  0  0  0  0  0  0  0  0  0
   -6.8198    0.8772  -23.1023 C   0  0  0  0  0  0  0  0  0  0  0  0
   -7.2601    1.8514  -23.9745 C   0  0  0  0  0  0  0  0  0  0  0  0
   -8.5749    2.2590  -24.0563 C   0  0  0  0  0  0  0  0  0  0  0  0
   -9.0167    3.5082  -25.2054 Cl  0  0  0  0  0  0  0  0  0  0  0  0
   -9.5041    1.6664  -23.2259 C   0  0  0  0  0  0  0  0  0  0  0  0
   -9.0967    0.6821  -22.3353 C   0  0  0  0  0  0  0  0  0  0  0  0
   -7.7724    0.3030  -22.2846 C   0  0  0  0  0  0  0  0  0  0  0  0
   -7.3227   -0.7287  -21.3572 C   0  0  0  0  0  0  0  0  0  0  0  0
   -8.1680   -1.2887  -20.5807 O   0  0  0  0  0  0  0  0  0  0  0  0
   -2.6417    1.0512  -25.6418 C   0  0  0  0  0  0  0  0  0  0  0  0
   -1.7991   -0.0406  -25.8780 C   0  0  0  0  0  0  0  0  0  0  0  0
   -0.9363   -0.0428  -26.9168 N   0  0  0  0  0  0  0  0  0  0  0  0
   -0.8827    1.0208  -27.7411 C   0  0  0  0  0  0  0  0  0  0  0  0
   -1.7111    2.1200  -27.5273 C   0  0  0  0  0  0  0  0  0  0  0  0
   -1.6564    3.2100  -28.3718 C   0  0  0  0  0  0  0  0  0  0  0  0
   -2.4847    4.3047  -28.1549 C   0  0  0  0  0  0  0  0  0  0  0  0
   -3.3697    4.2865  -27.0748 C   0  0  0  0  0  0  0  0  0  0  0  0
   -3.4401    3.2002  -26.2140 C   0  0  0  0  0  0  0  0  0  0  0  0
   -2.6120    2.1491  -26.4619 C   0  0  0  0  0  0  0  0  0  0  0  0
   -5.4598   -1.7495  -20.1418 C   0  0  0  0  0  0  0  0  0  0  0  0
   -5.5878   -5.3700  -21.5412 C   0  0  0  0  0  0  0  0  0  0  0  0
   -5.6571   -3.9184  -21.4857 N   0  0  0  0  0  0  0  0  0  0  0  0
   -5.4119   -3.2257  -20.2925 C   0  0  0  0  0  0  0  0  0  0  0  0
   -5.1270   -3.8994  -19.2586 O   0  0  0  0  0  0  0  0  0  0  0  0
   -5.8803   -3.4134  -22.3008 H   0  0  0  0  0  0  0  0  0  0  0  0
   -4.5596    1.7486  -21.0870 C   0  0  0  0  0  0  0  0  0  0  0  0
   -3.4289    1.1955  -20.5345 O   0  0  0  0  0  0  0  0  0  0  0  0
   -2.6971    2.0245  -19.7169 C   0  0  0  0  0  0  0  0  0  0  0  0
 29 30  1  0  0  0
 30 31  1  0  0  0
 30 33  1  0  0  0
 31 32  2  0  0  0
 31 28  1  0  0  0
 28  1  1  0  0  0
  1  2  1  0  0  0
  3  2  1  0  0  0
  3  4  1  0  0  0
  3  9  1  0  0  0
  4  5  2  0  0  0
  4  6  1  0  0  0
  6 18  1  0  0  0
  6  7  1  0  0  0
 18 19  2  0  0  0
 19 20  1  0  0  0
 20 21  2  0  0  0
 21 22  1  0  0  0
 22 23  2  0  0  0
 23 24  1  0  0  0
 24 25  2  0  0  0
 25 26  1  0  0  0
 26 27  2  0  0  0
 27 18  1  0  0  0
 27 22  1  0  0  0
  7  8  1  0  0  0
  8 34  1  0  0  0
  8  3  1  0  0  0
 34 35  1  0  0  0
 35 36  1  0  0  0
  9 10  2  0  0  0
 10 11  1  0  0  0
 11 12  1  0  0  0
 11 13  2  0  0  0
 13 14  1  0  0  0
 14 15  2  0  0  0
 15 16  1  0  0  0
 15  9  1  0  0  0
 16 17  2  0  0  0
 16  1  1  0  0  0
M  END
> <minimizedAffinity>
-5.66848

> <CNNscore>
0.2440531701

> <CNNaffinity>
5.4408750534

> <CNN_VS>
1.3278628588

> <CNNaffinity_variance>
0.0423157439

$$$$



 36 40  0  0  0  0  0  0  0  0999 V2000
   -7.4015   -3.2257  -22.3819 N   0  0  0  0  0  0  0  0  0  0  0  0
   -8.3947   -2.2087  -22.5252 C   0  0  0  0  0  0  0  0  0  0  0  0
   -7.8865   -0.8591  -22.9151 C   0  0  0  0  0  0  0  0  0  0  0  0
   -8.9766    0.1061  -22.5491 C   0  0  0  0  0  0  0  0  0  0  0  0
   -9.1365    0.6351  -21.4174 O   0  0  0  0  0  0  0  0  0  0  0  0
   -9.8130    0.3396  -23.6781 N   0  0  0  0  0  0  0  0  0  0  0  0
   -9.2977   -0.5149  -24.7415 C   0  0  0  0  0  0  0  0  0  0  0  0
   -7.8433   -0.6267  -24.4154 C   0  0  0  0  0  0  0  0  0  0  0  0
   -6.6179   -0.5420  -22.2598 C   0  0  0  0  0  0  0  0  0  0  0  0
   -6.2251    0.7791  -22.1954 C   0  0  0  0  0  0  0  0  0  0  0  0
   -5.0511    1.1940  -21.6028 C   0  0  0  0  0  0  0  0  0  0  0  0
   -4.6572    2.9029  -21.5819 Cl  0  0  0  0  0  0  0  0  0  0  0  0
   -4.2210    0.2444  -21.0431 C   0  0  0  0  0  0  0  0  0  0  0  0
   -4.5843   -1.0949  -21.0893 C   0  0  0  0  0  0  0  0  0  0  0  0
   -5.7669   -1.4685  -21.6912 C   0  0  0  0  0  0  0  0  0  0  0  0
   -6.1681   -2.8692  -21.7508 C   0  0  0  0  0  0  0  0  0  0  0  0
   -5.4129   -3.7626  -21.2382 O   0  0  0  0  0  0  0  0  0  0  0  0
  -10.9262    1.2243  -23.7612 C   0  0  0  0  0  0  0  0  0  0  0  0
  -12.1812    0.6273  -23.5987 C   0  0  0  0  0  0  0  0  0  0  0  0
  -13.3140    1.3600  -23.6563 N   0  0  0  0  0  0  0  0  0  0  0  0
  -13.2392    2.6870  -23.8735 C   0  0  0  0  0  0  0  0  0  0  0  0
  -12.0018    3.3050  -24.0383 C   0  0  0  0  0  0  0  0  0  0  0  0
  -11.9249    4.6648  -24.2609 C   0  0  0  0  0  0  0  0  0  0  0  0
  -10.6883    5.2775  -24.4249 C   0  0  0  0  0  0  0  0  0  0  0  0
   -9.5291    4.5012  -24.3617 C   0  0  0  0  0  0  0  0  0  0  0  0
   -9.5849    3.1325  -24.1389 C   0  0  0  0  0  0  0  0  0  0  0  0
  -10.8154    2.5723  -23.9836 C   0  0  0  0  0  0  0  0  0  0  0  0
   -7.5456   -4.5835  -22.8248 C   0  0  0  0  0  0  0  0  0  0  0  0
   -4.9576   -5.0917  -25.6756 C   0  0  0  0  0  0  0  0  0  0  0  0
   -5.5094   -4.8590  -24.3502 N   0  0  0  0  0  0  0  0  0  0  0  0
   -6.8938   -4.8147  -24.1385 C   0  0  0  0  0  0  0  0  0  0  0  0
   -7.6561   -4.9831  -25.1358 O   0  0  0  0  0  0  0  0  0  0  0  0
   -4.8994   -4.7303  -23.5883 H   0  0  0  0  0  0  0  0  0  0  0  0
   -7.1217   -1.6928  -25.1495 C   0  0  0  0  0  0  0  0  0  0  0  0
   -6.7035   -1.2374  -26.3773 O   0  0  0  0  0  0  0  0  0  0  0  0
   -6.0268   -0.0403  -26.3712 C   0  0  0  0  0  0  0  0  0  0  0  0
 29 30  1  0  0  0
 30 31  1  0  0  0
 30 33  1  0  0  0
 31 32  2  0  0  0
 31 28  1  0  0  0
 28  1  1  0  0  0
  1  2  1  0  0  0
  3  2  1  0  0  0
  3  4  1  0  0  0
  3  9  1  0  0  0
  4  5  2  0  0  0
  4  6  1  0  0  0
  6 18  1  0  0  0
  6  7  1  0  0  0
 18 19  2  0  0  0
 19 20  1  0  0  0
 20 21  2  0  0  0
 21 22  1  0  0  0
 22 23  2  0  0  0
 23 24  1  0  0  0
 24 25  2  0  0  0
 25 26  1  0  0  0
 26 27  2  0  0  0
 27 18  1  0  0  0
 27 22  1  0  0  0
  7  8  1  0  0  0
  8 34  1  0  0  0
  8  3  1  0  0  0
 34 35  1  0  0  0
 35 36  1  0  0  0
  9 10  2  0  0  0
 10 11  1  0  0  0
 11 12  1  0  0  0
 11 13  2  0  0  0
 13 14  1  0  0  0
 14 15  2  0  0  0
 15 16  1  0  0  0
 15  9  1  0  0  0
 16 17  2  0  0  0
 16  1  1  0  0  0
M  END
> <minimizedAffinity>
-7.11779

> <CNNscore>
0.2397572994

> <CNNaffinity>
5.8978805542

> <CNN_VS>
1.4140598774

> <CNNaffinity_variance>
0.1557449549

$$$$



 36 40  0  0  0  0  0  0  0  0999 V2000
   -6.7059    1.5547  -23.4709 N   0  0  0  0  0  0  0  0  0  0  0  0
   -6.8432    0.1355  -23.3810 C   0  0  0  0  0  0  0  0  0  0  0  0
   -8.0747   -0.4357  -24.0046 C   0  0  0  0  0  0  0  0  0  0  0  0
   -8.2419   -1.7987  -23.3976 C   0  0  0  0  0  0  0  0  0  0  0  0
   -8.8302   -2.0497  -22.3128 O   0  0  0  0  0  0  0  0  0  0  0  0
   -7.6326   -2.7772  -24.2342 N   0  0  0  0  0  0  0  0  0  0  0  0
   -7.0285   -2.0400  -25.3380 C   0  0  0  0  0  0  0  0  0  0  0  0
   -7.9010   -0.8325  -25.4603 C   0  0  0  0  0  0  0  0  0  0  0  0
   -9.2429    0.4176  -23.7894 C   0  0  0  0  0  0  0  0  0  0  0  0
  -10.4972   -0.1362  -23.9443 C   0  0  0  0  0  0  0  0  0  0  0  0
  -11.6669    0.5722  -23.7673 C   0  0  0  0  0  0  0  0  0  0  0  0
  -13.2050   -0.2400  -23.9923 Cl  0  0  0  0  0  0  0  0  0  0  0  0
  -11.5869    1.9045  -23.4171 C   0  0  0  0  0  0  0  0  0  0  0  0
  -10.3412    2.4952  -23.2525 C   0  0  0  0  0  0  0  0  0  0  0  0
   -9.1952    1.7520  -23.4388 C   0  0  0  0  0  0  0  0  0  0  0  0
   -7.8768    2.3520  -23.2710 C   0  0  0  0  0  0  0  0  0  0  0  0
   -7.7825    3.5838  -22.9469 O   0  0  0  0  0  0  0  0  0  0  0  0
   -7.6124   -4.1882  -24.0411 C   0  0  0  0  0  0  0  0  0  0  0  0
   -6.8084   -4.6388  -22.9882 C   0  0  0  0  0  0  0  0  0  0  0  0
   -6.7058   -5.9549  -22.7040 N   0  0  0  0  0  0  0  0  0  0  0  0
   -7.3865   -6.8516  -23.4431 C   0  0  0  0  0  0  0  0  0  0  0  0
   -8.1936   -6.4283  -24.4965 C   0  0  0  0  0  0  0  0  0  0  0  0
   -8.8911   -7.3469  -25.2541 C   0  0  0  0  0  0  0  0  0  0  0  0
   -9.6953   -6.9204  -26.3043 C   0  0  0  0  0  0  0  0  0  0  0  0
   -9.7873   -5.5548  -26.5814 C   0  0  0  0  0  0  0  0  0  0  0  0
   -9.0939   -4.6150  -25.8316 C   0  0  0  0  0  0  0  0  0  0  0  0
   -8.3180   -5.0747  -24.8124 C   0  0  0  0  0  0  0  0  0  0  0  0
   -5.4787    2.2459  -23.7483 C   0  0  0  0  0  0  0  0  0  0  0  0
   -3.5276    2.0429  -20.3965 C   0  0  0  0  0  0  0  0  0  0  0  0
   -4.5899    2.3222  -21.3497 N   0  0  0  0  0  0  0  0  0  0  0  0
   -4.4507    1.9989  -22.7060 C   0  0  0  0  0  0  0  0  0  0  0  0
   -3.3708    1.4546  -23.0824 O   0  0  0  0  0  0  0  0  0  0  0  0
   -5.4215    2.7459  -21.0365 H   0  0  0  0  0  0  0  0  0  0  0  0
   -7.3432    0.2553  -26.2981 C   0  0  0  0  0  0  0  0  0  0  0  0
   -6.8142   -0.2520  -27.4611 O   0  0  0  0  0  0  0  0  0  0  0  0
   -7.5738   -0.0678  -28.5926 C   0  0  0  0  0  0  0  0  0  0  0  0
 29 30  1  0  0  0
 30 31  1  0  0  0
 30 33  1  0  0  0
 31 32  2  0  0  0
 31 28  1  0  0  0
 28  1  1  0  0  0
  1  2  1  0  0  0
  3  2  1  0  0  0
  3  4  1  0  0  0
  3  9  1  0  0  0
  4  5  2  0  0  0
  4  6  1  0  0  0
  6 18  1  0  0  0
  6  7  1  0  0  0
 18 19  2  0  0  0
 19 20  1  0  0  0
 20 21  2  0  0  0
 21 22  1  0  0  0
 22 23  2  0  0  0
 23 24  1  0  0  0
 24 25  2  0  0  0
 25 26  1  0  0  0
 26 27  2  0  0  0
 27 18  1  0  0  0
 27 22  1  0  0  0
  7  8  1  0  0  0
  8 34  1  0  0  0
  8  3  1  0  0  0
 34 35  1  0  0  0
 35 36  1  0  0  0
  9 10  2  0  0  0
 10 11  1  0  0  0
 11 12  1  0  0  0
 11 13  2  0  0  0
 13 14  1  0  0  0
 14 15  2  0  0  0
 15 16  1  0  0  0
 15  9  1  0  0  0
 16 17  2  0  0  0
 16  1  1  0  0  0
M  END
> <minimizedAffinity>
-6.38454

> <CNNscore>
0.2086971849

> <CNNaffinity>
6.0269804001

> <CNN_VS>
1.2578138113

> <CNNaffinity_variance>
0.1333068311

$$$$



 36 40  0  0  0  0  0  0  0  0999 V2000
   -9.6507   -4.1976  -24.4230 N   0  0  0  0  0  0  0  0  0  0  0  0
   -8.8366   -3.5700  -23.4307 C   0  0  0  0  0  0  0  0  0  0  0  0
   -7.4103   -3.3437  -23.8132 C   0  0  0  0  0  0  0  0  0  0  0  0
   -6.6723   -3.1363  -22.5223 C   0  0  0  0  0  0  0  0  0  0  0  0
   -6.1984   -4.0489  -21.7951 O   0  0  0  0  0  0  0  0  0  0  0  0
   -6.5846   -1.7440  -22.2353 N   0  0  0  0  0  0  0  0  0  0  0  0
   -7.3124   -1.0686  -23.3034 C   0  0  0  0  0  0  0  0  0  0  0  0
   -7.1533   -1.9961  -24.4647 C   0  0  0  0  0  0  0  0  0  0  0  0
   -6.8695   -4.4576  -24.5918 C   0  0  0  0  0  0  0  0  0  0  0  0
   -5.4991   -4.5924  -24.6792 C   0  0  0  0  0  0  0  0  0  0  0  0
   -4.8792   -5.6022  -25.3845 C   0  0  0  0  0  0  0  0  0  0  0  0
   -3.1271   -5.6714  -25.4240 Cl  0  0  0  0  0  0  0  0  0  0  0  0
   -5.6635   -6.5296  -26.0395 C   0  0  0  0  0  0  0  0  0  0  0  0
   -7.0464   -6.4251  -25.9733 C   0  0  0  0  0  0  0  0  0  0  0  0
   -7.6273   -5.4003  -25.2573 C   0  0  0  0  0  0  0  0  0  0  0  0
   -9.0775   -5.2717  -25.1742 C   0  0  0  0  0  0  0  0  0  0  0  0
   -9.8200   -6.1205  -25.7738 O   0  0  0  0  0  0  0  0  0  0  0  0
   -5.9239   -1.1281  -21.1340 C   0  0  0  0  0  0  0  0  0  0  0  0
   -6.4680   -1.4064  -19.8753 C   0  0  0  0  0  0  0  0  0  0  0  0
   -5.9310   -0.8818  -18.7528 N   0  0  0  0  0  0  0  0  0  0  0  0
   -4.8544   -0.0775  -18.8417 C   0  0  0  0  0  0  0  0  0  0  0  0
   -4.2943    0.2147  -20.0831 C   0  0  0  0  0  0  0  0  0  0  0  0
   -3.1912    1.0389  -20.1745 C   0  0  0  0  0  0  0  0  0  0  0  0
   -2.6353    1.3279  -21.4151 C   0  0  0  0  0  0  0  0  0  0  0  0
   -3.2062    0.7750  -22.5634 C   0  0  0  0  0  0  0  0  0  0  0  0
   -4.3156   -0.0560  -22.4930 C   0  0  0  0  0  0  0  0  0  0  0  0
   -4.8287   -0.3135  -21.2591 C   0  0  0  0  0  0  0  0  0  0  0  0
  -11.0052   -3.8318  -24.7266 C   0  0  0  0  0  0  0  0  0  0  0  0
  -11.8471   -0.3845  -23.1486 C   0  0  0  0  0  0  0  0  0  0  0  0
  -11.3233   -1.3783  -24.0723 N   0  0  0  0  0  0  0  0  0  0  0  0
  -11.5030   -2.7487  -23.8416 C   0  0  0  0  0  0  0  0  0  0  0  0
  -12.1362   -3.1015  -22.8030 O   0  0  0  0  0  0  0  0  0  0  0  0
  -10.8338   -1.0830  -24.8738 H   0  0  0  0  0  0  0  0  0  0  0  0
   -8.0546   -1.7206  -25.6084 C   0  0  0  0  0  0  0  0  0  0  0  0
   -8.5642   -0.4465  -25.5274 O   0  0  0  0  0  0  0  0  0  0  0  0
   -8.0098    0.4739  -26.3857 C   0  0  0  0  0  0  0  0  0  0  0  0
 29 30  1  0  0  0
 30 31  1  0  0  0
 30 33  1  0  0  0
 31 32  2  0  0  0
 31 28  1  0  0  0
 28  1  1  0  0  0
  1  2  1  0  0  0
  3  2  1  0  0  0
  3  4  1  0  0  0
  3  9  1  0  0  0
  4  5  2  0  0  0
  4  6  1  0  0  0
  6 18  1  0  0  0
  6  7  1  0  0  0
 18 19  2  0  0  0
 19 20  1  0  0  0
 20 21  2  0  0  0
 21 22  1  0  0  0
 22 23  2  0  0  0
 23 24  1  0  0  0
 24 25  2  0  0  0
 25 26  1  0  0  0
 26 27  2  0  0  0
 27 18  1  0  0  0
 27 22  1  0  0  0
  7  8  1  0  0  0
  8 34  1  0  0  0
  8  3  1  0  0  0
 34 35  1  0  0  0
 35 36  1  0  0  0
  9 10  2  0  0  0
 10 11  1  0  0  0
 11 12  1  0  0  0
 11 13  2  0  0  0
 13 14  1  0  0  0
 14 15  2  0  0  0
 15 16  1  0  0  0
 15  9  1  0  0  0
 16 17  2  0  0  0
 16  1  1  0  0  0
M  END
> <minimizedAffinity>
-7.24509

> <CNNscore>
0.1851965338

> <CNNaffinity>
5.7372465134

> <CNN_VS>
1.0625181198

> <CNNaffinity_variance>
0.0924155787

$$$$



 36 40  0  0  0  0  0  0  0  0999 V2000
   -5.7094   -2.7562  -21.1012 N   0  0  0  0  0  0  0  0  0  0  0  0
   -5.7216   -2.0673  -22.3528 C   0  0  0  0  0  0  0  0  0  0  0  0
   -6.6351   -2.6308  -23.3919 C   0  0  0  0  0  0  0  0  0  0  0  0
   -6.1484   -2.0805  -24.7013 C   0  0  0  0  0  0  0  0  0  0  0  0
   -5.2386   -2.5819  -25.4133 O   0  0  0  0  0  0  0  0  0  0  0  0
   -6.8713   -0.8968  -25.0254 N   0  0  0  0  0  0  0  0  0  0  0  0
   -7.7724   -0.6583  -23.9038 C   0  0  0  0  0  0  0  0  0  0  0  0
   -8.0309   -2.0324  -23.3753 C   0  0  0  0  0  0  0  0  0  0  0  0
   -6.6494   -4.0932  -23.3727 C   0  0  0  0  0  0  0  0  0  0  0  0
   -7.1113   -4.7594  -24.4893 C   0  0  0  0  0  0  0  0  0  0  0  0
   -7.1701   -6.1339  -24.5829 C   0  0  0  0  0  0  0  0  0  0  0  0
   -7.7770   -6.8690  -26.0551 Cl  0  0  0  0  0  0  0  0  0  0  0  0
   -6.7469   -6.8889  -23.5082 C   0  0  0  0  0  0  0  0  0  0  0  0
   -6.2758   -6.2523  -22.3677 C   0  0  0  0  0  0  0  0  0  0  0  0
   -6.2331   -4.8755  -22.3141 C   0  0  0  0  0  0  0  0  0  0  0  0
   -5.7419   -4.1862  -21.1266 C   0  0  0  0  0  0  0  0  0  0  0  0
   -5.3458   -4.8679  -20.1218 O   0  0  0  0  0  0  0  0  0  0  0  0
   -6.7470   -0.1025  -26.2011 C   0  0  0  0  0  0  0  0  0  0  0  0
   -7.5447   -0.4983  -27.2804 C   0  0  0  0  0  0  0  0  0  0  0  0
   -7.5167    0.1745  -28.4510 N   0  0  0  0  0  0  0  0  0  0  0  0
   -6.7096    1.2441  -28.5860 C   0  0  0  0  0  0  0  0  0  0  0  0
   -5.9059    1.6581  -27.5263 C   0  0  0  0  0  0  0  0  0  0  0  0
   -5.0787    2.7541  -27.6644 C   0  0  0  0  0  0  0  0  0  0  0  0
   -4.2784    3.1639  -26.6047 C   0  0  0  0  0  0  0  0  0  0  0  0
   -4.3226    2.4540  -25.4028 C   0  0  0  0  0  0  0  0  0  0  0  0
   -5.1474    1.3493  -25.2437 C   0  0  0  0  0  0  0  0  0  0  0  0
   -5.9148    0.9816  -26.3058 C   0  0  0  0  0  0  0  0  0  0  0  0
   -5.6676   -2.1218  -19.8142 C   0  0  0  0  0  0  0  0  0  0  0  0
   -4.3914    1.5266  -20.1928 C   0  0  0  0  0  0  0  0  0  0  0  0
   -4.3864    0.0754  -20.0963 N   0  0  0  0  0  0  0  0  0  0  0  0
   -5.5763   -0.6440  -19.9226 C   0  0  0  0  0  0  0  0  0  0  0  0
   -6.6615    0.0050  -19.8514 O   0  0  0  0  0  0  0  0  0  0  0  0
   -3.5319   -0.4100  -20.1539 H   0  0  0  0  0  0  0  0  0  0  0  0
   -8.6668   -2.0743  -22.0373 C   0  0  0  0  0  0  0  0  0  0  0  0
  -10.0168   -1.8339  -22.1350 O   0  0  0  0  0  0  0  0  0  0  0  0
  -10.7402   -2.7683  -22.8384 C   0  0  0  0  0  0  0  0  0  0  0  0
 29 30  1  0  0  0
 30 31  1  0  0  0
 30 33  1  0  0  0
 31 32  2  0  0  0
 31 28  1  0  0  0
 28  1  1  0  0  0
  1  2  1  0  0  0
  3  2  1  0  0  0
  3  4  1  0  0  0
  3  9  1  0  0  0
  4  5  2  0  0  0
  4  6  1  0  0  0
  6 18  1  0  0  0
  6  7  1  0  0  0
 18 19  2  0  0  0
 19 20  1  0  0  0
 20 21  2  0  0  0
 21 22  1  0  0  0
 22 23  2  0  0  0
 23 24  1  0  0  0
 24 25  2  0  0  0
 25 26  1  0  0  0
 26 27  2  0  0  0
 27 18  1  0  0  0
 27 22  1  0  0  0
  7  8  1  0  0  0
  8 34  1  0  0  0
  8  3  1  0  0  0
 34 35  1  0  0  0
 35 36  1  0  0  0
  9 10  2  0  0  0
 10 11  1  0  0  0
 11 12  1  0  0  0
 11 13  2  0  0  0
 13 14  1  0  0  0
 14 15  2  0  0  0
 15 16  1  0  0  0
 15  9  1  0  0  0
 16 17  2  0  0  0
 16  1  1  0  0  0
M  END
> <minimizedAffinity>
-6.26388

> <CNNscore>
0.1823178530

> <CNNaffinity>
5.6288614273

> <CNN_VS>
1.0262418985

> <CNNaffinity_variance>
0.1381980330

$$$$



 36 40  0  0  0  0  0  0  0  0999 V2000
  -10.5720   -2.7487  -23.1718 N   0  0  0  0  0  0  0  0  0  0  0  0
   -9.5381   -2.2956  -22.2961 C   0  0  0  0  0  0  0  0  0  0  0  0
   -8.2989   -1.7947  -22.9634 C   0  0  0  0  0  0  0  0  0  0  0  0
   -7.2288   -1.8305  -21.9110 C   0  0  0  0  0  0  0  0  0  0  0  0
   -6.5165   -2.8289  -21.6248 O   0  0  0  0  0  0  0  0  0  0  0  0
   -7.1342   -0.5590  -21.2761 N   0  0  0  0  0  0  0  0  0  0  0  0
   -8.1758    0.2666  -21.8763 C   0  0  0  0  0  0  0  0  0  0  0  0
   -8.3137   -0.3035  -23.2511 C   0  0  0  0  0  0  0  0  0  0  0  0
   -7.9510   -2.5914  -24.1396 C   0  0  0  0  0  0  0  0  0  0  0  0
   -6.6604   -2.5192  -24.6223 C   0  0  0  0  0  0  0  0  0  0  0  0
   -6.2210   -3.2247  -25.7227 C   0  0  0  0  0  0  0  0  0  0  0  0
   -4.5553   -3.0522  -26.2440 Cl  0  0  0  0  0  0  0  0  0  0  0  0
   -7.1124   -4.0475  -26.3803 C   0  0  0  0  0  0  0  0  0  0  0  0
   -8.4196   -4.1449  -25.9224 C   0  0  0  0  0  0  0  0  0  0  0  0
   -8.8194   -3.4227  -24.8183 C   0  0  0  0  0  0  0  0  0  0  0  0
  -10.1872   -3.5101  -24.3202 C   0  0  0  0  0  0  0  0  0  0  0  0
  -11.0267   -4.2664  -24.9156 O   0  0  0  0  0  0  0  0  0  0  0  0
   -6.2144   -0.1650  -20.2624 C   0  0  0  0  0  0  0  0  0  0  0  0
   -6.5581   -0.5431  -18.9598 C   0  0  0  0  0  0  0  0  0  0  0  0
   -5.7671   -0.2286  -17.9115 N   0  0  0  0  0  0  0  0  0  0  0  0
   -4.6283    0.4598  -18.1186 C   0  0  0  0  0  0  0  0  0  0  0  0
   -4.2640    0.8476  -19.4059 C   0  0  0  0  0  0  0  0  0  0  0  0
   -3.0972    1.5531  -19.6184 C   0  0  0  0  0  0  0  0  0  0  0  0
   -2.7373    1.9382  -20.9044 C   0  0  0  0  0  0  0  0  0  0  0  0
   -3.5696    1.6027  -21.9744 C   0  0  0  0  0  0  0  0  0  0  0  0
   -4.7472    0.8939  -21.7820 C   0  0  0  0  0  0  0  0  0  0  0  0
   -5.0624    0.5362  -20.5073 C   0  0  0  0  0  0  0  0  0  0  0  0
  -11.9733   -2.4974  -22.9884 C   0  0  0  0  0  0  0  0  0  0  0  0
  -13.1217    1.1677  -23.5635 C   0  0  0  0  0  0  0  0  0  0  0  0
  -12.7179   -0.0514  -22.8810 N   0  0  0  0  0  0  0  0  0  0  0  0
  -12.3946   -1.2110  -23.5982 C   0  0  0  0  0  0  0  0  0  0  0  0
  -12.4636   -1.1701  -24.8621 O   0  0  0  0  0  0  0  0  0  0  0  0
  -12.6708   -0.0621  -21.8976 H   0  0  0  0  0  0  0  0  0  0  0  0
   -9.5222    0.1357  -23.9879 C   0  0  0  0  0  0  0  0  0  0  0  0
   -9.1753    0.7178  -25.1839 O   0  0  0  0  0  0  0  0  0  0  0  0
   -9.3234    2.0835  -25.2484 C   0  0  0  0  0  0  0  0  0  0  0  0
 29 30  1  0  0  0
 30 31  1  0  0  0
 30 33  1  0  0  0
 31 32  2  0  0  0
 31 28  1  0  0  0
 28  1  1  0  0  0
  1  2  1  0  0  0
  3  2  1  0  0  0
  3  4  1  0  0  0
  3  9  1  0  0  0
  4  5  2  0  0  0
  4  6  1  0  0  0
  6 18  1  0  0  0
  6  7  1  0  0  0
 18 19  2  0  0  0
 19 20  1  0  0  0
 20 21  2  0  0  0
 21 22  1  0  0  0
 22 23  2  0  0  0
 23 24  1  0  0  0
 24 25  2  0  0  0
 25 26  1  0  0  0
 26 27  2  0  0  0
 27 18  1  0  0  0
 27 22  1  0  0  0
  7  8  1  0  0  0
  8 34  1  0  0  0
  8  3  1  0  0  0
 34 35  1  0  0  0
 35 36  1  0  0  0
  9 10  2  0  0  0
 10 11  1  0  0  0
 11 12  1  0  0  0
 11 13  2  0  0  0
 13 14  1  0  0  0
 14 15  2  0  0  0
 15 16  1  0  0  0
 15  9  1  0  0  0
 16 17  2  0  0  0
 16  1  1  0  0  0
M  END
> <minimizedAffinity>
-8.13494

> <CNNscore>
0.1487802714

> <CNNaffinity>
5.8093428612

> <CNN_VS>
0.8643156290

> <CNNaffinity_variance>
0.3088750243

$$$$



 36 40  0  0  0  0  0  0  0  0999 V2000
   -8.8550    4.1486  -24.0029 N   0  0  0  0  0  0  0  0  0  0  0  0
   -8.3275    2.9334  -23.4678 C   0  0  0  0  0  0  0  0  0  0  0  0
   -9.1032    1.6968  -23.7854 C   0  0  0  0  0  0  0  0  0  0  0  0
   -8.6683    0.6746  -22.7753 C   0  0  0  0  0  0  0  0  0  0  0  0
   -9.1562    0.5301  -21.6233 O   0  0  0  0  0  0  0  0  0  0  0  0
   -7.6130   -0.1163  -23.3134 N   0  0  0  0  0  0  0  0  0  0  0  0
   -7.3343    0.4338  -24.6349 C   0  0  0  0  0  0  0  0  0  0  0  0
   -8.6536    0.9965  -25.0558 C   0  0  0  0  0  0  0  0  0  0  0  0
  -10.5463    1.9331  -23.7535 C   0  0  0  0  0  0  0  0  0  0  0  0
  -11.3865    0.8455  -23.6304 C   0  0  0  0  0  0  0  0  0  0  0  0
  -12.7609    0.9489  -23.5899 C   0  0  0  0  0  0  0  0  0  0  0  0
  -13.7270   -0.5062  -23.4310 Cl  0  0  0  0  0  0  0  0  0  0  0  0
  -13.3330    2.2017  -23.6764 C   0  0  0  0  0  0  0  0  0  0  0  0
  -12.5181    3.3189  -23.8011 C   0  0  0  0  0  0  0  0  0  0  0  0
  -11.1479    3.1728  -23.8378 C   0  0  0  0  0  0  0  0  0  0  0  0
  -10.2733    4.3324  -23.9680 C   0  0  0  0  0  0  0  0  0  0  0  0
  -10.7843    5.5001  -24.0494 O   0  0  0  0  0  0  0  0  0  0  0  0
   -6.9582   -1.2200  -22.6955 C   0  0  0  0  0  0  0  0  0  0  0  0
   -5.9799   -0.8865  -21.7523 C   0  0  0  0  0  0  0  0  0  0  0  0
   -5.2883   -1.8438  -21.0976 N   0  0  0  0  0  0  0  0  0  0  0  0
   -5.5411   -3.1416  -21.3534 C   0  0  0  0  0  0  0  0  0  0  0  0
   -6.5101   -3.4995  -22.2878 C   0  0  0  0  0  0  0  0  0  0  0  0
   -6.7693   -4.8293  -22.5502 C   0  0  0  0  0  0  0  0  0  0  0  0
   -7.7370   -5.1821  -23.4833 C   0  0  0  0  0  0  0  0  0  0  0  0
   -8.4406   -4.1762  -24.1492 C   0  0  0  0  0  0  0  0  0  0  0  0
   -8.1950   -2.8333  -23.8998 C   0  0  0  0  0  0  0  0  0  0  0  0
   -7.2396   -2.5311  -22.9789 C   0  0  0  0  0  0  0  0  0  0  0  0
   -8.0687    5.2039  -24.5760 C   0  0  0  0  0  0  0  0  0  0  0  0
   -4.6786    5.9879  -22.8511 C   0  0  0  0  0  0  0  0  0  0  0  0
   -5.6407    5.4795  -23.8160 N   0  0  0  0  0  0  0  0  0  0  0  0
   -7.0163    5.6847  -23.6457 C   0  0  0  0  0  0  0  0  0  0  0  0
   -7.4023    6.3274  -22.6250 O   0  0  0  0  0  0  0  0  0  0  0  0
   -5.3197    4.9822  -24.6027 H   0  0  0  0  0  0  0  0  0  0  0  0
   -8.5984    1.8989  -26.2301 C   0  0  0  0  0  0  0  0  0  0  0  0
   -8.3314    1.1873  -27.3755 O   0  0  0  0  0  0  0  0  0  0  0  0
   -7.3275    1.6894  -28.1700 C   0  0  0  0  0  0  0  0  0  0  0  0
 29 30  1  0  0  0
 30 31  1  0  0  0
 30 33  1  0  0  0
 31 32  2  0  0  0
 31 28  1  0  0  0
 28  1  1  0  0  0
  1  2  1  0  0  0
  3  2  1  0  0  0
  3  4  1  0  0  0
  3  9  1  0  0  0
  4  5  2  0  0  0
  4  6  1  0  0  0
  6 18  1  0  0  0
  6  7  1  0  0  0
 18 19  2  0  0  0
 19 20  1  0  0  0
 20 21  2  0  0  0
 21 22  1  0  0  0
 22 23  2  0  0  0
 23 24  1  0  0  0
 24 25  2  0  0  0
 25 26  1  0  0  0
 26 27  2  0  0  0
 27 18  1  0  0  0
 27 22  1  0  0  0
  7  8  1  0  0  0
  8 34  1  0  0  0
  8  3  1  0  0  0
 34 35  1  0  0  0
 35 36  1  0  0  0
  9 10  2  0  0  0
 10 11  1  0  0  0
 11 12  1  0  0  0
 11 13  2  0  0  0
 13 14  1  0  0  0
 14 15  2  0  0  0
 15 16  1  0  0  0
 15  9  1  0  0  0
 16 17  2  0  0  0
 16  1  1  0  0  0
M  END
> <minimizedAffinity>
-7.15880

> <CNNscore>
0.1229174659

> <CNNaffinity>
5.5713739395

> <CNN_VS>
0.6848191619

> <CNNaffinity_variance>
0.2791786492

$$$$



 21 23  0  0  0  0  0  0  0  0999 V2000
   -6.2132   -2.2897  -21.3545 C   0  0  0  0  0  0  0  0  0  0  0  0
   -4.6680   -7.8829  -24.8041 C   0  0  0  0  0  0  0  0  0  0  0  0
   -5.2135   -6.6539  -24.1002 C   0  0  0  0  0  0  0  0  0  0  0  0
   -6.6859   -6.6181  -24.2006 C   0  0  0  0  0  0  0  0  0  0  0  0
   -7.4734   -5.6128  -23.7940 C   0  0  0  0  0  0  0  0  0  0  0  0
   -6.9355   -4.3634  -23.1670 C   0  0  0  0  0  0  0  0  0  0  0  0
   -6.1325   -4.7170  -21.9911 N   0  0  0  0  0  0  0  0  0  0  0  0
   -5.7793   -3.6827  -21.0879 C   0  0  0  0  0  0  0  0  0  0  0  0
   -5.1000   -3.8777  -20.0415 O   0  0  0  0  0  0  0  0  0  0  0  0
   -5.6642   -6.0659  -21.6752 C   0  0  0  0  0  0  0  0  0  0  0  0
   -4.7413   -6.6287  -22.6966 C   0  0  0  0  0  0  0  0  0  0  0  0
   -5.8310   -1.3767  -20.2455 C   0  0  0  0  0  0  0  0  0  0  0  0
   -6.4017   -1.4550  -18.9877 C   0  0  0  0  0  0  0  0  0  0  0  0
   -6.0528   -0.6248  -17.9836 N   0  0  0  0  0  0  0  0  0  0  0  0
   -5.1070    0.3412  -18.1743 C   0  0  0  0  0  0  0  0  0  0  0  0
   -4.5039    0.4668  -19.4072 C   0  0  0  0  0  0  0  0  0  0  0  0
   -3.5360    1.4305  -19.6595 C   0  0  0  0  0  0  0  0  0  0  0  0
   -2.9320    1.5524  -20.9037 C   0  0  0  0  0  0  0  0  0  0  0  0
   -3.2945    0.6959  -21.9331 C   0  0  0  0  0  0  0  0  0  0  0  0
   -4.2657   -0.2775  -21.6947 C   0  0  0  0  0  0  0  0  0  0  0  0
   -4.8594   -0.3901  -20.4548 C   0  0  0  0  0  0  0  0  0  0  0  0
  3  2  1  0  0  0
  3  4  1  0  0  0
  4  5  2  0  0  0
  5  6  1  0  0  0
  6  7  1  0  0  0
  7  8  1  0  0  0
  7 10  1  0  0  0
  8  9  2  0  0  0
  8  1  1  0  0  0
  1 12  1  0  0  0
 12 13  2  0  0  0
 13 14  1  0  0  0
 14 15  2  0  0  0
 15 16  1  0  0  0
 16 17  2  0  0  0
 17 18  1  0  0  0
 18 19  2  0  0  0
 19 20  1  0  0  0
 20 21  2  0  0  0
 21 12  1  0  0  0
 21 16  1  0  0  0
 10 11  1  0  0  0
 11  3  1  0  0  0
M  END
> <minimizedAffinity>
-7.59489

> <CNNscore>
0.8728892803

> <CNNaffinity>
5.3560943604

> <CNN_VS>
4.6752772331

> <CNNaffinity_variance>
0.1711424440

$$$$



 21 23  0  0  0  0  0  0  0  0999 V2000
   -7.3820   -0.5706  -21.5668 C   0  0  0  0  0  0  0  0  0  0  0  0
  -10.1880   -4.6574  -26.1490 C   0  0  0  0  0  0  0  0  0  0  0  0
   -9.7522   -3.7220  -25.0360 C   0  0  0  0  0  0  0  0  0  0  0  0
  -10.8535   -3.5249  -24.0727 C   0  0  0  0  0  0  0  0  0  0  0  0
  -10.8466   -2.6693  -23.0412 C   0  0  0  0  0  0  0  0  0  0  0  0
   -9.6810   -1.7814  -22.7314 C   0  0  0  0  0  0  0  0  0  0  0  0
   -8.4786   -2.6029  -22.5520 N   0  0  0  0  0  0  0  0  0  0  0  0
   -7.3376   -1.9981  -21.9668 C   0  0  0  0  0  0  0  0  0  0  0  0
   -6.2557   -2.6150  -21.7585 O   0  0  0  0  0  0  0  0  0  0  0  0
   -8.3650   -4.0102  -22.9331 C   0  0  0  0  0  0  0  0  0  0  0  0
   -8.5248   -4.2451  -24.3929 C   0  0  0  0  0  0  0  0  0  0  0  0
   -6.5497   -0.3147  -20.3621 C   0  0  0  0  0  0  0  0  0  0  0  0
   -6.8811   -0.8047  -19.1115 C   0  0  0  0  0  0  0  0  0  0  0  0
   -6.1239   -0.5704  -18.0203 N   0  0  0  0  0  0  0  0  0  0  0  0
   -4.9820    0.1726  -18.1105 C   0  0  0  0  0  0  0  0  0  0  0  0
   -4.6014    0.6872  -19.3310 C   0  0  0  0  0  0  0  0  0  0  0  0
   -3.4507    1.4499  -19.4830 C   0  0  0  0  0  0  0  0  0  0  0  0
   -3.0724    1.9660  -20.7152 C   0  0  0  0  0  0  0  0  0  0  0  0
   -3.8550    1.7220  -21.8345 C   0  0  0  0  0  0  0  0  0  0  0  0
   -5.0143    0.9572  -21.6975 C   0  0  0  0  0  0  0  0  0  0  0  0
   -5.3807    0.4492  -20.4687 C   0  0  0  0  0  0  0  0  0  0  0  0
  3  2  1  0  0  0
  3  4  1  0  0  0
  4  5  2  0  0  0
  5  6  1  0  0  0
  6  7  1  0  0  0
  7  8  1  0  0  0
  7 10  1  0  0  0
  8  9  2  0  0  0
  8  1  1  0  0  0
  1 12  1  0  0  0
 12 13  2  0  0  0
 13 14  1  0  0  0
 14 15  2  0  0  0
 15 16  1  0  0  0
 16 17  2  0  0  0
 17 18  1  0  0  0
 18 19  2  0  0  0
 19 20  1  0  0  0
 20 21  2  0  0  0
 21 12  1  0  0  0
 21 16  1  0  0  0
 10 11  1  0  0  0
 11  3  1  0  0  0
M  END
> <minimizedAffinity>
-7.05939

> <CNNscore>
0.6088703275

> <CNNaffinity>
5.1022663116

> <CNN_VS>
3.1066186428

> <CNNaffinity_variance>
0.2480861843

$$$$



 21 23  0  0  0  0  0  0  0  0999 V2000
   -5.9309   -1.4305  -22.1889 C   0  0  0  0  0  0  0  0  0  0  0  0
  -12.6155   -2.2171  -22.7081 C   0  0  0  0  0  0  0  0  0  0  0  0
  -11.0978   -2.2225  -22.6998 C   0  0  0  0  0  0  0  0  0  0  0  0
  -10.5851   -3.2919  -23.5790 C   0  0  0  0  0  0  0  0  0  0  0  0
   -9.2999   -3.6494  -23.7081 C   0  0  0  0  0  0  0  0  0  0  0  0
   -8.1925   -2.9835  -22.9508 C   0  0  0  0  0  0  0  0  0  0  0  0
   -8.2156   -1.5421  -23.2240 N   0  0  0  0  0  0  0  0  0  0  0  0
   -7.0854   -0.7729  -22.8481 C   0  0  0  0  0  0  0  0  0  0  0  0
   -6.9967    0.4712  -23.0448 O   0  0  0  0  0  0  0  0  0  0  0  0
   -9.3238   -0.8309  -23.8601 C   0  0  0  0  0  0  0  0  0  0  0  0
  -10.5893   -0.8845  -23.0809 C   0  0  0  0  0  0  0  0  0  0  0  0
   -5.6751   -0.8612  -20.8399 C   0  0  0  0  0  0  0  0  0  0  0  0
   -6.4499   -1.1801  -19.7390 C   0  0  0  0  0  0  0  0  0  0  0  0
   -6.2153   -0.6615  -18.5163 N   0  0  0  0  0  0  0  0  0  0  0  0
   -5.1864    0.2133  -18.3156 C   0  0  0  0  0  0  0  0  0  0  0  0
   -4.3805    0.5682  -19.3758 C   0  0  0  0  0  0  0  0  0  0  0  0
   -3.3199    1.4533  -19.2315 C   0  0  0  0  0  0  0  0  0  0  0  0
   -2.5115    1.8074  -20.3033 C   0  0  0  0  0  0  0  0  0  0  0  0
   -2.7572    1.2711  -21.5590 C   0  0  0  0  0  0  0  0  0  0  0  0
   -3.8195    0.3803  -21.7196 C   0  0  0  0  0  0  0  0  0  0  0  0
   -4.6163    0.0352  -20.6480 C   0  0  0  0  0  0  0  0  0  0  0  0
  3  2  1  0  0  0
  3  4  1  0  0  0
  4  5  2  0  0  0
  5  6  1  0  0  0
  6  7  1  0  0  0
  7  8  1  0  0  0
  7 10  1  0  0  0
  8  9  2  0  0  0
  8  1  1  0  0  0
  1 12  1  0  0  0
 12 13  2  0  0  0
 13 14  1  0  0  0
 14 15  2  0  0  0
 15 16  1  0  0  0
 16 17  2  0  0  0
 17 18  1  0  0  0
 18 19  2  0  0  0
 19 20  1  0  0  0
 20 21  2  0  0  0
 21 12  1  0  0  0
 21 16  1  0  0  0
 10 11  1  0  0  0
 11  3  1  0  0  0
M  END
> <minimizedAffinity>
-6.60868

> <CNNscore>
0.5768401623

> <CNNaffinity>
5.1434249878

> <CNN_VS>
2.9669342041

> <CNNaffinity_variance>
0.1448242217

$$$$



 21 23  0  0  0  0  0  0  0  0999 V2000
   -5.9386   -1.8283  -20.8168 C   0  0  0  0  0  0  0  0  0  0  0  0
  -10.7999   -4.0550  -24.9377 C   0  0  0  0  0  0  0  0  0  0  0  0
   -9.5868   -3.5386  -24.1858 C   0  0  0  0  0  0  0  0  0  0  0  0
   -8.5462   -3.0970  -25.1354 C   0  0  0  0  0  0  0  0  0  0  0  0
   -7.3080   -2.7006  -24.8101 C   0  0  0  0  0  0  0  0  0  0  0  0
   -6.8156   -2.6558  -23.3963 C   0  0  0  0  0  0  0  0  0  0  0  0
   -7.7083   -1.8084  -22.5977 N   0  0  0  0  0  0  0  0  0  0  0  0
   -7.2659   -1.3939  -21.3159 C   0  0  0  0  0  0  0  0  0  0  0  0
   -7.9494   -0.6574  -20.5511 O   0  0  0  0  0  0  0  0  0  0  0  0
   -9.0308   -1.3538  -23.0252 C   0  0  0  0  0  0  0  0  0  0  0  0
   -9.9951   -2.4627  -23.2534 C   0  0  0  0  0  0  0  0  0  0  0  0
   -5.1064   -0.6700  -20.3983 C   0  0  0  0  0  0  0  0  0  0  0  0
   -5.0786   -0.2066  -19.0951 C   0  0  0  0  0  0  0  0  0  0  0  0
   -4.3226    0.8450  -18.7187 N   0  0  0  0  0  0  0  0  0  0  0  0
   -3.5429    1.5034  -19.6256 C   0  0  0  0  0  0  0  0  0  0  0  0
   -3.5302    1.0866  -20.9393 C   0  0  0  0  0  0  0  0  0  0  0  0
   -2.7573    1.7177  -21.9054 C   0  0  0  0  0  0  0  0  0  0  0  0
   -2.7487    1.2935  -23.2274 C   0  0  0  0  0  0  0  0  0  0  0  0
   -3.5283    0.2113  -23.6093 C   0  0  0  0  0  0  0  0  0  0  0  0
   -4.3103   -0.4330  -22.6497 C   0  0  0  0  0  0  0  0  0  0  0  0
   -4.3113   -0.0035  -21.3390 C   0  0  0  0  0  0  0  0  0  0  0  0
  3  2  1  0  0  0
  3  4  1  0  0  0
  4  5  2  0  0  0
  5  6  1  0  0  0
  6  7  1  0  0  0
  7  8  1  0  0  0
  7 10  1  0  0  0
  8  9  2  0  0  0
  8  1  1  0  0  0
  1 12  1  0  0  0
 12 13  2  0  0  0
 13 14  1  0  0  0
 14 15  2  0  0  0
 15 16  1  0  0  0
 16 17  2  0  0  0
 17 18  1  0  0  0
 18 19  2  0  0  0
 19 20  1  0  0  0
 20 21  2  0  0  0
 21 12  1  0  0  0
 21 16  1  0  0  0
 10 11  1  0  0  0
 11  3  1  0  0  0
M  END
> <minimizedAffinity>
-6.07103

> <CNNscore>
0.5726529360

> <CNNaffinity>
4.8212709427

> <CNN_VS>
2.7609150410

> <CNNaffinity_variance>
0.1652467549

$$$$



 21 23  0  0  0  0  0  0  0  0999 V2000
   -8.0896    0.3683  -22.3590 C   0  0  0  0  0  0  0  0  0  0  0  0
   -2.0351    2.0542  -19.8948 C   0  0  0  0  0  0  0  0  0  0  0  0
   -3.2905    1.6011  -20.6176 C   0  0  0  0  0  0  0  0  0  0  0  0
   -2.9356    0.8101  -21.8125 C   0  0  0  0  0  0  0  0  0  0  0  0
   -3.7956    0.3611  -22.7371 C   0  0  0  0  0  0  0  0  0  0  0  0
   -5.2697    0.6161  -22.6657 C   0  0  0  0  0  0  0  0  0  0  0  0
   -5.7882    0.1139  -21.3883 N   0  0  0  0  0  0  0  0  0  0  0  0
   -7.1927   -0.0133  -21.2412 C   0  0  0  0  0  0  0  0  0  0  0  0
   -7.7437   -0.4431  -20.1895 O   0  0  0  0  0  0  0  0  0  0  0  0
   -4.9612   -0.2695  -20.2448 C   0  0  0  0  0  0  0  0  0  0  0  0
   -4.1650    0.8544  -19.6841 C   0  0  0  0  0  0  0  0  0  0  0  0
   -9.1513   -0.6486  -22.5791 C   0  0  0  0  0  0  0  0  0  0  0  0
   -8.9163   -2.0067  -22.4601 C   0  0  0  0  0  0  0  0  0  0  0  0
   -9.8818   -2.9268  -22.6607 N   0  0  0  0  0  0  0  0  0  0  0  0
  -11.1495   -2.5457  -22.9950 C   0  0  0  0  0  0  0  0  0  0  0  0
  -11.4429   -1.2057  -23.1280 C   0  0  0  0  0  0  0  0  0  0  0  0
  -12.7138   -0.7593  -23.4662 C   0  0  0  0  0  0  0  0  0  0  0  0
  -13.0034    0.5921  -23.5990 C   0  0  0  0  0  0  0  0  0  0  0  0
  -12.0065    1.5345  -23.3915 C   0  0  0  0  0  0  0  0  0  0  0  0
  -10.7243    1.1011  -23.0511 C   0  0  0  0  0  0  0  0  0  0  0  0
  -10.4475   -0.2438  -22.9217 C   0  0  0  0  0  0  0  0  0  0  0  0
  3  2  1  0  0  0
  3  4  1  0  0  0
  4  5  2  0  0  0
  5  6  1  0  0  0
  6  7  1  0  0  0
  7  8  1  0  0  0
  7 10  1  0  0  0
  8  9  2  0  0  0
  8  1  1  0  0  0
  1 12  1  0  0  0
 12 13  2  0  0  0
 13 14  1  0  0  0
 14 15  2  0  0  0
 15 16  1  0  0  0
 16 17  2  0  0  0
 17 18  1  0  0  0
 18 19  2  0  0  0
 19 20  1  0  0  0
 20 21  2  0  0  0
 21 12  1  0  0  0
 21 16  1  0  0  0
 10 11  1  0  0  0
 11  3  1  0  0  0
M  END
> <minimizedAffinity>
-6.83616

> <CNNscore>
0.5138963461

> <CNNaffinity>
4.8683433533

> <CNN_VS>
2.5018239021

> <CNNaffinity_variance>
0.0990065411

$$$$



 21 23  0  0  0  0  0  0  0  0999 V2000
   -6.6343   -1.2782  -20.9699 C   0  0  0  0  0  0  0  0  0  0  0  0
   -6.4983   -5.6553  -26.1075 C   0  0  0  0  0  0  0  0  0  0  0  0
   -6.7403   -4.6917  -24.9601 C   0  0  0  0  0  0  0  0  0  0  0  0
   -8.1607   -4.7204  -24.5587 C   0  0  0  0  0  0  0  0  0  0  0  0
   -8.7366   -3.9083  -23.6615 C   0  0  0  0  0  0  0  0  0  0  0  0
   -7.9821   -2.8389  -22.9334 C   0  0  0  0  0  0  0  0  0  0  0  0
   -6.8459   -3.4412  -22.2270 N   0  0  0  0  0  0  0  0  0  0  0  0
   -6.1806   -2.6630  -21.2461 C   0  0  0  0  0  0  0  0  0  0  0  0
   -5.1991   -3.0860  -20.5737 O   0  0  0  0  0  0  0  0  0  0  0  0
   -6.3420   -4.7944  -22.4580 C   0  0  0  0  0  0  0  0  0  0  0  0
   -5.8286   -5.0098  -23.8370 C   0  0  0  0  0  0  0  0  0  0  0  0
   -5.5018   -0.4013  -20.5724 C   0  0  0  0  0  0  0  0  0  0  0  0
   -5.3305    0.0504  -19.2761 C   0  0  0  0  0  0  0  0  0  0  0  0
   -4.3019    0.8463  -18.9188 N   0  0  0  0  0  0  0  0  0  0  0  0
   -3.3750    1.2432  -19.8393 C   0  0  0  0  0  0  0  0  0  0  0  0
   -3.4942    0.8245  -21.1470 C   0  0  0  0  0  0  0  0  0  0  0  0
   -2.5823    1.1965  -22.1262 C   0  0  0  0  0  0  0  0  0  0  0  0
   -2.7076    0.7717  -23.4421 C   0  0  0  0  0  0  0  0  0  0  0  0
   -3.7676   -0.0469  -23.8043 C   0  0  0  0  0  0  0  0  0  0  0  0
   -4.6922   -0.4291  -22.8313 C   0  0  0  0  0  0  0  0  0  0  0  0
   -4.5581   -0.0014  -21.5269 C   0  0  0  0  0  0  0  0  0  0  0  0
  3  2  1  0  0  0
  3  4  1  0  0  0
  4  5  2  0  0  0
  5  6  1  0  0  0
  6  7  1  0  0  0
  7  8  1  0  0  0
  7 10  1  0  0  0
  8  9  2  0  0  0
  8  1  1  0  0  0
  1 12  1  0  0  0
 12 13  2  0  0  0
 13 14  1  0  0  0
 14 15  2  0  0  0
 15 16  1  0  0  0
 16 17  2  0  0  0
 17 18  1  0  0  0
 18 19  2  0  0  0
 19 20  1  0  0  0
 20 21  2  0  0  0
 21 12  1  0  0  0
 21 16  1  0  0  0
 10 11  1  0  0  0
 11  3  1  0  0  0
M  END
> <minimizedAffinity>
-5.87010

> <CNNscore>
0.3339273334

> <CNNaffinity>
4.7258892059

> <CNN_VS>
1.5781035423

> <CNNaffinity_variance>
0.3449799418

$$$$



 21 23  0  0  0  0  0  0  0  0999 V2000
  -10.7586    1.1006  -22.7924 C   0  0  0  0  0  0  0  0  0  0  0  0
   -7.5495   -4.8372  -22.9214 C   0  0  0  0  0  0  0  0  0  0  0  0
   -8.0823   -3.4161  -22.9391 C   0  0  0  0  0  0  0  0  0  0  0  0
   -7.0529   -2.4900  -23.4511 C   0  0  0  0  0  0  0  0  0  0  0  0
   -7.1504   -1.1538  -23.4856 C   0  0  0  0  0  0  0  0  0  0  0  0
   -8.3567   -0.4154  -22.9929 C   0  0  0  0  0  0  0  0  0  0  0  0
   -9.5465   -0.9019  -23.7003 N   0  0  0  0  0  0  0  0  0  0  0  0
  -10.7393   -0.1415  -23.6026 C   0  0  0  0  0  0  0  0  0  0  0  0
  -11.8161   -0.4636  -24.1779 O   0  0  0  0  0  0  0  0  0  0  0  0
   -9.5980   -2.1212  -24.5061 C   0  0  0  0  0  0  0  0  0  0  0  0
   -9.3357   -3.3600  -23.7263 C   0  0  0  0  0  0  0  0  0  0  0  0
  -11.7542    2.0753  -23.3103 C   0  0  0  0  0  0  0  0  0  0  0  0
  -13.0748    2.0793  -22.8982 C   0  0  0  0  0  0  0  0  0  0  0  0
  -13.9758    2.9649  -23.3705 N   0  0  0  0  0  0  0  0  0  0  0  0
  -13.6120    3.9071  -24.2891 C   0  0  0  0  0  0  0  0  0  0  0  0
  -12.3093    3.9513  -24.7369 C   0  0  0  0  0  0  0  0  0  0  0  0
  -11.8820    4.8868  -25.6703 C   0  0  0  0  0  0  0  0  0  0  0  0
  -10.5683    4.9264  -26.1179 C   0  0  0  0  0  0  0  0  0  0  0  0
   -9.6455    4.0130  -25.6290 C   0  0  0  0  0  0  0  0  0  0  0  0
  -10.0600    3.0668  -24.6906 C   0  0  0  0  0  0  0  0  0  0  0  0
  -11.3675    3.0365  -24.2526 C   0  0  0  0  0  0  0  0  0  0  0  0
  3  2  1  0  0  0
  3  4  1  0  0  0
  4  5  2  0  0  0
  5  6  1  0  0  0
  6  7  1  0  0  0
  7  8  1  0  0  0
  7 10  1  0  0  0
  8  9  2  0  0  0
  8  1  1  0  0  0
  1 12  1  0  0  0
 12 13  2  0  0  0
 13 14  1  0  0  0
 14 15  2  0  0  0
 15 16  1  0  0  0
 16 17  2  0  0  0
 17 18  1  0  0  0
 18 19  2  0  0  0
 19 20  1  0  0  0
 20 21  2  0  0  0
 21 12  1  0  0  0
 21 16  1  0  0  0
 10 11  1  0  0  0
 11  3  1  0  0  0
M  END
> <minimizedAffinity>
-5.84803

> <CNNscore>
0.3139748573

> <CNNaffinity>
4.7738590240

> <CNN_VS>
1.4988716841

> <CNNaffinity_variance>
0.1977196187

$$$$



 21 23  0  0  0  0  0  0  0  0999 V2000
   -7.9216   -0.2502  -21.8862 C   0  0  0  0  0  0  0  0  0  0  0  0
   -5.9057   -6.4091  -23.7773 C   0  0  0  0  0  0  0  0  0  0  0  0
   -6.2766   -4.9572  -23.5362 C   0  0  0  0  0  0  0  0  0  0  0  0
   -6.0330   -4.1580  -24.7534 C   0  0  0  0  0  0  0  0  0  0  0  0
   -6.1399   -2.8255  -24.8485 C   0  0  0  0  0  0  0  0  0  0  0  0
   -6.5336   -1.9585  -23.6924 C   0  0  0  0  0  0  0  0  0  0  0  0
   -7.8280   -2.4074  -23.1674 N   0  0  0  0  0  0  0  0  0  0  0  0
   -8.5188   -1.5516  -22.2724 C   0  0  0  0  0  0  0  0  0  0  0  0
   -9.6419   -1.8351  -21.7695 O   0  0  0  0  0  0  0  0  0  0  0  0
   -8.4670   -3.6803  -23.4988 C   0  0  0  0  0  0  0  0  0  0  0  0
   -7.6806   -4.8684  -23.0728 C   0  0  0  0  0  0  0  0  0  0  0  0
   -7.0432   -0.3843  -20.6946 C   0  0  0  0  0  0  0  0  0  0  0  0
   -7.3212   -1.2603  -19.6606 C   0  0  0  0  0  0  0  0  0  0  0  0
   -6.5221   -1.3794  -18.5806 N   0  0  0  0  0  0  0  0  0  0  0  0
   -5.3891   -0.6264  -18.4651 C   0  0  0  0  0  0  0  0  0  0  0  0
   -5.0609    0.2640  -19.4646 C   0  0  0  0  0  0  0  0  0  0  0  0
   -3.9217    1.0560  -19.4014 C   0  0  0  0  0  0  0  0  0  0  0  0
   -3.5962    1.9515  -20.4113 C   0  0  0  0  0  0  0  0  0  0  0  0
   -4.4216    2.0701  -21.5201 C   0  0  0  0  0  0  0  0  0  0  0  0
   -5.5700    1.2809  -21.5977 C   0  0  0  0  0  0  0  0  0  0  0  0
   -5.8839    0.3944  -20.5889 C   0  0  0  0  0  0  0  0  0  0  0  0
  3  2  1  0  0  0
  3  4  1  0  0  0
  4  5  2  0  0  0
  5  6  1  0  0  0
  6  7  1  0  0  0
  7  8  1  0  0  0
  7 10  1  0  0  0
  8  9  2  0  0  0
  8  1  1  0  0  0
  1 12  1  0  0  0
 12 13  2  0  0  0
 13 14  1  0  0  0
 14 15  2  0  0  0
 15 16  1  0  0  0
 16 17  2  0  0  0
 17 18  1  0  0  0
 18 19  2  0  0  0
 19 20  1  0  0  0
 20 21  2  0  0  0
 21 12  1  0  0  0
 21 16  1  0  0  0
 10 11  1  0  0  0
 11  3  1  0  0  0
M  END
> <minimizedAffinity>
-6.56877

> <CNNscore>
0.3137915432

> <CNNaffinity>
4.9607419968

> <CNN_VS>
1.5566388369

> <CNNaffinity_variance>
0.1308261603

$$$$



 21 23  0  0  0  0  0  0  0  0999 V2000
   -5.6332   -1.4340  -23.2236 C   0  0  0  0  0  0  0  0  0  0  0  0
  -10.2176   -5.6340  -25.8534 C   0  0  0  0  0  0  0  0  0  0  0  0
   -9.0465   -4.7882  -25.3876 C   0  0  0  0  0  0  0  0  0  0  0  0
   -7.8592   -5.0537  -26.2239 C   0  0  0  0  0  0  0  0  0  0  0  0
   -6.6285   -4.5673  -26.0117 C   0  0  0  0  0  0  0  0  0  0  0  0
   -6.2997   -3.6651  -24.8624 C   0  0  0  0  0  0  0  0  0  0  0  0
   -7.1723   -2.4863  -24.9052 N   0  0  0  0  0  0  0  0  0  0  0  0
   -6.8342   -1.3752  -24.0918 C   0  0  0  0  0  0  0  0  0  0  0  0
   -7.5095   -0.3087  -24.0591 O   0  0  0  0  0  0  0  0  0  0  0  0
   -8.3743   -2.3673  -25.7294 C   0  0  0  0  0  0  0  0  0  0  0  0
   -9.4297   -3.3575  -25.3871 C   0  0  0  0  0  0  0  0  0  0  0  0
   -5.9731   -1.1643  -21.8019 C   0  0  0  0  0  0  0  0  0  0  0  0
   -7.0918   -1.7011  -21.1901 C   0  0  0  0  0  0  0  0  0  0  0  0
   -7.3975   -1.4542  -19.8999 N   0  0  0  0  0  0  0  0  0  0  0  0
   -6.6006   -0.6509  -19.1359 C   0  0  0  0  0  0  0  0  0  0  0  0
   -5.4722   -0.0878  -19.6917 C   0  0  0  0  0  0  0  0  0  0  0  0
   -4.6249    0.7372  -18.9634 C   0  0  0  0  0  0  0  0  0  0  0  0
   -3.4895    1.3019  -19.5289 C   0  0  0  0  0  0  0  0  0  0  0  0
   -3.1796    1.0447  -20.8565 C   0  0  0  0  0  0  0  0  0  0  0  0
   -4.0216    0.2177  -21.6012 C   0  0  0  0  0  0  0  0  0  0  0  0
   -5.1469   -0.3383  -21.0295 C   0  0  0  0  0  0  0  0  0  0  0  0
  3  2  1  0  0  0
  3  4  1  0  0  0
  4  5  2  0  0  0
  5  6  1  0  0  0
  6  7  1  0  0  0
  7  8  1  0  0  0
  7 10  1  0  0  0
  8  9  2  0  0  0
  8  1  1  0  0  0
  1 12  1  0  0  0
 12 13  2  0  0  0
 13 14  1  0  0  0
 14 15  2  0  0  0
 15 16  1  0  0  0
 16 17  2  0  0  0
 17 18  1  0  0  0
 18 19  2  0  0  0
 19 20  1  0  0  0
 20 21  2  0  0  0
 21 12  1  0  0  0
 21 16  1  0  0  0
 10 11  1  0  0  0
 11  3  1  0  0  0
M  END
> <minimizedAffinity>
-5.66420

> <CNNscore>
0.3104278743

> <CNNaffinity>
4.7700490952

> <CNN_VS>
1.4807561636

> <CNNaffinity_variance>
0.1141327173

$$$$



 36 41  0  0  0  0  0  0  0  0999 V2000
   -6.8312   -5.4971  -22.6297 C   0  0  0  0  0  0  0  0  0  0  0  0
   -6.9687   -4.0923  -22.1485 C   0  0  0  0  0  0  0  0  0  0  0  0
   -5.6590   -3.5562  -21.5523 C   0  0  0  0  0  0  0  0  0  0  0  0
   -6.0229   -2.1597  -21.3957 N   0  0  0  0  0  0  0  0  0  0  0  0
   -6.9037   -1.8278  -22.4859 C   0  0  0  0  0  0  0  0  0  0  0  0
   -7.4252   -0.6981  -22.7318 O   0  0  0  0  0  0  0  0  0  0  0  0
   -7.1030   -3.0815  -23.3009 C   0  0  0  0  0  0  0  0  0  0  0  0
   -5.9725   -3.2342  -24.2520 C   0  0  0  0  0  0  0  0  0  0  0  0
   -6.3010   -3.1398  -25.6519 N   0  0  0  0  0  0  0  0  0  0  0  0
   -7.6095   -3.2420  -26.1835 C   0  0  0  0  0  0  0  0  0  0  0  0
   -7.8059   -3.3202  -27.4117 O   0  0  0  0  0  0  0  0  0  0  0  0
   -8.7160   -3.2518  -25.2335 C   0  0  0  0  0  0  0  0  0  0  0  0
   -9.9817   -3.3343  -25.7401 C   0  0  0  0  0  0  0  0  0  0  0  0
  -11.0808   -3.3338  -24.9174 C   0  0  0  0  0  0  0  0  0  0  0  0
  -10.8517   -3.2466  -23.5622 C   0  0  0  0  0  0  0  0  0  0  0  0
  -11.9375   -3.2443  -22.7246 F   0  0  0  0  0  0  0  0  0  0  0  0
   -9.5529   -3.1621  -23.0423 C   0  0  0  0  0  0  0  0  0  0  0  0
   -8.4461   -3.1627  -23.8626 C   0  0  0  0  0  0  0  0  0  0  0  0
   -5.6155   -1.2505  -20.3788 C   0  0  0  0  0  0  0  0  0  0  0  0
   -6.2335   -1.4196  -19.1343 C   0  0  0  0  0  0  0  0  0  0  0  0
   -5.9210   -0.6075  -18.0905 N   0  0  0  0  0  0  0  0  0  0  0  0
   -5.0096    0.3633  -18.2645 C   0  0  0  0  0  0  0  0  0  0  0  0
   -4.3787    0.5569  -19.4868 C   0  0  0  0  0  0  0  0  0  0  0  0
   -3.4435    1.5528  -19.6656 C   0  0  0  0  0  0  0  0  0  0  0  0
   -2.8427    1.7039  -20.9062 C   0  0  0  0  0  0  0  0  0  0  0  0
   -3.1537    0.8841  -21.9713 C   0  0  0  0  0  0  0  0  0  0  0  0
   -4.0902   -0.1171  -21.8013 C   0  0  0  0  0  0  0  0  0  0  0  0
   -4.6766   -0.2605  -20.5813 C   0  0  0  0  0  0  0  0  0  0  0  0
   -5.2138   -2.9246  -26.5892 C   0  0  0  0  0  0  0  0  0  0  0  0
   -4.6166   -1.5691  -26.4686 C   0  0  0  0  0  0  0  0  0  0  0  0
   -5.1673   -0.4273  -27.0358 C   0  0  0  0  0  0  0  0  0  0  0  0
   -4.3409    0.5825  -26.7039 N   0  0  0  0  0  0  0  0  0  0  0  0
   -3.3292    0.0954  -25.9688 C   0  0  0  0  0  0  0  0  0  0  0  0
   -3.4895   -1.2422  -25.8155 N   0  0  0  0  0  0  0  0  0  0  0  0
   -4.4596    1.5259  -26.9592 H   0  0  0  0  0  0  0  0  0  0  0  0
   -2.8962   -1.8537  -25.3223 H   0  0  0  0  0  0  0  0  0  0  0  0
  2  1  1  0  0  0
  2  3  1  0  0  0
  3  4  1  0  0  0
  4 19  1  0  0  0
  4  5  1  0  0  0
 19 20  2  0  0  0
 20 21  1  0  0  0
 21 22  2  0  0  0
 22 23  1  0  0  0
 23 24  2  0  0  0
 24 25  1  0  0  0
 25 26  2  0  0  0
 26 27  1  0  0  0
 27 28  2  0  0  0
 28 19  1  0  0  0
 28 23  1  0  0  0
  5  6  2  0  0  0
  7  5  1  0  0  0
  7  8  1  0  0  0
  7  2  1  0  0  0
  8  9  1  0  0  0
  9 29  1  0  0  0
  9 10  1  0  0  0
 29 30  1  0  0  0
 30 31  2  0  0  0
 31 32  1  0  0  0
 32 33  2  0  0  0
 32 35  1  0  0  0
 33 34  1  0  0  0
 34 30  1  0  0  0
 34 36  1  0  0  0
 10 11  2  0  0  0
 10 12  1  0  0  0
 12 13  2  0  0  0
 13 14  1  0  0  0
 14 15  2  0  0  0
 15 16  1  0  0  0
 15 17  1  0  0  0
 17 18  2  0  0  0
 18 12  1  0  0  0
 18  7  1  0  0  0
M  CHG 1  32   1
M  END
> <minimizedAffinity>
-7.55912

> <CNNscore>
0.3660064042

> <CNNaffinity>
6.0868144035

> <CNN_VS>
2.2278130054

> <CNNaffinity_variance>
0.0465638153

$$$$



 36 41  0  0  0  0  0  0  0  0999 V2000
   -6.9656   -5.3967  -22.6627 C   0  0  0  0  0  0  0  0  0  0  0  0
   -7.0788   -4.0041  -22.1413 C   0  0  0  0  0  0  0  0  0  0  0  0
   -5.7404   -3.4802  -21.6008 C   0  0  0  0  0  0  0  0  0  0  0  0
   -6.0964   -2.0885  -21.3920 N   0  0  0  0  0  0  0  0  0  0  0  0
   -7.0326   -1.7321  -22.4269 C   0  0  0  0  0  0  0  0  0  0  0  0
   -7.5667   -0.5977  -22.6182 O   0  0  0  0  0  0  0  0  0  0  0  0
   -7.2731   -2.9662  -23.2606 C   0  0  0  0  0  0  0  0  0  0  0  0
   -6.1931   -3.0939  -24.2721 C   0  0  0  0  0  0  0  0  0  0  0  0
   -6.5935   -2.9664  -25.6505 N   0  0  0  0  0  0  0  0  0  0  0  0
   -7.9278   -3.0581  -26.1161 C   0  0  0  0  0  0  0  0  0  0  0  0
   -8.1873   -3.1072  -27.3341 O   0  0  0  0  0  0  0  0  0  0  0  0
   -8.9837   -3.0928  -25.1107 C   0  0  0  0  0  0  0  0  0  0  0  0
  -10.2739   -3.1654  -25.5532 C   0  0  0  0  0  0  0  0  0  0  0  0
  -11.3290   -3.1867  -24.6750 C   0  0  0  0  0  0  0  0  0  0  0  0
  -11.0302   -3.1316  -23.3318 C   0  0  0  0  0  0  0  0  0  0  0  0
  -12.0712   -3.1515  -22.4394 F   0  0  0  0  0  0  0  0  0  0  0  0
   -9.7063   -3.0574  -22.8777 C   0  0  0  0  0  0  0  0  0  0  0  0
   -8.6434   -3.0363  -23.7539 C   0  0  0  0  0  0  0  0  0  0  0  0
   -5.6375   -1.2033  -20.3758 C   0  0  0  0  0  0  0  0  0  0  0  0
   -6.2361   -1.3625  -19.1206 C   0  0  0  0  0  0  0  0  0  0  0  0
   -5.8749   -0.5712  -18.0764 N   0  0  0  0  0  0  0  0  0  0  0  0
   -4.9339    0.3691  -18.2606 C   0  0  0  0  0  0  0  0  0  0  0  0
   -4.3212    0.5520  -19.4937 C   0  0  0  0  0  0  0  0  0  0  0  0
   -3.3558    1.5167  -19.6829 C   0  0  0  0  0  0  0  0  0  0  0  0
   -2.7750    1.6583  -20.9341 C   0  0  0  0  0  0  0  0  0  0  0  0
   -3.1354    0.8596  -21.9997 C   0  0  0  0  0  0  0  0  0  0  0  0
   -4.1025   -0.1103  -21.8192 C   0  0  0  0  0  0  0  0  0  0  0  0
   -4.6691   -0.2445  -20.5889 C   0  0  0  0  0  0  0  0  0  0  0  0
   -5.5564   -2.7268  -26.6372 C   0  0  0  0  0  0  0  0  0  0  0  0
   -5.1605   -3.9632  -27.3605 C   0  0  0  0  0  0  0  0  0  0  0  0
   -4.2102   -4.8622  -26.8940 C   0  0  0  0  0  0  0  0  0  0  0  0
   -4.1386   -5.8349  -27.8223 N   0  0  0  0  0  0  0  0  0  0  0  0
   -4.9987   -5.5564  -28.8141 C   0  0  0  0  0  0  0  0  0  0  0  0
   -5.6404   -4.3943  -28.5384 N   0  0  0  0  0  0  0  0  0  0  0  0
   -3.5502   -6.6231  -27.7802 H   0  0  0  0  0  0  0  0  0  0  0  0
   -6.3240   -3.9532  -29.0928 H   0  0  0  0  0  0  0  0  0  0  0  0
  2  1  1  0  0  0
  2  3  1  0  0  0
  3  4  1  0  0  0
  4 19  1  0  0  0
  4  5  1  0  0  0
 19 20  2  0  0  0
 20 21  1  0  0  0
 21 22  2  0  0  0
 22 23  1  0  0  0
 23 24  2  0  0  0
 24 25  1  0  0  0
 25 26  2  0  0  0
 26 27  1  0  0  0
 27 28  2  0  0  0
 28 19  1  0  0  0
 28 23  1  0  0  0
  5  6  2  0  0  0
  7  5  1  0  0  0
  7  8  1  0  0  0
  7  2  1  0  0  0
  8  9  1  0  0  0
  9 29  1  0  0  0
  9 10  1  0  0  0
 29 30  1  0  0  0
 30 31  2  0  0  0
 31 32  1  0  0  0
 32 33  2  0  0  0
 32 35  1  0  0  0
 33 34  1  0  0  0
 34 30  1  0  0  0
 34 36  1  0  0  0
 10 11  2  0  0  0
 10 12  1  0  0  0
 12 13  2  0  0  0
 13 14  1  0  0  0
 14 15  2  0  0  0
 15 16  1  0  0  0
 15 17  1  0  0  0
 17 18  2  0  0  0
 18 12  1  0  0  0
 18  7  1  0  0  0
M  CHG 1  32   1
M  END
> <minimizedAffinity>
-7.85362

> <CNNscore>
0.3635289371

> <CNNaffinity>
6.2030973434

> <CNN_VS>
2.2550053596

> <CNNaffinity_variance>
0.2479263842

$$$$



 36 41  0  0  0  0  0  0  0  0999 V2000
   -6.2609   -0.3121  -25.2558 C   0  0  0  0  0  0  0  0  0  0  0  0
   -7.2984    0.3042  -24.3796 C   0  0  0  0  0  0  0  0  0  0  0  0
   -8.7162    0.0986  -24.9323 C   0  0  0  0  0  0  0  0  0  0  0  0
   -9.4855    0.5786  -23.7988 N   0  0  0  0  0  0  0  0  0  0  0  0
   -8.7512    0.2271  -22.6106 C   0  0  0  0  0  0  0  0  0  0  0  0
   -9.0931    0.4413  -21.4082 O   0  0  0  0  0  0  0  0  0  0  0  0
   -7.4795   -0.4535  -23.0525 C   0  0  0  0  0  0  0  0  0  0  0  0
   -7.7558   -1.8890  -23.3146 C   0  0  0  0  0  0  0  0  0  0  0  0
   -7.1024   -2.8326  -22.4432 N   0  0  0  0  0  0  0  0  0  0  0  0
   -6.0025   -2.5300  -21.6041 C   0  0  0  0  0  0  0  0  0  0  0  0
   -5.3790   -3.4270  -21.0041 O   0  0  0  0  0  0  0  0  0  0  0  0
   -5.6311   -1.1259  -21.4723 C   0  0  0  0  0  0  0  0  0  0  0  0
   -4.5810   -0.8254  -20.6522 C   0  0  0  0  0  0  0  0  0  0  0  0
   -4.1752    0.4719  -20.4591 C   0  0  0  0  0  0  0  0  0  0  0  0
   -4.8718    1.4545  -21.1268 C   0  0  0  0  0  0  0  0  0  0  0  0
   -4.4811    2.7565  -20.9460 F   0  0  0  0  0  0  0  0  0  0  0  0
   -5.9493    1.1461  -21.9685 C   0  0  0  0  0  0  0  0  0  0  0  0
   -6.3607   -0.1535  -22.1668 C   0  0  0  0  0  0  0  0  0  0  0  0
  -10.7304    1.2692  -23.8063 C   0  0  0  0  0  0  0  0  0  0  0  0
  -11.8666    0.4680  -23.6442 C   0  0  0  0  0  0  0  0  0  0  0  0
  -13.1079    1.0212  -23.6358 N   0  0  0  0  0  0  0  0  0  0  0  0
  -13.2351    2.3498  -23.7851 C   0  0  0  0  0  0  0  0  0  0  0  0
  -12.1275    3.1719  -23.9481 C   0  0  0  0  0  0  0  0  0  0  0  0
  -12.2577    4.5350  -24.1013 C   0  0  0  0  0  0  0  0  0  0  0  0
  -11.1197    5.3111  -24.2606 C   0  0  0  0  0  0  0  0  0  0  0  0
   -9.8558    4.7582  -24.2704 C   0  0  0  0  0  0  0  0  0  0  0  0
   -9.7155    3.3924  -24.1174 C   0  0  0  0  0  0  0  0  0  0  0  0
  -10.8363    2.6357  -23.9615 C   0  0  0  0  0  0  0  0  0  0  0  0
   -7.6051   -4.1941  -22.4212 C   0  0  0  0  0  0  0  0  0  0  0  0
   -6.9970   -5.0438  -23.4779 C   0  0  0  0  0  0  0  0  0  0  0  0
   -7.7320   -5.8052  -24.3773 C   0  0  0  0  0  0  0  0  0  0  0  0
   -6.8275   -6.4217  -25.1612 N   0  0  0  0  0  0  0  0  0  0  0  0
   -5.5945   -6.0633  -24.7707 C   0  0  0  0  0  0  0  0  0  0  0  0
   -5.6869   -5.2062  -23.7242 N   0  0  0  0  0  0  0  0  0  0  0  0
   -7.0368   -7.0363  -25.9013 H   0  0  0  0  0  0  0  0  0  0  0  0
   -4.9400   -4.7855  -23.2399 H   0  0  0  0  0  0  0  0  0  0  0  0
  2  1  1  0  0  0
  2  3  1  0  0  0
  3  4  1  0  0  0
  4 19  1  0  0  0
  4  5  1  0  0  0
 19 20  2  0  0  0
 20 21  1  0  0  0
 21 22  2  0  0  0
 22 23  1  0  0  0
 23 24  2  0  0  0
 24 25  1  0  0  0
 25 26  2  0  0  0
 26 27  1  0  0  0
 27 28  2  0  0  0
 28 19  1  0  0  0
 28 23  1  0  0  0
  5  6  2  0  0  0
  7  5  1  0  0  0
  7  8  1  0  0  0
  7  2  1  0  0  0
  8  9  1  0  0  0
  9 29  1  0  0  0
  9 10  1  0  0  0
 29 30  1  0  0  0
 30 31  2  0  0  0
 31 32  1  0  0  0
 32 33  2  0  0  0
 32 35  1  0  0  0
 33 34  1  0  0  0
 34 30  1  0  0  0
 34 36  1  0  0  0
 10 11  2  0  0  0
 10 12  1  0  0  0
 12 13  2  0  0  0
 13 14  1  0  0  0
 14 15  2  0  0  0
 15 16  1  0  0  0
 15 17  1  0  0  0
 17 18  2  0  0  0
 18 12  1  0  0  0
 18  7  1  0  0  0
M  CHG 1  32   1
M  END
> <minimizedAffinity>
-8.38512

> <CNNscore>
0.1911038607

> <CNNaffinity>
6.1886277199

> <CNN_VS>
1.1826705933

> <CNNaffinity_variance>
0.1701860428

$$$$



 36 41  0  0  0  0  0  0  0  0999 V2000
   -5.4765    0.2634  -25.2038 C   0  0  0  0  0  0  0  0  0  0  0  0
   -6.5083    1.0075  -24.4256 C   0  0  0  0  0  0  0  0  0  0  0  0
   -7.8455    1.0933  -25.1757 C   0  0  0  0  0  0  0  0  0  0  0  0
   -8.6765    1.6407  -24.1188 N   0  0  0  0  0  0  0  0  0  0  0  0
   -8.1927    1.0962  -22.8762 C   0  0  0  0  0  0  0  0  0  0  0  0
   -8.6628    1.3013  -21.7162 O   0  0  0  0  0  0  0  0  0  0  0  0
   -7.0064    0.2223  -23.1995 C   0  0  0  0  0  0  0  0  0  0  0  0
   -7.4841   -1.1225  -23.6105 C   0  0  0  0  0  0  0  0  0  0  0  0
   -7.1351   -2.2160  -22.7393 N   0  0  0  0  0  0  0  0  0  0  0  0
   -6.1324   -2.1650  -21.7406 C   0  0  0  0  0  0  0  0  0  0  0  0
   -5.7652   -3.1921  -21.1377 O   0  0  0  0  0  0  0  0  0  0  0  0
   -5.5485   -0.8609  -21.4482 C   0  0  0  0  0  0  0  0  0  0  0  0
   -4.5920   -0.8019  -20.4750 C   0  0  0  0  0  0  0  0  0  0  0  0
   -4.0019    0.3876  -20.1261 C   0  0  0  0  0  0  0  0  0  0  0  0
   -4.4157    1.5158  -20.7986 C   0  0  0  0  0  0  0  0  0  0  0  0
   -3.8378    2.7134  -20.4635 F   0  0  0  0  0  0  0  0  0  0  0  0
   -5.3972    1.4552  -21.7975 C   0  0  0  0  0  0  0  0  0  0  0  0
   -5.9925    0.2647  -22.1524 C   0  0  0  0  0  0  0  0  0  0  0  0
   -9.7701    2.5446  -24.2351 C   0  0  0  0  0  0  0  0  0  0  0  0
   -9.4396    3.8441  -24.6368 C   0  0  0  0  0  0  0  0  0  0  0  0
  -10.4044    4.7904  -24.7806 N   0  0  0  0  0  0  0  0  0  0  0  0
  -11.6837    4.4659  -24.5327 C   0  0  0  0  0  0  0  0  0  0  0  0
  -12.0441    3.1855  -24.1326 C   0  0  0  0  0  0  0  0  0  0  0  0
  -13.3566    2.8524  -23.8783 C   0  0  0  0  0  0  0  0  0  0  0  0
  -13.6632    1.5596  -23.4814 C   0  0  0  0  0  0  0  0  0  0  0  0
  -12.6905    0.5926  -23.3328 C   0  0  0  0  0  0  0  0  0  0  0  0
  -11.3718    0.9176  -23.5857 C   0  0  0  0  0  0  0  0  0  0  0  0
  -11.0770    2.1882  -23.9749 C   0  0  0  0  0  0  0  0  0  0  0  0
   -7.8617   -3.4630  -22.8937 C   0  0  0  0  0  0  0  0  0  0  0  0
   -9.3250   -3.2550  -23.0488 C   0  0  0  0  0  0  0  0  0  0  0  0
  -10.0232   -3.5110  -24.2218 C   0  0  0  0  0  0  0  0  0  0  0  0
  -11.3068   -3.1999  -23.9600 N   0  0  0  0  0  0  0  0  0  0  0  0
  -11.4029   -2.7730  -22.6913 C   0  0  0  0  0  0  0  0  0  0  0  0
  -10.1765   -2.8027  -22.1139 N   0  0  0  0  0  0  0  0  0  0  0  0
  -12.0542   -3.2737  -24.5966 H   0  0  0  0  0  0  0  0  0  0  0  0
   -9.9538   -2.5436  -21.1905 H   0  0  0  0  0  0  0  0  0  0  0  0
  2  1  1  0  0  0
  2  3  1  0  0  0
  3  4  1  0  0  0
  4 19  1  0  0  0
  4  5  1  0  0  0
 19 20  2  0  0  0
 20 21  1  0  0  0
 21 22  2  0  0  0
 22 23  1  0  0  0
 23 24  2  0  0  0
 24 25  1  0  0  0
 25 26  2  0  0  0
 26 27  1  0  0  0
 27 28  2  0  0  0
 28 19  1  0  0  0
 28 23  1  0  0  0
  5  6  2  0  0  0
  7  5  1  0  0  0
  7  8  1  0  0  0
  7  2  1  0  0  0
  8  9  1  0  0  0
  9 29  1  0  0  0
  9 10  1  0  0  0
 29 30  1  0  0  0
 30 31  2  0  0  0
 31 32  1  0  0  0
 32 33  2  0  0  0
 32 35  1  0  0  0
 33 34  1  0  0  0
 34 30  1  0  0  0
 34 36  1  0  0  0
 10 11  2  0  0  0
 10 12  1  0  0  0
 12 13  2  0  0  0
 13 14  1  0  0  0
 14 15  2  0  0  0
 15 16  1  0  0  0
 15 17  1  0  0  0
 17 18  2  0  0  0
 18 12  1  0  0  0
 18  7  1  0  0  0
M  CHG 1  32   1
M  END
> <minimizedAffinity>
-8.51589

> <CNNscore>
0.1753431261

> <CNNaffinity>
6.0356154442

> <CNN_VS>
1.0583037138

> <CNNaffinity_variance>
0.0713118762

$$$$



 36 41  0  0  0  0  0  0  0  0999 V2000
   -7.7513   -0.5725  -20.9453 C   0  0  0  0  0  0  0  0  0  0  0  0
   -7.9793    0.2028  -22.1987 C   0  0  0  0  0  0  0  0  0  0  0  0
   -6.7139    0.9415  -22.6581 C   0  0  0  0  0  0  0  0  0  0  0  0
   -7.1617    1.3917  -23.9634 N   0  0  0  0  0  0  0  0  0  0  0  0
   -8.0416    0.3760  -24.4816 C   0  0  0  0  0  0  0  0  0  0  0  0
   -8.6242    0.3702  -25.6082 O   0  0  0  0  0  0  0  0  0  0  0  0
   -8.1528   -0.7014  -23.4316 C   0  0  0  0  0  0  0  0  0  0  0  0
   -6.9991   -1.6285  -23.5546 C   0  0  0  0  0  0  0  0  0  0  0  0
   -7.3083   -2.9822  -23.9401 N   0  0  0  0  0  0  0  0  0  0  0  0
   -8.5992   -3.5620  -23.8888 C   0  0  0  0  0  0  0  0  0  0  0  0
   -8.7695   -4.7825  -24.0751 O   0  0  0  0  0  0  0  0  0  0  0  0
   -9.7195   -2.6711  -23.6090 C   0  0  0  0  0  0  0  0  0  0  0  0
  -10.9692   -3.2210  -23.5736 C   0  0  0  0  0  0  0  0  0  0  0  0
  -12.0805   -2.4517  -23.3325 C   0  0  0  0  0  0  0  0  0  0  0  0
  -11.8803   -1.1045  -23.1286 C   0  0  0  0  0  0  0  0  0  0  0  0
  -12.9786   -0.3199  -22.8866 F   0  0  0  0  0  0  0  0  0  0  0  0
  -10.5978   -0.5402  -23.1647 C   0  0  0  0  0  0  0  0  0  0  0  0
   -9.4790   -1.3070  -23.4055 C   0  0  0  0  0  0  0  0  0  0  0  0
   -6.8261    2.5960  -24.6443 C   0  0  0  0  0  0  0  0  0  0  0  0
   -5.6312    2.5652  -25.3727 C   0  0  0  0  0  0  0  0  0  0  0  0
   -5.2124    3.6592  -26.0617 N   0  0  0  0  0  0  0  0  0  0  0  0
   -5.9588    4.7753  -26.0372 C   0  0  0  0  0  0  0  0  0  0  0  0
   -7.1491    4.8378  -25.3241 C   0  0  0  0  0  0  0  0  0  0  0  0
   -7.9151    5.9828  -25.2989 C   0  0  0  0  0  0  0  0  0  0  0  0
   -9.0955    5.9929  -24.5713 C   0  0  0  0  0  0  0  0  0  0  0  0
   -9.5284    4.8872  -23.8690 C   0  0  0  0  0  0  0  0  0  0  0  0
   -8.7668    3.7347  -23.8885 C   0  0  0  0  0  0  0  0  0  0  0  0
   -7.6091    3.7309  -24.6044 C   0  0  0  0  0  0  0  0  0  0  0  0
   -6.2197   -3.8159  -24.4160 C   0  0  0  0  0  0  0  0  0  0  0  0
   -6.3783   -4.2019  -25.8424 C   0  0  0  0  0  0  0  0  0  0  0  0
   -6.2916   -3.3069  -26.9007 C   0  0  0  0  0  0  0  0  0  0  0  0
   -6.4895   -4.0361  -28.0151 N   0  0  0  0  0  0  0  0  0  0  0  0
   -6.6887   -5.3174  -27.6691 C   0  0  0  0  0  0  0  0  0  0  0  0
   -6.6219   -5.4333  -26.3198 N   0  0  0  0  0  0  0  0  0  0  0  0
   -6.4883   -3.6860  -28.9353 H   0  0  0  0  0  0  0  0  0  0  0  0
   -6.7306   -6.2582  -25.7934 H   0  0  0  0  0  0  0  0  0  0  0  0
  2  1  1  0  0  0
  2  3  1  0  0  0
  3  4  1  0  0  0
  4 19  1  0  0  0
  4  5  1  0  0  0
 19 20  2  0  0  0
 20 21  1  0  0  0
 21 22  2  0  0  0
 22 23  1  0  0  0
 23 24  2  0  0  0
 24 25  1  0  0  0
 25 26  2  0  0  0
 26 27  1  0  0  0
 27 28  2  0  0  0
 28 19  1  0  0  0
 28 23  1  0  0  0
  5  6  2  0  0  0
  7  5  1  0  0  0
  7  8  1  0  0  0
  7  2  1  0  0  0
  8  9  1  0  0  0
  9 29  1  0  0  0
  9 10  1  0  0  0
 29 30  1  0  0  0
 30 31  2  0  0  0
 31 32  1  0  0  0
 32 33  2  0  0  0
 32 35  1  0  0  0
 33 34  1  0  0  0
 34 30  1  0  0  0
 34 36  1  0  0  0
 10 11  2  0  0  0
 10 12  1  0  0  0
 12 13  2  0  0  0
 13 14  1  0  0  0
 14 15  2  0  0  0
 15 16  1  0  0  0
 15 17  1  0  0  0
 17 18  2  0  0  0
 18 12  1  0  0  0
 18  7  1  0  0  0
M  CHG 1  32   1
M  END
> <minimizedAffinity>
-6.32731

> <CNNscore>
0.1502480656

> <CNNaffinity>
5.8964648247

> <CNN_VS>
0.8859324455

> <CNNaffinity_variance>
0.0910994112

$$$$



 36 41  0  0  0  0  0  0  0  0999 V2000
   -6.5218   -2.3616  -21.6414 C   0  0  0  0  0  0  0  0  0  0  0  0
   -7.8366   -2.4691  -22.3368 C   0  0  0  0  0  0  0  0  0  0  0  0
   -8.6147   -1.1456  -22.3066 C   0  0  0  0  0  0  0  0  0  0  0  0
   -9.6914   -1.4816  -23.2204 N   0  0  0  0  0  0  0  0  0  0  0  0
   -9.1399   -2.3630  -24.2172 C   0  0  0  0  0  0  0  0  0  0  0  0
   -9.7434   -2.8643  -25.2137 O   0  0  0  0  0  0  0  0  0  0  0  0
   -7.6913   -2.5915  -23.8638 C   0  0  0  0  0  0  0  0  0  0  0  0
   -6.8736   -1.4702  -24.3930 C   0  0  0  0  0  0  0  0  0  0  0  0
   -5.9240   -1.8058  -25.4237 N   0  0  0  0  0  0  0  0  0  0  0  0
   -5.4900   -3.1195  -25.7257 C   0  0  0  0  0  0  0  0  0  0  0  0
   -4.5450   -3.3253  -26.5117 O   0  0  0  0  0  0  0  0  0  0  0  0
   -6.1952   -4.2199  -25.0785 C   0  0  0  0  0  0  0  0  0  0  0  0
   -5.7921   -5.4902  -25.3774 C   0  0  0  0  0  0  0  0  0  0  0  0
   -6.4115   -6.5837  -24.8248 C   0  0  0  0  0  0  0  0  0  0  0  0
   -7.4546   -6.3443  -23.9582 C   0  0  0  0  0  0  0  0  0  0  0  0
   -8.0858   -7.4244  -23.3965 F   0  0  0  0  0  0  0  0  0  0  0  0
   -7.8681   -5.0407  -23.6513 C   0  0  0  0  0  0  0  0  0  0  0  0
   -7.2503   -3.9395  -24.2020 C   0  0  0  0  0  0  0  0  0  0  0  0
  -11.0476   -1.0504  -23.1825 C   0  0  0  0  0  0  0  0  0  0  0  0
  -11.9856   -2.0351  -22.8513 C   0  0  0  0  0  0  0  0  0  0  0  0
  -13.3096   -1.7355  -22.7856 N   0  0  0  0  0  0  0  0  0  0  0  0
  -13.7116   -0.4802  -23.0426 C   0  0  0  0  0  0  0  0  0  0  0  0
  -12.8059    0.5194  -23.3740 C   0  0  0  0  0  0  0  0  0  0  0  0
  -13.2182    1.8073  -23.6377 C   0  0  0  0  0  0  0  0  0  0  0  0
  -12.2732    2.7683  -23.9640 C   0  0  0  0  0  0  0  0  0  0  0  0
  -10.9273    2.4732  -24.0330 C   0  0  0  0  0  0  0  0  0  0  0  0
  -10.5047    1.1844  -23.7703 C   0  0  0  0  0  0  0  0  0  0  0  0
  -11.4369    0.2455  -23.4505 C   0  0  0  0  0  0  0  0  0  0  0  0
   -5.3690   -0.7208  -26.2121 C   0  0  0  0  0  0  0  0  0  0  0  0
   -6.3972   -0.0259  -27.0297 C   0  0  0  0  0  0  0  0  0  0  0  0
   -7.0936   -0.6258  -28.0708 C   0  0  0  0  0  0  0  0  0  0  0  0
   -7.9210    0.3210  -28.5524 N   0  0  0  0  0  0  0  0  0  0  0  0
   -7.7490    1.4506  -27.8484 C   0  0  0  0  0  0  0  0  0  0  0  0
   -6.8035    1.2473  -26.8981 N   0  0  0  0  0  0  0  0  0  0  0  0
   -8.5505    0.2036  -29.3002 H   0  0  0  0  0  0  0  0  0  0  0  0
   -6.4786    1.9042  -26.2406 H   0  0  0  0  0  0  0  0  0  0  0  0
  2  1  1  0  0  0
  2  3  1  0  0  0
  3  4  1  0  0  0
  4 19  1  0  0  0
  4  5  1  0  0  0
 19 20  2  0  0  0
 20 21  1  0  0  0
 21 22  2  0  0  0
 22 23  1  0  0  0
 23 24  2  0  0  0
 24 25  1  0  0  0
 25 26  2  0  0  0
 26 27  1  0  0  0
 27 28  2  0  0  0
 28 19  1  0  0  0
 28 23  1  0  0  0
  5  6  2  0  0  0
  7  5  1  0  0  0
  7  8  1  0  0  0
  7  2  1  0  0  0
  8  9  1  0  0  0
  9 29  1  0  0  0
  9 10  1  0  0  0
 29 30  1  0  0  0
 30 31  2  0  0  0
 31 32  1  0  0  0
 32 33  2  0  0  0
 32 35  1  0  0  0
 33 34  1  0  0  0
 34 30  1  0  0  0
 34 36  1  0  0  0
 10 11  2  0  0  0
 10 12  1  0  0  0
 12 13  2  0  0  0
 13 14  1  0  0  0
 14 15  2  0  0  0
 15 16  1  0  0  0
 15 17  1  0  0  0
 17 18  2  0  0  0
 18 12  1  0  0  0
 18  7  1  0  0  0
M  CHG 1  32   1
M  END
> <minimizedAffinity>
-7.56134

> <CNNscore>
0.1483993083

> <CNNaffinity>
5.7612504959

> <CNN_VS>
0.8549655676

> <CNNaffinity_variance>
0.3346402943

$$$$



 36 41  0  0  0  0  0  0  0  0999 V2000
   -6.2960   -3.2547  -21.9628 C   0  0  0  0  0  0  0  0  0  0  0  0
   -7.4611   -2.8494  -22.8009 C   0  0  0  0  0  0  0  0  0  0  0  0
   -7.8378   -1.3757  -22.5906 C   0  0  0  0  0  0  0  0  0  0  0  0
   -8.8054   -1.2222  -23.6616 N   0  0  0  0  0  0  0  0  0  0  0  0
   -8.3674   -2.0580  -24.7497 C   0  0  0  0  0  0  0  0  0  0  0  0
   -8.9190   -2.1891  -25.8843 O   0  0  0  0  0  0  0  0  0  0  0  0
   -7.1137   -2.7650  -24.2976 C   0  0  0  0  0  0  0  0  0  0  0  0
   -5.9447   -1.8724  -24.5036 C   0  0  0  0  0  0  0  0  0  0  0  0
   -4.9732   -2.3094  -25.4740 N   0  0  0  0  0  0  0  0  0  0  0  0
   -4.8765   -3.6270  -25.9837 C   0  0  0  0  0  0  0  0  0  0  0  0
   -3.9124   -3.9796  -26.6904 O   0  0  0  0  0  0  0  0  0  0  0  0
   -5.9520   -4.5527  -25.6466 C   0  0  0  0  0  0  0  0  0  0  0  0
   -5.8732   -5.8207  -26.1479 C   0  0  0  0  0  0  0  0  0  0  0  0
   -6.8504   -6.7507  -25.8926 C   0  0  0  0  0  0  0  0  0  0  0  0
   -7.9110   -6.3498  -25.1110 C   0  0  0  0  0  0  0  0  0  0  0  0
   -8.8971   -7.2650  -24.8454 F   0  0  0  0  0  0  0  0  0  0  0  0
   -7.9918   -5.0486  -24.5964 C   0  0  0  0  0  0  0  0  0  0  0  0
   -7.0143   -4.1112  -24.8486 C   0  0  0  0  0  0  0  0  0  0  0  0
   -9.9777   -0.4147  -23.6825 C   0  0  0  0  0  0  0  0  0  0  0  0
   -9.7902    0.9121  -24.0870 C   0  0  0  0  0  0  0  0  0  0  0  0
  -10.8402    1.7730  -24.1442 N   0  0  0  0  0  0  0  0  0  0  0  0
  -12.0650    1.3372  -23.8076 C   0  0  0  0  0  0  0  0  0  0  0  0
  -12.2840    0.0268  -23.4021 C   0  0  0  0  0  0  0  0  0  0  0  0
  -13.5405   -0.4205  -23.0567 C   0  0  0  0  0  0  0  0  0  0  0  0
  -13.7052   -1.7385  -22.6587 C   0  0  0  0  0  0  0  0  0  0  0  0
  -12.6452   -2.6195  -22.5977 C   0  0  0  0  0  0  0  0  0  0  0  0
  -11.3817   -2.1797  -22.9422 C   0  0  0  0  0  0  0  0  0  0  0  0
  -11.2263   -0.8849  -23.3320 C   0  0  0  0  0  0  0  0  0  0  0  0
   -4.0218   -1.3305  -25.9675 C   0  0  0  0  0  0  0  0  0  0  0  0
   -4.6328   -0.3752  -26.9281 C   0  0  0  0  0  0  0  0  0  0  0  0
   -4.7910    0.9813  -26.6759 C   0  0  0  0  0  0  0  0  0  0  0  0
   -5.3752    1.4933  -27.7756 N   0  0  0  0  0  0  0  0  0  0  0  0
   -5.5703    0.5078  -28.6656 C   0  0  0  0  0  0  0  0  0  0  0  0
   -5.1125   -0.6595  -28.1498 N   0  0  0  0  0  0  0  0  0  0  0  0
   -5.6197    2.4380  -27.9059 H   0  0  0  0  0  0  0  0  0  0  0  0
   -5.1286   -1.5423  -28.5854 H   0  0  0  0  0  0  0  0  0  0  0  0
  2  1  1  0  0  0
  2  3  1  0  0  0
  3  4  1  0  0  0
  4 19  1  0  0  0
  4  5  1  0  0  0
 19 20  2  0  0  0
 20 21  1  0  0  0
 21 22  2  0  0  0
 22 23  1  0  0  0
 23 24  2  0  0  0
 24 25  1  0  0  0
 25 26  2  0  0  0
 26 27  1  0  0  0
 27 28  2  0  0  0
 28 19  1  0  0  0
 28 23  1  0  0  0
  5  6  2  0  0  0
  7  5  1  0  0  0
  7  8  1  0  0  0
  7  2  1  0  0  0
  8  9  1  0  0  0
  9 29  1  0  0  0
  9 10  1  0  0  0
 29 30  1  0  0  0
 30 31  2  0  0  0
 31 32  1  0  0  0
 32 33  2  0  0  0
 32 35  1  0  0  0
 33 34  1  0  0  0
 34 30  1  0  0  0
 34 36  1  0  0  0
 10 11  2  0  0  0
 10 12  1  0  0  0
 12 13  2  0  0  0
 13 14  1  0  0  0
 14 15  2  0  0  0
 15 16  1  0  0  0
 15 17  1  0  0  0
 17 18  2  0  0  0
 18 12  1  0  0  0
 18  7  1  0  0  0
M  CHG 1  32   1
M  END
> <minimizedAffinity>
-6.72219

> <CNNscore>
0.1395804137

> <CNNaffinity>
5.7972970009

> <CNN_VS>
0.8091891408

> <CNNaffinity_variance>
0.1364057362

$$$$



 36 41  0  0  0  0  0  0  0  0999 V2000
   -6.8319   -6.4425  -22.8167 C   0  0  0  0  0  0  0  0  0  0  0  0
   -7.2938   -5.0751  -23.1919 C   0  0  0  0  0  0  0  0  0  0  0  0
   -6.5226   -3.9797  -22.4414 C   0  0  0  0  0  0  0  0  0  0  0  0
   -7.0087   -2.8138  -23.1565 N   0  0  0  0  0  0  0  0  0  0  0  0
   -7.2172   -3.2137  -24.5244 C   0  0  0  0  0  0  0  0  0  0  0  0
   -7.6109   -2.4835  -25.4838 O   0  0  0  0  0  0  0  0  0  0  0  0
   -6.8796   -4.6809  -24.6206 C   0  0  0  0  0  0  0  0  0  0  0  0
   -5.4126   -4.8374  -24.7913 C   0  0  0  0  0  0  0  0  0  0  0  0
   -4.9735   -5.3958  -26.0451 N   0  0  0  0  0  0  0  0  0  0  0  0
   -5.8067   -6.0881  -26.9572 C   0  0  0  0  0  0  0  0  0  0  0  0
   -5.3323   -6.6904  -27.9398 O   0  0  0  0  0  0  0  0  0  0  0  0
   -7.2417   -6.0662  -26.6979 C   0  0  0  0  0  0  0  0  0  0  0  0
   -8.0526   -6.7186  -27.5824 C   0  0  0  0  0  0  0  0  0  0  0  0
   -9.4160   -6.7347  -27.4221 C   0  0  0  0  0  0  0  0  0  0  0  0
   -9.9289   -6.0656  -26.3332 C   0  0  0  0  0  0  0  0  0  0  0  0
  -11.2888   -6.0703  -26.1567 F   0  0  0  0  0  0  0  0  0  0  0  0
   -9.0968   -5.3962  -25.4254 C   0  0  0  0  0  0  0  0  0  0  0  0
   -7.7281   -5.3770  -25.5805 C   0  0  0  0  0  0  0  0  0  0  0  0
   -7.2501   -1.5053  -22.6500 C   0  0  0  0  0  0  0  0  0  0  0  0
   -8.5716   -1.2372  -22.2746 C   0  0  0  0  0  0  0  0  0  0  0  0
   -8.9165   -0.0201  -21.7780 N   0  0  0  0  0  0  0  0  0  0  0  0
   -7.9735    0.9274  -21.6500 C   0  0  0  0  0  0  0  0  0  0  0  0
   -6.6536    0.6927  -22.0136 C   0  0  0  0  0  0  0  0  0  0  0  0
   -5.6859    1.6647  -21.8824 C   0  0  0  0  0  0  0  0  0  0  0  0
   -4.3826    1.3791  -22.2600 C   0  0  0  0  0  0  0  0  0  0  0  0
   -4.0235    0.1465  -22.7651 C   0  0  0  0  0  0  0  0  0  0  0  0
   -4.9871   -0.8341  -22.9002 C   0  0  0  0  0  0  0  0  0  0  0  0
   -6.2647   -0.5479  -22.5278 C   0  0  0  0  0  0  0  0  0  0  0  0
   -3.5755   -5.2398  -26.4029 C   0  0  0  0  0  0  0  0  0  0  0  0
   -2.7594   -6.4296  -26.0468 C   0  0  0  0  0  0  0  0  0  0  0  0
   -2.2876   -6.6898  -24.7667 C   0  0  0  0  0  0  0  0  0  0  0  0
   -1.6015   -7.8448  -24.8563 N   0  0  0  0  0  0  0  0  0  0  0  0
   -1.6438   -8.2809  -26.1248 C   0  0  0  0  0  0  0  0  0  0  0  0
   -2.3614   -7.4089  -26.8752 N   0  0  0  0  0  0  0  0  0  0  0  0
   -1.1427   -8.2965  -24.1114 H   0  0  0  0  0  0  0  0  0  0  0  0
   -2.5531   -7.4797  -27.8383 H   0  0  0  0  0  0  0  0  0  0  0  0
  2  1  1  0  0  0
  2  3  1  0  0  0
  3  4  1  0  0  0
  4 19  1  0  0  0
  4  5  1  0  0  0
 19 20  2  0  0  0
 20 21  1  0  0  0
 21 22  2  0  0  0
 22 23  1  0  0  0
 23 24  2  0  0  0
 24 25  1  0  0  0
 25 26  2  0  0  0
 26 27  1  0  0  0
 27 28  2  0  0  0
 28 19  1  0  0  0
 28 23  1  0  0  0
  5  6  2  0  0  0
  7  5  1  0  0  0
  7  8  1  0  0  0
  7  2  1  0  0  0
  8  9  1  0  0  0
  9 29  1  0  0  0
  9 10  1  0  0  0
 29 30  1  0  0  0
 30 31  2  0  0  0
 31 32  1  0  0  0
 32 33  2  0  0  0
 32 35  1  0  0  0
 33 34  1  0  0  0
 34 30  1  0  0  0
 34 36  1  0  0  0
 10 11  2  0  0  0
 10 12  1  0  0  0
 12 13  2  0  0  0
 13 14  1  0  0  0
 14 15  2  0  0  0
 15 16  1  0  0  0
 15 17  1  0  0  0
 17 18  2  0  0  0
 18 12  1  0  0  0
 18  7  1  0  0  0
M  CHG 1  32   1
M  END
> <minimizedAffinity>
-6.93959

> <CNNscore>
0.1336162239

> <CNNaffinity>
5.8376846313

> <CNN_VS>
0.7800093889

> <CNNaffinity_variance>
0.1717319191

$$$$



 36 41  0  0  0  0  0  0  0  0999 V2000
   -7.4031   -5.0031  -23.0751 C   0  0  0  0  0  0  0  0  0  0  0  0
   -8.0646   -3.8829  -23.8043 C   0  0  0  0  0  0  0  0  0  0  0  0
   -7.6788   -2.5126  -23.2287 C   0  0  0  0  0  0  0  0  0  0  0  0
   -8.2628   -1.6550  -24.2438 N   0  0  0  0  0  0  0  0  0  0  0  0
   -8.1428   -2.3469  -25.5014 C   0  0  0  0  0  0  0  0  0  0  0  0
   -8.5055   -1.9288  -26.6426 O   0  0  0  0  0  0  0  0  0  0  0  0
   -7.4984   -3.6817  -25.2209 C   0  0  0  0  0  0  0  0  0  0  0  0
   -6.0238   -3.5134  -25.1651 C   0  0  0  0  0  0  0  0  0  0  0  0
   -5.2675   -4.1798  -26.1949 N   0  0  0  0  0  0  0  0  0  0  0  0
   -5.7680   -5.2119  -27.0253 C   0  0  0  0  0  0  0  0  0  0  0  0
   -5.0159   -5.8599  -27.7787 O   0  0  0  0  0  0  0  0  0  0  0  0
   -7.1994   -5.4838  -26.9611 C   0  0  0  0  0  0  0  0  0  0  0  0
   -7.6916   -6.4674  -27.7709 C   0  0  0  0  0  0  0  0  0  0  0  0
   -9.0290   -6.7774  -27.7848 C   0  0  0  0  0  0  0  0  0  0  0  0
   -9.8505   -6.0546  -26.9486 C   0  0  0  0  0  0  0  0  0  0  0  0
  -11.1897   -6.3498  -26.9489 F   0  0  0  0  0  0  0  0  0  0  0  0
   -9.3455   -5.0454  -26.1174 C   0  0  0  0  0  0  0  0  0  0  0  0
   -8.0045   -4.7302  -26.0986 C   0  0  0  0  0  0  0  0  0  0  0  0
   -8.8533   -0.3700  -24.0801 C   0  0  0  0  0  0  0  0  0  0  0  0
   -7.9766    0.7158  -24.1875 C   0  0  0  0  0  0  0  0  0  0  0  0
   -8.4315    1.9888  -24.0484 N   0  0  0  0  0  0  0  0  0  0  0  0
   -9.7359    2.1966  -23.8059 C   0  0  0  0  0  0  0  0  0  0  0  0
  -10.6313    1.1406  -23.6939 C   0  0  0  0  0  0  0  0  0  0  0  0
  -11.9696    1.3535  -23.4452 C   0  0  0  0  0  0  0  0  0  0  0  0
  -12.8217    0.2643  -23.3423 C   0  0  0  0  0  0  0  0  0  0  0  0
  -12.3688   -1.0313  -23.4821 C   0  0  0  0  0  0  0  0  0  0  0  0
  -11.0284   -1.2543  -23.7316 C   0  0  0  0  0  0  0  0  0  0  0  0
  -10.1969   -0.1813  -23.8315 C   0  0  0  0  0  0  0  0  0  0  0  0
   -3.8912   -3.7661  -26.3990 C   0  0  0  0  0  0  0  0  0  0  0  0
   -3.7859   -2.4070  -26.9909 C   0  0  0  0  0  0  0  0  0  0  0  0
   -4.2948   -2.0636  -28.2366 C   0  0  0  0  0  0  0  0  0  0  0  0
   -4.0000   -0.7610  -28.4070 N   0  0  0  0  0  0  0  0  0  0  0  0
   -3.3425   -0.3166  -27.3247 C   0  0  0  0  0  0  0  0  0  0  0  0
   -3.2031   -1.3315  -26.4365 N   0  0  0  0  0  0  0  0  0  0  0  0
   -4.2297   -0.2215  -29.1979 H   0  0  0  0  0  0  0  0  0  0  0  0
   -2.7614   -1.2885  -25.5577 H   0  0  0  0  0  0  0  0  0  0  0  0
  2  1  1  0  0  0
  2  3  1  0  0  0
  3  4  1  0  0  0
  4 19  1  0  0  0
  4  5  1  0  0  0
 19 20  2  0  0  0
 20 21  1  0  0  0
 21 22  2  0  0  0
 22 23  1  0  0  0
 23 24  2  0  0  0
 24 25  1  0  0  0
 25 26  2  0  0  0
 26 27  1  0  0  0
 27 28  2  0  0  0
 28 19  1  0  0  0
 28 23  1  0  0  0
  5  6  2  0  0  0
  7  5  1  0  0  0
  7  8  1  0  0  0
  7  2  1  0  0  0
  8  9  1  0  0  0
  9 29  1  0  0  0
  9 10  1  0  0  0
 29 30  1  0  0  0
 30 31  2  0  0  0
 31 32  1  0  0  0
 32 33  2  0  0  0
 32 35  1  0  0  0
 33 34  1  0  0  0
 34 30  1  0  0  0
 34 36  1  0  0  0
 10 11  2  0  0  0
 10 12  1  0  0  0
 12 13  2  0  0  0
 13 14  1  0  0  0
 14 15  2  0  0  0
 15 16  1  0  0  0
 15 17  1  0  0  0
 17 18  2  0  0  0
 18 12  1  0  0  0
 18  7  1  0  0  0
M  CHG 1  32   1
M  END
> <minimizedAffinity>
-6.83278

> <CNNscore>
0.1198440418

> <CNNaffinity>
5.6778388023

> <CNN_VS>
0.6804551482

> <CNNaffinity_variance>
0.1409152448

$$$$



 30 34  0  0  0  0  0  0  0  0999 V2000
   -7.2495   -5.1799  -22.9843 C   0  0  0  0  0  0  0  0  0  0  0  0
   -6.9757   -3.7785  -22.6896 N   0  0  0  0  0  0  0  0  0  0  0  0
   -6.2012   -3.3099  -21.5641 C   0  0  0  0  0  0  0  0  0  0  0  0
   -5.3521   -4.0039  -20.9099 O   0  0  0  0  0  0  0  0  0  0  0  0
   -6.5532   -1.9522  -21.3221 N   0  0  0  0  0  0  0  0  0  0  0  0
   -7.5353   -1.6151  -22.3023 C   0  0  0  0  0  0  0  0  0  0  0  0
   -8.3418   -0.6505  -22.1869 O   0  0  0  0  0  0  0  0  0  0  0  0
   -7.3760   -2.6002  -23.3888 C   0  0  0  0  0  0  0  0  0  0  0  0
   -8.5113   -2.7207  -24.3728 C   0  0  0  0  0  0  0  0  0  0  0  0
   -7.7446   -1.8950  -25.2701 N   0  0  0  0  0  0  0  0  0  0  0  0
   -6.4946   -2.1354  -24.5278 C   0  0  0  0  0  0  0  0  0  0  0  0
   -5.9986   -1.1472  -20.2904 C   0  0  0  0  0  0  0  0  0  0  0  0
   -6.5354   -1.2341  -19.0087 C   0  0  0  0  0  0  0  0  0  0  0  0
   -6.0289   -0.4821  -18.0112 N   0  0  0  0  0  0  0  0  0  0  0  0
   -5.0054    0.3723  -18.1868 C   0  0  0  0  0  0  0  0  0  0  0  0
   -4.4324    0.4989  -19.4436 C   0  0  0  0  0  0  0  0  0  0  0  0
   -3.3831    1.3496  -19.7064 C   0  0  0  0  0  0  0  0  0  0  0  0
   -2.8333    1.4547  -20.9662 C   0  0  0  0  0  0  0  0  0  0  0  0
   -3.3479    0.6837  -22.0029 C   0  0  0  0  0  0  0  0  0  0  0  0
   -4.3903   -0.1528  -21.7132 C   0  0  0  0  0  0  0  0  0  0  0  0
   -4.9587   -0.2776  -20.4641 C   0  0  0  0  0  0  0  0  0  0  0  0
   -7.6009   -2.4713  -26.8700 S   0  0  0  0  0  0  0  0  0  0  0  0
   -8.4808   -1.7150  -27.8305 O   0  0  0  0  0  0  0  0  0  0  0  0
   -6.2013   -2.3348  -27.3951 O   0  0  0  0  0  0  0  0  0  0  0  0
   -8.0379   -4.1560  -27.0449 C   0  0  0  0  0  0  0  0  0  0  0  0
   -9.3104   -4.4855  -27.4645 C   0  0  0  0  0  0  0  0  0  0  0  0
   -9.7415   -5.7853  -27.6291 C   0  0  0  0  0  0  0  0  0  0  0  0
   -8.8112   -6.7803  -27.3456 C   0  0  0  0  0  0  0  0  0  0  0  0
   -7.5319   -6.4598  -26.9240 C   0  0  0  0  0  0  0  0  0  0  0  0
   -7.1293   -5.1377  -26.7683 C   0  0  0  0  0  0  0  0  0  0  0  0
  1  2  1  0  0  0
  2  3  1  0  0  0
  3  4  2  0  0  0
  3  5  1  0  0  0
  5 12  1  0  0  0
  5  6  1  0  0  0
 12 13  2  0  0  0
 13 14  1  0  0  0
 14 15  2  0  0  0
 15 16  1  0  0  0
 16 17  2  0  0  0
 17 18  1  0  0  0
 18 19  2  0  0  0
 19 20  1  0  0  0
 20 21  2  0  0  0
 21 12  1  0  0  0
 21 16  1  0  0  0
  6  7  2  0  0  0
  6  8  1  0  0  0
  8  9  1  0  0  0
  8  2  1  0  0  0
  9 10  1  0  0  0
 10 22  1  0  0  0
 10 11  1  0  0  0
 22 23  2  0  0  0
 22 24  2  0  0  0
 22 25  1  0  0  0
 25 26  2  0  0  0
 26 27  1  0  0  0
 27 28  2  0  0  0
 28 29  1  0  0  0
 29 30  2  0  0  0
 30 25  1  0  0  0
 11  8  1  0  0  0
M  END
> <minimizedAffinity>
-8.56826

> <CNNscore>
0.5446256995

> <CNNaffinity>
5.6009554863

> <CNN_VS>
3.0504243374

> <CNNaffinity_variance>
0.0626694411

$$$$



 30 34  0  0  0  0  0  0  0  0999 V2000
   -7.2162   -5.6141  -22.8577 C   0  0  0  0  0  0  0  0  0  0  0  0
   -6.9805   -4.1927  -22.6346 N   0  0  0  0  0  0  0  0  0  0  0  0
   -6.2086   -3.6477  -21.5422 C   0  0  0  0  0  0  0  0  0  0  0  0
   -5.3330   -4.2842  -20.8650 O   0  0  0  0  0  0  0  0  0  0  0  0
   -6.5977   -2.2905  -21.3622 N   0  0  0  0  0  0  0  0  0  0  0  0
   -7.5992   -2.0299  -22.3461 C   0  0  0  0  0  0  0  0  0  0  0  0
   -8.4323   -1.0844  -22.2683 O   0  0  0  0  0  0  0  0  0  0  0  0
   -7.4223   -3.0619  -23.3854 C   0  0  0  0  0  0  0  0  0  0  0  0
   -8.5636   -3.2629  -24.3491 C   0  0  0  0  0  0  0  0  0  0  0  0
   -7.8305   -2.4603  -25.2942 N   0  0  0  0  0  0  0  0  0  0  0  0
   -6.5665   -2.6281  -24.5557 C   0  0  0  0  0  0  0  0  0  0  0  0
   -6.0564   -1.4204  -20.3773 C   0  0  0  0  0  0  0  0  0  0  0  0
   -6.5679   -1.4698  -19.0833 C   0  0  0  0  0  0  0  0  0  0  0  0
   -6.0732   -0.6561  -18.1293 N   0  0  0  0  0  0  0  0  0  0  0  0
   -5.0856    0.2268  -18.3611 C   0  0  0  0  0  0  0  0  0  0  0  0
   -4.5390    0.3182  -19.6327 C   0  0  0  0  0  0  0  0  0  0  0  0
   -3.5270    1.1944  -19.9520 C   0  0  0  0  0  0  0  0  0  0  0  0
   -3.0029    1.2634  -21.2252 C   0  0  0  0  0  0  0  0  0  0  0  0
   -3.5056    0.4287  -22.2173 C   0  0  0  0  0  0  0  0  0  0  0  0
   -4.5108   -0.4319  -21.8719 C   0  0  0  0  0  0  0  0  0  0  0  0
   -5.0530   -0.5218  -20.6083 C   0  0  0  0  0  0  0  0  0  0  0  0
   -7.6863   -3.1096  -26.8659 S   0  0  0  0  0  0  0  0  0  0  0  0
   -7.7827   -4.6127  -26.8737 O   0  0  0  0  0  0  0  0  0  0  0  0
   -8.7716   -2.6201  -27.7801 O   0  0  0  0  0  0  0  0  0  0  0  0
   -6.1673   -2.7228  -27.6422 C   0  0  0  0  0  0  0  0  0  0  0  0
   -5.2390   -3.7225  -27.8497 C   0  0  0  0  0  0  0  0  0  0  0  0
   -4.0169   -3.5088  -28.4523 C   0  0  0  0  0  0  0  0  0  0  0  0
   -3.7514   -2.2035  -28.8542 C   0  0  0  0  0  0  0  0  0  0  0  0
   -4.6763   -1.1936  -28.6504 C   0  0  0  0  0  0  0  0  0  0  0  0
   -5.9004   -1.4434  -28.0392 C   0  0  0  0  0  0  0  0  0  0  0  0
  1  2  1  0  0  0
  2  3  1  0  0  0
  3  4  2  0  0  0
  3  5  1  0  0  0
  5 12  1  0  0  0
  5  6  1  0  0  0
 12 13  2  0  0  0
 13 14  1  0  0  0
 14 15  2  0  0  0
 15 16  1  0  0  0
 16 17  2  0  0  0
 17 18  1  0  0  0
 18 19  2  0  0  0
 19 20  1  0  0  0
 20 21  2  0  0  0
 21 12  1  0  0  0
 21 16  1  0  0  0
  6  7  2  0  0  0
  6  8  1  0  0  0
  8  9  1  0  0  0
  8  2  1  0  0  0
  9 10  1  0  0  0
 10 22  1  0  0  0
 10 11  1  0  0  0
 22 23  2  0  0  0
 22 24  2  0  0  0
 22 25  1  0  0  0
 25 26  2  0  0  0
 26 27  1  0  0  0
 27 28  2  0  0  0
 28 29  1  0  0  0
 29 30  2  0  0  0
 30 25  1  0  0  0
 11  8  1  0  0  0
M  END
> <minimizedAffinity>
-7.48174

> <CNNscore>
0.5163205862

> <CNNaffinity>
5.6329946518

> <CNN_VS>
2.9084310532

> <CNNaffinity_variance>
0.0184428860

$$$$



 30 34  0  0  0  0  0  0  0  0999 V2000
   -6.9836    0.0498  -24.0501 C   0  0  0  0  0  0  0  0  0  0  0  0
   -6.7808   -1.3823  -23.8672 N   0  0  0  0  0  0  0  0  0  0  0  0
   -6.3345   -2.2891  -24.8991 C   0  0  0  0  0  0  0  0  0  0  0  0
   -5.7046   -1.9529  -25.9577 O   0  0  0  0  0  0  0  0  0  0  0  0
   -6.7202   -3.6069  -24.5242 N   0  0  0  0  0  0  0  0  0  0  0  0
   -7.3946   -3.4829  -23.2717 C   0  0  0  0  0  0  0  0  0  0  0  0
   -8.1887   -4.3500  -22.8117 O   0  0  0  0  0  0  0  0  0  0  0  0
   -6.9600   -2.1919  -22.7053 C   0  0  0  0  0  0  0  0  0  0  0  0
   -7.7871   -1.6278  -21.5786 C   0  0  0  0  0  0  0  0  0  0  0  0
   -6.7942   -2.1411  -20.6700 N   0  0  0  0  0  0  0  0  0  0  0  0
   -5.7962   -2.2933  -21.7433 C   0  0  0  0  0  0  0  0  0  0  0  0
   -6.4555   -4.7735  -25.2918 C   0  0  0  0  0  0  0  0  0  0  0  0
   -5.2710   -5.4702  -25.0680 C   0  0  0  0  0  0  0  0  0  0  0  0
   -4.9943   -6.5799  -25.7814 N   0  0  0  0  0  0  0  0  0  0  0  0
   -5.8196   -7.0677  -26.7245 C   0  0  0  0  0  0  0  0  0  0  0  0
   -7.0136   -6.4131  -26.9887 C   0  0  0  0  0  0  0  0  0  0  0  0
   -7.9120   -6.8468  -27.9367 C   0  0  0  0  0  0  0  0  0  0  0  0
   -9.0917   -6.1756  -28.1780 C   0  0  0  0  0  0  0  0  0  0  0  0
   -9.3876   -5.0296  -27.4478 C   0  0  0  0  0  0  0  0  0  0  0  0
   -8.4770   -4.6216  -26.5126 C   0  0  0  0  0  0  0  0  0  0  0  0
   -7.2910   -5.2728  -26.2510 C   0  0  0  0  0  0  0  0  0  0  0  0
   -6.2296   -1.0448  -19.4902 S   0  0  0  0  0  0  0  0  0  0  0  0
   -7.3523   -0.4417  -18.6874 O   0  0  0  0  0  0  0  0  0  0  0  0
   -5.3183   -1.7051  -18.4969 O   0  0  0  0  0  0  0  0  0  0  0  0
   -5.3422    0.3047  -20.1619 C   0  0  0  0  0  0  0  0  0  0  0  0
   -5.9707    1.1540  -21.0494 C   0  0  0  0  0  0  0  0  0  0  0  0
   -5.3491    2.2409  -21.6280 C   0  0  0  0  0  0  0  0  0  0  0  0
   -4.0216    2.4512  -21.2683 C   0  0  0  0  0  0  0  0  0  0  0  0
   -3.3823    1.6046  -20.3786 C   0  0  0  0  0  0  0  0  0  0  0  0
   -4.0388    0.5168  -19.8129 C   0  0  0  0  0  0  0  0  0  0  0  0
  1  2  1  0  0  0
  2  3  1  0  0  0
  3  4  2  0  0  0
  3  5  1  0  0  0
  5 12  1  0  0  0
  5  6  1  0  0  0
 12 13  2  0  0  0
 13 14  1  0  0  0
 14 15  2  0  0  0
 15 16  1  0  0  0
 16 17  2  0  0  0
 17 18  1  0  0  0
 18 19  2  0  0  0
 19 20  1  0  0  0
 20 21  2  0  0  0
 21 12  1  0  0  0
 21 16  1  0  0  0
  6  7  2  0  0  0
  6  8  1  0  0  0
  8  9  1  0  0  0
  8  2  1  0  0  0
  9 10  1  0  0  0
 10 22  1  0  0  0
 10 11  1  0  0  0
 22 23  2  0  0  0
 22 24  2  0  0  0
 22 25  1  0  0  0
 25 26  2  0  0  0
 26 27  1  0  0  0
 27 28  2  0  0  0
 28 29  1  0  0  0
 29 30  2  0  0  0
 30 25  1  0  0  0
 11  8  1  0  0  0
M  END
> <minimizedAffinity>
-7.31470

> <CNNscore>
0.3357895017

> <CNNaffinity>
5.6423921585

> <CNN_VS>
1.8946560621

> <CNNaffinity_variance>
0.0876055509

$$$$



 30 34  0  0  0  0  0  0  0  0999 V2000
   -7.7863   -4.6246  -22.8511 C   0  0  0  0  0  0  0  0  0  0  0  0
   -7.1067   -3.3480  -23.0364 N   0  0  0  0  0  0  0  0  0  0  0  0
   -6.0585   -2.8416  -22.1814 C   0  0  0  0  0  0  0  0  0  0  0  0
   -5.3255   -3.5487  -21.4112 O   0  0  0  0  0  0  0  0  0  0  0  0
   -5.9938   -1.4301  -22.3531 N   0  0  0  0  0  0  0  0  0  0  0  0
   -7.0021   -1.0989  -23.3084 C   0  0  0  0  0  0  0  0  0  0  0  0
   -7.4940    0.0565  -23.4397 O   0  0  0  0  0  0  0  0  0  0  0  0
   -7.2932   -2.3478  -24.0375 C   0  0  0  0  0  0  0  0  0  0  0  0
   -8.5685   -2.3884  -24.8399 C   0  0  0  0  0  0  0  0  0  0  0  0
   -7.7728   -2.1180  -26.0097 N   0  0  0  0  0  0  0  0  0  0  0  0
   -6.5245   -2.5084  -25.3312 C   0  0  0  0  0  0  0  0  0  0  0  0
   -5.0813   -0.5766  -21.6756 C   0  0  0  0  0  0  0  0  0  0  0  0
   -4.0205   -0.0257  -22.3894 C   0  0  0  0  0  0  0  0  0  0  0  0
   -3.1401    0.7873  -21.7721 N   0  0  0  0  0  0  0  0  0  0  0  0
   -3.2290    1.1066  -20.4687 C   0  0  0  0  0  0  0  0  0  0  0  0
   -4.2666    0.5857  -19.7097 C   0  0  0  0  0  0  0  0  0  0  0  0
   -4.4284    0.8631  -18.3715 C   0  0  0  0  0  0  0  0  0  0  0  0
   -5.4698    0.3307  -17.6417 C   0  0  0  0  0  0  0  0  0  0  0  0
   -6.3841   -0.5092  -18.2683 C   0  0  0  0  0  0  0  0  0  0  0  0
   -6.1989   -0.7674  -19.5984 C   0  0  0  0  0  0  0  0  0  0  0  0
   -5.1678   -0.2494  -20.3515 C   0  0  0  0  0  0  0  0  0  0  0  0
   -8.0570   -3.1327  -27.3522 S   0  0  0  0  0  0  0  0  0  0  0  0
   -9.1539   -2.6090  -28.2417 O   0  0  0  0  0  0  0  0  0  0  0  0
   -6.8434   -3.2657  -28.2255 O   0  0  0  0  0  0  0  0  0  0  0  0
   -8.5337   -4.7563  -26.9089 C   0  0  0  0  0  0  0  0  0  0  0  0
   -9.8521   -5.1377  -27.0515 C   0  0  0  0  0  0  0  0  0  0  0  0
  -10.3168   -6.3951  -26.7268 C   0  0  0  0  0  0  0  0  0  0  0  0
   -9.3717   -7.2897  -26.2347 C   0  0  0  0  0  0  0  0  0  0  0  0
   -8.0465   -6.9165  -26.0880 C   0  0  0  0  0  0  0  0  0  0  0  0
   -7.6108   -5.6395  -26.4252 C   0  0  0  0  0  0  0  0  0  0  0  0
  1  2  1  0  0  0
  2  3  1  0  0  0
  3  4  2  0  0  0
  3  5  1  0  0  0
  5 12  1  0  0  0
  5  6  1  0  0  0
 12 13  2  0  0  0
 13 14  1  0  0  0
 14 15  2  0  0  0
 15 16  1  0  0  0
 16 17  2  0  0  0
 17 18  1  0  0  0
 18 19  2  0  0  0
 19 20  1  0  0  0
 20 21  2  0  0  0
 21 12  1  0  0  0
 21 16  1  0  0  0
  6  7  2  0  0  0
  6  8  1  0  0  0
  8  9  1  0  0  0
  8  2  1  0  0  0
  9 10  1  0  0  0
 10 22  1  0  0  0
 10 11  1  0  0  0
 22 23  2  0  0  0
 22 24  2  0  0  0
 22 25  1  0  0  0
 25 26  2  0  0  0
 26 27  1  0  0  0
 27 28  2  0  0  0
 28 29  1  0  0  0
 29 30  2  0  0  0
 30 25  1  0  0  0
 11  8  1  0  0  0
M  END
> <minimizedAffinity>
-7.60840

> <CNNscore>
0.2721121311

> <CNNaffinity>
5.3544635773

> <CNN_VS>
1.4570144415

> <CNNaffinity_variance>
0.0864110142

$$$$



 30 34  0  0  0  0  0  0  0  0999 V2000
   -9.1721    1.2582  -24.8351 C   0  0  0  0  0  0  0  0  0  0  0  0
   -8.3661    0.4073  -23.9679 N   0  0  0  0  0  0  0  0  0  0  0  0
   -8.0713    0.6880  -22.5821 C   0  0  0  0  0  0  0  0  0  0  0  0
   -8.7452    1.4645  -21.8248 O   0  0  0  0  0  0  0  0  0  0  0  0
   -6.9086   -0.0494  -22.2212 N   0  0  0  0  0  0  0  0  0  0  0  0
   -6.5135   -0.7668  -23.3908 C   0  0  0  0  0  0  0  0  0  0  0  0
   -5.3513   -1.2240  -23.5763 O   0  0  0  0  0  0  0  0  0  0  0  0
   -7.7112   -0.8293  -24.2499 C   0  0  0  0  0  0  0  0  0  0  0  0
   -7.4955   -1.1943  -25.6963 C   0  0  0  0  0  0  0  0  0  0  0  0
   -7.9043   -2.5337  -25.3590 N   0  0  0  0  0  0  0  0  0  0  0  0
   -8.5239   -2.0965  -24.0956 C   0  0  0  0  0  0  0  0  0  0  0  0
   -6.3097   -0.0303  -20.9324 C   0  0  0  0  0  0  0  0  0  0  0  0
   -6.8791   -0.7923  -19.9158 C   0  0  0  0  0  0  0  0  0  0  0  0
   -6.3319   -0.7929  -18.6839 N   0  0  0  0  0  0  0  0  0  0  0  0
   -5.2359   -0.0796  -18.3701 C   0  0  0  0  0  0  0  0  0  0  0  0
   -4.6275    0.6975  -19.3449 C   0  0  0  0  0  0  0  0  0  0  0  0
   -3.5043    1.4557  -19.1055 C   0  0  0  0  0  0  0  0  0  0  0  0
   -2.9208    2.2189  -20.0942 C   0  0  0  0  0  0  0  0  0  0  0  0
   -3.4769    2.2272  -21.3688 C   0  0  0  0  0  0  0  0  0  0  0  0
   -4.5926    1.4645  -21.5782 C   0  0  0  0  0  0  0  0  0  0  0  0
   -5.1961    0.6930  -20.6090 C   0  0  0  0  0  0  0  0  0  0  0  0
   -9.0788   -3.2316  -26.3817 S   0  0  0  0  0  0  0  0  0  0  0  0
  -10.4784   -3.0369  -25.8601 O   0  0  0  0  0  0  0  0  0  0  0  0
   -9.0610   -2.6272  -27.7556 O   0  0  0  0  0  0  0  0  0  0  0  0
   -8.8817   -4.9568  -26.5925 C   0  0  0  0  0  0  0  0  0  0  0  0
   -7.8721   -5.4287  -27.4062 C   0  0  0  0  0  0  0  0  0  0  0  0
   -7.6439   -6.7703  -27.6304 C   0  0  0  0  0  0  0  0  0  0  0  0
   -8.5003   -7.6546  -26.9821 C   0  0  0  0  0  0  0  0  0  0  0  0
   -9.5162   -7.1909  -26.1636 C   0  0  0  0  0  0  0  0  0  0  0  0
   -9.7190   -5.8304  -25.9588 C   0  0  0  0  0  0  0  0  0  0  0  0
  1  2  1  0  0  0
  2  3  1  0  0  0
  3  4  2  0  0  0
  3  5  1  0  0  0
  5 12  1  0  0  0
  5  6  1  0  0  0
 12 13  2  0  0  0
 13 14  1  0  0  0
 14 15  2  0  0  0
 15 16  1  0  0  0
 16 17  2  0  0  0
 17 18  1  0  0  0
 18 19  2  0  0  0
 19 20  1  0  0  0
 20 21  2  0  0  0
 21 12  1  0  0  0
 21 16  1  0  0  0
  6  7  2  0  0  0
  6  8  1  0  0  0
  8  9  1  0  0  0
  8  2  1  0  0  0
  9 10  1  0  0  0
 10 22  1  0  0  0
 10 11  1  0  0  0
 22 23  2  0  0  0
 22 24  2  0  0  0
 22 25  1  0  0  0
 25 26  2  0  0  0
 26 27  1  0  0  0
 27 28  2  0  0  0
 28 29  1  0  0  0
 29 30  2  0  0  0
 30 25  1  0  0  0
 11  8  1  0  0  0
M  END
> <minimizedAffinity>
-6.99039

> <CNNscore>
0.2704537809

> <CNNaffinity>
5.4333519936

> <CNN_VS>
1.4694706202

> <CNNaffinity_variance>
0.0586737208

$$$$



 30 34  0  0  0  0  0  0  0  0999 V2000
   -5.0146   -0.7538  -20.5367 C   0  0  0  0  0  0  0  0  0  0  0  0
   -6.0861   -0.5295  -21.4997 N   0  0  0  0  0  0  0  0  0  0  0  0
   -7.4739   -0.8643  -21.2801 C   0  0  0  0  0  0  0  0  0  0  0  0
   -8.0232   -1.0316  -20.1396 O   0  0  0  0  0  0  0  0  0  0  0  0
   -8.1072   -0.9716  -22.5502 N   0  0  0  0  0  0  0  0  0  0  0  0
   -7.0971   -0.7010  -23.5226 C   0  0  0  0  0  0  0  0  0  0  0  0
   -7.1719   -1.0562  -24.7318 O   0  0  0  0  0  0  0  0  0  0  0  0
   -6.0372    0.0366  -22.8091 C   0  0  0  0  0  0  0  0  0  0  0  0
   -4.6930    0.1242  -23.4852 C   0  0  0  0  0  0  0  0  0  0  0  0
   -5.0596    1.4497  -23.9135 N   0  0  0  0  0  0  0  0  0  0  0  0
   -6.1430    1.5422  -22.9192 C   0  0  0  0  0  0  0  0  0  0  0  0
   -9.4791   -1.2893  -22.7428 C   0  0  0  0  0  0  0  0  0  0  0  0
   -9.8820   -2.6179  -22.6380 C   0  0  0  0  0  0  0  0  0  0  0  0
  -11.1768   -2.9477  -22.8157 N   0  0  0  0  0  0  0  0  0  0  0  0
  -12.1303   -2.0419  -23.0967 C   0  0  0  0  0  0  0  0  0  0  0  0
  -11.7847   -0.7036  -23.2126 C   0  0  0  0  0  0  0  0  0  0  0  0
  -12.6993    0.2844  -23.4976 C   0  0  0  0  0  0  0  0  0  0  0  0
  -12.3268    1.6072  -23.6069 C   0  0  0  0  0  0  0  0  0  0  0  0
  -10.9937    1.9590  -23.4255 C   0  0  0  0  0  0  0  0  0  0  0  0
  -10.1068    0.9569  -23.1433 C   0  0  0  0  0  0  0  0  0  0  0  0
  -10.4513   -0.3723  -23.0285 C   0  0  0  0  0  0  0  0  0  0  0  0
   -3.8975    2.6682  -23.6352 S   0  0  0  0  0  0  0  0  0  0  0  0
   -2.9769    2.8586  -24.8120 O   0  0  0  0  0  0  0  0  0  0  0  0
   -4.5315    4.0055  -23.3845 O   0  0  0  0  0  0  0  0  0  0  0  0
   -2.8614    2.3418  -22.2642 C   0  0  0  0  0  0  0  0  0  0  0  0
   -1.5750    1.8916  -22.4796 C   0  0  0  0  0  0  0  0  0  0  0  0
   -0.6903    1.6085  -21.4600 C   0  0  0  0  0  0  0  0  0  0  0  0
   -1.1639    1.8018  -20.1661 C   0  0  0  0  0  0  0  0  0  0  0  0
   -2.4531    2.2532  -19.9397 C   0  0  0  0  0  0  0  0  0  0  0  0
   -3.3201    2.5295  -20.9914 C   0  0  0  0  0  0  0  0  0  0  0  0
  1  2  1  0  0  0
  2  3  1  0  0  0
  3  4  2  0  0  0
  3  5  1  0  0  0
  5 12  1  0  0  0
  5  6  1  0  0  0
 12 13  2  0  0  0
 13 14  1  0  0  0
 14 15  2  0  0  0
 15 16  1  0  0  0
 16 17  2  0  0  0
 17 18  1  0  0  0
 18 19  2  0  0  0
 19 20  1  0  0  0
 20 21  2  0  0  0
 21 12  1  0  0  0
 21 16  1  0  0  0
  6  7  2  0  0  0
  6  8  1  0  0  0
  8  9  1  0  0  0
  8  2  1  0  0  0
  9 10  1  0  0  0
 10 22  1  0  0  0
 10 11  1  0  0  0
 22 23  2  0  0  0
 22 24  2  0  0  0
 22 25  1  0  0  0
 25 26  2  0  0  0
 26 27  1  0  0  0
 27 28  2  0  0  0
 28 29  1  0  0  0
 29 30  2  0  0  0
 30 25  1  0  0  0
 11  8  1  0  0  0
M  END
> <minimizedAffinity>
-6.80343

> <CNNscore>
0.2304937989

> <CNNaffinity>
5.3625211716

> <CNN_VS>
1.2360278368

> <CNNaffinity_variance>
0.1234540120

$$$$



 30 34  0  0  0  0  0  0  0  0999 V2000
   -8.1846   -1.9629  -21.2808 C   0  0  0  0  0  0  0  0  0  0  0  0
   -8.9372   -1.2687  -22.3187 N   0  0  0  0  0  0  0  0  0  0  0  0
   -9.2629    0.1384  -22.2980 C   0  0  0  0  0  0  0  0  0  0  0  0
   -8.6511    1.0295  -21.6183 O   0  0  0  0  0  0  0  0  0  0  0  0
  -10.3748    0.3457  -23.1620 N   0  0  0  0  0  0  0  0  0  0  0  0
  -10.7090   -0.9362  -23.6949 C   0  0  0  0  0  0  0  0  0  0  0  0
  -11.8350   -1.2200  -24.1905 O   0  0  0  0  0  0  0  0  0  0  0  0
   -9.5024   -1.7689  -23.5303 C   0  0  0  0  0  0  0  0  0  0  0  0
   -9.6796   -3.2602  -23.6577 C   0  0  0  0  0  0  0  0  0  0  0  0
   -9.1819   -3.1459  -25.0045 N   0  0  0  0  0  0  0  0  0  0  0  0
   -8.6052   -1.8144  -24.7481 C   0  0  0  0  0  0  0  0  0  0  0  0
  -10.9849    1.6067  -23.4024 C   0  0  0  0  0  0  0  0  0  0  0  0
  -12.0593    1.9955  -22.6069 C   0  0  0  0  0  0  0  0  0  0  0  0
  -12.6568    3.1862  -22.8127 N   0  0  0  0  0  0  0  0  0  0  0  0
  -12.2643    4.0457  -23.7697 C   0  0  0  0  0  0  0  0  0  0  0  0
  -11.1987    3.7091  -24.5914 C   0  0  0  0  0  0  0  0  0  0  0  0
  -10.7358    4.5317  -25.5929 C   0  0  0  0  0  0  0  0  0  0  0  0
   -9.6741    4.1707  -26.3946 C   0  0  0  0  0  0  0  0  0  0  0  0
   -9.0501    2.9447  -26.1913 C   0  0  0  0  0  0  0  0  0  0  0  0
   -9.5308    2.1477  -25.1893 C   0  0  0  0  0  0  0  0  0  0  0  0
  -10.5895    2.4831  -24.3736 C   0  0  0  0  0  0  0  0  0  0  0  0
   -7.9529   -4.2477  -25.4382 S   0  0  0  0  0  0  0  0  0  0  0  0
   -8.4323   -5.2775  -26.4275 O   0  0  0  0  0  0  0  0  0  0  0  0
   -6.7846   -3.5632  -26.0862 O   0  0  0  0  0  0  0  0  0  0  0  0
   -7.3144   -5.1479  -24.0811 C   0  0  0  0  0  0  0  0  0  0  0  0
   -7.7379   -6.4439  -23.8686 C   0  0  0  0  0  0  0  0  0  0  0  0
   -7.2892   -7.2265  -22.8253 C   0  0  0  0  0  0  0  0  0  0  0  0
   -6.3637   -6.6364  -21.9703 C   0  0  0  0  0  0  0  0  0  0  0  0
   -5.9326   -5.3368  -22.1751 C   0  0  0  0  0  0  0  0  0  0  0  0
   -6.4055   -4.5746  -23.2379 C   0  0  0  0  0  0  0  0  0  0  0  0
  1  2  1  0  0  0
  2  3  1  0  0  0
  3  4  2  0  0  0
  3  5  1  0  0  0
  5 12  1  0  0  0
  5  6  1  0  0  0
 12 13  2  0  0  0
 13 14  1  0  0  0
 14 15  2  0  0  0
 15 16  1  0  0  0
 16 17  2  0  0  0
 17 18  1  0  0  0
 18 19  2  0  0  0
 19 20  1  0  0  0
 20 21  2  0  0  0
 21 12  1  0  0  0
 21 16  1  0  0  0
  6  7  2  0  0  0
  6  8  1  0  0  0
  8  9  1  0  0  0
  8  2  1  0  0  0
  9 10  1  0  0  0
 10 22  1  0  0  0
 10 11  1  0  0  0
 22 23  2  0  0  0
 22 24  2  0  0  0
 22 25  1  0  0  0
 25 26  2  0  0  0
 26 27  1  0  0  0
 27 28  2  0  0  0
 28 29  1  0  0  0
 29 30  2  0  0  0
 30 25  1  0  0  0
 11  8  1  0  0  0
M  END
> <minimizedAffinity>
-7.63670

> <CNNscore>
0.2098116577

> <CNNaffinity>
5.2781362534

> <CNN_VS>
1.1074144840

> <CNNaffinity_variance>
0.3245453537

$$$$



 30 34  0  0  0  0  0  0  0  0999 V2000
   -5.3163   -0.8646  -20.3787 C   0  0  0  0  0  0  0  0  0  0  0  0
   -5.5699    0.2282  -21.3099 N   0  0  0  0  0  0  0  0  0  0  0  0
   -6.8812    0.6639  -21.7306 C   0  0  0  0  0  0  0  0  0  0  0  0
   -7.9704    0.4475  -21.1003 O   0  0  0  0  0  0  0  0  0  0  0  0
   -6.7379    1.3687  -22.9589 N   0  0  0  0  0  0  0  0  0  0  0  0
   -5.3438    1.3515  -23.2671 C   0  0  0  0  0  0  0  0  0  0  0  0
   -4.8773    1.5389  -24.4254 O   0  0  0  0  0  0  0  0  0  0  0  0
   -4.6518    1.0818  -21.9925 C   0  0  0  0  0  0  0  0  0  0  0  0
   -3.2135    0.6394  -22.0769 C   0  0  0  0  0  0  0  0  0  0  0  0
   -2.8387    1.9961  -21.7709 N   0  0  0  0  0  0  0  0  0  0  0  0
   -4.1828    2.3221  -21.2630 C   0  0  0  0  0  0  0  0  0  0  0  0
   -7.8126    1.9504  -23.6847 C   0  0  0  0  0  0  0  0  0  0  0  0
   -8.5718    1.1405  -24.5250 C   0  0  0  0  0  0  0  0  0  0  0  0
   -9.5969    1.6657  -25.2252 N   0  0  0  0  0  0  0  0  0  0  0  0
   -9.9393    2.9644  -25.1576 C   0  0  0  0  0  0  0  0  0  0  0  0
   -9.2167    3.8169  -24.3359 C   0  0  0  0  0  0  0  0  0  0  0  0
   -9.5024    5.1573  -24.2106 C   0  0  0  0  0  0  0  0  0  0  0  0
   -8.7666    5.9811  -23.3858 C   0  0  0  0  0  0  0  0  0  0  0  0
   -7.7068    5.4501  -22.6587 C   0  0  0  0  0  0  0  0  0  0  0  0
   -7.4456    4.1153  -22.8025 C   0  0  0  0  0  0  0  0  0  0  0  0
   -8.1641    3.2694  -23.6192 C   0  0  0  0  0  0  0  0  0  0  0  0
   -1.6784    2.1851  -20.5337 S   0  0  0  0  0  0  0  0  0  0  0  0
   -2.2796    2.0407  -19.1603 O   0  0  0  0  0  0  0  0  0  0  0  0
   -0.5895    1.1555  -20.6197 O   0  0  0  0  0  0  0  0  0  0  0  0
   -0.8912    3.7471  -20.5504 C   0  0  0  0  0  0  0  0  0  0  0  0
    0.1920    3.9684  -19.7248 C   0  0  0  0  0  0  0  0  0  0  0  0
    0.8721    5.1671  -19.6716 C   0  0  0  0  0  0  0  0  0  0  0  0
    0.4059    6.1742  -20.5108 C   0  0  0  0  0  0  0  0  0  0  0  0
   -0.6802    5.9619  -21.3428 C   0  0  0  0  0  0  0  0  0  0  0  0
   -1.3439    4.7401  -21.3719 C   0  0  0  0  0  0  0  0  0  0  0  0
  1  2  1  0  0  0
  2  3  1  0  0  0
  3  4  2  0  0  0
  3  5  1  0  0  0
  5 12  1  0  0  0
  5  6  1  0  0  0
 12 13  2  0  0  0
 13 14  1  0  0  0
 14 15  2  0  0  0
 15 16  1  0  0  0
 16 17  2  0  0  0
 17 18  1  0  0  0
 18 19  2  0  0  0
 19 20  1  0  0  0
 20 21  2  0  0  0
 21 12  1  0  0  0
 21 16  1  0  0  0
  6  7  2  0  0  0
  6  8  1  0  0  0
  8  9  1  0  0  0
  8  2  1  0  0  0
  9 10  1  0  0  0
 10 22  1  0  0  0
 10 11  1  0  0  0
 22 23  2  0  0  0
 22 24  2  0  0  0
 22 25  1  0  0  0
 25 26  2  0  0  0
 26 27  1  0  0  0
 27 28  2  0  0  0
 28 29  1  0  0  0
 29 30  2  0  0  0
 30 25  1  0  0  0
 11  8  1  0  0  0
M  END
> <minimizedAffinity>
-6.50450

> <CNNscore>
0.1967175454

> <CNNaffinity>
5.0550680161

> <CNN_VS>
0.9944205880

> <CNNaffinity_variance>
0.1848106086

$$$$



 30 34  0  0  0  0  0  0  0  0999 V2000
   -5.7499   -4.3749  -21.4490 C   0  0  0  0  0  0  0  0  0  0  0  0
   -6.5429   -4.0504  -22.6286 N   0  0  0  0  0  0  0  0  0  0  0  0
   -7.2701   -5.0134  -23.4223 C   0  0  0  0  0  0  0  0  0  0  0  0
   -7.6424   -6.1688  -23.0259 O   0  0  0  0  0  0  0  0  0  0  0  0
   -7.4922   -4.4460  -24.7086 N   0  0  0  0  0  0  0  0  0  0  0  0
   -6.8978   -3.1480  -24.6789 C   0  0  0  0  0  0  0  0  0  0  0  0
   -6.5658   -2.5027  -25.7121 O   0  0  0  0  0  0  0  0  0  0  0  0
   -6.7829   -2.7892  -23.2525 C   0  0  0  0  0  0  0  0  0  0  0  0
   -5.8589   -1.6494  -22.9076 C   0  0  0  0  0  0  0  0  0  0  0  0
   -7.0237   -0.8059  -22.8273 N   0  0  0  0  0  0  0  0  0  0  0  0
   -7.9333   -1.9604  -22.7234 C   0  0  0  0  0  0  0  0  0  0  0  0
   -8.1781   -5.0972  -25.7696 C   0  0  0  0  0  0  0  0  0  0  0  0
   -9.5700   -5.0705  -25.7859 C   0  0  0  0  0  0  0  0  0  0  0  0
  -10.2463   -5.6797  -26.7801 N   0  0  0  0  0  0  0  0  0  0  0  0
   -9.6372   -6.3312  -27.7867 C   0  0  0  0  0  0  0  0  0  0  0  0
   -8.2517   -6.3891  -27.8201 C   0  0  0  0  0  0  0  0  0  0  0  0
   -7.5526   -7.0349  -28.8142 C   0  0  0  0  0  0  0  0  0  0  0  0
   -6.1747   -7.0763  -28.8216 C   0  0  0  0  0  0  0  0  0  0  0  0
   -5.4667   -6.4512  -27.8009 C   0  0  0  0  0  0  0  0  0  0  0  0
   -6.1870   -5.8171  -26.8265 C   0  0  0  0  0  0  0  0  0  0  0  0
   -7.5635   -5.7602  -26.7943 C   0  0  0  0  0  0  0  0  0  0  0  0
   -7.1419    0.1661  -21.4294 S   0  0  0  0  0  0  0  0  0  0  0  0
   -8.1512    1.2729  -21.5873 O   0  0  0  0  0  0  0  0  0  0  0  0
   -7.5768   -0.6231  -20.2289 O   0  0  0  0  0  0  0  0  0  0  0  0
   -5.6381    0.9473  -20.9957 C   0  0  0  0  0  0  0  0  0  0  0  0
   -4.9307    0.4941  -19.9010 C   0  0  0  0  0  0  0  0  0  0  0  0
   -3.7383    1.0496  -19.4861 C   0  0  0  0  0  0  0  0  0  0  0  0
   -3.2645    2.1183  -20.2406 C   0  0  0  0  0  0  0  0  0  0  0  0
   -3.9671    2.5802  -21.3406 C   0  0  0  0  0  0  0  0  0  0  0  0
   -5.1673    1.9970  -21.7321 C   0  0  0  0  0  0  0  0  0  0  0  0
  1  2  1  0  0  0
  2  3  1  0  0  0
  3  4  2  0  0  0
  3  5  1  0  0  0
  5 12  1  0  0  0
  5  6  1  0  0  0
 12 13  2  0  0  0
 13 14  1  0  0  0
 14 15  2  0  0  0
 15 16  1  0  0  0
 16 17  2  0  0  0
 17 18  1  0  0  0
 18 19  2  0  0  0
 19 20  1  0  0  0
 20 21  2  0  0  0
 21 12  1  0  0  0
 21 16  1  0  0  0
  6  7  2  0  0  0
  6  8  1  0  0  0
  8  9  1  0  0  0
  8  2  1  0  0  0
  9 10  1  0  0  0
 10 22  1  0  0  0
 10 11  1  0  0  0
 22 23  2  0  0  0
 22 24  2  0  0  0
 22 25  1  0  0  0
 25 26  2  0  0  0
 26 27  1  0  0  0
 27 28  2  0  0  0
 28 29  1  0  0  0
 29 30  2  0  0  0
 30 25  1  0  0  0
 11  8  1  0  0  0
M  END
> <minimizedAffinity>
-7.44101

> <CNNscore>
0.1907825619

> <CNNaffinity>
5.2225942612

> <CNN_VS>
0.9963799119

> <CNNaffinity_variance>
0.1159425974

$$$$



 45 51  0  0  0  0  0  0  0  0999 V2000
  -10.1603    2.1329  -24.9033 O   0  0  0  0  0  0  0  0  0  0  0  0
   -9.8475    1.0587  -24.3291 C   0  0  0  0  0  0  0  0  0  0  0  0
  -10.8178    0.1169  -23.7829 C   0  0  0  0  0  0  0  0  0  0  0  0
  -12.1430    0.4167  -23.9315 C   0  0  0  0  0  0  0  0  0  0  0  0
  -13.1256   -0.4278  -23.4675 C   0  0  0  0  0  0  0  0  0  0  0  0
  -12.7129   -1.5872  -22.8475 C   0  0  0  0  0  0  0  0  0  0  0  0
  -13.9321   -2.6837  -22.2461 Cl  0  0  0  0  0  0  0  0  0  0  0  0
  -11.3533   -1.8911  -22.6966 C   0  0  0  0  0  0  0  0  0  0  0  0
  -10.3651   -1.0482  -23.1593 C   0  0  0  0  0  0  0  0  0  0  0  0
   -8.9510   -1.3150  -23.0049 C   0  0  0  0  0  0  0  0  0  0  0  0
   -8.1900   -0.7310  -24.1583 C   0  0  0  0  0  0  0  0  0  0  0  0
   -8.4687    0.6983  -24.1793 N   0  0  0  0  0  0  0  0  0  0  0  0
   -8.5011   -0.4981  -21.8105 C   0  0  0  0  0  0  0  0  0  0  0  0
   -9.0529    0.5102  -21.3179 O   0  0  0  0  0  0  0  0  0  0  0  0
   -7.2857   -1.1019  -21.3209 N   0  0  0  0  0  0  0  0  0  0  0  0
   -7.1453   -2.3734  -21.9561 C   0  0  0  0  0  0  0  0  0  0  0  0
   -8.5202   -2.6509  -22.5888 C   0  0  0  0  0  0  0  0  0  0  0  0
   -6.3623   -0.5711  -20.3786 C   0  0  0  0  0  0  0  0  0  0  0  0
   -6.5462   -0.6395  -19.0134 C   0  0  0  0  0  0  0  0  0  0  0  0
   -5.6862   -0.1451  -18.1161 N   0  0  0  0  0  0  0  0  0  0  0  0
   -4.5741    0.4556  -18.5672 C   0  0  0  0  0  0  0  0  0  0  0  0
   -4.3296    0.5578  -19.9185 C   0  0  0  0  0  0  0  0  0  0  0  0
   -3.1508    1.1972  -20.2907 C   0  0  0  0  0  0  0  0  0  0  0  0
   -2.8655    1.3223  -21.6228 C   0  0  0  0  0  0  0  0  0  0  0  0
   -3.7440    0.8167  -22.5599 C   0  0  0  0  0  0  0  0  0  0  0  0
   -4.9142    0.1826  -22.1646 C   0  0  0  0  0  0  0  0  0  0  0  0
   -5.2171    0.0478  -20.8358 C   0  0  0  0  0  0  0  0  0  0  0  0
   -7.4350    1.7058  -24.0670 C   0  0  0  0  0  0  0  0  0  0  0  0
   -7.6148    2.5512  -22.8284 C   0  0  0  0  0  0  0  0  0  0  0  0
   -7.7551    3.9472  -23.0653 N   0  0  0  0  0  0  0  0  0  0  0  0
   -7.4506    4.3708  -24.4054 C   0  0  0  0  0  0  0  0  0  0  0  0
   -7.4301    5.8878  -24.4079 C   0  0  0  0  0  0  0  0  0  0  0  0
   -6.2649    6.3421  -23.8103 O   0  0  0  0  0  0  0  0  0  0  0  0
   -5.7918    5.4290  -22.8982 C   0  0  0  0  0  0  0  0  0  0  0  0
   -6.9010    4.6989  -22.1673 C   0  0  0  0  0  0  0  0  0  0  0  0
   -8.7453    4.1321  -22.9046 H   0  0  0  0  0  0  0  0  0  0  0  0
   -8.2195   -3.6160  -23.7019 C   0  0  0  0  0  0  0  0  0  0  0  0
   -8.1398   -4.9362  -23.1021 N   0  0  0  0  0  0  0  0  0  0  0  0
   -8.8818   -5.2800  -22.5540 H   0  0  0  0  0  0  0  0  0  0  0  0
   -6.9722   -5.7297  -23.3170 C   0  0  0  0  0  0  0  0  0  0  0  0
   -6.8506   -6.2984  -24.5299 N   0  0  0  0  0  0  0  0  0  0  0  0
   -5.7752   -7.0569  -24.7953 C   0  0  0  0  0  0  0  0  0  0  0  0
   -4.7783   -7.2836  -23.8747 C   0  0  0  0  0  0  0  0  0  0  0  0
   -4.9320   -6.6837  -22.6331 C   0  0  0  0  0  0  0  0  0  0  0  0
   -6.0263   -5.9291  -22.4050 N   0  0  0  0  0  0  0  0  0  0  0  0
  1  2  2  0  0  0
  2  3  1  0  0  0
  3  4  2  0  0  0
  4  5  1  0  0  0
  5  6  2  0  0  0
  6  7  1  0  0  0
  6  8  1  0  0  0
  8  9  2  0  0  0
  9  3  1  0  0  0
 10  9  1  0  0  0
 10 11  1  0  0  0
 10 13  1  0  0  0
 11 12  1  0  0  0
 12 28  1  0  0  0
 12  2  1  0  0  0
 28 29  1  0  0  0
 29 30  1  0  0  0
 30 31  1  0  0  0
 30 36  1  0  0  0
 31 32  1  0  0  0
 32 33  1  0  0  0
 33 34  1  0  0  0
 34 35  1  0  0  0
 35 30  1  0  0  0
 13 14  2  0  0  0
 13 15  1  0  0  0
 15 18  1  0  0  0
 15 16  1  0  0  0
 18 19  2  0  0  0
 19 20  1  0  0  0
 20 21  2  0  0  0
 21 22  1  0  0  0
 22 23  2  0  0  0
 23 24  1  0  0  0
 24 25  2  0  0  0
 25 26  1  0  0  0
 26 27  2  0  0  0
 27 18  1  0  0  0
 27 22  1  0  0  0
 16 17  1  0  0  0
 17 37  1  0  0  0
 17 10  1  0  0  0
 37 38  1  0  0  0
 38 40  1  0  0  0
 38 39  1  0  0  0
 40 41  2  0  0  0
 41 42  1  0  0  0
 42 43  2  0  0  0
 43 44  1  0  0  0
 44 45  2  0  0  0
 45 40  1  0  0  0
M  CHG 1  30   1
M  END
> <minimizedAffinity>
-9.52680

> <CNNscore>
0.8338806033

> <CNNaffinity>
7.3642072678

> <CNN_VS>
6.1408696175

> <CNNaffinity_variance>
0.1548659354

$$$$



 45 51  0  0  0  0  0  0  0  0999 V2000
  -10.0261    2.0850  -24.8630 O   0  0  0  0  0  0  0  0  0  0  0  0
   -9.6905    1.0181  -24.2882 C   0  0  0  0  0  0  0  0  0  0  0  0
  -10.6408    0.0441  -23.7637 C   0  0  0  0  0  0  0  0  0  0  0  0
  -11.9718    0.3037  -23.9347 C   0  0  0  0  0  0  0  0  0  0  0  0
  -12.9359   -0.5731  -23.4921 C   0  0  0  0  0  0  0  0  0  0  0  0
  -12.4986   -1.7223  -22.8700 C   0  0  0  0  0  0  0  0  0  0  0  0
  -13.6939   -2.8589  -22.2955 Cl  0  0  0  0  0  0  0  0  0  0  0  0
  -11.1332   -1.9849  -22.6963 C   0  0  0  0  0  0  0  0  0  0  0  0
  -10.1634   -1.1097  -23.1373 C   0  0  0  0  0  0  0  0  0  0  0  0
   -8.7447   -1.3336  -22.9588 C   0  0  0  0  0  0  0  0  0  0  0  0
   -7.9818   -0.7206  -24.0958 C   0  0  0  0  0  0  0  0  0  0  0  0
   -8.3041    0.6996  -24.1153 N   0  0  0  0  0  0  0  0  0  0  0  0
   -8.3416   -0.5093  -21.7529 C   0  0  0  0  0  0  0  0  0  0  0  0
   -8.9330    0.4790  -21.2657 O   0  0  0  0  0  0  0  0  0  0  0  0
   -7.1170   -1.0778  -21.2444 N   0  0  0  0  0  0  0  0  0  0  0  0
   -6.9262   -2.3412  -21.8826 C   0  0  0  0  0  0  0  0  0  0  0  0
   -8.2803   -2.6577  -22.5411 C   0  0  0  0  0  0  0  0  0  0  0  0
   -6.2274   -0.5235  -20.2832 C   0  0  0  0  0  0  0  0  0  0  0  0
   -6.4262   -0.6163  -18.9216 C   0  0  0  0  0  0  0  0  0  0  0  0
   -5.5978   -0.1004  -18.0069 N   0  0  0  0  0  0  0  0  0  0  0  0
   -4.5042    0.5487  -18.4356 C   0  0  0  0  0  0  0  0  0  0  0  0
   -4.2463    0.6774  -19.7821 C   0  0  0  0  0  0  0  0  0  0  0  0
   -3.0886    1.3667  -20.1305 C   0  0  0  0  0  0  0  0  0  0  0  0
   -2.7910    1.5196  -21.4571 C   0  0  0  0  0  0  0  0  0  0  0  0
   -3.6369    0.9923  -22.4120 C   0  0  0  0  0  0  0  0  0  0  0  0
   -4.7866    0.3083  -22.0402 C   0  0  0  0  0  0  0  0  0  0  0  0
   -5.1012    0.1450  -20.7174 C   0  0  0  0  0  0  0  0  0  0  0  0
   -7.3041    1.7378  -23.9800 C   0  0  0  0  0  0  0  0  0  0  0  0
   -6.5851    1.9904  -25.2840 C   0  0  0  0  0  0  0  0  0  0  0  0
   -6.2729    3.3534  -25.5473 N   0  0  0  0  0  0  0  0  0  0  0  0
   -6.0205    4.1562  -24.3812 C   0  0  0  0  0  0  0  0  0  0  0  0
   -5.9371    5.6016  -24.8349 C   0  0  0  0  0  0  0  0  0  0  0  0
   -7.2085    6.0815  -25.1077 O   0  0  0  0  0  0  0  0  0  0  0  0
   -8.0506    5.0604  -25.4788 C   0  0  0  0  0  0  0  0  0  0  0  0
   -7.3503    3.9838  -26.2840 C   0  0  0  0  0  0  0  0  0  0  0  0
   -5.4065    3.3146  -26.0842 H   0  0  0  0  0  0  0  0  0  0  0  0
   -7.9302   -3.6073  -23.6530 C   0  0  0  0  0  0  0  0  0  0  0  0
   -9.1479   -4.3222  -23.9928 N   0  0  0  0  0  0  0  0  0  0  0  0
   -9.9009   -4.3528  -23.3593 H   0  0  0  0  0  0  0  0  0  0  0  0
   -9.2399   -4.9803  -25.2568 C   0  0  0  0  0  0  0  0  0  0  0  0
   -8.8777   -6.2754  -25.2843 N   0  0  0  0  0  0  0  0  0  0  0  0
   -8.9414   -6.9511  -26.4426 C   0  0  0  0  0  0  0  0  0  0  0  0
   -9.3647   -6.3755  -27.6182 C   0  0  0  0  0  0  0  0  0  0  0  0
   -9.7315   -5.0387  -27.5578 C   0  0  0  0  0  0  0  0  0  0  0  0
   -9.6536   -4.3944  -26.3755 N   0  0  0  0  0  0  0  0  0  0  0  0
  1  2  2  0  0  0
  2  3  1  0  0  0
  3  4  2  0  0  0
  4  5  1  0  0  0
  5  6  2  0  0  0
  6  7  1  0  0  0
  6  8  1  0  0  0
  8  9  2  0  0  0
  9  3  1  0  0  0
 10  9  1  0  0  0
 10 11  1  0  0  0
 10 13  1  0  0  0
 11 12  1  0  0  0
 12 28  1  0  0  0
 12  2  1  0  0  0
 28 29  1  0  0  0
 29 30  1  0  0  0
 30 31  1  0  0  0
 30 36  1  0  0  0
 31 32  1  0  0  0
 32 33  1  0  0  0
 33 34  1  0  0  0
 34 35  1  0  0  0
 35 30  1  0  0  0
 13 14  2  0  0  0
 13 15  1  0  0  0
 15 18  1  0  0  0
 15 16  1  0  0  0
 18 19  2  0  0  0
 19 20  1  0  0  0
 20 21  2  0  0  0
 21 22  1  0  0  0
 22 23  2  0  0  0
 23 24  1  0  0  0
 24 25  2  0  0  0
 25 26  1  0  0  0
 26 27  2  0  0  0
 27 18  1  0  0  0
 27 22  1  0  0  0
 16 17  1  0  0  0
 17 37  1  0  0  0
 17 10  1  0  0  0
 37 38  1  0  0  0
 38 40  1  0  0  0
 38 39  1  0  0  0
 40 41  2  0  0  0
 41 42  1  0  0  0
 42 43  2  0  0  0
 43 44  1  0  0  0
 44 45  2  0  0  0
 45 40  1  0  0  0
M  CHG 1  30   1
M  END
> <minimizedAffinity>
-8.96235

> <CNNscore>
0.8085041046

> <CNNaffinity>
7.2115120888

> <CNN_VS>
5.8305373192

> <CNNaffinity_variance>
0.1377683580

$$$$



 45 51  0  0  0  0  0  0  0  0999 V2000
   -5.5454   -2.2777  -20.5050 O   0  0  0  0  0  0  0  0  0  0  0  0
   -5.8276   -1.4446  -21.4037 C   0  0  0  0  0  0  0  0  0  0  0  0
   -5.1867   -0.1410  -21.5334 C   0  0  0  0  0  0  0  0  0  0  0  0
   -4.2054    0.1734  -20.6353 C   0  0  0  0  0  0  0  0  0  0  0  0
   -3.5321    1.3720  -20.6994 C   0  0  0  0  0  0  0  0  0  0  0  0
   -3.8921    2.2389  -21.7084 C   0  0  0  0  0  0  0  0  0  0  0  0
   -3.0589    3.7697  -21.8213 Cl  0  0  0  0  0  0  0  0  0  0  0  0
   -4.8989    1.9132  -22.6270 C   0  0  0  0  0  0  0  0  0  0  0  0
   -5.5767    0.7140  -22.5669 C   0  0  0  0  0  0  0  0  0  0  0  0
   -6.6362    0.3487  -23.4827 C   0  0  0  0  0  0  0  0  0  0  0  0
   -6.6478   -1.1375  -23.6868 C   0  0  0  0  0  0  0  0  0  0  0  0
   -6.8320   -1.7509  -22.3788 N   0  0  0  0  0  0  0  0  0  0  0  0
   -7.9336    0.6344  -22.7537 C   0  0  0  0  0  0  0  0  0  0  0  0
   -8.1155    0.7352  -21.5206 O   0  0  0  0  0  0  0  0  0  0  0  0
   -8.9591    0.7753  -23.7586 N   0  0  0  0  0  0  0  0  0  0  0  0
   -8.3128    0.8794  -25.0280 C   0  0  0  0  0  0  0  0  0  0  0  0
   -6.8339    1.1442  -24.6958 C   0  0  0  0  0  0  0  0  0  0  0  0
  -10.3685    0.8108  -23.5722 C   0  0  0  0  0  0  0  0  0  0  0  0
  -11.1094    1.9737  -23.5999 C   0  0  0  0  0  0  0  0  0  0  0  0
  -12.4349    2.0216  -23.4267 N   0  0  0  0  0  0  0  0  0  0  0  0
  -13.0888    0.8694  -23.2123 C   0  0  0  0  0  0  0  0  0  0  0  0
  -12.4089   -0.3274  -23.1725 C   0  0  0  0  0  0  0  0  0  0  0  0
  -13.1716   -1.4689  -22.9446 C   0  0  0  0  0  0  0  0  0  0  0  0
  -12.5391   -2.6811  -22.8967 C   0  0  0  0  0  0  0  0  0  0  0  0
  -11.1717   -2.7454  -23.0740 C   0  0  0  0  0  0  0  0  0  0  0  0
  -10.4314   -1.5927  -23.3001 C   0  0  0  0  0  0  0  0  0  0  0  0
  -11.0467   -0.3703  -23.3513 C   0  0  0  0  0  0  0  0  0  0  0  0
   -7.9443   -2.6232  -22.0656 C   0  0  0  0  0  0  0  0  0  0  0  0
   -7.9472   -3.8555  -22.9389 C   0  0  0  0  0  0  0  0  0  0  0  0
   -6.7891   -4.6753  -22.8305 N   0  0  0  0  0  0  0  0  0  0  0  0
   -6.1850   -5.0437  -24.0824 C   0  0  0  0  0  0  0  0  0  0  0  0
   -5.1245   -6.0870  -23.7845 C   0  0  0  0  0  0  0  0  0  0  0  0
   -5.7279   -7.3053  -23.5146 O   0  0  0  0  0  0  0  0  0  0  0  0
   -6.9930   -7.1259  -23.0077 C   0  0  0  0  0  0  0  0  0  0  0  0
   -7.1036   -5.9004  -22.1225 C   0  0  0  0  0  0  0  0  0  0  0  0
   -6.1171   -4.0971  -22.3260 H   0  0  0  0  0  0  0  0  0  0  0  0
   -6.0966    0.6673  -25.9164 C   0  0  0  0  0  0  0  0  0  0  0  0
   -7.0874    0.0834  -26.8032 N   0  0  0  0  0  0  0  0  0  0  0  0
   -7.7540    0.6537  -27.2499 H   0  0  0  0  0  0  0  0  0  0  0  0
   -7.0831   -1.3281  -27.0196 C   0  0  0  0  0  0  0  0  0  0  0  0
   -5.9119   -1.8717  -27.3966 N   0  0  0  0  0  0  0  0  0  0  0  0
   -5.8415   -3.1942  -27.6161 C   0  0  0  0  0  0  0  0  0  0  0  0
   -6.9235   -4.0315  -27.4722 C   0  0  0  0  0  0  0  0  0  0  0  0
   -8.1173   -3.4415  -27.0824 C   0  0  0  0  0  0  0  0  0  0  0  0
   -8.1476   -2.1097  -26.8716 N   0  0  0  0  0  0  0  0  0  0  0  0
  1  2  2  0  0  0
  2  3  1  0  0  0
  3  4  2  0  0  0
  4  5  1  0  0  0
  5  6  2  0  0  0
  6  7  1  0  0  0
  6  8  1  0  0  0
  8  9  2  0  0  0
  9  3  1  0  0  0
 10  9  1  0  0  0
 10 11  1  0  0  0
 10 13  1  0  0  0
 11 12  1  0  0  0
 12 28  1  0  0  0
 12  2  1  0  0  0
 28 29  1  0  0  0
 29 30  1  0  0  0
 30 31  1  0  0  0
 30 36  1  0  0  0
 31 32  1  0  0  0
 32 33  1  0  0  0
 33 34  1  0  0  0
 34 35  1  0  0  0
 35 30  1  0  0  0
 13 14  2  0  0  0
 13 15  1  0  0  0
 15 18  1  0  0  0
 15 16  1  0  0  0
 18 19  2  0  0  0
 19 20  1  0  0  0
 20 21  2  0  0  0
 21 22  1  0  0  0
 22 23  2  0  0  0
 23 24  1  0  0  0
 24 25  2  0  0  0
 25 26  1  0  0  0
 26 27  2  0  0  0
 27 18  1  0  0  0
 27 22  1  0  0  0
 16 17  1  0  0  0
 17 37  1  0  0  0
 17 10  1  0  0  0
 37 38  1  0  0  0
 38 40  1  0  0  0
 38 39  1  0  0  0
 40 41  2  0  0  0
 41 42  1  0  0  0
 42 43  2  0  0  0
 43 44  1  0  0  0
 44 45  2  0  0  0
 45 40  1  0  0  0
M  CHG 1  30   1
M  END
> <minimizedAffinity>
-7.57163

> <CNNscore>
0.2424041331

> <CNNaffinity>
6.5321550369

> <CNN_VS>
1.5834213495

> <CNNaffinity_variance>
0.3317476809

$$$$



 45 51  0  0  0  0  0  0  0  0999 V2000
   -5.2198   -0.9601  -27.8197 O   0  0  0  0  0  0  0  0  0  0  0  0
   -5.7264   -1.4067  -26.7589 C   0  0  0  0  0  0  0  0  0  0  0  0
   -5.9339   -2.8254  -26.4921 C   0  0  0  0  0  0  0  0  0  0  0  0
   -5.5271   -3.7146  -27.4472 C   0  0  0  0  0  0  0  0  0  0  0  0
   -5.6631   -5.0723  -27.2671 C   0  0  0  0  0  0  0  0  0  0  0  0
   -6.2271   -5.4931  -26.0822 C   0  0  0  0  0  0  0  0  0  0  0  0
   -6.4152   -7.2093  -25.8184 Cl  0  0  0  0  0  0  0  0  0  0  0  0
   -6.6432   -4.5785  -25.1056 C   0  0  0  0  0  0  0  0  0  0  0  0
   -6.5097   -3.2175  -25.2813 C   0  0  0  0  0  0  0  0  0  0  0  0
   -6.9456   -2.2399  -24.3071 C   0  0  0  0  0  0  0  0  0  0  0  0
   -6.0635   -1.0278  -24.3668 C   0  0  0  0  0  0  0  0  0  0  0  0
   -6.1397   -0.5056  -25.7242 N   0  0  0  0  0  0  0  0  0  0  0  0
   -8.2934   -1.7434  -24.7898 C   0  0  0  0  0  0  0  0  0  0  0  0
   -8.7591   -1.7911  -25.9495 O   0  0  0  0  0  0  0  0  0  0  0  0
   -8.9721   -1.1868  -23.6448 N   0  0  0  0  0  0  0  0  0  0  0  0
   -8.2472   -1.5770  -22.4776 C   0  0  0  0  0  0  0  0  0  0  0  0
   -7.2964   -2.6873  -22.9580 C   0  0  0  0  0  0  0  0  0  0  0  0
  -10.1499   -0.3901  -23.6270 C   0  0  0  0  0  0  0  0  0  0  0  0
  -10.1651    0.9506  -23.9500 C   0  0  0  0  0  0  0  0  0  0  0  0
  -11.2651    1.7115  -23.9379 N   0  0  0  0  0  0  0  0  0  0  0  0
  -12.4284    1.1395  -23.5908 C   0  0  0  0  0  0  0  0  0  0  0  0
  -12.4830   -0.1953  -23.2567 C   0  0  0  0  0  0  0  0  0  0  0  0
  -13.7331   -0.6993  -22.9104 C   0  0  0  0  0  0  0  0  0  0  0  0
  -13.8360   -2.0206  -22.5709 C   0  0  0  0  0  0  0  0  0  0  0  0
  -12.7090   -2.8177  -22.5792 C   0  0  0  0  0  0  0  0  0  0  0  0
  -11.4720   -2.2923  -22.9282 C   0  0  0  0  0  0  0  0  0  0  0  0
  -11.3491   -0.9721  -23.2710 C   0  0  0  0  0  0  0  0  0  0  0  0
   -6.5912    0.8356  -26.0297 C   0  0  0  0  0  0  0  0  0  0  0  0
   -5.5743    1.8725  -25.6151 C   0  0  0  0  0  0  0  0  0  0  0  0
   -6.1043    2.9916  -24.9141 N   0  0  0  0  0  0  0  0  0  0  0  0
   -6.9296    2.6656  -23.7824 C   0  0  0  0  0  0  0  0  0  0  0  0
   -7.5812    3.9520  -23.3108 C   0  0  0  0  0  0  0  0  0  0  0  0
   -8.6029    4.3057  -24.1782 O   0  0  0  0  0  0  0  0  0  0  0  0
   -8.3667    3.8173  -25.4412 C   0  0  0  0  0  0  0  0  0  0  0  0
   -6.8955    3.8160  -25.8058 C   0  0  0  0  0  0  0  0  0  0  0  0
   -5.2818    3.4805  -24.5608 H   0  0  0  0  0  0  0  0  0  0  0  0
   -6.1785   -2.6682  -21.9526 C   0  0  0  0  0  0  0  0  0  0  0  0
   -6.6089   -1.8094  -20.8634 N   0  0  0  0  0  0  0  0  0  0  0  0
   -7.5210   -1.8842  -20.5005 H   0  0  0  0  0  0  0  0  0  0  0  0
   -5.6932   -0.8551  -20.3249 C   0  0  0  0  0  0  0  0  0  0  0  0
   -5.7855   -0.6169  -19.0043 N   0  0  0  0  0  0  0  0  0  0  0  0
   -4.9527    0.2699  -18.4366 C   0  0  0  0  0  0  0  0  0  0  0  0
   -3.9969    0.9559  -19.1496 C   0  0  0  0  0  0  0  0  0  0  0  0
   -3.9262    0.6887  -20.5093 C   0  0  0  0  0  0  0  0  0  0  0  0
   -4.7802   -0.2087  -21.0423 N   0  0  0  0  0  0  0  0  0  0  0  0
  1  2  2  0  0  0
  2  3  1  0  0  0
  3  4  2  0  0  0
  4  5  1  0  0  0
  5  6  2  0  0  0
  6  7  1  0  0  0
  6  8  1  0  0  0
  8  9  2  0  0  0
  9  3  1  0  0  0
 10  9  1  0  0  0
 10 11  1  0  0  0
 10 13  1  0  0  0
 11 12  1  0  0  0
 12 28  1  0  0  0
 12  2  1  0  0  0
 28 29  1  0  0  0
 29 30  1  0  0  0
 30 31  1  0  0  0
 30 36  1  0  0  0
 31 32  1  0  0  0
 32 33  1  0  0  0
 33 34  1  0  0  0
 34 35  1  0  0  0
 35 30  1  0  0  0
 13 14  2  0  0  0
 13 15  1  0  0  0
 15 18  1  0  0  0
 15 16  1  0  0  0
 18 19  2  0  0  0
 19 20  1  0  0  0
 20 21  2  0  0  0
 21 22  1  0  0  0
 22 23  2  0  0  0
 23 24  1  0  0  0
 24 25  2  0  0  0
 25 26  1  0  0  0
 26 27  2  0  0  0
 27 18  1  0  0  0
 27 22  1  0  0  0
 16 17  1  0  0  0
 17 37  1  0  0  0
 17 10  1  0  0  0
 37 38  1  0  0  0
 38 40  1  0  0  0
 38 39  1  0  0  0
 40 41  2  0  0  0
 41 42  1  0  0  0
 42 43  2  0  0  0
 43 44  1  0  0  0
 44 45  2  0  0  0
 45 40  1  0  0  0
M  CHG 1  30   1
M  END
> <minimizedAffinity>
-7.33561

> <CNNscore>
0.2016354799

> <CNNaffinity>
6.3672509193

> <CNN_VS>
1.2838636637

> <CNNaffinity_variance>
0.3402012289

$$$$



 45 51  0  0  0  0  0  0  0  0999 V2000
   -5.3869   -2.2068  -20.8051 O   0  0  0  0  0  0  0  0  0  0  0  0
   -5.6794   -1.2715  -21.5931 C   0  0  0  0  0  0  0  0  0  0  0  0
   -5.0745    0.0544  -21.5405 C   0  0  0  0  0  0  0  0  0  0  0  0
   -4.1162    0.2751  -20.5911 C   0  0  0  0  0  0  0  0  0  0  0  0
   -3.4768    1.4894  -20.4865 C   0  0  0  0  0  0  0  0  0  0  0  0
   -3.8464    2.4704  -21.3809 C   0  0  0  0  0  0  0  0  0  0  0  0
   -3.0560    4.0245  -21.2786 Cl  0  0  0  0  0  0  0  0  0  0  0  0
   -4.8295    2.2406  -22.3526 C   0  0  0  0  0  0  0  0  0  0  0  0
   -5.4733    1.0262  -22.4613 C   0  0  0  0  0  0  0  0  0  0  0  0
   -6.5080    0.7553  -23.4364 C   0  0  0  0  0  0  0  0  0  0  0  0
   -6.4738   -0.6915  -23.8319 C   0  0  0  0  0  0  0  0  0  0  0  0
   -6.6599   -1.4747  -22.6183 N   0  0  0  0  0  0  0  0  0  0  0  0
   -7.8239    0.9090  -22.7008 C   0  0  0  0  0  0  0  0  0  0  0  0
   -8.0271    0.8433  -21.4687 O   0  0  0  0  0  0  0  0  0  0  0  0
   -8.8378    1.1523  -23.6979 N   0  0  0  0  0  0  0  0  0  0  0  0
   -8.1757    1.4380  -24.9307 C   0  0  0  0  0  0  0  0  0  0  0  0
   -6.7103    1.6964  -24.5394 C   0  0  0  0  0  0  0  0  0  0  0  0
  -10.2503    1.1257  -23.5347 C   0  0  0  0  0  0  0  0  0  0  0  0
  -11.0346    2.2600  -23.5183 C   0  0  0  0  0  0  0  0  0  0  0  0
  -12.3635    2.2496  -23.3662 N   0  0  0  0  0  0  0  0  0  0  0  0
  -12.9761    1.0645  -23.2202 C   0  0  0  0  0  0  0  0  0  0  0  0
  -12.2517   -0.1065  -23.2274 C   0  0  0  0  0  0  0  0  0  0  0  0
  -12.9737   -1.2857  -23.0692 C   0  0  0  0  0  0  0  0  0  0  0  0
  -12.2962   -2.4742  -23.0699 C   0  0  0  0  0  0  0  0  0  0  0  0
  -10.9246   -2.4785  -23.2260 C   0  0  0  0  0  0  0  0  0  0  0  0
  -10.2255   -1.2891  -23.3822 C   0  0  0  0  0  0  0  0  0  0  0  0
  -10.8862   -0.0895  -23.3841 C   0  0  0  0  0  0  0  0  0  0  0  0
   -7.7511   -2.4097  -22.4418 C   0  0  0  0  0  0  0  0  0  0  0  0
   -7.6676   -3.5535  -23.4246 C   0  0  0  0  0  0  0  0  0  0  0  0
   -7.6187   -4.8498  -22.8399 N   0  0  0  0  0  0  0  0  0  0  0  0
   -6.3379   -5.2295  -22.3076 C   0  0  0  0  0  0  0  0  0  0  0  0
   -6.4158   -6.7003  -21.9440 C   0  0  0  0  0  0  0  0  0  0  0  0
   -6.3641   -7.4713  -23.0947 O   0  0  0  0  0  0  0  0  0  0  0  0
   -6.8528   -6.7758  -24.1750 C   0  0  0  0  0  0  0  0  0  0  0  0
   -8.0009   -5.8553  -23.8114 C   0  0  0  0  0  0  0  0  0  0  0  0
   -8.2710   -4.7984  -22.0575 H   0  0  0  0  0  0  0  0  0  0  0  0
   -5.9413    1.4024  -25.7976 C   0  0  0  0  0  0  0  0  0  0  0  0
   -4.9446    2.4499  -25.9343 N   0  0  0  0  0  0  0  0  0  0  0  0
   -4.1565    2.4677  -25.3446 H   0  0  0  0  0  0  0  0  0  0  0  0
   -5.1216    3.4538  -26.9343 C   0  0  0  0  0  0  0  0  0  0  0  0
   -6.2440    4.1903  -26.8501 N   0  0  0  0  0  0  0  0  0  0  0  0
   -6.4696    5.1508  -27.7606 C   0  0  0  0  0  0  0  0  0  0  0  0
   -5.5970    5.4218  -28.7889 C   0  0  0  0  0  0  0  0  0  0  0  0
   -4.4485    4.6456  -28.8491 C   0  0  0  0  0  0  0  0  0  0  0  0
   -4.2578    3.6905  -27.9161 N   0  0  0  0  0  0  0  0  0  0  0  0
  1  2  2  0  0  0
  2  3  1  0  0  0
  3  4  2  0  0  0
  4  5  1  0  0  0
  5  6  2  0  0  0
  6  7  1  0  0  0
  6  8  1  0  0  0
  8  9  2  0  0  0
  9  3  1  0  0  0
 10  9  1  0  0  0
 10 11  1  0  0  0
 10 13  1  0  0  0
 11 12  1  0  0  0
 12 28  1  0  0  0
 12  2  1  0  0  0
 28 29  1  0  0  0
 29 30  1  0  0  0
 30 31  1  0  0  0
 30 36  1  0  0  0
 31 32  1  0  0  0
 32 33  1  0  0  0
 33 34  1  0  0  0
 34 35  1  0  0  0
 35 30  1  0  0  0
 13 14  2  0  0  0
 13 15  1  0  0  0
 15 18  1  0  0  0
 15 16  1  0  0  0
 18 19  2  0  0  0
 19 20  1  0  0  0
 20 21  2  0  0  0
 21 22  1  0  0  0
 22 23  2  0  0  0
 23 24  1  0  0  0
 24 25  2  0  0  0
 25 26  1  0  0  0
 26 27  2  0  0  0
 27 18  1  0  0  0
 27 22  1  0  0  0
 16 17  1  0  0  0
 17 37  1  0  0  0
 17 10  1  0  0  0
 37 38  1  0  0  0
 38 40  1  0  0  0
 38 39  1  0  0  0
 40 41  2  0  0  0
 41 42  1  0  0  0
 42 43  2  0  0  0
 43 44  1  0  0  0
 44 45  2  0  0  0
 45 40  1  0  0  0
M  CHG 1  30   1
M  END
> <minimizedAffinity>
-7.16868

> <CNNscore>
0.1809403598

> <CNNaffinity>
6.5814032555

> <CNN_VS>
1.1908414364

> <CNNaffinity_variance>
0.0645762682

$$$$



 45 51  0  0  0  0  0  0  0  0999 V2000
   -6.2584   -2.2643  -20.4257 O   0  0  0  0  0  0  0  0  0  0  0  0
   -6.3117   -1.3428  -21.2797 C   0  0  0  0  0  0  0  0  0  0  0  0
   -5.4736   -0.1500  -21.2413 C   0  0  0  0  0  0  0  0  0  0  0  0
   -4.5623   -0.0498  -20.2275 C   0  0  0  0  0  0  0  0  0  0  0  0
   -3.7152    1.0304  -20.1291 C   0  0  0  0  0  0  0  0  0  0  0  0
   -3.8277    2.0043  -21.0976 C   0  0  0  0  0  0  0  0  0  0  0  0
   -2.7685    3.3899  -21.0054 Cl  0  0  0  0  0  0  0  0  0  0  0  0
   -4.7633    1.8982  -22.1353 C   0  0  0  0  0  0  0  0  0  0  0  0
   -5.6145    0.8185  -22.2381 C   0  0  0  0  0  0  0  0  0  0  0  0
   -6.6082    0.6814  -23.2815 C   0  0  0  0  0  0  0  0  0  0  0  0
   -6.8183   -0.7690  -23.6022 C   0  0  0  0  0  0  0  0  0  0  0  0
   -7.2360   -1.4266  -22.3717 N   0  0  0  0  0  0  0  0  0  0  0  0
   -7.9215    1.1204  -22.6660 C   0  0  0  0  0  0  0  0  0  0  0  0
   -8.2223    1.1711  -21.4532 O   0  0  0  0  0  0  0  0  0  0  0  0
   -8.7965    1.4825  -23.7543 N   0  0  0  0  0  0  0  0  0  0  0  0
   -8.0048    1.5634  -24.9404 C   0  0  0  0  0  0  0  0  0  0  0  0
   -6.5492    1.5722  -24.4417 C   0  0  0  0  0  0  0  0  0  0  0  0
  -10.1968    1.7263  -23.7080 C   0  0  0  0  0  0  0  0  0  0  0  0
  -10.7497    2.9892  -23.7465 C   0  0  0  0  0  0  0  0  0  0  0  0
  -12.0643    3.2329  -23.7041 N   0  0  0  0  0  0  0  0  0  0  0  0
  -12.9010    2.1871  -23.6188 C   0  0  0  0  0  0  0  0  0  0  0  0
  -12.4144    0.8997  -23.5762 C   0  0  0  0  0  0  0  0  0  0  0  0
  -13.3580   -0.1194  -23.4878 C   0  0  0  0  0  0  0  0  0  0  0  0
  -12.9212   -1.4151  -23.4427 C   0  0  0  0  0  0  0  0  0  0  0  0
  -11.5674   -1.6813  -23.4858 C   0  0  0  0  0  0  0  0  0  0  0  0
  -10.6444   -0.6478  -23.5741 C   0  0  0  0  0  0  0  0  0  0  0  0
  -11.0624    0.6555  -23.6202 C   0  0  0  0  0  0  0  0  0  0  0  0
   -8.4935   -2.1320  -22.2413 C   0  0  0  0  0  0  0  0  0  0  0  0
   -8.3859   -3.5557  -22.7341 C   0  0  0  0  0  0  0  0  0  0  0  0
   -8.2345   -3.6977  -24.1418 N   0  0  0  0  0  0  0  0  0  0  0  0
   -9.3491   -4.3078  -24.8153 C   0  0  0  0  0  0  0  0  0  0  0  0
   -8.9199   -4.5834  -26.2442 C   0  0  0  0  0  0  0  0  0  0  0  0
   -8.0728   -5.6800  -26.2762 O   0  0  0  0  0  0  0  0  0  0  0  0
   -7.4028   -5.8188  -25.0840 C   0  0  0  0  0  0  0  0  0  0  0  0
   -7.0581   -4.4884  -24.4446 C   0  0  0  0  0  0  0  0  0  0  0  0
   -8.1576   -2.7403  -24.4851 H   0  0  0  0  0  0  0  0  0  0  0  0
   -5.7601    1.0631  -25.6160 C   0  0  0  0  0  0  0  0  0  0  0  0
   -4.7174    2.0401  -25.8757 N   0  0  0  0  0  0  0  0  0  0  0  0
   -4.8885    2.8050  -26.4714 H   0  0  0  0  0  0  0  0  0  0  0  0
   -3.4409    1.8780  -25.2565 C   0  0  0  0  0  0  0  0  0  0  0  0
   -3.0652    0.6159  -24.9825 N   0  0  0  0  0  0  0  0  0  0  0  0
   -1.8757    0.3959  -24.4003 C   0  0  0  0  0  0  0  0  0  0  0  0
   -1.0110    1.4123  -24.0660 C   0  0  0  0  0  0  0  0  0  0  0  0
   -1.4265    2.7028  -24.3611 C   0  0  0  0  0  0  0  0  0  0  0  0
   -2.6283    2.8827  -24.9461 N   0  0  0  0  0  0  0  0  0  0  0  0
  1  2  2  0  0  0
  2  3  1  0  0  0
  3  4  2  0  0  0
  4  5  1  0  0  0
  5  6  2  0  0  0
  6  7  1  0  0  0
  6  8  1  0  0  0
  8  9  2  0  0  0
  9  3  1  0  0  0
 10  9  1  0  0  0
 10 11  1  0  0  0
 10 13  1  0  0  0
 11 12  1  0  0  0
 12 28  1  0  0  0
 12  2  1  0  0  0
 28 29  1  0  0  0
 29 30  1  0  0  0
 30 31  1  0  0  0
 30 36  1  0  0  0
 31 32  1  0  0  0
 32 33  1  0  0  0
 33 34  1  0  0  0
 34 35  1  0  0  0
 35 30  1  0  0  0
 13 14  2  0  0  0
 13 15  1  0  0  0
 15 18  1  0  0  0
 15 16  1  0  0  0
 18 19  2  0  0  0
 19 20  1  0  0  0
 20 21  2  0  0  0
 21 22  1  0  0  0
 22 23  2  0  0  0
 23 24  1  0  0  0
 24 25  2  0  0  0
 25 26  1  0  0  0
 26 27  2  0  0  0
 27 18  1  0  0  0
 27 22  1  0  0  0
 16 17  1  0  0  0
 17 37  1  0  0  0
 17 10  1  0  0  0
 37 38  1  0  0  0
 38 40  1  0  0  0
 38 39  1  0  0  0
 40 41  2  0  0  0
 41 42  1  0  0  0
 42 43  2  0  0  0
 43 44  1  0  0  0
 44 45  2  0  0  0
 45 40  1  0  0  0
M  CHG 1  30   1
M  END
> <minimizedAffinity>
-7.47792

> <CNNscore>
0.1553784907

> <CNNaffinity>
6.5696511269

> <CNN_VS>
1.0207824707

> <CNNaffinity_variance>
0.1670678258

$$$$



 45 51  0  0  0  0  0  0  0  0999 V2000
   -6.3242   -2.3226  -20.4865 O   0  0  0  0  0  0  0  0  0  0  0  0
   -6.4175   -1.3797  -21.3133 C   0  0  0  0  0  0  0  0  0  0  0  0
   -5.6084   -0.1676  -21.2581 C   0  0  0  0  0  0  0  0  0  0  0  0
   -4.6795   -0.0722  -20.2599 C   0  0  0  0  0  0  0  0  0  0  0  0
   -3.8575    1.0260  -20.1481 C   0  0  0  0  0  0  0  0  0  0  0  0
   -4.0136    2.0228  -21.0868 C   0  0  0  0  0  0  0  0  0  0  0  0
   -2.9873    3.4316  -20.9768 Cl  0  0  0  0  0  0  0  0  0  0  0  0
   -4.9672    1.9215  -22.1085 C   0  0  0  0  0  0  0  0  0  0  0  0
   -5.7934    0.8238  -22.2246 C   0  0  0  0  0  0  0  0  0  0  0  0
   -6.8043    0.6903  -23.2518 C   0  0  0  0  0  0  0  0  0  0  0  0
   -6.9850   -0.7556  -23.6085 C   0  0  0  0  0  0  0  0  0  0  0  0
   -7.3613   -1.4569  -22.3888 N   0  0  0  0  0  0  0  0  0  0  0  0
   -8.1153    1.0791  -22.5987 C   0  0  0  0  0  0  0  0  0  0  0  0
   -8.3927    1.0890  -21.3793 O   0  0  0  0  0  0  0  0  0  0  0  0
   -9.0209    1.4486  -23.6592 N   0  0  0  0  0  0  0  0  0  0  0  0
   -8.2556    1.5818  -24.8578 C   0  0  0  0  0  0  0  0  0  0  0  0
   -6.7909    1.6137  -24.3877 C   0  0  0  0  0  0  0  0  0  0  0  0
  -10.4255    1.6557  -23.5787 C   0  0  0  0  0  0  0  0  0  0  0  0
  -11.0122    2.9035  -23.6053 C   0  0  0  0  0  0  0  0  0  0  0  0
  -12.3313    3.1127  -23.5309 N   0  0  0  0  0  0  0  0  0  0  0  0
  -13.1378    2.0455  -23.4235 C   0  0  0  0  0  0  0  0  0  0  0  0
  -12.6167    0.7713  -23.3911 C   0  0  0  0  0  0  0  0  0  0  0  0
  -13.5307   -0.2719  -23.2780 C   0  0  0  0  0  0  0  0  0  0  0  0
  -13.0590   -1.5556  -23.2419 C   0  0  0  0  0  0  0  0  0  0  0  0
  -11.7001   -1.7863  -23.3179 C   0  0  0  0  0  0  0  0  0  0  0  0
  -10.8071   -0.7291  -23.4304 C   0  0  0  0  0  0  0  0  0  0  0  0
  -11.2603    0.5626  -23.4681 C   0  0  0  0  0  0  0  0  0  0  0  0
   -8.5982   -2.1971  -22.2536 C   0  0  0  0  0  0  0  0  0  0  0  0
   -8.4389   -3.6318  -22.6982 C   0  0  0  0  0  0  0  0  0  0  0  0
   -8.3244   -3.8192  -24.1041 N   0  0  0  0  0  0  0  0  0  0  0  0
   -9.5367   -4.2211  -24.7651 C   0  0  0  0  0  0  0  0  0  0  0  0
   -9.1743   -4.5916  -26.1910 C   0  0  0  0  0  0  0  0  0  0  0  0
   -8.5455   -5.8267  -26.2093 O   0  0  0  0  0  0  0  0  0  0  0  0
   -7.9062   -6.0708  -25.0172 C   0  0  0  0  0  0  0  0  0  0  0  0
   -7.3169   -4.8187  -24.3987 C   0  0  0  0  0  0  0  0  0  0  0  0
   -8.0731   -2.8976  -24.4618 H   0  0  0  0  0  0  0  0  0  0  0  0
   -6.0134    1.1570  -25.5910 C   0  0  0  0  0  0  0  0  0  0  0  0
   -5.6236    2.3529  -26.3170 N   0  0  0  0  0  0  0  0  0  0  0  0
   -5.8901    2.4741  -27.2569 H   0  0  0  0  0  0  0  0  0  0  0  0
   -4.8492    3.3509  -25.6511 C   0  0  0  0  0  0  0  0  0  0  0  0
   -3.6326    2.9737  -25.2185 N   0  0  0  0  0  0  0  0  0  0  0  0
   -2.8549    3.8657  -24.5845 C   0  0  0  0  0  0  0  0  0  0  0  0
   -3.2471    5.1637  -24.3529 C   0  0  0  0  0  0  0  0  0  0  0  0
   -4.5067    5.5226  -24.8108 C   0  0  0  0  0  0  0  0  0  0  0  0
   -5.2580    4.5981  -25.4430 N   0  0  0  0  0  0  0  0  0  0  0  0
  1  2  2  0  0  0
  2  3  1  0  0  0
  3  4  2  0  0  0
  4  5  1  0  0  0
  5  6  2  0  0  0
  6  7  1  0  0  0
  6  8  1  0  0  0
  8  9  2  0  0  0
  9  3  1  0  0  0
 10  9  1  0  0  0
 10 11  1  0  0  0
 10 13  1  0  0  0
 11 12  1  0  0  0
 12 28  1  0  0  0
 12  2  1  0  0  0
 28 29  1  0  0  0
 29 30  1  0  0  0
 30 31  1  0  0  0
 30 36  1  0  0  0
 31 32  1  0  0  0
 32 33  1  0  0  0
 33 34  1  0  0  0
 34 35  1  0  0  0
 35 30  1  0  0  0
 13 14  2  0  0  0
 13 15  1  0  0  0
 15 18  1  0  0  0
 15 16  1  0  0  0
 18 19  2  0  0  0
 19 20  1  0  0  0
 20 21  2  0  0  0
 21 22  1  0  0  0
 22 23  2  0  0  0
 23 24  1  0  0  0
 24 25  2  0  0  0
 25 26  1  0  0  0
 26 27  2  0  0  0
 27 18  1  0  0  0
 27 22  1  0  0  0
 16 17  1  0  0  0
 17 37  1  0  0  0
 17 10  1  0  0  0
 37 38  1  0  0  0
 38 40  1  0  0  0
 38 39  1  0  0  0
 40 41  2  0  0  0
 41 42  1  0  0  0
 42 43  2  0  0  0
 43 44  1  0  0  0
 44 45  2  0  0  0
 45 40  1  0  0  0
M  CHG 1  30   1
M  END
> <minimizedAffinity>
-7.43128

> <CNNscore>
0.1452796459

> <CNNaffinity>
6.5643754005

> <CNN_VS>
0.9536701441

> <CNNaffinity_variance>
0.1382525414

$$$$



 45 51  0  0  0  0  0  0  0  0999 V2000
   -5.7196   -2.3804  -20.0464 O   0  0  0  0  0  0  0  0  0  0  0  0
   -5.9808   -1.5917  -20.9904 C   0  0  0  0  0  0  0  0  0  0  0  0
   -5.4146   -0.2532  -21.1111 C   0  0  0  0  0  0  0  0  0  0  0  0
   -4.5297    0.1483  -20.1498 C   0  0  0  0  0  0  0  0  0  0  0  0
   -3.9300    1.3860  -20.1993 C   0  0  0  0  0  0  0  0  0  0  0  0
   -4.2619    2.2003  -21.2604 C   0  0  0  0  0  0  0  0  0  0  0  0
   -3.5199    3.7784  -21.3566 Cl  0  0  0  0  0  0  0  0  0  0  0  0
   -5.1697    1.7854  -22.2438 C   0  0  0  0  0  0  0  0  0  0  0  0
   -5.7736    0.5467  -22.1986 C   0  0  0  0  0  0  0  0  0  0  0  0
   -6.7316    0.0889  -23.1822 C   0  0  0  0  0  0  0  0  0  0  0  0
   -6.6337   -1.3999  -23.3391 C   0  0  0  0  0  0  0  0  0  0  0  0
   -6.8830   -1.9886  -22.0306 N   0  0  0  0  0  0  0  0  0  0  0  0
   -8.0984    0.3091  -22.5661 C   0  0  0  0  0  0  0  0  0  0  0  0
   -8.3842    0.4308  -21.3547 O   0  0  0  0  0  0  0  0  0  0  0  0
   -9.0472    0.3561  -23.6518 N   0  0  0  0  0  0  0  0  0  0  0  0
   -8.3094    0.4679  -24.8696 C   0  0  0  0  0  0  0  0  0  0  0  0
   -6.8813    0.8371  -24.4317 C   0  0  0  0  0  0  0  0  0  0  0  0
  -10.4665    0.3048  -23.5771 C   0  0  0  0  0  0  0  0  0  0  0  0
  -11.1787   -0.8695  -23.4517 C   0  0  0  0  0  0  0  0  0  0  0  0
  -12.5129   -0.9323  -23.3799 N   0  0  0  0  0  0  0  0  0  0  0  0
  -13.2058    0.2158  -23.4328 C   0  0  0  0  0  0  0  0  0  0  0  0
  -12.5561    1.4234  -23.5578 C   0  0  0  0  0  0  0  0  0  0  0  0
  -13.3585    2.5596  -23.6043 C   0  0  0  0  0  0  0  0  0  0  0  0
  -12.7570    3.7821  -23.7280 C   0  0  0  0  0  0  0  0  0  0  0  0
  -11.3810    3.8619  -23.8031 C   0  0  0  0  0  0  0  0  0  0  0  0
  -10.6010    2.7142  -23.7545 C   0  0  0  0  0  0  0  0  0  0  0  0
  -11.1848    1.4816  -23.6310 C   0  0  0  0  0  0  0  0  0  0  0  0
   -7.9598   -2.9227  -21.7775 C   0  0  0  0  0  0  0  0  0  0  0  0
   -8.5585   -3.4424  -23.0631 C   0  0  0  0  0  0  0  0  0  0  0  0
   -8.3904   -4.8375  -23.2869 N   0  0  0  0  0  0  0  0  0  0  0  0
   -7.1285   -5.3755  -22.8552 C   0  0  0  0  0  0  0  0  0  0  0  0
   -7.0395   -6.7975  -23.3764 C   0  0  0  0  0  0  0  0  0  0  0  0
   -6.7691   -6.7827  -24.7358 O   0  0  0  0  0  0  0  0  0  0  0  0
   -7.2394   -5.6298  -25.3182 C   0  0  0  0  0  0  0  0  0  0  0  0
   -8.5331   -5.1423  -24.6968 C   0  0  0  0  0  0  0  0  0  0  0  0
   -9.1177   -5.2735  -22.7200 H   0  0  0  0  0  0  0  0  0  0  0  0
   -6.0204    0.3766  -25.5752 C   0  0  0  0  0  0  0  0  0  0  0  0
   -5.1300    1.4773  -25.8994 N   0  0  0  0  0  0  0  0  0  0  0  0
   -5.4117    2.1758  -26.5333 H   0  0  0  0  0  0  0  0  0  0  0  0
   -3.8411    1.5341  -25.2874 C   0  0  0  0  0  0  0  0  0  0  0  0
   -3.2942    0.3570  -24.9347 N   0  0  0  0  0  0  0  0  0  0  0  0
   -2.0836    0.3423  -24.3546 C   0  0  0  0  0  0  0  0  0  0  0  0
   -1.3658    1.4879  -24.1002 C   0  0  0  0  0  0  0  0  0  0  0  0
   -1.9561    2.6863  -24.4754 C   0  0  0  0  0  0  0  0  0  0  0  0
   -3.1734    2.6595  -25.0554 N   0  0  0  0  0  0  0  0  0  0  0  0
  1  2  2  0  0  0
  2  3  1  0  0  0
  3  4  2  0  0  0
  4  5  1  0  0  0
  5  6  2  0  0  0
  6  7  1  0  0  0
  6  8  1  0  0  0
  8  9  2  0  0  0
  9  3  1  0  0  0
 10  9  1  0  0  0
 10 11  1  0  0  0
 10 13  1  0  0  0
 11 12  1  0  0  0
 12 28  1  0  0  0
 12  2  1  0  0  0
 28 29  1  0  0  0
 29 30  1  0  0  0
 30 31  1  0  0  0
 30 36  1  0  0  0
 31 32  1  0  0  0
 32 33  1  0  0  0
 33 34  1  0  0  0
 34 35  1  0  0  0
 35 30  1  0  0  0
 13 14  2  0  0  0
 13 15  1  0  0  0
 15 18  1  0  0  0
 15 16  1  0  0  0
 18 19  2  0  0  0
 19 20  1  0  0  0
 20 21  2  0  0  0
 21 22  1  0  0  0
 22 23  2  0  0  0
 23 24  1  0  0  0
 24 25  2  0  0  0
 25 26  1  0  0  0
 26 27  2  0  0  0
 27 18  1  0  0  0
 27 22  1  0  0  0
 16 17  1  0  0  0
 17 37  1  0  0  0
 17 10  1  0  0  0
 37 38  1  0  0  0
 38 40  1  0  0  0
 38 39  1  0  0  0
 40 41  2  0  0  0
 41 42  1  0  0  0
 42 43  2  0  0  0
 43 44  1  0  0  0
 44 45  2  0  0  0
 45 40  1  0  0  0
M  CHG 1  30   1
M  END
> <minimizedAffinity>
-8.01017

> <CNNscore>
0.1218634471

> <CNNaffinity>
6.4772248268

> <CNN_VS>
0.7893369198

> <CNNaffinity_variance>
0.1217272282

$$$$



 45 51  0  0  0  0  0  0  0  0999 V2000
   -7.2208   -3.7882  -22.5017 O   0  0  0  0  0  0  0  0  0  0  0  0
   -7.1379   -2.5411  -22.6405 C   0  0  0  0  0  0  0  0  0  0  0  0
   -6.4065   -1.6690  -21.7288 C   0  0  0  0  0  0  0  0  0  0  0  0
   -5.7553   -2.2547  -20.6793 C   0  0  0  0  0  0  0  0  0  0  0  0
   -5.0217   -1.5093  -19.7848 C   0  0  0  0  0  0  0  0  0  0  0  0
   -4.9738   -0.1482  -19.9953 C   0  0  0  0  0  0  0  0  0  0  0  0
   -4.0517    0.8300  -18.8803 Cl  0  0  0  0  0  0  0  0  0  0  0  0
   -5.6429    0.4486  -21.0720 C   0  0  0  0  0  0  0  0  0  0  0  0
   -6.3796   -0.2935  -21.9707 C   0  0  0  0  0  0  0  0  0  0  0  0
   -7.1019    0.2865  -23.0828 C   0  0  0  0  0  0  0  0  0  0  0  0
   -7.1429   -0.6814  -24.2283 C   0  0  0  0  0  0  0  0  0  0  0  0
   -7.7851   -1.8956  -23.7441 N   0  0  0  0  0  0  0  0  0  0  0  0
   -8.5450    0.3915  -22.6326 C   0  0  0  0  0  0  0  0  0  0  0  0
   -9.1141   -0.2495  -21.7220 O   0  0  0  0  0  0  0  0  0  0  0  0
   -9.1731    1.3913  -23.4616 N   0  0  0  0  0  0  0  0  0  0  0  0
   -8.1412    2.0823  -24.1669 C   0  0  0  0  0  0  0  0  0  0  0  0
   -6.8389    1.6780  -23.4541 C   0  0  0  0  0  0  0  0  0  0  0  0
  -10.5603    1.6776  -23.5889 C   0  0  0  0  0  0  0  0  0  0  0  0
  -11.0546    2.9368  -23.8575 C   0  0  0  0  0  0  0  0  0  0  0  0
  -12.3561    3.2200  -23.9803 N   0  0  0  0  0  0  0  0  0  0  0  0
  -13.2395    2.2204  -23.8339 C   0  0  0  0  0  0  0  0  0  0  0  0
  -12.8125    0.9393  -23.5646 C   0  0  0  0  0  0  0  0  0  0  0  0
  -13.8015   -0.0305  -23.4294 C   0  0  0  0  0  0  0  0  0  0  0  0
  -13.4246   -1.3181  -23.1614 C   0  0  0  0  0  0  0  0  0  0  0  0
  -12.0849   -1.6248  -23.0323 C   0  0  0  0  0  0  0  0  0  0  0  0
  -11.1160   -0.6401  -23.1713 C   0  0  0  0  0  0  0  0  0  0  0  0
  -11.4737    0.6543  -23.4396 C   0  0  0  0  0  0  0  0  0  0  0  0
   -8.9929   -2.4374  -24.3305 C   0  0  0  0  0  0  0  0  0  0  0  0
   -8.7081   -3.1494  -25.6317 C   0  0  0  0  0  0  0  0  0  0  0  0
   -9.1758   -4.4915  -25.7005 N   0  0  0  0  0  0  0  0  0  0  0  0
   -8.2673   -5.4798  -25.1846 C   0  0  0  0  0  0  0  0  0  0  0  0
   -8.8257   -6.8428  -25.5480 C   0  0  0  0  0  0  0  0  0  0  0  0
   -8.6127   -7.0932  -26.8945 O   0  0  0  0  0  0  0  0  0  0  0  0
   -8.5442   -5.9202  -27.6080 C   0  0  0  0  0  0  0  0  0  0  0  0
   -9.4754   -4.8508  -27.0724 C   0  0  0  0  0  0  0  0  0  0  0  0
  -10.0052   -4.5005  -25.1070 H   0  0  0  0  0  0  0  0  0  0  0  0
   -5.7750    1.8855  -24.4962 C   0  0  0  0  0  0  0  0  0  0  0  0
   -4.9134    2.9486  -24.0097 N   0  0  0  0  0  0  0  0  0  0  0  0
   -5.0697    3.8812  -24.2835 H   0  0  0  0  0  0  0  0  0  0  0  0
   -3.8367    2.6249  -23.1292 C   0  0  0  0  0  0  0  0  0  0  0  0
   -3.6840    3.4189  -22.0543 N   0  0  0  0  0  0  0  0  0  0  0  0
   -2.6900    3.1677  -21.1877 C   0  0  0  0  0  0  0  0  0  0  0  0
   -1.8085    2.1238  -21.3478 C   0  0  0  0  0  0  0  0  0  0  0  0
   -1.9917    1.3227  -22.4658 C   0  0  0  0  0  0  0  0  0  0  0  0
   -3.0017    1.6075  -23.3130 N   0  0  0  0  0  0  0  0  0  0  0  0
  1  2  2  0  0  0
  2  3  1  0  0  0
  3  4  2  0  0  0
  4  5  1  0  0  0
  5  6  2  0  0  0
  6  7  1  0  0  0
  6  8  1  0  0  0
  8  9  2  0  0  0
  9  3  1  0  0  0
 10  9  1  0  0  0
 10 11  1  0  0  0
 10 13  1  0  0  0
 11 12  1  0  0  0
 12 28  1  0  0  0
 12  2  1  0  0  0
 28 29  1  0  0  0
 29 30  1  0  0  0
 30 31  1  0  0  0
 30 36  1  0  0  0
 31 32  1  0  0  0
 32 33  1  0  0  0
 33 34  1  0  0  0
 34 35  1  0  0  0
 35 30  1  0  0  0
 13 14  2  0  0  0
 13 15  1  0  0  0
 15 18  1  0  0  0
 15 16  1  0  0  0
 18 19  2  0  0  0
 19 20  1  0  0  0
 20 21  2  0  0  0
 21 22  1  0  0  0
 22 23  2  0  0  0
 23 24  1  0  0  0
 24 25  2  0  0  0
 25 26  1  0  0  0
 26 27  2  0  0  0
 27 18  1  0  0  0
 27 22  1  0  0  0
 16 17  1  0  0  0
 17 37  1  0  0  0
 17 10  1  0  0  0
 37 38  1  0  0  0
 38 40  1  0  0  0
 38 39  1  0  0  0
 40 41  2  0  0  0
 41 42  1  0  0  0
 42 43  2  0  0  0
 43 44  1  0  0  0
 44 45  2  0  0  0
 45 40  1  0  0  0
M  CHG 1  30   1
M  END
> <minimizedAffinity>
-8.23033

> <CNNscore>
0.1190890372

> <CNNaffinity>
6.5115480423

> <CNN_VS>
0.7754539847

> <CNNaffinity_variance>
0.1934296191

$$$$



 43 48  0  0  0  0  0  0  0  0999 V2000
   -5.9182   -1.3973  -21.4863 N   0  0  0  0  0  0  0  0  0  0  0  0
   -5.3725   -1.9384  -22.6893 C   0  0  0  0  0  0  0  0  0  0  0  0
   -6.3124   -2.4865  -23.6841 C   0  0  0  0  0  0  0  0  0  0  0  0
   -5.9591   -3.9147  -24.0673 C   0  0  0  0  0  0  0  0  0  0  0  0
   -6.0514   -4.9383  -23.3493 O   0  0  0  0  0  0  0  0  0  0  0  0
   -5.4856   -3.9088  -25.4289 N   0  0  0  0  0  0  0  0  0  0  0  0
   -5.0326   -2.5165  -25.6137 C   0  0  0  0  0  0  0  0  0  0  0  0
   -6.2956   -1.8535  -25.0297 C   0  0  0  0  0  0  0  0  0  0  0  0
   -7.7364   -2.5588  -23.2509 C   0  0  0  0  0  0  0  0  0  0  0  0
   -8.6850   -3.1691  -24.0692 C   0  0  0  0  0  0  0  0  0  0  0  0
  -10.0253   -3.2336  -23.7080 C   0  0  0  0  0  0  0  0  0  0  0  0
  -11.1971   -4.0101  -24.7689 Cl  0  0  0  0  0  0  0  0  0  0  0  0
  -10.4639   -2.6912  -22.5151 C   0  0  0  0  0  0  0  0  0  0  0  0
   -9.5432   -2.0861  -21.6950 C   0  0  0  0  0  0  0  0  0  0  0  0
   -8.2098   -2.0321  -22.0725 C   0  0  0  0  0  0  0  0  0  0  0  0
   -7.2928   -1.4169  -21.1286 C   0  0  0  0  0  0  0  0  0  0  0  0
   -7.7207   -0.9298  -20.0485 O   0  0  0  0  0  0  0  0  0  0  0  0
   -5.4703   -4.9674  -26.3664 C   0  0  0  0  0  0  0  0  0  0  0  0
   -4.2233   -5.5616  -26.6019 C   0  0  0  0  0  0  0  0  0  0  0  0
   -4.0782   -6.5785  -27.4714 N   0  0  0  0  0  0  0  0  0  0  0  0
   -5.1343   -7.0596  -28.1476 C   0  0  0  0  0  0  0  0  0  0  0  0
   -6.3639   -6.4801  -27.9214 C   0  0  0  0  0  0  0  0  0  0  0  0
   -7.4391   -7.0031  -28.6384 C   0  0  0  0  0  0  0  0  0  0  0  0
   -8.6919   -6.4227  -28.4153 C   0  0  0  0  0  0  0  0  0  0  0  0
   -8.8620   -5.3765  -27.5241 C   0  0  0  0  0  0  0  0  0  0  0  0
   -7.7810   -4.8626  -26.8138 C   0  0  0  0  0  0  0  0  0  0  0  0
   -6.5599   -5.4395  -27.0414 C   0  0  0  0  0  0  0  0  0  0  0  0
   -5.0229   -0.7610  -20.5127 C   0  0  0  0  0  0  0  0  0  0  0  0
   -4.6510    2.7996  -21.8977 C   0  0  0  0  0  0  0  0  0  0  0  0
   -5.3177    1.6083  -21.3591 N   0  0  0  0  0  0  0  0  0  0  0  0
   -4.4748    0.5058  -21.0654 C   0  0  0  0  0  0  0  0  0  0  0  0
   -3.2159    0.5328  -21.2547 O   0  0  0  0  0  0  0  0  0  0  0  0
   -6.2904    1.5762  -21.2106 H   0  0  0  0  0  0  0  0  0  0  0  0
   -6.2555   -0.3852  -25.1321 C   0  0  0  0  0  0  0  0  0  0  0  0
   -7.6059    0.0346  -25.5547 N   0  0  0  0  0  0  0  0  0  0  0  0
   -7.8370    0.0017  -26.5111 H   0  0  0  0  0  0  0  0  0  0  0  0
   -8.5798    0.4829  -24.6303 C   0  0  0  0  0  0  0  0  0  0  0  0
   -8.0950    1.2511  -23.5637 C   0  0  0  0  0  0  0  0  0  0  0  0
   -8.9772    1.7064  -22.6103 C   0  0  0  0  0  0  0  0  0  0  0  0
  -10.2815    1.4109  -22.7140 N   0  0  0  0  0  0  0  0  0  0  0  0
  -10.7470    0.6700  -23.7418 C   0  0  0  0  0  0  0  0  0  0  0  0
  -12.2090    0.3635  -23.8024 C   0  0  0  0  0  0  0  0  0  0  0  0
   -9.8896    0.2069  -24.7011 N   0  0  0  0  0  0  0  0  0  0  0  0
 29 30  1  0  0  0
 30 31  1  0  0  0
 30 33  1  0  0  0
 31 32  2  0  0  0
 31 28  1  0  0  0
 28  1  1  0  0  0
  1  2  1  0  0  0
  3  2  1  0  0  0
  3  4  1  0  0  0
  3  9  1  0  0  0
  4  5  2  0  0  0
  4  6  1  0  0  0
  6 18  1  0  0  0
  6  7  1  0  0  0
 18 19  2  0  0  0
 19 20  1  0  0  0
 20 21  2  0  0  0
 21 22  1  0  0  0
 22 23  2  0  0  0
 23 24  1  0  0  0
 24 25  2  0  0  0
 25 26  1  0  0  0
 26 27  2  0  0  0
 27 18  1  0  0  0
 27 22  1  0  0  0
  7  8  1  0  0  0
  8 34  1  0  0  0
  8  3  1  0  0  0
 34 35  1  0  0  0
 35 37  1  0  0  0
 35 36  1  0  0  0
 37 38  2  0  0  0
 38 39  1  0  0  0
 39 40  2  0  0  0
 40 41  1  0  0  0
 41 42  1  0  0  0
 41 43  2  0  0  0
 43 37  1  0  0  0
  9 10  2  0  0  0
 10 11  1  0  0  0
 11 12  1  0  0  0
 11 13  2  0  0  0
 13 14  1  0  0  0
 14 15  2  0  0  0
 15 16  1  0  0  0
 15  9  1  0  0  0
 16 17  2  0  0  0
 16  1  1  0  0  0
M  END
> <minimizedAffinity>
-7.03133

> <CNNscore>
0.2134550214

> <CNNaffinity>
6.1980247498

> <CNN_VS>
1.3229994774

> <CNNaffinity_variance>
0.0969629511

$$$$



 43 48  0  0  0  0  0  0  0  0999 V2000
   -5.5300    0.8646  -22.6240 N   0  0  0  0  0  0  0  0  0  0  0  0
   -5.4269   -0.4335  -23.2088 C   0  0  0  0  0  0  0  0  0  0  0  0
   -6.6543   -1.0400  -23.7556 C   0  0  0  0  0  0  0  0  0  0  0  0
   -6.9088   -2.4214  -23.1738 C   0  0  0  0  0  0  0  0  0  0  0  0
   -7.2409   -2.7002  -21.9974 O   0  0  0  0  0  0  0  0  0  0  0  0
   -6.7016   -3.3925  -24.2187 N   0  0  0  0  0  0  0  0  0  0  0  0
   -5.8158   -2.6796  -25.1596 C   0  0  0  0  0  0  0  0  0  0  0  0
   -6.6377   -1.3764  -25.2041 C   0  0  0  0  0  0  0  0  0  0  0  0
   -7.9139   -0.2881  -23.4940 C   0  0  0  0  0  0  0  0  0  0  0  0
   -9.1420   -0.8331  -23.8640 C   0  0  0  0  0  0  0  0  0  0  0  0
  -10.3342   -0.1499  -23.6570 C   0  0  0  0  0  0  0  0  0  0  0  0
  -11.8678   -0.8684  -24.1402 Cl  0  0  0  0  0  0  0  0  0  0  0  0
  -10.3404    1.1018  -23.0715 C   0  0  0  0  0  0  0  0  0  0  0  0
   -9.1395    1.6549  -22.6995 C   0  0  0  0  0  0  0  0  0  0  0  0
   -7.9602    0.9574  -22.9138 C   0  0  0  0  0  0  0  0  0  0  0  0
   -6.7382    1.5911  -22.4496 C   0  0  0  0  0  0  0  0  0  0  0  0
   -6.7734    2.7335  -21.9198 O   0  0  0  0  0  0  0  0  0  0  0  0
   -7.2266   -4.7009  -24.3294 C   0  0  0  0  0  0  0  0  0  0  0  0
   -6.6974   -5.6520  -23.4468 C   0  0  0  0  0  0  0  0  0  0  0  0
   -7.1151   -6.9313  -23.4534 N   0  0  0  0  0  0  0  0  0  0  0  0
   -8.0608   -7.3404  -24.3150 C   0  0  0  0  0  0  0  0  0  0  0  0
   -8.5857   -6.4107  -25.1863 C   0  0  0  0  0  0  0  0  0  0  0  0
   -9.5656   -6.8674  -26.0666 C   0  0  0  0  0  0  0  0  0  0  0  0
  -10.1058   -5.9314  -26.9545 C   0  0  0  0  0  0  0  0  0  0  0  0
   -9.6902   -4.6104  -26.9627 C   0  0  0  0  0  0  0  0  0  0  0  0
   -8.7112   -4.1660  -26.0788 C   0  0  0  0  0  0  0  0  0  0  0  0
   -8.1903   -5.0922  -25.2149 C   0  0  0  0  0  0  0  0  0  0  0  0
   -4.3154    1.5391  -22.1507 C   0  0  0  0  0  0  0  0  0  0  0  0
   -4.5875    0.4105  -18.4920 C   0  0  0  0  0  0  0  0  0  0  0  0
   -5.0309    0.8092  -19.8330 N   0  0  0  0  0  0  0  0  0  0  0  0
   -4.0023    1.1231  -20.7581 C   0  0  0  0  0  0  0  0  0  0  0  0
   -2.7663    1.0693  -20.4569 O   0  0  0  0  0  0  0  0  0  0  0  0
   -5.9838    0.8559  -20.0757 H   0  0  0  0  0  0  0  0  0  0  0  0
   -6.0896   -0.4012  -26.1615 C   0  0  0  0  0  0  0  0  0  0  0  0
   -7.2516    0.2762  -26.7691 N   0  0  0  0  0  0  0  0  0  0  0  0
   -7.7702   -0.1960  -27.4600 H   0  0  0  0  0  0  0  0  0  0  0  0
   -7.6451    1.5826  -26.3914 C   0  0  0  0  0  0  0  0  0  0  0  0
   -6.6060    2.4438  -26.0157 C   0  0  0  0  0  0  0  0  0  0  0  0
   -6.9095    3.7251  -25.6142 C   0  0  0  0  0  0  0  0  0  0  0  0
   -8.1880    4.1300  -25.5883 N   0  0  0  0  0  0  0  0  0  0  0  0
   -9.1881    3.2988  -25.9500 C   0  0  0  0  0  0  0  0  0  0  0  0
  -10.5953    3.8004  -25.8933 C   0  0  0  0  0  0  0  0  0  0  0  0
   -8.9110    2.0218  -26.3525 N   0  0  0  0  0  0  0  0  0  0  0  0
 29 30  1  0  0  0
 30 31  1  0  0  0
 30 33  1  0  0  0
 31 32  2  0  0  0
 31 28  1  0  0  0
 28  1  1  0  0  0
  1  2  1  0  0  0
  3  2  1  0  0  0
  3  4  1  0  0  0
  3  9  1  0  0  0
  4  5  2  0  0  0
  4  6  1  0  0  0
  6 18  1  0  0  0
  6  7  1  0  0  0
 18 19  2  0  0  0
 19 20  1  0  0  0
 20 21  2  0  0  0
 21 22  1  0  0  0
 22 23  2  0  0  0
 23 24  1  0  0  0
 24 25  2  0  0  0
 25 26  1  0  0  0
 26 27  2  0  0  0
 27 18  1  0  0  0
 27 22  1  0  0  0
  7  8  1  0  0  0
  8 34  1  0  0  0
  8  3  1  0  0  0
 34 35  1  0  0  0
 35 37  1  0  0  0
 35 36  1  0  0  0
 37 38  2  0  0  0
 38 39  1  0  0  0
 39 40  2  0  0  0
 40 41  1  0  0  0
 41 42  1  0  0  0
 41 43  2  0  0  0
 43 37  1  0  0  0
  9 10  2  0  0  0
 10 11  1  0  0  0
 11 12  1  0  0  0
 11 13  2  0  0  0
 13 14  1  0  0  0
 14 15  2  0  0  0
 15 16  1  0  0  0
 15  9  1  0  0  0
 16 17  2  0  0  0
 16  1  1  0  0  0
M  END
> <minimizedAffinity>
-6.62727

> <CNNscore>
0.1723564714

> <CNNaffinity>
6.4411177635

> <CNN_VS>
1.1101683378

> <CNNaffinity_variance>
0.2002024353

$$$$



 43 48  0  0  0  0  0  0  0  0999 V2000
   -7.0939   -3.1608  -22.2945 N   0  0  0  0  0  0  0  0  0  0  0  0
   -7.8660   -2.2767  -23.1069 C   0  0  0  0  0  0  0  0  0  0  0  0
   -7.4257   -0.8732  -23.2048 C   0  0  0  0  0  0  0  0  0  0  0  0
   -8.5420    0.0948  -22.8465 C   0  0  0  0  0  0  0  0  0  0  0  0
   -9.0477    0.2851  -21.7153 O   0  0  0  0  0  0  0  0  0  0  0  0
   -8.9419    0.7820  -24.0490 N   0  0  0  0  0  0  0  0  0  0  0  0
   -8.5121   -0.1434  -25.1152 C   0  0  0  0  0  0  0  0  0  0  0  0
   -7.0909   -0.3780  -24.5666 C   0  0  0  0  0  0  0  0  0  0  0  0
   -6.2985   -0.4895  -22.3089 C   0  0  0  0  0  0  0  0  0  0  0  0
   -5.8848    0.8393  -22.2373 C   0  0  0  0  0  0  0  0  0  0  0  0
   -4.8223    1.2290  -21.4309 C   0  0  0  0  0  0  0  0  0  0  0  0
   -4.3248    2.9172  -21.3676 Cl  0  0  0  0  0  0  0  0  0  0  0  0
   -4.1369    0.3037  -20.6667 C   0  0  0  0  0  0  0  0  0  0  0  0
   -4.5309   -1.0108  -20.7239 C   0  0  0  0  0  0  0  0  0  0  0  0
   -5.5940   -1.3803  -21.5342 C   0  0  0  0  0  0  0  0  0  0  0  0
   -5.9775   -2.7810  -21.5024 C   0  0  0  0  0  0  0  0  0  0  0  0
   -5.3342   -3.6028  -20.7969 O   0  0  0  0  0  0  0  0  0  0  0  0
   -9.5757    2.0391  -24.1822 C   0  0  0  0  0  0  0  0  0  0  0  0
   -8.7418    3.1157  -24.5126 C   0  0  0  0  0  0  0  0  0  0  0  0
   -9.2252    4.3620  -24.6678 N   0  0  0  0  0  0  0  0  0  0  0  0
  -10.5347    4.6153  -24.5087 C   0  0  0  0  0  0  0  0  0  0  0  0
  -11.3609    3.5615  -24.1835 C   0  0  0  0  0  0  0  0  0  0  0  0
  -12.7141    3.8580  -24.0263 C   0  0  0  0  0  0  0  0  0  0  0  0
  -13.5617    2.7952  -23.6973 C   0  0  0  0  0  0  0  0  0  0  0  0
  -13.0839    1.5057  -23.5343 C   0  0  0  0  0  0  0  0  0  0  0  0
  -11.7307    1.2217  -23.6939 C   0  0  0  0  0  0  0  0  0  0  0  0
  -10.9115    2.2710  -24.0158 C   0  0  0  0  0  0  0  0  0  0  0  0
   -7.4472   -4.5845  -22.2439 C   0  0  0  0  0  0  0  0  0  0  0  0
   -4.7807   -5.6246  -24.8016 C   0  0  0  0  0  0  0  0  0  0  0  0
   -5.5987   -4.7347  -23.9693 N   0  0  0  0  0  0  0  0  0  0  0  0
   -6.5563   -5.3704  -23.1379 C   0  0  0  0  0  0  0  0  0  0  0  0
   -6.7096   -6.6340  -23.1070 O   0  0  0  0  0  0  0  0  0  0  0  0
   -5.4896   -3.7565  -23.9869 H   0  0  0  0  0  0  0  0  0  0  0  0
   -6.2788   -1.2227  -25.4583 C   0  0  0  0  0  0  0  0  0  0  0  0
   -7.2163   -1.8089  -26.4359 N   0  0  0  0  0  0  0  0  0  0  0  0
   -7.8444   -1.2155  -26.9079 H   0  0  0  0  0  0  0  0  0  0  0  0
   -7.2423   -3.1960  -26.7175 C   0  0  0  0  0  0  0  0  0  0  0  0
   -6.2940   -3.6439  -27.6463 C   0  0  0  0  0  0  0  0  0  0  0  0
   -6.2694   -4.9767  -27.9894 C   0  0  0  0  0  0  0  0  0  0  0  0
   -7.1480   -5.8242  -27.4334 N   0  0  0  0  0  0  0  0  0  0  0  0
   -8.0615   -5.3910  -26.5392 C   0  0  0  0  0  0  0  0  0  0  0  0
   -9.0223   -6.3780  -25.9579 C   0  0  0  0  0  0  0  0  0  0  0  0
   -8.1049   -4.0717  -26.1827 N   0  0  0  0  0  0  0  0  0  0  0  0
 29 30  1  0  0  0
 30 31  1  0  0  0
 30 33  1  0  0  0
 31 32  2  0  0  0
 31 28  1  0  0  0
 28  1  1  0  0  0
  1  2  1  0  0  0
  3  2  1  0  0  0
  3  4  1  0  0  0
  3  9  1  0  0  0
  4  5  2  0  0  0
  4  6  1  0  0  0
  6 18  1  0  0  0
  6  7  1  0  0  0
 18 19  2  0  0  0
 19 20  1  0  0  0
 20 21  2  0  0  0
 21 22  1  0  0  0
 22 23  2  0  0  0
 23 24  1  0  0  0
 24 25  2  0  0  0
 25 26  1  0  0  0
 26 27  2  0  0  0
 27 18  1  0  0  0
 27 22  1  0  0  0
  7  8  1  0  0  0
  8 34  1  0  0  0
  8  3  1  0  0  0
 34 35  1  0  0  0
 35 37  1  0  0  0
 35 36  1  0  0  0
 37 38  2  0  0  0
 38 39  1  0  0  0
 39 40  2  0  0  0
 40 41  1  0  0  0
 41 42  1  0  0  0
 41 43  2  0  0  0
 43 37  1  0  0  0
  9 10  2  0  0  0
 10 11  1  0  0  0
 11 12  1  0  0  0
 11 13  2  0  0  0
 13 14  1  0  0  0
 14 15  2  0  0  0
 15 16  1  0  0  0
 15  9  1  0  0  0
 16 17  2  0  0  0
 16  1  1  0  0  0
M  END
> <minimizedAffinity>
-7.58528

> <CNNscore>
0.1316396594

> <CNNaffinity>
6.1448354721

> <CNN_VS>
0.8089040518

> <CNNaffinity_variance>
0.1865419745

$$$$



 43 48  0  0  0  0  0  0  0  0999 V2000
   -6.7260   -1.8032  -22.1735 N   0  0  0  0  0  0  0  0  0  0  0  0
   -7.9273   -1.3740  -22.8142 C   0  0  0  0  0  0  0  0  0  0  0  0
   -8.0620    0.0593  -23.1319 C   0  0  0  0  0  0  0  0  0  0  0  0
   -9.3439    0.6455  -22.5624 C   0  0  0  0  0  0  0  0  0  0  0  0
   -9.6182    0.8411  -21.3548 O   0  0  0  0  0  0  0  0  0  0  0  0
  -10.2239    0.9512  -23.6625 N   0  0  0  0  0  0  0  0  0  0  0  0
   -9.7360    0.0587  -24.7318 C   0  0  0  0  0  0  0  0  0  0  0  0
   -8.2431    0.4049  -24.5670 C   0  0  0  0  0  0  0  0  0  0  0  0
   -6.9825    0.9390  -22.6015 C   0  0  0  0  0  0  0  0  0  0  0  0
   -7.0762    2.3222  -22.7435 C   0  0  0  0  0  0  0  0  0  0  0  0
   -6.0775    3.1712  -22.2822 C   0  0  0  0  0  0  0  0  0  0  0  0
   -6.2282    4.9144  -22.4818 Cl  0  0  0  0  0  0  0  0  0  0  0  0
   -4.9505    2.6669  -21.6615 C   0  0  0  0  0  0  0  0  0  0  0  0
   -4.8409    1.3060  -21.5119 C   0  0  0  0  0  0  0  0  0  0  0  0
   -5.8484    0.4749  -21.9783 C   0  0  0  0  0  0  0  0  0  0  0  0
   -5.6781   -0.9478  -21.7395 C   0  0  0  0  0  0  0  0  0  0  0  0
   -4.6399   -1.3797  -21.1717 O   0  0  0  0  0  0  0  0  0  0  0  0
  -11.2844    1.8851  -23.7160 C   0  0  0  0  0  0  0  0  0  0  0  0
  -12.5543    1.3924  -23.3871 C   0  0  0  0  0  0  0  0  0  0  0  0
  -13.6438    2.1823  -23.4004 N   0  0  0  0  0  0  0  0  0  0  0  0
  -13.5469    3.4800  -23.7332 C   0  0  0  0  0  0  0  0  0  0  0  0
  -12.3013    3.9717  -24.0580 C   0  0  0  0  0  0  0  0  0  0  0  0
  -12.2352    5.3222  -24.3978 C   0  0  0  0  0  0  0  0  0  0  0  0
  -10.9752    5.8316  -24.7282 C   0  0  0  0  0  0  0  0  0  0  0  0
   -9.8422    5.0355  -24.7194 C   0  0  0  0  0  0  0  0  0  0  0  0
   -9.9205    3.6883  -24.3784 C   0  0  0  0  0  0  0  0  0  0  0  0
  -11.1598    3.2019  -24.0572 C   0  0  0  0  0  0  0  0  0  0  0  0
   -6.5158   -3.2340  -21.9229 C   0  0  0  0  0  0  0  0  0  0  0  0
   -8.0188   -5.7664  -24.3851 C   0  0  0  0  0  0  0  0  0  0  0  0
   -7.7968   -5.0657  -23.1149 N   0  0  0  0  0  0  0  0  0  0  0  0
   -6.8339   -4.0244  -23.1415 C   0  0  0  0  0  0  0  0  0  0  0  0
   -6.1921   -3.7077  -24.1946 O   0  0  0  0  0  0  0  0  0  0  0  0
   -8.2862   -5.3038  -22.2945 H   0  0  0  0  0  0  0  0  0  0  0  0
   -7.4001   -0.2565  -25.5769 C   0  0  0  0  0  0  0  0  0  0  0  0
   -7.6006    0.4912  -26.8335 N   0  0  0  0  0  0  0  0  0  0  0  0
   -7.8587   -0.0026  -27.6451 H   0  0  0  0  0  0  0  0  0  0  0  0
   -7.4341    1.8949  -26.9102 C   0  0  0  0  0  0  0  0  0  0  0  0
   -8.3943    2.5788  -27.6671 C   0  0  0  0  0  0  0  0  0  0  0  0
   -8.2891    3.9441  -27.8076 C   0  0  0  0  0  0  0  0  0  0  0  0
   -7.2752    4.5980  -27.2215 N   0  0  0  0  0  0  0  0  0  0  0  0
   -6.3504    3.9377  -26.4931 C   0  0  0  0  0  0  0  0  0  0  0  0
   -5.2367    4.7162  -25.8697 C   0  0  0  0  0  0  0  0  0  0  0  0
   -6.4343    2.5816  -26.3393 N   0  0  0  0  0  0  0  0  0  0  0  0
 29 30  1  0  0  0
 30 31  1  0  0  0
 30 33  1  0  0  0
 31 32  2  0  0  0
 31 28  1  0  0  0
 28  1  1  0  0  0
  1  2  1  0  0  0
  3  2  1  0  0  0
  3  4  1  0  0  0
  3  9  1  0  0  0
  4  5  2  0  0  0
  4  6  1  0  0  0
  6 18  1  0  0  0
  6  7  1  0  0  0
 18 19  2  0  0  0
 19 20  1  0  0  0
 20 21  2  0  0  0
 21 22  1  0  0  0
 22 23  2  0  0  0
 23 24  1  0  0  0
 24 25  2  0  0  0
 25 26  1  0  0  0
 26 27  2  0  0  0
 27 18  1  0  0  0
 27 22  1  0  0  0
  7  8  1  0  0  0
  8 34  1  0  0  0
  8  3  1  0  0  0
 34 35  1  0  0  0
 35 37  1  0  0  0
 35 36  1  0  0  0
 37 38  2  0  0  0
 38 39  1  0  0  0
 39 40  2  0  0  0
 40 41  1  0  0  0
 41 42  1  0  0  0
 41 43  2  0  0  0
 43 37  1  0  0  0
  9 10  2  0  0  0
 10 11  1  0  0  0
 11 12  1  0  0  0
 11 13  2  0  0  0
 13 14  1  0  0  0
 14 15  2  0  0  0
 15 16  1  0  0  0
 15  9  1  0  0  0
 16 17  2  0  0  0
 16  1  1  0  0  0
M  END
> <minimizedAffinity>
-6.48163

> <CNNscore>
0.1209331974

> <CNNaffinity>
6.1258864403

> <CNN_VS>
0.7408230305

> <CNNaffinity_variance>
0.2457714975

$$$$



 43 48  0  0  0  0  0  0  0  0999 V2000
   -5.8467   -1.3227  -21.4997 N   0  0  0  0  0  0  0  0  0  0  0  0
   -5.3533   -1.9452  -22.6858 C   0  0  0  0  0  0  0  0  0  0  0  0
   -6.3362   -2.3625  -23.7023 C   0  0  0  0  0  0  0  0  0  0  0  0
   -6.1796   -3.8293  -24.0701 C   0  0  0  0  0  0  0  0  0  0  0  0
   -6.4341   -4.8237  -23.3504 O   0  0  0  0  0  0  0  0  0  0  0  0
   -5.6760   -3.9014  -25.4189 N   0  0  0  0  0  0  0  0  0  0  0  0
   -5.0255   -2.5888  -25.5978 C   0  0  0  0  0  0  0  0  0  0  0  0
   -6.1960   -1.7489  -25.0497 C   0  0  0  0  0  0  0  0  0  0  0  0
   -7.7664   -2.2288  -23.3059 C   0  0  0  0  0  0  0  0  0  0  0  0
   -8.7712   -2.7050  -24.1459 C   0  0  0  0  0  0  0  0  0  0  0  0
  -10.1157   -2.5760  -23.8194 C   0  0  0  0  0  0  0  0  0  0  0  0
  -11.3588   -3.1870  -24.9070 Cl  0  0  0  0  0  0  0  0  0  0  0  0
  -10.5027   -1.9675  -22.6406 C   0  0  0  0  0  0  0  0  0  0  0  0
   -9.5263   -1.4925  -21.7995 C   0  0  0  0  0  0  0  0  0  0  0  0
   -8.1897   -1.6310  -22.1425 C   0  0  0  0  0  0  0  0  0  0  0  0
   -7.2188   -1.1445  -21.1777 C   0  0  0  0  0  0  0  0  0  0  0  0
   -7.6001   -0.5931  -20.1112 O   0  0  0  0  0  0  0  0  0  0  0  0
   -5.7875   -4.9588  -26.3511 C   0  0  0  0  0  0  0  0  0  0  0  0
   -6.8138   -4.8381  -27.2974 C   0  0  0  0  0  0  0  0  0  0  0  0
   -7.0222   -5.7783  -28.2375 N   0  0  0  0  0  0  0  0  0  0  0  0
   -6.2456   -6.8726  -28.2981 C   0  0  0  0  0  0  0  0  0  0  0  0
   -5.2343   -6.9984  -27.3705 C   0  0  0  0  0  0  0  0  0  0  0  0
   -4.4465   -8.1449  -27.4614 C   0  0  0  0  0  0  0  0  0  0  0  0
   -3.4164   -8.2819  -26.5253 C   0  0  0  0  0  0  0  0  0  0  0  0
   -3.1852   -7.3252  -25.5511 C   0  0  0  0  0  0  0  0  0  0  0  0
   -3.9784   -6.1844  -25.4702 C   0  0  0  0  0  0  0  0  0  0  0  0
   -4.9836   -6.0624  -26.3924 C   0  0  0  0  0  0  0  0  0  0  0  0
   -4.8949   -0.8120  -20.5059 C   0  0  0  0  0  0  0  0  0  0  0  0
   -4.5674    2.8083  -21.7393 C   0  0  0  0  0  0  0  0  0  0  0  0
   -5.2226    1.5558  -21.3443 N   0  0  0  0  0  0  0  0  0  0  0  0
   -4.3596    0.5077  -20.9333 C   0  0  0  0  0  0  0  0  0  0  0  0
   -3.0925    0.6306  -20.9060 O   0  0  0  0  0  0  0  0  0  0  0  0
   -6.2011    1.4496  -21.3635 H   0  0  0  0  0  0  0  0  0  0  0  0
   -5.9454   -0.3019  -25.1573 C   0  0  0  0  0  0  0  0  0  0  0  0
   -7.1887    0.2925  -25.6857 N   0  0  0  0  0  0  0  0  0  0  0  0
   -7.5265   -0.0093  -26.5598 H   0  0  0  0  0  0  0  0  0  0  0  0
   -7.9115    1.2822  -24.9771 C   0  0  0  0  0  0  0  0  0  0  0  0
   -9.2643    0.9981  -24.7490 C   0  0  0  0  0  0  0  0  0  0  0  0
  -10.0403    1.9211  -24.0852 C   0  0  0  0  0  0  0  0  0  0  0  0
   -9.4949    3.0732  -23.6678 N   0  0  0  0  0  0  0  0  0  0  0  0
   -8.1915    3.3458  -23.8888 C   0  0  0  0  0  0  0  0  0  0  0  0
   -7.6387    4.6495  -23.4093 C   0  0  0  0  0  0  0  0  0  0  0  0
   -7.4009    2.4442  -24.5458 N   0  0  0  0  0  0  0  0  0  0  0  0
 29 30  1  0  0  0
 30 31  1  0  0  0
 30 33  1  0  0  0
 31 32  2  0  0  0
 31 28  1  0  0  0
 28  1  1  0  0  0
  1  2  1  0  0  0
  3  2  1  0  0  0
  3  4  1  0  0  0
  3  9  1  0  0  0
  4  5  2  0  0  0
  4  6  1  0  0  0
  6 18  1  0  0  0
  6  7  1  0  0  0
 18 19  2  0  0  0
 19 20  1  0  0  0
 20 21  2  0  0  0
 21 22  1  0  0  0
 22 23  2  0  0  0
 23 24  1  0  0  0
 24 25  2  0  0  0
 25 26  1  0  0  0
 26 27  2  0  0  0
 27 18  1  0  0  0
 27 22  1  0  0  0
  7  8  1  0  0  0
  8 34  1  0  0  0
  8  3  1  0  0  0
 34 35  1  0  0  0
 35 37  1  0  0  0
 35 36  1  0  0  0
 37 38  2  0  0  0
 38 39  1  0  0  0
 39 40  2  0  0  0
 40 41  1  0  0  0
 41 42  1  0  0  0
 41 43  2  0  0  0
 43 37  1  0  0  0
  9 10  2  0  0  0
 10 11  1  0  0  0
 11 12  1  0  0  0
 11 13  2  0  0  0
 13 14  1  0  0  0
 14 15  2  0  0  0
 15 16  1  0  0  0
 15  9  1  0  0  0
 16 17  2  0  0  0
 16  1  1  0  0  0
M  END
> <minimizedAffinity>
-6.57127

> <CNNscore>
0.1156831011

> <CNNaffinity>
6.0782122612

> <CNN_VS>
0.7031464577

> <CNNaffinity_variance>
0.1274574399

$$$$



 43 48  0  0  0  0  0  0  0  0999 V2000
   -7.5416   -2.7730  -22.7339 N   0  0  0  0  0  0  0  0  0  0  0  0
   -8.2659   -1.7440  -23.4078 C   0  0  0  0  0  0  0  0  0  0  0  0
   -7.7082   -0.3797  -23.3790 C   0  0  0  0  0  0  0  0  0  0  0  0
   -8.7189    0.6325  -22.8640 C   0  0  0  0  0  0  0  0  0  0  0  0
   -9.1585    0.7388  -21.6947 O   0  0  0  0  0  0  0  0  0  0  0  0
   -9.1065    1.4783  -23.9650 N   0  0  0  0  0  0  0  0  0  0  0  0
   -8.8045    0.6431  -25.1437 C   0  0  0  0  0  0  0  0  0  0  0  0
   -7.3880    0.2324  -24.6960 C   0  0  0  0  0  0  0  0  0  0  0  0
   -6.5152   -0.1917  -22.5061 C   0  0  0  0  0  0  0  0  0  0  0  0
   -5.9834    1.0822  -22.3153 C   0  0  0  0  0  0  0  0  0  0  0  0
   -4.8581    1.2914  -21.5274 C   0  0  0  0  0  0  0  0  0  0  0  0
   -4.2117    2.9153  -21.3112 Cl  0  0  0  0  0  0  0  0  0  0  0  0
   -4.2258    0.2341  -20.9013 C   0  0  0  0  0  0  0  0  0  0  0  0
   -4.7360   -1.0289  -21.0770 C   0  0  0  0  0  0  0  0  0  0  0  0
   -5.8603   -1.2175  -21.8667 C   0  0  0  0  0  0  0  0  0  0  0  0
   -6.3641   -2.5766  -21.9638 C   0  0  0  0  0  0  0  0  0  0  0  0
   -5.7669   -3.5215  -21.3829 O   0  0  0  0  0  0  0  0  0  0  0  0
   -9.6320    2.7908  -23.9322 C   0  0  0  0  0  0  0  0  0  0  0  0
  -11.0292    2.8926  -23.8992 C   0  0  0  0  0  0  0  0  0  0  0  0
  -11.6500    4.0861  -23.8658 N   0  0  0  0  0  0  0  0  0  0  0  0
  -10.9427    5.2280  -23.8636 C   0  0  0  0  0  0  0  0  0  0  0  0
   -9.5682    5.1359  -23.8961 C   0  0  0  0  0  0  0  0  0  0  0  0
   -8.8641    6.3392  -23.8921 C   0  0  0  0  0  0  0  0  0  0  0  0
   -7.4682    6.2567  -23.9239 C   0  0  0  0  0  0  0  0  0  0  0  0
   -6.8108    5.0384  -23.9574 C   0  0  0  0  0  0  0  0  0  0  0  0
   -7.5245    3.8435  -23.9610 C   0  0  0  0  0  0  0  0  0  0  0  0
   -8.8904    3.9379  -23.9299 C   0  0  0  0  0  0  0  0  0  0  0  0
   -8.0165   -4.1594  -22.8162 C   0  0  0  0  0  0  0  0  0  0  0  0
   -6.7585   -5.2695  -26.2687 C   0  0  0  0  0  0  0  0  0  0  0  0
   -6.6962   -4.7714  -24.8896 N   0  0  0  0  0  0  0  0  0  0  0  0
   -7.9396   -4.6498  -24.2177 C   0  0  0  0  0  0  0  0  0  0  0  0
   -9.0496   -4.9481  -24.7656 O   0  0  0  0  0  0  0  0  0  0  0  0
   -5.8437   -4.5361  -24.4572 H   0  0  0  0  0  0  0  0  0  0  0  0
   -6.6913   -0.5738  -25.7122 C   0  0  0  0  0  0  0  0  0  0  0  0
   -5.6278    0.2886  -26.2632 N   0  0  0  0  0  0  0  0  0  0  0  0
   -5.8823    1.1004  -26.7586 H   0  0  0  0  0  0  0  0  0  0  0  0
   -4.2540   -0.0130  -26.1029 C   0  0  0  0  0  0  0  0  0  0  0  0
   -3.6672    0.4452  -24.9162 C   0  0  0  0  0  0  0  0  0  0  0  0
   -2.3288    0.2103  -24.6961 C   0  0  0  0  0  0  0  0  0  0  0  0
   -1.6084   -0.4503  -25.6146 N   0  0  0  0  0  0  0  0  0  0  0  0
   -2.1750   -0.8906  -26.7578 C   0  0  0  0  0  0  0  0  0  0  0  0
   -1.3223   -1.6134  -27.7506 C   0  0  0  0  0  0  0  0  0  0  0  0
   -3.5027   -0.6693  -26.9984 N   0  0  0  0  0  0  0  0  0  0  0  0
 29 30  1  0  0  0
 30 31  1  0  0  0
 30 33  1  0  0  0
 31 32  2  0  0  0
 31 28  1  0  0  0
 28  1  1  0  0  0
  1  2  1  0  0  0
  3  2  1  0  0  0
  3  4  1  0  0  0
  3  9  1  0  0  0
  4  5  2  0  0  0
  4  6  1  0  0  0
  6 18  1  0  0  0
  6  7  1  0  0  0
 18 19  2  0  0  0
 19 20  1  0  0  0
 20 21  2  0  0  0
 21 22  1  0  0  0
 22 23  2  0  0  0
 23 24  1  0  0  0
 24 25  2  0  0  0
 25 26  1  0  0  0
 26 27  2  0  0  0
 27 18  1  0  0  0
 27 22  1  0  0  0
  7  8  1  0  0  0
  8 34  1  0  0  0
  8  3  1  0  0  0
 34 35  1  0  0  0
 35 37  1  0  0  0
 35 36  1  0  0  0
 37 38  2  0  0  0
 38 39  1  0  0  0
 39 40  2  0  0  0
 40 41  1  0  0  0
 41 42  1  0  0  0
 41 43  2  0  0  0
 43 37  1  0  0  0
  9 10  2  0  0  0
 10 11  1  0  0  0
 11 12  1  0  0  0
 11 13  2  0  0  0
 13 14  1  0  0  0
 14 15  2  0  0  0
 15 16  1  0  0  0
 15  9  1  0  0  0
 16 17  2  0  0  0
 16  1  1  0  0  0
M  END
> <minimizedAffinity>
-6.55437

> <CNNscore>
0.0965755060

> <CNNaffinity>
6.0473146439

> <CNN_VS>
0.5840224624

> <CNNaffinity_variance>
0.2115186751

$$$$



 43 48  0  0  0  0  0  0  0  0999 V2000
   -7.2383   -5.0922  -22.6925 N   0  0  0  0  0  0  0  0  0  0  0  0
   -8.2790   -4.3577  -23.3370 C   0  0  0  0  0  0  0  0  0  0  0  0
   -8.2095   -2.8858  -23.2931 C   0  0  0  0  0  0  0  0  0  0  0  0
   -9.4898   -2.2764  -22.7447 C   0  0  0  0  0  0  0  0  0  0  0  0
   -9.9154   -2.3366  -21.5669 O   0  0  0  0  0  0  0  0  0  0  0  0
  -10.1607   -1.5969  -23.8246 N   0  0  0  0  0  0  0  0  0  0  0  0
   -9.6210   -2.2696  -25.0222 C   0  0  0  0  0  0  0  0  0  0  0  0
   -8.1398   -2.1871  -24.6040 C   0  0  0  0  0  0  0  0  0  0  0  0
   -7.1305   -2.3190  -22.4358 C   0  0  0  0  0  0  0  0  0  0  0  0
   -7.0519   -0.9427  -22.2312 C   0  0  0  0  0  0  0  0  0  0  0  0
   -6.0454   -0.3776  -21.4574 C   0  0  0  0  0  0  0  0  0  0  0  0
   -5.9754    1.3664  -21.2230 Cl  0  0  0  0  0  0  0  0  0  0  0  0
   -5.0830   -1.1690  -20.8598 C   0  0  0  0  0  0  0  0  0  0  0  0
   -5.1447   -2.5279  -21.0496 C   0  0  0  0  0  0  0  0  0  0  0  0
   -6.1570   -3.0734  -21.8248 C   0  0  0  0  0  0  0  0  0  0  0  0
   -6.1789   -4.5215  -21.9377 C   0  0  0  0  0  0  0  0  0  0  0  0
   -5.2881   -5.2182  -21.3828 O   0  0  0  0  0  0  0  0  0  0  0  0
  -11.0943   -0.5368  -23.7605 C   0  0  0  0  0  0  0  0  0  0  0  0
  -12.4348   -0.9079  -23.5909 C   0  0  0  0  0  0  0  0  0  0  0  0
  -13.4174    0.0085  -23.5149 N   0  0  0  0  0  0  0  0  0  0  0  0
  -13.1411    1.3202  -23.6010 C   0  0  0  0  0  0  0  0  0  0  0  0
  -11.8250    1.6928  -23.7682 C   0  0  0  0  0  0  0  0  0  0  0  0
  -11.5722    3.0612  -23.8530 C   0  0  0  0  0  0  0  0  0  0  0  0
  -10.2394    3.4502  -24.0217 C   0  0  0  0  0  0  0  0  0  0  0  0
   -9.2141    2.5228  -24.1010 C   0  0  0  0  0  0  0  0  0  0  0  0
   -9.4786    1.1590  -24.0148 C   0  0  0  0  0  0  0  0  0  0  0  0
  -10.7876    0.7913  -23.8500 C   0  0  0  0  0  0  0  0  0  0  0  0
   -7.2236   -6.5566  -22.7916 C   0  0  0  0  0  0  0  0  0  0  0  0
   -4.2383   -8.0004  -24.7250 C   0  0  0  0  0  0  0  0  0  0  0  0
   -5.0587   -7.6168  -23.5702 N   0  0  0  0  0  0  0  0  0  0  0  0
   -6.2968   -6.9925  -23.8695 C   0  0  0  0  0  0  0  0  0  0  0  0
   -6.6845   -6.7698  -25.0617 O   0  0  0  0  0  0  0  0  0  0  0  0
   -4.7676   -7.7825  -22.6445 H   0  0  0  0  0  0  0  0  0  0  0  0
   -7.2346   -2.7020  -25.6449 C   0  0  0  0  0  0  0  0  0  0  0  0
   -6.6618   -1.5179  -26.3143 N   0  0  0  0  0  0  0  0  0  0  0  0
   -6.8620   -1.3660  -27.2662 H   0  0  0  0  0  0  0  0  0  0  0  0
   -5.8342   -0.5934  -25.6329 C   0  0  0  0  0  0  0  0  0  0  0  0
   -4.6520   -1.1193  -25.0958 C   0  0  0  0  0  0  0  0  0  0  0  0
   -3.8042   -0.2878  -24.3996 C   0  0  0  0  0  0  0  0  0  0  0  0
   -4.1187    1.0070  -24.2456 N   0  0  0  0  0  0  0  0  0  0  0  0
   -5.2584    1.5121  -24.7630 C   0  0  0  0  0  0  0  0  0  0  0  0
   -5.5628    2.9607  -24.5531 C   0  0  0  0  0  0  0  0  0  0  0  0
   -6.1159    0.7055  -25.4586 N   0  0  0  0  0  0  0  0  0  0  0  0
 29 30  1  0  0  0
 30 31  1  0  0  0
 30 33  1  0  0  0
 31 32  2  0  0  0
 31 28  1  0  0  0
 28  1  1  0  0  0
  1  2  1  0  0  0
  3  2  1  0  0  0
  3  4  1  0  0  0
  3  9  1  0  0  0
  4  5  2  0  0  0
  4  6  1  0  0  0
  6 18  1  0  0  0
  6  7  1  0  0  0
 18 19  2  0  0  0
 19 20  1  0  0  0
 20 21  2  0  0  0
 21 22  1  0  0  0
 22 23  2  0  0  0
 23 24  1  0  0  0
 24 25  2  0  0  0
 25 26  1  0  0  0
 26 27  2  0  0  0
 27 18  1  0  0  0
 27 22  1  0  0  0
  7  8  1  0  0  0
  8 34  1  0  0  0
  8  3  1  0  0  0
 34 35  1  0  0  0
 35 37  1  0  0  0
 35 36  1  0  0  0
 37 38  2  0  0  0
 38 39  1  0  0  0
 39 40  2  0  0  0
 40 41  1  0  0  0
 41 42  1  0  0  0
 41 43  2  0  0  0
 43 37  1  0  0  0
  9 10  2  0  0  0
 10 11  1  0  0  0
 11 12  1  0  0  0
 11 13  2  0  0  0
 13 14  1  0  0  0
 14 15  2  0  0  0
 15 16  1  0  0  0
 15  9  1  0  0  0
 16 17  2  0  0  0
 16  1  1  0  0  0
M  END
> <minimizedAffinity>
-7.38096

> <CNNscore>
0.0899237841

> <CNNaffinity>
6.4127144814

> <CNN_VS>
0.5766555667

> <CNNaffinity_variance>
0.2495444268

$$$$



 43 48  0  0  0  0  0  0  0  0999 V2000
   -7.5252   -2.7720  -22.7470 N   0  0  0  0  0  0  0  0  0  0  0  0
   -8.2362   -1.7349  -23.4227 C   0  0  0  0  0  0  0  0  0  0  0  0
   -7.6755   -0.3724  -23.3724 C   0  0  0  0  0  0  0  0  0  0  0  0
   -8.6916    0.6377  -22.8640 C   0  0  0  0  0  0  0  0  0  0  0  0
   -9.1493    0.7345  -21.7008 O   0  0  0  0  0  0  0  0  0  0  0  0
   -9.0596    1.4948  -23.9631 N   0  0  0  0  0  0  0  0  0  0  0  0
   -8.7413    0.6696  -25.1446 C   0  0  0  0  0  0  0  0  0  0  0  0
   -7.3330    0.2510  -24.6785 C   0  0  0  0  0  0  0  0  0  0  0  0
   -6.4960   -0.1957  -22.4791 C   0  0  0  0  0  0  0  0  0  0  0  0
   -5.9640    1.0750  -22.2682 C   0  0  0  0  0  0  0  0  0  0  0  0
   -4.8507    1.2738  -21.4607 C   0  0  0  0  0  0  0  0  0  0  0  0
   -4.2036    2.8938  -21.2194 Cl  0  0  0  0  0  0  0  0  0  0  0  0
   -4.2310    0.2091  -20.8346 C   0  0  0  0  0  0  0  0  0  0  0  0
   -4.7416   -1.0508  -21.0301 C   0  0  0  0  0  0  0  0  0  0  0  0
   -5.8538   -1.2292  -21.8391 C   0  0  0  0  0  0  0  0  0  0  0  0
   -6.3595   -2.5859  -21.9567 C   0  0  0  0  0  0  0  0  0  0  0  0
   -5.7740   -3.5377  -21.3752 O   0  0  0  0  0  0  0  0  0  0  0  0
   -9.5822    2.8083  -23.9263 C   0  0  0  0  0  0  0  0  0  0  0  0
   -8.6416    3.8455  -23.9801 C   0  0  0  0  0  0  0  0  0  0  0  0
   -9.0136    5.1386  -23.9529 N   0  0  0  0  0  0  0  0  0  0  0  0
  -10.3106    5.4784  -23.8719 C   0  0  0  0  0  0  0  0  0  0  0  0
  -11.2414    4.4636  -23.8184 C   0  0  0  0  0  0  0  0  0  0  0  0
  -12.5784    4.8501  -23.7357 C   0  0  0  0  0  0  0  0  0  0  0  0
  -13.5314    3.8278  -23.6820 C   0  0  0  0  0  0  0  0  0  0  0  0
  -13.1689    2.4916  -23.7098 C   0  0  0  0  0  0  0  0  0  0  0  0
  -11.8308    2.1178  -23.7927 C   0  0  0  0  0  0  0  0  0  0  0  0
  -10.9077    3.1282  -23.8445 C   0  0  0  0  0  0  0  0  0  0  0  0
   -8.0024   -4.1563  -22.8496 C   0  0  0  0  0  0  0  0  0  0  0  0
   -5.5804   -6.1758  -25.0382 C   0  0  0  0  0  0  0  0  0  0  0  0
   -6.1193   -5.5368  -23.8319 N   0  0  0  0  0  0  0  0  0  0  0  0
   -7.3474   -4.8454  -23.9928 C   0  0  0  0  0  0  0  0  0  0  0  0
   -7.9550   -4.7731  -25.1095 O   0  0  0  0  0  0  0  0  0  0  0  0
   -5.6567   -5.5849  -22.9642 H   0  0  0  0  0  0  0  0  0  0  0  0
   -6.6225   -0.5477  -25.6910 C   0  0  0  0  0  0  0  0  0  0  0  0
   -5.6315    0.3562  -26.3067 N   0  0  0  0  0  0  0  0  0  0  0  0
   -5.7433    0.6132  -27.2504 H   0  0  0  0  0  0  0  0  0  0  0  0
   -4.5254    0.8660  -25.5850 C   0  0  0  0  0  0  0  0  0  0  0  0
   -3.6866   -0.0937  -25.0036 C   0  0  0  0  0  0  0  0  0  0  0  0
   -2.6009    0.3230  -24.2670 C   0  0  0  0  0  0  0  0  0  0  0  0
   -2.3615    1.6342  -24.1165 N   0  0  0  0  0  0  0  0  0  0  0  0
   -3.1710    2.5577  -24.6767 C   0  0  0  0  0  0  0  0  0  0  0  0
   -2.8615    4.0055  -24.4688 C   0  0  0  0  0  0  0  0  0  0  0  0
   -4.2552    2.1676  -25.4129 N   0  0  0  0  0  0  0  0  0  0  0  0
 29 30  1  0  0  0
 30 31  1  0  0  0
 30 33  1  0  0  0
 31 32  2  0  0  0
 31 28  1  0  0  0
 28  1  1  0  0  0
  1  2  1  0  0  0
  3  2  1  0  0  0
  3  4  1  0  0  0
  3  9  1  0  0  0
  4  5  2  0  0  0
  4  6  1  0  0  0
  6 18  1  0  0  0
  6  7  1  0  0  0
 18 19  2  0  0  0
 19 20  1  0  0  0
 20 21  2  0  0  0
 21 22  1  0  0  0
 22 23  2  0  0  0
 23 24  1  0  0  0
 24 25  2  0  0  0
 25 26  1  0  0  0
 26 27  2  0  0  0
 27 18  1  0  0  0
 27 22  1  0  0  0
  7  8  1  0  0  0
  8 34  1  0  0  0
  8  3  1  0  0  0
 34 35  1  0  0  0
 35 37  1  0  0  0
 35 36  1  0  0  0
 37 38  2  0  0  0
 38 39  1  0  0  0
 39 40  2  0  0  0
 40 41  1  0  0  0
 41 42  1  0  0  0
 41 43  2  0  0  0
 43 37  1  0  0  0
  9 10  2  0  0  0
 10 11  1  0  0  0
 11 12  1  0  0  0
 11 13  2  0  0  0
 13 14  1  0  0  0
 14 15  2  0  0  0
 15 16  1  0  0  0
 15  9  1  0  0  0
 16 17  2  0  0  0
 16  1  1  0  0  0
M  END
> <minimizedAffinity>
-7.09352

> <CNNscore>
0.0855247453

> <CNNaffinity>
6.0671434402

> <CNN_VS>
0.5188909173

> <CNNaffinity_variance>
0.1998470426

$$$$



 43 48  0  0  0  0  0  0  0  0999 V2000
   -7.1655   -5.0521  -22.6827 N   0  0  0  0  0  0  0  0  0  0  0  0
   -8.1841   -4.3058  -23.3483 C   0  0  0  0  0  0  0  0  0  0  0  0
   -8.1206   -2.8350  -23.2694 C   0  0  0  0  0  0  0  0  0  0  0  0
   -9.4220   -2.2407  -22.7548 C   0  0  0  0  0  0  0  0  0  0  0  0
   -9.8901   -2.3280  -21.5950 O   0  0  0  0  0  0  0  0  0  0  0  0
  -10.0550   -1.5389  -23.8432 N   0  0  0  0  0  0  0  0  0  0  0  0
   -9.4699   -2.1836  -25.0350 C   0  0  0  0  0  0  0  0  0  0  0  0
   -8.0052   -2.1072  -24.5612 C   0  0  0  0  0  0  0  0  0  0  0  0
   -7.0754   -2.2850  -22.3609 C   0  0  0  0  0  0  0  0  0  0  0  0
   -7.0083   -0.9135  -22.1231 C   0  0  0  0  0  0  0  0  0  0  0  0
   -6.0325   -0.3636  -21.3008 C   0  0  0  0  0  0  0  0  0  0  0  0
   -5.9762    1.3750  -21.0255 Cl  0  0  0  0  0  0  0  0  0  0  0  0
   -5.0902   -1.1659  -20.6861 C   0  0  0  0  0  0  0  0  0  0  0  0
   -5.1408   -2.5204  -20.9080 C   0  0  0  0  0  0  0  0  0  0  0  0
   -6.1226   -3.0507  -21.7316 C   0  0  0  0  0  0  0  0  0  0  0  0
   -6.1360   -4.4960  -21.8772 C   0  0  0  0  0  0  0  0  0  0  0  0
   -5.2640   -5.2030  -21.3056 O   0  0  0  0  0  0  0  0  0  0  0  0
  -10.9934   -0.4824  -23.7899 C   0  0  0  0  0  0  0  0  0  0  0  0
  -12.3342   -0.8588  -23.6345 C   0  0  0  0  0  0  0  0  0  0  0  0
  -13.3212    0.0537  -23.5698 N   0  0  0  0  0  0  0  0  0  0  0  0
  -13.0492    1.3664  -23.6537 C   0  0  0  0  0  0  0  0  0  0  0  0
  -11.7329    1.7442  -23.8068 C   0  0  0  0  0  0  0  0  0  0  0  0
  -11.4847    3.1136  -23.8898 C   0  0  0  0  0  0  0  0  0  0  0  0
  -10.1516    3.5078  -24.0442 C   0  0  0  0  0  0  0  0  0  0  0  0
   -9.1219    2.5844  -24.1119 C   0  0  0  0  0  0  0  0  0  0  0  0
   -9.3819    1.2196  -24.0278 C   0  0  0  0  0  0  0  0  0  0  0  0
  -10.6911    0.8469  -23.8769 C   0  0  0  0  0  0  0  0  0  0  0  0
   -7.1428   -6.5139  -22.8135 C   0  0  0  0  0  0  0  0  0  0  0  0
   -4.3561   -8.1384  -24.8944 C   0  0  0  0  0  0  0  0  0  0  0  0
   -5.1663   -7.8180  -23.7134 N   0  0  0  0  0  0  0  0  0  0  0  0
   -6.2433   -6.9194  -23.9258 C   0  0  0  0  0  0  0  0  0  0  0  0
   -6.5015   -6.4121  -25.0647 O   0  0  0  0  0  0  0  0  0  0  0  0
   -4.9742   -8.2031  -22.8280 H   0  0  0  0  0  0  0  0  0  0  0  0
   -7.0610   -2.5969  -25.5794 C   0  0  0  0  0  0  0  0  0  0  0  0
   -5.7121   -2.2560  -25.0871 N   0  0  0  0  0  0  0  0  0  0  0  0
   -5.6197   -1.8476  -24.1961 H   0  0  0  0  0  0  0  0  0  0  0  0
   -4.5467   -2.4968  -25.8539 C   0  0  0  0  0  0  0  0  0  0  0  0
   -3.8392   -1.3564  -26.2560 C   0  0  0  0  0  0  0  0  0  0  0  0
   -2.7062   -1.5064  -27.0232 C   0  0  0  0  0  0  0  0  0  0  0  0
   -2.2966   -2.7347  -27.3736 N   0  0  0  0  0  0  0  0  0  0  0  0
   -2.9796   -3.8324  -26.9860 C   0  0  0  0  0  0  0  0  0  0  0  0
   -2.4824   -5.1762  -27.4130 C   0  0  0  0  0  0  0  0  0  0  0  0
   -4.1077   -3.7083  -26.2233 N   0  0  0  0  0  0  0  0  0  0  0  0
 29 30  1  0  0  0
 30 31  1  0  0  0
 30 33  1  0  0  0
 31 32  2  0  0  0
 31 28  1  0  0  0
 28  1  1  0  0  0
  1  2  1  0  0  0
  3  2  1  0  0  0
  3  4  1  0  0  0
  3  9  1  0  0  0
  4  5  2  0  0  0
  4  6  1  0  0  0
  6 18  1  0  0  0
  6  7  1  0  0  0
 18 19  2  0  0  0
 19 20  1  0  0  0
 20 21  2  0  0  0
 21 22  1  0  0  0
 22 23  2  0  0  0
 23 24  1  0  0  0
 24 25  2  0  0  0
 25 26  1  0  0  0
 26 27  2  0  0  0
 27 18  1  0  0  0
 27 22  1  0  0  0
  7  8  1  0  0  0
  8 34  1  0  0  0
  8  3  1  0  0  0
 34 35  1  0  0  0
 35 37  1  0  0  0
 35 36  1  0  0  0
 37 38  2  0  0  0
 38 39  1  0  0  0
 39 40  2  0  0  0
 40 41  1  0  0  0
 41 42  1  0  0  0
 41 43  2  0  0  0
 43 37  1  0  0  0
  9 10  2  0  0  0
 10 11  1  0  0  0
 11 12  1  0  0  0
 11 13  2  0  0  0
 13 14  1  0  0  0
 14 15  2  0  0  0
 15 16  1  0  0  0
 15  9  1  0  0  0
 16 17  2  0  0  0
 16  1  1  0  0  0
M  END
> <minimizedAffinity>
-7.42487

> <CNNscore>
0.0792976320

> <CNNaffinity>
6.1746597290

> <CNN_VS>
0.4896358848

> <CNNaffinity_variance>
0.2713291347

$$$$



 41 46  0  0  0  0  0  0  0  0999 V2000
  -12.1743   -2.6582  -22.6518 C   0  0  0  0  0  0  0  0  0  0  0  0
  -11.3789   -1.8237  -23.6029 C   0  0  0  0  0  0  0  0  0  0  0  0
  -11.4617   -0.3423  -23.1984 C   0  0  0  0  0  0  0  0  0  0  0  0
  -10.2912    0.2302  -23.8365 N   0  0  0  0  0  0  0  0  0  0  0  0
   -9.4377   -0.8357  -24.3055 C   0  0  0  0  0  0  0  0  0  0  0  0
   -8.5567   -0.7475  -25.1660 O   0  0  0  0  0  0  0  0  0  0  0  0
   -9.8878   -2.0318  -23.5018 C   0  0  0  0  0  0  0  0  0  0  0  0
   -9.4391   -1.7474  -22.0849 C   0  0  0  0  0  0  0  0  0  0  0  0
   -8.0365   -2.1029  -22.0085 N   0  0  0  0  0  0  0  0  0  0  0  0
   -7.5448   -3.3355  -22.5197 C   0  0  0  0  0  0  0  0  0  0  0  0
   -6.4953   -3.8571  -22.0393 O   0  0  0  0  0  0  0  0  0  0  0  0
   -8.2866   -3.9662  -23.6041 C   0  0  0  0  0  0  0  0  0  0  0  0
   -7.8543   -5.1551  -24.1255 C   0  0  0  0  0  0  0  0  0  0  0  0
   -8.5366   -5.7611  -25.1360 C   0  0  0  0  0  0  0  0  0  0  0  0
   -9.6717   -5.1393  -25.6133 C   0  0  0  0  0  0  0  0  0  0  0  0
  -10.5714   -5.9113  -26.9249 Cl  0  0  0  0  0  0  0  0  0  0  0  0
  -10.1103   -3.9263  -25.0794 C   0  0  0  0  0  0  0  0  0  0  0  0
   -9.4215   -3.2989  -24.0477 C   0  0  0  0  0  0  0  0  0  0  0  0
  -10.0711    1.6270  -23.9562 C   0  0  0  0  0  0  0  0  0  0  0  0
   -8.8208    2.1901  -24.1192 C   0  0  0  0  0  0  0  0  0  0  0  0
   -8.7222    3.5073  -24.2203 N   0  0  0  0  0  0  0  0  0  0  0  0
   -9.7926    4.2858  -24.1681 C   0  0  0  0  0  0  0  0  0  0  0  0
  -11.0744    3.7963  -24.0071 C   0  0  0  0  0  0  0  0  0  0  0  0
  -12.1910    4.6049  -23.9522 C   0  0  0  0  0  0  0  0  0  0  0  0
  -13.4581    4.0385  -23.7870 C   0  0  0  0  0  0  0  0  0  0  0  0
  -13.5912    2.6510  -23.6777 C   0  0  0  0  0  0  0  0  0  0  0  0
  -12.4502    1.8776  -23.7375 C   0  0  0  0  0  0  0  0  0  0  0  0
  -11.2092    2.4311  -23.8992 C   0  0  0  0  0  0  0  0  0  0  0  0
   -7.0759   -1.2065  -21.3930 C   0  0  0  0  0  0  0  0  0  0  0  0
   -6.5900   -0.1365  -22.2809 C   0  0  0  0  0  0  0  0  0  0  0  0
   -5.3278    0.4586  -21.9789 N   0  0  0  0  0  0  0  0  0  0  0  0
   -5.0349    0.1689  -20.5829 C   0  0  0  0  0  0  0  0  0  0  0  0
   -3.8771    0.9867  -20.1144 C   0  0  0  0  0  0  0  0  0  0  0  0
   -2.7493    0.8120  -20.9729 N   0  0  0  0  0  0  0  0  0  0  0  0
   -3.0215    0.7967  -22.3717 C   0  0  0  0  0  0  0  0  0  0  0  0
   -4.2199   -0.0991  -22.7160 C   0  0  0  0  0  0  0  0  0  0  0  0
   -5.4118    1.4479  -22.2126 H   0  0  0  0  0  0  0  0  0  0  0  0
   -1.4604    1.8926  -20.6752 S   0  0  0  0  0  0  0  0  0  0  0  0
   -1.2516    3.0698  -21.9853 C   0  0  0  0  0  0  0  0  0  0  0  0
   -0.1465    1.1401  -20.5133 O   0  0  0  0  0  0  0  0  0  0  0  0
   -1.7079    2.5839  -19.3669 O   0  0  0  0  0  0  0  0  0  0  0  0
  2  1  1  0  0  0
  2  3  1  0  0  0
  3  4  1  0  0  0
  4 19  1  0  0  0
  4  5  1  0  0  0
 19 20  2  0  0  0
 20 21  1  0  0  0
 21 22  2  0  0  0
 22 23  1  0  0  0
 23 24  2  0  0  0
 24 25  1  0  0  0
 25 26  2  0  0  0
 26 27  1  0  0  0
 27 28  2  0  0  0
 28 19  1  0  0  0
 28 23  1  0  0  0
  5  6  2  0  0  0
  7  5  1  0  0  0
  7  8  1  0  0  0
  7  2  1  0  0  0
  8  9  1  0  0  0
  9 29  1  0  0  0
  9 10  1  0  0  0
 29 30  1  0  0  0
 30 31  1  0  0  0
 31 32  1  0  0  0
 31 37  1  0  0  0
 32 33  1  0  0  0
 33 34  1  0  0  0
 34 38  1  0  0  0
 34 35  1  0  0  0
 38 39  1  0  0  0
 38 40  2  0  0  0
 38 41  2  0  0  0
 35 36  1  0  0  0
 36 31  1  0  0  0
 10 11  2  0  0  0
 10 12  1  0  0  0
 12 13  2  0  0  0
 13 14  1  0  0  0
 14 15  2  0  0  0
 15 16  1  0  0  0
 15 17  1  0  0  0
 17 18  2  0  0  0
 18 12  1  0  0  0
 18  7  1  0  0  0
M  CHG 1  31   1
M  END
> <minimizedAffinity>
-9.56207

> <CNNscore>
0.1929369271

> <CNNaffinity>
6.4576163292

> <CNN_VS>
1.2459126711

> <CNNaffinity_variance>
0.1320674717

$$$$



 41 46  0  0  0  0  0  0  0  0999 V2000
   -6.0803   -2.3390  -21.1969 C   0  0  0  0  0  0  0  0  0  0  0  0
   -7.3056   -2.4487  -22.0454 C   0  0  0  0  0  0  0  0  0  0  0  0
   -8.0859   -1.1238  -22.0159 C   0  0  0  0  0  0  0  0  0  0  0  0
   -8.8890   -1.1978  -23.2219 N   0  0  0  0  0  0  0  0  0  0  0  0
   -8.4170   -2.2899  -24.0398 C   0  0  0  0  0  0  0  0  0  0  0  0
   -9.0419   -2.8570  -24.9410 O   0  0  0  0  0  0  0  0  0  0  0  0
   -7.0209   -2.5431  -23.5243 C   0  0  0  0  0  0  0  0  0  0  0  0
   -6.2155   -1.3367  -23.9553 C   0  0  0  0  0  0  0  0  0  0  0  0
   -5.8465   -1.5504  -25.3402 N   0  0  0  0  0  0  0  0  0  0  0  0
   -5.3006   -2.7839  -25.7907 C   0  0  0  0  0  0  0  0  0  0  0  0
   -4.5464   -2.8193  -26.8076 O   0  0  0  0  0  0  0  0  0  0  0  0
   -5.6392   -3.9898  -25.0455 C   0  0  0  0  0  0  0  0  0  0  0  0
   -5.1344   -5.1992  -25.4387 C   0  0  0  0  0  0  0  0  0  0  0  0
   -5.4365   -6.3358  -24.7526 C   0  0  0  0  0  0  0  0  0  0  0  0
   -6.2639   -6.2271  -23.6542 C   0  0  0  0  0  0  0  0  0  0  0  0
   -6.6670   -7.6919  -22.7501 Cl  0  0  0  0  0  0  0  0  0  0  0  0
   -6.7775   -4.9918  -23.2554 C   0  0  0  0  0  0  0  0  0  0  0  0
   -6.4757   -3.8252  -23.9485 C   0  0  0  0  0  0  0  0  0  0  0  0
   -9.9613   -0.3115  -23.5021 C   0  0  0  0  0  0  0  0  0  0  0  0
   -9.7859    0.9585  -24.0152 C   0  0  0  0  0  0  0  0  0  0  0  0
  -10.8540    1.7088  -24.2410 N   0  0  0  0  0  0  0  0  0  0  0  0
  -12.0758    1.2656  -23.9853 C   0  0  0  0  0  0  0  0  0  0  0  0
  -12.3303    0.0085  -23.4720 C   0  0  0  0  0  0  0  0  0  0  0  0
  -13.6018   -0.4557  -23.2045 C   0  0  0  0  0  0  0  0  0  0  0  0
  -13.7831   -1.7405  -22.6849 C   0  0  0  0  0  0  0  0  0  0  0  0
  -12.6733   -2.5539  -22.4371 C   0  0  0  0  0  0  0  0  0  0  0  0
  -11.4190   -2.0526  -22.7182 C   0  0  0  0  0  0  0  0  0  0  0  0
  -11.2403   -0.7949  -23.2269 C   0  0  0  0  0  0  0  0  0  0  0  0
   -6.0155   -0.4978  -26.3244 C   0  0  0  0  0  0  0  0  0  0  0  0
   -5.2081    0.7070  -26.0679 C   0  0  0  0  0  0  0  0  0  0  0  0
   -3.8413    0.5269  -25.6966 N   0  0  0  0  0  0  0  0  0  0  0  0
   -3.0263    1.1644  -26.7202 C   0  0  0  0  0  0  0  0  0  0  0  0
   -1.5926    0.7821  -26.5557 C   0  0  0  0  0  0  0  0  0  0  0  0
   -1.1416    1.0544  -25.2284 N   0  0  0  0  0  0  0  0  0  0  0  0
   -2.0398    0.7097  -24.1770 C   0  0  0  0  0  0  0  0  0  0  0  0
   -3.4723    1.1813  -24.4647 C   0  0  0  0  0  0  0  0  0  0  0  0
   -3.7015   -0.4777  -25.5883 H   0  0  0  0  0  0  0  0  0  0  0  0
    0.4021    0.4214  -24.8626 S   0  0  0  0  0  0  0  0  0  0  0  0
    1.6911    1.2090  -25.7920 C   0  0  0  0  0  0  0  0  0  0  0  0
    0.4617   -1.0711  -25.1586 O   0  0  0  0  0  0  0  0  0  0  0  0
    0.6402    0.5629  -23.3881 O   0  0  0  0  0  0  0  0  0  0  0  0
  2  1  1  0  0  0
  2  3  1  0  0  0
  3  4  1  0  0  0
  4 19  1  0  0  0
  4  5  1  0  0  0
 19 20  2  0  0  0
 20 21  1  0  0  0
 21 22  2  0  0  0
 22 23  1  0  0  0
 23 24  2  0  0  0
 24 25  1  0  0  0
 25 26  2  0  0  0
 26 27  1  0  0  0
 27 28  2  0  0  0
 28 19  1  0  0  0
 28 23  1  0  0  0
  5  6  2  0  0  0
  7  5  1  0  0  0
  7  8  1  0  0  0
  7  2  1  0  0  0
  8  9  1  0  0  0
  9 29  1  0  0  0
  9 10  1  0  0  0
 29 30  1  0  0  0
 30 31  1  0  0  0
 31 32  1  0  0  0
 31 37  1  0  0  0
 32 33  1  0  0  0
 33 34  1  0  0  0
 34 38  1  0  0  0
 34 35  1  0  0  0
 38 39  1  0  0  0
 38 40  2  0  0  0
 38 41  2  0  0  0
 35 36  1  0  0  0
 36 31  1  0  0  0
 10 11  2  0  0  0
 10 12  1  0  0  0
 12 13  2  0  0  0
 13 14  1  0  0  0
 14 15  2  0  0  0
 15 16  1  0  0  0
 15 17  1  0  0  0
 17 18  2  0  0  0
 18 12  1  0  0  0
 18  7  1  0  0  0
M  CHG 1  31   1
M  END
> <minimizedAffinity>
-6.36751

> <CNNscore>
0.1456517577

> <CNNaffinity>
6.1232423782

> <CNN_VS>
0.8918610215

> <CNNaffinity_variance>
0.1366389990

$$$$



 41 46  0  0  0  0  0  0  0  0999 V2000
   -6.2806   -2.4546  -21.0586 C   0  0  0  0  0  0  0  0  0  0  0  0
   -7.4757   -2.5448  -21.9513 C   0  0  0  0  0  0  0  0  0  0  0  0
   -8.2859   -1.2397  -21.8787 C   0  0  0  0  0  0  0  0  0  0  0  0
   -9.0486   -1.2668  -23.1127 N   0  0  0  0  0  0  0  0  0  0  0  0
   -8.5267   -2.3045  -23.9702 C   0  0  0  0  0  0  0  0  0  0  0  0
   -9.1099   -2.8362  -24.9196 O   0  0  0  0  0  0  0  0  0  0  0  0
   -7.1423   -2.5555  -23.4230 C   0  0  0  0  0  0  0  0  0  0  0  0
   -6.3508   -1.3117  -23.7643 C   0  0  0  0  0  0  0  0  0  0  0  0
   -5.9334   -1.4447  -25.1456 N   0  0  0  0  0  0  0  0  0  0  0  0
   -5.3462   -2.6413  -25.6412 C   0  0  0  0  0  0  0  0  0  0  0  0
   -4.5595   -2.6076  -26.6333 O   0  0  0  0  0  0  0  0  0  0  0  0
   -5.6811   -3.8914  -24.9711 C   0  0  0  0  0  0  0  0  0  0  0  0
   -5.1372   -5.0678  -25.4097 C   0  0  0  0  0  0  0  0  0  0  0  0
   -5.4355   -6.2449  -24.7937 C   0  0  0  0  0  0  0  0  0  0  0  0
   -6.2994   -6.2112  -23.7189 C   0  0  0  0  0  0  0  0  0  0  0  0
   -6.6981   -7.7295  -22.9057 Cl  0  0  0  0  0  0  0  0  0  0  0  0
   -6.8529   -5.0094  -23.2737 C   0  0  0  0  0  0  0  0  0  0  0  0
   -6.5554   -3.8020  -23.8951 C   0  0  0  0  0  0  0  0  0  0  0  0
  -10.1310   -0.3894  -23.3816 C   0  0  0  0  0  0  0  0  0  0  0  0
   -9.9696    0.8930  -23.8677 C   0  0  0  0  0  0  0  0  0  0  0  0
  -11.0464    1.6336  -24.0849 N   0  0  0  0  0  0  0  0  0  0  0  0
  -12.2636    1.1690  -23.8459 C   0  0  0  0  0  0  0  0  0  0  0  0
  -12.5042   -0.1016  -23.3598 C   0  0  0  0  0  0  0  0  0  0  0  0
  -13.7709   -0.5880  -23.1097 C   0  0  0  0  0  0  0  0  0  0  0  0
  -13.9381   -1.8855  -22.6175 C   0  0  0  0  0  0  0  0  0  0  0  0
  -12.8190   -2.6889  -22.3793 C   0  0  0  0  0  0  0  0  0  0  0  0
  -11.5699   -2.1653  -22.6423 C   0  0  0  0  0  0  0  0  0  0  0  0
  -11.4050   -0.8952  -23.1242 C   0  0  0  0  0  0  0  0  0  0  0  0
   -6.0946   -0.3456  -26.0789 C   0  0  0  0  0  0  0  0  0  0  0  0
   -5.4246    0.9005  -25.6693 C   0  0  0  0  0  0  0  0  0  0  0  0
   -6.2084    2.0927  -25.6168 N   0  0  0  0  0  0  0  0  0  0  0  0
   -7.4771    1.8065  -26.2703 C   0  0  0  0  0  0  0  0  0  0  0  0
   -8.2372    3.0698  -26.5051 C   0  0  0  0  0  0  0  0  0  0  0  0
   -8.3844    3.8089  -25.2921 N   0  0  0  0  0  0  0  0  0  0  0  0
   -7.2324    3.8793  -24.4561 C   0  0  0  0  0  0  0  0  0  0  0  0
   -6.5622    2.5091  -24.2814 C   0  0  0  0  0  0  0  0  0  0  0  0
   -5.6479    2.8261  -26.0507 H   0  0  0  0  0  0  0  0  0  0  0  0
   -9.0130    5.3839  -25.4960 S   0  0  0  0  0  0  0  0  0  0  0  0
   -8.0704    6.3412  -26.6540 C   0  0  0  0  0  0  0  0  0  0  0  0
   -9.0283    6.1386  -24.1736 O   0  0  0  0  0  0  0  0  0  0  0  0
  -10.4451    5.2752  -25.9296 O   0  0  0  0  0  0  0  0  0  0  0  0
  2  1  1  0  0  0
  2  3  1  0  0  0
  3  4  1  0  0  0
  4 19  1  0  0  0
  4  5  1  0  0  0
 19 20  2  0  0  0
 20 21  1  0  0  0
 21 22  2  0  0  0
 22 23  1  0  0  0
 23 24  2  0  0  0
 24 25  1  0  0  0
 25 26  2  0  0  0
 26 27  1  0  0  0
 27 28  2  0  0  0
 28 19  1  0  0  0
 28 23  1  0  0  0
  5  6  2  0  0  0
  7  5  1  0  0  0
  7  8  1  0  0  0
  7  2  1  0  0  0
  8  9  1  0  0  0
  9 29  1  0  0  0
  9 10  1  0  0  0
 29 30  1  0  0  0
 30 31  1  0  0  0
 31 32  1  0  0  0
 31 37  1  0  0  0
 32 33  1  0  0  0
 33 34  1  0  0  0
 34 38  1  0  0  0
 34 35  1  0  0  0
 38 39  1  0  0  0
 38 40  2  0  0  0
 38 41  2  0  0  0
 35 36  1  0  0  0
 36 31  1  0  0  0
 10 11  2  0  0  0
 10 12  1  0  0  0
 12 13  2  0  0  0
 13 14  1  0  0  0
 14 15  2  0  0  0
 15 16  1  0  0  0
 15 17  1  0  0  0
 17 18  2  0  0  0
 18 12  1  0  0  0
 18  7  1  0  0  0
M  CHG 1  31   1
M  END
> <minimizedAffinity>
-6.43468

> <CNNscore>
0.1358583570

> <CNNaffinity>
6.2103834152

> <CNN_VS>
0.8437324762

> <CNNaffinity_variance>
0.2157958448

$$$$



 41 46  0  0  0  0  0  0  0  0999 V2000
   -5.5068    5.0299  -23.8072 C   0  0  0  0  0  0  0  0  0  0  0  0
   -4.6742    4.0021  -23.1114 C   0  0  0  0  0  0  0  0  0  0  0  0
   -5.5080    3.2938  -22.0306 C   0  0  0  0  0  0  0  0  0  0  0  0
   -4.7871    2.0503  -21.8333 N   0  0  0  0  0  0  0  0  0  0  0  0
   -3.8168    1.8916  -22.8905 C   0  0  0  0  0  0  0  0  0  0  0  0
   -2.8231    1.1591  -22.8726 O   0  0  0  0  0  0  0  0  0  0  0  0
   -4.3164    2.8166  -23.9739 C   0  0  0  0  0  0  0  0  0  0  0  0
   -5.5855    2.1731  -24.4889 C   0  0  0  0  0  0  0  0  0  0  0  0
   -5.1842    1.1401  -25.4225 N   0  0  0  0  0  0  0  0  0  0  0  0
   -4.2198    1.3800  -26.4398 C   0  0  0  0  0  0  0  0  0  0  0  0
   -4.2324    0.7018  -27.5094 O   0  0  0  0  0  0  0  0  0  0  0  0
   -3.2297    2.4233  -26.2056 C   0  0  0  0  0  0  0  0  0  0  0  0
   -2.2844    2.6931  -27.1574 C   0  0  0  0  0  0  0  0  0  0  0  0
   -1.3538    3.6668  -26.9579 C   0  0  0  0  0  0  0  0  0  0  0  0
   -1.3963    4.3679  -25.7707 C   0  0  0  0  0  0  0  0  0  0  0  0
   -0.1966    5.6366  -25.4937 Cl  0  0  0  0  0  0  0  0  0  0  0  0
   -2.3618    4.0905  -24.8014 C   0  0  0  0  0  0  0  0  0  0  0  0
   -3.3165    3.0986  -24.9945 C   0  0  0  0  0  0  0  0  0  0  0  0
   -5.0354    1.1665  -20.7511 C   0  0  0  0  0  0  0  0  0  0  0  0
   -4.2424    1.1024  -19.6224 C   0  0  0  0  0  0  0  0  0  0  0  0
   -4.5598    0.2409  -18.6673 N   0  0  0  0  0  0  0  0  0  0  0  0
   -5.6149   -0.5524  -18.7759 C   0  0  0  0  0  0  0  0  0  0  0  0
   -6.4541   -0.5458  -19.8733 C   0  0  0  0  0  0  0  0  0  0  0  0
   -7.5537   -1.3712  -19.9891 C   0  0  0  0  0  0  0  0  0  0  0  0
   -8.3585   -1.3092  -21.1303 C   0  0  0  0  0  0  0  0  0  0  0  0
   -8.0467   -0.4090  -22.1536 C   0  0  0  0  0  0  0  0  0  0  0  0
   -6.9389    0.3988  -21.9993 C   0  0  0  0  0  0  0  0  0  0  0  0
   -6.1503    0.3389  -20.8826 C   0  0  0  0  0  0  0  0  0  0  0  0
   -5.7659   -0.1875  -25.3558 C   0  0  0  0  0  0  0  0  0  0  0  0
   -4.9116   -1.1910  -24.6980 C   0  0  0  0  0  0  0  0  0  0  0  0
   -5.2398   -2.5684  -24.8807 N   0  0  0  0  0  0  0  0  0  0  0  0
   -6.6906   -2.6628  -24.9512 C   0  0  0  0  0  0  0  0  0  0  0  0
   -7.1236   -4.0886  -24.8603 C   0  0  0  0  0  0  0  0  0  0  0  0
   -6.4605   -4.8861  -25.8419 N   0  0  0  0  0  0  0  0  0  0  0  0
   -5.0703   -4.6305  -26.0239 C   0  0  0  0  0  0  0  0  0  0  0  0
   -4.7686   -3.1284  -26.1241 C   0  0  0  0  0  0  0  0  0  0  0  0
   -4.8052   -3.0736  -24.1085 H   0  0  0  0  0  0  0  0  0  0  0  0
   -6.6909   -6.5686  -25.6588 S   0  0  0  0  0  0  0  0  0  0  0  0
   -5.1703   -7.4740  -25.7770 C   0  0  0  0  0  0  0  0  0  0  0  0
   -7.6358   -7.1071  -26.7246 O   0  0  0  0  0  0  0  0  0  0  0  0
   -7.3635   -6.8190  -24.3414 O   0  0  0  0  0  0  0  0  0  0  0  0
  2  1  1  0  0  0
  2  3  1  0  0  0
  3  4  1  0  0  0
  4 19  1  0  0  0
  4  5  1  0  0  0
 19 20  2  0  0  0
 20 21  1  0  0  0
 21 22  2  0  0  0
 22 23  1  0  0  0
 23 24  2  0  0  0
 24 25  1  0  0  0
 25 26  2  0  0  0
 26 27  1  0  0  0
 27 28  2  0  0  0
 28 19  1  0  0  0
 28 23  1  0  0  0
  5  6  2  0  0  0
  7  5  1  0  0  0
  7  8  1  0  0  0
  7  2  1  0  0  0
  8  9  1  0  0  0
  9 29  1  0  0  0
  9 10  1  0  0  0
 29 30  1  0  0  0
 30 31  1  0  0  0
 31 32  1  0  0  0
 31 37  1  0  0  0
 32 33  1  0  0  0
 33 34  1  0  0  0
 34 38  1  0  0  0
 34 35  1  0  0  0
 38 39  1  0  0  0
 38 40  2  0  0  0
 38 41  2  0  0  0
 35 36  1  0  0  0
 36 31  1  0  0  0
 10 11  2  0  0  0
 10 12  1  0  0  0
 12 13  2  0  0  0
 13 14  1  0  0  0
 14 15  2  0  0  0
 15 16  1  0  0  0
 15 17  1  0  0  0
 17 18  2  0  0  0
 18 12  1  0  0  0
 18  7  1  0  0  0
M  CHG 1  31   1
M  END
> <minimizedAffinity>
-6.57775

> <CNNscore>
0.1247580647

> <CNNaffinity>
5.8287339211

> <CNN_VS>
0.7271815538

> <CNNaffinity_variance>
0.1160646901

$$$$



 41 46  0  0  0  0  0  0  0  0999 V2000
   -4.9103    4.6129  -24.1636 C   0  0  0  0  0  0  0  0  0  0  0  0
   -4.6059    3.2855  -23.5482 C   0  0  0  0  0  0  0  0  0  0  0  0
   -5.8689    2.7116  -22.8845 C   0  0  0  0  0  0  0  0  0  0  0  0
   -5.5780    1.2919  -22.8156 N   0  0  0  0  0  0  0  0  0  0  0  0
   -4.4167    1.0059  -23.6244 C   0  0  0  0  0  0  0  0  0  0  0  0
   -3.6920    0.0097  -23.5439 O   0  0  0  0  0  0  0  0  0  0  0  0
   -4.3278    2.1936  -24.5520 C   0  0  0  0  0  0  0  0  0  0  0  0
   -5.5132    2.0579  -25.4828 C   0  0  0  0  0  0  0  0  0  0  0  0
   -5.1356    1.1067  -26.5086 N   0  0  0  0  0  0  0  0  0  0  0  0
   -3.8899    1.1908  -27.1895 C   0  0  0  0  0  0  0  0  0  0  0  0
   -3.7642    0.7208  -28.3589 O   0  0  0  0  0  0  0  0  0  0  0  0
   -2.7785    1.8306  -26.4972 C   0  0  0  0  0  0  0  0  0  0  0  0
   -1.5618    1.9386  -27.1138 C   0  0  0  0  0  0  0  0  0  0  0  0
   -0.5130    2.5367  -26.4842 C   0  0  0  0  0  0  0  0  0  0  0  0
   -0.7178    3.0272  -25.2113 C   0  0  0  0  0  0  0  0  0  0  0  0
    0.6319    3.8078  -24.3780 Cl  0  0  0  0  0  0  0  0  0  0  0  0
   -1.9602    2.9155  -24.5847 C   0  0  0  0  0  0  0  0  0  0  0  0
   -3.0377    2.3068  -25.2181 C   0  0  0  0  0  0  0  0  0  0  0  0
   -6.3460    0.3730  -22.0542 C   0  0  0  0  0  0  0  0  0  0  0  0
   -7.4254   -0.3225  -22.5622 C   0  0  0  0  0  0  0  0  0  0  0  0
   -8.0779   -1.1577  -21.7675 N   0  0  0  0  0  0  0  0  0  0  0  0
   -7.7157   -1.3351  -20.5058 C   0  0  0  0  0  0  0  0  0  0  0  0
   -6.6483   -0.6759  -19.9274 C   0  0  0  0  0  0  0  0  0  0  0  0
   -6.2690   -0.8587  -18.6134 C   0  0  0  0  0  0  0  0  0  0  0  0
   -5.1772   -0.1563  -18.0957 C   0  0  0  0  0  0  0  0  0  0  0  0
   -4.4704    0.7316  -18.9124 C   0  0  0  0  0  0  0  0  0  0  0  0
   -4.8815    0.8859  -20.2203 C   0  0  0  0  0  0  0  0  0  0  0  0
   -5.9504    0.1988  -20.7282 C   0  0  0  0  0  0  0  0  0  0  0  0
   -6.0298    0.0284  -26.8865 C   0  0  0  0  0  0  0  0  0  0  0  0
   -5.7285   -1.2622  -26.2438 C   0  0  0  0  0  0  0  0  0  0  0  0
   -6.5366   -2.3859  -26.5937 N   0  0  0  0  0  0  0  0  0  0  0  0
   -6.0317   -3.5312  -25.8508 C   0  0  0  0  0  0  0  0  0  0  0  0
   -6.6374   -4.7940  -26.3677 C   0  0  0  0  0  0  0  0  0  0  0  0
   -8.0631   -4.7111  -26.3714 N   0  0  0  0  0  0  0  0  0  0  0  0
   -8.6192   -3.4800  -26.8255 C   0  0  0  0  0  0  0  0  0  0  0  0
   -7.9192   -2.2654  -26.1993 C   0  0  0  0  0  0  0  0  0  0  0  0
   -6.4919   -2.4686  -27.6094 H   0  0  0  0  0  0  0  0  0  0  0  0
   -8.8438   -5.9981  -27.1786 S   0  0  0  0  0  0  0  0  0  0  0  0
  -10.4989   -6.2547  -26.5949 C   0  0  0  0  0  0  0  0  0  0  0  0
   -8.0784   -7.3011  -26.9918 O   0  0  0  0  0  0  0  0  0  0  0  0
   -8.8320   -5.7162  -28.6521 O   0  0  0  0  0  0  0  0  0  0  0  0
  2  1  1  0  0  0
  2  3  1  0  0  0
  3  4  1  0  0  0
  4 19  1  0  0  0
  4  5  1  0  0  0
 19 20  2  0  0  0
 20 21  1  0  0  0
 21 22  2  0  0  0
 22 23  1  0  0  0
 23 24  2  0  0  0
 24 25  1  0  0  0
 25 26  2  0  0  0
 26 27  1  0  0  0
 27 28  2  0  0  0
 28 19  1  0  0  0
 28 23  1  0  0  0
  5  6  2  0  0  0
  7  5  1  0  0  0
  7  8  1  0  0  0
  7  2  1  0  0  0
  8  9  1  0  0  0
  9 29  1  0  0  0
  9 10  1  0  0  0
 29 30  1  0  0  0
 30 31  1  0  0  0
 31 32  1  0  0  0
 31 37  1  0  0  0
 32 33  1  0  0  0
 33 34  1  0  0  0
 34 38  1  0  0  0
 34 35  1  0  0  0
 38 39  1  0  0  0
 38 40  2  0  0  0
 38 41  2  0  0  0
 35 36  1  0  0  0
 36 31  1  0  0  0
 10 11  2  0  0  0
 10 12  1  0  0  0
 12 13  2  0  0  0
 13 14  1  0  0  0
 14 15  2  0  0  0
 15 16  1  0  0  0
 15 17  1  0  0  0
 17 18  2  0  0  0
 18 12  1  0  0  0
 18  7  1  0  0  0
M  CHG 1  31   1
M  END
> <minimizedAffinity>
-6.75882

> <CNNscore>
0.1242742240

> <CNNaffinity>
5.7671618462

> <CNN_VS>
0.7167095542

> <CNNaffinity_variance>
0.1914223731

$$$$



 41 46  0  0  0  0  0  0  0  0999 V2000
   -4.3501    4.5135  -23.3122 C   0  0  0  0  0  0  0  0  0  0  0  0
   -3.9653    3.4480  -22.3375 C   0  0  0  0  0  0  0  0  0  0  0  0
   -5.2259    2.7704  -21.7745 C   0  0  0  0  0  0  0  0  0  0  0  0
   -4.7198    1.4965  -21.2990 N   0  0  0  0  0  0  0  0  0  0  0  0
   -3.3794    1.3020  -21.7993 C   0  0  0  0  0  0  0  0  0  0  0  0
   -2.5308    0.5280  -21.3465 O   0  0  0  0  0  0  0  0  0  0  0  0
   -3.2947    2.2527  -22.9689 C   0  0  0  0  0  0  0  0  0  0  0  0
   -4.2093    1.6661  -24.0222 C   0  0  0  0  0  0  0  0  0  0  0  0
   -3.4621    0.6216  -24.6934 N   0  0  0  0  0  0  0  0  0  0  0  0
   -2.1313    0.8254  -25.1513 C   0  0  0  0  0  0  0  0  0  0  0  0
   -1.6769    0.1536  -26.1242 O   0  0  0  0  0  0  0  0  0  0  0  0
   -1.3218    1.8247  -24.4658 C   0  0  0  0  0  0  0  0  0  0  0  0
   -0.0368    2.0588  -24.8735 C   0  0  0  0  0  0  0  0  0  0  0  0
    0.7331    2.9912  -24.2476 C   0  0  0  0  0  0  0  0  0  0  0  0
    0.1768    3.6877  -23.1949 C   0  0  0  0  0  0  0  0  0  0  0  0
    1.1609    4.9030  -22.3701 Cl  0  0  0  0  0  0  0  0  0  0  0  0
   -1.1344    3.4466  -22.7810 C   0  0  0  0  0  0  0  0  0  0  0  0
   -1.9293    2.4971  -23.4126 C   0  0  0  0  0  0  0  0  0  0  0  0
   -5.4669    0.6188  -20.4713 C   0  0  0  0  0  0  0  0  0  0  0  0
   -5.2021    0.4266  -19.1297 C   0  0  0  0  0  0  0  0  0  0  0  0
   -5.9592   -0.4170  -18.4440 N   0  0  0  0  0  0  0  0  0  0  0  0
   -6.9564   -1.0730  -19.0183 C   0  0  0  0  0  0  0  0  0  0  0  0
   -7.2815   -0.9332  -20.3537 C   0  0  0  0  0  0  0  0  0  0  0  0
   -8.3195   -1.6154  -20.9544 C   0  0  0  0  0  0  0  0  0  0  0  0
   -8.5903   -1.4236  -22.3122 C   0  0  0  0  0  0  0  0  0  0  0  0
   -7.8072   -0.5390  -23.0597 C   0  0  0  0  0  0  0  0  0  0  0  0
   -6.7789    0.1237  -22.4218 C   0  0  0  0  0  0  0  0  0  0  0  0
   -6.5128   -0.0633  -21.0926 C   0  0  0  0  0  0  0  0  0  0  0  0
   -4.0565   -0.6804  -24.9314 C   0  0  0  0  0  0  0  0  0  0  0  0
   -5.2141   -0.6609  -25.8418 C   0  0  0  0  0  0  0  0  0  0  0  0
   -5.8733   -1.8990  -26.1085 N   0  0  0  0  0  0  0  0  0  0  0  0
   -7.1912   -1.5828  -26.6393 C   0  0  0  0  0  0  0  0  0  0  0  0
   -8.0427   -2.8084  -26.6800 C   0  0  0  0  0  0  0  0  0  0  0  0
   -7.3884   -3.8601  -27.3908 N   0  0  0  0  0  0  0  0  0  0  0  0
   -5.9998   -4.0317  -27.1200 C   0  0  0  0  0  0  0  0  0  0  0  0
   -5.2410   -2.6971  -27.1308 C   0  0  0  0  0  0  0  0  0  0  0  0
   -5.8679   -2.4233  -25.2336 H   0  0  0  0  0  0  0  0  0  0  0  0
   -8.1626   -5.3783  -27.2772 S   0  0  0  0  0  0  0  0  0  0  0  0
   -9.0828   -5.5546  -25.7712 C   0  0  0  0  0  0  0  0  0  0  0  0
   -7.1477   -6.5119  -27.3365 O   0  0  0  0  0  0  0  0  0  0  0  0
   -9.0516   -5.5529  -28.4730 O   0  0  0  0  0  0  0  0  0  0  0  0
  2  1  1  0  0  0
  2  3  1  0  0  0
  3  4  1  0  0  0
  4 19  1  0  0  0
  4  5  1  0  0  0
 19 20  2  0  0  0
 20 21  1  0  0  0
 21 22  2  0  0  0
 22 23  1  0  0  0
 23 24  2  0  0  0
 24 25  1  0  0  0
 25 26  2  0  0  0
 26 27  1  0  0  0
 27 28  2  0  0  0
 28 19  1  0  0  0
 28 23  1  0  0  0
  5  6  2  0  0  0
  7  5  1  0  0  0
  7  8  1  0  0  0
  7  2  1  0  0  0
  8  9  1  0  0  0
  9 29  1  0  0  0
  9 10  1  0  0  0
 29 30  1  0  0  0
 30 31  1  0  0  0
 31 32  1  0  0  0
 31 37  1  0  0  0
 32 33  1  0  0  0
 33 34  1  0  0  0
 34 38  1  0  0  0
 34 35  1  0  0  0
 38 39  1  0  0  0
 38 40  2  0  0  0
 38 41  2  0  0  0
 35 36  1  0  0  0
 36 31  1  0  0  0
 10 11  2  0  0  0
 10 12  1  0  0  0
 12 13  2  0  0  0
 13 14  1  0  0  0
 14 15  2  0  0  0
 15 16  1  0  0  0
 15 17  1  0  0  0
 17 18  2  0  0  0
 18 12  1  0  0  0
 18  7  1  0  0  0
M  CHG 1  31   1
M  END
> <minimizedAffinity>
-6.67752

> <CNNscore>
0.1219377816

> <CNNaffinity>
5.7539196014

> <CNN_VS>
0.7016202211

> <CNNaffinity_variance>
0.1697049290

$$$$



 41 46  0  0  0  0  0  0  0  0999 V2000
  -12.1010   -2.4788  -22.5812 C   0  0  0  0  0  0  0  0  0  0  0  0
  -11.3518   -1.7289  -23.6347 C   0  0  0  0  0  0  0  0  0  0  0  0
  -11.4619   -0.2160  -23.3817 C   0  0  0  0  0  0  0  0  0  0  0  0
  -10.3230    0.3141  -24.1077 N   0  0  0  0  0  0  0  0  0  0  0  0
   -9.4550   -0.7748  -24.4890 C   0  0  0  0  0  0  0  0  0  0  0  0
   -8.5989   -0.7557  -25.3783 O   0  0  0  0  0  0  0  0  0  0  0  0
   -9.8537   -1.8916  -23.5548 C   0  0  0  0  0  0  0  0  0  0  0  0
   -9.3763   -1.4527  -22.1875 C   0  0  0  0  0  0  0  0  0  0  0  0
   -7.9635   -1.7665  -22.1146 N   0  0  0  0  0  0  0  0  0  0  0  0
   -7.4539   -3.0338  -22.5105 C   0  0  0  0  0  0  0  0  0  0  0  0
   -6.3796   -3.4791  -22.0089 O   0  0  0  0  0  0  0  0  0  0  0  0
   -8.2070   -3.7894  -23.5034 C   0  0  0  0  0  0  0  0  0  0  0  0
   -7.7580   -5.0156  -23.9123 C   0  0  0  0  0  0  0  0  0  0  0  0
   -8.4503   -5.7377  -24.8360 C   0  0  0  0  0  0  0  0  0  0  0  0
   -9.6127   -5.1944  -25.3423 C   0  0  0  0  0  0  0  0  0  0  0  0
  -10.5258   -6.1176  -26.5422 Cl  0  0  0  0  0  0  0  0  0  0  0  0
  -10.0683   -3.9431  -24.9233 C   0  0  0  0  0  0  0  0  0  0  0  0
   -9.3695   -3.1973  -23.9810 C   0  0  0  0  0  0  0  0  0  0  0  0
  -10.1417    1.6958  -24.3759 C   0  0  0  0  0  0  0  0  0  0  0  0
   -9.1712    2.1857  -25.2274 C   0  0  0  0  0  0  0  0  0  0  0  0
   -9.0838    3.4949  -25.4097 N   0  0  0  0  0  0  0  0  0  0  0  0
   -9.9039    4.3339  -24.7948 C   0  0  0  0  0  0  0  0  0  0  0  0
  -10.8981    3.9193  -23.9298 C   0  0  0  0  0  0  0  0  0  0  0  0
  -11.7535    4.7910  -23.2878 C   0  0  0  0  0  0  0  0  0  0  0  0
  -12.7369    4.2987  -22.4251 C   0  0  0  0  0  0  0  0  0  0  0  0
  -12.8516    2.9213  -22.2144 C   0  0  0  0  0  0  0  0  0  0  0  0
  -11.9770    2.0834  -22.8752 C   0  0  0  0  0  0  0  0  0  0  0  0
  -11.0139    2.5642  -23.7200 C   0  0  0  0  0  0  0  0  0  0  0  0
   -7.0107   -0.7899  -21.6213 C   0  0  0  0  0  0  0  0  0  0  0  0
   -6.0876   -0.2726  -22.6458 C   0  0  0  0  0  0  0  0  0  0  0  0
   -6.0023    1.1428  -22.8127 N   0  0  0  0  0  0  0  0  0  0  0  0
   -7.0742    1.7372  -22.0277 C   0  0  0  0  0  0  0  0  0  0  0  0
   -7.2277    3.1826  -22.3684 C   0  0  0  0  0  0  0  0  0  0  0  0
   -5.9846    3.8725  -22.2347 N   0  0  0  0  0  0  0  0  0  0  0  0
   -4.8343    3.1965  -22.7357 C   0  0  0  0  0  0  0  0  0  0  0  0
   -4.7903    1.7273  -22.2921 C   0  0  0  0  0  0  0  0  0  0  0  0
   -6.0455    1.3183  -23.8165 H   0  0  0  0  0  0  0  0  0  0  0  0
   -5.9929    5.4685  -22.8432 S   0  0  0  0  0  0  0  0  0  0  0  0
   -6.0993    5.5145  -24.6130 C   0  0  0  0  0  0  0  0  0  0  0  0
   -4.7289    6.2127  -22.4345 O   0  0  0  0  0  0  0  0  0  0  0  0
   -7.1350    6.2133  -22.2173 O   0  0  0  0  0  0  0  0  0  0  0  0
  2  1  1  0  0  0
  2  3  1  0  0  0
  3  4  1  0  0  0
  4 19  1  0  0  0
  4  5  1  0  0  0
 19 20  2  0  0  0
 20 21  1  0  0  0
 21 22  2  0  0  0
 22 23  1  0  0  0
 23 24  2  0  0  0
 24 25  1  0  0  0
 25 26  2  0  0  0
 26 27  1  0  0  0
 27 28  2  0  0  0
 28 19  1  0  0  0
 28 23  1  0  0  0
  5  6  2  0  0  0
  7  5  1  0  0  0
  7  8  1  0  0  0
  7  2  1  0  0  0
  8  9  1  0  0  0
  9 29  1  0  0  0
  9 10  1  0  0  0
 29 30  1  0  0  0
 30 31  1  0  0  0
 31 32  1  0  0  0
 31 37  1  0  0  0
 32 33  1  0  0  0
 33 34  1  0  0  0
 34 38  1  0  0  0
 34 35  1  0  0  0
 38 39  1  0  0  0
 38 40  2  0  0  0
 38 41  2  0  0  0
 35 36  1  0  0  0
 36 31  1  0  0  0
 10 11  2  0  0  0
 10 12  1  0  0  0
 12 13  2  0  0  0
 13 14  1  0  0  0
 14 15  2  0  0  0
 15 16  1  0  0  0
 15 17  1  0  0  0
 17 18  2  0  0  0
 18 12  1  0  0  0
 18  7  1  0  0  0
M  CHG 1  31   1
M  END
> <minimizedAffinity>
-8.60903

> <CNNscore>
0.1125011519

> <CNNaffinity>
6.2695446014

> <CNN_VS>
0.7053309679

> <CNNaffinity_variance>
0.3249850571

$$$$



 41 46  0  0  0  0  0  0  0  0999 V2000
   -3.7968    5.1592  -22.7714 C   0  0  0  0  0  0  0  0  0  0  0  0
   -3.8376    3.7047  -22.4305 C   0  0  0  0  0  0  0  0  0  0  0  0
   -5.2930    3.2546  -22.2205 C   0  0  0  0  0  0  0  0  0  0  0  0
   -5.2169    1.8197  -22.4211 N   0  0  0  0  0  0  0  0  0  0  0  0
   -3.9329    1.4880  -22.9920 C   0  0  0  0  0  0  0  0  0  0  0  0
   -3.3896    0.3794  -22.9853 O   0  0  0  0  0  0  0  0  0  0  0  0
   -3.4529    2.7964  -23.5724 C   0  0  0  0  0  0  0  0  0  0  0  0
   -4.3634    3.0636  -24.7511 C   0  0  0  0  0  0  0  0  0  0  0  0
   -3.8594    2.2768  -25.8587 N   0  0  0  0  0  0  0  0  0  0  0  0
   -2.4797    2.2615  -26.2032 C   0  0  0  0  0  0  0  0  0  0  0  0
   -2.1171    2.0125  -27.3909 O   0  0  0  0  0  0  0  0  0  0  0  0
   -1.5126    2.5399  -25.1491 C   0  0  0  0  0  0  0  0  0  0  0  0
   -0.1743    2.5404  -25.4337 C   0  0  0  0  0  0  0  0  0  0  0  0
    0.7437    2.8022  -24.4627 C   0  0  0  0  0  0  0  0  0  0  0  0
    0.2812    3.0654  -23.1901 C   0  0  0  0  0  0  0  0  0  0  0  0
    1.4580    3.4083  -21.9161 Cl  0  0  0  0  0  0  0  0  0  0  0  0
   -1.0849    3.0641  -22.9026 C   0  0  0  0  0  0  0  0  0  0  0  0
   -2.0307    2.7981  -23.8861 C   0  0  0  0  0  0  0  0  0  0  0  0
   -6.2688    0.9273  -22.0879 C   0  0  0  0  0  0  0  0  0  0  0  0
   -7.3336    0.6582  -22.9249 C   0  0  0  0  0  0  0  0  0  0  0  0
   -8.2658   -0.1911  -22.5191 N   0  0  0  0  0  0  0  0  0  0  0  0
   -8.1943   -0.7808  -21.3352 C   0  0  0  0  0  0  0  0  0  0  0  0
   -7.1611   -0.5621  -20.4445 C   0  0  0  0  0  0  0  0  0  0  0  0
   -7.0842   -1.1748  -19.2106 C   0  0  0  0  0  0  0  0  0  0  0  0
   -6.0080   -0.9047  -18.3607 C   0  0  0  0  0  0  0  0  0  0  0  0
   -5.0099   -0.0125  -18.7638 C   0  0  0  0  0  0  0  0  0  0  0  0
   -5.1237    0.5792  -20.0050 C   0  0  0  0  0  0  0  0  0  0  0  0
   -6.1769    0.3155  -20.8379 C   0  0  0  0  0  0  0  0  0  0  0  0
   -4.7572    1.4750  -26.6688 C   0  0  0  0  0  0  0  0  0  0  0  0
   -4.5558    0.0217  -26.5391 C   0  0  0  0  0  0  0  0  0  0  0  0
   -5.6190   -0.7514  -25.9819 N   0  0  0  0  0  0  0  0  0  0  0  0
   -6.3572   -1.3364  -27.0916 C   0  0  0  0  0  0  0  0  0  0  0  0
   -7.6412   -1.9253  -26.6085 C   0  0  0  0  0  0  0  0  0  0  0  0
   -7.4101   -2.8449  -25.5407 N   0  0  0  0  0  0  0  0  0  0  0  0
   -6.4603   -2.4404  -24.5581 C   0  0  0  0  0  0  0  0  0  0  0  0
   -5.1807   -1.8759  -25.1913 C   0  0  0  0  0  0  0  0  0  0  0  0
   -6.1532   -0.1199  -25.3851 H   0  0  0  0  0  0  0  0  0  0  0  0
   -8.8263   -3.3795  -24.7493 S   0  0  0  0  0  0  0  0  0  0  0  0
   -9.5568   -4.7833  -25.5501 C   0  0  0  0  0  0  0  0  0  0  0  0
   -9.8731   -2.2746  -24.7030 O   0  0  0  0  0  0  0  0  0  0  0  0
   -8.4877   -3.6919  -23.3216 O   0  0  0  0  0  0  0  0  0  0  0  0
  2  1  1  0  0  0
  2  3  1  0  0  0
  3  4  1  0  0  0
  4 19  1  0  0  0
  4  5  1  0  0  0
 19 20  2  0  0  0
 20 21  1  0  0  0
 21 22  2  0  0  0
 22 23  1  0  0  0
 23 24  2  0  0  0
 24 25  1  0  0  0
 25 26  2  0  0  0
 26 27  1  0  0  0
 27 28  2  0  0  0
 28 19  1  0  0  0
 28 23  1  0  0  0
  5  6  2  0  0  0
  7  5  1  0  0  0
  7  8  1  0  0  0
  7  2  1  0  0  0
  8  9  1  0  0  0
  9 29  1  0  0  0
  9 10  1  0  0  0
 29 30  1  0  0  0
 30 31  1  0  0  0
 31 32  1  0  0  0
 31 37  1  0  0  0
 32 33  1  0  0  0
 33 34  1  0  0  0
 34 38  1  0  0  0
 34 35  1  0  0  0
 38 39  1  0  0  0
 38 40  2  0  0  0
 38 41  2  0  0  0
 35 36  1  0  0  0
 36 31  1  0  0  0
 10 11  2  0  0  0
 10 12  1  0  0  0
 12 13  2  0  0  0
 13 14  1  0  0  0
 14 15  2  0  0  0
 15 16  1  0  0  0
 15 17  1  0  0  0
 17 18  2  0  0  0
 18 12  1  0  0  0
 18  7  1  0  0  0
M  CHG 1  31   1
M  END
> <minimizedAffinity>
-5.87879

> <CNNscore>
0.1047098041

> <CNNaffinity>
5.6290092468

> <CNN_VS>
0.5894124508

> <CNNaffinity_variance>
0.2826163471

$$$$



 41 46  0  0  0  0  0  0  0  0999 V2000
   -4.6422   -0.2141  -20.6059 C   0  0  0  0  0  0  0  0  0  0  0  0
   -4.3652   -0.1331  -22.0723 C   0  0  0  0  0  0  0  0  0  0  0  0
   -5.6165   -0.5426  -22.8671 C   0  0  0  0  0  0  0  0  0  0  0  0
   -5.3850    0.0645  -24.1643 N   0  0  0  0  0  0  0  0  0  0  0  0
   -4.2805    0.9890  -24.0652 C   0  0  0  0  0  0  0  0  0  0  0  0
   -3.5970    1.4207  -24.9983 O   0  0  0  0  0  0  0  0  0  0  0  0
   -4.1873    1.2746  -22.5857 C   0  0  0  0  0  0  0  0  0  0  0  0
   -5.4237    2.0843  -22.2607 C   0  0  0  0  0  0  0  0  0  0  0  0
   -5.1414    3.4539  -22.6407 N   0  0  0  0  0  0  0  0  0  0  0  0
   -3.9298    4.1013  -22.2728 C   0  0  0  0  0  0  0  0  0  0  0  0
   -3.8851    5.3616  -22.1555 O   0  0  0  0  0  0  0  0  0  0  0  0
   -2.7573    3.2679  -22.0393 C   0  0  0  0  0  0  0  0  0  0  0  0
   -1.5703    3.8454  -21.6793 C   0  0  0  0  0  0  0  0  0  0  0  0
   -0.4654    3.0826  -21.4532 C   0  0  0  0  0  0  0  0  0  0  0  0
   -0.5827    1.7159  -21.5986 C   0  0  0  0  0  0  0  0  0  0  0  0
    0.8410    0.7086  -21.3086 Cl  0  0  0  0  0  0  0  0  0  0  0  0
   -1.7951    1.1294  -21.9661 C   0  0  0  0  0  0  0  0  0  0  0  0
   -2.9293    1.8985  -22.1994 C   0  0  0  0  0  0  0  0  0  0  0  0
   -6.1525   -0.2413  -25.3182 C   0  0  0  0  0  0  0  0  0  0  0  0
   -7.3156    0.4214  -25.6572 C   0  0  0  0  0  0  0  0  0  0  0  0
   -7.9597    0.0587  -26.7566 N   0  0  0  0  0  0  0  0  0  0  0  0
   -7.5110   -0.9198  -27.5285 C   0  0  0  0  0  0  0  0  0  0  0  0
   -6.3568   -1.6278  -27.2549 C   0  0  0  0  0  0  0  0  0  0  0  0
   -5.8873   -2.6474  -28.0572 C   0  0  0  0  0  0  0  0  0  0  0  0
   -4.7105   -3.3206  -27.7170 C   0  0  0  0  0  0  0  0  0  0  0  0
   -4.0105   -2.9581  -26.5623 C   0  0  0  0  0  0  0  0  0  0  0  0
   -4.5132   -1.9335  -25.7871 C   0  0  0  0  0  0  0  0  0  0  0  0
   -5.6652   -1.2738  -26.1192 C   0  0  0  0  0  0  0  0  0  0  0  0
   -6.1004    4.2231  -23.4113 C   0  0  0  0  0  0  0  0  0  0  0  0
   -7.1505    4.8664  -22.6034 C   0  0  0  0  0  0  0  0  0  0  0  0
   -8.5064    4.7017  -23.0194 N   0  0  0  0  0  0  0  0  0  0  0  0
   -8.8343    5.8260  -23.8836 C   0  0  0  0  0  0  0  0  0  0  0  0
  -10.3054    5.8781  -24.1327 C   0  0  0  0  0  0  0  0  0  0  0  0
  -10.7823    4.6281  -24.6319 N   0  0  0  0  0  0  0  0  0  0  0  0
  -10.2622    3.4606  -24.0015 C   0  0  0  0  0  0  0  0  0  0  0  0
   -8.7383    3.5295  -23.8280 C   0  0  0  0  0  0  0  0  0  0  0  0
   -9.0626    4.6272  -22.1677 H   0  0  0  0  0  0  0  0  0  0  0  0
  -12.4839    4.5002  -24.7080 S   0  0  0  0  0  0  0  0  0  0  0  0
  -13.1244    4.9646  -26.2954 C   0  0  0  0  0  0  0  0  0  0  0  0
  -13.1432    5.3901  -23.6630 O   0  0  0  0  0  0  0  0  0  0  0  0
  -12.8740    3.0935  -24.3625 O   0  0  0  0  0  0  0  0  0  0  0  0
  2  1  1  0  0  0
  2  3  1  0  0  0
  3  4  1  0  0  0
  4 19  1  0  0  0
  4  5  1  0  0  0
 19 20  2  0  0  0
 20 21  1  0  0  0
 21 22  2  0  0  0
 22 23  1  0  0  0
 23 24  2  0  0  0
 24 25  1  0  0  0
 25 26  2  0  0  0
 26 27  1  0  0  0
 27 28  2  0  0  0
 28 19  1  0  0  0
 28 23  1  0  0  0
  5  6  2  0  0  0
  7  5  1  0  0  0
  7  8  1  0  0  0
  7  2  1  0  0  0
  8  9  1  0  0  0
  9 29  1  0  0  0
  9 10  1  0  0  0
 29 30  1  0  0  0
 30 31  1  0  0  0
 31 32  1  0  0  0
 31 37  1  0  0  0
 32 33  1  0  0  0
 33 34  1  0  0  0
 34 38  1  0  0  0
 34 35  1  0  0  0
 38 39  1  0  0  0
 38 40  2  0  0  0
 38 41  2  0  0  0
 35 36  1  0  0  0
 36 31  1  0  0  0
 10 11  2  0  0  0
 10 12  1  0  0  0
 12 13  2  0  0  0
 13 14  1  0  0  0
 14 15  2  0  0  0
 15 16  1  0  0  0
 15 17  1  0  0  0
 17 18  2  0  0  0
 18 12  1  0  0  0
 18  7  1  0  0  0
M  CHG 1  31   1
M  END
> <minimizedAffinity>
-5.96752

> <CNNscore>
0.1024987772

> <CNNaffinity>
5.8390703201

> <CNN_VS>
0.5984975696

> <CNNaffinity_variance>
0.1912759691

$$$$



 39 44  0  0  0  0  0  0  0  0999 V2000
   -7.4157   -3.5438  -25.1003 N   0  0  0  0  0  0  0  0  0  0  0  0
   -8.5620   -3.0371  -24.3925 C   0  0  0  0  0  0  0  0  0  0  0  0
   -8.2837   -1.6823  -23.7663 C   0  0  0  0  0  0  0  0  0  0  0  0
   -7.1874   -1.7682  -22.7756 C   0  0  0  0  0  0  0  0  0  0  0  0
   -6.1309   -2.4430  -22.9443 O   0  0  0  0  0  0  0  0  0  0  0  0
   -7.4734   -1.0034  -21.6254 N   0  0  0  0  0  0  0  0  0  0  0  0
   -8.8369   -0.5556  -21.7603 C   0  0  0  0  0  0  0  0  0  0  0  0
   -9.4220   -1.1532  -22.9907 C   0  0  0  0  0  0  0  0  0  0  0  0
   -7.7884   -0.7896  -24.8462 C   0  0  0  0  0  0  0  0  0  0  0  0
   -7.9471    0.5939  -24.8004 C   0  0  0  0  0  0  0  0  0  0  0  0
   -7.4806    1.4248  -25.7974 C   0  0  0  0  0  0  0  0  0  0  0  0
   -7.7229    3.1708  -25.6626 Cl  0  0  0  0  0  0  0  0  0  0  0  0
   -6.8273    0.9134  -26.8990 C   0  0  0  0  0  0  0  0  0  0  0  0
   -6.6569   -0.4540  -26.9697 C   0  0  0  0  0  0  0  0  0  0  0  0
   -7.1263   -1.2685  -25.9706 C   0  0  0  0  0  0  0  0  0  0  0  0
   -6.8995   -2.7173  -26.1581 C   0  0  0  0  0  0  0  0  0  0  0  0
   -6.3154   -3.1980  -27.1379 O   0  0  0  0  0  0  0  0  0  0  0  0
   -6.6564   -0.6815  -20.5068 C   0  0  0  0  0  0  0  0  0  0  0  0
   -6.9143   -1.2569  -19.2770 C   0  0  0  0  0  0  0  0  0  0  0  0
   -6.1580   -0.9717  -18.1988 N   0  0  0  0  0  0  0  0  0  0  0  0
   -5.1287   -0.1185  -18.2852 C   0  0  0  0  0  0  0  0  0  0  0  0
   -4.8027    0.5022  -19.4831 C   0  0  0  0  0  0  0  0  0  0  0  0
   -3.7522    1.3812  -19.5990 C   0  0  0  0  0  0  0  0  0  0  0  0
   -3.4689    1.9676  -20.7972 C   0  0  0  0  0  0  0  0  0  0  0  0
   -4.2362    1.6870  -21.9207 C   0  0  0  0  0  0  0  0  0  0  0  0
   -5.2837    0.8006  -21.7715 C   0  0  0  0  0  0  0  0  0  0  0  0
   -5.5916    0.1942  -20.5731 C   0  0  0  0  0  0  0  0  0  0  0  0
   -6.7715   -4.8100  -24.8139 C   0  0  0  0  0  0  0  0  0  0  0  0
   -9.3629   -7.3091  -26.2165 C   0  0  0  0  0  0  0  0  0  0  0  0
   -8.4617   -6.1848  -26.1114 N   0  0  0  0  0  0  0  0  0  0  0  0
   -7.6977   -5.9591  -24.9318 C   0  0  0  0  0  0  0  0  0  0  0  0
   -7.7795   -6.7327  -23.9346 O   0  0  0  0  0  0  0  0  0  0  0  0
   -8.3744   -5.5631  -26.8698 H   0  0  0  0  0  0  0  0  0  0  0  0
  -10.2928   -2.3374  -22.5512 C   0  0  0  0  0  0  0  0  0  0  0  0
  -11.7062   -2.0389  -22.6434 N   0  0  0  0  0  0  0  0  0  0  0  0
  -12.1827   -0.9250  -23.2671 C   0  0  0  0  0  0  0  0  0  0  0  0
  -13.5599   -0.9171  -23.1943 C   0  0  0  0  0  0  0  0  0  0  0  0
  -13.8956   -2.0642  -22.5056 C   0  0  0  0  0  0  0  0  0  0  0  0
  -12.7561   -2.6944  -22.2016 N   0  0  0  0  0  0  0  0  0  0  0  0
 29 30  1  0  0  0
 30 31  1  0  0  0
 30 33  1  0  0  0
 31 32  2  0  0  0
 31 28  1  0  0  0
 28  1  1  0  0  0
  1  2  1  0  0  0
  3  2  1  0  0  0
  3  4  1  0  0  0
  3  9  1  0  0  0
  4  5  2  0  0  0
  4  6  1  0  0  0
  6 18  1  0  0  0
  6  7  1  0  0  0
 18 19  2  0  0  0
 19 20  1  0  0  0
 20 21  2  0  0  0
 21 22  1  0  0  0
 22 23  2  0  0  0
 23 24  1  0  0  0
 24 25  2  0  0  0
 25 26  1  0  0  0
 26 27  2  0  0  0
 27 18  1  0  0  0
 27 22  1  0  0  0
  7  8  1  0  0  0
  8 34  1  0  0  0
  8  3  1  0  0  0
 34 35  1  0  0  0
 35 36  1  0  0  0
 36 37  2  0  0  0
 37 38  1  0  0  0
 38 39  2  0  0  0
 39 35  1  0  0  0
  9 10  2  0  0  0
 10 11  1  0  0  0
 11 12  1  0  0  0
 11 13  2  0  0  0
 13 14  1  0  0  0
 14 15  2  0  0  0
 15 16  1  0  0  0
 15  9  1  0  0  0
 16 17  2  0  0  0
 16  1  1  0  0  0
M  END
> <minimizedAffinity>
-8.60997

> <CNNscore>
0.4318226874

> <CNNaffinity>
6.7832922935

> <CNN_VS>
2.9291794300

> <CNNaffinity_variance>
0.0618618354

$$$$



 39 44  0  0  0  0  0  0  0  0999 V2000
   -5.7731   -2.1511  -21.4918 N   0  0  0  0  0  0  0  0  0  0  0  0
   -6.2071   -2.9813  -22.5845 C   0  0  0  0  0  0  0  0  0  0  0  0
   -7.1756   -2.2503  -23.4970 C   0  0  0  0  0  0  0  0  0  0  0  0
   -8.3992   -1.8516  -22.7656 C   0  0  0  0  0  0  0  0  0  0  0  0
   -8.4016   -1.3818  -21.5913 O   0  0  0  0  0  0  0  0  0  0  0  0
   -9.5555   -2.0631  -23.5453 N   0  0  0  0  0  0  0  0  0  0  0  0
   -9.1297   -2.7751  -24.7242 C   0  0  0  0  0  0  0  0  0  0  0  0
   -7.6801   -3.0871  -24.6027 C   0  0  0  0  0  0  0  0  0  0  0  0
   -6.5194   -0.9841  -23.9146 C   0  0  0  0  0  0  0  0  0  0  0  0
   -6.8267   -0.3463  -25.1146 C   0  0  0  0  0  0  0  0  0  0  0  0
   -6.2251    0.8334  -25.5000 C   0  0  0  0  0  0  0  0  0  0  0  0
   -6.6720    1.5785  -27.0395 Cl  0  0  0  0  0  0  0  0  0  0  0  0
   -5.2790    1.4409  -24.7013 C   0  0  0  0  0  0  0  0  0  0  0  0
   -4.9556    0.8300  -23.5071 C   0  0  0  0  0  0  0  0  0  0  0  0
   -5.5621   -0.3434  -23.1366 C   0  0  0  0  0  0  0  0  0  0  0  0
   -5.1285   -0.9145  -21.8438 C   0  0  0  0  0  0  0  0  0  0  0  0
   -4.2822   -0.3864  -21.1110 O   0  0  0  0  0  0  0  0  0  0  0  0
  -10.9074   -1.6914  -23.3075 C   0  0  0  0  0  0  0  0  0  0  0  0
  -11.8216   -2.6433  -22.8971 C   0  0  0  0  0  0  0  0  0  0  0  0
  -13.1092   -2.3217  -22.6638 N   0  0  0  0  0  0  0  0  0  0  0  0
  -13.5454   -1.0650  -22.8227 C   0  0  0  0  0  0  0  0  0  0  0  0
  -12.6919   -0.0498  -23.2321 C   0  0  0  0  0  0  0  0  0  0  0  0
  -13.1136    1.2474  -23.4027 C   0  0  0  0  0  0  0  0  0  0  0  0
  -12.2388    2.2125  -23.8066 C   0  0  0  0  0  0  0  0  0  0  0  0
  -10.9074    1.9018  -24.0524 C   0  0  0  0  0  0  0  0  0  0  0  0
  -10.5154    0.5907  -23.8720 C   0  0  0  0  0  0  0  0  0  0  0  0
  -11.3782   -0.4036  -23.4647 C   0  0  0  0  0  0  0  0  0  0  0  0
   -5.9436   -2.4862  -20.0921 C   0  0  0  0  0  0  0  0  0  0  0  0
   -5.2978    0.3711  -17.5728 C   0  0  0  0  0  0  0  0  0  0  0  0
   -5.0993   -0.7964  -18.4003 N   0  0  0  0  0  0  0  0  0  0  0  0
   -6.1367   -1.2906  -19.2403 C   0  0  0  0  0  0  0  0  0  0  0  0
   -7.2678   -0.7272  -19.2930 O   0  0  0  0  0  0  0  0  0  0  0  0
   -4.2303   -1.2588  -18.3830 H   0  0  0  0  0  0  0  0  0  0  0  0
   -7.5654   -4.5576  -24.1802 C   0  0  0  0  0  0  0  0  0  0  0  0
   -7.9222   -5.4624  -25.2522 N   0  0  0  0  0  0  0  0  0  0  0  0
   -7.1905   -5.5704  -26.3966 C   0  0  0  0  0  0  0  0  0  0  0  0
   -7.7736   -6.5086  -27.2224 C   0  0  0  0  0  0  0  0  0  0  0  0
   -8.8809   -6.9613  -26.5356 C   0  0  0  0  0  0  0  0  0  0  0  0
   -8.9225   -6.3067  -25.3705 N   0  0  0  0  0  0  0  0  0  0  0  0
 29 30  1  0  0  0
 30 31  1  0  0  0
 30 33  1  0  0  0
 31 32  2  0  0  0
 31 28  1  0  0  0
 28  1  1  0  0  0
  1  2  1  0  0  0
  3  2  1  0  0  0
  3  4  1  0  0  0
  3  9  1  0  0  0
  4  5  2  0  0  0
  4  6  1  0  0  0
  6 18  1  0  0  0
  6  7  1  0  0  0
 18 19  2  0  0  0
 19 20  1  0  0  0
 20 21  2  0  0  0
 21 22  1  0  0  0
 22 23  2  0  0  0
 23 24  1  0  0  0
 24 25  2  0  0  0
 25 26  1  0  0  0
 26 27  2  0  0  0
 27 18  1  0  0  0
 27 22  1  0  0  0
  7  8  1  0  0  0
  8 34  1  0  0  0
  8  3  1  0  0  0
 34 35  1  0  0  0
 35 36  1  0  0  0
 36 37  2  0  0  0
 37 38  1  0  0  0
 38 39  2  0  0  0
 39 35  1  0  0  0
  9 10  2  0  0  0
 10 11  1  0  0  0
 11 12  1  0  0  0
 11 13  2  0  0  0
 13 14  1  0  0  0
 14 15  2  0  0  0
 15 16  1  0  0  0
 15  9  1  0  0  0
 16 17  2  0  0  0
 16  1  1  0  0  0
M  END
> <minimizedAffinity>
-8.65404

> <CNNscore>
0.3929667473

> <CNNaffinity>
6.7100324631

> <CNN_VS>
2.6368196011

> <CNNaffinity_variance>
0.1437811553

$$$$



 39 44  0  0  0  0  0  0  0  0999 V2000
   -7.2979   -1.3800  -21.7139 N   0  0  0  0  0  0  0  0  0  0  0  0
   -7.2576    0.0295  -22.0026 C   0  0  0  0  0  0  0  0  0  0  0  0
   -6.3659    0.3353  -23.1928 C   0  0  0  0  0  0  0  0  0  0  0  0
   -4.9683   -0.0761  -22.9311 C   0  0  0  0  0  0  0  0  0  0  0  0
   -4.6428   -1.1537  -22.3543 O   0  0  0  0  0  0  0  0  0  0  0  0
   -4.0523    0.8854  -23.4066 N   0  0  0  0  0  0  0  0  0  0  0  0
   -4.8324    2.0256  -23.8181 C   0  0  0  0  0  0  0  0  0  0  0  0
   -6.2617    1.7772  -23.4884 C   0  0  0  0  0  0  0  0  0  0  0  0
   -6.8340   -0.5071  -24.3239 C   0  0  0  0  0  0  0  0  0  0  0  0
   -6.6526   -0.1355  -25.6544 C   0  0  0  0  0  0  0  0  0  0  0  0
   -7.0786   -0.9200  -26.7057 C   0  0  0  0  0  0  0  0  0  0  0  0
   -6.8094   -0.3754  -28.3658 Cl  0  0  0  0  0  0  0  0  0  0  0  0
   -7.7121   -2.1241  -26.4808 C   0  0  0  0  0  0  0  0  0  0  0  0
   -7.9050   -2.5162  -25.1719 C   0  0  0  0  0  0  0  0  0  0  0  0
   -7.4760   -1.7255  -24.1360 C   0  0  0  0  0  0  0  0  0  0  0  0
   -7.7475   -2.2387  -22.7765 C   0  0  0  0  0  0  0  0  0  0  0  0
   -8.3136   -3.3162  -22.5513 O   0  0  0  0  0  0  0  0  0  0  0  0
   -2.6341    0.8383  -23.5023 C   0  0  0  0  0  0  0  0  0  0  0  0
   -2.0361    0.4528  -24.6872 C   0  0  0  0  0  0  0  0  0  0  0  0
   -0.6951    0.3984  -24.8085 N   0  0  0  0  0  0  0  0  0  0  0  0
    0.1033    0.7174  -23.7811 C   0  0  0  0  0  0  0  0  0  0  0  0
   -0.4170    1.1144  -22.5571 C   0  0  0  0  0  0  0  0  0  0  0  0
    0.3796    1.4469  -21.4874 C   0  0  0  0  0  0  0  0  0  0  0  0
   -0.1765    1.8317  -20.3030 C   0  0  0  0  0  0  0  0  0  0  0  0
   -1.5565    1.8944  -20.1573 C   0  0  0  0  0  0  0  0  0  0  0  0
   -2.3286    1.5543  -21.2497 C   0  0  0  0  0  0  0  0  0  0  0  0
   -1.7929    1.1624  -22.4572 C   0  0  0  0  0  0  0  0  0  0  0  0
   -6.9220   -1.9657  -20.4426 C   0  0  0  0  0  0  0  0  0  0  0  0
   -4.6255    0.4602  -18.5013 C   0  0  0  0  0  0  0  0  0  0  0  0
   -5.0849   -0.5249  -19.4530 N   0  0  0  0  0  0  0  0  0  0  0  0
   -6.4411   -0.9568  -19.4715 C   0  0  0  0  0  0  0  0  0  0  0  0
   -7.2917   -0.4953  -18.6573 O   0  0  0  0  0  0  0  0  0  0  0  0
   -4.4482   -0.9044  -20.1009 H   0  0  0  0  0  0  0  0  0  0  0  0
   -6.5730    2.5528  -22.2018 C   0  0  0  0  0  0  0  0  0  0  0  0
   -7.0977    3.8739  -22.4749 N   0  0  0  0  0  0  0  0  0  0  0  0
   -7.9983    4.1159  -23.4685 C   0  0  0  0  0  0  0  0  0  0  0  0
   -8.3102    5.4593  -23.4823 C   0  0  0  0  0  0  0  0  0  0  0  0
   -7.5666    6.0171  -22.4632 C   0  0  0  0  0  0  0  0  0  0  0  0
   -6.8636    5.0308  -21.8968 N   0  0  0  0  0  0  0  0  0  0  0  0
 29 30  1  0  0  0
 30 31  1  0  0  0
 30 33  1  0  0  0
 31 32  2  0  0  0
 31 28  1  0  0  0
 28  1  1  0  0  0
  1  2  1  0  0  0
  3  2  1  0  0  0
  3  4  1  0  0  0
  3  9  1  0  0  0
  4  5  2  0  0  0
  4  6  1  0  0  0
  6 18  1  0  0  0
  6  7  1  0  0  0
 18 19  2  0  0  0
 19 20  1  0  0  0
 20 21  2  0  0  0
 21 22  1  0  0  0
 22 23  2  0  0  0
 23 24  1  0  0  0
 24 25  2  0  0  0
 25 26  1  0  0  0
 26 27  2  0  0  0
 27 18  1  0  0  0
 27 22  1  0  0  0
  7  8  1  0  0  0
  8 34  1  0  0  0
  8  3  1  0  0  0
 34 35  1  0  0  0
 35 36  1  0  0  0
 36 37  2  0  0  0
 37 38  1  0  0  0
 38 39  2  0  0  0
 39 35  1  0  0  0
  9 10  2  0  0  0
 10 11  1  0  0  0
 11 12  1  0  0  0
 11 13  2  0  0  0
 13 14  1  0  0  0
 14 15  2  0  0  0
 15 16  1  0  0  0
 15  9  1  0  0  0
 16 17  2  0  0  0
 16  1  1  0  0  0
M  END
> <minimizedAffinity>
-6.94043

> <CNNscore>
0.3720473349

> <CNNaffinity>
6.2112278938

> <CNN_VS>
2.3108708858

> <CNNaffinity_variance>
0.1217529178

$$$$



 39 44  0  0  0  0  0  0  0  0999 V2000
   -7.2454   -0.2661  -22.3114 N   0  0  0  0  0  0  0  0  0  0  0  0
   -6.2216   -0.4954  -23.2968 C   0  0  0  0  0  0  0  0  0  0  0  0
   -6.8051   -0.6483  -24.6901 C   0  0  0  0  0  0  0  0  0  0  0  0
   -7.7184   -1.8109  -24.7606 C   0  0  0  0  0  0  0  0  0  0  0  0
   -8.5508   -2.1142  -23.8578 O   0  0  0  0  0  0  0  0  0  0  0  0
   -7.5400   -2.5323  -25.9596 N   0  0  0  0  0  0  0  0  0  0  0  0
   -6.3831   -1.9678  -26.6085 C   0  0  0  0  0  0  0  0  0  0  0  0
   -5.7880   -0.9333  -25.7205 C   0  0  0  0  0  0  0  0  0  0  0  0
   -7.6471    0.5481  -24.9505 C   0  0  0  0  0  0  0  0  0  0  0  0
   -7.8849    1.0259  -26.2376 C   0  0  0  0  0  0  0  0  0  0  0  0
   -8.6730    2.1309  -26.4820 C   0  0  0  0  0  0  0  0  0  0  0  0
   -8.9247    2.6723  -28.1460 Cl  0  0  0  0  0  0  0  0  0  0  0  0
   -9.2682    2.8205  -25.4466 C   0  0  0  0  0  0  0  0  0  0  0  0
   -9.0489    2.3688  -24.1614 C   0  0  0  0  0  0  0  0  0  0  0  0
   -8.2624    1.2681  -23.9331 C   0  0  0  0  0  0  0  0  0  0  0  0
   -8.0862    0.8826  -22.5169 C   0  0  0  0  0  0  0  0  0  0  0  0
   -8.6111    1.4862  -21.5722 O   0  0  0  0  0  0  0  0  0  0  0  0
   -8.2896   -3.6100  -26.5064 C   0  0  0  0  0  0  0  0  0  0  0  0
   -9.0293   -3.4201  -27.6583 C   0  0  0  0  0  0  0  0  0  0  0  0
   -9.7495   -4.4219  -28.2002 N   0  0  0  0  0  0  0  0  0  0  0  0
   -9.7713   -5.6376  -27.6376 C   0  0  0  0  0  0  0  0  0  0  0  0
   -9.0562   -5.9115  -26.4799 C   0  0  0  0  0  0  0  0  0  0  0  0
   -9.0614   -7.1496  -25.8826 C   0  0  0  0  0  0  0  0  0  0  0  0
   -8.3429   -7.3727  -24.7451 C   0  0  0  0  0  0  0  0  0  0  0  0
   -7.5940   -6.3535  -24.1706 C   0  0  0  0  0  0  0  0  0  0  0  0
   -7.6096   -5.1222  -24.7943 C   0  0  0  0  0  0  0  0  0  0  0  0
   -8.3263   -4.8698  -25.9438 C   0  0  0  0  0  0  0  0  0  0  0  0
   -7.4678   -1.1069  -21.1521 C   0  0  0  0  0  0  0  0  0  0  0  0
   -4.7308    0.4143  -18.8888 C   0  0  0  0  0  0  0  0  0  0  0  0
   -5.4411   -0.0430  -20.0608 N   0  0  0  0  0  0  0  0  0  0  0  0
   -6.7315   -0.6349  -19.9574 C   0  0  0  0  0  0  0  0  0  0  0  0
   -7.3022   -0.7819  -18.8384 O   0  0  0  0  0  0  0  0  0  0  0  0
   -5.0250    0.0565  -20.9474 H   0  0  0  0  0  0  0  0  0  0  0  0
   -4.5741   -1.5696  -25.0309 C   0  0  0  0  0  0  0  0  0  0  0  0
   -3.3316   -0.9386  -25.4225 N   0  0  0  0  0  0  0  0  0  0  0  0
   -2.8191    0.1425  -24.7704 C   0  0  0  0  0  0  0  0  0  0  0  0
   -1.6333    0.5143  -25.3685 C   0  0  0  0  0  0  0  0  0  0  0  0
   -1.4500   -0.3799  -26.4026 C   0  0  0  0  0  0  0  0  0  0  0  0
   -2.4885   -1.2221  -26.3900 N   0  0  0  0  0  0  0  0  0  0  0  0
 29 30  1  0  0  0
 30 31  1  0  0  0
 30 33  1  0  0  0
 31 32  2  0  0  0
 31 28  1  0  0  0
 28  1  1  0  0  0
  1  2  1  0  0  0
  3  2  1  0  0  0
  3  4  1  0  0  0
  3  9  1  0  0  0
  4  5  2  0  0  0
  4  6  1  0  0  0
  6 18  1  0  0  0
  6  7  1  0  0  0
 18 19  2  0  0  0
 19 20  1  0  0  0
 20 21  2  0  0  0
 21 22  1  0  0  0
 22 23  2  0  0  0
 23 24  1  0  0  0
 24 25  2  0  0  0
 25 26  1  0  0  0
 26 27  2  0  0  0
 27 18  1  0  0  0
 27 22  1  0  0  0
  7  8  1  0  0  0
  8 34  1  0  0  0
  8  3  1  0  0  0
 34 35  1  0  0  0
 35 36  1  0  0  0
 36 37  2  0  0  0
 37 38  1  0  0  0
 38 39  2  0  0  0
 39 35  1  0  0  0
  9 10  2  0  0  0
 10 11  1  0  0  0
 11 12  1  0  0  0
 11 13  2  0  0  0
 13 14  1  0  0  0
 14 15  2  0  0  0
 15 16  1  0  0  0
 15  9  1  0  0  0
 16 17  2  0  0  0
 16  1  1  0  0  0
M  END
> <minimizedAffinity>
-6.65559

> <CNNscore>
0.2846551239

> <CNNaffinity>
6.3192830086

> <CNN_VS>
1.7988163233

> <CNNaffinity_variance>
0.0707084388

$$$$



 39 44  0  0  0  0  0  0  0  0999 V2000
   -6.3454   -3.1144  -22.4718 N   0  0  0  0  0  0  0  0  0  0  0  0
   -6.3334   -2.4828  -23.7651 C   0  0  0  0  0  0  0  0  0  0  0  0
   -6.8629   -1.0612  -23.7025 C   0  0  0  0  0  0  0  0  0  0  0  0
   -8.2687   -1.0361  -23.2400 C   0  0  0  0  0  0  0  0  0  0  0  0
   -8.7195   -1.7558  -22.3026 O   0  0  0  0  0  0  0  0  0  0  0  0
   -9.0355   -0.1097  -23.9773 N   0  0  0  0  0  0  0  0  0  0  0  0
   -8.1959    0.3509  -25.0548 C   0  0  0  0  0  0  0  0  0  0  0  0
   -6.9109   -0.3980  -25.0198 C   0  0  0  0  0  0  0  0  0  0  0  0
   -6.0791   -0.3429  -22.6642 C   0  0  0  0  0  0  0  0  0  0  0  0
   -5.8890    1.0370  -22.6962 C   0  0  0  0  0  0  0  0  0  0  0  0
   -5.1692    1.7066  -21.7289 C   0  0  0  0  0  0  0  0  0  0  0  0
   -4.9748    3.4600  -21.8433 Cl  0  0  0  0  0  0  0  0  0  0  0  0
   -4.5983    1.0280  -20.6728 C   0  0  0  0  0  0  0  0  0  0  0  0
   -4.7710   -0.3398  -20.6169 C   0  0  0  0  0  0  0  0  0  0  0  0
   -5.4894   -0.9928  -21.5863 C   0  0  0  0  0  0  0  0  0  0  0  0
   -5.5982   -2.4591  -21.4321 C   0  0  0  0  0  0  0  0  0  0  0  0
   -5.0948   -3.0883  -20.4926 O   0  0  0  0  0  0  0  0  0  0  0  0
  -10.3689    0.3446  -23.7819 C   0  0  0  0  0  0  0  0  0  0  0  0
  -10.6721    1.6827  -23.9486 C   0  0  0  0  0  0  0  0  0  0  0  0
  -11.9260    2.1432  -23.7707 N   0  0  0  0  0  0  0  0  0  0  0  0
  -12.9215    1.3158  -23.4255 C   0  0  0  0  0  0  0  0  0  0  0  0
  -12.7013   -0.0419  -23.2384 C   0  0  0  0  0  0  0  0  0  0  0  0
  -13.7047   -0.9122  -22.8843 C   0  0  0  0  0  0  0  0  0  0  0  0
  -13.4414   -2.2391  -22.7113 C   0  0  0  0  0  0  0  0  0  0  0  0
  -12.1557   -2.7339  -22.8899 C   0  0  0  0  0  0  0  0  0  0  0  0
  -11.1707   -1.8346  -23.2452 C   0  0  0  0  0  0  0  0  0  0  0  0
  -11.4093   -0.4897  -23.4264 C   0  0  0  0  0  0  0  0  0  0  0  0
   -7.0493   -4.3445  -22.1687 C   0  0  0  0  0  0  0  0  0  0  0  0
   -9.4186   -5.1273  -25.1184 C   0  0  0  0  0  0  0  0  0  0  0  0
   -8.8532   -4.5050  -23.9436 N   0  0  0  0  0  0  0  0  0  0  0  0
   -7.6371   -4.9750  -23.3725 C   0  0  0  0  0  0  0  0  0  0  0  0
   -7.0082   -5.9523  -23.8714 O   0  0  0  0  0  0  0  0  0  0  0  0
   -9.3177   -3.7417  -23.5303 H   0  0  0  0  0  0  0  0  0  0  0  0
   -6.9887   -1.4850  -26.0998 C   0  0  0  0  0  0  0  0  0  0  0  0
   -5.9470   -1.3409  -27.0945 N   0  0  0  0  0  0  0  0  0  0  0  0
   -5.1798   -0.2195  -27.1978 C   0  0  0  0  0  0  0  0  0  0  0  0
   -4.2790   -0.3784  -28.2299 C   0  0  0  0  0  0  0  0  0  0  0  0
   -4.5304   -1.6335  -28.7439 C   0  0  0  0  0  0  0  0  0  0  0  0
   -5.5314   -2.1624  -28.0324 N   0  0  0  0  0  0  0  0  0  0  0  0
 29 30  1  0  0  0
 30 31  1  0  0  0
 30 33  1  0  0  0
 31 32  2  0  0  0
 31 28  1  0  0  0
 28  1  1  0  0  0
  1  2  1  0  0  0
  3  2  1  0  0  0
  3  4  1  0  0  0
  3  9  1  0  0  0
  4  5  2  0  0  0
  4  6  1  0  0  0
  6 18  1  0  0  0
  6  7  1  0  0  0
 18 19  2  0  0  0
 19 20  1  0  0  0
 20 21  2  0  0  0
 21 22  1  0  0  0
 22 23  2  0  0  0
 23 24  1  0  0  0
 24 25  2  0  0  0
 25 26  1  0  0  0
 26 27  2  0  0  0
 27 18  1  0  0  0
 27 22  1  0  0  0
  7  8  1  0  0  0
  8 34  1  0  0  0
  8  3  1  0  0  0
 34 35  1  0  0  0
 35 36  1  0  0  0
 36 37  2  0  0  0
 37 38  1  0  0  0
 38 39  2  0  0  0
 39 35  1  0  0  0
  9 10  2  0  0  0
 10 11  1  0  0  0
 11 12  1  0  0  0
 11 13  2  0  0  0
 13 14  1  0  0  0
 14 15  2  0  0  0
 15 16  1  0  0  0
 15  9  1  0  0  0
 16 17  2  0  0  0
 16  1  1  0  0  0
M  END
> <minimizedAffinity>
-7.24273

> <CNNscore>
0.2528999150

> <CNNaffinity>
6.3354220390

> <CNN_VS>
1.6022276878

> <CNNaffinity_variance>
0.0287014693

$$$$



 39 44  0  0  0  0  0  0  0  0999 V2000
   -5.1225   -0.8236  -20.8962 N   0  0  0  0  0  0  0  0  0  0  0  0
   -5.2339   -1.1255  -22.2991 C   0  0  0  0  0  0  0  0  0  0  0  0
   -5.9734   -0.0346  -23.0529 C   0  0  0  0  0  0  0  0  0  0  0  0
   -7.3567    0.1176  -22.5488 C   0  0  0  0  0  0  0  0  0  0  0  0
   -7.6727    0.0841  -21.3245 O   0  0  0  0  0  0  0  0  0  0  0  0
   -8.2713    0.3039  -23.6064 N   0  0  0  0  0  0  0  0  0  0  0  0
   -7.5344    0.0909  -24.8270 C   0  0  0  0  0  0  0  0  0  0  0  0
   -6.1495   -0.3332  -24.4872 C   0  0  0  0  0  0  0  0  0  0  0  0
   -5.2878    1.2501  -22.7567 C   0  0  0  0  0  0  0  0  0  0  0  0
   -5.3118    2.3280  -23.6391 C   0  0  0  0  0  0  0  0  0  0  0  0
   -4.6834    3.5241  -23.3623 C   0  0  0  0  0  0  0  0  0  0  0  0
   -4.7622    4.8433  -24.5365 Cl  0  0  0  0  0  0  0  0  0  0  0  0
   -3.9938    3.7064  -22.1821 C   0  0  0  0  0  0  0  0  0  0  0  0
   -3.9539    2.6543  -21.2901 C   0  0  0  0  0  0  0  0  0  0  0  0
   -4.5835    1.4701  -21.5787 C   0  0  0  0  0  0  0  0  0  0  0  0
   -4.4633    0.4088  -20.5567 C   0  0  0  0  0  0  0  0  0  0  0  0
   -3.8504    0.5505  -19.4907 O   0  0  0  0  0  0  0  0  0  0  0  0
   -9.6542    0.6345  -23.5809 C   0  0  0  0  0  0  0  0  0  0  0  0
  -10.0567    1.9332  -23.8287 C   0  0  0  0  0  0  0  0  0  0  0  0
  -11.3595    2.2770  -23.8115 N   0  0  0  0  0  0  0  0  0  0  0  0
  -12.3089    1.3679  -23.5528 C   0  0  0  0  0  0  0  0  0  0  0  0
  -11.9891    0.0423  -23.2935 C   0  0  0  0  0  0  0  0  0  0  0  0
  -12.9434   -0.9101  -23.0253 C   0  0  0  0  0  0  0  0  0  0  0  0
  -12.5822   -2.2013  -22.7762 C   0  0  0  0  0  0  0  0  0  0  0  0
  -11.2447   -2.5764  -22.7892 C   0  0  0  0  0  0  0  0  0  0  0  0
  -10.3110   -1.5969  -23.0616 C   0  0  0  0  0  0  0  0  0  0  0  0
  -10.6485   -0.2856  -23.3167 C   0  0  0  0  0  0  0  0  0  0  0  0
   -5.6234   -1.6734  -19.8343 C   0  0  0  0  0  0  0  0  0  0  0  0
   -5.6070   -5.0593  -21.6952 C   0  0  0  0  0  0  0  0  0  0  0  0
   -5.7710   -3.6518  -21.4136 N   0  0  0  0  0  0  0  0  0  0  0  0
   -5.4589   -3.1141  -20.1332 C   0  0  0  0  0  0  0  0  0  0  0  0
   -5.0275   -3.8470  -19.1971 O   0  0  0  0  0  0  0  0  0  0  0  0
   -6.1049   -3.0534  -22.1205 H   0  0  0  0  0  0  0  0  0  0  0  0
   -6.0820   -1.8549  -24.6707 C   0  0  0  0  0  0  0  0  0  0  0  0
   -5.1891   -2.2356  -25.7444 N   0  0  0  0  0  0  0  0  0  0  0  0
   -5.6196   -2.8830  -26.8635 C   0  0  0  0  0  0  0  0  0  0  0  0
   -4.5466   -3.1075  -27.7002 C   0  0  0  0  0  0  0  0  0  0  0  0
   -3.4559   -2.5730  -27.0465 C   0  0  0  0  0  0  0  0  0  0  0  0
   -3.8936   -2.0676  -25.8885 N   0  0  0  0  0  0  0  0  0  0  0  0
 29 30  1  0  0  0
 30 31  1  0  0  0
 30 33  1  0  0  0
 31 32  2  0  0  0
 31 28  1  0  0  0
 28  1  1  0  0  0
  1  2  1  0  0  0
  3  2  1  0  0  0
  3  4  1  0  0  0
  3  9  1  0  0  0
  4  5  2  0  0  0
  4  6  1  0  0  0
  6 18  1  0  0  0
  6  7  1  0  0  0
 18 19  2  0  0  0
 19 20  1  0  0  0
 20 21  2  0  0  0
 21 22  1  0  0  0
 22 23  2  0  0  0
 23 24  1  0  0  0
 24 25  2  0  0  0
 25 26  1  0  0  0
 26 27  2  0  0  0
 27 18  1  0  0  0
 27 22  1  0  0  0
  7  8  1  0  0  0
  8 34  1  0  0  0
  8  3  1  0  0  0
 34 35  1  0  0  0
 35 36  1  0  0  0
 36 37  2  0  0  0
 37 38  1  0  0  0
 38 39  2  0  0  0
 39 35  1  0  0  0
  9 10  2  0  0  0
 10 11  1  0  0  0
 11 12  1  0  0  0
 11 13  2  0  0  0
 13 14  1  0  0  0
 14 15  2  0  0  0
 15 16  1  0  0  0
 15  9  1  0  0  0
 16 17  2  0  0  0
 16  1  1  0  0  0
M  END
> <minimizedAffinity>
-8.23817

> <CNNscore>
0.2479213327

> <CNNaffinity>
6.2876820564

> <CNN_VS>
1.5588505268

> <CNNaffinity_variance>
0.0779204816

$$$$



 39 44  0  0  0  0  0  0  0  0999 V2000
   -5.7969   -3.6167  -21.5153 N   0  0  0  0  0  0  0  0  0  0  0  0
   -5.7891   -3.1747  -22.8851 C   0  0  0  0  0  0  0  0  0  0  0  0
   -6.5467   -1.8707  -23.0604 C   0  0  0  0  0  0  0  0  0  0  0  0
   -7.9690   -2.0255  -22.6811 C   0  0  0  0  0  0  0  0  0  0  0  0
   -8.3667   -2.6776  -21.6729 O   0  0  0  0  0  0  0  0  0  0  0  0
   -8.8179   -1.3545  -23.5859 N   0  0  0  0  0  0  0  0  0  0  0  0
   -7.9847   -0.9072  -24.6739 C   0  0  0  0  0  0  0  0  0  0  0  0
   -6.6013   -1.4116  -24.4617 C   0  0  0  0  0  0  0  0  0  0  0  0
   -5.9724   -0.8933  -22.0995 C   0  0  0  0  0  0  0  0  0  0  0  0
   -6.0081    0.4813  -22.3244 C   0  0  0  0  0  0  0  0  0  0  0  0
   -5.4834    1.3905  -21.4299 C   0  0  0  0  0  0  0  0  0  0  0  0
   -5.5695    3.1189  -21.7910 Cl  0  0  0  0  0  0  0  0  0  0  0  0
   -4.8920    0.9709  -20.2569 C   0  0  0  0  0  0  0  0  0  0  0  0
   -4.8430   -0.3857  -20.0093 C   0  0  0  0  0  0  0  0  0  0  0  0
   -5.3689   -1.2787  -20.9083 C   0  0  0  0  0  0  0  0  0  0  0  0
   -5.2484   -2.7068  -20.5458 C   0  0  0  0  0  0  0  0  0  0  0  0
   -4.7226   -3.1058  -19.4987 O   0  0  0  0  0  0  0  0  0  0  0  0
  -10.2185   -1.1145  -23.5298 C   0  0  0  0  0  0  0  0  0  0  0  0
  -11.0946   -2.1757  -23.4009 C   0  0  0  0  0  0  0  0  0  0  0  0
  -12.4267   -1.9802  -23.3450 N   0  0  0  0  0  0  0  0  0  0  0  0
  -12.9457   -0.7470  -23.4127 C   0  0  0  0  0  0  0  0  0  0  0  0
  -12.1353    0.3724  -23.5427 C   0  0  0  0  0  0  0  0  0  0  0  0
  -12.6419    1.6483  -23.6144 C   0  0  0  0  0  0  0  0  0  0  0  0
  -11.8067    2.7189  -23.7418 C   0  0  0  0  0  0  0  0  0  0  0  0
  -10.4306    2.5389  -23.8012 C   0  0  0  0  0  0  0  0  0  0  0  0
   -9.9534    1.2458  -23.7267 C   0  0  0  0  0  0  0  0  0  0  0  0
  -10.7746    0.1468  -23.5977 C   0  0  0  0  0  0  0  0  0  0  0  0
   -6.3118   -4.8967  -21.0717 C   0  0  0  0  0  0  0  0  0  0  0  0
   -7.8687   -6.8656  -24.0089 C   0  0  0  0  0  0  0  0  0  0  0  0
   -7.7051   -5.9265  -22.9233 N   0  0  0  0  0  0  0  0  0  0  0  0
   -6.4897   -5.8554  -22.1859 C   0  0  0  0  0  0  0  0  0  0  0  0
   -5.5106   -6.6100  -22.4533 O   0  0  0  0  0  0  0  0  0  0  0  0
   -8.4480   -5.3244  -22.6893 H   0  0  0  0  0  0  0  0  0  0  0  0
   -6.4177   -2.6325  -25.3724 C   0  0  0  0  0  0  0  0  0  0  0  0
   -7.6737   -3.0964  -25.9224 N   0  0  0  0  0  0  0  0  0  0  0  0
   -8.1037   -2.7483  -27.1677 C   0  0  0  0  0  0  0  0  0  0  0  0
   -9.3246   -3.3425  -27.4098 C   0  0  0  0  0  0  0  0  0  0  0  0
   -9.6143   -4.0598  -26.2678 C   0  0  0  0  0  0  0  0  0  0  0  0
   -8.6000   -3.8790  -25.4155 N   0  0  0  0  0  0  0  0  0  0  0  0
 29 30  1  0  0  0
 30 31  1  0  0  0
 30 33  1  0  0  0
 31 32  2  0  0  0
 31 28  1  0  0  0
 28  1  1  0  0  0
  1  2  1  0  0  0
  3  2  1  0  0  0
  3  4  1  0  0  0
  3  9  1  0  0  0
  4  5  2  0  0  0
  4  6  1  0  0  0
  6 18  1  0  0  0
  6  7  1  0  0  0
 18 19  2  0  0  0
 19 20  1  0  0  0
 20 21  2  0  0  0
 21 22  1  0  0  0
 22 23  2  0  0  0
 23 24  1  0  0  0
 24 25  2  0  0  0
 25 26  1  0  0  0
 26 27  2  0  0  0
 27 18  1  0  0  0
 27 22  1  0  0  0
  7  8  1  0  0  0
  8 34  1  0  0  0
  8  3  1  0  0  0
 34 35  1  0  0  0
 35 36  1  0  0  0
 36 37  2  0  0  0
 37 38  1  0  0  0
 38 39  2  0  0  0
 39 35  1  0  0  0
  9 10  2  0  0  0
 10 11  1  0  0  0
 11 12  1  0  0  0
 11 13  2  0  0  0
 13 14  1  0  0  0
 14 15  2  0  0  0
 15 16  1  0  0  0
 15  9  1  0  0  0
 16 17  2  0  0  0
 16  1  1  0  0  0
M  END
> <minimizedAffinity>
-7.07365

> <CNNscore>
0.2324205935

> <CNNaffinity>
6.1104202271

> <CNN_VS>
1.4201874733

> <CNNaffinity_variance>
0.1342017204

$$$$



 39 44  0  0  0  0  0  0  0  0999 V2000
   -6.4156   -2.1666  -22.0510 N   0  0  0  0  0  0  0  0  0  0  0  0
   -5.6657   -1.7478  -23.2059 C   0  0  0  0  0  0  0  0  0  0  0  0
   -5.5351   -0.2367  -23.2749 C   0  0  0  0  0  0  0  0  0  0  0  0
   -6.8627    0.4084  -23.3843 C   0  0  0  0  0  0  0  0  0  0  0  0
   -7.8829    0.0462  -22.7302 O   0  0  0  0  0  0  0  0  0  0  0  0
   -6.8414    1.4741  -24.3083 N   0  0  0  0  0  0  0  0  0  0  0  0
   -5.5548    1.4277  -24.9568 C   0  0  0  0  0  0  0  0  0  0  0  0
   -4.8130    0.2323  -24.4732 C   0  0  0  0  0  0  0  0  0  0  0  0
   -4.9665    0.2175  -21.9792 C   0  0  0  0  0  0  0  0  0  0  0  0
   -4.2207    1.3886  -21.8627 C   0  0  0  0  0  0  0  0  0  0  0  0
   -3.6995    1.8163  -20.6596 C   0  0  0  0  0  0  0  0  0  0  0  0
   -2.7638    3.3150  -20.5975 Cl  0  0  0  0  0  0  0  0  0  0  0  0
   -3.8975    1.0916  -19.5031 C   0  0  0  0  0  0  0  0  0  0  0  0
   -4.6326   -0.0729  -19.5904 C   0  0  0  0  0  0  0  0  0  0  0  0
   -5.1450   -0.4864  -20.7940 C   0  0  0  0  0  0  0  0  0  0  0  0
   -5.9042   -1.7546  -20.7714 C   0  0  0  0  0  0  0  0  0  0  0  0
   -6.0948   -2.4207  -19.7457 O   0  0  0  0  0  0  0  0  0  0  0  0
   -7.8313    2.4484  -24.6136 C   0  0  0  0  0  0  0  0  0  0  0  0
   -8.7695    2.1928  -25.5958 C   0  0  0  0  0  0  0  0  0  0  0  0
   -9.7197    3.0962  -25.9074 N   0  0  0  0  0  0  0  0  0  0  0  0
   -9.7851    4.2743  -25.2730 C   0  0  0  0  0  0  0  0  0  0  0  0
   -8.8809    4.6091  -24.2745 C   0  0  0  0  0  0  0  0  0  0  0  0
   -8.9258    5.8105  -23.6082 C   0  0  0  0  0  0  0  0  0  0  0  0
   -8.0159    6.0963  -22.6334 C   0  0  0  0  0  0  0  0  0  0  0  0
   -7.0286    5.1788  -22.2970 C   0  0  0  0  0  0  0  0  0  0  0  0
   -7.0103    3.9819  -22.9844 C   0  0  0  0  0  0  0  0  0  0  0  0
   -7.9173    3.6679  -23.9731 C   0  0  0  0  0  0  0  0  0  0  0  0
   -7.6255   -2.9626  -22.1059 C   0  0  0  0  0  0  0  0  0  0  0  0
   -8.1236   -6.0641  -24.3554 C   0  0  0  0  0  0  0  0  0  0  0  0
   -8.3377   -4.7848  -23.7192 N   0  0  0  0  0  0  0  0  0  0  0  0
   -7.4155   -4.2724  -22.7636 C   0  0  0  0  0  0  0  0  0  0  0  0
   -6.3773   -4.9166  -22.4372 O   0  0  0  0  0  0  0  0  0  0  0  0
   -9.1362   -4.2576  -23.9508 H   0  0  0  0  0  0  0  0  0  0  0  0
   -4.9336   -0.8468  -25.5571 C   0  0  0  0  0  0  0  0  0  0  0  0
   -3.7730   -0.8839  -26.4212 N   0  0  0  0  0  0  0  0  0  0  0  0
   -3.7748   -0.3552  -27.6771 C   0  0  0  0  0  0  0  0  0  0  0  0
   -2.5339   -0.5397  -28.2500 C   0  0  0  0  0  0  0  0  0  0  0  0
   -1.7855   -1.1973  -27.2959 C   0  0  0  0  0  0  0  0  0  0  0  0
   -2.5702   -1.3773  -26.2283 N   0  0  0  0  0  0  0  0  0  0  0  0
 29 30  1  0  0  0
 30 31  1  0  0  0
 30 33  1  0  0  0
 31 32  2  0  0  0
 31 28  1  0  0  0
 28  1  1  0  0  0
  1  2  1  0  0  0
  3  2  1  0  0  0
  3  4  1  0  0  0
  3  9  1  0  0  0
  4  5  2  0  0  0
  4  6  1  0  0  0
  6 18  1  0  0  0
  6  7  1  0  0  0
 18 19  2  0  0  0
 19 20  1  0  0  0
 20 21  2  0  0  0
 21 22  1  0  0  0
 22 23  2  0  0  0
 23 24  1  0  0  0
 24 25  2  0  0  0
 25 26  1  0  0  0
 26 27  2  0  0  0
 27 18  1  0  0  0
 27 22  1  0  0  0
  7  8  1  0  0  0
  8 34  1  0  0  0
  8  3  1  0  0  0
 34 35  1  0  0  0
 35 36  1  0  0  0
 36 37  2  0  0  0
 37 38  1  0  0  0
 38 39  2  0  0  0
 39 35  1  0  0  0
  9 10  2  0  0  0
 10 11  1  0  0  0
 11 12  1  0  0  0
 11 13  2  0  0  0
 13 14  1  0  0  0
 14 15  2  0  0  0
 15 16  1  0  0  0
 15  9  1  0  0  0
 16 17  2  0  0  0
 16  1  1  0  0  0
M  END
> <minimizedAffinity>
-6.57170

> <CNNscore>
0.2299769819

> <CNNaffinity>
6.1268472672

> <CNN_VS>
1.4090338945

> <CNNaffinity_variance>
0.1005311161

$$$$



 39 44  0  0  0  0  0  0  0  0999 V2000
   -6.9131   -1.6058  -20.9644 N   0  0  0  0  0  0  0  0  0  0  0  0
   -6.2686   -1.5995  -22.2514 C   0  0  0  0  0  0  0  0  0  0  0  0
   -5.8710   -0.1969  -22.6753 C   0  0  0  0  0  0  0  0  0  0  0  0
   -7.0579    0.6787  -22.8000 C   0  0  0  0  0  0  0  0  0  0  0  0
   -8.0252    0.6817  -21.9850 O   0  0  0  0  0  0  0  0  0  0  0  0
   -6.9695    1.5045  -23.9401 N   0  0  0  0  0  0  0  0  0  0  0  0
   -5.8180    1.0556  -24.6823 C   0  0  0  0  0  0  0  0  0  0  0  0
   -5.2503   -0.1456  -24.0130 C   0  0  0  0  0  0  0  0  0  0  0  0
   -5.0515    0.3808  -21.5784 C   0  0  0  0  0  0  0  0  0  0  0  0
   -4.0926    1.3660  -21.8045 C   0  0  0  0  0  0  0  0  0  0  0  0
   -3.3371    1.9096  -20.7867 C   0  0  0  0  0  0  0  0  0  0  0  0
   -2.1404    3.1565  -21.1586 Cl  0  0  0  0  0  0  0  0  0  0  0  0
   -3.5014    1.4943  -19.4820 C   0  0  0  0  0  0  0  0  0  0  0  0
   -4.4446    0.5192  -19.2301 C   0  0  0  0  0  0  0  0  0  0  0  0
   -5.1889   -0.0127  -20.2524 C   0  0  0  0  0  0  0  0  0  0  0  0
   -6.1594   -1.0596  -19.8681 C   0  0  0  0  0  0  0  0  0  0  0  0
   -6.3240   -1.4470  -18.7040 O   0  0  0  0  0  0  0  0  0  0  0  0
   -7.7944    2.5833  -24.3623 C   0  0  0  0  0  0  0  0  0  0  0  0
   -8.6994    2.3970  -25.3901 C   0  0  0  0  0  0  0  0  0  0  0  0
   -9.4946    3.3998  -25.8122 N   0  0  0  0  0  0  0  0  0  0  0  0
   -9.4327    4.6129  -25.2470 C   0  0  0  0  0  0  0  0  0  0  0  0
   -8.5512    4.8830  -24.2094 C   0  0  0  0  0  0  0  0  0  0  0  0
   -8.4678    6.1183  -23.6122 C   0  0  0  0  0  0  0  0  0  0  0  0
   -7.5861    6.3378  -22.5952 C   0  0  0  0  0  0  0  0  0  0  0  0
   -6.7576    5.3175  -22.1453 C   0  0  0  0  0  0  0  0  0  0  0  0
   -6.8656    4.0890  -22.7654 C   0  0  0  0  0  0  0  0  0  0  0  0
   -7.7475    3.8404  -23.7945 C   0  0  0  0  0  0  0  0  0  0  0  0
   -8.2451   -2.1216  -20.7193 C   0  0  0  0  0  0  0  0  0  0  0  0
  -10.6289   -1.7724  -23.7398 C   0  0  0  0  0  0  0  0  0  0  0  0
   -9.9138   -1.4822  -22.5184 N   0  0  0  0  0  0  0  0  0  0  0  0
   -8.9831   -2.4092  -21.9703 C   0  0  0  0  0  0  0  0  0  0  0  0
   -8.7483   -3.5183  -22.5309 O   0  0  0  0  0  0  0  0  0  0  0  0
  -10.0732   -0.6275  -22.0567 H   0  0  0  0  0  0  0  0  0  0  0  0
   -5.7202   -1.3724  -24.8055 C   0  0  0  0  0  0  0  0  0  0  0  0
   -4.6954   -1.8702  -25.6983 N   0  0  0  0  0  0  0  0  0  0  0  0
   -4.6745   -3.1561  -26.1486 C   0  0  0  0  0  0  0  0  0  0  0  0
   -3.5871   -3.3296  -26.9789 C   0  0  0  0  0  0  0  0  0  0  0  0
   -2.9545   -2.1042  -27.0127 C   0  0  0  0  0  0  0  0  0  0  0  0
   -3.6548   -1.2726  -26.2343 N   0  0  0  0  0  0  0  0  0  0  0  0
 29 30  1  0  0  0
 30 31  1  0  0  0
 30 33  1  0  0  0
 31 32  2  0  0  0
 31 28  1  0  0  0
 28  1  1  0  0  0
  1  2  1  0  0  0
  3  2  1  0  0  0
  3  4  1  0  0  0
  3  9  1  0  0  0
  4  5  2  0  0  0
  4  6  1  0  0  0
  6 18  1  0  0  0
  6  7  1  0  0  0
 18 19  2  0  0  0
 19 20  1  0  0  0
 20 21  2  0  0  0
 21 22  1  0  0  0
 22 23  2  0  0  0
 23 24  1  0  0  0
 24 25  2  0  0  0
 25 26  1  0  0  0
 26 27  2  0  0  0
 27 18  1  0  0  0
 27 22  1  0  0  0
  7  8  1  0  0  0
  8 34  1  0  0  0
  8  3  1  0  0  0
 34 35  1  0  0  0
 35 36  1  0  0  0
 36 37  2  0  0  0
 37 38  1  0  0  0
 38 39  2  0  0  0
 39 35  1  0  0  0
  9 10  2  0  0  0
 10 11  1  0  0  0
 11 12  1  0  0  0
 11 13  2  0  0  0
 13 14  1  0  0  0
 14 15  2  0  0  0
 15 16  1  0  0  0
 15  9  1  0  0  0
 16 17  2  0  0  0
 16  1  1  0  0  0
M  END
> <minimizedAffinity>
-6.78488

> <CNNscore>
0.2201290876

> <CNNaffinity>
6.0128827095

> <CNN_VS>
1.3236104250

> <CNNaffinity_variance>
0.0060837753

$$$$



 39 44  0  0  0  0  0  0  0  0999 V2000
   -8.5321    1.0128  -24.3078 N   0  0  0  0  0  0  0  0  0  0  0  0
   -8.1600   -0.4092  -24.3894 C   0  0  0  0  0  0  0  0  0  0  0  0
   -8.7830   -1.0803  -23.2122 C   0  0  0  0  0  0  0  0  0  0  0  0
   -8.2927   -0.3322  -21.9953 C   0  0  0  0  0  0  0  0  0  0  0  0
   -8.8812    0.5940  -21.3774 O   0  0  0  0  0  0  0  0  0  0  0  0
   -7.0150   -0.9024  -21.6950 N   0  0  0  0  0  0  0  0  0  0  0  0
   -6.8367   -2.1331  -22.4407 C   0  0  0  0  0  0  0  0  0  0  0  0
   -8.2551   -2.4542  -22.9499 C   0  0  0  0  0  0  0  0  0  0  0  0
  -10.2303   -0.9310  -23.2454 C   0  0  0  0  0  0  0  0  0  0  0  0
  -11.1308   -1.8568  -22.7572 C   0  0  0  0  0  0  0  0  0  0  0  0
  -12.5094   -1.6508  -22.8039 C   0  0  0  0  0  0  0  0  0  0  0  0
  -13.6038   -2.8567  -22.1710 Cl  0  0  0  0  0  0  0  0  0  0  0  0
  -13.0378   -0.5026  -23.3449 C   0  0  0  0  0  0  0  0  0  0  0  0
  -12.1556    0.4282  -23.8352 C   0  0  0  0  0  0  0  0  0  0  0  0
  -10.8041    0.2244  -23.7888 C   0  0  0  0  0  0  0  0  0  0  0  0
   -9.9458    1.2596  -24.3504 C   0  0  0  0  0  0  0  0  0  0  0  0
  -10.3706    2.3281  -24.8558 O   0  0  0  0  0  0  0  0  0  0  0  0
   -6.0385   -0.3848  -20.8123 C   0  0  0  0  0  0  0  0  0  0  0  0
   -6.1241   -0.4561  -19.4386 C   0  0  0  0  0  0  0  0  0  0  0  0
   -5.1676    0.0516  -18.6284 N   0  0  0  0  0  0  0  0  0  0  0  0
   -4.0714    0.6587  -19.1085 C   0  0  0  0  0  0  0  0  0  0  0  0
   -3.9564    0.7461  -20.4828 C   0  0  0  0  0  0  0  0  0  0  0  0
   -2.8246    1.3728  -20.9713 C   0  0  0  0  0  0  0  0  0  0  0  0
   -2.6474    1.4940  -22.3344 C   0  0  0  0  0  0  0  0  0  0  0  0
   -3.5982    0.9905  -23.2029 C   0  0  0  0  0  0  0  0  0  0  0  0
   -4.7365    0.3600  -22.6998 C   0  0  0  0  0  0  0  0  0  0  0  0
   -4.9245    0.2329  -21.3381 C   0  0  0  0  0  0  0  0  0  0  0  0
   -7.5779    2.0687  -24.2033 C   0  0  0  0  0  0  0  0  0  0  0  0
   -7.1960    3.8968  -27.5798 C   0  0  0  0  0  0  0  0  0  0  0  0
   -7.6664    3.4476  -26.2844 N   0  0  0  0  0  0  0  0  0  0  0  0
   -7.0056    2.4495  -25.5165 C   0  0  0  0  0  0  0  0  0  0  0  0
   -5.9585    1.9309  -25.9883 O   0  0  0  0  0  0  0  0  0  0  0  0
   -8.4847    3.8540  -25.9176 H   0  0  0  0  0  0  0  0  0  0  0  0
   -8.0498   -3.2828  -24.1903 C   0  0  0  0  0  0  0  0  0  0  0  0
   -7.3743   -4.4992  -23.7782 N   0  0  0  0  0  0  0  0  0  0  0  0
   -7.7311   -5.3899  -22.8673 N   0  0  0  0  0  0  0  0  0  0  0  0
   -6.8061   -6.3743  -22.8046 C   0  0  0  0  0  0  0  0  0  0  0  0
   -5.8712   -6.0542  -23.7092 N   0  0  0  0  0  0  0  0  0  0  0  0
   -6.2297   -4.9217  -24.2863 N   0  0  0  0  0  0  0  0  0  0  0  0
 29 30  1  0  0  0
 30 31  1  0  0  0
 30 33  1  0  0  0
 31 32  2  0  0  0
 31 28  1  0  0  0
 28  1  1  0  0  0
  1  2  1  0  0  0
  3  2  1  0  0  0
  3  4  1  0  0  0
  3  9  1  0  0  0
  4  5  2  0  0  0
  4  6  1  0  0  0
  6 18  1  0  0  0
  6  7  1  0  0  0
 18 19  2  0  0  0
 19 20  1  0  0  0
 20 21  2  0  0  0
 21 22  1  0  0  0
 22 23  2  0  0  0
 23 24  1  0  0  0
 24 25  2  0  0  0
 25 26  1  0  0  0
 26 27  2  0  0  0
 27 18  1  0  0  0
 27 22  1  0  0  0
  7  8  1  0  0  0
  8 34  1  0  0  0
  8  3  1  0  0  0
 34 35  1  0  0  0
 35 36  1  0  0  0
 36 37  2  0  0  0
 37 38  1  0  0  0
 38 39  2  0  0  0
 39 35  1  0  0  0
  9 10  2  0  0  0
 10 11  1  0  0  0
 11 12  1  0  0  0
 11 13  2  0  0  0
 13 14  1  0  0  0
 14 15  2  0  0  0
 15 16  1  0  0  0
 15  9  1  0  0  0
 16 17  2  0  0  0
 16  1  1  0  0  0
M  END
> <minimizedAffinity>
-8.13525

> <CNNscore>
0.7090962529

> <CNNaffinity>
6.8655486107

> <CNN_VS>
4.8683347702

> <CNNaffinity_variance>
0.0745907575

$$$$



 39 44  0  0  0  0  0  0  0  0999 V2000
   -6.9913   -2.9517  -25.4828 N   0  0  0  0  0  0  0  0  0  0  0  0
   -6.5331   -2.2531  -24.2708 C   0  0  0  0  0  0  0  0  0  0  0  0
   -7.0289   -3.0463  -23.1092 C   0  0  0  0  0  0  0  0  0  0  0  0
   -8.5243   -3.1602  -23.2871 C   0  0  0  0  0  0  0  0  0  0  0  0
   -9.1632   -4.1141  -23.8046 O   0  0  0  0  0  0  0  0  0  0  0  0
   -9.0595   -1.9506  -22.7411 N   0  0  0  0  0  0  0  0  0  0  0  0
   -8.0392   -1.2615  -21.9754 C   0  0  0  0  0  0  0  0  0  0  0  0
   -6.9385   -2.3259  -21.8023 C   0  0  0  0  0  0  0  0  0  0  0  0
   -6.4941   -4.3993  -23.1486 C   0  0  0  0  0  0  0  0  0  0  0  0
   -6.2068   -5.1671  -22.0377 C   0  0  0  0  0  0  0  0  0  0  0  0
   -5.7087   -6.4660  -22.1391 C   0  0  0  0  0  0  0  0  0  0  0  0
   -5.3624   -7.3931  -20.6993 Cl  0  0  0  0  0  0  0  0  0  0  0  0
   -5.4797   -7.0449  -23.3648 C   0  0  0  0  0  0  0  0  0  0  0  0
   -5.7601   -6.2943  -24.4797 C   0  0  0  0  0  0  0  0  0  0  0  0
   -6.2481   -5.0208  -24.3785 C   0  0  0  0  0  0  0  0  0  0  0  0
   -6.4984   -4.2936  -25.6163 C   0  0  0  0  0  0  0  0  0  0  0  0
   -6.3096   -4.7702  -26.7630 O   0  0  0  0  0  0  0  0  0  0  0  0
  -10.3762   -1.4573  -22.8946 C   0  0  0  0  0  0  0  0  0  0  0  0
  -11.5119   -2.2068  -22.6748 C   0  0  0  0  0  0  0  0  0  0  0  0
  -12.7547   -1.6972  -22.8325 N   0  0  0  0  0  0  0  0  0  0  0  0
  -12.9646   -0.4278  -23.2137 C   0  0  0  0  0  0  0  0  0  0  0  0
  -11.8451    0.3496  -23.4419 C   0  0  0  0  0  0  0  0  0  0  0  0
  -12.0680    1.6567  -23.8344 C   0  0  0  0  0  0  0  0  0  0  0  0
  -10.9937    2.4875  -24.0789 C   0  0  0  0  0  0  0  0  0  0  0  0
   -9.7039    2.0118  -23.9311 C   0  0  0  0  0  0  0  0  0  0  0  0
   -9.4899    0.6914  -23.5347 C   0  0  0  0  0  0  0  0  0  0  0  0
  -10.5569   -0.1490  -23.2873 C   0  0  0  0  0  0  0  0  0  0  0  0
   -7.8471   -2.3548  -26.4563 C   0  0  0  0  0  0  0  0  0  0  0  0
   -5.6064    0.3447  -28.0628 C   0  0  0  0  0  0  0  0  0  0  0  0
   -6.1580   -0.9138  -27.6012 N   0  0  0  0  0  0  0  0  0  0  0  0
   -7.3787   -1.0133  -26.8785 C   0  0  0  0  0  0  0  0  0  0  0  0
   -8.0109    0.0475  -26.6279 O   0  0  0  0  0  0  0  0  0  0  0  0
   -5.6625   -1.7415  -27.7980 H   0  0  0  0  0  0  0  0  0  0  0  0
   -5.6637   -1.5469  -21.6146 C   0  0  0  0  0  0  0  0  0  0  0  0
   -5.5828   -1.2023  -20.2074 N   0  0  0  0  0  0  0  0  0  0  0  0
   -5.2623   -0.0496  -19.6428 N   0  0  0  0  0  0  0  0  0  0  0  0
   -5.3130   -0.1708  -18.2970 C   0  0  0  0  0  0  0  0  0  0  0  0
   -5.6757   -1.4383  -18.0584 N   0  0  0  0  0  0  0  0  0  0  0  0
   -5.8340   -2.0451  -19.2208 N   0  0  0  0  0  0  0  0  0  0  0  0
 29 30  1  0  0  0
 30 31  1  0  0  0
 30 33  1  0  0  0
 31 32  2  0  0  0
 31 28  1  0  0  0
 28  1  1  0  0  0
  1  2  1  0  0  0
  3  2  1  0  0  0
  3  4  1  0  0  0
  3  9  1  0  0  0
  4  5  2  0  0  0
  4  6  1  0  0  0
  6 18  1  0  0  0
  6  7  1  0  0  0
 18 19  2  0  0  0
 19 20  1  0  0  0
 20 21  2  0  0  0
 21 22  1  0  0  0
 22 23  2  0  0  0
 23 24  1  0  0  0
 24 25  2  0  0  0
 25 26  1  0  0  0
 26 27  2  0  0  0
 27 18  1  0  0  0
 27 22  1  0  0  0
  7  8  1  0  0  0
  8 34  1  0  0  0
  8  3  1  0  0  0
 34 35  1  0  0  0
 35 36  1  0  0  0
 36 37  2  0  0  0
 37 38  1  0  0  0
 38 39  2  0  0  0
 39 35  1  0  0  0
  9 10  2  0  0  0
 10 11  1  0  0  0
 11 12  1  0  0  0
 11 13  2  0  0  0
 13 14  1  0  0  0
 14 15  2  0  0  0
 15 16  1  0  0  0
 15  9  1  0  0  0
 16 17  2  0  0  0
 16  1  1  0  0  0
M  END
> <minimizedAffinity>
-8.68874

> <CNNscore>
0.4937346578

> <CNNaffinity>
6.6652364731

> <CNN_VS>
3.2908582687

> <CNNaffinity_variance>
0.3489525616

$$$$



 39 44  0  0  0  0  0  0  0  0999 V2000
   -7.0434   -1.6991  -22.5903 N   0  0  0  0  0  0  0  0  0  0  0  0
   -6.7969   -0.9316  -23.8221 C   0  0  0  0  0  0  0  0  0  0  0  0
   -6.7474    0.5052  -23.4255 C   0  0  0  0  0  0  0  0  0  0  0  0
   -8.0488    0.7885  -22.7134 C   0  0  0  0  0  0  0  0  0  0  0  0
   -8.2593    0.7818  -21.4718 O   0  0  0  0  0  0  0  0  0  0  0  0
   -8.9918    1.0664  -23.7532 N   0  0  0  0  0  0  0  0  0  0  0  0
   -8.2952    1.2752  -25.0077 C   0  0  0  0  0  0  0  0  0  0  0  0
   -6.8261    1.4538  -24.5784 C   0  0  0  0  0  0  0  0  0  0  0  0
   -5.6802    0.7333  -22.4626 C   0  0  0  0  0  0  0  0  0  0  0  0
   -4.9515    1.9009  -22.3536 C   0  0  0  0  0  0  0  0  0  0  0  0
   -3.9484    2.0661  -21.3988 C   0  0  0  0  0  0  0  0  0  0  0  0
   -3.0571    3.5659  -21.3056 Cl  0  0  0  0  0  0  0  0  0  0  0  0
   -3.6380    1.0608  -20.5138 C   0  0  0  0  0  0  0  0  0  0  0  0
   -4.3534   -0.1073  -20.6092 C   0  0  0  0  0  0  0  0  0  0  0  0
   -5.3365   -0.2675  -21.5462 C   0  0  0  0  0  0  0  0  0  0  0  0
   -6.0297   -1.5488  -21.5847 C   0  0  0  0  0  0  0  0  0  0  0  0
   -5.7907   -2.5020  -20.8024 O   0  0  0  0  0  0  0  0  0  0  0  0
  -10.3989    1.1385  -23.6288 C   0  0  0  0  0  0  0  0  0  0  0  0
  -11.1215    2.3097  -23.7035 C   0  0  0  0  0  0  0  0  0  0  0  0
  -12.4680    2.3363  -23.5797 N   0  0  0  0  0  0  0  0  0  0  0  0
  -13.1899    1.2236  -23.3756 C   0  0  0  0  0  0  0  0  0  0  0  0
  -12.4938    0.0326  -23.2960 C   0  0  0  0  0  0  0  0  0  0  0  0
  -13.2434   -1.1103  -23.0856 C   0  0  0  0  0  0  0  0  0  0  0  0
  -12.6106   -2.3334  -22.9961 C   0  0  0  0  0  0  0  0  0  0  0  0
  -11.2354   -2.4110  -23.1165 C   0  0  0  0  0  0  0  0  0  0  0  0
  -10.4884   -1.2519  -23.3285 C   0  0  0  0  0  0  0  0  0  0  0  0
  -11.1104   -0.0229  -23.4198 C   0  0  0  0  0  0  0  0  0  0  0  0
   -8.1856   -2.5333  -22.4010 C   0  0  0  0  0  0  0  0  0  0  0  0
   -7.3263   -6.2572  -22.9326 C   0  0  0  0  0  0  0  0  0  0  0  0
   -7.5014   -4.9355  -22.3638 N   0  0  0  0  0  0  0  0  0  0  0  0
   -8.0536   -3.8415  -23.0853 C   0  0  0  0  0  0  0  0  0  0  0  0
   -8.4078   -4.0333  -24.2793 O   0  0  0  0  0  0  0  0  0  0  0  0
   -7.2240   -4.7877  -21.4308 H   0  0  0  0  0  0  0  0  0  0  0  0
   -6.0129    1.0380  -25.7754 C   0  0  0  0  0  0  0  0  0  0  0  0
   -4.8148    1.8567  -25.7768 N   0  0  0  0  0  0  0  0  0  0  0  0
   -3.5453    1.4861  -25.7419 N   0  0  0  0  0  0  0  0  0  0  0  0
   -2.7500    2.5796  -25.7590 C   0  0  0  0  0  0  0  0  0  0  0  0
   -3.5779    3.6319  -25.8054 N   0  0  0  0  0  0  0  0  0  0  0  0
   -4.8180    3.1777  -25.8156 N   0  0  0  0  0  0  0  0  0  0  0  0
 29 30  1  0  0  0
 30 31  1  0  0  0
 30 33  1  0  0  0
 31 32  2  0  0  0
 31 28  1  0  0  0
 28  1  1  0  0  0
  1  2  1  0  0  0
  3  2  1  0  0  0
  3  4  1  0  0  0
  3  9  1  0  0  0
  4  5  2  0  0  0
  4  6  1  0  0  0
  6 18  1  0  0  0
  6  7  1  0  0  0
 18 19  2  0  0  0
 19 20  1  0  0  0
 20 21  2  0  0  0
 21 22  1  0  0  0
 22 23  2  0  0  0
 23 24  1  0  0  0
 24 25  2  0  0  0
 25 26  1  0  0  0
 26 27  2  0  0  0
 27 18  1  0  0  0
 27 22  1  0  0  0
  7  8  1  0  0  0
  8 34  1  0  0  0
  8  3  1  0  0  0
 34 35  1  0  0  0
 35 36  1  0  0  0
 36 37  2  0  0  0
 37 38  1  0  0  0
 38 39  2  0  0  0
 39 35  1  0  0  0
  9 10  2  0  0  0
 10 11  1  0  0  0
 11 12  1  0  0  0
 11 13  2  0  0  0
 13 14  1  0  0  0
 14 15  2  0  0  0
 15 16  1  0  0  0
 15  9  1  0  0  0
 16 17  2  0  0  0
 16  1  1  0  0  0
M  END
> <minimizedAffinity>
-7.24353

> <CNNscore>
0.3486555815

> <CNNaffinity>
6.5723237991

> <CNN_VS>
2.2914774418

> <CNNaffinity_variance>
0.0690367967

$$$$



 39 44  0  0  0  0  0  0  0  0999 V2000
   -7.9239    1.4807  -24.5426 N   0  0  0  0  0  0  0  0  0  0  0  0
   -7.4864    0.0803  -24.6628 C   0  0  0  0  0  0  0  0  0  0  0  0
   -8.0359   -0.6404  -23.4785 C   0  0  0  0  0  0  0  0  0  0  0  0
   -7.5415    0.1100  -22.2646 C   0  0  0  0  0  0  0  0  0  0  0  0
   -8.1530    0.9956  -21.6106 O   0  0  0  0  0  0  0  0  0  0  0  0
   -6.2283   -0.4018  -22.0173 N   0  0  0  0  0  0  0  0  0  0  0  0
   -6.0158   -1.6094  -22.7912 C   0  0  0  0  0  0  0  0  0  0  0  0
   -7.4334   -1.9911  -23.2594 C   0  0  0  0  0  0  0  0  0  0  0  0
   -9.4891   -0.5619  -23.4612 C   0  0  0  0  0  0  0  0  0  0  0  0
  -10.3265   -1.5389  -22.9609 C   0  0  0  0  0  0  0  0  0  0  0  0
  -11.7144   -1.4000  -22.9584 C   0  0  0  0  0  0  0  0  0  0  0  0
  -12.7270   -2.6688  -22.3123 Cl  0  0  0  0  0  0  0  0  0  0  0  0
  -12.3158   -0.2701  -23.4601 C   0  0  0  0  0  0  0  0  0  0  0  0
  -11.4968    0.7110  -23.9619 C   0  0  0  0  0  0  0  0  0  0  0  0
  -10.1362    0.5730  -23.9638 C   0  0  0  0  0  0  0  0  0  0  0  0
   -9.3486    1.6585  -24.5340 C   0  0  0  0  0  0  0  0  0  0  0  0
   -9.8415    2.7134  -25.0052 O   0  0  0  0  0  0  0  0  0  0  0  0
   -5.2487    0.1480  -21.1578 C   0  0  0  0  0  0  0  0  0  0  0  0
   -5.3154    0.1020  -19.7819 C   0  0  0  0  0  0  0  0  0  0  0  0
   -4.3566    0.6402  -18.9944 N   0  0  0  0  0  0  0  0  0  0  0  0
   -3.2765    1.2550  -19.5006 C   0  0  0  0  0  0  0  0  0  0  0  0
   -3.1808    1.3175  -20.8778 C   0  0  0  0  0  0  0  0  0  0  0  0
   -2.0656    1.9523  -21.3932 C   0  0  0  0  0  0  0  0  0  0  0  0
   -1.9080    2.0498  -22.7606 C   0  0  0  0  0  0  0  0  0  0  0  0
   -2.8619    1.5147  -23.6066 C   0  0  0  0  0  0  0  0  0  0  0  0
   -3.9834    0.8764  -23.0763 C   0  0  0  0  0  0  0  0  0  0  0  0
   -4.1517    0.7728  -21.7101 C   0  0  0  0  0  0  0  0  0  0  0  0
   -7.0191    2.5803  -24.4499 C   0  0  0  0  0  0  0  0  0  0  0  0
   -8.6847    5.8134  -23.1611 C   0  0  0  0  0  0  0  0  0  0  0  0
   -8.1882    4.7418  -24.0016 N   0  0  0  0  0  0  0  0  0  0  0  0
   -7.4802    3.6168  -23.4960 C   0  0  0  0  0  0  0  0  0  0  0  0
   -7.2753    3.5506  -22.2544 O   0  0  0  0  0  0  0  0  0  0  0  0
   -8.3493    4.7955  -24.9713 H   0  0  0  0  0  0  0  0  0  0  0  0
   -7.2302   -2.7874  -24.5210 C   0  0  0  0  0  0  0  0  0  0  0  0
   -8.5268   -3.3185  -24.8984 N   0  0  0  0  0  0  0  0  0  0  0  0
   -9.2592   -4.2460  -24.3037 N   0  0  0  0  0  0  0  0  0  0  0  0
  -10.4050   -4.4364  -24.9962 C   0  0  0  0  0  0  0  0  0  0  0  0
  -10.3474   -3.5927  -26.0354 N   0  0  0  0  0  0  0  0  0  0  0  0
   -9.2090   -2.9272  -25.9606 N   0  0  0  0  0  0  0  0  0  0  0  0
 29 30  1  0  0  0
 30 31  1  0  0  0
 30 33  1  0  0  0
 31 32  2  0  0  0
 31 28  1  0  0  0
 28  1  1  0  0  0
  1  2  1  0  0  0
  3  2  1  0  0  0
  3  4  1  0  0  0
  3  9  1  0  0  0
  4  5  2  0  0  0
  4  6  1  0  0  0
  6 18  1  0  0  0
  6  7  1  0  0  0
 18 19  2  0  0  0
 19 20  1  0  0  0
 20 21  2  0  0  0
 21 22  1  0  0  0
 22 23  2  0  0  0
 23 24  1  0  0  0
 24 25  2  0  0  0
 25 26  1  0  0  0
 26 27  2  0  0  0
 27 18  1  0  0  0
 27 22  1  0  0  0
  7  8  1  0  0  0
  8 34  1  0  0  0
  8  3  1  0  0  0
 34 35  1  0  0  0
 35 36  1  0  0  0
 36 37  2  0  0  0
 37 38  1  0  0  0
 38 39  2  0  0  0
 39 35  1  0  0  0
  9 10  2  0  0  0
 10 11  1  0  0  0
 11 12  1  0  0  0
 11 13  2  0  0  0
 13 14  1  0  0  0
 14 15  2  0  0  0
 15 16  1  0  0  0
 15  9  1  0  0  0
 16 17  2  0  0  0
 16  1  1  0  0  0
M  END
> <minimizedAffinity>
-7.92552

> <CNNscore>
0.3362755477

> <CNNaffinity>
6.1661729813

> <CNN_VS>
2.0735332966

> <CNNaffinity_variance>
0.2801099122

$$$$



 39 44  0  0  0  0  0  0  0  0999 V2000
   -9.3332    2.3288  -24.5793 N   0  0  0  0  0  0  0  0  0  0  0  0
   -8.7566    1.0587  -25.0500 C   0  0  0  0  0  0  0  0  0  0  0  0
   -8.9687    0.0647  -23.9586 C   0  0  0  0  0  0  0  0  0  0  0  0
   -8.3430    0.6618  -22.7205 C   0  0  0  0  0  0  0  0  0  0  0  0
   -8.9197    1.3111  -21.8084 O   0  0  0  0  0  0  0  0  0  0  0  0
   -6.9534    0.3312  -22.8065 N   0  0  0  0  0  0  0  0  0  0  0  0
   -6.7482   -0.6738  -23.8313 C   0  0  0  0  0  0  0  0  0  0  0  0
   -8.1713   -1.1897  -24.1198 C   0  0  0  0  0  0  0  0  0  0  0  0
  -10.3884   -0.0939  -23.6805 C   0  0  0  0  0  0  0  0  0  0  0  0
  -10.9828   -1.2640  -23.2519 C   0  0  0  0  0  0  0  0  0  0  0  0
  -12.3494   -1.3511  -22.9868 C   0  0  0  0  0  0  0  0  0  0  0  0
  -13.0492   -2.8581  -22.4464 Cl  0  0  0  0  0  0  0  0  0  0  0  0
  -13.1737   -0.2620  -23.1428 C   0  0  0  0  0  0  0  0  0  0  0  0
  -12.5980    0.9095  -23.5688 C   0  0  0  0  0  0  0  0  0  0  0  0
  -11.2580    0.9929  -23.8285 C   0  0  0  0  0  0  0  0  0  0  0  0
  -10.7392    2.2726  -24.2944 C   0  0  0  0  0  0  0  0  0  0  0  0
  -11.4427    3.3009  -24.4543 O   0  0  0  0  0  0  0  0  0  0  0  0
   -5.9005    0.8725  -22.0326 C   0  0  0  0  0  0  0  0  0  0  0  0
   -5.0172    1.8262  -22.4906 C   0  0  0  0  0  0  0  0  0  0  0  0
   -4.0227    2.3192  -21.7180 N   0  0  0  0  0  0  0  0  0  0  0  0
   -3.8298    1.9123  -20.4538 C   0  0  0  0  0  0  0  0  0  0  0  0
   -4.6998    0.9562  -19.9653 C   0  0  0  0  0  0  0  0  0  0  0  0
   -4.4958    0.5410  -18.6621 C   0  0  0  0  0  0  0  0  0  0  0  0
   -5.3289   -0.4117  -18.1121 C   0  0  0  0  0  0  0  0  0  0  0  0
   -6.3600   -0.9453  -18.8632 C   0  0  0  0  0  0  0  0  0  0  0  0
   -6.5571   -0.5196  -20.1770 C   0  0  0  0  0  0  0  0  0  0  0  0
   -5.7301    0.4329  -20.7378 C   0  0  0  0  0  0  0  0  0  0  0  0
   -8.5720    3.5257  -24.4225 C   0  0  0  0  0  0  0  0  0  0  0  0
   -9.4298    5.9265  -27.3188 C   0  0  0  0  0  0  0  0  0  0  0  0
   -9.4701    5.1467  -26.0976 N   0  0  0  0  0  0  0  0  0  0  0  0
   -8.4223    4.2744  -25.6930 C   0  0  0  0  0  0  0  0  0  0  0  0
   -7.4088    4.1762  -26.4353 O   0  0  0  0  0  0  0  0  0  0  0  0
  -10.2628    5.2248  -25.5191 H   0  0  0  0  0  0  0  0  0  0  0  0
   -8.1221   -1.7117  -25.5313 C   0  0  0  0  0  0  0  0  0  0  0  0
   -8.7515   -3.0191  -25.5199 N   0  0  0  0  0  0  0  0  0  0  0  0
   -9.9589   -3.3728  -25.9291 N   0  0  0  0  0  0  0  0  0  0  0  0
  -10.1365   -4.6991  -25.7345 C   0  0  0  0  0  0  0  0  0  0  0  0
   -8.9953   -5.1440  -25.1917 N   0  0  0  0  0  0  0  0  0  0  0  0
   -8.1722   -4.1183  -25.0697 N   0  0  0  0  0  0  0  0  0  0  0  0
 29 30  1  0  0  0
 30 31  1  0  0  0
 30 33  1  0  0  0
 31 32  2  0  0  0
 31 28  1  0  0  0
 28  1  1  0  0  0
  1  2  1  0  0  0
  3  2  1  0  0  0
  3  4  1  0  0  0
  3  9  1  0  0  0
  4  5  2  0  0  0
  4  6  1  0  0  0
  6 18  1  0  0  0
  6  7  1  0  0  0
 18 19  2  0  0  0
 19 20  1  0  0  0
 20 21  2  0  0  0
 21 22  1  0  0  0
 22 23  2  0  0  0
 23 24  1  0  0  0
 24 25  2  0  0  0
 25 26  1  0  0  0
 26 27  2  0  0  0
 27 18  1  0  0  0
 27 22  1  0  0  0
  7  8  1  0  0  0
  8 34  1  0  0  0
  8  3  1  0  0  0
 34 35  1  0  0  0
 35 36  1  0  0  0
 36 37  2  0  0  0
 37 38  1  0  0  0
 38 39  2  0  0  0
 39 35  1  0  0  0
  9 10  2  0  0  0
 10 11  1  0  0  0
 11 12  1  0  0  0
 11 13  2  0  0  0
 13 14  1  0  0  0
 14 15  2  0  0  0
 15 16  1  0  0  0
 15  9  1  0  0  0
 16 17  2  0  0  0
 16  1  1  0  0  0
M  END
> <minimizedAffinity>
-8.59409

> <CNNscore>
0.2604738176

> <CNNaffinity>
6.3379974365

> <CNN_VS>
1.6508823633

> <CNNaffinity_variance>
0.1858551055

$$$$



 39 44  0  0  0  0  0  0  0  0999 V2000
   -5.9838   -2.2913  -26.4816 N   0  0  0  0  0  0  0  0  0  0  0  0
   -5.9421   -2.6908  -25.0653 C   0  0  0  0  0  0  0  0  0  0  0  0
   -7.2783   -3.2722  -24.7477 C   0  0  0  0  0  0  0  0  0  0  0  0
   -8.2929   -2.2144  -25.1117 C   0  0  0  0  0  0  0  0  0  0  0  0
   -8.9445   -2.1158  -26.1849 O   0  0  0  0  0  0  0  0  0  0  0  0
   -8.3548   -1.3478  -23.9747 N   0  0  0  0  0  0  0  0  0  0  0  0
   -7.6934   -1.9698  -22.8441 C   0  0  0  0  0  0  0  0  0  0  0  0
   -7.5331   -3.4379  -23.2838 C   0  0  0  0  0  0  0  0  0  0  0  0
   -7.5480   -4.4256  -25.5932 C   0  0  0  0  0  0  0  0  0  0  0  0
   -8.2956   -5.5233  -25.2159 C   0  0  0  0  0  0  0  0  0  0  0  0
   -8.5326   -6.5943  -26.0774 C   0  0  0  0  0  0  0  0  0  0  0  0
   -9.4864   -7.9588  -25.5473 Cl  0  0  0  0  0  0  0  0  0  0  0  0
   -8.0257   -6.6033  -27.3553 C   0  0  0  0  0  0  0  0  0  0  0  0
   -7.2795   -5.5189  -27.7459 C   0  0  0  0  0  0  0  0  0  0  0  0
   -7.0480   -4.4698  -26.8999 C   0  0  0  0  0  0  0  0  0  0  0  0
   -6.2290   -3.3711  -27.3956 C   0  0  0  0  0  0  0  0  0  0  0  0
   -5.7408   -3.3234  -28.5519 O   0  0  0  0  0  0  0  0  0  0  0  0
   -8.9579   -0.0700  -23.9105 C   0  0  0  0  0  0  0  0  0  0  0  0
   -8.2634    1.1169  -24.0025 C   0  0  0  0  0  0  0  0  0  0  0  0
   -8.8780    2.3198  -23.9368 N   0  0  0  0  0  0  0  0  0  0  0  0
  -10.2052    2.4375  -23.7775 C   0  0  0  0  0  0  0  0  0  0  0  0
  -10.9298    1.2648  -23.6821 C   0  0  0  0  0  0  0  0  0  0  0  0
  -12.2970    1.3927  -23.5181 C   0  0  0  0  0  0  0  0  0  0  0  0
  -13.0800    0.2611  -23.4159 C   0  0  0  0  0  0  0  0  0  0  0  0
  -12.4969   -0.9912  -23.4774 C   0  0  0  0  0  0  0  0  0  0  0  0
  -11.1167   -1.1093  -23.6430 C   0  0  0  0  0  0  0  0  0  0  0  0
  -10.3233    0.0157  -23.7465 C   0  0  0  0  0  0  0  0  0  0  0  0
   -5.7902   -0.9485  -26.9241 C   0  0  0  0  0  0  0  0  0  0  0  0
   -2.2589   -0.0464  -25.6572 C   0  0  0  0  0  0  0  0  0  0  0  0
   -3.3772   -0.6597  -26.3462 N   0  0  0  0  0  0  0  0  0  0  0  0
   -4.7264   -0.2482  -26.1658 C   0  0  0  0  0  0  0  0  0  0  0  0
   -4.9590    0.6976  -25.3662 O   0  0  0  0  0  0  0  0  0  0  0  0
   -3.1933   -1.3985  -26.9705 H   0  0  0  0  0  0  0  0  0  0  0  0
   -6.3512   -3.9546  -22.5070 C   0  0  0  0  0  0  0  0  0  0  0  0
   -6.3297   -5.3952  -22.6798 N   0  0  0  0  0  0  0  0  0  0  0  0
   -7.1815   -6.3061  -22.2385 N   0  0  0  0  0  0  0  0  0  0  0  0
   -6.7786   -7.5359  -22.6306 C   0  0  0  0  0  0  0  0  0  0  0  0
   -5.6503   -7.3449  -23.3273 N   0  0  0  0  0  0  0  0  0  0  0  0
   -5.3948   -6.0493  -23.3468 N   0  0  0  0  0  0  0  0  0  0  0  0
 29 30  1  0  0  0
 30 31  1  0  0  0
 30 33  1  0  0  0
 31 32  2  0  0  0
 31 28  1  0  0  0
 28  1  1  0  0  0
  1  2  1  0  0  0
  3  2  1  0  0  0
  3  4  1  0  0  0
  3  9  1  0  0  0
  4  5  2  0  0  0
  4  6  1  0  0  0
  6 18  1  0  0  0
  6  7  1  0  0  0
 18 19  2  0  0  0
 19 20  1  0  0  0
 20 21  2  0  0  0
 21 22  1  0  0  0
 22 23  2  0  0  0
 23 24  1  0  0  0
 24 25  2  0  0  0
 25 26  1  0  0  0
 26 27  2  0  0  0
 27 18  1  0  0  0
 27 22  1  0  0  0
  7  8  1  0  0  0
  8 34  1  0  0  0
  8  3  1  0  0  0
 34 35  1  0  0  0
 35 36  1  0  0  0
 36 37  2  0  0  0
 37 38  1  0  0  0
 38 39  2  0  0  0
 39 35  1  0  0  0
  9 10  2  0  0  0
 10 11  1  0  0  0
 11 12  1  0  0  0
 11 13  2  0  0  0
 13 14  1  0  0  0
 14 15  2  0  0  0
 15 16  1  0  0  0
 15  9  1  0  0  0
 16 17  2  0  0  0
 16  1  1  0  0  0
M  END
> <minimizedAffinity>
-6.96609

> <CNNscore>
0.2170723528

> <CNNaffinity>
6.0525441170

> <CNN_VS>
1.3138400316

> <CNNaffinity_variance>
0.3533858657

$$$$



 39 44  0  0  0  0  0  0  0  0999 V2000
   -6.0520   -1.4027  -24.1049 N   0  0  0  0  0  0  0  0  0  0  0  0
   -4.8016   -0.6552  -23.8931 C   0  0  0  0  0  0  0  0  0  0  0  0
   -5.0841    0.3550  -22.8330 C   0  0  0  0  0  0  0  0  0  0  0  0
   -6.2652    1.1582  -23.3236 C   0  0  0  0  0  0  0  0  0  0  0  0
   -7.4796    0.9864  -23.0378 O   0  0  0  0  0  0  0  0  0  0  0  0
   -5.7077    2.1571  -24.1834 N   0  0  0  0  0  0  0  0  0  0  0  0
   -4.2696    2.2126  -24.0068 C   0  0  0  0  0  0  0  0  0  0  0  0
   -4.0347    1.4130  -22.7108 C   0  0  0  0  0  0  0  0  0  0  0  0
   -5.4999   -0.2991  -21.6012 C   0  0  0  0  0  0  0  0  0  0  0  0
   -5.2469    0.1771  -20.3303 C   0  0  0  0  0  0  0  0  0  0  0  0
   -5.6847   -0.4880  -19.1852 C   0  0  0  0  0  0  0  0  0  0  0  0
   -5.3361    0.1602  -17.6006 Cl  0  0  0  0  0  0  0  0  0  0  0  0
   -6.3961   -1.6611  -19.2737 C   0  0  0  0  0  0  0  0  0  0  0  0
   -6.6558   -2.1484  -20.5309 C   0  0  0  0  0  0  0  0  0  0  0  0
   -6.2255   -1.4950  -21.6525 C   0  0  0  0  0  0  0  0  0  0  0  0
   -6.5320   -2.0972  -22.9437 C   0  0  0  0  0  0  0  0  0  0  0  0
   -7.1783   -3.1648  -23.0866 O   0  0  0  0  0  0  0  0  0  0  0  0
   -6.4087    2.9905  -25.0859 C   0  0  0  0  0  0  0  0  0  0  0  0
   -6.4749    2.7729  -26.4453 C   0  0  0  0  0  0  0  0  0  0  0  0
   -7.1569    3.5943  -27.2754 N   0  0  0  0  0  0  0  0  0  0  0  0
   -7.8145    4.6761  -26.8305 C   0  0  0  0  0  0  0  0  0  0  0  0
   -7.7670    4.9215  -25.4714 C   0  0  0  0  0  0  0  0  0  0  0  0
   -8.4466    6.0377  -25.0192 C   0  0  0  0  0  0  0  0  0  0  0  0
   -8.4398    6.3407  -23.6729 C   0  0  0  0  0  0  0  0  0  0  0  0
   -7.7563    5.5304  -22.7851 C   0  0  0  0  0  0  0  0  0  0  0  0
   -7.0739    4.4066  -23.2517 C   0  0  0  0  0  0  0  0  0  0  0  0
   -7.0736    4.0936  -24.5962 C   0  0  0  0  0  0  0  0  0  0  0  0
   -6.7361   -1.4488  -25.3564 C   0  0  0  0  0  0  0  0  0  0  0  0
   -5.5919   -4.8217  -26.8407 C   0  0  0  0  0  0  0  0  0  0  0  0
   -6.1592   -3.7958  -25.9882 N   0  0  0  0  0  0  0  0  0  0  0  0
   -6.1230   -2.4097  -26.3041 C   0  0  0  0  0  0  0  0  0  0  0  0
   -5.5693   -2.0581  -27.3800 O   0  0  0  0  0  0  0  0  0  0  0  0
   -6.5914   -4.0726  -25.1480 H   0  0  0  0  0  0  0  0  0  0  0  0
   -2.6241    0.8971  -22.8167 C   0  0  0  0  0  0  0  0  0  0  0  0
   -1.9081    1.3839  -21.6522 N   0  0  0  0  0  0  0  0  0  0  0  0
   -0.6232    1.2822  -21.3541 N   0  0  0  0  0  0  0  0  0  0  0  0
   -0.3817    1.8797  -20.1653 C   0  0  0  0  0  0  0  0  0  0  0  0
   -1.5643    2.3502  -19.7469 N   0  0  0  0  0  0  0  0  0  0  0  0
   -2.4725    2.0424  -20.6550 N   0  0  0  0  0  0  0  0  0  0  0  0
 29 30  1  0  0  0
 30 31  1  0  0  0
 30 33  1  0  0  0
 31 32  2  0  0  0
 31 28  1  0  0  0
 28  1  1  0  0  0
  1  2  1  0  0  0
  3  2  1  0  0  0
  3  4  1  0  0  0
  3  9  1  0  0  0
  4  5  2  0  0  0
  4  6  1  0  0  0
  6 18  1  0  0  0
  6  7  1  0  0  0
 18 19  2  0  0  0
 19 20  1  0  0  0
 20 21  2  0  0  0
 21 22  1  0  0  0
 22 23  2  0  0  0
 23 24  1  0  0  0
 24 25  2  0  0  0
 25 26  1  0  0  0
 26 27  2  0  0  0
 27 18  1  0  0  0
 27 22  1  0  0  0
  7  8  1  0  0  0
  8 34  1  0  0  0
  8  3  1  0  0  0
 34 35  1  0  0  0
 35 36  1  0  0  0
 36 37  2  0  0  0
 37 38  1  0  0  0
 38 39  2  0  0  0
 39 35  1  0  0  0
  9 10  2  0  0  0
 10 11  1  0  0  0
 11 12  1  0  0  0
 11 13  2  0  0  0
 13 14  1  0  0  0
 14 15  2  0  0  0
 15 16  1  0  0  0
 15  9  1  0  0  0
 16 17  2  0  0  0
 16  1  1  0  0  0
M  END
> <minimizedAffinity>
-6.11742

> <CNNscore>
0.2134234607

> <CNNaffinity>
5.8299980164

> <CNN_VS>
1.2442584038

> <CNNaffinity_variance>
0.2019615620

$$$$



 39 44  0  0  0  0  0  0  0  0999 V2000
   -9.0034    0.6656  -23.3311 N   0  0  0  0  0  0  0  0  0  0  0  0
   -8.5840   -0.1551  -22.1833 C   0  0  0  0  0  0  0  0  0  0  0  0
   -7.0972   -0.2504  -22.2490 C   0  0  0  0  0  0  0  0  0  0  0  0
   -6.7725   -0.8027  -23.6166 C   0  0  0  0  0  0  0  0  0  0  0  0
   -6.4588   -0.1540  -24.6495 O   0  0  0  0  0  0  0  0  0  0  0  0
   -6.8980   -2.2222  -23.4867 N   0  0  0  0  0  0  0  0  0  0  0  0
   -6.9690   -2.5846  -22.0845 C   0  0  0  0  0  0  0  0  0  0  0  0
   -6.5187   -1.3025  -21.3580 C   0  0  0  0  0  0  0  0  0  0  0  0
   -6.4963    1.0729  -22.1738 C   0  0  0  0  0  0  0  0  0  0  0  0
   -5.2714    1.3524  -21.6012 C   0  0  0  0  0  0  0  0  0  0  0  0
   -4.7398    2.6416  -21.5724 C   0  0  0  0  0  0  0  0  0  0  0  0
   -3.1843    2.9384  -20.8342 Cl  0  0  0  0  0  0  0  0  0  0  0  0
   -5.4210    3.7029  -22.1198 C   0  0  0  0  0  0  0  0  0  0  0  0
   -6.6411    3.4418  -22.6930 C   0  0  0  0  0  0  0  0  0  0  0  0
   -7.1608    2.1772  -22.7201 C   0  0  0  0  0  0  0  0  0  0  0  0
   -8.4708    1.9989  -23.3333 C   0  0  0  0  0  0  0  0  0  0  0  0
   -9.1384    2.9291  -23.8498 O   0  0  0  0  0  0  0  0  0  0  0  0
   -6.9491   -3.1713  -24.5341 C   0  0  0  0  0  0  0  0  0  0  0  0
   -5.8435   -3.6203  -25.2237 C   0  0  0  0  0  0  0  0  0  0  0  0
   -5.9346   -4.5302  -26.2201 N   0  0  0  0  0  0  0  0  0  0  0  0
   -7.1080   -5.0562  -26.6038 C   0  0  0  0  0  0  0  0  0  0  0  0
   -8.2358   -4.6258  -25.9311 C   0  0  0  0  0  0  0  0  0  0  0  0
   -9.4418   -5.1715  -26.3310 C   0  0  0  0  0  0  0  0  0  0  0  0
  -10.6071   -4.7851  -25.7009 C   0  0  0  0  0  0  0  0  0  0  0  0
  -10.5644   -3.8575  -24.6764 C   0  0  0  0  0  0  0  0  0  0  0  0
   -9.3424   -3.3129  -24.2806 C   0  0  0  0  0  0  0  0  0  0  0  0
   -8.1703   -3.6919  -24.9036 C   0  0  0  0  0  0  0  0  0  0  0  0
   -9.8728    0.1916  -24.3587 C   0  0  0  0  0  0  0  0  0  0  0  0
  -13.1876    1.7170  -23.1041 C   0  0  0  0  0  0  0  0  0  0  0  0
  -11.8082    1.5194  -23.5036 N   0  0  0  0  0  0  0  0  0  0  0  0
  -11.3027    0.2776  -23.9778 C   0  0  0  0  0  0  0  0  0  0  0  0
  -12.0958   -0.6987  -24.0535 O   0  0  0  0  0  0  0  0  0  0  0  0
  -11.1902    2.2834  -23.4437 H   0  0  0  0  0  0  0  0  0  0  0  0
   -7.1574   -1.3767  -19.9965 C   0  0  0  0  0  0  0  0  0  0  0  0
   -6.3071   -0.6277  -19.0900 N   0  0  0  0  0  0  0  0  0  0  0  0
   -5.0035   -0.4101  -19.1493 N   0  0  0  0  0  0  0  0  0  0  0  0
   -4.6180    0.3430  -18.0945 C   0  0  0  0  0  0  0  0  0  0  0  0
   -5.7317    0.5782  -17.3880 N   0  0  0  0  0  0  0  0  0  0  0  0
   -6.7397   -0.0141  -18.0024 N   0  0  0  0  0  0  0  0  0  0  0  0
 29 30  1  0  0  0
 30 31  1  0  0  0
 30 33  1  0  0  0
 31 32  2  0  0  0
 31 28  1  0  0  0
 28  1  1  0  0  0
  1  2  1  0  0  0
  3  2  1  0  0  0
  3  4  1  0  0  0
  3  9  1  0  0  0
  4  5  2  0  0  0
  4  6  1  0  0  0
  6 18  1  0  0  0
  6  7  1  0  0  0
 18 19  2  0  0  0
 19 20  1  0  0  0
 20 21  2  0  0  0
 21 22  1  0  0  0
 22 23  2  0  0  0
 23 24  1  0  0  0
 24 25  2  0  0  0
 25 26  1  0  0  0
 26 27  2  0  0  0
 27 18  1  0  0  0
 27 22  1  0  0  0
  7  8  1  0  0  0
  8 34  1  0  0  0
  8  3  1  0  0  0
 34 35  1  0  0  0
 35 36  1  0  0  0
 36 37  2  0  0  0
 37 38  1  0  0  0
 38 39  2  0  0  0
 39 35  1  0  0  0
  9 10  2  0  0  0
 10 11  1  0  0  0
 11 12  1  0  0  0
 11 13  2  0  0  0
 13 14  1  0  0  0
 14 15  2  0  0  0
 15 16  1  0  0  0
 15  9  1  0  0  0
 16 17  2  0  0  0
 16  1  1  0  0  0
M  END
> <minimizedAffinity>
-8.18259

> <CNNscore>
0.2094279528

> <CNNaffinity>
6.3670058250

> <CNN_VS>
1.3334289789

> <CNNaffinity_variance>
0.4736711085

$$$$



 39 44  0  0  0  0  0  0  0  0999 V2000
   -7.0599   -0.7222  -22.2647 N   0  0  0  0  0  0  0  0  0  0  0  0
   -5.9979   -0.8722  -23.2730 C   0  0  0  0  0  0  0  0  0  0  0  0
   -6.6770   -0.9467  -24.5986 C   0  0  0  0  0  0  0  0  0  0  0  0
   -7.6666   -2.0832  -24.4994 C   0  0  0  0  0  0  0  0  0  0  0  0
   -8.8947   -2.0078  -24.2308 O   0  0  0  0  0  0  0  0  0  0  0  0
   -6.9086   -3.2649  -24.7763 N   0  0  0  0  0  0  0  0  0  0  0  0
   -5.6196   -2.9045  -25.3339 C   0  0  0  0  0  0  0  0  0  0  0  0
   -5.7910   -1.4191  -25.7063 C   0  0  0  0  0  0  0  0  0  0  0  0
   -7.4465    0.2633  -24.8474 C   0  0  0  0  0  0  0  0  0  0  0  0
   -7.6636    0.8187  -26.0927 C   0  0  0  0  0  0  0  0  0  0  0  0
   -8.4240    1.9744  -26.2701 C   0  0  0  0  0  0  0  0  0  0  0  0
   -8.6666    2.6342  -27.8696 Cl  0  0  0  0  0  0  0  0  0  0  0  0
   -8.9972    2.6185  -25.1993 C   0  0  0  0  0  0  0  0  0  0  0  0
   -8.7905    2.0791  -23.9537 C   0  0  0  0  0  0  0  0  0  0  0  0
   -8.0445    0.9460  -23.7816 C   0  0  0  0  0  0  0  0  0  0  0  0
   -7.8637    0.4572  -22.4207 C   0  0  0  0  0  0  0  0  0  0  0  0
   -8.3634    1.0020  -21.4052 O   0  0  0  0  0  0  0  0  0  0  0  0
   -7.3097   -4.6037  -24.5584 C   0  0  0  0  0  0  0  0  0  0  0  0
   -6.9461   -5.3491  -23.4577 C   0  0  0  0  0  0  0  0  0  0  0  0
   -7.3515   -6.6279  -23.2860 N   0  0  0  0  0  0  0  0  0  0  0  0
   -8.1348   -7.2560  -24.1764 C   0  0  0  0  0  0  0  0  0  0  0  0
   -8.5165   -6.5346  -25.2915 C   0  0  0  0  0  0  0  0  0  0  0  0
   -9.3236   -7.1874  -26.2052 C   0  0  0  0  0  0  0  0  0  0  0  0
   -9.7411   -6.5246  -27.3413 C   0  0  0  0  0  0  0  0  0  0  0  0
   -9.3524   -5.2159  -27.5607 C   0  0  0  0  0  0  0  0  0  0  0  0
   -8.5380   -4.5665  -26.6326 C   0  0  0  0  0  0  0  0  0  0  0  0
   -8.1142   -5.2194  -25.4925 C   0  0  0  0  0  0  0  0  0  0  0  0
   -7.2785   -1.6583  -21.2100 C   0  0  0  0  0  0  0  0  0  0  0  0
   -5.3436   -0.2059  -18.2042 C   0  0  0  0  0  0  0  0  0  0  0  0
   -6.2872   -0.4128  -19.2849 N   0  0  0  0  0  0  0  0  0  0  0  0
   -6.2625   -1.5518  -20.1360 C   0  0  0  0  0  0  0  0  0  0  0  0
   -5.3745   -2.4238  -19.9388 O   0  0  0  0  0  0  0  0  0  0  0  0
   -6.9803    0.2697  -19.4374 H   0  0  0  0  0  0  0  0  0  0  0  0
   -4.4008   -0.8418  -25.6725 C   0  0  0  0  0  0  0  0  0  0  0  0
   -3.6830   -1.4035  -26.8016 N   0  0  0  0  0  0  0  0  0  0  0  0
   -2.5616   -2.1054  -26.8180 N   0  0  0  0  0  0  0  0  0  0  0  0
   -2.2454   -2.4308  -28.0919 C   0  0  0  0  0  0  0  0  0  0  0  0
   -3.2128   -1.9031  -28.8538 N   0  0  0  0  0  0  0  0  0  0  0  0
   -4.0704   -1.2879  -28.0599 N   0  0  0  0  0  0  0  0  0  0  0  0
 29 30  1  0  0  0
 30 31  1  0  0  0
 30 33  1  0  0  0
 31 32  2  0  0  0
 31 28  1  0  0  0
 28  1  1  0  0  0
  1  2  1  0  0  0
  3  2  1  0  0  0
  3  4  1  0  0  0
  3  9  1  0  0  0
  4  5  2  0  0  0
  4  6  1  0  0  0
  6 18  1  0  0  0
  6  7  1  0  0  0
 18 19  2  0  0  0
 19 20  1  0  0  0
 20 21  2  0  0  0
 21 22  1  0  0  0
 22 23  2  0  0  0
 23 24  1  0  0  0
 24 25  2  0  0  0
 25 26  1  0  0  0
 26 27  2  0  0  0
 27 18  1  0  0  0
 27 22  1  0  0  0
  7  8  1  0  0  0
  8 34  1  0  0  0
  8  3  1  0  0  0
 34 35  1  0  0  0
 35 36  1  0  0  0
 36 37  2  0  0  0
 37 38  1  0  0  0
 38 39  2  0  0  0
 39 35  1  0  0  0
  9 10  2  0  0  0
 10 11  1  0  0  0
 11 12  1  0  0  0
 11 13  2  0  0  0
 13 14  1  0  0  0
 14 15  2  0  0  0
 15 16  1  0  0  0
 15  9  1  0  0  0
 16 17  2  0  0  0
 16  1  1  0  0  0
M  END
> <minimizedAffinity>
-6.86869

> <CNNscore>
0.1895502657

> <CNNaffinity>
6.1209268570

> <CNN_VS>
1.1602233648

> <CNNaffinity_variance>
0.0409808978

$$$$



 22 25  0  0  0  0  0  0  0  0999 V2000
  -10.6361   -4.1594  -25.0044 C   0  0  0  0  0  0  0  0  0  0  0  0
  -10.0586   -3.3730  -23.8323 C   0  0  0  0  0  0  0  0  0  0  0  0
  -10.7795   -2.0675  -23.7320 C   0  0  0  0  0  0  0  0  0  0  0  0
   -9.8668   -0.8846  -23.9816 C   0  0  0  0  0  0  0  0  0  0  0  0
   -8.7739   -1.0350  -22.9544 C   0  0  0  0  0  0  0  0  0  0  0  0
   -8.2664   -0.2513  -21.9563 C   0  0  0  0  0  0  0  0  0  0  0  0
   -8.6999    1.0072  -21.6316 O   0  0  0  0  0  0  0  0  0  0  0  0
   -7.2747   -0.9910  -21.3927 N   0  0  0  0  0  0  0  0  0  0  0  0
   -7.1993   -2.1878  -22.0464 C   0  0  0  0  0  0  0  0  0  0  0  0
   -6.3958   -3.1187  -21.7923 O   0  0  0  0  0  0  0  0  0  0  0  0
   -8.1149   -2.2278  -23.0082 N   0  0  0  0  0  0  0  0  0  0  0  0
   -8.5605   -3.1537  -24.0300 C   0  0  0  0  0  0  0  0  0  0  0  0
   -6.4553   -0.5636  -20.2927 C   0  0  0  0  0  0  0  0  0  0  0  0
   -6.8331   -0.9061  -19.0046 C   0  0  0  0  0  0  0  0  0  0  0  0
   -6.0701   -0.5089  -17.9701 N   0  0  0  0  0  0  0  0  0  0  0  0
   -4.9426    0.2128  -18.1063 C   0  0  0  0  0  0  0  0  0  0  0  0
   -4.5715    0.5513  -19.3968 C   0  0  0  0  0  0  0  0  0  0  0  0
   -3.4045    1.3001  -19.5594 C   0  0  0  0  0  0  0  0  0  0  0  0
   -3.0166    1.6492  -20.8520 C   0  0  0  0  0  0  0  0  0  0  0  0
   -3.7729    1.2595  -21.9257 C   0  0  0  0  0  0  0  0  0  0  0  0
   -4.9317    0.5180  -21.7888 C   0  0  0  0  0  0  0  0  0  0  0  0
   -5.3075    0.1769  -20.5028 C   0  0  0  0  0  0  0  0  0  0  0  0
  2  1  1  0  0  0
  2  3  1  0  0  0
  3  4  1  0  0  0
  4  5  1  0  0  0
  5  6  2  0  0  0
  6  7  1  0  0  0
  6  8  1  0  0  0
  8 13  1  0  0  0
  8  9  1  0  0  0
 13 14  2  0  0  0
 14 15  1  0  0  0
 15 16  2  0  0  0
 16 17  1  0  0  0
 17 18  2  0  0  0
 18 19  1  0  0  0
 19 20  2  0  0  0
 20 21  1  0  0  0
 21 22  2  0  0  0
 22 13  1  0  0  0
 22 17  1  0  0  0
  9 10  2  0  0  0
  9 11  1  0  0  0
 11 12  1  0  0  0
 11  5  1  0  0  0
 12  2  1  0  0  0
M  CHG 1   7  -1
M  END
> <minimizedAffinity>
-7.54485

> <CNNscore>
0.6104893088

> <CNNaffinity>
5.3969340324

> <CNN_VS>
3.2947704792

> <CNNaffinity_variance>
0.2167116404

$$$$



 22 25  0  0  0  0  0  0  0  0999 V2000
   -9.7060   -3.8460  -25.8910 C   0  0  0  0  0  0  0  0  0  0  0  0
   -8.6896   -3.2767  -24.9068 C   0  0  0  0  0  0  0  0  0  0  0  0
   -7.5751   -4.2601  -24.7494 C   0  0  0  0  0  0  0  0  0  0  0  0
   -7.4858   -4.8092  -23.3404 C   0  0  0  0  0  0  0  0  0  0  0  0
   -7.3198   -3.5864  -22.4747 C   0  0  0  0  0  0  0  0  0  0  0  0
   -6.3974   -3.1645  -21.5588 C   0  0  0  0  0  0  0  0  0  0  0  0
   -5.2757   -3.8542  -21.1804 O   0  0  0  0  0  0  0  0  0  0  0  0
   -6.8443   -1.9520  -21.1365 N   0  0  0  0  0  0  0  0  0  0  0  0
   -8.0082   -1.6650  -21.7911 C   0  0  0  0  0  0  0  0  0  0  0  0
   -8.6988   -0.6260  -21.6486 O   0  0  0  0  0  0  0  0  0  0  0  0
   -8.3115   -2.6610  -22.6163 N   0  0  0  0  0  0  0  0  0  0  0  0
   -9.3573   -2.9911  -23.5637 C   0  0  0  0  0  0  0  0  0  0  0  0
   -6.1848   -1.1274  -20.1622 C   0  0  0  0  0  0  0  0  0  0  0  0
   -6.6406   -1.1433  -18.8540 C   0  0  0  0  0  0  0  0  0  0  0  0
   -6.0274   -0.3735  -17.9367 N   0  0  0  0  0  0  0  0  0  0  0  0
   -4.9805    0.4262  -18.2110 C   0  0  0  0  0  0  0  0  0  0  0  0
   -4.5307    0.4366  -19.5207 C   0  0  0  0  0  0  0  0  0  0  0  0
   -3.4453    1.2601  -19.8257 C   0  0  0  0  0  0  0  0  0  0  0  0
   -2.9799    1.2824  -21.1395 C   0  0  0  0  0  0  0  0  0  0  0  0
   -3.5836    0.5095  -22.0960 C   0  0  0  0  0  0  0  0  0  0  0  0
   -4.6593   -0.3131  -21.8171 C   0  0  0  0  0  0  0  0  0  0  0  0
   -5.1131   -0.3278  -20.5113 C   0  0  0  0  0  0  0  0  0  0  0  0
  2  1  1  0  0  0
  2  3  1  0  0  0
  3  4  1  0  0  0
  4  5  1  0  0  0
  5  6  2  0  0  0
  6  7  1  0  0  0
  6  8  1  0  0  0
  8 13  1  0  0  0
  8  9  1  0  0  0
 13 14  2  0  0  0
 14 15  1  0  0  0
 15 16  2  0  0  0
 16 17  1  0  0  0
 17 18  2  0  0  0
 18 19  1  0  0  0
 19 20  2  0  0  0
 20 21  1  0  0  0
 21 22  2  0  0  0
 22 13  1  0  0  0
 22 17  1  0  0  0
  9 10  2  0  0  0
  9 11  1  0  0  0
 11 12  1  0  0  0
 11  5  1  0  0  0
 12  2  1  0  0  0
M  CHG 1   7  -1
M  END
> <minimizedAffinity>
-7.36143

> <CNNscore>
0.6051103473

> <CNNaffinity>
5.3797340393

> <CNN_VS>
3.2553327084

> <CNNaffinity_variance>
0.3711045384

$$$$



 22 25  0  0  0  0  0  0  0  0999 V2000
   -9.2796   -4.5882  -24.8238 C   0  0  0  0  0  0  0  0  0  0  0  0
   -9.4842   -3.0915  -24.6139 C   0  0  0  0  0  0  0  0  0  0  0  0
   -8.3575   -2.5677  -23.7831 C   0  0  0  0  0  0  0  0  0  0  0  0
   -8.8265   -2.0416  -22.4422 C   0  0  0  0  0  0  0  0  0  0  0  0
   -9.8422   -0.9842  -22.7922 C   0  0  0  0  0  0  0  0  0  0  0  0
   -9.9923    0.3457  -22.5156 C   0  0  0  0  0  0  0  0  0  0  0  0
   -9.1380    1.1048  -21.7599 O   0  0  0  0  0  0  0  0  0  0  0  0
  -11.1411    0.7122  -23.1436 N   0  0  0  0  0  0  0  0  0  0  0  0
  -11.6580   -0.3812  -23.7782 C   0  0  0  0  0  0  0  0  0  0  0  0
  -12.7136   -0.4103  -24.4576 O   0  0  0  0  0  0  0  0  0  0  0  0
  -10.8696   -1.4301  -23.5704 N   0  0  0  0  0  0  0  0  0  0  0  0
  -10.8272   -2.8319  -23.9355 C   0  0  0  0  0  0  0  0  0  0  0  0
  -11.6992    2.0360  -23.1281 C   0  0  0  0  0  0  0  0  0  0  0  0
  -12.7500    2.3087  -22.2674 C   0  0  0  0  0  0  0  0  0  0  0  0
  -13.2772    3.5465  -22.2480 N   0  0  0  0  0  0  0  0  0  0  0  0
  -12.8430    4.5563  -23.0241 C   0  0  0  0  0  0  0  0  0  0  0  0
  -11.7924    4.2759  -23.8816 C   0  0  0  0  0  0  0  0  0  0  0  0
  -11.3272    5.3106  -24.6954 C   0  0  0  0  0  0  0  0  0  0  0  0
  -10.2702    5.0453  -25.5644 C   0  0  0  0  0  0  0  0  0  0  0  0
   -9.7124    3.7947  -25.6070 C   0  0  0  0  0  0  0  0  0  0  0  0
  -10.1565    2.7552  -24.8109 C   0  0  0  0  0  0  0  0  0  0  0  0
  -11.2051    3.0289  -23.9526 C   0  0  0  0  0  0  0  0  0  0  0  0
  2  1  1  0  0  0
  2  3  1  0  0  0
  3  4  1  0  0  0
  4  5  1  0  0  0
  5  6  2  0  0  0
  6  7  1  0  0  0
  6  8  1  0  0  0
  8 13  1  0  0  0
  8  9  1  0  0  0
 13 14  2  0  0  0
 14 15  1  0  0  0
 15 16  2  0  0  0
 16 17  1  0  0  0
 17 18  2  0  0  0
 18 19  1  0  0  0
 19 20  2  0  0  0
 20 21  1  0  0  0
 21 22  2  0  0  0
 22 13  1  0  0  0
 22 17  1  0  0  0
  9 10  2  0  0  0
  9 11  1  0  0  0
 11 12  1  0  0  0
 11  5  1  0  0  0
 12  2  1  0  0  0
M  CHG 1   7  -1
M  END
> <minimizedAffinity>
-6.46806

> <CNNscore>
0.5990548134

> <CNNaffinity>
5.1956548691

> <CNN_VS>
3.1124820709

> <CNNaffinity_variance>
0.1473319530

$$$$



 22 25  0  0  0  0  0  0  0  0999 V2000
   -6.0410   -7.3449  -22.0792 C   0  0  0  0  0  0  0  0  0  0  0  0
   -7.1034   -6.3257  -22.4772 C   0  0  0  0  0  0  0  0  0  0  0  0
   -7.6608   -6.7125  -23.8089 C   0  0  0  0  0  0  0  0  0  0  0  0
   -7.3669   -5.6808  -24.8784 C   0  0  0  0  0  0  0  0  0  0  0  0
   -7.9618   -4.4054  -24.3381 C   0  0  0  0  0  0  0  0  0  0  0  0
   -8.8827   -3.4996  -24.7844 C   0  0  0  0  0  0  0  0  0  0  0  0
   -9.5525   -3.5649  -25.9778 O   0  0  0  0  0  0  0  0  0  0  0  0
   -8.9667   -2.5641  -23.8015 N   0  0  0  0  0  0  0  0  0  0  0  0
   -8.1114   -2.9121  -22.7952 C   0  0  0  0  0  0  0  0  0  0  0  0
   -7.9289   -2.2760  -21.7281 O   0  0  0  0  0  0  0  0  0  0  0  0
   -7.4877   -4.0415  -23.1123 N   0  0  0  0  0  0  0  0  0  0  0  0
   -6.4991   -4.9244  -22.5262 C   0  0  0  0  0  0  0  0  0  0  0  0
   -9.8208   -1.4094  -23.8377 C   0  0  0  0  0  0  0  0  0  0  0  0
   -9.3132   -0.2171  -24.3276 C   0  0  0  0  0  0  0  0  0  0  0  0
  -10.1079    0.8680  -24.3641 N   0  0  0  0  0  0  0  0  0  0  0  0
  -11.3876    0.8718  -23.9484 C   0  0  0  0  0  0  0  0  0  0  0  0
  -11.8878   -0.3236  -23.4601 C   0  0  0  0  0  0  0  0  0  0  0  0
  -13.2139   -0.3403  -23.0237 C   0  0  0  0  0  0  0  0  0  0  0  0
  -13.7332   -1.5357  -22.5293 C   0  0  0  0  0  0  0  0  0  0  0  0
  -12.9486   -2.6577  -22.4794 C   0  0  0  0  0  0  0  0  0  0  0  0
  -11.6334   -2.6646  -22.9058 C   0  0  0  0  0  0  0  0  0  0  0  0
  -11.1282   -1.4741  -23.3944 C   0  0  0  0  0  0  0  0  0  0  0  0
  2  1  1  0  0  0
  2  3  1  0  0  0
  3  4  1  0  0  0
  4  5  1  0  0  0
  5  6  2  0  0  0
  6  7  1  0  0  0
  6  8  1  0  0  0
  8 13  1  0  0  0
  8  9  1  0  0  0
 13 14  2  0  0  0
 14 15  1  0  0  0
 15 16  2  0  0  0
 16 17  1  0  0  0
 17 18  2  0  0  0
 18 19  1  0  0  0
 19 20  2  0  0  0
 20 21  1  0  0  0
 21 22  2  0  0  0
 22 13  1  0  0  0
 22 17  1  0  0  0
  9 10  2  0  0  0
  9 11  1  0  0  0
 11 12  1  0  0  0
 11  5  1  0  0  0
 12  2  1  0  0  0
M  CHG 1   7  -1
M  END
> <minimizedAffinity>
-6.77799

> <CNNscore>
0.4525945187

> <CNNaffinity>
5.4197249413

> <CNN_VS>
2.4529378414

> <CNNaffinity_variance>
0.1937915534

$$$$



 22 25  0  0  0  0  0  0  0  0999 V2000
   -0.3701    4.8359  -24.6425 C   0  0  0  0  0  0  0  0  0  0  0  0
   -1.4129    3.8938  -24.0500 C   0  0  0  0  0  0  0  0  0  0  0  0
   -2.7696    4.4752  -24.2849 C   0  0  0  0  0  0  0  0  0  0  0  0
   -3.4751    4.8323  -22.9929 C   0  0  0  0  0  0  0  0  0  0  0  0
   -3.5138    3.5384  -22.2204 C   0  0  0  0  0  0  0  0  0  0  0  0
   -4.4974    2.7710  -21.6623 C   0  0  0  0  0  0  0  0  0  0  0  0
   -5.8385    3.0502  -21.6885 O   0  0  0  0  0  0  0  0  0  0  0  0
   -3.8499    1.7148  -21.1024 N   0  0  0  0  0  0  0  0  0  0  0  0
   -2.5102    1.8572  -21.3265 C   0  0  0  0  0  0  0  0  0  0  0  0
   -1.6104    1.0662  -20.9503 O   0  0  0  0  0  0  0  0  0  0  0  0
   -2.2901    2.9735  -22.0124 N   0  0  0  0  0  0  0  0  0  0  0  0
   -1.1572    3.6939  -22.5580 C   0  0  0  0  0  0  0  0  0  0  0  0
   -4.4901    0.6393  -20.3971 C   0  0  0  0  0  0  0  0  0  0  0  0
   -4.5190    0.6712  -19.0124 C   0  0  0  0  0  0  0  0  0  0  0  0
   -5.1169   -0.3330  -18.3457 N   0  0  0  0  0  0  0  0  0  0  0  0
   -5.7000   -1.3864  -18.9465 C   0  0  0  0  0  0  0  0  0  0  0  0
   -5.6669   -1.4112  -20.3307 C   0  0  0  0  0  0  0  0  0  0  0  0
   -6.2665   -2.4962  -20.9731 C   0  0  0  0  0  0  0  0  0  0  0  0
   -6.2422   -2.5366  -22.3662 C   0  0  0  0  0  0  0  0  0  0  0  0
   -5.6408   -1.5288  -23.0730 C   0  0  0  0  0  0  0  0  0  0  0  0
   -5.0410   -0.4452  -22.4585 C   0  0  0  0  0  0  0  0  0  0  0  0
   -5.0707   -0.4147  -21.0767 C   0  0  0  0  0  0  0  0  0  0  0  0
  2  1  1  0  0  0
  2  3  1  0  0  0
  3  4  1  0  0  0
  4  5  1  0  0  0
  5  6  2  0  0  0
  6  7  1  0  0  0
  6  8  1  0  0  0
  8 13  1  0  0  0
  8  9  1  0  0  0
 13 14  2  0  0  0
 14 15  1  0  0  0
 15 16  2  0  0  0
 16 17  1  0  0  0
 17 18  2  0  0  0
 18 19  1  0  0  0
 19 20  2  0  0  0
 20 21  1  0  0  0
 21 22  2  0  0  0
 22 13  1  0  0  0
 22 17  1  0  0  0
  9 10  2  0  0  0
  9 11  1  0  0  0
 11 12  1  0  0  0
 11  5  1  0  0  0
 12  2  1  0  0  0
M  CHG 1   7  -1
M  END
> <minimizedAffinity>
-5.45906

> <CNNscore>
0.3862572610

> <CNNaffinity>
4.8712730408

> <CNN_VS>
1.8815646172

> <CNNaffinity_variance>
0.1260625124

$$$$



 22 25  0  0  0  0  0  0  0  0999 V2000
  -11.1680   -2.6482  -24.4548 C   0  0  0  0  0  0  0  0  0  0  0  0
   -9.7994   -2.2150  -23.9397 C   0  0  0  0  0  0  0  0  0  0  0  0
   -8.8877   -3.3993  -23.9533 C   0  0  0  0  0  0  0  0  0  0  0  0
   -8.4350   -3.7940  -22.5627 C   0  0  0  0  0  0  0  0  0  0  0  0
   -7.7787   -2.5508  -22.0184 C   0  0  0  0  0  0  0  0  0  0  0  0
   -6.5459   -2.2469  -21.5130 C   0  0  0  0  0  0  0  0  0  0  0  0
   -5.5024   -3.1238  -21.3738 O   0  0  0  0  0  0  0  0  0  0  0  0
   -6.6065   -0.9258  -21.1978 N   0  0  0  0  0  0  0  0  0  0  0  0
   -7.8515   -0.4602  -21.5117 C   0  0  0  0  0  0  0  0  0  0  0  0
   -8.2613    0.7163  -21.3545 O   0  0  0  0  0  0  0  0  0  0  0  0
   -8.5817   -1.4485  -22.0167 N   0  0  0  0  0  0  0  0  0  0  0  0
   -9.9231   -1.6394  -22.5310 C   0  0  0  0  0  0  0  0  0  0  0  0
   -5.5271   -0.1667  -20.6298 C   0  0  0  0  0  0  0  0  0  0  0  0
   -5.5270    0.0789  -19.2664 C   0  0  0  0  0  0  0  0  0  0  0  0
   -4.5190    0.7892  -18.7282 N   0  0  0  0  0  0  0  0  0  0  0  0
   -3.4911    1.2863  -19.4402 C   0  0  0  0  0  0  0  0  0  0  0  0
   -3.4982    1.0367  -20.8023 C   0  0  0  0  0  0  0  0  0  0  0  0
   -2.4402    1.5441  -21.5589 C   0  0  0  0  0  0  0  0  0  0  0  0
   -2.4320    1.3018  -22.9315 C   0  0  0  0  0  0  0  0  0  0  0  0
   -3.4445    0.5818  -23.5088 C   0  0  0  0  0  0  0  0  0  0  0  0
   -4.5018    0.0698  -22.7797 C   0  0  0  0  0  0  0  0  0  0  0  0
   -4.5004    0.3157  -21.4193 C   0  0  0  0  0  0  0  0  0  0  0  0
  2  1  1  0  0  0
  2  3  1  0  0  0
  3  4  1  0  0  0
  4  5  1  0  0  0
  5  6  2  0  0  0
  6  7  1  0  0  0
  6  8  1  0  0  0
  8 13  1  0  0  0
  8  9  1  0  0  0
 13 14  2  0  0  0
 14 15  1  0  0  0
 15 16  2  0  0  0
 16 17  1  0  0  0
 17 18  2  0  0  0
 18 19  1  0  0  0
 19 20  2  0  0  0
 20 21  1  0  0  0
 21 22  2  0  0  0
 22 13  1  0  0  0
 22 17  1  0  0  0
  9 10  2  0  0  0
  9 11  1  0  0  0
 11 12  1  0  0  0
 11  5  1  0  0  0
 12  2  1  0  0  0
M  CHG 1   7  -1
M  END
> <minimizedAffinity>
-6.30954

> <CNNscore>
0.3508410156

> <CNNaffinity>
5.0846476555

> <CNN_VS>
1.7839030027

> <CNNaffinity_variance>
0.4234896302

$$$$



 22 25  0  0  0  0  0  0  0  0999 V2000
   -2.7486    1.4953  -20.1348 C   0  0  0  0  0  0  0  0  0  0  0  0
   -3.8202    0.6936  -20.8662 C   0  0  0  0  0  0  0  0  0  0  0  0
   -3.5458    0.7579  -22.3340 C   0  0  0  0  0  0  0  0  0  0  0  0
   -4.6454    1.4693  -23.0952 C   0  0  0  0  0  0  0  0  0  0  0  0
   -5.8922    0.6903  -22.7620 C   0  0  0  0  0  0  0  0  0  0  0  0
   -6.8508    0.0383  -23.4857 C   0  0  0  0  0  0  0  0  0  0  0  0
   -6.8896   -0.0607  -24.8517 O   0  0  0  0  0  0  0  0  0  0  0  0
   -7.7137   -0.4632  -22.5626 N   0  0  0  0  0  0  0  0  0  0  0  0
   -7.2719   -0.1132  -21.3185 C   0  0  0  0  0  0  0  0  0  0  0  0
   -7.8235   -0.4067  -20.2293 O   0  0  0  0  0  0  0  0  0  0  0  0
   -6.1536    0.5958  -21.4269 N   0  0  0  0  0  0  0  0  0  0  0  0
   -5.2060    1.2495  -20.5466 C   0  0  0  0  0  0  0  0  0  0  0  0
   -8.8888   -1.2311  -22.8687 C   0  0  0  0  0  0  0  0  0  0  0  0
   -8.7857   -2.6106  -22.9430 C   0  0  0  0  0  0  0  0  0  0  0  0
   -9.8824   -3.3355  -23.2294 N   0  0  0  0  0  0  0  0  0  0  0  0
  -11.0961   -2.7990  -23.4524 C   0  0  0  0  0  0  0  0  0  0  0  0
  -11.1911   -1.4195  -23.3764 C   0  0  0  0  0  0  0  0  0  0  0  0
  -12.4422   -0.8433  -23.6048 C   0  0  0  0  0  0  0  0  0  0  0  0
  -12.5553    0.5441  -23.5319 C   0  0  0  0  0  0  0  0  0  0  0  0
  -11.4564    1.3093  -23.2424 C   0  0  0  0  0  0  0  0  0  0  0  0
  -10.2082    0.7608  -23.0127 C   0  0  0  0  0  0  0  0  0  0  0  0
  -10.1069   -0.6159  -23.0872 C   0  0  0  0  0  0  0  0  0  0  0  0
  2  1  1  0  0  0
  2  3  1  0  0  0
  3  4  1  0  0  0
  4  5  1  0  0  0
  5  6  2  0  0  0
  6  7  1  0  0  0
  6  8  1  0  0  0
  8 13  1  0  0  0
  8  9  1  0  0  0
 13 14  2  0  0  0
 14 15  1  0  0  0
 15 16  2  0  0  0
 16 17  1  0  0  0
 17 18  2  0  0  0
 18 19  1  0  0  0
 19 20  2  0  0  0
 20 21  1  0  0  0
 21 22  2  0  0  0
 22 13  1  0  0  0
 22 17  1  0  0  0
  9 10  2  0  0  0
  9 11  1  0  0  0
 11 12  1  0  0  0
 11  5  1  0  0  0
 12  2  1  0  0  0
M  CHG 1   7  -1
M  END
> <minimizedAffinity>
-6.31117

> <CNNscore>
0.3442904055

> <CNNaffinity>
5.1675806046

> <CNN_VS>
1.7791484594

> <CNNaffinity_variance>
0.0725531578

$$$$



 22 25  0  0  0  0  0  0  0  0999 V2000
   -8.0462    1.5444  -28.0048 C   0  0  0  0  0  0  0  0  0  0  0  0
   -7.4468    1.0987  -26.6751 C   0  0  0  0  0  0  0  0  0  0  0  0
   -6.8971   -0.2816  -26.8382 C   0  0  0  0  0  0  0  0  0  0  0  0
   -7.6204   -1.2955  -25.9760 C   0  0  0  0  0  0  0  0  0  0  0  0
   -7.4723   -0.7638  -24.5732 C   0  0  0  0  0  0  0  0  0  0  0  0
   -6.9687   -1.2505  -23.3997 C   0  0  0  0  0  0  0  0  0  0  0  0
   -6.4165   -2.4918  -23.2224 O   0  0  0  0  0  0  0  0  0  0  0  0
   -7.1418   -0.2496  -22.4961 N   0  0  0  0  0  0  0  0  0  0  0  0
   -7.7361    0.8069  -23.1254 C   0  0  0  0  0  0  0  0  0  0  0  0
   -8.0454    1.9028  -22.5962 O   0  0  0  0  0  0  0  0  0  0  0  0
   -7.9447    0.5041  -24.4020 N   0  0  0  0  0  0  0  0  0  0  0  0
   -8.5083    1.1358  -25.5782 C   0  0  0  0  0  0  0  0  0  0  0  0
   -6.7555   -0.3152  -21.1138 C   0  0  0  0  0  0  0  0  0  0  0  0
   -7.5734   -0.9899  -20.2222 C   0  0  0  0  0  0  0  0  0  0  0  0
   -7.2174   -1.0550  -18.9263 N   0  0  0  0  0  0  0  0  0  0  0  0
   -6.0980   -0.4976  -18.4295 C   0  0  0  0  0  0  0  0  0  0  0  0
   -5.2857    0.1750  -19.3269 C   0  0  0  0  0  0  0  0  0  0  0  0
   -4.1193    0.7606  -18.8310 C   0  0  0  0  0  0  0  0  0  0  0  0
   -3.2902    1.4414  -19.7210 C   0  0  0  0  0  0  0  0  0  0  0  0
   -3.6258    1.5250  -21.0466 C   0  0  0  0  0  0  0  0  0  0  0  0
   -4.7753    0.9533  -21.5599 C   0  0  0  0  0  0  0  0  0  0  0  0
   -5.5905    0.2803  -20.6689 C   0  0  0  0  0  0  0  0  0  0  0  0
  2  1  1  0  0  0
  2  3  1  0  0  0
  3  4  1  0  0  0
  4  5  1  0  0  0
  5  6  2  0  0  0
  6  7  1  0  0  0
  6  8  1  0  0  0
  8 13  1  0  0  0
  8  9  1  0  0  0
 13 14  2  0  0  0
 14 15  1  0  0  0
 15 16  2  0  0  0
 16 17  1  0  0  0
 17 18  2  0  0  0
 18 19  1  0  0  0
 19 20  2  0  0  0
 20 21  1  0  0  0
 21 22  2  0  0  0
 22 13  1  0  0  0
 22 17  1  0  0  0
  9 10  2  0  0  0
  9 11  1  0  0  0
 11 12  1  0  0  0
 11  5  1  0  0  0
 12  2  1  0  0  0
M  CHG 1   7  -1
M  END
> <minimizedAffinity>
-5.86216

> <CNNscore>
0.3348384500

> <CNNaffinity>
5.0058050156

> <CNN_VS>
1.6761360168

> <CNNaffinity_variance>
0.2770141959

$$$$



 22 25  0  0  0  0  0  0  0  0999 V2000
   -2.2966    1.8317  -21.5768 C   0  0  0  0  0  0  0  0  0  0  0  0
   -3.7622    1.4110  -21.6121 C   0  0  0  0  0  0  0  0  0  0  0  0
   -4.2790    1.3641  -20.2104 C   0  0  0  0  0  0  0  0  0  0  0  0
   -4.6825   -0.0346  -19.7915 C   0  0  0  0  0  0  0  0  0  0  0  0
   -5.7112   -0.4466  -20.8134 C   0  0  0  0  0  0  0  0  0  0  0  0
   -7.0084   -0.8740  -20.7658 C   0  0  0  0  0  0  0  0  0  0  0  0
   -7.7517   -1.0422  -19.6273 O   0  0  0  0  0  0  0  0  0  0  0  0
   -7.3625   -1.0811  -22.0620 N   0  0  0  0  0  0  0  0  0  0  0  0
   -6.2940   -0.7813  -22.8582 C   0  0  0  0  0  0  0  0  0  0  0  0
   -6.2624   -0.8574  -24.1112 O   0  0  0  0  0  0  0  0  0  0  0  0
   -5.2729   -0.3902  -22.1036 N   0  0  0  0  0  0  0  0  0  0  0  0
   -3.9052    0.0508  -22.2908 C   0  0  0  0  0  0  0  0  0  0  0  0
   -8.6525   -1.5394  -22.4978 C   0  0  0  0  0  0  0  0  0  0  0  0
   -8.8752   -2.9022  -22.6102 C   0  0  0  0  0  0  0  0  0  0  0  0
  -10.0811   -3.3380  -23.0178 N   0  0  0  0  0  0  0  0  0  0  0  0
  -11.1048   -2.5222  -23.3293 C   0  0  0  0  0  0  0  0  0  0  0  0
  -10.8745   -1.1615  -23.2145 C   0  0  0  0  0  0  0  0  0  0  0  0
  -11.9244   -0.2981  -23.5332 C   0  0  0  0  0  0  0  0  0  0  0  0
  -11.7094    1.0747  -23.4229 C   0  0  0  0  0  0  0  0  0  0  0  0
  -10.4921    1.5490  -23.0105 C   0  0  0  0  0  0  0  0  0  0  0  0
   -9.4385    0.7132  -22.6897 C   0  0  0  0  0  0  0  0  0  0  0  0
   -9.6622   -0.6464  -22.8025 C   0  0  0  0  0  0  0  0  0  0  0  0
  2  1  1  0  0  0
  2  3  1  0  0  0
  3  4  1  0  0  0
  4  5  1  0  0  0
  5  6  2  0  0  0
  6  7  1  0  0  0
  6  8  1  0  0  0
  8 13  1  0  0  0
  8  9  1  0  0  0
 13 14  2  0  0  0
 14 15  1  0  0  0
 15 16  2  0  0  0
 16 17  1  0  0  0
 17 18  2  0  0  0
 18 19  1  0  0  0
 19 20  2  0  0  0
 20 21  1  0  0  0
 21 22  2  0  0  0
 22 13  1  0  0  0
 22 17  1  0  0  0
  9 10  2  0  0  0
  9 11  1  0  0  0
 11 12  1  0  0  0
 11  5  1  0  0  0
 12  2  1  0  0  0
M  CHG 1   7  -1
M  END
> <minimizedAffinity>
-6.47623

> <CNNscore>
0.3290599287

> <CNNaffinity>
5.0990114212

> <CNN_VS>
1.6778802872

> <CNNaffinity_variance>
0.2697337568

$$$$



 35 40  0  0  0  0  0  0  0  0999 V2000
   -5.5210   -1.9137  -21.3088 C   0  0  0  0  0  0  0  0  0  0  0  0
   -6.8400   -2.5453  -21.6089 C   0  0  0  0  0  0  0  0  0  0  0  0
   -7.9124   -1.4723  -21.8575 C   0  0  0  0  0  0  0  0  0  0  0  0
   -8.9442   -2.2214  -22.5460 N   0  0  0  0  0  0  0  0  0  0  0  0
   -8.4156   -3.4858  -22.9901 C   0  0  0  0  0  0  0  0  0  0  0  0
   -9.0521   -4.4937  -23.3905 O   0  0  0  0  0  0  0  0  0  0  0  0
   -6.9192   -3.3267  -22.8654 C   0  0  0  0  0  0  0  0  0  0  0  0
   -6.4820   -2.6007  -24.0893 C   0  0  0  0  0  0  0  0  0  0  0  0
   -6.8765   -3.4154  -25.2515 N   0  0  0  0  0  0  0  0  0  0  0  0
   -6.3517   -4.7377  -25.2781 C   0  0  0  0  0  0  0  0  0  0  0  0
   -6.1448   -5.2848  -26.3891 O   0  0  0  0  0  0  0  0  0  0  0  0
   -6.0859   -5.3787  -23.9954 C   0  0  0  0  0  0  0  0  0  0  0  0
   -5.5673   -6.6490  -24.0003 C   0  0  0  0  0  0  0  0  0  0  0  0
   -5.2884   -7.2900  -22.8114 C   0  0  0  0  0  0  0  0  0  0  0  0
   -5.5470   -6.6147  -21.6355 C   0  0  0  0  0  0  0  0  0  0  0  0
   -5.2737   -7.2418  -20.4574 F   0  0  0  0  0  0  0  0  0  0  0  0
   -6.0758   -5.3207  -21.6504 C   0  0  0  0  0  0  0  0  0  0  0  0
   -6.3597   -4.6679  -22.8395 C   0  0  0  0  0  0  0  0  0  0  0  0
  -10.2712   -1.7606  -22.7425 C   0  0  0  0  0  0  0  0  0  0  0  0
  -11.3910   -2.5325  -22.5313 C   0  0  0  0  0  0  0  0  0  0  0  0
  -12.6267   -2.0062  -22.7453 N   0  0  0  0  0  0  0  0  0  0  0  0
  -12.7945   -0.7373  -23.1630 C   0  0  0  0  0  0  0  0  0  0  0  0
  -11.6855    0.0551  -23.3813 C   0  0  0  0  0  0  0  0  0  0  0  0
  -11.8545    1.3621  -23.8115 C   0  0  0  0  0  0  0  0  0  0  0  0
  -10.7662    2.1707  -24.0357 C   0  0  0  0  0  0  0  0  0  0  0  0
   -9.4882    1.6862  -23.8337 C   0  0  0  0  0  0  0  0  0  0  0  0
   -9.3369    0.3746  -23.4027 C   0  0  0  0  0  0  0  0  0  0  0  0
  -10.4159   -0.4493  -23.1732 C   0  0  0  0  0  0  0  0  0  0  0  0
   -7.7251   -2.8956  -26.2773 C   0  0  0  0  0  0  0  0  0  0  0  0
   -8.6434   -3.9403  -26.8031 C   0  0  0  0  0  0  0  0  0  0  0  0
   -9.6566   -4.5804  -26.0969 C   0  0  0  0  0  0  0  0  0  0  0  0
  -10.2294   -5.4527  -26.9787 C   0  0  0  0  0  0  0  0  0  0  0  0
   -9.5694   -5.3159  -28.1418 N   0  0  0  0  0  0  0  0  0  0  0  0
   -8.6200   -4.4209  -28.0627 N   0  0  0  0  0  0  0  0  0  0  0  0
   -9.7765   -5.8287  -28.9563 H   0  0  0  0  0  0  0  0  0  0  0  0
  2  1  1  0  0  0
  2  3  1  0  0  0
  3  4  1  0  0  0
  4 19  1  0  0  0
  4  5  1  0  0  0
 19 20  2  0  0  0
 20 21  1  0  0  0
 21 22  2  0  0  0
 22 23  1  0  0  0
 23 24  2  0  0  0
 24 25  1  0  0  0
 25 26  2  0  0  0
 26 27  1  0  0  0
 27 28  2  0  0  0
 28 19  1  0  0  0
 28 23  1  0  0  0
  5  6  2  0  0  0
  7  5  1  0  0  0
  7  8  1  0  0  0
  7  2  1  0  0  0
  8  9  1  0  0  0
  9 29  1  0  0  0
  9 10  1  0  0  0
 29 30  1  0  0  0
 30 31  1  0  0  0
 31 32  2  0  0  0
 32 33  1  0  0  0
 33 34  1  0  0  0
 33 35  1  0  0  0
 34 30  2  0  0  0
 10 11  2  0  0  0
 10 12  1  0  0  0
 12 13  2  0  0  0
 13 14  1  0  0  0
 14 15  2  0  0  0
 15 16  1  0  0  0
 15 17  1  0  0  0
 17 18  2  0  0  0
 18 12  1  0  0  0
 18  7  1  0  0  0
M  END
> <minimizedAffinity>
-8.26556

> <CNNscore>
0.4077232182

> <CNNaffinity>
6.0964651108

> <CNN_VS>
2.4856703281

> <CNNaffinity_variance>
0.6682930589

$$$$



 35 40  0  0  0  0  0  0  0  0999 V2000
   -5.5564    2.5593  -23.5002 C   0  0  0  0  0  0  0  0  0  0  0  0
   -6.8341    2.1341  -22.8556 C   0  0  0  0  0  0  0  0  0  0  0  0
   -8.0416    2.5809  -23.6956 C   0  0  0  0  0  0  0  0  0  0  0  0
   -9.1006    1.7312  -23.1893 N   0  0  0  0  0  0  0  0  0  0  0  0
   -8.5356    0.6559  -22.4149 C   0  0  0  0  0  0  0  0  0  0  0  0
   -9.1266   -0.1215  -21.6225 O   0  0  0  0  0  0  0  0  0  0  0  0
   -7.0683    0.6734  -22.7708 C   0  0  0  0  0  0  0  0  0  0  0  0
   -6.9518   -0.0609  -24.0604 C   0  0  0  0  0  0  0  0  0  0  0  0
   -7.4722   -1.4219  -23.8431 N   0  0  0  0  0  0  0  0  0  0  0  0
   -6.8252   -2.1678  -22.8187 C   0  0  0  0  0  0  0  0  0  0  0  0
   -6.7773   -3.4185  -22.9187 O   0  0  0  0  0  0  0  0  0  0  0  0
   -6.2534   -1.4199  -21.7049 C   0  0  0  0  0  0  0  0  0  0  0  0
   -5.6139   -2.1205  -20.7136 C   0  0  0  0  0  0  0  0  0  0  0  0
   -5.0472   -1.4545  -19.6470 C   0  0  0  0  0  0  0  0  0  0  0  0
   -5.1469   -0.0779  -19.6164 C   0  0  0  0  0  0  0  0  0  0  0  0
   -4.5892    0.5864  -18.5659 F   0  0  0  0  0  0  0  0  0  0  0  0
   -5.8026    0.6187  -20.6357 C   0  0  0  0  0  0  0  0  0  0  0  0
   -6.3755   -0.0410  -21.7115 C   0  0  0  0  0  0  0  0  0  0  0  0
  -10.4819    1.9442  -23.4315 C   0  0  0  0  0  0  0  0  0  0  0  0
  -11.4426    0.9664  -23.3074 C   0  0  0  0  0  0  0  0  0  0  0  0
  -12.7459    1.2615  -23.5599 N   0  0  0  0  0  0  0  0  0  0  0  0
  -13.1343    2.4957  -23.9327 C   0  0  0  0  0  0  0  0  0  0  0  0
  -12.1878    3.4918  -24.0635 C   0  0  0  0  0  0  0  0  0  0  0  0
  -12.5840    4.7638  -24.4472 C   0  0  0  0  0  0  0  0  0  0  0  0
  -11.6607    5.7723  -24.5842 C   0  0  0  0  0  0  0  0  0  0  0  0
  -10.3232    5.5266  -24.3399 C   0  0  0  0  0  0  0  0  0  0  0  0
   -9.9435    4.2468  -23.9564 C   0  0  0  0  0  0  0  0  0  0  0  0
  -10.8551    3.2248  -23.8143 C   0  0  0  0  0  0  0  0  0  0  0  0
   -8.5510   -1.9445  -24.6215 C   0  0  0  0  0  0  0  0  0  0  0  0
   -9.7024   -2.3299  -23.7632 C   0  0  0  0  0  0  0  0  0  0  0  0
  -11.0451   -2.3132  -24.1263 C   0  0  0  0  0  0  0  0  0  0  0  0
  -11.7322   -2.7440  -23.0269 C   0  0  0  0  0  0  0  0  0  0  0  0
  -10.8180   -2.9966  -22.0742 N   0  0  0  0  0  0  0  0  0  0  0  0
   -9.6015   -2.7576  -22.4883 N   0  0  0  0  0  0  0  0  0  0  0  0
  -11.0385   -3.3227  -21.1718 H   0  0  0  0  0  0  0  0  0  0  0  0
  2  1  1  0  0  0
  2  3  1  0  0  0
  3  4  1  0  0  0
  4 19  1  0  0  0
  4  5  1  0  0  0
 19 20  2  0  0  0
 20 21  1  0  0  0
 21 22  2  0  0  0
 22 23  1  0  0  0
 23 24  2  0  0  0
 24 25  1  0  0  0
 25 26  2  0  0  0
 26 27  1  0  0  0
 27 28  2  0  0  0
 28 19  1  0  0  0
 28 23  1  0  0  0
  5  6  2  0  0  0
  7  5  1  0  0  0
  7  8  1  0  0  0
  7  2  1  0  0  0
  8  9  1  0  0  0
  9 29  1  0  0  0
  9 10  1  0  0  0
 29 30  1  0  0  0
 30 31  1  0  0  0
 31 32  2  0  0  0
 32 33  1  0  0  0
 33 34  1  0  0  0
 33 35  1  0  0  0
 34 30  2  0  0  0
 10 11  2  0  0  0
 10 12  1  0  0  0
 12 13  2  0  0  0
 13 14  1  0  0  0
 14 15  2  0  0  0
 15 16  1  0  0  0
 15 17  1  0  0  0
 17 18  2  0  0  0
 18 12  1  0  0  0
 18  7  1  0  0  0
M  END
> <minimizedAffinity>
-8.64435

> <CNNscore>
0.2797216773

> <CNNaffinity>
5.9309921265

> <CNN_VS>
1.6590270996

> <CNNaffinity_variance>
0.2529772520

$$$$



 35 40  0  0  0  0  0  0  0  0999 V2000
   -5.3732    1.2494  -25.7121 C   0  0  0  0  0  0  0  0  0  0  0  0
   -6.3722    1.5061  -24.6327 C   0  0  0  0  0  0  0  0  0  0  0  0
   -7.7444    0.9271  -25.0133 C   0  0  0  0  0  0  0  0  0  0  0  0
   -8.4190    0.8654  -23.7322 N   0  0  0  0  0  0  0  0  0  0  0  0
   -7.4619    1.0291  -22.6681 C   0  0  0  0  0  0  0  0  0  0  0  0
   -7.6862    1.2815  -21.4567 O   0  0  0  0  0  0  0  0  0  0  0  0
   -6.1238    0.8286  -23.3385 C   0  0  0  0  0  0  0  0  0  0  0  0
   -5.9263   -0.6443  -23.4242 C   0  0  0  0  0  0  0  0  0  0  0  0
   -5.9644   -1.1764  -22.0510 N   0  0  0  0  0  0  0  0  0  0  0  0
   -5.0058   -0.6262  -21.1550 C   0  0  0  0  0  0  0  0  0  0  0  0
   -4.5781   -1.3385  -20.2136 O   0  0  0  0  0  0  0  0  0  0  0  0
   -4.5784    0.7479  -21.3924 C   0  0  0  0  0  0  0  0  0  0  0  0
   -3.6447    1.2919  -20.5469 C   0  0  0  0  0  0  0  0  0  0  0  0
   -3.2016    2.5835  -20.7401 C   0  0  0  0  0  0  0  0  0  0  0  0
   -3.7254    3.2960  -21.8002 C   0  0  0  0  0  0  0  0  0  0  0  0
   -3.2919    4.5724  -21.9972 F   0  0  0  0  0  0  0  0  0  0  0  0
   -4.6761    2.7248  -22.6512 C   0  0  0  0  0  0  0  0  0  0  0  0
   -5.1281    1.4278  -22.4656 C   0  0  0  0  0  0  0  0  0  0  0  0
   -9.8150    0.6723  -23.5717 C   0  0  0  0  0  0  0  0  0  0  0  0
  -10.7123    1.6949  -23.3627 C   0  0  0  0  0  0  0  0  0  0  0  0
  -12.0357    1.4161  -23.2198 N   0  0  0  0  0  0  0  0  0  0  0  0
  -12.5051    0.1554  -23.2766 C   0  0  0  0  0  0  0  0  0  0  0  0
  -11.6232   -0.8858  -23.4853 C   0  0  0  0  0  0  0  0  0  0  0  0
  -12.1029   -2.1852  -23.5443 C   0  0  0  0  0  0  0  0  0  0  0  0
  -11.2450   -3.2386  -23.7511 C   0  0  0  0  0  0  0  0  0  0  0  0
   -9.8907   -3.0112  -23.9028 C   0  0  0  0  0  0  0  0  0  0  0  0
   -9.4270   -1.7035  -23.8409 C   0  0  0  0  0  0  0  0  0  0  0  0
  -10.2723   -0.6364  -23.6344 C   0  0  0  0  0  0  0  0  0  0  0  0
   -6.9034   -2.1816  -21.6629 C   0  0  0  0  0  0  0  0  0  0  0  0
   -6.4175   -3.5424  -22.0137 C   0  0  0  0  0  0  0  0  0  0  0  0
   -6.7856   -4.2888  -23.1283 C   0  0  0  0  0  0  0  0  0  0  0  0
   -6.0933   -5.4628  -23.0339 C   0  0  0  0  0  0  0  0  0  0  0  0
   -5.3592   -5.3893  -21.9101 N   0  0  0  0  0  0  0  0  0  0  0  0
   -5.5350   -4.2551  -21.2846 N   0  0  0  0  0  0  0  0  0  0  0  0
   -4.7604   -6.1047  -21.5956 H   0  0  0  0  0  0  0  0  0  0  0  0
  2  1  1  0  0  0
  2  3  1  0  0  0
  3  4  1  0  0  0
  4 19  1  0  0  0
  4  5  1  0  0  0
 19 20  2  0  0  0
 20 21  1  0  0  0
 21 22  2  0  0  0
 22 23  1  0  0  0
 23 24  2  0  0  0
 24 25  1  0  0  0
 25 26  2  0  0  0
 26 27  1  0  0  0
 27 28  2  0  0  0
 28 19  1  0  0  0
 28 23  1  0  0  0
  5  6  2  0  0  0
  7  5  1  0  0  0
  7  8  1  0  0  0
  7  2  1  0  0  0
  8  9  1  0  0  0
  9 29  1  0  0  0
  9 10  1  0  0  0
 29 30  1  0  0  0
 30 31  1  0  0  0
 31 32  2  0  0  0
 32 33  1  0  0  0
 33 34  1  0  0  0
 33 35  1  0  0  0
 34 30  2  0  0  0
 10 11  2  0  0  0
 10 12  1  0  0  0
 12 13  2  0  0  0
 13 14  1  0  0  0
 14 15  2  0  0  0
 15 16  1  0  0  0
 15 17  1  0  0  0
 17 18  2  0  0  0
 18 12  1  0  0  0
 18  7  1  0  0  0
M  END
> <minimizedAffinity>
-7.40289

> <CNNscore>
0.2411893159

> <CNNaffinity>
5.9704952240

> <CNN_VS>
1.4400196075

> <CNNaffinity_variance>
0.0792706758

$$$$



 35 40  0  0  0  0  0  0  0  0999 V2000
   -5.9455    0.8586  -25.4646 C   0  0  0  0  0  0  0  0  0  0  0  0
   -6.9867    1.0003  -24.4041 C   0  0  0  0  0  0  0  0  0  0  0  0
   -8.3699    0.6020  -24.9438 C   0  0  0  0  0  0  0  0  0  0  0  0
   -9.1211    0.3715  -23.7263 N   0  0  0  0  0  0  0  0  0  0  0  0
   -8.2194    0.2755  -22.6070 C   0  0  0  0  0  0  0  0  0  0  0  0
   -8.4970    0.3311  -21.3817 O   0  0  0  0  0  0  0  0  0  0  0  0
   -6.8606    0.0924  -23.2398 C   0  0  0  0  0  0  0  0  0  0  0  0
   -6.7575   -1.3542  -23.5751 C   0  0  0  0  0  0  0  0  0  0  0  0
   -6.9117   -2.1112  -22.3207 N   0  0  0  0  0  0  0  0  0  0  0  0
   -5.9728   -1.7987  -21.2984 C   0  0  0  0  0  0  0  0  0  0  0  0
   -5.6497   -2.6935  -20.4788 O   0  0  0  0  0  0  0  0  0  0  0  0
   -5.4410   -0.4409  -21.2695 C   0  0  0  0  0  0  0  0  0  0  0  0
   -4.5244   -0.1239  -20.2990 C   0  0  0  0  0  0  0  0  0  0  0  0
   -3.9852    1.1441  -20.2404 C   0  0  0  0  0  0  0  0  0  0  0  0
   -4.3969    2.0669  -21.1811 C   0  0  0  0  0  0  0  0  0  0  0  0
   -3.8681    3.3213  -21.1293 F   0  0  0  0  0  0  0  0  0  0  0  0
   -5.3321    1.7254  -22.1625 C   0  0  0  0  0  0  0  0  0  0  0  0
   -5.8800    0.4541  -22.2298 C   0  0  0  0  0  0  0  0  0  0  0  0
  -10.5340    0.2605  -23.6670 C   0  0  0  0  0  0  0  0  0  0  0  0
  -11.2071   -0.9374  -23.5870 C   0  0  0  0  0  0  0  0  0  0  0  0
  -12.5660   -0.9485  -23.5339 N   0  0  0  0  0  0  0  0  0  0  0  0
  -13.2860    0.1890  -23.5572 C   0  0  0  0  0  0  0  0  0  0  0  0
  -12.6319    1.4019  -23.6371 C   0  0  0  0  0  0  0  0  0  0  0  0
  -13.3700    2.5752  -23.6613 C   0  0  0  0  0  0  0  0  0  0  0  0
  -12.7419    3.7949  -23.7405 C   0  0  0  0  0  0  0  0  0  0  0  0
  -11.3632    3.8632  -23.7969 C   0  0  0  0  0  0  0  0  0  0  0  0
  -10.6391    2.6783  -23.7717 C   0  0  0  0  0  0  0  0  0  0  0  0
  -11.2519    1.4478  -23.6926 C   0  0  0  0  0  0  0  0  0  0  0  0
   -7.9370   -3.0937  -22.1599 C   0  0  0  0  0  0  0  0  0  0  0  0
   -7.6847   -4.2858  -23.0122 C   0  0  0  0  0  0  0  0  0  0  0  0
   -6.6190   -5.1724  -22.8973 C   0  0  0  0  0  0  0  0  0  0  0  0
   -6.8006   -6.1005  -23.8832 C   0  0  0  0  0  0  0  0  0  0  0  0
   -7.9252   -5.7573  -24.5349 N   0  0  0  0  0  0  0  0  0  0  0  0
   -8.4704   -4.6797  -24.0348 N   0  0  0  0  0  0  0  0  0  0  0  0
   -8.2943   -6.2581  -25.2979 H   0  0  0  0  0  0  0  0  0  0  0  0
  2  1  1  0  0  0
  2  3  1  0  0  0
  3  4  1  0  0  0
  4 19  1  0  0  0
  4  5  1  0  0  0
 19 20  2  0  0  0
 20 21  1  0  0  0
 21 22  2  0  0  0
 22 23  1  0  0  0
 23 24  2  0  0  0
 24 25  1  0  0  0
 25 26  2  0  0  0
 26 27  1  0  0  0
 27 28  2  0  0  0
 28 19  1  0  0  0
 28 23  1  0  0  0
  5  6  2  0  0  0
  7  5  1  0  0  0
  7  8  1  0  0  0
  7  2  1  0  0  0
  8  9  1  0  0  0
  9 29  1  0  0  0
  9 10  1  0  0  0
 29 30  1  0  0  0
 30 31  1  0  0  0
 31 32  2  0  0  0
 32 33  1  0  0  0
 33 34  1  0  0  0
 33 35  1  0  0  0
 34 30  2  0  0  0
 10 11  2  0  0  0
 10 12  1  0  0  0
 12 13  2  0  0  0
 13 14  1  0  0  0
 14 15  2  0  0  0
 15 16  1  0  0  0
 15 17  1  0  0  0
 17 18  2  0  0  0
 18 12  1  0  0  0
 18  7  1  0  0  0
M  END
> <minimizedAffinity>
-8.71882

> <CNNscore>
0.2339821607

> <CNNaffinity>
6.0430307388

> <CNN_VS>
1.4139614105

> <CNNaffinity_variance>
0.1437186748

$$$$



 35 40  0  0  0  0  0  0  0  0999 V2000
   -8.3465   -2.0184  -25.3912 C   0  0  0  0  0  0  0  0  0  0  0  0
   -8.2484   -1.3392  -24.0653 C   0  0  0  0  0  0  0  0  0  0  0  0
   -6.8439   -0.7494  -23.8594 C   0  0  0  0  0  0  0  0  0  0  0  0
   -7.0647    0.2081  -22.7944 N   0  0  0  0  0  0  0  0  0  0  0  0
   -8.4771    0.4408  -22.6322 C   0  0  0  0  0  0  0  0  0  0  0  0
   -9.0649    0.9969  -21.6696 O   0  0  0  0  0  0  0  0  0  0  0  0
   -9.0943   -0.1363  -23.8837 C   0  0  0  0  0  0  0  0  0  0  0  0
   -8.9414    0.9079  -24.9336 C   0  0  0  0  0  0  0  0  0  0  0  0
   -9.6347    2.1178  -24.4586 N   0  0  0  0  0  0  0  0  0  0  0  0
  -11.0158    1.9534  -24.1584 C   0  0  0  0  0  0  0  0  0  0  0  0
  -11.7867    2.9346  -24.2978 O   0  0  0  0  0  0  0  0  0  0  0  0
  -11.4500    0.6381  -23.7018 C   0  0  0  0  0  0  0  0  0  0  0  0
  -12.7804    0.4561  -23.4199 C   0  0  0  0  0  0  0  0  0  0  0  0
  -13.2390   -0.7739  -22.9970 C   0  0  0  0  0  0  0  0  0  0  0  0
  -12.3221   -1.7982  -22.8706 C   0  0  0  0  0  0  0  0  0  0  0  0
  -12.7681   -3.0160  -22.4535 F   0  0  0  0  0  0  0  0  0  0  0  0
  -10.9703   -1.5937  -23.1624 C   0  0  0  0  0  0  0  0  0  0  0  0
  -10.4994   -0.3616  -23.5878 C   0  0  0  0  0  0  0  0  0  0  0  0
   -6.0304    0.8142  -22.0363 C   0  0  0  0  0  0  0  0  0  0  0  0
   -5.2323    1.8335  -22.5039 C   0  0  0  0  0  0  0  0  0  0  0  0
   -4.2632    2.3556  -21.7053 N   0  0  0  0  0  0  0  0  0  0  0  0
   -4.0546    1.9029  -20.4546 C   0  0  0  0  0  0  0  0  0  0  0  0
   -4.8431    0.8812  -19.9649 C   0  0  0  0  0  0  0  0  0  0  0  0
   -4.6311    0.4124  -18.6775 C   0  0  0  0  0  0  0  0  0  0  0  0
   -5.4029   -0.6037  -18.1674 C   0  0  0  0  0  0  0  0  0  0  0  0
   -6.4015   -1.1698  -18.9363 C   0  0  0  0  0  0  0  0  0  0  0  0
   -6.6003   -0.6883  -20.2238 C   0  0  0  0  0  0  0  0  0  0  0  0
   -5.8365    0.3288  -20.7507 C   0  0  0  0  0  0  0  0  0  0  0  0
   -8.9527    3.3661  -24.3197 C   0  0  0  0  0  0  0  0  0  0  0  0
   -8.5796    3.9308  -25.6436 C   0  0  0  0  0  0  0  0  0  0  0  0
   -9.4406    4.1803  -26.7073 C   0  0  0  0  0  0  0  0  0  0  0  0
   -8.6599    4.6934  -27.7042 C   0  0  0  0  0  0  0  0  0  0  0  0
   -7.4033    4.7351  -27.2283 N   0  0  0  0  0  0  0  0  0  0  0  0
   -7.3294    4.2862  -26.0029 N   0  0  0  0  0  0  0  0  0  0  0  0
   -6.6306    5.0646  -27.7417 H   0  0  0  0  0  0  0  0  0  0  0  0
  2  1  1  0  0  0
  2  3  1  0  0  0
  3  4  1  0  0  0
  4 19  1  0  0  0
  4  5  1  0  0  0
 19 20  2  0  0  0
 20 21  1  0  0  0
 21 22  2  0  0  0
 22 23  1  0  0  0
 23 24  2  0  0  0
 24 25  1  0  0  0
 25 26  2  0  0  0
 26 27  1  0  0  0
 27 28  2  0  0  0
 28 19  1  0  0  0
 28 23  1  0  0  0
  5  6  2  0  0  0
  7  5  1  0  0  0
  7  8  1  0  0  0
  7  2  1  0  0  0
  8  9  1  0  0  0
  9 29  1  0  0  0
  9 10  1  0  0  0
 29 30  1  0  0  0
 30 31  1  0  0  0
 31 32  2  0  0  0
 32 33  1  0  0  0
 33 34  1  0  0  0
 33 35  1  0  0  0
 34 30  2  0  0  0
 10 11  2  0  0  0
 10 12  1  0  0  0
 12 13  2  0  0  0
 13 14  1  0  0  0
 14 15  2  0  0  0
 15 16  1  0  0  0
 15 17  1  0  0  0
 17 18  2  0  0  0
 18 12  1  0  0  0
 18  7  1  0  0  0
M  END
> <minimizedAffinity>
-8.36293

> <CNNscore>
0.1858758926

> <CNNaffinity>
5.9015192986

> <CNN_VS>
1.0969501734

> <CNNaffinity_variance>
0.1059334651

$$$$



 35 40  0  0  0  0  0  0  0  0999 V2000
  -10.6123   -2.4510  -22.9645 C   0  0  0  0  0  0  0  0  0  0  0  0
   -9.4508   -2.2244  -23.8747 C   0  0  0  0  0  0  0  0  0  0  0  0
   -9.1688   -0.7215  -24.0324 C   0  0  0  0  0  0  0  0  0  0  0  0
   -7.8120   -0.7141  -24.5412 N   0  0  0  0  0  0  0  0  0  0  0  0
   -7.2164   -2.0135  -24.3622 C   0  0  0  0  0  0  0  0  0  0  0  0
   -6.1686   -2.4648  -24.8913 O   0  0  0  0  0  0  0  0  0  0  0  0
   -8.1379   -2.7137  -23.3923 C   0  0  0  0  0  0  0  0  0  0  0  0
   -7.7448   -2.2366  -22.0381 C   0  0  0  0  0  0  0  0  0  0  0  0
   -6.3285   -2.5893  -21.8387 N   0  0  0  0  0  0  0  0  0  0  0  0
   -6.0205   -3.9734  -21.9558 C   0  0  0  0  0  0  0  0  0  0  0  0
   -5.0608   -4.4384  -21.2930 O   0  0  0  0  0  0  0  0  0  0  0  0
   -6.8510   -4.7710  -22.8509 C   0  0  0  0  0  0  0  0  0  0  0  0
   -6.5779   -6.1106  -22.9674 C   0  0  0  0  0  0  0  0  0  0  0  0
   -7.3444   -6.9066  -23.7925 C   0  0  0  0  0  0  0  0  0  0  0  0
   -8.3804   -6.3128  -24.4852 C   0  0  0  0  0  0  0  0  0  0  0  0
   -9.1419   -7.0932  -25.3019 F   0  0  0  0  0  0  0  0  0  0  0  0
   -8.6434   -4.9460  -24.3539 C   0  0  0  0  0  0  0  0  0  0  0  0
   -7.8790   -4.1375  -23.5276 C   0  0  0  0  0  0  0  0  0  0  0  0
   -7.1829    0.4150  -25.1254 C   0  0  0  0  0  0  0  0  0  0  0  0
   -6.9776    0.5650  -26.4781 C   0  0  0  0  0  0  0  0  0  0  0  0
   -6.3650    1.6836  -26.9502 N   0  0  0  0  0  0  0  0  0  0  0  0
   -5.9461    2.6637  -26.1275 C   0  0  0  0  0  0  0  0  0  0  0  0
   -6.1414    2.5344  -24.7672 C   0  0  0  0  0  0  0  0  0  0  0  0
   -5.7114    3.5416  -23.9171 C   0  0  0  0  0  0  0  0  0  0  0  0
   -5.8945    3.4361  -22.5592 C   0  0  0  0  0  0  0  0  0  0  0  0
   -6.5115    2.3205  -22.0267 C   0  0  0  0  0  0  0  0  0  0  0  0
   -6.9361    1.3210  -22.8925 C   0  0  0  0  0  0  0  0  0  0  0  0
   -6.7608    1.4102  -24.2552 C   0  0  0  0  0  0  0  0  0  0  0  0
   -5.3439   -1.5967  -21.5424 C   0  0  0  0  0  0  0  0  0  0  0  0
   -5.3555   -1.2342  -20.1004 C   0  0  0  0  0  0  0  0  0  0  0  0
   -5.1512    0.0338  -19.5660 C   0  0  0  0  0  0  0  0  0  0  0  0
   -5.2520   -0.1138  -18.2115 C   0  0  0  0  0  0  0  0  0  0  0  0
   -5.5040   -1.4142  -17.9820 N   0  0  0  0  0  0  0  0  0  0  0  0
   -5.5703   -2.1025  -19.0913 N   0  0  0  0  0  0  0  0  0  0  0  0
   -5.6242   -1.8021  -17.0852 H   0  0  0  0  0  0  0  0  0  0  0  0
  2  1  1  0  0  0
  2  3  1  0  0  0
  3  4  1  0  0  0
  4 19  1  0  0  0
  4  5  1  0  0  0
 19 20  2  0  0  0
 20 21  1  0  0  0
 21 22  2  0  0  0
 22 23  1  0  0  0
 23 24  2  0  0  0
 24 25  1  0  0  0
 25 26  2  0  0  0
 26 27  1  0  0  0
 27 28  2  0  0  0
 28 19  1  0  0  0
 28 23  1  0  0  0
  5  6  2  0  0  0
  7  5  1  0  0  0
  7  8  1  0  0  0
  7  2  1  0  0  0
  8  9  1  0  0  0
  9 29  1  0  0  0
  9 10  1  0  0  0
 29 30  1  0  0  0
 30 31  1  0  0  0
 31 32  2  0  0  0
 32 33  1  0  0  0
 33 34  1  0  0  0
 33 35  1  0  0  0
 34 30  2  0  0  0
 10 11  2  0  0  0
 10 12  1  0  0  0
 12 13  2  0  0  0
 13 14  1  0  0  0
 14 15  2  0  0  0
 15 16  1  0  0  0
 15 17  1  0  0  0
 17 18  2  0  0  0
 18 12  1  0  0  0
 18  7  1  0  0  0
M  END
> <minimizedAffinity>
-7.81274

> <CNNscore>
0.1603031605

> <CNNaffinity>
5.8703603745

> <CNN_VS>
0.9410372972

> <CNNaffinity_variance>
0.3159244359

$$$$



 35 40  0  0  0  0  0  0  0  0999 V2000
   -5.4409    1.9462  -24.2138 C   0  0  0  0  0  0  0  0  0  0  0  0
   -6.6869    1.8373  -23.3986 C   0  0  0  0  0  0  0  0  0  0  0  0
   -7.9068    2.3127  -24.2041 C   0  0  0  0  0  0  0  0  0  0  0  0
   -9.0097    1.7335  -23.4640 N   0  0  0  0  0  0  0  0  0  0  0  0
   -8.5147    0.7330  -22.5534 C   0  0  0  0  0  0  0  0  0  0  0  0
   -9.1158    0.2018  -21.5850 O   0  0  0  0  0  0  0  0  0  0  0  0
   -7.1057    0.4656  -23.0262 C   0  0  0  0  0  0  0  0  0  0  0  0
   -7.2301   -0.4874  -24.1630 C   0  0  0  0  0  0  0  0  0  0  0  0
   -7.9031   -1.6957  -23.6557 N   0  0  0  0  0  0  0  0  0  0  0  0
   -7.2556   -2.3454  -22.5680 C   0  0  0  0  0  0  0  0  0  0  0  0
   -7.3883   -3.5873  -22.4387 O   0  0  0  0  0  0  0  0  0  0  0  0
   -6.4706   -1.5141  -21.6626 C   0  0  0  0  0  0  0  0  0  0  0  0
   -5.8279   -2.1242  -20.6151 C   0  0  0  0  0  0  0  0  0  0  0  0
   -5.0641   -1.3800  -19.7405 C   0  0  0  0  0  0  0  0  0  0  0  0
   -4.9728   -0.0196  -19.9567 C   0  0  0  0  0  0  0  0  0  0  0  0
   -4.2199    0.7216  -19.0968 F   0  0  0  0  0  0  0  0  0  0  0  0
   -5.6350    0.5843  -21.0296 C   0  0  0  0  0  0  0  0  0  0  0  0
   -6.4051   -0.1545  -21.9139 C   0  0  0  0  0  0  0  0  0  0  0  0
  -10.3676    2.1100  -23.6266 C   0  0  0  0  0  0  0  0  0  0  0  0
  -10.7830    3.4003  -23.8651 C   0  0  0  0  0  0  0  0  0  0  0  0
  -12.1083    3.6696  -24.0084 N   0  0  0  0  0  0  0  0  0  0  0  0
  -13.0417    2.7029  -23.9236 C   0  0  0  0  0  0  0  0  0  0  0  0
  -12.6478    1.4016  -23.6849 C   0  0  0  0  0  0  0  0  0  0  0  0
  -13.6061    0.4036  -23.5970 C   0  0  0  0  0  0  0  0  0  0  0  0
  -13.2391   -0.8993  -23.3602 C   0  0  0  0  0  0  0  0  0  0  0  0
  -11.9059   -1.2278  -23.2068 C   0  0  0  0  0  0  0  0  0  0  0  0
  -10.9590   -0.2159  -23.2978 C   0  0  0  0  0  0  0  0  0  0  0  0
  -11.3089    1.0945  -23.5345 C   0  0  0  0  0  0  0  0  0  0  0  0
   -9.1206   -2.1730  -24.2324 C   0  0  0  0  0  0  0  0  0  0  0  0
   -8.8656   -2.9419  -25.4793 C   0  0  0  0  0  0  0  0  0  0  0  0
   -8.7578   -4.3243  -25.5895 C   0  0  0  0  0  0  0  0  0  0  0  0
   -8.5240   -4.5740  -26.9122 C   0  0  0  0  0  0  0  0  0  0  0  0
   -8.4995   -3.3814  -27.5322 N   0  0  0  0  0  0  0  0  0  0  0  0
   -8.7004   -2.3936  -26.7001 N   0  0  0  0  0  0  0  0  0  0  0  0
   -8.3481   -3.2658  -28.4981 H   0  0  0  0  0  0  0  0  0  0  0  0
  2  1  1  0  0  0
  2  3  1  0  0  0
  3  4  1  0  0  0
  4 19  1  0  0  0
  4  5  1  0  0  0
 19 20  2  0  0  0
 20 21  1  0  0  0
 21 22  2  0  0  0
 22 23  1  0  0  0
 23 24  2  0  0  0
 24 25  1  0  0  0
 25 26  2  0  0  0
 26 27  1  0  0  0
 27 28  2  0  0  0
 28 19  1  0  0  0
 28 23  1  0  0  0
  5  6  2  0  0  0
  7  5  1  0  0  0
  7  8  1  0  0  0
  7  2  1  0  0  0
  8  9  1  0  0  0
  9 29  1  0  0  0
  9 10  1  0  0  0
 29 30  1  0  0  0
 30 31  1  0  0  0
 31 32  2  0  0  0
 32 33  1  0  0  0
 33 34  1  0  0  0
 33 35  1  0  0  0
 34 30  2  0  0  0
 10 11  2  0  0  0
 10 12  1  0  0  0
 12 13  2  0  0  0
 13 14  1  0  0  0
 14 15  2  0  0  0
 15 16  1  0  0  0
 15 17  1  0  0  0
 17 18  2  0  0  0
 18 12  1  0  0  0
 18  7  1  0  0  0
M  END
> <minimizedAffinity>
-8.52580

> <CNNscore>
0.1425600946

> <CNNaffinity>
5.8329071999

> <CNN_VS>
0.8315398097

> <CNNaffinity_variance>
0.1925156415

$$$$



 35 40  0  0  0  0  0  0  0  0999 V2000
  -12.1645   -2.7584  -22.5065 C   0  0  0  0  0  0  0  0  0  0  0  0
  -11.3374   -2.0193  -23.5058 C   0  0  0  0  0  0  0  0  0  0  0  0
  -11.2355   -0.5314  -23.1331 C   0  0  0  0  0  0  0  0  0  0  0  0
  -10.0886   -0.0980  -23.9055 N   0  0  0  0  0  0  0  0  0  0  0  0
   -9.3635   -1.2453  -24.3885 C   0  0  0  0  0  0  0  0  0  0  0  0
   -8.4801   -1.2830  -25.2827 O   0  0  0  0  0  0  0  0  0  0  0  0
   -9.9061   -2.3963  -23.5756 C   0  0  0  0  0  0  0  0  0  0  0  0
   -9.1789   -2.3584  -22.2773 C   0  0  0  0  0  0  0  0  0  0  0  0
   -7.7415   -2.4923  -22.5713 N   0  0  0  0  0  0  0  0  0  0  0  0
   -7.3695   -3.6668  -23.2830 C   0  0  0  0  0  0  0  0  0  0  0  0
   -6.2251   -4.1494  -23.0989 O   0  0  0  0  0  0  0  0  0  0  0  0
   -8.3556   -4.2398  -24.1920 C   0  0  0  0  0  0  0  0  0  0  0  0
   -8.0203   -5.3800  -24.8776 C   0  0  0  0  0  0  0  0  0  0  0  0
   -8.9254   -5.9642  -25.7388 C   0  0  0  0  0  0  0  0  0  0  0  0
  -10.1617   -5.3668  -25.8817 C   0  0  0  0  0  0  0  0  0  0  0  0
  -11.0607   -5.9386  -26.7306 F   0  0  0  0  0  0  0  0  0  0  0  0
  -10.4853   -4.2049  -25.1748 C   0  0  0  0  0  0  0  0  0  0  0  0
   -9.5830   -3.6100  -24.3072 C   0  0  0  0  0  0  0  0  0  0  0  0
   -9.7483    1.2590  -24.1396 C   0  0  0  0  0  0  0  0  0  0  0  0
   -8.4682    1.6965  -24.3934 C   0  0  0  0  0  0  0  0  0  0  0  0
   -8.2343    3.0190  -24.6071 N   0  0  0  0  0  0  0  0  0  0  0  0
   -9.2268    3.9285  -24.5783 C   0  0  0  0  0  0  0  0  0  0  0  0
  -10.5184    3.5122  -24.3255 C   0  0  0  0  0  0  0  0  0  0  0  0
  -11.5428    4.4458  -24.2951 C   0  0  0  0  0  0  0  0  0  0  0  0
  -12.8368    4.0562  -24.0456 C   0  0  0  0  0  0  0  0  0  0  0  0
  -13.1297    2.7247  -23.8218 C   0  0  0  0  0  0  0  0  0  0  0  0
  -12.0916    1.8027  -23.8558 C   0  0  0  0  0  0  0  0  0  0  0  0
  -10.7897    2.1754  -24.1042 C   0  0  0  0  0  0  0  0  0  0  0  0
   -6.7970   -1.5028  -22.1574 C   0  0  0  0  0  0  0  0  0  0  0  0
   -6.3827   -1.7058  -20.7438 C   0  0  0  0  0  0  0  0  0  0  0  0
   -6.8631   -1.0162  -19.6354 C   0  0  0  0  0  0  0  0  0  0  0  0
   -6.2011   -1.5362  -18.5593 C   0  0  0  0  0  0  0  0  0  0  0  0
   -5.3757   -2.4848  -19.0348 N   0  0  0  0  0  0  0  0  0  0  0  0
   -5.4654   -2.6048  -20.3333 N   0  0  0  0  0  0  0  0  0  0  0  0
   -4.7750   -3.0249  -18.4719 H   0  0  0  0  0  0  0  0  0  0  0  0
  2  1  1  0  0  0
  2  3  1  0  0  0
  3  4  1  0  0  0
  4 19  1  0  0  0
  4  5  1  0  0  0
 19 20  2  0  0  0
 20 21  1  0  0  0
 21 22  2  0  0  0
 22 23  1  0  0  0
 23 24  2  0  0  0
 24 25  1  0  0  0
 25 26  2  0  0  0
 26 27  1  0  0  0
 27 28  2  0  0  0
 28 19  1  0  0  0
 28 23  1  0  0  0
  5  6  2  0  0  0
  7  5  1  0  0  0
  7  8  1  0  0  0
  7  2  1  0  0  0
  8  9  1  0  0  0
  9 29  1  0  0  0
  9 10  1  0  0  0
 29 30  1  0  0  0
 30 31  1  0  0  0
 31 32  2  0  0  0
 32 33  1  0  0  0
 33 34  1  0  0  0
 33 35  1  0  0  0
 34 30  2  0  0  0
 10 11  2  0  0  0
 10 12  1  0  0  0
 12 13  2  0  0  0
 13 14  1  0  0  0
 14 15  2  0  0  0
 15 16  1  0  0  0
 15 17  1  0  0  0
 17 18  2  0  0  0
 18 12  1  0  0  0
 18  7  1  0  0  0
M  END
> <minimizedAffinity>
-9.20874

> <CNNscore>
0.1211404800

> <CNNaffinity>
5.9024906158

> <CNN_VS>
0.7150305510

> <CNNaffinity_variance>
0.4496582150

$$$$



 35 40  0  0  0  0  0  0  0  0999 V2000
   -6.8744    4.0585  -22.4631 C   0  0  0  0  0  0  0  0  0  0  0  0
   -7.2346    3.0139  -23.4671 C   0  0  0  0  0  0  0  0  0  0  0  0
   -8.1805    1.9707  -22.8505 C   0  0  0  0  0  0  0  0  0  0  0  0
   -8.7534    1.3424  -24.0239 N   0  0  0  0  0  0  0  0  0  0  0  0
   -8.4800    2.1438  -25.1894 C   0  0  0  0  0  0  0  0  0  0  0  0
   -8.5890    1.8150  -26.3983 O   0  0  0  0  0  0  0  0  0  0  0  0
   -8.0314    3.4723  -24.6292 C   0  0  0  0  0  0  0  0  0  0  0  0
   -9.2765    4.2136  -24.2885 C   0  0  0  0  0  0  0  0  0  0  0  0
  -10.0629    4.3503  -25.5268 N   0  0  0  0  0  0  0  0  0  0  0  0
   -9.4031    5.0105  -26.6007 C   0  0  0  0  0  0  0  0  0  0  0  0
  -10.0914    5.6556  -27.4293 O   0  0  0  0  0  0  0  0  0  0  0  0
   -7.9511    4.8919  -26.6689 C   0  0  0  0  0  0  0  0  0  0  0  0
   -7.2953    5.5325  -27.6899 C   0  0  0  0  0  0  0  0  0  0  0  0
   -5.9216    5.4586  -27.7874 C   0  0  0  0  0  0  0  0  0  0  0  0
   -5.2431    4.7271  -26.8333 C   0  0  0  0  0  0  0  0  0  0  0  0
   -3.8860    4.6501  -26.9234 F   0  0  0  0  0  0  0  0  0  0  0  0
   -5.9286    4.0811  -25.8003 C   0  0  0  0  0  0  0  0  0  0  0  0
   -7.3088    4.1489  -25.6934 C   0  0  0  0  0  0  0  0  0  0  0  0
   -9.4723    0.1198  -24.0062 C   0  0  0  0  0  0  0  0  0  0  0  0
   -8.9011   -1.1101  -24.2419 C   0  0  0  0  0  0  0  0  0  0  0  0
   -9.6689   -2.2319  -24.2040 N   0  0  0  0  0  0  0  0  0  0  0  0
  -10.9882   -2.1799  -23.9401 C   0  0  0  0  0  0  0  0  0  0  0  0
  -11.5822   -0.9572  -23.7007 C   0  0  0  0  0  0  0  0  0  0  0  0
  -12.9404   -0.8997  -23.4286 C   0  0  0  0  0  0  0  0  0  0  0  0
  -13.5548    0.3055  -23.1870 C   0  0  0  0  0  0  0  0  0  0  0  0
  -12.8213    1.4760  -23.2132 C   0  0  0  0  0  0  0  0  0  0  0  0
  -11.4619    1.4004  -23.4873 C   0  0  0  0  0  0  0  0  0  0  0  0
  -10.8302    0.2017  -23.7317 C   0  0  0  0  0  0  0  0  0  0  0  0
  -11.3991    3.8528  -25.6243 C   0  0  0  0  0  0  0  0  0  0  0  0
  -12.3883    4.8591  -25.1557 C   0  0  0  0  0  0  0  0  0  0  0  0
  -12.6298    5.2274  -23.8362 C   0  0  0  0  0  0  0  0  0  0  0  0
  -13.6129    6.1747  -23.8893 C   0  0  0  0  0  0  0  0  0  0  0  0
  -13.9202    6.3405  -25.1875 N   0  0  0  0  0  0  0  0  0  0  0  0
  -13.2044    5.5680  -25.9618 N   0  0  0  0  0  0  0  0  0  0  0  0
  -14.6031    6.9690  -25.5160 H   0  0  0  0  0  0  0  0  0  0  0  0
  2  1  1  0  0  0
  2  3  1  0  0  0
  3  4  1  0  0  0
  4 19  1  0  0  0
  4  5  1  0  0  0
 19 20  2  0  0  0
 20 21  1  0  0  0
 21 22  2  0  0  0
 22 23  1  0  0  0
 23 24  2  0  0  0
 24 25  1  0  0  0
 25 26  2  0  0  0
 26 27  1  0  0  0
 27 28  2  0  0  0
 28 19  1  0  0  0
 28 23  1  0  0  0
  5  6  2  0  0  0
  7  5  1  0  0  0
  7  8  1  0  0  0
  7  2  1  0  0  0
  8  9  1  0  0  0
  9 29  1  0  0  0
  9 10  1  0  0  0
 29 30  1  0  0  0
 30 31  1  0  0  0
 31 32  2  0  0  0
 32 33  1  0  0  0
 33 34  1  0  0  0
 33 35  1  0  0  0
 34 30  2  0  0  0
 10 11  2  0  0  0
 10 12  1  0  0  0
 12 13  2  0  0  0
 13 14  1  0  0  0
 14 15  2  0  0  0
 15 16  1  0  0  0
 15 17  1  0  0  0
 17 18  2  0  0  0
 18 12  1  0  0  0
 18  7  1  0  0  0
M  END
> <minimizedAffinity>
-6.29962

> <CNNscore>
0.1197071746

> <CNNaffinity>
5.4784045219

> <CNN_VS>
0.6558043361

> <CNNaffinity_variance>
0.2433950603

$$$$



 27 30  0  0  0  0  0  0  0  0999 V2000
   -8.2613   -1.6392  -20.8449 O   0  0  0  0  0  0  0  0  0  0  0  0
   -8.0020   -2.3071  -21.8798 C   0  0  0  0  0  0  0  0  0  0  0  0
   -9.0698   -2.9746  -22.6929 C   0  0  0  0  0  0  0  0  0  0  0  0
   -8.3583   -3.4391  -23.9698 C   0  0  0  0  0  0  0  0  0  0  0  0
   -7.3159   -4.4370  -23.5124 C   0  0  0  0  0  0  0  0  0  0  0  0
   -7.9093   -5.2227  -22.5217 O   0  0  0  0  0  0  0  0  0  0  0  0
   -6.1645   -3.6670  -22.9119 C   0  0  0  0  0  0  0  0  0  0  0  0
   -6.6257   -2.4315  -22.2936 N   0  0  0  0  0  0  0  0  0  0  0  0
   -8.2207   -4.6533  -21.8008 H   0  0  0  0  0  0  0  0  0  0  0  0
   -5.7409   -1.3289  -22.0846 C   0  0  0  0  0  0  0  0  0  0  0  0
   -5.2115   -0.7611  -23.2444 C   0  0  0  0  0  0  0  0  0  0  0  0
   -4.3704    0.2819  -23.1169 N   0  0  0  0  0  0  0  0  0  0  0  0
   -4.0370    0.7783  -21.9075 C   0  0  0  0  0  0  0  0  0  0  0  0
   -4.5535    0.2277  -20.7312 C   0  0  0  0  0  0  0  0  0  0  0  0
   -4.2064    0.7425  -19.5032 C   0  0  0  0  0  0  0  0  0  0  0  0
   -4.7492    0.1568  -18.3644 C   0  0  0  0  0  0  0  0  0  0  0  0
   -5.6209   -0.9238  -18.4903 C   0  0  0  0  0  0  0  0  0  0  0  0
   -5.9744   -1.4458  -19.7109 C   0  0  0  0  0  0  0  0  0  0  0  0
   -5.4251   -0.8508  -20.8299 C   0  0  0  0  0  0  0  0  0  0  0  0
  -10.1223   -1.9924  -22.9923 C   0  0  0  0  0  0  0  0  0  0  0  0
   -9.8775   -0.7582  -23.5845 C   0  0  0  0  0  0  0  0  0  0  0  0
  -10.9356    0.0943  -23.8245 C   0  0  0  0  0  0  0  0  0  0  0  0
  -12.2142   -0.2929  -23.4733 C   0  0  0  0  0  0  0  0  0  0  0  0
  -13.5625    0.7794  -23.7727 Cl  0  0  0  0  0  0  0  0  0  0  0  0
  -12.4952   -1.5095  -22.8841 C   0  0  0  0  0  0  0  0  0  0  0  0
  -14.1388   -1.9393  -22.4633 Cl  0  0  0  0  0  0  0  0  0  0  0  0
  -11.4302   -2.3498  -22.6505 C   0  0  0  0  0  0  0  0  0  0  0  0
  1  2  2  0  0  0
  2  3  1  0  0  0
  3 20  1  0  0  0
  3  4  1  0  0  0
 20 21  2  0  0  0
 21 22  1  0  0  0
 22 23  2  0  0  0
 23 24  1  0  0  0
 23 25  1  0  0  0
 25 26  1  0  0  0
 25 27  2  0  0  0
 27 20  1  0  0  0
  4  5  1  0  0  0
  5  6  1  0  0  0
  5  7  1  0  0  0
  6  9  1  0  0  0
  7  8  1  0  0  0
  8 10  1  0  0  0
  8  2  1  0  0  0
 10 11  2  0  0  0
 11 12  1  0  0  0
 12 13  2  0  0  0
 13 14  1  0  0  0
 14 15  2  0  0  0
 15 16  1  0  0  0
 16 17  2  0  0  0
 17 18  1  0  0  0
 18 19  2  0  0  0
 19 10  1  0  0  0
 19 14  1  0  0  0
M  END
> <minimizedAffinity>
-7.82340

> <CNNscore>
0.8343860507

> <CNNaffinity>
6.0011820793

> <CNN_VS>
5.0073027611

> <CNNaffinity_variance>
0.1109091416

$$$$



 27 30  0  0  0  0  0  0  0  0999 V2000
   -8.8441   -1.2321  -20.6116 O   0  0  0  0  0  0  0  0  0  0  0  0
   -8.1145   -1.6255  -21.5588 C   0  0  0  0  0  0  0  0  0  0  0  0
   -8.6167   -1.7343  -22.9670 C   0  0  0  0  0  0  0  0  0  0  0  0
   -7.3626   -1.9897  -23.8124 C   0  0  0  0  0  0  0  0  0  0  0  0
   -6.8089   -3.3121  -23.3262 C   0  0  0  0  0  0  0  0  0  0  0  0
   -7.8990   -4.1614  -23.1222 O   0  0  0  0  0  0  0  0  0  0  0  0
   -6.1143   -3.0707  -22.0076 C   0  0  0  0  0  0  0  0  0  0  0  0
   -6.7466   -1.9833  -21.2733 N   0  0  0  0  0  0  0  0  0  0  0  0
   -8.5092   -3.7570  -22.4858 H   0  0  0  0  0  0  0  0  0  0  0  0
   -6.0393   -1.2550  -20.2674 C   0  0  0  0  0  0  0  0  0  0  0  0
   -6.2360   -1.7005  -18.9595 C   0  0  0  0  0  0  0  0  0  0  0  0
   -5.5981   -1.0571  -17.9643 N   0  0  0  0  0  0  0  0  0  0  0  0
   -4.7860   -0.0073  -18.2065 C   0  0  0  0  0  0  0  0  0  0  0  0
   -4.5724    0.4580  -19.5072 C   0  0  0  0  0  0  0  0  0  0  0  0
   -3.7418    1.5297  -19.7422 C   0  0  0  0  0  0  0  0  0  0  0  0
   -3.5644    1.9518  -21.0555 C   0  0  0  0  0  0  0  0  0  0  0  0
   -4.2226    1.2893  -22.0904 C   0  0  0  0  0  0  0  0  0  0  0  0
   -5.0539    0.2185  -21.8674 C   0  0  0  0  0  0  0  0  0  0  0  0
   -5.2174   -0.1858  -20.5569 C   0  0  0  0  0  0  0  0  0  0  0  0
   -9.2654   -0.4682  -23.3388 C   0  0  0  0  0  0  0  0  0  0  0  0
   -8.5660    0.6894  -23.6623 C   0  0  0  0  0  0  0  0  0  0  0  0
   -9.2689    1.8281  -23.9983 C   0  0  0  0  0  0  0  0  0  0  0  0
  -10.6498    1.7973  -24.0072 C   0  0  0  0  0  0  0  0  0  0  0  0
  -11.5507    3.2346  -24.4314 Cl  0  0  0  0  0  0  0  0  0  0  0  0
  -11.3777    0.6673  -23.6920 C   0  0  0  0  0  0  0  0  0  0  0  0
  -13.1275    0.6950  -23.7225 Cl  0  0  0  0  0  0  0  0  0  0  0  0
  -10.6636   -0.4614  -23.3587 C   0  0  0  0  0  0  0  0  0  0  0  0
  1  2  2  0  0  0
  2  3  1  0  0  0
  3 20  1  0  0  0
  3  4  1  0  0  0
 20 21  2  0  0  0
 21 22  1  0  0  0
 22 23  2  0  0  0
 23 24  1  0  0  0
 23 25  1  0  0  0
 25 26  1  0  0  0
 25 27  2  0  0  0
 27 20  1  0  0  0
  4  5  1  0  0  0
  5  6  1  0  0  0
  5  7  1  0  0  0
  6  9  1  0  0  0
  7  8  1  0  0  0
  8 10  1  0  0  0
  8  2  1  0  0  0
 10 11  2  0  0  0
 11 12  1  0  0  0
 12 13  2  0  0  0
 13 14  1  0  0  0
 14 15  2  0  0  0
 15 16  1  0  0  0
 16 17  2  0  0  0
 17 18  1  0  0  0
 18 19  2  0  0  0
 19 10  1  0  0  0
 19 14  1  0  0  0
M  END
> <minimizedAffinity>
-7.72200

> <CNNscore>
0.6200145483

> <CNNaffinity>
5.7141885757

> <CNN_VS>
3.5428800583

> <CNNaffinity_variance>
0.1509728134

$$$$



 27 30  0  0  0  0  0  0  0  0999 V2000
   -8.7145    0.2905  -21.3968 O   0  0  0  0  0  0  0  0  0  0  0  0
   -8.0319   -0.5044  -22.0943 C   0  0  0  0  0  0  0  0  0  0  0  0
   -8.2476   -0.6668  -23.5688 C   0  0  0  0  0  0  0  0  0  0  0  0
   -7.0604   -1.5112  -24.0486 C   0  0  0  0  0  0  0  0  0  0  0  0
   -7.1888   -2.8365  -23.3284 C   0  0  0  0  0  0  0  0  0  0  0  0
   -8.5442   -3.1740  -23.3320 O   0  0  0  0  0  0  0  0  0  0  0  0
   -6.7301   -2.6398  -21.9036 C   0  0  0  0  0  0  0  0  0  0  0  0
   -7.0064   -1.2848  -21.4462 N   0  0  0  0  0  0  0  0  0  0  0  0
   -9.0543   -2.4678  -22.9054 H   0  0  0  0  0  0  0  0  0  0  0  0
   -6.2802   -0.7034  -20.3612 C   0  0  0  0  0  0  0  0  0  0  0  0
   -6.8077   -0.9473  -19.0923 C   0  0  0  0  0  0  0  0  0  0  0  0
   -6.1708   -0.4274  -18.0266 N   0  0  0  0  0  0  0  0  0  0  0  0
   -5.0508    0.3121  -18.1631 C   0  0  0  0  0  0  0  0  0  0  0  0
   -4.5025    0.5706  -19.4226 C   0  0  0  0  0  0  0  0  0  0  0  0
   -3.3597    1.3263  -19.5496 C   0  0  0  0  0  0  0  0  0  0  0  0
   -2.8565    1.5531  -20.8263 C   0  0  0  0  0  0  0  0  0  0  0  0
   -3.5119    1.0172  -21.9338 C   0  0  0  0  0  0  0  0  0  0  0  0
   -4.6534    0.2615  -21.8188 C   0  0  0  0  0  0  0  0  0  0  0  0
   -5.1376    0.0473  -20.5431 C   0  0  0  0  0  0  0  0  0  0  0  0
   -8.2493    0.6624  -24.1976 C   0  0  0  0  0  0  0  0  0  0  0  0
   -9.3893    1.2677  -24.7151 C   0  0  0  0  0  0  0  0  0  0  0  0
   -9.2857    2.5196  -25.2860 C   0  0  0  0  0  0  0  0  0  0  0  0
   -8.0557    3.1463  -25.3327 C   0  0  0  0  0  0  0  0  0  0  0  0
   -7.9128    4.7327  -26.0539 Cl  0  0  0  0  0  0  0  0  0  0  0  0
   -6.9031    2.5765  -24.8295 C   0  0  0  0  0  0  0  0  0  0  0  0
   -5.3747    3.4246  -24.9203 Cl  0  0  0  0  0  0  0  0  0  0  0  0
   -7.0211    1.3276  -24.2630 C   0  0  0  0  0  0  0  0  0  0  0  0
  1  2  2  0  0  0
  2  3  1  0  0  0
  3 20  1  0  0  0
  3  4  1  0  0  0
 20 21  2  0  0  0
 21 22  1  0  0  0
 22 23  2  0  0  0
 23 24  1  0  0  0
 23 25  1  0  0  0
 25 26  1  0  0  0
 25 27  2  0  0  0
 27 20  1  0  0  0
  4  5  1  0  0  0
  5  6  1  0  0  0
  5  7  1  0  0  0
  6  9  1  0  0  0
  7  8  1  0  0  0
  8 10  1  0  0  0
  8  2  1  0  0  0
 10 11  2  0  0  0
 11 12  1  0  0  0
 12 13  2  0  0  0
 13 14  1  0  0  0
 14 15  2  0  0  0
 15 16  1  0  0  0
 16 17  2  0  0  0
 17 18  1  0  0  0
 18 19  2  0  0  0
 19 10  1  0  0  0
 19 14  1  0  0  0
M  END
> <minimizedAffinity>
-7.15349

> <CNNscore>
0.4785257280

> <CNNaffinity>
5.3511009216

> <CNN_VS>
2.5606393814

> <CNNaffinity_variance>
0.0549384952

$$$$



 27 30  0  0  0  0  0  0  0  0999 V2000
   -9.0812    0.4210  -21.4540 O   0  0  0  0  0  0  0  0  0  0  0  0
   -8.3491   -0.0092  -22.3831 C   0  0  0  0  0  0  0  0  0  0  0  0
   -8.5946    0.3319  -23.8219 C   0  0  0  0  0  0  0  0  0  0  0  0
   -7.3490   -0.1703  -24.5626 C   0  0  0  0  0  0  0  0  0  0  0  0
   -7.3297   -1.6694  -24.3522 C   0  0  0  0  0  0  0  0  0  0  0  0
   -8.6468   -2.1168  -24.4785 O   0  0  0  0  0  0  0  0  0  0  0  0
   -6.8471   -1.9371  -22.9469 C   0  0  0  0  0  0  0  0  0  0  0  0
   -7.2350   -0.8610  -22.0453 N   0  0  0  0  0  0  0  0  0  0  0  0
   -9.2074   -1.6577  -23.8336 H   0  0  0  0  0  0  0  0  0  0  0  0
   -6.5331   -0.6254  -20.8229 C   0  0  0  0  0  0  0  0  0  0  0  0
   -7.0069   -1.3334  -19.7174 C   0  0  0  0  0  0  0  0  0  0  0  0
   -6.3892   -1.1565  -18.5348 N   0  0  0  0  0  0  0  0  0  0  0  0
   -5.3383   -0.3208  -18.4034 C   0  0  0  0  0  0  0  0  0  0  0  0
   -4.8448    0.3995  -19.4949 C   0  0  0  0  0  0  0  0  0  0  0  0
   -3.7722    1.2490  -19.3489 C   0  0  0  0  0  0  0  0  0  0  0  0
   -3.3215    1.9416  -20.4677 C   0  0  0  0  0  0  0  0  0  0  0  0
   -3.9573    1.7624  -21.6953 C   0  0  0  0  0  0  0  0  0  0  0  0
   -5.0287    0.9171  -21.8525 C   0  0  0  0  0  0  0  0  0  0  0  0
   -5.4617    0.2383  -20.7303 C   0  0  0  0  0  0  0  0  0  0  0  0
   -8.7410    1.7898  -23.9459 C   0  0  0  0  0  0  0  0  0  0  0  0
   -7.7119    2.6909  -23.6952 C   0  0  0  0  0  0  0  0  0  0  0  0
   -7.9509    4.0421  -23.8404 C   0  0  0  0  0  0  0  0  0  0  0  0
   -9.2038    4.4732  -24.2308 C   0  0  0  0  0  0  0  0  0  0  0  0
   -9.5179    6.1830  -24.4180 Cl  0  0  0  0  0  0  0  0  0  0  0  0
  -10.2489    3.6085  -24.4883 C   0  0  0  0  0  0  0  0  0  0  0  0
  -11.8134    4.2201  -24.9799 Cl  0  0  0  0  0  0  0  0  0  0  0  0
   -9.9964    2.2635  -24.3394 C   0  0  0  0  0  0  0  0  0  0  0  0
  1  2  2  0  0  0
  2  3  1  0  0  0
  3 20  1  0  0  0
  3  4  1  0  0  0
 20 21  2  0  0  0
 21 22  1  0  0  0
 22 23  2  0  0  0
 23 24  1  0  0  0
 23 25  1  0  0  0
 25 26  1  0  0  0
 25 27  2  0  0  0
 27 20  1  0  0  0
  4  5  1  0  0  0
  5  6  1  0  0  0
  5  7  1  0  0  0
  6  9  1  0  0  0
  7  8  1  0  0  0
  8 10  1  0  0  0
  8  2  1  0  0  0
 10 11  2  0  0  0
 11 12  1  0  0  0
 12 13  2  0  0  0
 13 14  1  0  0  0
 14 15  2  0  0  0
 15 16  1  0  0  0
 16 17  2  0  0  0
 17 18  1  0  0  0
 18 19  2  0  0  0
 19 10  1  0  0  0
 19 14  1  0  0  0
M  END
> <minimizedAffinity>
-7.16799

> <CNNscore>
0.4765441716

> <CNNaffinity>
5.3630499840

> <CNN_VS>
2.5557301044

> <CNNaffinity_variance>
0.0632495731

$$$$



 27 30  0  0  0  0  0  0  0  0999 V2000
   -7.9958    0.8688  -21.7371 O   0  0  0  0  0  0  0  0  0  0  0  0
   -7.1484    0.0919  -21.2246 C   0  0  0  0  0  0  0  0  0  0  0  0
   -7.4956   -1.2996  -20.7886 C   0  0  0  0  0  0  0  0  0  0  0  0
   -6.1473   -1.9613  -20.4771 C   0  0  0  0  0  0  0  0  0  0  0  0
   -5.5581   -1.1617  -19.3347 C   0  0  0  0  0  0  0  0  0  0  0  0
   -6.6033   -0.8779  -18.4527 O   0  0  0  0  0  0  0  0  0  0  0  0
   -5.0197    0.1310  -19.8988 C   0  0  0  0  0  0  0  0  0  0  0  0
   -5.7957    0.5628  -21.0532 N   0  0  0  0  0  0  0  0  0  0  0  0
   -7.3014   -0.3958  -18.9231 H   0  0  0  0  0  0  0  0  0  0  0  0
   -5.2458    1.4497  -22.0297 C   0  0  0  0  0  0  0  0  0  0  0  0
   -5.2748    2.8029  -21.6895 C   0  0  0  0  0  0  0  0  0  0  0  0
   -4.7719    3.6915  -22.5664 N   0  0  0  0  0  0  0  0  0  0  0  0
   -4.2494    3.3019  -23.7476 C   0  0  0  0  0  0  0  0  0  0  0  0
   -4.2086    1.9530  -24.1118 C   0  0  0  0  0  0  0  0  0  0  0  0
   -3.6733    1.5673  -25.3194 C   0  0  0  0  0  0  0  0  0  0  0  0
   -3.6576    0.2121  -25.6319 C   0  0  0  0  0  0  0  0  0  0  0  0
   -4.1771   -0.7129  -24.7275 C   0  0  0  0  0  0  0  0  0  0  0  0
   -4.7138   -0.3392  -23.5194 C   0  0  0  0  0  0  0  0  0  0  0  0
   -4.7205    1.0107  -23.2271 C   0  0  0  0  0  0  0  0  0  0  0  0
   -8.1870   -1.9840  -21.8911 C   0  0  0  0  0  0  0  0  0  0  0  0
   -7.5301   -2.5534  -22.9764 C   0  0  0  0  0  0  0  0  0  0  0  0
   -8.2711   -3.1744  -23.9609 C   0  0  0  0  0  0  0  0  0  0  0  0
   -9.6472   -3.2187  -23.8505 C   0  0  0  0  0  0  0  0  0  0  0  0
  -10.5962   -4.0029  -25.0921 Cl  0  0  0  0  0  0  0  0  0  0  0  0
  -10.3335   -2.6648  -22.7882 C   0  0  0  0  0  0  0  0  0  0  0  0
  -12.0796   -2.7556  -22.7084 Cl  0  0  0  0  0  0  0  0  0  0  0  0
   -9.5817   -2.0486  -21.8135 C   0  0  0  0  0  0  0  0  0  0  0  0
  1  2  2  0  0  0
  2  3  1  0  0  0
  3 20  1  0  0  0
  3  4  1  0  0  0
 20 21  2  0  0  0
 21 22  1  0  0  0
 22 23  2  0  0  0
 23 24  1  0  0  0
 23 25  1  0  0  0
 25 26  1  0  0  0
 25 27  2  0  0  0
 27 20  1  0  0  0
  4  5  1  0  0  0
  5  6  1  0  0  0
  5  7  1  0  0  0
  6  9  1  0  0  0
  7  8  1  0  0  0
  8 10  1  0  0  0
  8  2  1  0  0  0
 10 11  2  0  0  0
 11 12  1  0  0  0
 12 13  2  0  0  0
 13 14  1  0  0  0
 14 15  2  0  0  0
 15 16  1  0  0  0
 16 17  2  0  0  0
 17 18  1  0  0  0
 18 19  2  0  0  0
 19 10  1  0  0  0
 19 14  1  0  0  0
M  END
> <minimizedAffinity>
-6.76212

> <CNNscore>
0.4405611455

> <CNNaffinity>
5.5411028862

> <CNN_VS>
2.4411945343

> <CNNaffinity_variance>
0.0465737209

$$$$



 27 30  0  0  0  0  0  0  0  0999 V2000
   -7.8195   -0.7826  -21.2147 O   0  0  0  0  0  0  0  0  0  0  0  0
   -7.4674   -1.1184  -22.3755 C   0  0  0  0  0  0  0  0  0  0  0  0
   -8.1685   -2.1955  -23.1470 C   0  0  0  0  0  0  0  0  0  0  0  0
   -7.5980   -2.0961  -24.5673 C   0  0  0  0  0  0  0  0  0  0  0  0
   -6.1201   -2.3948  -24.4319 C   0  0  0  0  0  0  0  0  0  0  0  0
   -5.9979   -3.4506  -23.5256 O   0  0  0  0  0  0  0  0  0  0  0  0
   -5.4469   -1.1701  -23.8608 C   0  0  0  0  0  0  0  0  0  0  0  0
   -6.3480   -0.4388  -22.9806 N   0  0  0  0  0  0  0  0  0  0  0  0
   -6.4059   -3.2012  -22.6817 H   0  0  0  0  0  0  0  0  0  0  0  0
   -6.1493    0.9480  -22.6984 C   0  0  0  0  0  0  0  0  0  0  0  0
   -5.2039    1.2259  -21.7100 C   0  0  0  0  0  0  0  0  0  0  0  0
   -4.9693    2.5135  -21.3965 N   0  0  0  0  0  0  0  0  0  0  0  0
   -5.6215    3.5217  -22.0113 C   0  0  0  0  0  0  0  0  0  0  0  0
   -6.5727    3.2700  -23.0042 C   0  0  0  0  0  0  0  0  0  0  0  0
   -7.2317    4.3065  -23.6245 C   0  0  0  0  0  0  0  0  0  0  0  0
   -8.1686    4.0000  -24.6058 C   0  0  0  0  0  0  0  0  0  0  0  0
   -8.4158    2.6681  -24.9348 C   0  0  0  0  0  0  0  0  0  0  0  0
   -7.7639    1.6256  -24.3222 C   0  0  0  0  0  0  0  0  0  0  0  0
   -6.8374    1.9499  -23.3505 C   0  0  0  0  0  0  0  0  0  0  0  0
   -9.6142   -1.9277  -23.1297 C   0  0  0  0  0  0  0  0  0  0  0  0
  -10.5721   -2.8908  -22.8321 C   0  0  0  0  0  0  0  0  0  0  0  0
  -11.9061   -2.5382  -22.8426 C   0  0  0  0  0  0  0  0  0  0  0  0
  -12.2640   -1.2394  -23.1474 C   0  0  0  0  0  0  0  0  0  0  0  0
  -13.9515   -0.7816  -23.1637 Cl  0  0  0  0  0  0  0  0  0  0  0  0
  -11.3415   -0.2571  -23.4478 C   0  0  0  0  0  0  0  0  0  0  0  0
  -11.8617    1.3708  -23.8256 Cl  0  0  0  0  0  0  0  0  0  0  0  0
  -10.0145   -0.6228  -23.4336 C   0  0  0  0  0  0  0  0  0  0  0  0
  1  2  2  0  0  0
  2  3  1  0  0  0
  3 20  1  0  0  0
  3  4  1  0  0  0
 20 21  2  0  0  0
 21 22  1  0  0  0
 22 23  2  0  0  0
 23 24  1  0  0  0
 23 25  1  0  0  0
 25 26  1  0  0  0
 25 27  2  0  0  0
 27 20  1  0  0  0
  4  5  1  0  0  0
  5  6  1  0  0  0
  5  7  1  0  0  0
  6  9  1  0  0  0
  7  8  1  0  0  0
  8 10  1  0  0  0
  8  2  1  0  0  0
 10 11  2  0  0  0
 11 12  1  0  0  0
 12 13  2  0  0  0
 13 14  1  0  0  0
 14 15  2  0  0  0
 15 16  1  0  0  0
 16 17  2  0  0  0
 17 18  1  0  0  0
 18 19  2  0  0  0
 19 10  1  0  0  0
 19 14  1  0  0  0
M  END
> <minimizedAffinity>
-5.97797

> <CNNscore>
0.4248161912

> <CNNaffinity>
5.5092172623

> <CNN_VS>
2.3404047489

> <CNNaffinity_variance>
0.0803911462

$$$$



 27 30  0  0  0  0  0  0  0  0999 V2000
   -8.4452   -1.5959  -25.9765 O   0  0  0  0  0  0  0  0  0  0  0  0
   -7.7830   -1.3619  -24.9320 C   0  0  0  0  0  0  0  0  0  0  0  0
   -8.3231   -0.5288  -23.8090 C   0  0  0  0  0  0  0  0  0  0  0  0
   -7.3214   -0.7177  -22.6630 C   0  0  0  0  0  0  0  0  0  0  0  0
   -6.0103   -0.1604  -23.1751 C   0  0  0  0  0  0  0  0  0  0  0  0
   -6.3096    1.0111  -23.8743 O   0  0  0  0  0  0  0  0  0  0  0  0
   -5.4151   -1.1688  -24.1280 C   0  0  0  0  0  0  0  0  0  0  0  0
   -6.4571   -1.9181  -24.8167 N   0  0  0  0  0  0  0  0  0  0  0  0
   -6.9332    0.8104  -24.5896 H   0  0  0  0  0  0  0  0  0  0  0  0
   -6.1965   -3.2026  -25.3866 C   0  0  0  0  0  0  0  0  0  0  0  0
   -5.6156   -3.1851  -26.6555 C   0  0  0  0  0  0  0  0  0  0  0  0
   -5.3444   -4.3624  -27.2486 N   0  0  0  0  0  0  0  0  0  0  0  0
   -5.6201   -5.5380  -26.6469 C   0  0  0  0  0  0  0  0  0  0  0  0
   -6.2017   -5.5825  -25.3766 C   0  0  0  0  0  0  0  0  0  0  0  0
   -6.4785   -6.7875  -24.7726 C   0  0  0  0  0  0  0  0  0  0  0  0
   -7.0574   -6.7746  -23.5080 C   0  0  0  0  0  0  0  0  0  0  0  0
   -7.3406   -5.5582  -22.8888 C   0  0  0  0  0  0  0  0  0  0  0  0
   -7.0686   -4.3495  -23.4823 C   0  0  0  0  0  0  0  0  0  0  0  0
   -6.4939   -4.3828  -24.7378 C   0  0  0  0  0  0  0  0  0  0  0  0
   -9.6563   -1.0305  -23.4442 C   0  0  0  0  0  0  0  0  0  0  0  0
   -9.8861   -2.3013  -22.9285 C   0  0  0  0  0  0  0  0  0  0  0  0
  -11.1766   -2.6775  -22.6172 C   0  0  0  0  0  0  0  0  0  0  0  0
  -12.2129   -1.7877  -22.8229 C   0  0  0  0  0  0  0  0  0  0  0  0
  -13.8522   -2.2539  -22.4320 Cl  0  0  0  0  0  0  0  0  0  0  0  0
  -12.0230   -0.5188  -23.3327 C   0  0  0  0  0  0  0  0  0  0  0  0
  -13.3803    0.5607  -23.5693 Cl  0  0  0  0  0  0  0  0  0  0  0  0
  -10.7307   -0.1569  -23.6388 C   0  0  0  0  0  0  0  0  0  0  0  0
  1  2  2  0  0  0
  2  3  1  0  0  0
  3 20  1  0  0  0
  3  4  1  0  0  0
 20 21  2  0  0  0
 21 22  1  0  0  0
 22 23  2  0  0  0
 23 24  1  0  0  0
 23 25  1  0  0  0
 25 26  1  0  0  0
 25 27  2  0  0  0
 27 20  1  0  0  0
  4  5  1  0  0  0
  5  6  1  0  0  0
  5  7  1  0  0  0
  6  9  1  0  0  0
  7  8  1  0  0  0
  8 10  1  0  0  0
  8  2  1  0  0  0
 10 11  2  0  0  0
 11 12  1  0  0  0
 12 13  2  0  0  0
 13 14  1  0  0  0
 14 15  2  0  0  0
 15 16  1  0  0  0
 16 17  2  0  0  0
 17 18  1  0  0  0
 18 19  2  0  0  0
 19 10  1  0  0  0
 19 14  1  0  0  0
M  END
> <minimizedAffinity>
-6.20865

> <CNNscore>
0.4156812429

> <CNNaffinity>
5.5059175491

> <CNN_VS>
2.2887065411

> <CNNaffinity_variance>
0.2309978455

$$$$



 27 30  0  0  0  0  0  0  0  0999 V2000
   -8.3217   -1.8750  -26.1353 O   0  0  0  0  0  0  0  0  0  0  0  0
   -8.0913   -2.3194  -24.9804 C   0  0  0  0  0  0  0  0  0  0  0  0
   -8.0704   -1.4359  -23.7697 C   0  0  0  0  0  0  0  0  0  0  0  0
   -8.0165   -2.4020  -22.5795 C   0  0  0  0  0  0  0  0  0  0  0  0
   -6.7121   -3.1556  -22.7285 C   0  0  0  0  0  0  0  0  0  0  0  0
   -5.7480   -2.2284  -23.1306 O   0  0  0  0  0  0  0  0  0  0  0  0
   -6.8912   -4.1883  -23.8151 C   0  0  0  0  0  0  0  0  0  0  0  0
   -7.8389   -3.7309  -24.8222 N   0  0  0  0  0  0  0  0  0  0  0  0
   -6.0302   -1.8063  -23.9571 H   0  0  0  0  0  0  0  0  0  0  0  0
   -8.5315   -4.6537  -25.6654 C   0  0  0  0  0  0  0  0  0  0  0  0
   -9.8729   -4.8647  -25.3431 C   0  0  0  0  0  0  0  0  0  0  0  0
  -10.5826   -5.7230  -26.0989 N   0  0  0  0  0  0  0  0  0  0  0  0
  -10.0280   -6.3707  -27.1443 C   0  0  0  0  0  0  0  0  0  0  0  0
   -8.6869   -6.1767  -27.4876 C   0  0  0  0  0  0  0  0  0  0  0  0
   -8.1320   -6.8430  -28.5561 C   0  0  0  0  0  0  0  0  0  0  0  0
   -6.7930   -6.6132  -28.8542 C   0  0  0  0  0  0  0  0  0  0  0  0
   -6.0529   -5.7254  -28.0749 C   0  0  0  0  0  0  0  0  0  0  0  0
   -6.5965   -5.0549  -27.0062 C   0  0  0  0  0  0  0  0  0  0  0  0
   -7.9273   -5.2962  -26.7259 C   0  0  0  0  0  0  0  0  0  0  0  0
   -9.2991   -0.6285  -23.7499 C   0  0  0  0  0  0  0  0  0  0  0  0
   -9.3378    0.7226  -24.0768 C   0  0  0  0  0  0  0  0  0  0  0  0
  -10.5432    1.3923  -24.0271 C   0  0  0  0  0  0  0  0  0  0  0  0
  -11.6853    0.7105  -23.6548 C   0  0  0  0  0  0  0  0  0  0  0  0
  -13.2182    1.5491  -23.5884 Cl  0  0  0  0  0  0  0  0  0  0  0  0
  -11.6853   -0.6299  -23.3237 C   0  0  0  0  0  0  0  0  0  0  0  0
  -13.1686   -1.4350  -22.8600 Cl  0  0  0  0  0  0  0  0  0  0  0  0
  -10.4761   -1.2853  -23.3775 C   0  0  0  0  0  0  0  0  0  0  0  0
  1  2  2  0  0  0
  2  3  1  0  0  0
  3 20  1  0  0  0
  3  4  1  0  0  0
 20 21  2  0  0  0
 21 22  1  0  0  0
 22 23  2  0  0  0
 23 24  1  0  0  0
 23 25  1  0  0  0
 25 26  1  0  0  0
 25 27  2  0  0  0
 27 20  1  0  0  0
  4  5  1  0  0  0
  5  6  1  0  0  0
  5  7  1  0  0  0
  6  9  1  0  0  0
  7  8  1  0  0  0
  8 10  1  0  0  0
  8  2  1  0  0  0
 10 11  2  0  0  0
 11 12  1  0  0  0
 12 13  2  0  0  0
 13 14  1  0  0  0
 14 15  2  0  0  0
 15 16  1  0  0  0
 16 17  2  0  0  0
 17 18  1  0  0  0
 18 19  2  0  0  0
 19 10  1  0  0  0
 19 14  1  0  0  0
M  END
> <minimizedAffinity>
-6.89255

> <CNNscore>
0.3586946130

> <CNNaffinity>
5.4807138443

> <CNN_VS>
1.9659025669

> <CNNaffinity_variance>
0.2621531188

$$$$



 27 30  0  0  0  0  0  0  0  0999 V2000
   -7.5371   -1.8420  -25.1604 O   0  0  0  0  0  0  0  0  0  0  0  0
   -7.3910   -2.1509  -23.9490 C   0  0  0  0  0  0  0  0  0  0  0  0
   -7.8144   -1.2444  -22.8328 C   0  0  0  0  0  0  0  0  0  0  0  0
   -7.6994   -2.1014  -21.5659 C   0  0  0  0  0  0  0  0  0  0  0  0
   -6.2333   -2.4607  -21.4517 C   0  0  0  0  0  0  0  0  0  0  0  0
   -5.5049   -1.3174  -21.7882 O   0  0  0  0  0  0  0  0  0  0  0  0
   -5.9401   -3.5494  -22.4558 C   0  0  0  0  0  0  0  0  0  0  0  0
   -6.7940   -3.4245  -23.6290 N   0  0  0  0  0  0  0  0  0  0  0  0
   -5.7490   -1.0300  -22.6819 H   0  0  0  0  0  0  0  0  0  0  0  0
   -7.0580   -4.5425  -24.4794 C   0  0  0  0  0  0  0  0  0  0  0  0
   -8.2477   -5.2233  -24.2170 C   0  0  0  0  0  0  0  0  0  0  0  0
   -8.5557   -6.2865  -24.9825 N   0  0  0  0  0  0  0  0  0  0  0  0
   -7.7473   -6.6972  -25.9815 C   0  0  0  0  0  0  0  0  0  0  0  0
   -6.5506   -6.0326  -26.2644 C   0  0  0  0  0  0  0  0  0  0  0  0
   -5.7340   -6.4606  -27.2859 C   0  0  0  0  0  0  0  0  0  0  0  0
   -4.5546   -5.7630  -27.5247 C   0  0  0  0  0  0  0  0  0  0  0  0
   -4.2303   -4.6609  -26.7350 C   0  0  0  0  0  0  0  0  0  0  0  0
   -5.0380   -4.2249  -25.7128 C   0  0  0  0  0  0  0  0  0  0  0  0
   -6.2045   -4.9304  -25.4911 C   0  0  0  0  0  0  0  0  0  0  0  0
   -9.2018   -0.8179  -23.0678 C   0  0  0  0  0  0  0  0  0  0  0  0
   -9.5465    0.4116  -23.6186 C   0  0  0  0  0  0  0  0  0  0  0  0
  -10.8797    0.7177  -23.7990 C   0  0  0  0  0  0  0  0  0  0  0  0
  -11.8442   -0.1998  -23.4303 C   0  0  0  0  0  0  0  0  0  0  0  0
  -13.5367    0.1776  -23.6543 Cl  0  0  0  0  0  0  0  0  0  0  0  0
  -11.5399   -1.4293  -22.8808 C   0  0  0  0  0  0  0  0  0  0  0  0
  -12.8107   -2.5471  -22.4348 Cl  0  0  0  0  0  0  0  0  0  0  0  0
  -10.2061   -1.7214  -22.7065 C   0  0  0  0  0  0  0  0  0  0  0  0
  1  2  2  0  0  0
  2  3  1  0  0  0
  3 20  1  0  0  0
  3  4  1  0  0  0
 20 21  2  0  0  0
 21 22  1  0  0  0
 22 23  2  0  0  0
 23 24  1  0  0  0
 23 25  1  0  0  0
 25 26  1  0  0  0
 25 27  2  0  0  0
 27 20  1  0  0  0
  4  5  1  0  0  0
  5  6  1  0  0  0
  5  7  1  0  0  0
  6  9  1  0  0  0
  7  8  1  0  0  0
  8 10  1  0  0  0
  8  2  1  0  0  0
 10 11  2  0  0  0
 11 12  1  0  0  0
 12 13  2  0  0  0
 13 14  1  0  0  0
 14 15  2  0  0  0
 15 16  1  0  0  0
 16 17  2  0  0  0
 17 18  1  0  0  0
 18 19  2  0  0  0
 19 10  1  0  0  0
 19 14  1  0  0  0
M  END
> <minimizedAffinity>
-6.01110

> <CNNscore>
0.3390186131

> <CNNaffinity>
5.6819386482

> <CNN_VS>
1.9262830019

> <CNNaffinity_variance>
0.2176363468

$$$$



 40 45  0  0  0  0  0  0  0  0999 V2000
   -8.8807    1.3707  -24.3141 N   0  0  0  0  0  0  0  0  0  0  0  0
   -8.3973    0.0093  -24.4128 C   0  0  0  0  0  0  0  0  0  0  0  0
   -8.9893   -0.7863  -23.2937 C   0  0  0  0  0  0  0  0  0  0  0  0
   -8.4771   -0.1476  -22.0264 C   0  0  0  0  0  0  0  0  0  0  0  0
   -9.0072    0.8242  -21.4294 O   0  0  0  0  0  0  0  0  0  0  0  0
   -7.2934   -0.8102  -21.5971 N   0  0  0  0  0  0  0  0  0  0  0  0
   -7.0230   -1.8852  -22.5699 C   0  0  0  0  0  0  0  0  0  0  0  0
   -8.4220   -2.1624  -23.1656 C   0  0  0  0  0  0  0  0  0  0  0  0
  -10.4443   -0.6786  -23.3083 C   0  0  0  0  0  0  0  0  0  0  0  0
  -11.2952   -1.6860  -22.8319 C   0  0  0  0  0  0  0  0  0  0  0  0
  -12.6683   -1.5429  -22.8483 C   0  0  0  0  0  0  0  0  0  0  0  0
  -13.7102   -2.8379  -22.2375 Cl  0  0  0  0  0  0  0  0  0  0  0  0
  -13.2793   -0.4064  -23.3319 C   0  0  0  0  0  0  0  0  0  0  0  0
  -12.4548    0.5926  -23.8040 C   0  0  0  0  0  0  0  0  0  0  0  0
  -11.0904    0.4457  -23.7859 C   0  0  0  0  0  0  0  0  0  0  0  0
  -10.2992    1.5531  -24.3252 C   0  0  0  0  0  0  0  0  0  0  0  0
  -10.8134    2.6100  -24.7754 O   0  0  0  0  0  0  0  0  0  0  0  0
   -6.4597   -0.5824  -20.4886 C   0  0  0  0  0  0  0  0  0  0  0  0
   -6.7115   -1.3000  -19.3354 C   0  0  0  0  0  0  0  0  0  0  0  0
   -5.9342   -1.1191  -18.2310 N   0  0  0  0  0  0  0  0  0  0  0  0
   -4.9124   -0.2556  -18.2139 C   0  0  0  0  0  0  0  0  0  0  0  0
   -4.6150    0.4907  -19.3443 C   0  0  0  0  0  0  0  0  0  0  0  0
   -3.5792    1.3924  -19.3906 C   0  0  0  0  0  0  0  0  0  0  0  0
   -3.3036    2.1245  -20.5341 C   0  0  0  0  0  0  0  0  0  0  0  0
   -4.0888    1.9438  -21.6551 C   0  0  0  0  0  0  0  0  0  0  0  0
   -5.1257    1.0329  -21.5900 C   0  0  0  0  0  0  0  0  0  0  0  0
   -5.4080    0.3000  -20.4572 C   0  0  0  0  0  0  0  0  0  0  0  0
   -8.0065    2.5143  -24.2166 C   0  0  0  0  0  0  0  0  0  0  0  0
   -7.7512    3.2538  -27.9949 C   0  0  0  0  0  0  0  0  0  0  0  0
   -8.2374    3.0822  -26.6323 N   0  0  0  0  0  0  0  0  0  0  0  0
   -7.3713    2.6492  -25.5755 C   0  0  0  0  0  0  0  0  0  0  0  0
   -6.1523    2.3947  -25.7617 O   0  0  0  0  0  0  0  0  0  0  0  0
   -9.1834    3.2681  -26.4326 H   0  0  0  0  0  0  0  0  0  0  0  0
   -8.2080   -2.9058  -24.4358 C   0  0  0  0  0  0  0  0  0  0  0  0
   -8.0173   -4.3594  -24.1222 C   0  0  0  0  0  0  0  0  0  0  0  0
   -8.4351   -5.2821  -25.0833 C   0  0  0  0  0  0  0  0  0  0  0  0
   -8.2840   -6.6470  -24.8490 C   0  0  0  0  0  0  0  0  0  0  0  0
   -7.7199   -7.0773  -23.6628 C   0  0  0  0  0  0  0  0  0  0  0  0
   -7.3107   -6.1547  -22.7199 C   0  0  0  0  0  0  0  0  0  0  0  0
   -7.4534   -4.7799  -22.9354 C   0  0  0  0  0  0  0  0  0  0  0  0
 29 30  1  0  0  0
 30 31  1  0  0  0
 30 33  1  0  0  0
 31 32  2  0  0  0
 31 28  1  0  0  0
 28  1  1  0  0  0
  1  2  1  0  0  0
  3  2  1  0  0  0
  3  4  1  0  0  0
  3  9  1  0  0  0
  4  5  2  0  0  0
  4  6  1  0  0  0
  6 18  1  0  0  0
  6  7  1  0  0  0
 18 19  2  0  0  0
 19 20  1  0  0  0
 20 21  2  0  0  0
 21 22  1  0  0  0
 22 23  2  0  0  0
 23 24  1  0  0  0
 24 25  2  0  0  0
 25 26  1  0  0  0
 26 27  2  0  0  0
 27 18  1  0  0  0
 27 22  1  0  0  0
  7  8  1  0  0  0
  8 34  1  0  0  0
  8  3  1  0  0  0
 34 35  1  0  0  0
 35 36  2  0  0  0
 36 37  1  0  0  0
 37 38  2  0  0  0
 38 39  1  0  0  0
 39 40  2  0  0  0
 40 35  1  0  0  0
  9 10  2  0  0  0
 10 11  1  0  0  0
 11 12  1  0  0  0
 11 13  2  0  0  0
 13 14  1  0  0  0
 14 15  2  0  0  0
 15 16  1  0  0  0
 15  9  1  0  0  0
 16 17  2  0  0  0
 16  1  1  0  0  0
M  END
> <minimizedAffinity>
-9.63084

> <CNNscore>
0.8504285216

> <CNNaffinity>
7.2477049828

> <CNN_VS>
6.1636548042

> <CNNaffinity_variance>
0.0660021454

$$$$



 40 45  0  0  0  0  0  0  0  0999 V2000
   -6.9323   -0.5089  -22.2509 N   0  0  0  0  0  0  0  0  0  0  0  0
   -5.9045   -0.9131  -23.1874 C   0  0  0  0  0  0  0  0  0  0  0  0
   -6.5338   -1.0984  -24.5311 C   0  0  0  0  0  0  0  0  0  0  0  0
   -7.5401   -2.2092  -24.3584 C   0  0  0  0  0  0  0  0  0  0  0  0
   -8.7299   -2.0674  -23.9759 O   0  0  0  0  0  0  0  0  0  0  0  0
   -6.9435   -3.4565  -24.6942 N   0  0  0  0  0  0  0  0  0  0  0  0
   -5.5513   -3.1763  -25.0920 C   0  0  0  0  0  0  0  0  0  0  0  0
   -5.6199   -1.7009  -25.5477 C   0  0  0  0  0  0  0  0  0  0  0  0
   -7.2465    0.1109  -24.9292 C   0  0  0  0  0  0  0  0  0  0  0  0
   -7.4259    0.4936  -26.2660 C   0  0  0  0  0  0  0  0  0  0  0  0
   -8.1190    1.6382  -26.6057 C   0  0  0  0  0  0  0  0  0  0  0  0
   -8.3248    2.0883  -28.3060 Cl  0  0  0  0  0  0  0  0  0  0  0  0
   -8.6724    2.4674  -25.6543 C   0  0  0  0  0  0  0  0  0  0  0  0
   -8.5036    2.1037  -24.3353 C   0  0  0  0  0  0  0  0  0  0  0  0
   -7.8136    0.9651  -24.0025 C   0  0  0  0  0  0  0  0  0  0  0  0
   -7.6712    0.6719  -22.5752 C   0  0  0  0  0  0  0  0  0  0  0  0
   -8.1607    1.3989  -21.6719 O   0  0  0  0  0  0  0  0  0  0  0  0
   -7.4682   -4.7604  -24.6896 C   0  0  0  0  0  0  0  0  0  0  0  0
   -7.0980   -5.5998  -23.6568 C   0  0  0  0  0  0  0  0  0  0  0  0
   -7.5771   -6.8742  -23.6028 N   0  0  0  0  0  0  0  0  0  0  0  0
   -8.4112   -7.3606  -24.5290 C   0  0  0  0  0  0  0  0  0  0  0  0
   -8.8154   -6.5611  -25.5877 C   0  0  0  0  0  0  0  0  0  0  0  0
   -9.6700   -7.0011  -26.5696 C   0  0  0  0  0  0  0  0  0  0  0  0
  -10.0586   -6.1803  -27.6160 C   0  0  0  0  0  0  0  0  0  0  0  0
   -9.5754   -4.8885  -27.6741 C   0  0  0  0  0  0  0  0  0  0  0  0
   -8.7171   -4.4636  -26.6780 C   0  0  0  0  0  0  0  0  0  0  0  0
   -8.3246   -5.2724  -25.6331 C   0  0  0  0  0  0  0  0  0  0  0  0
   -7.2210   -1.2300  -21.0350 C   0  0  0  0  0  0  0  0  0  0  0  0
   -4.5727    0.5010  -18.8267 C   0  0  0  0  0  0  0  0  0  0  0  0
   -5.7316    0.2247  -19.6653 N   0  0  0  0  0  0  0  0  0  0  0  0
   -5.9876   -1.0872  -20.1827 C   0  0  0  0  0  0  0  0  0  0  0  0
   -5.2334   -2.0670  -19.9448 O   0  0  0  0  0  0  0  0  0  0  0  0
   -6.3536    0.9565  -19.8817 H   0  0  0  0  0  0  0  0  0  0  0  0
   -4.2231   -1.1903  -25.5602 C   0  0  0  0  0  0  0  0  0  0  0  0
   -4.1079   -0.1152  -26.5989 C   0  0  0  0  0  0  0  0  0  0  0  0
   -3.8494    1.1821  -26.1518 C   0  0  0  0  0  0  0  0  0  0  0  0
   -3.7315    2.2234  -27.0697 C   0  0  0  0  0  0  0  0  0  0  0  0
   -3.8721    1.9621  -28.4197 C   0  0  0  0  0  0  0  0  0  0  0  0
   -4.1277    0.6746  -28.8493 C   0  0  0  0  0  0  0  0  0  0  0  0
   -4.2496   -0.3852  -27.9443 C   0  0  0  0  0  0  0  0  0  0  0  0
 29 30  1  0  0  0
 30 31  1  0  0  0
 30 33  1  0  0  0
 31 32  2  0  0  0
 31 28  1  0  0  0
 28  1  1  0  0  0
  1  2  1  0  0  0
  3  2  1  0  0  0
  3  4  1  0  0  0
  3  9  1  0  0  0
  4  5  2  0  0  0
  4  6  1  0  0  0
  6 18  1  0  0  0
  6  7  1  0  0  0
 18 19  2  0  0  0
 19 20  1  0  0  0
 20 21  2  0  0  0
 21 22  1  0  0  0
 22 23  2  0  0  0
 23 24  1  0  0  0
 24 25  2  0  0  0
 25 26  1  0  0  0
 26 27  2  0  0  0
 27 18  1  0  0  0
 27 22  1  0  0  0
  7  8  1  0  0  0
  8 34  1  0  0  0
  8  3  1  0  0  0
 34 35  1  0  0  0
 35 36  2  0  0  0
 36 37  1  0  0  0
 37 38  2  0  0  0
 38 39  1  0  0  0
 39 40  2  0  0  0
 40 35  1  0  0  0
  9 10  2  0  0  0
 10 11  1  0  0  0
 11 12  1  0  0  0
 11 13  2  0  0  0
 13 14  1  0  0  0
 14 15  2  0  0  0
 15 16  1  0  0  0
 15  9  1  0  0  0
 16 17  2  0  0  0
 16  1  1  0  0  0
M  END
> <minimizedAffinity>
-6.18896

> <CNNscore>
0.2859552801

> <CNNaffinity>
6.2858648300

> <CNN_VS>
1.7974762917

> <CNNaffinity_variance>
0.0565005355

$$$$



 40 45  0  0  0  0  0  0  0  0999 V2000
   -7.1327   -3.2950  -26.2041 N   0  0  0  0  0  0  0  0  0  0  0  0
   -6.7592   -2.4286  -25.1057 C   0  0  0  0  0  0  0  0  0  0  0  0
   -7.2045   -3.0646  -23.8277 C   0  0  0  0  0  0  0  0  0  0  0  0
   -8.7073   -3.1581  -23.9230 C   0  0  0  0  0  0  0  0  0  0  0  0
   -9.3509   -4.0999  -24.4527 O   0  0  0  0  0  0  0  0  0  0  0  0
   -9.3006   -2.0140  -23.3202 N   0  0  0  0  0  0  0  0  0  0  0  0
   -8.1998   -1.1676  -22.8234 C   0  0  0  0  0  0  0  0  0  0  0  0
   -7.0517   -2.1844  -22.6303 C   0  0  0  0  0  0  0  0  0  0  0  0
   -6.6649   -4.4157  -23.7180 C   0  0  0  0  0  0  0  0  0  0  0  0
   -6.3877   -5.0363  -22.4917 C   0  0  0  0  0  0  0  0  0  0  0  0
   -5.8907   -6.3227  -22.4261 C   0  0  0  0  0  0  0  0  0  0  0  0
   -5.5531   -7.0727  -20.8579 Cl  0  0  0  0  0  0  0  0  0  0  0  0
   -5.6396   -7.0681  -23.5576 C   0  0  0  0  0  0  0  0  0  0  0  0
   -5.9073   -6.4704  -24.7708 C   0  0  0  0  0  0  0  0  0  0  0  0
   -6.4009   -5.1913  -24.8309 C   0  0  0  0  0  0  0  0  0  0  0  0
   -6.6364   -4.6357  -26.1647 C   0  0  0  0  0  0  0  0  0  0  0  0
   -6.4233   -5.2796  -27.2250 O   0  0  0  0  0  0  0  0  0  0  0  0
  -10.6489   -1.6482  -23.1653 C   0  0  0  0  0  0  0  0  0  0  0  0
  -11.5357   -2.6207  -22.7456 C   0  0  0  0  0  0  0  0  0  0  0  0
  -12.8544   -2.3210  -22.5785 N   0  0  0  0  0  0  0  0  0  0  0  0
  -13.3402   -1.0959  -22.8088 C   0  0  0  0  0  0  0  0  0  0  0  0
  -12.4943   -0.0817  -23.2318 C   0  0  0  0  0  0  0  0  0  0  0  0
  -12.9313    1.1964  -23.4841 C   0  0  0  0  0  0  0  0  0  0  0  0
  -12.0637    2.1913  -23.9049 C   0  0  0  0  0  0  0  0  0  0  0  0
  -10.7269    1.8916  -24.0752 C   0  0  0  0  0  0  0  0  0  0  0  0
  -10.3057    0.6012  -23.8167 C   0  0  0  0  0  0  0  0  0  0  0  0
  -11.1610   -0.3954  -23.3978 C   0  0  0  0  0  0  0  0  0  0  0  0
   -7.9558   -2.8620  -27.3072 C   0  0  0  0  0  0  0  0  0  0  0  0
   -5.3888   -0.4303  -28.8513 C   0  0  0  0  0  0  0  0  0  0  0  0
   -6.0730   -1.6237  -28.3714 N   0  0  0  0  0  0  0  0  0  0  0  0
   -7.3656   -1.5512  -27.7563 C   0  0  0  0  0  0  0  0  0  0  0  0
   -7.9785   -0.4629  -27.5969 O   0  0  0  0  0  0  0  0  0  0  0  0
   -5.6372   -2.5007  -28.4720 H   0  0  0  0  0  0  0  0  0  0  0  0
   -5.7917   -1.3986  -22.5489 C   0  0  0  0  0  0  0  0  0  0  0  0
   -5.5641   -0.9912  -21.1241 C   0  0  0  0  0  0  0  0  0  0  0  0
   -6.0194   -1.8588  -20.1293 C   0  0  0  0  0  0  0  0  0  0  0  0
   -5.8367   -1.5347  -18.7869 C   0  0  0  0  0  0  0  0  0  0  0  0
   -5.2042   -0.3527  -18.4503 C   0  0  0  0  0  0  0  0  0  0  0  0
   -4.7584    0.4972  -19.4435 C   0  0  0  0  0  0  0  0  0  0  0  0
   -4.9318    0.1906  -20.7974 C   0  0  0  0  0  0  0  0  0  0  0  0
 29 30  1  0  0  0
 30 31  1  0  0  0
 30 33  1  0  0  0
 31 32  2  0  0  0
 31 28  1  0  0  0
 28  1  1  0  0  0
  1  2  1  0  0  0
  3  2  1  0  0  0
  3  4  1  0  0  0
  3  9  1  0  0  0
  4  5  2  0  0  0
  4  6  1  0  0  0
  6 18  1  0  0  0
  6  7  1  0  0  0
 18 19  2  0  0  0
 19 20  1  0  0  0
 20 21  2  0  0  0
 21 22  1  0  0  0
 22 23  2  0  0  0
 23 24  1  0  0  0
 24 25  2  0  0  0
 25 26  1  0  0  0
 26 27  2  0  0  0
 27 18  1  0  0  0
 27 22  1  0  0  0
  7  8  1  0  0  0
  8 34  1  0  0  0
  8  3  1  0  0  0
 34 35  1  0  0  0
 35 36  2  0  0  0
 36 37  1  0  0  0
 37 38  2  0  0  0
 38 39  1  0  0  0
 39 40  2  0  0  0
 40 35  1  0  0  0
  9 10  2  0  0  0
 10 11  1  0  0  0
 11 12  1  0  0  0
 11 13  2  0  0  0
 13 14  1  0  0  0
 14 15  2  0  0  0
 15 16  1  0  0  0
 15  9  1  0  0  0
 16 17  2  0  0  0
 16  1  1  0  0  0
M  END
> <minimizedAffinity>
-9.19713

> <CNNscore>
0.2456461340

> <CNNaffinity>
6.2168149948

> <CNN_VS>
1.5271365643

> <CNNaffinity_variance>
0.8648756742

$$$$



 40 45  0  0  0  0  0  0  0  0999 V2000
   -6.9031   -2.1404  -26.7160 N   0  0  0  0  0  0  0  0  0  0  0  0
   -6.4869   -1.5774  -25.4486 C   0  0  0  0  0  0  0  0  0  0  0  0
   -7.2238   -2.2793  -24.3531 C   0  0  0  0  0  0  0  0  0  0  0  0
   -8.6841   -1.9858  -24.5933 C   0  0  0  0  0  0  0  0  0  0  0  0
   -9.4509   -2.6450  -25.3411 O   0  0  0  0  0  0  0  0  0  0  0  0
   -9.0754   -0.8417  -23.8434 N   0  0  0  0  0  0  0  0  0  0  0  0
   -7.8845   -0.3804  -23.1058 C   0  0  0  0  0  0  0  0  0  0  0  0
   -7.0302   -1.6647  -23.0053 C   0  0  0  0  0  0  0  0  0  0  0  0
   -7.0222   -3.7212  -24.4482 C   0  0  0  0  0  0  0  0  0  0  0  0
   -7.0512   -4.5771  -23.3381 C   0  0  0  0  0  0  0  0  0  0  0  0
   -6.8705   -5.9396  -23.4683 C   0  0  0  0  0  0  0  0  0  0  0  0
   -6.9142   -6.9884  -22.0420 Cl  0  0  0  0  0  0  0  0  0  0  0  0
   -6.6519   -6.5347  -24.6918 C   0  0  0  0  0  0  0  0  0  0  0  0
   -6.6205   -5.7051  -25.7925 C   0  0  0  0  0  0  0  0  0  0  0  0
   -6.8004   -4.3512  -25.6581 C   0  0  0  0  0  0  0  0  0  0  0  0
   -6.7319   -3.5506  -26.8819 C   0  0  0  0  0  0  0  0  0  0  0  0
   -6.5363   -4.0505  -28.0203 O   0  0  0  0  0  0  0  0  0  0  0  0
  -10.3146   -0.1862  -23.7406 C   0  0  0  0  0  0  0  0  0  0  0  0
  -10.3671    1.1495  -24.0887 C   0  0  0  0  0  0  0  0  0  0  0  0
  -11.5427    1.8339  -24.0084 N   0  0  0  0  0  0  0  0  0  0  0  0
  -12.6764    1.2548  -23.5970 C   0  0  0  0  0  0  0  0  0  0  0  0
  -12.6806   -0.0840  -23.2353 C   0  0  0  0  0  0  0  0  0  0  0  0
  -13.8112   -0.7362  -22.8059 C   0  0  0  0  0  0  0  0  0  0  0  0
  -13.7872   -2.0754  -22.4516 C   0  0  0  0  0  0  0  0  0  0  0  0
  -12.5982   -2.7722  -22.5317 C   0  0  0  0  0  0  0  0  0  0  0  0
  -11.4717   -2.0999  -22.9657 C   0  0  0  0  0  0  0  0  0  0  0  0
  -11.4853   -0.7679  -23.3203 C   0  0  0  0  0  0  0  0  0  0  0  0
   -7.4593   -1.3498  -27.7871 C   0  0  0  0  0  0  0  0  0  0  0  0
   -5.6872    2.0457  -27.3212 C   0  0  0  0  0  0  0  0  0  0  0  0
   -5.9999    0.6671  -27.6738 N   0  0  0  0  0  0  0  0  0  0  0  0
   -7.2722    0.0837  -27.3651 C   0  0  0  0  0  0  0  0  0  0  0  0
   -8.1842    0.7225  -26.7773 O   0  0  0  0  0  0  0  0  0  0  0  0
   -5.3210    0.1232  -28.1351 H   0  0  0  0  0  0  0  0  0  0  0  0
   -5.6462   -1.2345  -22.6719 C   0  0  0  0  0  0  0  0  0  0  0  0
   -5.5574   -0.9827  -21.1966 C   0  0  0  0  0  0  0  0  0  0  0  0
   -4.9297    0.1945  -20.7845 C   0  0  0  0  0  0  0  0  0  0  0  0
   -4.8168    0.4837  -19.4264 C   0  0  0  0  0  0  0  0  0  0  0  0
   -5.3288   -0.4006  -18.4957 C   0  0  0  0  0  0  0  0  0  0  0  0
   -5.9474   -1.5617  -18.9160 C   0  0  0  0  0  0  0  0  0  0  0  0
   -6.0713   -1.8710  -20.2747 C   0  0  0  0  0  0  0  0  0  0  0  0
 29 30  1  0  0  0
 30 31  1  0  0  0
 30 33  1  0  0  0
 31 32  2  0  0  0
 31 28  1  0  0  0
 28  1  1  0  0  0
  1  2  1  0  0  0
  3  2  1  0  0  0
  3  4  1  0  0  0
  3  9  1  0  0  0
  4  5  2  0  0  0
  4  6  1  0  0  0
  6 18  1  0  0  0
  6  7  1  0  0  0
 18 19  2  0  0  0
 19 20  1  0  0  0
 20 21  2  0  0  0
 21 22  1  0  0  0
 22 23  2  0  0  0
 23 24  1  0  0  0
 24 25  2  0  0  0
 25 26  1  0  0  0
 26 27  2  0  0  0
 27 18  1  0  0  0
 27 22  1  0  0  0
  7  8  1  0  0  0
  8 34  1  0  0  0
  8  3  1  0  0  0
 34 35  1  0  0  0
 35 36  2  0  0  0
 36 37  1  0  0  0
 37 38  2  0  0  0
 38 39  1  0  0  0
 39 40  2  0  0  0
 40 35  1  0  0  0
  9 10  2  0  0  0
 10 11  1  0  0  0
 11 12  1  0  0  0
 11 13  2  0  0  0
 13 14  1  0  0  0
 14 15  2  0  0  0
 15 16  1  0  0  0
 15  9  1  0  0  0
 16 17  2  0  0  0
 16  1  1  0  0  0
M  END
> <minimizedAffinity>
-8.73872

> <CNNscore>
0.2415517867

> <CNNaffinity>
6.3671464920

> <CNN_VS>
1.5379955769

> <CNNaffinity_variance>
0.3576690555

$$$$



 40 45  0  0  0  0  0  0  0  0999 V2000
   -6.7955   -1.5110  -22.1617 N   0  0  0  0  0  0  0  0  0  0  0  0
   -6.4839   -0.8505  -23.4120 C   0  0  0  0  0  0  0  0  0  0  0  0
   -6.3573    0.6169  -23.1543 C   0  0  0  0  0  0  0  0  0  0  0  0
   -7.7121    1.0606  -22.6602 C   0  0  0  0  0  0  0  0  0  0  0  0
   -8.1037    1.0267  -21.4656 O   0  0  0  0  0  0  0  0  0  0  0  0
   -8.4939    1.5290  -23.7529 N   0  0  0  0  0  0  0  0  0  0  0  0
   -7.6629    1.4020  -24.9646 C   0  0  0  0  0  0  0  0  0  0  0  0
   -6.2264    1.4385  -24.3952 C   0  0  0  0  0  0  0  0  0  0  0  0
   -5.3790    0.8650  -22.1008 C   0  0  0  0  0  0  0  0  0  0  0  0
   -4.6148    2.0378  -22.0209 C   0  0  0  0  0  0  0  0  0  0  0  0
   -3.7081    2.2442  -21.0005 C   0  0  0  0  0  0  0  0  0  0  0  0
   -2.7612    3.7391  -20.9337 Cl  0  0  0  0  0  0  0  0  0  0  0  0
   -3.5025    1.3133  -20.0055 C   0  0  0  0  0  0  0  0  0  0  0  0
   -4.2469    0.1548  -20.0714 C   0  0  0  0  0  0  0  0  0  0  0  0
   -5.1469   -0.0461  -21.0879 C   0  0  0  0  0  0  0  0  0  0  0  0
   -5.8772   -1.3149  -21.0830 C   0  0  0  0  0  0  0  0  0  0  0  0
   -5.7235   -2.1931  -20.1946 O   0  0  0  0  0  0  0  0  0  0  0  0
   -9.8043    2.0355  -23.7988 C   0  0  0  0  0  0  0  0  0  0  0  0
   -9.9624    3.3977  -23.9653 C   0  0  0  0  0  0  0  0  0  0  0  0
  -11.2103    3.9424  -24.0171 N   0  0  0  0  0  0  0  0  0  0  0  0
  -12.3167    3.1976  -23.9111 C   0  0  0  0  0  0  0  0  0  0  0  0
  -12.2159    1.8248  -23.7426 C   0  0  0  0  0  0  0  0  0  0  0  0
  -13.3132    1.0056  -23.6284 C   0  0  0  0  0  0  0  0  0  0  0  0
  -13.1837   -0.3637  -23.4618 C   0  0  0  0  0  0  0  0  0  0  0  0
  -11.9211   -0.9193  -23.4090 C   0  0  0  0  0  0  0  0  0  0  0  0
  -10.8295   -0.0801  -23.5256 C   0  0  0  0  0  0  0  0  0  0  0  0
  -10.9480    1.2832  -23.6915 C   0  0  0  0  0  0  0  0  0  0  0  0
   -7.9606   -2.3416  -21.9760 C   0  0  0  0  0  0  0  0  0  0  0  0
   -6.2549   -5.5647  -23.2367 C   0  0  0  0  0  0  0  0  0  0  0  0
   -6.5944   -4.3622  -22.4875 N   0  0  0  0  0  0  0  0  0  0  0  0
   -7.7272   -3.5560  -22.8356 C   0  0  0  0  0  0  0  0  0  0  0  0
   -8.4870   -3.8377  -23.7994 O   0  0  0  0  0  0  0  0  0  0  0  0
   -6.0323   -4.0971  -21.7238 H   0  0  0  0  0  0  0  0  0  0  0  0
   -5.3320    0.8950  -25.4518 C   0  0  0  0  0  0  0  0  0  0  0  0
   -4.3350    1.9476  -25.8336 C   0  0  0  0  0  0  0  0  0  0  0  0
   -3.2920    1.5651  -26.6794 C   0  0  0  0  0  0  0  0  0  0  0  0
   -2.3346    2.4990  -27.0693 C   0  0  0  0  0  0  0  0  0  0  0  0
   -2.4261    3.8007  -26.6136 C   0  0  0  0  0  0  0  0  0  0  0  0
   -3.4625    4.1667  -25.7773 C   0  0  0  0  0  0  0  0  0  0  0  0
   -4.4341    3.2446  -25.3739 C   0  0  0  0  0  0  0  0  0  0  0  0
 29 30  1  0  0  0
 30 31  1  0  0  0
 30 33  1  0  0  0
 31 32  2  0  0  0
 31 28  1  0  0  0
 28  1  1  0  0  0
  1  2  1  0  0  0
  3  2  1  0  0  0
  3  4  1  0  0  0
  3  9  1  0  0  0
  4  5  2  0  0  0
  4  6  1  0  0  0
  6 18  1  0  0  0
  6  7  1  0  0  0
 18 19  2  0  0  0
 19 20  1  0  0  0
 20 21  2  0  0  0
 21 22  1  0  0  0
 22 23  2  0  0  0
 23 24  1  0  0  0
 24 25  2  0  0  0
 25 26  1  0  0  0
 26 27  2  0  0  0
 27 18  1  0  0  0
 27 22  1  0  0  0
  7  8  1  0  0  0
  8 34  1  0  0  0
  8  3  1  0  0  0
 34 35  1  0  0  0
 35 36  2  0  0  0
 36 37  1  0  0  0
 37 38  2  0  0  0
 38 39  1  0  0  0
 39 40  2  0  0  0
 40 35  1  0  0  0
  9 10  2  0  0  0
 10 11  1  0  0  0
 11 12  1  0  0  0
 11 13  2  0  0  0
 13 14  1  0  0  0
 14 15  2  0  0  0
 15 16  1  0  0  0
 15  9  1  0  0  0
 16 17  2  0  0  0
 16  1  1  0  0  0
M  END
> <minimizedAffinity>
-7.52920

> <CNNscore>
0.2406369001

> <CNNaffinity>
6.2713842392

> <CNN_VS>
1.5091264248

> <CNNaffinity_variance>
0.0926424265

$$$$



 40 45  0  0  0  0  0  0  0  0999 V2000
   -6.7853   -1.5567  -21.9927 N   0  0  0  0  0  0  0  0  0  0  0  0
   -6.4463   -0.9217  -23.2490 C   0  0  0  0  0  0  0  0  0  0  0  0
   -6.3214    0.5503  -23.0177 C   0  0  0  0  0  0  0  0  0  0  0  0
   -7.6850    1.0064  -22.5606 C   0  0  0  0  0  0  0  0  0  0  0  0
   -8.1012    0.9969  -21.3738 O   0  0  0  0  0  0  0  0  0  0  0  0
   -8.4429    1.4548  -23.6782 N   0  0  0  0  0  0  0  0  0  0  0  0
   -7.5873    1.3022  -24.8697 C   0  0  0  0  0  0  0  0  0  0  0  0
   -6.1628    1.3469  -24.2715 C   0  0  0  0  0  0  0  0  0  0  0  0
   -5.3643    0.8170  -21.9492 C   0  0  0  0  0  0  0  0  0  0  0  0
   -4.5991    1.9896  -21.8767 C   0  0  0  0  0  0  0  0  0  0  0  0
   -3.7131    2.2142  -20.8420 C   0  0  0  0  0  0  0  0  0  0  0  0
   -2.7640    3.7082  -20.7850 Cl  0  0  0  0  0  0  0  0  0  0  0  0
   -3.5304    1.3026  -19.8248 C   0  0  0  0  0  0  0  0  0  0  0  0
   -4.2762    0.1446  -19.8833 C   0  0  0  0  0  0  0  0  0  0  0  0
   -5.1555   -0.0743  -20.9140 C   0  0  0  0  0  0  0  0  0  0  0  0
   -5.8890   -1.3413  -20.8993 C   0  0  0  0  0  0  0  0  0  0  0  0
   -5.7558   -2.2021  -19.9908 O   0  0  0  0  0  0  0  0  0  0  0  0
   -9.7507    1.9631  -23.7611 C   0  0  0  0  0  0  0  0  0  0  0  0
   -9.9019    3.3189  -23.9786 C   0  0  0  0  0  0  0  0  0  0  0  0
  -11.1471    3.8650  -24.0678 N   0  0  0  0  0  0  0  0  0  0  0  0
  -12.2574    3.1276  -23.9513 C   0  0  0  0  0  0  0  0  0  0  0  0
  -12.1636    1.7614  -23.7323 C   0  0  0  0  0  0  0  0  0  0  0  0
  -13.2652    0.9500  -23.6048 C   0  0  0  0  0  0  0  0  0  0  0  0
  -13.1426   -0.4129  -23.3875 C   0  0  0  0  0  0  0  0  0  0  0  0
  -11.8828   -0.9699  -23.2966 C   0  0  0  0  0  0  0  0  0  0  0  0
  -10.7868   -0.1385  -23.4273 C   0  0  0  0  0  0  0  0  0  0  0  0
  -10.8984    1.2183  -23.6436 C   0  0  0  0  0  0  0  0  0  0  0  0
   -7.9560   -2.3811  -21.8148 C   0  0  0  0  0  0  0  0  0  0  0  0
   -8.7656   -4.7789  -24.7272 C   0  0  0  0  0  0  0  0  0  0  0  0
   -8.8121   -3.7022  -23.7468 N   0  0  0  0  0  0  0  0  0  0  0  0
   -7.7805   -3.5357  -22.7657 C   0  0  0  0  0  0  0  0  0  0  0  0
   -6.7844   -4.3026  -22.6951 O   0  0  0  0  0  0  0  0  0  0  0  0
   -9.5701   -3.0739  -23.7585 H   0  0  0  0  0  0  0  0  0  0  0  0
   -5.2481    0.7808  -25.2985 C   0  0  0  0  0  0  0  0  0  0  0  0
   -3.8437    1.2002  -24.9830 C   0  0  0  0  0  0  0  0  0  0  0  0
   -3.5300    2.5525  -25.1337 C   0  0  0  0  0  0  0  0  0  0  0  0
   -2.2414    3.0026  -24.8556 C   0  0  0  0  0  0  0  0  0  0  0  0
   -1.2813    2.1034  -24.4314 C   0  0  0  0  0  0  0  0  0  0  0  0
   -1.6039    0.7683  -24.2863 C   0  0  0  0  0  0  0  0  0  0  0  0
   -2.8918    0.2957  -24.5602 C   0  0  0  0  0  0  0  0  0  0  0  0
 29 30  1  0  0  0
 30 31  1  0  0  0
 30 33  1  0  0  0
 31 32  2  0  0  0
 31 28  1  0  0  0
 28  1  1  0  0  0
  1  2  1  0  0  0
  3  2  1  0  0  0
  3  4  1  0  0  0
  3  9  1  0  0  0
  4  5  2  0  0  0
  4  6  1  0  0  0
  6 18  1  0  0  0
  6  7  1  0  0  0
 18 19  2  0  0  0
 19 20  1  0  0  0
 20 21  2  0  0  0
 21 22  1  0  0  0
 22 23  2  0  0  0
 23 24  1  0  0  0
 24 25  2  0  0  0
 25 26  1  0  0  0
 26 27  2  0  0  0
 27 18  1  0  0  0
 27 22  1  0  0  0
  7  8  1  0  0  0
  8 34  1  0  0  0
  8  3  1  0  0  0
 34 35  1  0  0  0
 35 36  2  0  0  0
 36 37  1  0  0  0
 37 38  2  0  0  0
 38 39  1  0  0  0
 39 40  2  0  0  0
 40 35  1  0  0  0
  9 10  2  0  0  0
 10 11  1  0  0  0
 11 12  1  0  0  0
 11 13  2  0  0  0
 13 14  1  0  0  0
 14 15  2  0  0  0
 15 16  1  0  0  0
 15  9  1  0  0  0
 16 17  2  0  0  0
 16  1  1  0  0  0
M  END
> <minimizedAffinity>
-7.91277

> <CNNscore>
0.2305787355

> <CNNaffinity>
6.2094836235

> <CNN_VS>
1.4317748547

> <CNNaffinity_variance>
0.0814211890

$$$$



 40 45  0  0  0  0  0  0  0  0999 V2000
   -5.8077   -1.0945  -21.1226 N   0  0  0  0  0  0  0  0  0  0  0  0
   -5.8883   -1.2501  -22.5599 C   0  0  0  0  0  0  0  0  0  0  0  0
   -6.4103    0.0225  -23.1461 C   0  0  0  0  0  0  0  0  0  0  0  0
   -7.7927    0.1987  -22.5680 C   0  0  0  0  0  0  0  0  0  0  0  0
   -8.0639    0.7555  -21.4733 O   0  0  0  0  0  0  0  0  0  0  0  0
   -8.7587   -0.3623  -23.4492 N   0  0  0  0  0  0  0  0  0  0  0  0
   -8.0239   -0.9037  -24.6077 C   0  0  0  0  0  0  0  0  0  0  0  0
   -6.7234   -0.0683  -24.6041 C   0  0  0  0  0  0  0  0  0  0  0  0
   -5.5874    1.1511  -22.7241 C   0  0  0  0  0  0  0  0  0  0  0  0
   -5.4179    2.3103  -23.4943 C   0  0  0  0  0  0  0  0  0  0  0  0
   -4.6425    3.3651  -23.0559 C   0  0  0  0  0  0  0  0  0  0  0  0
   -4.4525    4.8130  -24.0575 Cl  0  0  0  0  0  0  0  0  0  0  0  0
   -3.9930    3.3396  -21.8408 C   0  0  0  0  0  0  0  0  0  0  0  0
   -4.1504    2.2056  -21.0727 C   0  0  0  0  0  0  0  0  0  0  0  0
   -4.9220    1.1595  -21.5129 C   0  0  0  0  0  0  0  0  0  0  0  0
   -5.0142   -0.0088  -20.6356 C   0  0  0  0  0  0  0  0  0  0  0  0
   -4.4402   -0.0759  -19.5175 O   0  0  0  0  0  0  0  0  0  0  0  0
  -10.1583   -0.4463  -23.3502 C   0  0  0  0  0  0  0  0  0  0  0  0
  -10.7102   -1.6785  -23.0581 C   0  0  0  0  0  0  0  0  0  0  0  0
  -12.0614   -1.8171  -22.9501 N   0  0  0  0  0  0  0  0  0  0  0  0
  -12.8980   -0.7867  -23.1186 C   0  0  0  0  0  0  0  0  0  0  0  0
  -12.3977    0.4727  -23.4135 C   0  0  0  0  0  0  0  0  0  0  0  0
  -13.2037    1.5704  -23.5971 C   0  0  0  0  0  0  0  0  0  0  0  0
  -12.6769    2.8179  -23.8899 C   0  0  0  0  0  0  0  0  0  0  0  0
  -11.3084    2.9623  -24.0000 C   0  0  0  0  0  0  0  0  0  0  0  0
  -10.5138    1.8475  -23.8121 C   0  0  0  0  0  0  0  0  0  0  0  0
  -11.0283    0.6023  -23.5206 C   0  0  0  0  0  0  0  0  0  0  0  0
   -6.4732   -1.9757  -20.1940 C   0  0  0  0  0  0  0  0  0  0  0  0
   -5.3701   -5.3231  -21.7641 C   0  0  0  0  0  0  0  0  0  0  0  0
   -5.9982   -4.0313  -21.5206 N   0  0  0  0  0  0  0  0  0  0  0  0
   -5.7589   -3.2962  -20.3137 C   0  0  0  0  0  0  0  0  0  0  0  0
   -4.9994   -3.7200  -19.4032 O   0  0  0  0  0  0  0  0  0  0  0  0
   -6.6015   -3.6543  -22.2013 H   0  0  0  0  0  0  0  0  0  0  0  0
   -5.7392   -0.8027  -25.4430 C   0  0  0  0  0  0  0  0  0  0  0  0
   -4.7725    0.1806  -26.0314 C   0  0  0  0  0  0  0  0  0  0  0  0
   -5.2818    1.1198  -26.9304 C   0  0  0  0  0  0  0  0  0  0  0  0
   -4.4322    2.0594  -27.5101 C   0  0  0  0  0  0  0  0  0  0  0  0
   -3.0878    2.0535  -27.1892 C   0  0  0  0  0  0  0  0  0  0  0  0
   -2.5962    1.1193  -26.2987 C   0  0  0  0  0  0  0  0  0  0  0  0
   -3.4320    0.1672  -25.7054 C   0  0  0  0  0  0  0  0  0  0  0  0
 29 30  1  0  0  0
 30 31  1  0  0  0
 30 33  1  0  0  0
 31 32  2  0  0  0
 31 28  1  0  0  0
 28  1  1  0  0  0
  1  2  1  0  0  0
  3  2  1  0  0  0
  3  4  1  0  0  0
  3  9  1  0  0  0
  4  5  2  0  0  0
  4  6  1  0  0  0
  6 18  1  0  0  0
  6  7  1  0  0  0
 18 19  2  0  0  0
 19 20  1  0  0  0
 20 21  2  0  0  0
 21 22  1  0  0  0
 22 23  2  0  0  0
 23 24  1  0  0  0
 24 25  2  0  0  0
 25 26  1  0  0  0
 26 27  2  0  0  0
 27 18  1  0  0  0
 27 22  1  0  0  0
  7  8  1  0  0  0
  8 34  1  0  0  0
  8  3  1  0  0  0
 34 35  1  0  0  0
 35 36  2  0  0  0
 36 37  1  0  0  0
 37 38  2  0  0  0
 38 39  1  0  0  0
 39 40  2  0  0  0
 40 35  1  0  0  0
  9 10  2  0  0  0
 10 11  1  0  0  0
 11 12  1  0  0  0
 11 13  2  0  0  0
 13 14  1  0  0  0
 14 15  2  0  0  0
 15 16  1  0  0  0
 15  9  1  0  0  0
 16 17  2  0  0  0
 16  1  1  0  0  0
M  END
> <minimizedAffinity>
-7.62585

> <CNNscore>
0.2282496840

> <CNNaffinity>
6.1785159111

> <CNN_VS>
1.4102443457

> <CNNaffinity_variance>
0.0752301663

$$$$



 40 45  0  0  0  0  0  0  0  0999 V2000
   -6.7512   -1.3839  -21.6346 N   0  0  0  0  0  0  0  0  0  0  0  0
   -6.9428    0.0512  -21.6218 C   0  0  0  0  0  0  0  0  0  0  0  0
   -6.1869    0.6407  -22.7694 C   0  0  0  0  0  0  0  0  0  0  0  0
   -4.7371    0.3116  -22.5124 C   0  0  0  0  0  0  0  0  0  0  0  0
   -4.1544   -0.7490  -22.8551 O   0  0  0  0  0  0  0  0  0  0  0  0
   -4.1147    1.3862  -21.8178 N   0  0  0  0  0  0  0  0  0  0  0  0
   -5.1427    2.4248  -21.6186 C   0  0  0  0  0  0  0  0  0  0  0  0
   -6.1434    2.1340  -22.7601 C   0  0  0  0  0  0  0  0  0  0  0  0
   -6.5882    0.0070  -24.0209 C   0  0  0  0  0  0  0  0  0  0  0  0
   -6.5481    0.6595  -25.2612 C   0  0  0  0  0  0  0  0  0  0  0  0
   -6.9222    0.0228  -26.4277 C   0  0  0  0  0  0  0  0  0  0  0  0
   -6.8577    0.8806  -27.9756 Cl  0  0  0  0  0  0  0  0  0  0  0  0
   -7.3548   -1.2854  -26.4404 C   0  0  0  0  0  0  0  0  0  0  0  0
   -7.3997   -1.9396  -25.2277 C   0  0  0  0  0  0  0  0  0  0  0  0
   -7.0271   -1.3024  -24.0706 C   0  0  0  0  0  0  0  0  0  0  0  0
   -7.1262   -2.0735  -22.8301 C   0  0  0  0  0  0  0  0  0  0  0  0
   -7.5140   -3.2703  -22.7937 O   0  0  0  0  0  0  0  0  0  0  0  0
   -2.7957    1.5468  -21.3594 C   0  0  0  0  0  0  0  0  0  0  0  0
   -2.5985    1.6766  -19.9984 C   0  0  0  0  0  0  0  0  0  0  0  0
   -1.3405    1.8346  -19.4992 N   0  0  0  0  0  0  0  0  0  0  0  0
   -0.2611    1.8703  -20.2888 C   0  0  0  0  0  0  0  0  0  0  0  0
   -0.4014    1.7447  -21.6627 C   0  0  0  0  0  0  0  0  0  0  0  0
    0.6669    1.7724  -22.5265 C   0  0  0  0  0  0  0  0  0  0  0  0
    0.4980    1.6434  -23.8956 C   0  0  0  0  0  0  0  0  0  0  0  0
   -0.7749    1.4830  -24.4051 C   0  0  0  0  0  0  0  0  0  0  0  0
   -1.8370    1.4575  -23.5215 C   0  0  0  0  0  0  0  0  0  0  0  0
   -1.6793    1.5851  -22.1580 C   0  0  0  0  0  0  0  0  0  0  0  0
   -6.2192   -2.1199  -20.5133 C   0  0  0  0  0  0  0  0  0  0  0  0
   -5.1900    0.3600  -17.7425 C   0  0  0  0  0  0  0  0  0  0  0  0
   -5.1805   -0.5497  -18.8804 N   0  0  0  0  0  0  0  0  0  0  0  0
   -6.3740   -1.2068  -19.3258 C   0  0  0  0  0  0  0  0  0  0  0  0
   -7.4885   -1.0373  -18.7650 O   0  0  0  0  0  0  0  0  0  0  0  0
   -4.3341   -0.7172  -19.3548 H   0  0  0  0  0  0  0  0  0  0  0  0
   -7.4112    2.8261  -22.4060 C   0  0  0  0  0  0  0  0  0  0  0  0
   -8.1008    3.2528  -23.6671 C   0  0  0  0  0  0  0  0  0  0  0  0
   -9.3441    2.6801  -23.9424 C   0  0  0  0  0  0  0  0  0  0  0  0
  -10.0333    3.0370  -25.0992 C   0  0  0  0  0  0  0  0  0  0  0  0
   -9.4782    3.9581  -25.9674 C   0  0  0  0  0  0  0  0  0  0  0  0
   -8.2475    4.5174  -25.6840 C   0  0  0  0  0  0  0  0  0  0  0  0
   -7.5390    4.1728  -24.5280 C   0  0  0  0  0  0  0  0  0  0  0  0
 29 30  1  0  0  0
 30 31  1  0  0  0
 30 33  1  0  0  0
 31 32  2  0  0  0
 31 28  1  0  0  0
 28  1  1  0  0  0
  1  2  1  0  0  0
  3  2  1  0  0  0
  3  4  1  0  0  0
  3  9  1  0  0  0
  4  5  2  0  0  0
  4  6  1  0  0  0
  6 18  1  0  0  0
  6  7  1  0  0  0
 18 19  2  0  0  0
 19 20  1  0  0  0
 20 21  2  0  0  0
 21 22  1  0  0  0
 22 23  2  0  0  0
 23 24  1  0  0  0
 24 25  2  0  0  0
 25 26  1  0  0  0
 26 27  2  0  0  0
 27 18  1  0  0  0
 27 22  1  0  0  0
  7  8  1  0  0  0
  8 34  1  0  0  0
  8  3  1  0  0  0
 34 35  1  0  0  0
 35 36  2  0  0  0
 36 37  1  0  0  0
 37 38  2  0  0  0
 38 39  1  0  0  0
 39 40  2  0  0  0
 40 35  1  0  0  0
  9 10  2  0  0  0
 10 11  1  0  0  0
 11 12  1  0  0  0
 11 13  2  0  0  0
 13 14  1  0  0  0
 14 15  2  0  0  0
 15 16  1  0  0  0
 15  9  1  0  0  0
 16 17  2  0  0  0
 16  1  1  0  0  0
M  END
> <minimizedAffinity>
-7.01216

> <CNNscore>
0.2269192934

> <CNNaffinity>
6.0616860390

> <CNN_VS>
1.3755135536

> <CNNaffinity_variance>
0.1350839734

$$$$



 40 45  0  0  0  0  0  0  0  0999 V2000
   -9.6401   -2.0071  -23.9956 N   0  0  0  0  0  0  0  0  0  0  0  0
   -9.4656   -0.5700  -24.0251 C   0  0  0  0  0  0  0  0  0  0  0  0
   -8.0214   -0.2728  -24.2741 C   0  0  0  0  0  0  0  0  0  0  0  0
   -7.2781   -0.8588  -23.0991 C   0  0  0  0  0  0  0  0  0  0  0  0
   -6.8733   -2.0459  -23.0060 O   0  0  0  0  0  0  0  0  0  0  0  0
   -7.0978    0.1362  -22.0981 N   0  0  0  0  0  0  0  0  0  0  0  0
   -7.7130    1.3766  -22.6061 C   0  0  0  0  0  0  0  0  0  0  0  0
   -7.6705    1.1729  -24.1377 C   0  0  0  0  0  0  0  0  0  0  0  0
   -7.5668   -0.9434  -25.4875 C   0  0  0  0  0  0  0  0  0  0  0  0
   -6.5353   -0.4501  -26.2988 C   0  0  0  0  0  0  0  0  0  0  0  0
   -6.1216   -1.1199  -27.4330 C   0  0  0  0  0  0  0  0  0  0  0  0
   -4.8148   -0.4649  -28.4325 Cl  0  0  0  0  0  0  0  0  0  0  0  0
   -6.6965   -2.3072  -27.8315 C   0  0  0  0  0  0  0  0  0  0  0  0
   -7.7125   -2.8042  -27.0433 C   0  0  0  0  0  0  0  0  0  0  0  0
   -8.1204   -2.1346  -25.9169 C   0  0  0  0  0  0  0  0  0  0  0  0
   -9.2186   -2.7313  -25.1546 C   0  0  0  0  0  0  0  0  0  0  0  0
   -9.7723   -3.8140  -25.4794 O   0  0  0  0  0  0  0  0  0  0  0  0
   -6.4765    0.0752  -20.8388 C   0  0  0  0  0  0  0  0  0  0  0  0
   -7.0941   -0.6677  -19.8515 C   0  0  0  0  0  0  0  0  0  0  0  0
   -6.5354   -0.7614  -18.6122 N   0  0  0  0  0  0  0  0  0  0  0  0
   -5.3864   -0.1503  -18.3018 C   0  0  0  0  0  0  0  0  0  0  0  0
   -4.7240    0.6085  -19.2550 C   0  0  0  0  0  0  0  0  0  0  0  0
   -3.5412    1.2593  -18.9990 C   0  0  0  0  0  0  0  0  0  0  0  0
   -2.8998    2.0102  -19.9708 C   0  0  0  0  0  0  0  0  0  0  0  0
   -3.4626    2.1073  -21.2276 C   0  0  0  0  0  0  0  0  0  0  0  0
   -4.6522    1.4462  -21.4666 C   0  0  0  0  0  0  0  0  0  0  0  0
   -5.2980    0.6969  -20.5066 C   0  0  0  0  0  0  0  0  0  0  0  0
  -10.2152   -2.7102  -22.8745 C   0  0  0  0  0  0  0  0  0  0  0  0
  -13.8742   -2.5647  -21.6589 C   0  0  0  0  0  0  0  0  0  0  0  0
  -12.4565   -2.8711  -21.7969 N   0  0  0  0  0  0  0  0  0  0  0  0
  -11.6663   -2.3078  -22.8516 C   0  0  0  0  0  0  0  0  0  0  0  0
  -12.1467   -1.5232  -23.7113 O   0  0  0  0  0  0  0  0  0  0  0  0
  -12.0312   -3.4797  -21.1502 H   0  0  0  0  0  0  0  0  0  0  0  0
   -8.6337    2.1412  -24.7263 C   0  0  0  0  0  0  0  0  0  0  0  0
   -8.1018    3.5305  -24.5396 C   0  0  0  0  0  0  0  0  0  0  0  0
   -8.9681    4.4800  -23.9940 C   0  0  0  0  0  0  0  0  0  0  0  0
   -8.5311    5.7879  -23.7966 C   0  0  0  0  0  0  0  0  0  0  0  0
   -7.2391    6.1353  -24.1438 C   0  0  0  0  0  0  0  0  0  0  0  0
   -6.3918    5.1870  -24.6827 C   0  0  0  0  0  0  0  0  0  0  0  0
   -6.8107    3.8684  -24.8892 C   0  0  0  0  0  0  0  0  0  0  0  0
 29 30  1  0  0  0
 30 31  1  0  0  0
 30 33  1  0  0  0
 31 32  2  0  0  0
 31 28  1  0  0  0
 28  1  1  0  0  0
  1  2  1  0  0  0
  3  2  1  0  0  0
  3  4  1  0  0  0
  3  9  1  0  0  0
  4  5  2  0  0  0
  4  6  1  0  0  0
  6 18  1  0  0  0
  6  7  1  0  0  0
 18 19  2  0  0  0
 19 20  1  0  0  0
 20 21  2  0  0  0
 21 22  1  0  0  0
 22 23  2  0  0  0
 23 24  1  0  0  0
 24 25  2  0  0  0
 25 26  1  0  0  0
 26 27  2  0  0  0
 27 18  1  0  0  0
 27 22  1  0  0  0
  7  8  1  0  0  0
  8 34  1  0  0  0
  8  3  1  0  0  0
 34 35  1  0  0  0
 35 36  2  0  0  0
 36 37  1  0  0  0
 37 38  2  0  0  0
 38 39  1  0  0  0
 39 40  2  0  0  0
 40 35  1  0  0  0
  9 10  2  0  0  0
 10 11  1  0  0  0
 11 12  1  0  0  0
 11 13  2  0  0  0
 13 14  1  0  0  0
 14 15  2  0  0  0
 15 16  1  0  0  0
 15  9  1  0  0  0
 16 17  2  0  0  0
 16  1  1  0  0  0
M  END
> <minimizedAffinity>
-7.60093

> <CNNscore>
0.2252258062

> <CNNaffinity>
6.3642730713

> <CNN_VS>
1.4333984852

> <CNNaffinity_variance>
0.0207919180

$$$$



 37 42  0  0  0  0  0  0  0  0999 V2000
   -5.4343   -2.3889  -24.4020 C   0  0  0  0  0  0  0  0  0  0  0  0
   -6.5427   -3.3784  -24.5249 C   0  0  0  0  0  0  0  0  0  0  0  0
   -7.7400   -2.8031  -23.8196 C   0  0  0  0  0  0  0  0  0  0  0  0
   -8.3344   -1.9173  -24.7889 N   0  0  0  0  0  0  0  0  0  0  0  0
   -7.8566   -2.2722  -26.0771 C   0  0  0  0  0  0  0  0  0  0  0  0
   -8.1176   -1.6447  -27.1284 O   0  0  0  0  0  0  0  0  0  0  0  0
   -7.0168   -3.4864  -25.9520 C   0  0  0  0  0  0  0  0  0  0  0  0
   -5.9081   -3.5493  -26.9389 C   0  0  0  0  0  0  0  0  0  0  0  0
   -5.2235   -4.8182  -26.8237 N   0  0  0  0  0  0  0  0  0  0  0  0
   -6.0073   -6.0084  -26.9601 C   0  0  0  0  0  0  0  0  0  0  0  0
   -5.4953   -7.0990  -27.3784 O   0  0  0  0  0  0  0  0  0  0  0  0
   -7.4136   -5.8990  -26.5947 C   0  0  0  0  0  0  0  0  0  0  0  0
   -8.1949   -7.0163  -26.7541 C   0  0  0  0  0  0  0  0  0  0  0  0
   -9.5408   -6.9525  -26.4583 C   0  0  0  0  0  0  0  0  0  0  0  0
  -10.0625   -5.7577  -26.0085 C   0  0  0  0  0  0  0  0  0  0  0  0
  -11.3887   -5.6859  -25.7153 F   0  0  0  0  0  0  0  0  0  0  0  0
   -9.2543   -4.6517  -25.8573 C   0  0  0  0  0  0  0  0  0  0  0  0
   -7.8876   -4.6841  -26.1472 C   0  0  0  0  0  0  0  0  0  0  0  0
   -9.2609   -0.8874  -24.4201 C   0  0  0  0  0  0  0  0  0  0  0  0
   -8.9628    0.4644  -24.6125 C   0  0  0  0  0  0  0  0  0  0  0  0
   -9.8228    1.4422  -24.2665 N   0  0  0  0  0  0  0  0  0  0  0  0
  -11.0168    1.1728  -23.7165 C   0  0  0  0  0  0  0  0  0  0  0  0
  -11.3789   -0.1372  -23.4969 C   0  0  0  0  0  0  0  0  0  0  0  0
  -12.6037   -0.4034  -22.9306 C   0  0  0  0  0  0  0  0  0  0  0  0
  -12.9942   -1.7095  -22.6953 C   0  0  0  0  0  0  0  0  0  0  0  0
  -12.1204   -2.6990  -23.0466 C   0  0  0  0  0  0  0  0  0  0  0  0
  -10.9069   -2.4336  -23.6078 C   0  0  0  0  0  0  0  0  0  0  0  0
  -10.4879   -1.1483  -23.8553 C   0  0  0  0  0  0  0  0  0  0  0  0
   -3.7994   -4.9493  -26.5950 C   0  0  0  0  0  0  0  0  0  0  0  0
   -3.5275   -5.8694  -25.4585 C   0  0  0  0  0  0  0  0  0  0  0  0
   -2.4687   -6.5773  -25.3992 O   0  0  0  0  0  0  0  0  0  0  0  0
   -4.5192   -5.9236  -24.4247 N   0  0  0  0  0  0  0  0  0  0  0  0
   -5.3325   -5.3719  -24.4822 H   0  0  0  0  0  0  0  0  0  0  0  0
   -4.3039   -6.8076  -23.2887 C   0  0  0  0  0  0  0  0  0  0  0  0
   -5.6077   -7.4803  -22.9696 C   0  0  0  0  0  0  0  0  0  0  0  0
   -6.2244   -7.0173  -21.6617 C   0  0  0  0  0  0  0  0  0  0  0  0
   -6.8536   -6.6765  -22.9982 C   0  0  0  0  0  0  0  0  0  0  0  0
  2  1  1  0  0  0
  2  3  1  0  0  0
  3  4  1  0  0  0
  4 19  1  0  0  0
  4  5  1  0  0  0
 19 20  2  0  0  0
 20 21  1  0  0  0
 21 22  2  0  0  0
 22 23  1  0  0  0
 23 24  2  0  0  0
 24 25  1  0  0  0
 25 26  2  0  0  0
 26 27  1  0  0  0
 27 28  2  0  0  0
 28 19  1  0  0  0
 28 23  1  0  0  0
  5  6  2  0  0  0
  7  5  1  0  0  0
  7  8  1  0  0  0
  7  2  1  0  0  0
  8  9  1  0  0  0
  9 29  1  0  0  0
  9 10  1  0  0  0
 29 30  1  0  0  0
 30 31  2  0  0  0
 30 32  1  0  0  0
 32 34  1  0  0  0
 32 33  1  0  0  0
 34 35  1  0  0  0
 35 36  1  0  0  0
 36 37  1  0  0  0
 37 35  1  0  0  0
 10 11  2  0  0  0
 10 12  1  0  0  0
 12 13  2  0  0  0
 13 14  1  0  0  0
 14 15  2  0  0  0
 15 16  1  0  0  0
 15 17  1  0  0  0
 17 18  2  0  0  0
 18 12  1  0  0  0
 18  7  1  0  0  0
M  END
> <minimizedAffinity>
-7.10898

> <CNNscore>
0.4297721982

> <CNNaffinity>
6.3430433273

> <CNN_VS>
2.7260637283

> <CNNaffinity_variance>
0.1752679646

$$$$



 37 42  0  0  0  0  0  0  0  0999 V2000
   -6.3617    0.3888  -26.0774 C   0  0  0  0  0  0  0  0  0  0  0  0
   -7.6125   -0.3958  -25.8708 C   0  0  0  0  0  0  0  0  0  0  0  0
   -7.5981   -1.5332  -26.8546 C   0  0  0  0  0  0  0  0  0  0  0  0
   -6.7830   -2.5410  -26.2240 N   0  0  0  0  0  0  0  0  0  0  0  0
   -6.7133   -2.2606  -24.8347 C   0  0  0  0  0  0  0  0  0  0  0  0
   -6.0150   -2.9001  -24.0158 O   0  0  0  0  0  0  0  0  0  0  0  0
   -7.5934   -1.1054  -24.5407 C   0  0  0  0  0  0  0  0  0  0  0  0
   -7.1073   -0.2540  -23.4245 C   0  0  0  0  0  0  0  0  0  0  0  0
   -8.0862    0.7692  -23.1292 N   0  0  0  0  0  0  0  0  0  0  0  0
   -9.4162    0.3425  -22.8153 C   0  0  0  0  0  0  0  0  0  0  0  0
  -10.1835    1.0430  -22.0758 O   0  0  0  0  0  0  0  0  0  0  0  0
   -9.8364   -0.9298  -23.3879 C   0  0  0  0  0  0  0  0  0  0  0  0
  -11.0936   -1.3795  -23.0695 C   0  0  0  0  0  0  0  0  0  0  0  0
  -11.5235   -2.5969  -23.5557 C   0  0  0  0  0  0  0  0  0  0  0  0
  -10.6687   -3.3293  -24.3524 C   0  0  0  0  0  0  0  0  0  0  0  0
  -11.0843   -4.5310  -24.8353 F   0  0  0  0  0  0  0  0  0  0  0  0
   -9.4117   -2.8529  -24.6564 C   0  0  0  0  0  0  0  0  0  0  0  0
   -8.9471   -1.6237  -24.1807 C   0  0  0  0  0  0  0  0  0  0  0  0
   -6.1958   -3.6228  -26.9587 C   0  0  0  0  0  0  0  0  0  0  0  0
   -4.8266   -3.6566  -27.2370 C   0  0  0  0  0  0  0  0  0  0  0  0
   -4.2629   -4.6653  -27.9300 N   0  0  0  0  0  0  0  0  0  0  0  0
   -4.9857   -5.6967  -28.3931 C   0  0  0  0  0  0  0  0  0  0  0  0
   -6.3416   -5.7308  -28.1570 C   0  0  0  0  0  0  0  0  0  0  0  0
   -7.0746   -6.7909  -28.6376 C   0  0  0  0  0  0  0  0  0  0  0  0
   -8.4391   -6.8516  -28.4185 C   0  0  0  0  0  0  0  0  0  0  0  0
   -9.0084   -5.8276  -27.7160 C   0  0  0  0  0  0  0  0  0  0  0  0
   -8.2806   -4.7778  -27.2404 C   0  0  0  0  0  0  0  0  0  0  0  0
   -6.9239   -4.6863  -27.4398 C   0  0  0  0  0  0  0  0  0  0  0  0
   -7.7934    2.1876  -23.1190 C   0  0  0  0  0  0  0  0  0  0  0  0
   -8.7076    2.9241  -24.0323 C   0  0  0  0  0  0  0  0  0  0  0  0
   -8.6013    2.8498  -25.3007 O   0  0  0  0  0  0  0  0  0  0  0  0
   -9.7217    3.7276  -23.4151 N   0  0  0  0  0  0  0  0  0  0  0  0
   -9.7933    3.7765  -22.4344 H   0  0  0  0  0  0  0  0  0  0  0  0
  -10.6437    4.4699  -24.2620 C   0  0  0  0  0  0  0  0  0  0  0  0
  -11.9877    4.4757  -23.5925 C   0  0  0  0  0  0  0  0  0  0  0  0
  -12.9520    5.4918  -24.1780 C   0  0  0  0  0  0  0  0  0  0  0  0
  -13.1686    4.0017  -24.3540 C   0  0  0  0  0  0  0  0  0  0  0  0
  2  1  1  0  0  0
  2  3  1  0  0  0
  3  4  1  0  0  0
  4 19  1  0  0  0
  4  5  1  0  0  0
 19 20  2  0  0  0
 20 21  1  0  0  0
 21 22  2  0  0  0
 22 23  1  0  0  0
 23 24  2  0  0  0
 24 25  1  0  0  0
 25 26  2  0  0  0
 26 27  1  0  0  0
 27 28  2  0  0  0
 28 19  1  0  0  0
 28 23  1  0  0  0
  5  6  2  0  0  0
  7  5  1  0  0  0
  7  8  1  0  0  0
  7  2  1  0  0  0
  8  9  1  0  0  0
  9 29  1  0  0  0
  9 10  1  0  0  0
 29 30  1  0  0  0
 30 31  2  0  0  0
 30 32  1  0  0  0
 32 34  1  0  0  0
 32 33  1  0  0  0
 34 35  1  0  0  0
 35 36  1  0  0  0
 36 37  1  0  0  0
 37 35  1  0  0  0
 10 11  2  0  0  0
 10 12  1  0  0  0
 12 13  2  0  0  0
 13 14  1  0  0  0
 14 15  2  0  0  0
 15 16  1  0  0  0
 15 17  1  0  0  0
 17 18  2  0  0  0
 18 12  1  0  0  0
 18  7  1  0  0  0
M  END
> <minimizedAffinity>
-6.58179

> <CNNscore>
0.2568124235

> <CNNaffinity>
6.0645742416

> <CNN_VS>
1.5574580431

> <CNNaffinity_variance>
0.1373715997

$$$$



 37 42  0  0  0  0  0  0  0  0999 V2000
   -5.1279   -1.2960  -23.0169 C   0  0  0  0  0  0  0  0  0  0  0  0
   -5.7456    0.0095  -23.3870 C   0  0  0  0  0  0  0  0  0  0  0  0
   -7.0747   -0.2863  -24.0255 C   0  0  0  0  0  0  0  0  0  0  0  0
   -7.9724   -0.4710  -22.9131 N   0  0  0  0  0  0  0  0  0  0  0  0
   -7.3893    0.1162  -21.7604 C   0  0  0  0  0  0  0  0  0  0  0  0
   -7.8778    0.0564  -20.6093 O   0  0  0  0  0  0  0  0  0  0  0  0
   -6.1330    0.7932  -22.1587 C   0  0  0  0  0  0  0  0  0  0  0  0
   -5.0901    0.7858  -21.1007 C   0  0  0  0  0  0  0  0  0  0  0  0
   -3.9538    1.5713  -21.5300 N   0  0  0  0  0  0  0  0  0  0  0  0
   -4.1936    2.9313  -21.9076 C   0  0  0  0  0  0  0  0  0  0  0  0
   -3.2859    3.8212  -21.8048 O   0  0  0  0  0  0  0  0  0  0  0  0
   -5.5264    3.2342  -22.4127 C   0  0  0  0  0  0  0  0  0  0  0  0
   -5.7930    4.5392  -22.7444 C   0  0  0  0  0  0  0  0  0  0  0  0
   -7.0521    4.8835  -23.1910 C   0  0  0  0  0  0  0  0  0  0  0  0
   -8.0105    3.8969  -23.2902 C   0  0  0  0  0  0  0  0  0  0  0  0
   -9.2548    4.2278  -23.7289 F   0  0  0  0  0  0  0  0  0  0  0  0
   -7.7147    2.5944  -22.9507 C   0  0  0  0  0  0  0  0  0  0  0  0
   -6.4493    2.2133  -22.4963 C   0  0  0  0  0  0  0  0  0  0  0  0
   -9.2353   -1.1357  -23.0489 C   0  0  0  0  0  0  0  0  0  0  0  0
   -9.3317   -2.5298  -23.0247 C   0  0  0  0  0  0  0  0  0  0  0  0
  -10.5117   -3.1669  -23.1553 N   0  0  0  0  0  0  0  0  0  0  0  0
  -11.6636   -2.4976  -23.3163 C   0  0  0  0  0  0  0  0  0  0  0  0
  -11.6457   -1.1214  -23.3500 C   0  0  0  0  0  0  0  0  0  0  0  0
  -12.8311   -0.4442  -23.5177 C   0  0  0  0  0  0  0  0  0  0  0  0
  -12.8445    0.9386  -23.5582 C   0  0  0  0  0  0  0  0  0  0  0  0
  -11.6469    1.5822  -23.4260 C   0  0  0  0  0  0  0  0  0  0  0  0
  -10.4731    0.9096  -23.2597 C   0  0  0  0  0  0  0  0  0  0  0  0
  -10.4239   -0.4631  -23.2148 C   0  0  0  0  0  0  0  0  0  0  0  0
   -2.5975    1.0664  -21.5839 C   0  0  0  0  0  0  0  0  0  0  0  0
   -2.0230    1.2345  -22.9455 C   0  0  0  0  0  0  0  0  0  0  0  0
   -2.4339    0.5535  -23.9421 O   0  0  0  0  0  0  0  0  0  0  0  0
   -0.9778    2.2054  -23.0862 N   0  0  0  0  0  0  0  0  0  0  0  0
   -0.6696    2.7249  -22.3088 H   0  0  0  0  0  0  0  0  0  0  0  0
   -0.3798    2.4106  -24.3971 C   0  0  0  0  0  0  0  0  0  0  0  0
    0.4560    3.6565  -24.3369 C   0  0  0  0  0  0  0  0  0  0  0  0
    0.0030    4.7374  -25.3021 C   0  0  0  0  0  0  0  0  0  0  0  0
   -0.1504    4.8999  -23.8027 C   0  0  0  0  0  0  0  0  0  0  0  0
  2  1  1  0  0  0
  2  3  1  0  0  0
  3  4  1  0  0  0
  4 19  1  0  0  0
  4  5  1  0  0  0
 19 20  2  0  0  0
 20 21  1  0  0  0
 21 22  2  0  0  0
 22 23  1  0  0  0
 23 24  2  0  0  0
 24 25  1  0  0  0
 25 26  2  0  0  0
 26 27  1  0  0  0
 27 28  2  0  0  0
 28 19  1  0  0  0
 28 23  1  0  0  0
  5  6  2  0  0  0
  7  5  1  0  0  0
  7  8  1  0  0  0
  7  2  1  0  0  0
  8  9  1  0  0  0
  9 29  1  0  0  0
  9 10  1  0  0  0
 29 30  1  0  0  0
 30 31  2  0  0  0
 30 32  1  0  0  0
 32 34  1  0  0  0
 32 33  1  0  0  0
 34 35  1  0  0  0
 35 36  1  0  0  0
 36 37  1  0  0  0
 37 35  1  0  0  0
 10 11  2  0  0  0
 10 12  1  0  0  0
 12 13  2  0  0  0
 13 14  1  0  0  0
 14 15  2  0  0  0
 15 16  1  0  0  0
 15 17  1  0  0  0
 17 18  2  0  0  0
 18 12  1  0  0  0
 18  7  1  0  0  0
M  END
> <minimizedAffinity>
-6.67265

> <CNNscore>
0.2516296804

> <CNNaffinity>
5.7401390076

> <CNN_VS>
1.4443893433

> <CNNaffinity_variance>
0.0402739197

$$$$



 37 42  0  0  0  0  0  0  0  0999 V2000
   -6.7780    1.2973  -22.9383 C   0  0  0  0  0  0  0  0  0  0  0  0
   -8.1531    0.7708  -22.7041 C   0  0  0  0  0  0  0  0  0  0  0  0
   -9.0785    1.9529  -22.6143 C   0  0  0  0  0  0  0  0  0  0  0  0
   -9.3679    2.2853  -23.9866 N   0  0  0  0  0  0  0  0  0  0  0  0
   -9.0611    1.1619  -24.7974 C   0  0  0  0  0  0  0  0  0  0  0  0
   -9.1227    1.1511  -26.0477 O   0  0  0  0  0  0  0  0  0  0  0  0
   -8.6662    0.0373  -23.9173 C   0  0  0  0  0  0  0  0  0  0  0  0
   -7.6613   -0.8721  -24.5258 C   0  0  0  0  0  0  0  0  0  0  0  0
   -7.4311   -2.0006  -23.6507 N   0  0  0  0  0  0  0  0  0  0  0  0
   -8.5662   -2.7851  -23.2691 C   0  0  0  0  0  0  0  0  0  0  0  0
   -8.4514   -4.0174  -22.9616 O   0  0  0  0  0  0  0  0  0  0  0  0
   -9.8497   -2.0955  -23.2530 C   0  0  0  0  0  0  0  0  0  0  0  0
  -10.9589   -2.8362  -22.9284 C   0  0  0  0  0  0  0  0  0  0  0  0
  -12.2020   -2.2380  -22.9366 C   0  0  0  0  0  0  0  0  0  0  0  0
  -12.2910   -0.9038  -23.2740 C   0  0  0  0  0  0  0  0  0  0  0  0
  -13.5128   -0.3064  -23.2853 F   0  0  0  0  0  0  0  0  0  0  0  0
  -11.1603   -0.1843  -23.5951 C   0  0  0  0  0  0  0  0  0  0  0  0
   -9.8871   -0.7605  -23.5951 C   0  0  0  0  0  0  0  0  0  0  0  0
   -9.8950    3.5616  -24.3718 C   0  0  0  0  0  0  0  0  0  0  0  0
  -11.2705    3.8086  -24.3842 C   0  0  0  0  0  0  0  0  0  0  0  0
  -11.7790    5.0021  -24.7481 N   0  0  0  0  0  0  0  0  0  0  0  0
  -10.9918    6.0233  -25.1199 C   0  0  0  0  0  0  0  0  0  0  0  0
   -9.6258    5.8529  -25.1322 C   0  0  0  0  0  0  0  0  0  0  0  0
   -8.8272    6.9046  -25.5170 C   0  0  0  0  0  0  0  0  0  0  0  0
   -7.4513    6.7628  -25.5419 C   0  0  0  0  0  0  0  0  0  0  0  0
   -6.9382    5.5517  -25.1729 C   0  0  0  0  0  0  0  0  0  0  0  0
   -7.7310    4.5105  -24.7918 C   0  0  0  0  0  0  0  0  0  0  0  0
   -9.1007    4.6172  -24.7555 C   0  0  0  0  0  0  0  0  0  0  0  0
   -6.1254   -2.3856  -23.1564 C   0  0  0  0  0  0  0  0  0  0  0  0
   -5.8012   -1.6633  -21.8972 C   0  0  0  0  0  0  0  0  0  0  0  0
   -6.5284   -1.7612  -20.8545 O   0  0  0  0  0  0  0  0  0  0  0  0
   -4.6238   -0.8457  -21.9107 N   0  0  0  0  0  0  0  0  0  0  0  0
   -4.0707   -0.7785  -22.7223 H   0  0  0  0  0  0  0  0  0  0  0  0
   -4.2597   -0.1164  -20.7050 C   0  0  0  0  0  0  0  0  0  0  0  0
   -3.5691    1.1509  -21.1190 C   0  0  0  0  0  0  0  0  0  0  0  0
   -3.2353    2.0672  -19.9553 C   0  0  0  0  0  0  0  0  0  0  0  0
   -2.1506    1.3511  -20.7356 C   0  0  0  0  0  0  0  0  0  0  0  0
  2  1  1  0  0  0
  2  3  1  0  0  0
  3  4  1  0  0  0
  4 19  1  0  0  0
  4  5  1  0  0  0
 19 20  2  0  0  0
 20 21  1  0  0  0
 21 22  2  0  0  0
 22 23  1  0  0  0
 23 24  2  0  0  0
 24 25  1  0  0  0
 25 26  2  0  0  0
 26 27  1  0  0  0
 27 28  2  0  0  0
 28 19  1  0  0  0
 28 23  1  0  0  0
  5  6  2  0  0  0
  7  5  1  0  0  0
  7  8  1  0  0  0
  7  2  1  0  0  0
  8  9  1  0  0  0
  9 29  1  0  0  0
  9 10  1  0  0  0
 29 30  1  0  0  0
 30 31  2  0  0  0
 30 32  1  0  0  0
 32 34  1  0  0  0
 32 33  1  0  0  0
 34 35  1  0  0  0
 35 36  1  0  0  0
 36 37  1  0  0  0
 37 35  1  0  0  0
 10 11  2  0  0  0
 10 12  1  0  0  0
 12 13  2  0  0  0
 13 14  1  0  0  0
 14 15  2  0  0  0
 15 16  1  0  0  0
 15 17  1  0  0  0
 17 18  2  0  0  0
 18 12  1  0  0  0
 18  7  1  0  0  0
M  END
> <minimizedAffinity>
-6.69142

> <CNNscore>
0.2470030040

> <CNNaffinity>
6.1006202698

> <CNN_VS>
1.5068715811

> <CNNaffinity_variance>
0.1753488332

$$$$



 37 42  0  0  0  0  0  0  0  0999 V2000
   -8.7000   -1.4133  -24.9619 C   0  0  0  0  0  0  0  0  0  0  0  0
   -7.5540   -0.7991  -24.2323 C   0  0  0  0  0  0  0  0  0  0  0  0
   -7.4894    0.6491  -24.6329 C   0  0  0  0  0  0  0  0  0  0  0  0
   -8.4607    1.2973  -23.7878 N   0  0  0  0  0  0  0  0  0  0  0  0
   -8.7306    0.4523  -22.6802 C   0  0  0  0  0  0  0  0  0  0  0  0
   -9.5916    0.6865  -21.8023 O   0  0  0  0  0  0  0  0  0  0  0  0
   -7.8318   -0.7235  -22.7524 C   0  0  0  0  0  0  0  0  0  0  0  0
   -8.4297   -1.9662  -22.1999 C   0  0  0  0  0  0  0  0  0  0  0  0
   -7.4429   -3.0238  -22.1984 N   0  0  0  0  0  0  0  0  0  0  0  0
   -6.2115   -2.7795  -21.5102 C   0  0  0  0  0  0  0  0  0  0  0  0
   -5.5253   -3.7330  -21.0137 O   0  0  0  0  0  0  0  0  0  0  0  0
   -5.7932   -1.3871  -21.4128 C   0  0  0  0  0  0  0  0  0  0  0  0
   -4.6358   -1.1236  -20.7234 C   0  0  0  0  0  0  0  0  0  0  0  0
   -4.2180    0.1822  -20.5704 C   0  0  0  0  0  0  0  0  0  0  0  0
   -4.9835    1.1894  -21.1195 C   0  0  0  0  0  0  0  0  0  0  0  0
   -4.5792    2.4798  -20.9727 F   0  0  0  0  0  0  0  0  0  0  0  0
   -6.1410    0.8957  -21.8072 C   0  0  0  0  0  0  0  0  0  0  0  0
   -6.5906   -0.4162  -21.9805 C   0  0  0  0  0  0  0  0  0  0  0  0
   -8.9961    2.5926  -24.0886 C   0  0  0  0  0  0  0  0  0  0  0  0
  -10.1080    2.7465  -24.9212 C   0  0  0  0  0  0  0  0  0  0  0  0
  -10.6184    3.9583  -25.2152 N   0  0  0  0  0  0  0  0  0  0  0  0
  -10.0870    5.0884  -24.7241 C   0  0  0  0  0  0  0  0  0  0  0  0
   -8.9895    5.0142  -23.8963 C   0  0  0  0  0  0  0  0  0  0  0  0
   -8.4503    6.1780  -23.3997 C   0  0  0  0  0  0  0  0  0  0  0  0
   -7.3459    6.1356  -22.5677 C   0  0  0  0  0  0  0  0  0  0  0  0
   -6.8299    4.9058  -22.2715 C   0  0  0  0  0  0  0  0  0  0  0  0
   -7.3654    3.7534  -22.7644 C   0  0  0  0  0  0  0  0  0  0  0  0
   -8.4620    3.7595  -23.5929 C   0  0  0  0  0  0  0  0  0  0  0  0
   -7.6365   -4.3095  -22.8362 C   0  0  0  0  0  0  0  0  0  0  0  0
   -6.4849   -4.6436  -23.7161 C   0  0  0  0  0  0  0  0  0  0  0  0
   -6.1273   -3.8880  -24.6789 O   0  0  0  0  0  0  0  0  0  0  0  0
   -5.7901   -5.8642  -23.4289 N   0  0  0  0  0  0  0  0  0  0  0  0
   -6.0761   -6.4389  -22.6826 H   0  0  0  0  0  0  0  0  0  0  0  0
   -4.6551   -6.2399  -24.2589 C   0  0  0  0  0  0  0  0  0  0  0  0
   -4.8836   -7.6392  -24.7531 C   0  0  0  0  0  0  0  0  0  0  0  0
   -4.9109   -7.7504  -26.2670 C   0  0  0  0  0  0  0  0  0  0  0  0
   -3.7789   -8.3414  -25.4500 C   0  0  0  0  0  0  0  0  0  0  0  0
  2  1  1  0  0  0
  2  3  1  0  0  0
  3  4  1  0  0  0
  4 19  1  0  0  0
  4  5  1  0  0  0
 19 20  2  0  0  0
 20 21  1  0  0  0
 21 22  2  0  0  0
 22 23  1  0  0  0
 23 24  2  0  0  0
 24 25  1  0  0  0
 25 26  2  0  0  0
 26 27  1  0  0  0
 27 28  2  0  0  0
 28 19  1  0  0  0
 28 23  1  0  0  0
  5  6  2  0  0  0
  7  5  1  0  0  0
  7  8  1  0  0  0
  7  2  1  0  0  0
  8  9  1  0  0  0
  9 29  1  0  0  0
  9 10  1  0  0  0
 29 30  1  0  0  0
 30 31  2  0  0  0
 30 32  1  0  0  0
 32 34  1  0  0  0
 32 33  1  0  0  0
 34 35  1  0  0  0
 35 36  1  0  0  0
 36 37  1  0  0  0
 37 35  1  0  0  0
 10 11  2  0  0  0
 10 12  1  0  0  0
 12 13  2  0  0  0
 13 14  1  0  0  0
 14 15  2  0  0  0
 15 16  1  0  0  0
 15 17  1  0  0  0
 17 18  2  0  0  0
 18 12  1  0  0  0
 18  7  1  0  0  0
M  END
> <minimizedAffinity>
-7.31938

> <CNNscore>
0.2283567488

> <CNNaffinity>
5.8121557236

> <CNN_VS>
1.3272449970

> <CNNaffinity_variance>
0.0669488311

$$$$



 37 42  0  0  0  0  0  0  0  0999 V2000
  -10.7887   -2.1676  -22.4759 C   0  0  0  0  0  0  0  0  0  0  0  0
  -10.1430   -1.6172  -23.7019 C   0  0  0  0  0  0  0  0  0  0  0  0
  -11.0244   -0.5131  -24.2178 C   0  0  0  0  0  0  0  0  0  0  0  0
  -10.6572    0.6356  -23.4285 N   0  0  0  0  0  0  0  0  0  0  0  0
   -9.3842    0.3967  -22.8488 C   0  0  0  0  0  0  0  0  0  0  0  0
   -8.8171    1.1656  -22.0400 O   0  0  0  0  0  0  0  0  0  0  0  0
   -8.8652   -0.8926  -23.3625 C   0  0  0  0  0  0  0  0  0  0  0  0
   -8.0133   -1.6231  -22.3891 C   0  0  0  0  0  0  0  0  0  0  0  0
   -7.4543   -2.8003  -23.0169 N   0  0  0  0  0  0  0  0  0  0  0  0
   -6.6971   -2.6143  -24.2175 C   0  0  0  0  0  0  0  0  0  0  0  0
   -5.7760   -3.4282  -24.5571 O   0  0  0  0  0  0  0  0  0  0  0  0
   -7.0405   -1.4484  -25.0214 C   0  0  0  0  0  0  0  0  0  0  0  0
   -6.3022   -1.2267  -26.1572 C   0  0  0  0  0  0  0  0  0  0  0  0
   -6.5633   -0.1151  -26.9314 C   0  0  0  0  0  0  0  0  0  0  0  0
   -7.5660    0.7450  -26.5357 C   0  0  0  0  0  0  0  0  0  0  0  0
   -7.8295    1.8437  -27.2929 F   0  0  0  0  0  0  0  0  0  0  0  0
   -8.2918    0.4972  -25.3907 C   0  0  0  0  0  0  0  0  0  0  0  0
   -8.0526   -0.6200  -24.5857 C   0  0  0  0  0  0  0  0  0  0  0  0
  -11.4970    1.7924  -23.3209 C   0  0  0  0  0  0  0  0  0  0  0  0
  -12.6834    1.7659  -22.5826 C   0  0  0  0  0  0  0  0  0  0  0  0
  -13.4837    2.8447  -22.4769 N   0  0  0  0  0  0  0  0  0  0  0  0
  -13.1862    4.0081  -23.0757 C   0  0  0  0  0  0  0  0  0  0  0  0
  -12.0327    4.1086  -23.8204 C   0  0  0  0  0  0  0  0  0  0  0  0
  -11.7374    5.3045  -24.4324 C   0  0  0  0  0  0  0  0  0  0  0  0
  -10.5869    5.4351  -25.1894 C   0  0  0  0  0  0  0  0  0  0  0  0
   -9.7773    4.3398  -25.2953 C   0  0  0  0  0  0  0  0  0  0  0  0
  -10.0714    3.1554  -24.6882 C   0  0  0  0  0  0  0  0  0  0  0  0
  -11.2053    2.9914  -23.9292 C   0  0  0  0  0  0  0  0  0  0  0  0
   -7.6048   -4.1424  -22.4939 C   0  0  0  0  0  0  0  0  0  0  0  0
   -7.9149   -5.1047  -23.5848 C   0  0  0  0  0  0  0  0  0  0  0  0
   -7.2335   -6.1675  -23.7637 O   0  0  0  0  0  0  0  0  0  0  0  0
   -9.0242   -4.7790  -24.4324 N   0  0  0  0  0  0  0  0  0  0  0  0
   -9.5424   -3.9553  -24.2838 H   0  0  0  0  0  0  0  0  0  0  0  0
   -9.3718   -5.6861  -25.5162 C   0  0  0  0  0  0  0  0  0  0  0  0
   -8.7498   -5.1621  -26.7784 C   0  0  0  0  0  0  0  0  0  0  0  0
   -9.7563   -4.8884  -27.8816 C   0  0  0  0  0  0  0  0  0  0  0  0
   -9.0219   -3.7615  -27.1824 C   0  0  0  0  0  0  0  0  0  0  0  0
  2  1  1  0  0  0
  2  3  1  0  0  0
  3  4  1  0  0  0
  4 19  1  0  0  0
  4  5  1  0  0  0
 19 20  2  0  0  0
 20 21  1  0  0  0
 21 22  2  0  0  0
 22 23  1  0  0  0
 23 24  2  0  0  0
 24 25  1  0  0  0
 25 26  2  0  0  0
 26 27  1  0  0  0
 27 28  2  0  0  0
 28 19  1  0  0  0
 28 23  1  0  0  0
  5  6  2  0  0  0
  7  5  1  0  0  0
  7  8  1  0  0  0
  7  2  1  0  0  0
  8  9  1  0  0  0
  9 29  1  0  0  0
  9 10  1  0  0  0
 29 30  1  0  0  0
 30 31  2  0  0  0
 30 32  1  0  0  0
 32 34  1  0  0  0
 32 33  1  0  0  0
 34 35  1  0  0  0
 35 36  1  0  0  0
 36 37  1  0  0  0
 37 35  1  0  0  0
 10 11  2  0  0  0
 10 12  1  0  0  0
 12 13  2  0  0  0
 13 14  1  0  0  0
 14 15  2  0  0  0
 15 16  1  0  0  0
 15 17  1  0  0  0
 17 18  2  0  0  0
 18 12  1  0  0  0
 18  7  1  0  0  0
M  END
> <minimizedAffinity>
-6.57390

> <CNNscore>
0.2235699296

> <CNNaffinity>
5.9914155006

> <CNN_VS>
1.3395003080

> <CNNaffinity_variance>
0.1675908864

$$$$



 37 42  0  0  0  0  0  0  0  0999 V2000
   -6.5246    1.1329  -22.8640 C   0  0  0  0  0  0  0  0  0  0  0  0
   -7.9151    0.6425  -22.6426 C   0  0  0  0  0  0  0  0  0  0  0  0
   -8.8135    1.8473  -22.5849 C   0  0  0  0  0  0  0  0  0  0  0  0
   -9.0747    2.1648  -23.9663 N   0  0  0  0  0  0  0  0  0  0  0  0
   -8.7827    1.0219  -24.7551 C   0  0  0  0  0  0  0  0  0  0  0  0
   -8.8261    0.9930  -26.0058 O   0  0  0  0  0  0  0  0  0  0  0  0
   -8.4276   -0.0977  -23.8520 C   0  0  0  0  0  0  0  0  0  0  0  0
   -7.4357   -1.0398  -24.4313 C   0  0  0  0  0  0  0  0  0  0  0  0
   -7.2452   -2.1596  -23.5357 N   0  0  0  0  0  0  0  0  0  0  0  0
   -8.4041   -2.9111  -23.1592 C   0  0  0  0  0  0  0  0  0  0  0  0
   -8.3231   -4.1408  -22.8312 O   0  0  0  0  0  0  0  0  0  0  0  0
   -9.6710   -2.1914  -23.1730 C   0  0  0  0  0  0  0  0  0  0  0  0
  -10.8021   -2.9006  -22.8539 C   0  0  0  0  0  0  0  0  0  0  0  0
  -12.0304   -2.2736  -22.8901 C   0  0  0  0  0  0  0  0  0  0  0  0
  -12.0827   -0.9432  -23.2491 C   0  0  0  0  0  0  0  0  0  0  0  0
  -13.2898   -0.3175  -23.2881 F   0  0  0  0  0  0  0  0  0  0  0  0
  -10.9307   -0.2555  -23.5642 C   0  0  0  0  0  0  0  0  0  0  0  0
   -9.6716   -0.8614  -23.5361 C   0  0  0  0  0  0  0  0  0  0  0  0
   -9.5656    3.4469  -24.3790 C   0  0  0  0  0  0  0  0  0  0  0  0
   -8.6983    4.4581  -24.8016 C   0  0  0  0  0  0  0  0  0  0  0  0
   -9.1464    5.6687  -25.1880 N   0  0  0  0  0  0  0  0  0  0  0  0
  -10.4534    5.9726  -25.1889 C   0  0  0  0  0  0  0  0  0  0  0  0
  -11.3670    5.0253  -24.7846 C   0  0  0  0  0  0  0  0  0  0  0  0
  -12.7044    5.3468  -24.7867 C   0  0  0  0  0  0  0  0  0  0  0  0
  -13.6458    4.4168  -24.3834 C   0  0  0  0  0  0  0  0  0  0  0  0
  -13.1890    3.1903  -23.9918 C   0  0  0  0  0  0  0  0  0  0  0  0
  -11.8634    2.8733  -23.9903 C   0  0  0  0  0  0  0  0  0  0  0  0
  -10.9021    3.7729  -24.3849 C   0  0  0  0  0  0  0  0  0  0  0  0
   -5.9564   -2.5674  -23.0158 C   0  0  0  0  0  0  0  0  0  0  0  0
   -5.9678   -2.5903  -21.5287 C   0  0  0  0  0  0  0  0  0  0  0  0
   -5.3771   -3.5021  -20.8614 O   0  0  0  0  0  0  0  0  0  0  0  0
   -6.6795   -1.5311  -20.8755 N   0  0  0  0  0  0  0  0  0  0  0  0
   -7.1316   -0.8329  -21.4023 H   0  0  0  0  0  0  0  0  0  0  0  0
   -6.7229   -1.5048  -19.4210 C   0  0  0  0  0  0  0  0  0  0  0  0
   -6.2685   -0.1477  -18.9669 C   0  0  0  0  0  0  0  0  0  0  0  0
   -5.1459   -0.1948  -17.9457 C   0  0  0  0  0  0  0  0  0  0  0  0
   -4.9152    0.3201  -19.3528 C   0  0  0  0  0  0  0  0  0  0  0  0
  2  1  1  0  0  0
  2  3  1  0  0  0
  3  4  1  0  0  0
  4 19  1  0  0  0
  4  5  1  0  0  0
 19 20  2  0  0  0
 20 21  1  0  0  0
 21 22  2  0  0  0
 22 23  1  0  0  0
 23 24  2  0  0  0
 24 25  1  0  0  0
 25 26  2  0  0  0
 26 27  1  0  0  0
 27 28  2  0  0  0
 28 19  1  0  0  0
 28 23  1  0  0  0
  5  6  2  0  0  0
  7  5  1  0  0  0
  7  8  1  0  0  0
  7  2  1  0  0  0
  8  9  1  0  0  0
  9 29  1  0  0  0
  9 10  1  0  0  0
 29 30  1  0  0  0
 30 31  2  0  0  0
 30 32  1  0  0  0
 32 34  1  0  0  0
 32 33  1  0  0  0
 34 35  1  0  0  0
 35 36  1  0  0  0
 36 37  1  0  0  0
 37 35  1  0  0  0
 10 11  2  0  0  0
 10 12  1  0  0  0
 12 13  2  0  0  0
 13 14  1  0  0  0
 14 15  2  0  0  0
 15 16  1  0  0  0
 15 17  1  0  0  0
 17 18  2  0  0  0
 18 12  1  0  0  0
 18  7  1  0  0  0
M  END
> <minimizedAffinity>
-8.37046

> <CNNscore>
0.2216902673

> <CNNaffinity>
6.1645541191

> <CNN_VS>
1.3666216135

> <CNNaffinity_variance>
0.2143074572

$$$$



 37 42  0  0  0  0  0  0  0  0999 V2000
   -6.5220    0.7026  -23.0656 C   0  0  0  0  0  0  0  0  0  0  0  0
   -7.9101    0.2340  -22.7888 C   0  0  0  0  0  0  0  0  0  0  0  0
   -8.7420    1.4484  -22.4802 C   0  0  0  0  0  0  0  0  0  0  0  0
   -9.1053    1.9708  -23.7735 N   0  0  0  0  0  0  0  0  0  0  0  0
   -8.9366    0.9442  -24.7386 C   0  0  0  0  0  0  0  0  0  0  0  0
   -9.0884    1.0975  -25.9716 O   0  0  0  0  0  0  0  0  0  0  0  0
   -8.5589   -0.3057  -24.0382 C   0  0  0  0  0  0  0  0  0  0  0  0
   -7.6662   -1.1883  -24.8326 C   0  0  0  0  0  0  0  0  0  0  0  0
   -7.4530   -2.4315  -24.1246 N   0  0  0  0  0  0  0  0  0  0  0  0
   -8.6097   -3.1887  -23.7529 C   0  0  0  0  0  0  0  0  0  0  0  0
   -8.5594   -4.4550  -23.6098 O   0  0  0  0  0  0  0  0  0  0  0  0
   -9.8376   -2.4309  -23.5493 C   0  0  0  0  0  0  0  0  0  0  0  0
  -10.9695   -3.1391  -23.2307 C   0  0  0  0  0  0  0  0  0  0  0  0
  -12.1653   -2.4711  -23.0657 C   0  0  0  0  0  0  0  0  0  0  0  0
  -12.1849   -1.1018  -23.2279 C   0  0  0  0  0  0  0  0  0  0  0  0
  -13.3598   -0.4355  -23.0677 F   0  0  0  0  0  0  0  0  0  0  0  0
  -11.0328   -0.4163  -23.5473 C   0  0  0  0  0  0  0  0  0  0  0  0
   -9.8062   -1.0633  -23.7201 C   0  0  0  0  0  0  0  0  0  0  0  0
   -9.5684    3.3153  -23.9551 C   0  0  0  0  0  0  0  0  0  0  0  0
   -8.6756    4.3780  -24.1191 C   0  0  0  0  0  0  0  0  0  0  0  0
   -9.0976    5.6466  -24.2864 N   0  0  0  0  0  0  0  0  0  0  0  0
  -10.4017    5.9622  -24.3051 C   0  0  0  0  0  0  0  0  0  0  0  0
  -11.3395    4.9665  -24.1494 C   0  0  0  0  0  0  0  0  0  0  0  0
  -12.6738    5.2999  -24.1676 C   0  0  0  0  0  0  0  0  0  0  0  0
  -13.6394    4.3216  -24.0110 C   0  0  0  0  0  0  0  0  0  0  0  0
  -13.2090    3.0363  -23.8411 C   0  0  0  0  0  0  0  0  0  0  0  0
  -11.8864    2.7074  -23.8233 C   0  0  0  0  0  0  0  0  0  0  0  0
  -10.9016    3.6539  -23.9762 C   0  0  0  0  0  0  0  0  0  0  0  0
   -6.1452   -2.9545  -23.7875 C   0  0  0  0  0  0  0  0  0  0  0  0
   -5.4742   -3.5187  -24.9890 C   0  0  0  0  0  0  0  0  0  0  0  0
   -5.3120   -2.8388  -26.0554 O   0  0  0  0  0  0  0  0  0  0  0  0
   -5.0147   -4.8730  -24.8915 N   0  0  0  0  0  0  0  0  0  0  0  0
   -5.1460   -5.3874  -24.0624 H   0  0  0  0  0  0  0  0  0  0  0  0
   -4.3509   -5.4753  -26.0382 C   0  0  0  0  0  0  0  0  0  0  0  0
   -5.3864   -6.2046  -26.8446 C   0  0  0  0  0  0  0  0  0  0  0  0
   -5.2723   -7.7158  -26.7529 C   0  0  0  0  0  0  0  0  0  0  0  0
   -6.4382   -6.9708  -26.1334 C   0  0  0  0  0  0  0  0  0  0  0  0
  2  1  1  0  0  0
  2  3  1  0  0  0
  3  4  1  0  0  0
  4 19  1  0  0  0
  4  5  1  0  0  0
 19 20  2  0  0  0
 20 21  1  0  0  0
 21 22  2  0  0  0
 22 23  1  0  0  0
 23 24  2  0  0  0
 24 25  1  0  0  0
 25 26  2  0  0  0
 26 27  1  0  0  0
 27 28  2  0  0  0
 28 19  1  0  0  0
 28 23  1  0  0  0
  5  6  2  0  0  0
  7  5  1  0  0  0
  7  8  1  0  0  0
  7  2  1  0  0  0
  8  9  1  0  0  0
  9 29  1  0  0  0
  9 10  1  0  0  0
 29 30  1  0  0  0
 30 31  2  0  0  0
 30 32  1  0  0  0
 32 34  1  0  0  0
 32 33  1  0  0  0
 34 35  1  0  0  0
 35 36  1  0  0  0
 36 37  1  0  0  0
 37 35  1  0  0  0
 10 11  2  0  0  0
 10 12  1  0  0  0
 12 13  2  0  0  0
 13 14  1  0  0  0
 14 15  2  0  0  0
 15 16  1  0  0  0
 15 17  1  0  0  0
 17 18  2  0  0  0
 18 12  1  0  0  0
 18  7  1  0  0  0
M  END
> <minimizedAffinity>
-7.11828

> <CNNscore>
0.1875567734

> <CNNaffinity>
6.0735411644

> <CNN_VS>
1.1391338110

> <CNNaffinity_variance>
0.1061358824

$$$$



 37 42  0  0  0  0  0  0  0  0999 V2000
   -6.1345   -0.3659  -25.3272 C   0  0  0  0  0  0  0  0  0  0  0  0
   -7.6161   -0.4558  -25.1875 C   0  0  0  0  0  0  0  0  0  0  0  0
   -8.0019   -1.8937  -25.4005 C   0  0  0  0  0  0  0  0  0  0  0  0
   -7.7770   -2.5175  -24.1207 N   0  0  0  0  0  0  0  0  0  0  0  0
   -7.7311   -1.5053  -23.1272 C   0  0  0  0  0  0  0  0  0  0  0  0
   -7.4684   -1.7073  -21.9201 O   0  0  0  0  0  0  0  0  0  0  0  0
   -8.0423   -0.2039  -23.7634 C   0  0  0  0  0  0  0  0  0  0  0  0
   -7.3474    0.9489  -23.1346 C   0  0  0  0  0  0  0  0  0  0  0  0
   -7.8047    2.1820  -23.7368 N   0  0  0  0  0  0  0  0  0  0  0  0
   -9.2115    2.4469  -23.7167 C   0  0  0  0  0  0  0  0  0  0  0  0
   -9.6652    3.6387  -23.7319 O   0  0  0  0  0  0  0  0  0  0  0  0
  -10.0859    1.2819  -23.6787 C   0  0  0  0  0  0  0  0  0  0  0  0
  -11.4380    1.5106  -23.6192 C   0  0  0  0  0  0  0  0  0  0  0  0
  -12.3057    0.4408  -23.5428 C   0  0  0  0  0  0  0  0  0  0  0  0
  -11.7820   -0.8349  -23.5281 C   0  0  0  0  0  0  0  0  0  0  0  0
  -12.6303   -1.8953  -23.4522 F   0  0  0  0  0  0  0  0  0  0  0  0
  -10.4198   -1.0350  -23.5895 C   0  0  0  0  0  0  0  0  0  0  0  0
   -9.5149    0.0271  -23.6686 C   0  0  0  0  0  0  0  0  0  0  0  0
   -7.6514   -3.9377  -23.9712 C   0  0  0  0  0  0  0  0  0  0  0  0
   -6.7659   -4.4979  -23.0463 C   0  0  0  0  0  0  0  0  0  0  0  0
   -6.6353   -5.8308  -22.8988 N   0  0  0  0  0  0  0  0  0  0  0  0
   -7.3495   -6.6977  -23.6331 C   0  0  0  0  0  0  0  0  0  0  0  0
   -8.2422   -6.2179  -24.5650 C   0  0  0  0  0  0  0  0  0  0  0  0
   -8.9681   -7.1141  -25.3145 C   0  0  0  0  0  0  0  0  0  0  0  0
   -9.8707   -6.6622  -26.2604 C   0  0  0  0  0  0  0  0  0  0  0  0
  -10.0010   -5.3104  -26.4084 C   0  0  0  0  0  0  0  0  0  0  0  0
   -9.2810   -4.4236  -25.6648 C   0  0  0  0  0  0  0  0  0  0  0  0
   -8.3764   -4.8383  -24.7168 C   0  0  0  0  0  0  0  0  0  0  0  0
   -6.9242    3.1610  -24.3397 C   0  0  0  0  0  0  0  0  0  0  0  0
   -5.5409    3.0274  -23.8097 C   0  0  0  0  0  0  0  0  0  0  0  0
   -4.5840    2.5765  -24.5216 O   0  0  0  0  0  0  0  0  0  0  0  0
   -5.3320    3.4323  -22.4505 N   0  0  0  0  0  0  0  0  0  0  0  0
   -6.0792    3.7788  -21.9113 H   0  0  0  0  0  0  0  0  0  0  0  0
   -3.9972    3.3227  -21.8808 C   0  0  0  0  0  0  0  0  0  0  0  0
   -3.9446    2.0677  -21.0582 C   0  0  0  0  0  0  0  0  0  0  0  0
   -2.6909    1.2432  -21.2901 C   0  0  0  0  0  0  0  0  0  0  0  0
   -2.9343    1.9620  -19.9777 C   0  0  0  0  0  0  0  0  0  0  0  0
  2  1  1  0  0  0
  2  3  1  0  0  0
  3  4  1  0  0  0
  4 19  1  0  0  0
  4  5  1  0  0  0
 19 20  2  0  0  0
 20 21  1  0  0  0
 21 22  2  0  0  0
 22 23  1  0  0  0
 23 24  2  0  0  0
 24 25  1  0  0  0
 25 26  2  0  0  0
 26 27  1  0  0  0
 27 28  2  0  0  0
 28 19  1  0  0  0
 28 23  1  0  0  0
  5  6  2  0  0  0
  7  5  1  0  0  0
  7  8  1  0  0  0
  7  2  1  0  0  0
  8  9  1  0  0  0
  9 29  1  0  0  0
  9 10  1  0  0  0
 29 30  1  0  0  0
 30 31  2  0  0  0
 30 32  1  0  0  0
 32 34  1  0  0  0
 32 33  1  0  0  0
 34 35  1  0  0  0
 35 36  1  0  0  0
 36 37  1  0  0  0
 37 35  1  0  0  0
 10 11  2  0  0  0
 10 12  1  0  0  0
 12 13  2  0  0  0
 13 14  1  0  0  0
 14 15  2  0  0  0
 15 16  1  0  0  0
 15 17  1  0  0  0
 17 18  2  0  0  0
 18 12  1  0  0  0
 18  7  1  0  0  0
M  END
> <minimizedAffinity>
-7.17367

> <CNNscore>
0.1693417579

> <CNNaffinity>
6.1737985611

> <CNN_VS>
1.0454819202

> <CNNaffinity_variance>
0.1227625757

$$$$



 27 31  0  0  0  0  0  0  0  0999 V2000
   -7.2305   -4.3677  -22.6837 O   0  0  0  0  0  0  0  0  0  0  0  0
   -7.4782   -3.2093  -23.1266 C   0  0  0  0  0  0  0  0  0  0  0  0
   -7.7259   -2.0164  -22.3536 N   0  0  0  0  0  0  0  0  0  0  0  0
   -8.4407   -1.1342  -23.2212 C   0  0  0  0  0  0  0  0  0  0  0  0
   -8.2580    0.3303  -22.8973 C   0  0  0  0  0  0  0  0  0  0  0  0
   -9.0314    1.1487  -23.8874 C   0  0  0  0  0  0  0  0  0  0  0  0
  -10.2345    0.5536  -24.3206 O   0  0  0  0  0  0  0  0  0  0  0  0
  -10.7849   -0.5622  -23.7021 C   0  0  0  0  0  0  0  0  0  0  0  0
  -12.1200   -0.8212  -23.6340 C   0  0  0  0  0  0  0  0  0  0  0  0
  -12.5577   -1.9626  -22.9935 C   0  0  0  0  0  0  0  0  0  0  0  0
  -11.7029   -2.8483  -22.4220 N   0  0  0  0  0  0  0  0  0  0  0  0
  -10.3801   -2.5755  -22.4990 C   0  0  0  0  0  0  0  0  0  0  0  0
   -9.8899   -1.4491  -23.1274 C   0  0  0  0  0  0  0  0  0  0  0  0
   -7.8565   -1.4618  -24.5436 C   0  0  0  0  0  0  0  0  0  0  0  0
   -7.6371   -0.7226  -25.5382 O   0  0  0  0  0  0  0  0  0  0  0  0
   -7.5619   -2.8534  -24.5019 N   0  0  0  0  0  0  0  0  0  0  0  0
   -7.4579   -1.8456  -21.4218 H   0  0  0  0  0  0  0  0  0  0  0  0
   -7.3746   -3.7699  -25.5735 C   0  0  0  0  0  0  0  0  0  0  0  0
   -6.0975   -3.7849  -26.1397 C   0  0  0  0  0  0  0  0  0  0  0  0
   -5.8507   -4.6221  -27.1512 N   0  0  0  0  0  0  0  0  0  0  0  0
   -6.8005   -5.4544  -27.6419 C   0  0  0  0  0  0  0  0  0  0  0  0
   -8.0871   -5.4574  -27.0911 C   0  0  0  0  0  0  0  0  0  0  0  0
   -9.0748   -6.3042  -27.5813 C   0  0  0  0  0  0  0  0  0  0  0  0
  -10.3341   -6.2728  -27.0052 C   0  0  0  0  0  0  0  0  0  0  0  0
  -10.5866   -5.3971  -25.9496 C   0  0  0  0  0  0  0  0  0  0  0  0
   -9.6107   -4.5555  -25.4599 C   0  0  0  0  0  0  0  0  0  0  0  0
   -8.3646   -4.6010  -26.0457 C   0  0  0  0  0  0  0  0  0  0  0  0
  1  2  2  0  0  0
  2  3  1  0  0  0
  3  4  1  0  0  0
  3 17  1  0  0  0
  4  5  1  0  0  0
  4 14  1  0  0  0
  5  6  1  0  0  0
  6  7  1  0  0  0
  7  8  1  0  0  0
  8  9  2  0  0  0
  9 10  1  0  0  0
 10 11  2  0  0  0
 11 12  1  0  0  0
 12 13  2  0  0  0
 13  4  1  0  0  0
 13  8  1  0  0  0
 14 15  2  0  0  0
 14 16  1  0  0  0
 16 18  1  0  0  0
 16  2  1  0  0  0
 18 19  2  0  0  0
 19 20  1  0  0  0
 20 21  2  0  0  0
 21 22  1  0  0  0
 22 23  2  0  0  0
 23 24  1  0  0  0
 24 25  2  0  0  0
 25 26  1  0  0  0
 26 27  2  0  0  0
 27 18  1  0  0  0
 27 22  1  0  0  0
M  END
> <minimizedAffinity>
-6.41258

> <CNNscore>
0.5456601977

> <CNNaffinity>
5.3597249985

> <CNN_VS>
2.9245886803

> <CNNaffinity_variance>
0.1882075369

$$$$



 27 31  0  0  0  0  0  0  0  0999 V2000
   -8.7219    0.7821  -21.4729 O   0  0  0  0  0  0  0  0  0  0  0  0
   -9.2667   -0.0974  -22.2004 C   0  0  0  0  0  0  0  0  0  0  0  0
   -8.9859   -1.5127  -22.2128 N   0  0  0  0  0  0  0  0  0  0  0  0
   -9.4299   -1.9843  -23.4866 C   0  0  0  0  0  0  0  0  0  0  0  0
   -9.8266   -3.4423  -23.4996 C   0  0  0  0  0  0  0  0  0  0  0  0
  -10.2956   -3.8075  -24.8762 C   0  0  0  0  0  0  0  0  0  0  0  0
   -9.6213   -3.1369  -25.9176 O   0  0  0  0  0  0  0  0  0  0  0  0
   -8.4606   -2.4021  -25.7091 C   0  0  0  0  0  0  0  0  0  0  0  0
   -7.4722   -2.2505  -26.6333 C   0  0  0  0  0  0  0  0  0  0  0  0
   -6.3596   -1.4968  -26.3191 C   0  0  0  0  0  0  0  0  0  0  0  0
   -6.2077   -0.8934  -25.1131 N   0  0  0  0  0  0  0  0  0  0  0  0
   -7.1991   -1.0544  -24.2068 C   0  0  0  0  0  0  0  0  0  0  0  0
   -8.3317   -1.7972  -24.4699 C   0  0  0  0  0  0  0  0  0  0  0  0
  -10.6011   -1.1137  -23.7466 C   0  0  0  0  0  0  0  0  0  0  0  0
  -11.6801   -1.3639  -24.3442 O   0  0  0  0  0  0  0  0  0  0  0  0
  -10.2826    0.1461  -23.1666 N   0  0  0  0  0  0  0  0  0  0  0  0
   -8.5740   -2.0434  -21.4931 H   0  0  0  0  0  0  0  0  0  0  0  0
  -10.8254    1.4315  -23.4434 C   0  0  0  0  0  0  0  0  0  0  0  0
  -11.9071    1.8150  -22.6468 C   0  0  0  0  0  0  0  0  0  0  0  0
  -12.4666    3.0108  -22.8521 N   0  0  0  0  0  0  0  0  0  0  0  0
  -12.0164    3.8593  -23.8076 C   0  0  0  0  0  0  0  0  0  0  0  0
  -10.9342    3.4972  -24.6178 C   0  0  0  0  0  0  0  0  0  0  0  0
  -10.4582    4.3545  -25.6034 C   0  0  0  0  0  0  0  0  0  0  0  0
   -9.3847    3.9541  -26.3819 C   0  0  0  0  0  0  0  0  0  0  0  0
   -8.8042    2.7050  -26.1636 C   0  0  0  0  0  0  0  0  0  0  0  0
   -9.2724    1.8512  -25.1876 C   0  0  0  0  0  0  0  0  0  0  0  0
  -10.3408    2.2670  -24.4237 C   0  0  0  0  0  0  0  0  0  0  0  0
  1  2  2  0  0  0
  2  3  1  0  0  0
  3  4  1  0  0  0
  3 17  1  0  0  0
  4  5  1  0  0  0
  4 14  1  0  0  0
  5  6  1  0  0  0
  6  7  1  0  0  0
  7  8  1  0  0  0
  8  9  2  0  0  0
  9 10  1  0  0  0
 10 11  2  0  0  0
 11 12  1  0  0  0
 12 13  2  0  0  0
 13  4  1  0  0  0
 13  8  1  0  0  0
 14 15  2  0  0  0
 14 16  1  0  0  0
 16 18  1  0  0  0
 16  2  1  0  0  0
 18 19  2  0  0  0
 19 20  1  0  0  0
 20 21  2  0  0  0
 21 22  1  0  0  0
 22 23  2  0  0  0
 23 24  1  0  0  0
 24 25  2  0  0  0
 25 26  1  0  0  0
 26 27  2  0  0  0
 27 18  1  0  0  0
 27 22  1  0  0  0
M  END
> <minimizedAffinity>
-6.70304

> <CNNscore>
0.5102953911

> <CNNaffinity>
5.0802907944

> <CNN_VS>
2.5924489498

> <CNNaffinity_variance>
0.2756290138

$$$$



 27 31  0  0  0  0  0  0  0  0999 V2000
   -5.3308   -3.8468  -21.1864 O   0  0  0  0  0  0  0  0  0  0  0  0
   -6.3721   -3.2668  -21.6092 C   0  0  0  0  0  0  0  0  0  0  0  0
   -7.3147   -3.7685  -22.5796 N   0  0  0  0  0  0  0  0  0  0  0  0
   -7.9823   -2.6179  -23.1016 C   0  0  0  0  0  0  0  0  0  0  0  0
   -9.3755   -2.8951  -23.6169 C   0  0  0  0  0  0  0  0  0  0  0  0
   -9.9766   -1.6131  -24.1104 C   0  0  0  0  0  0  0  0  0  0  0  0
   -9.0517   -0.7252  -24.6982 O   0  0  0  0  0  0  0  0  0  0  0  0
   -7.7547   -1.1009  -25.0254 C   0  0  0  0  0  0  0  0  0  0  0  0
   -7.0434   -0.5792  -26.0626 C   0  0  0  0  0  0  0  0  0  0  0  0
   -5.7591   -1.0267  -26.2975 C   0  0  0  0  0  0  0  0  0  0  0  0
   -5.1686   -1.9764  -25.5285 N   0  0  0  0  0  0  0  0  0  0  0  0
   -5.8894   -2.4838  -24.5024 C   0  0  0  0  0  0  0  0  0  0  0  0
   -7.1766   -2.0716  -24.2243 C   0  0  0  0  0  0  0  0  0  0  0  0
   -8.0218   -1.7223  -21.9212 C   0  0  0  0  0  0  0  0  0  0  0  0
   -8.8936   -0.8868  -21.5666 O   0  0  0  0  0  0  0  0  0  0  0  0
   -6.8227   -1.9806  -21.1998 N   0  0  0  0  0  0  0  0  0  0  0  0
   -7.4665   -4.7084  -22.8301 H   0  0  0  0  0  0  0  0  0  0  0  0
   -6.1489   -1.1680  -20.2464 C   0  0  0  0  0  0  0  0  0  0  0  0
   -6.6236   -1.2548  -18.9353 C   0  0  0  0  0  0  0  0  0  0  0  0
   -6.0368   -0.5184  -17.9874 N   0  0  0  0  0  0  0  0  0  0  0  0
   -4.9979    0.3074  -18.2604 C   0  0  0  0  0  0  0  0  0  0  0  0
   -4.5050    0.4111  -19.5661 C   0  0  0  0  0  0  0  0  0  0  0  0
   -3.4400    1.2530  -19.8655 C   0  0  0  0  0  0  0  0  0  0  0  0
   -2.9853    1.3237  -21.1720 C   0  0  0  0  0  0  0  0  0  0  0  0
   -3.6012    0.5531  -22.1578 C   0  0  0  0  0  0  0  0  0  0  0  0
   -4.6576   -0.2833  -21.8661 C   0  0  0  0  0  0  0  0  0  0  0  0
   -5.0956   -0.3401  -20.5612 C   0  0  0  0  0  0  0  0  0  0  0  0
  1  2  2  0  0  0
  2  3  1  0  0  0
  3  4  1  0  0  0
  3 17  1  0  0  0
  4  5  1  0  0  0
  4 14  1  0  0  0
  5  6  1  0  0  0
  6  7  1  0  0  0
  7  8  1  0  0  0
  8  9  2  0  0  0
  9 10  1  0  0  0
 10 11  2  0  0  0
 11 12  1  0  0  0
 12 13  2  0  0  0
 13  4  1  0  0  0
 13  8  1  0  0  0
 14 15  2  0  0  0
 14 16  1  0  0  0
 16 18  1  0  0  0
 16  2  1  0  0  0
 18 19  2  0  0  0
 19 20  1  0  0  0
 20 21  2  0  0  0
 21 22  1  0  0  0
 22 23  2  0  0  0
 23 24  1  0  0  0
 24 25  2  0  0  0
 25 26  1  0  0  0
 26 27  2  0  0  0
 27 18  1  0  0  0
 27 22  1  0  0  0
M  END
> <minimizedAffinity>
-7.57003

> <CNNscore>
0.4907192886

> <CNNaffinity>
5.2740244865

> <CNN_VS>
2.5880656242

> <CNNaffinity_variance>
0.1334437430

$$$$



 27 31  0  0  0  0  0  0  0  0999 V2000
   -8.1174   -4.9470  -23.0896 O   0  0  0  0  0  0  0  0  0  0  0  0
   -8.2279   -3.7645  -23.5243 C   0  0  0  0  0  0  0  0  0  0  0  0
   -8.1846   -2.5459  -22.7528 N   0  0  0  0  0  0  0  0  0  0  0  0
   -8.8489   -1.5611  -23.5471 C   0  0  0  0  0  0  0  0  0  0  0  0
   -8.3952   -0.1449  -23.2788 C   0  0  0  0  0  0  0  0  0  0  0  0
   -9.1420    0.7863  -24.1863 C   0  0  0  0  0  0  0  0  0  0  0  0
  -10.4687    0.3932  -24.4592 O   0  0  0  0  0  0  0  0  0  0  0  0
  -11.1117   -0.6176  -23.7554 C   0  0  0  0  0  0  0  0  0  0  0  0
  -12.4526   -0.6567  -23.5220 C   0  0  0  0  0  0  0  0  0  0  0  0
  -12.9867   -1.7110  -22.8093 C   0  0  0  0  0  0  0  0  0  0  0  0
  -12.2220   -2.7225  -22.3257 N   0  0  0  0  0  0  0  0  0  0  0  0
  -10.8919   -2.6679  -22.5667 C   0  0  0  0  0  0  0  0  0  0  0  0
  -10.3074   -1.6368  -23.2733 C   0  0  0  0  0  0  0  0  0  0  0  0
   -8.4904   -1.9813  -24.9227 C   0  0  0  0  0  0  0  0  0  0  0  0
   -8.2780   -1.2891  -25.9520 O   0  0  0  0  0  0  0  0  0  0  0  0
   -8.4203   -3.4021  -24.8869 N   0  0  0  0  0  0  0  0  0  0  0  0
   -7.7812   -2.4192  -21.8638 H   0  0  0  0  0  0  0  0  0  0  0  0
   -8.5146   -4.3386  -25.9533 C   0  0  0  0  0  0  0  0  0  0  0  0
   -9.8063   -4.7678  -26.2683 C   0  0  0  0  0  0  0  0  0  0  0  0
   -9.9691   -5.6480  -27.2602 N   0  0  0  0  0  0  0  0  0  0  0  0
   -8.9206   -6.1346  -27.9671 C   0  0  0  0  0  0  0  0  0  0  0  0
   -7.6175   -5.7194  -27.6700 C   0  0  0  0  0  0  0  0  0  0  0  0
   -6.5293   -6.2076  -28.3843 C   0  0  0  0  0  0  0  0  0  0  0  0
   -5.2573   -5.7687  -28.0553 C   0  0  0  0  0  0  0  0  0  0  0  0
   -5.0928   -4.8499  -27.0192 C   0  0  0  0  0  0  0  0  0  0  0  0
   -6.1686   -4.3627  -26.3078 C   0  0  0  0  0  0  0  0  0  0  0  0
   -7.4257   -4.8111  -26.6496 C   0  0  0  0  0  0  0  0  0  0  0  0
  1  2  2  0  0  0
  2  3  1  0  0  0
  3  4  1  0  0  0
  3 17  1  0  0  0
  4  5  1  0  0  0
  4 14  1  0  0  0
  5  6  1  0  0  0
  6  7  1  0  0  0
  7  8  1  0  0  0
  8  9  2  0  0  0
  9 10  1  0  0  0
 10 11  2  0  0  0
 11 12  1  0  0  0
 12 13  2  0  0  0
 13  4  1  0  0  0
 13  8  1  0  0  0
 14 15  2  0  0  0
 14 16  1  0  0  0
 16 18  1  0  0  0
 16  2  1  0  0  0
 18 19  2  0  0  0
 19 20  1  0  0  0
 20 21  2  0  0  0
 21 22  1  0  0  0
 22 23  2  0  0  0
 23 24  1  0  0  0
 24 25  2  0  0  0
 25 26  1  0  0  0
 26 27  2  0  0  0
 27 18  1  0  0  0
 27 22  1  0  0  0
M  END
> <minimizedAffinity>
-6.77358

> <CNNscore>
0.4253781736

> <CNNaffinity>
5.3355550766

> <CNN_VS>
2.2696287632

> <CNNaffinity_variance>
0.3120021224

$$$$



 27 31  0  0  0  0  0  0  0  0999 V2000
   -8.5587    1.1761  -21.7605 O   0  0  0  0  0  0  0  0  0  0  0  0
   -9.2732    0.3120  -22.3455 C   0  0  0  0  0  0  0  0  0  0  0  0
   -9.3275   -1.1034  -22.0703 N   0  0  0  0  0  0  0  0  0  0  0  0
   -9.8355   -1.7099  -23.2603 C   0  0  0  0  0  0  0  0  0  0  0  0
  -10.5584   -3.0159  -23.0257 C   0  0  0  0  0  0  0  0  0  0  0  0
  -11.0634   -3.5360  -24.3382 C   0  0  0  0  0  0  0  0  0  0  0  0
  -10.2254   -3.2542  -25.4371 O   0  0  0  0  0  0  0  0  0  0  0  0
   -8.9319   -2.7688  -25.2892 C   0  0  0  0  0  0  0  0  0  0  0  0
   -7.9117   -3.0283  -26.1527 C   0  0  0  0  0  0  0  0  0  0  0  0
   -6.6633   -2.4931  -25.9083 C   0  0  0  0  0  0  0  0  0  0  0  0
   -6.4071   -1.7094  -24.8303 N   0  0  0  0  0  0  0  0  0  0  0  0
   -7.4320   -1.4617  -23.9828 C   0  0  0  0  0  0  0  0  0  0  0  0
   -8.6987   -1.9719  -24.1807 C   0  0  0  0  0  0  0  0  0  0  0  0
  -10.7661   -0.6714  -23.7627 C   0  0  0  0  0  0  0  0  0  0  0  0
  -11.8578   -0.7904  -24.3775 O   0  0  0  0  0  0  0  0  0  0  0  0
  -10.1797    0.5763  -23.4101 N   0  0  0  0  0  0  0  0  0  0  0  0
   -9.0685   -1.5571  -21.2359 H   0  0  0  0  0  0  0  0  0  0  0  0
  -10.4028    1.8679  -23.9627 C   0  0  0  0  0  0  0  0  0  0  0  0
   -9.5666    2.2241  -25.0237 C   0  0  0  0  0  0  0  0  0  0  0  0
   -9.7206    3.4239  -25.5909 N   0  0  0  0  0  0  0  0  0  0  0  0
  -10.6615    4.3023  -25.1680 C   0  0  0  0  0  0  0  0  0  0  0  0
  -11.5107    3.9680  -24.1069 C   0  0  0  0  0  0  0  0  0  0  0  0
  -12.4820    4.8561  -23.6590 C   0  0  0  0  0  0  0  0  0  0  0  0
  -13.3002    4.4827  -22.6056 C   0  0  0  0  0  0  0  0  0  0  0  0
  -13.1356    3.2292  -22.0169 C   0  0  0  0  0  0  0  0  0  0  0  0
  -12.1740    2.3448  -22.4574 C   0  0  0  0  0  0  0  0  0  0  0  0
  -11.3698    2.7342  -23.5060 C   0  0  0  0  0  0  0  0  0  0  0  0
  1  2  2  0  0  0
  2  3  1  0  0  0
  3  4  1  0  0  0
  3 17  1  0  0  0
  4  5  1  0  0  0
  4 14  1  0  0  0
  5  6  1  0  0  0
  6  7  1  0  0  0
  7  8  1  0  0  0
  8  9  2  0  0  0
  9 10  1  0  0  0
 10 11  2  0  0  0
 11 12  1  0  0  0
 12 13  2  0  0  0
 13  4  1  0  0  0
 13  8  1  0  0  0
 14 15  2  0  0  0
 14 16  1  0  0  0
 16 18  1  0  0  0
 16  2  1  0  0  0
 18 19  2  0  0  0
 19 20  1  0  0  0
 20 21  2  0  0  0
 21 22  1  0  0  0
 22 23  2  0  0  0
 23 24  1  0  0  0
 24 25  2  0  0  0
 25 26  1  0  0  0
 26 27  2  0  0  0
 27 18  1  0  0  0
 27 22  1  0  0  0
M  END
> <minimizedAffinity>
-7.67376

> <CNNscore>
0.4073068202

> <CNNaffinity>
5.0075025558

> <CNN_VS>
2.0395898819

> <CNNaffinity_variance>
0.2158652842

$$$$



 27 31  0  0  0  0  0  0  0  0999 V2000
   -8.1296   -3.6635  -22.3723 O   0  0  0  0  0  0  0  0  0  0  0  0
   -8.5775   -3.9808  -23.5117 C   0  0  0  0  0  0  0  0  0  0  0  0
   -8.7511   -5.3127  -24.0388 N   0  0  0  0  0  0  0  0  0  0  0  0
   -8.7738   -5.1667  -25.4601 C   0  0  0  0  0  0  0  0  0  0  0  0
   -9.5483   -6.2475  -26.1780 C   0  0  0  0  0  0  0  0  0  0  0  0
   -9.5203   -5.9702  -27.6514 C   0  0  0  0  0  0  0  0  0  0  0  0
   -8.3225   -5.3839  -28.1104 O   0  0  0  0  0  0  0  0  0  0  0  0
   -7.1774   -5.3050  -27.3273 C   0  0  0  0  0  0  0  0  0  0  0  0
   -5.9081   -5.3315  -27.8194 C   0  0  0  0  0  0  0  0  0  0  0  0
   -4.8410   -5.2461  -26.9484 C   0  0  0  0  0  0  0  0  0  0  0  0
   -5.0060   -5.1354  -25.6059 N   0  0  0  0  0  0  0  0  0  0  0  0
   -6.2736   -5.1105  -25.1341 C   0  0  0  0  0  0  0  0  0  0  0  0
   -7.3751   -5.1927  -25.9612 C   0  0  0  0  0  0  0  0  0  0  0  0
   -9.4284   -3.8470  -25.6242 C   0  0  0  0  0  0  0  0  0  0  0  0
  -10.2039   -3.4335  -26.5250 O   0  0  0  0  0  0  0  0  0  0  0  0
   -9.0051   -3.0648  -24.5133 N   0  0  0  0  0  0  0  0  0  0  0  0
   -8.8364   -6.1486  -23.5257 H   0  0  0  0  0  0  0  0  0  0  0  0
   -8.9835   -1.6509  -24.3596 C   0  0  0  0  0  0  0  0  0  0  0  0
   -7.7571   -1.0336  -24.6177 C   0  0  0  0  0  0  0  0  0  0  0  0
   -7.6646    0.2934  -24.4927 N   0  0  0  0  0  0  0  0  0  0  0  0
   -8.7227    1.0551  -24.1240 C   0  0  0  0  0  0  0  0  0  0  0  0
   -9.9614    0.4593  -23.8602 C   0  0  0  0  0  0  0  0  0  0  0  0
  -11.0584    1.2243  -23.4807 C   0  0  0  0  0  0  0  0  0  0  0  0
  -12.2649    0.5917  -23.2296 C   0  0  0  0  0  0  0  0  0  0  0  0
  -12.3563   -0.7936  -23.3615 C   0  0  0  0  0  0  0  0  0  0  0  0
  -11.2714   -1.5567  -23.7375 C   0  0  0  0  0  0  0  0  0  0  0  0
  -10.0801   -0.9097  -23.9829 C   0  0  0  0  0  0  0  0  0  0  0  0
  1  2  2  0  0  0
  2  3  1  0  0  0
  3  4  1  0  0  0
  3 17  1  0  0  0
  4  5  1  0  0  0
  4 14  1  0  0  0
  5  6  1  0  0  0
  6  7  1  0  0  0
  7  8  1  0  0  0
  8  9  2  0  0  0
  9 10  1  0  0  0
 10 11  2  0  0  0
 11 12  1  0  0  0
 12 13  2  0  0  0
 13  4  1  0  0  0
 13  8  1  0  0  0
 14 15  2  0  0  0
 14 16  1  0  0  0
 16 18  1  0  0  0
 16  2  1  0  0  0
 18 19  2  0  0  0
 19 20  1  0  0  0
 20 21  2  0  0  0
 21 22  1  0  0  0
 22 23  2  0  0  0
 23 24  1  0  0  0
 24 25  2  0  0  0
 25 26  1  0  0  0
 26 27  2  0  0  0
 27 18  1  0  0  0
 27 22  1  0  0  0
M  END
> <minimizedAffinity>
-6.84640

> <CNNscore>
0.2994703352

> <CNNaffinity>
5.1684641838

> <CNN_VS>
1.5478017330

> <CNNaffinity_variance>
0.1103939265

$$$$



 27 31  0  0  0  0  0  0  0  0999 V2000
   -8.5372   -1.2597  -21.3259 O   0  0  0  0  0  0  0  0  0  0  0  0
   -8.1852   -1.5731  -22.4995 C   0  0  0  0  0  0  0  0  0  0  0  0
   -7.3162   -2.6578  -22.8872 N   0  0  0  0  0  0  0  0  0  0  0  0
   -6.8142   -2.3090  -24.1788 C   0  0  0  0  0  0  0  0  0  0  0  0
   -6.4293   -3.4958  -25.0312 C   0  0  0  0  0  0  0  0  0  0  0  0
   -5.9454   -3.0033  -26.3623 C   0  0  0  0  0  0  0  0  0  0  0  0
   -5.2512   -1.7767  -26.3115 O   0  0  0  0  0  0  0  0  0  0  0  0
   -4.8276   -1.2030  -25.1191 C   0  0  0  0  0  0  0  0  0  0  0  0
   -3.7163   -0.4262  -24.9936 C   0  0  0  0  0  0  0  0  0  0  0  0
   -3.3883    0.0939  -23.7581 C   0  0  0  0  0  0  0  0  0  0  0  0
   -4.1359   -0.1393  -22.6498 N   0  0  0  0  0  0  0  0  0  0  0  0
   -5.2365   -0.9130  -22.7923 C   0  0  0  0  0  0  0  0  0  0  0  0
   -5.6091   -1.4574  -24.0043 C   0  0  0  0  0  0  0  0  0  0  0  0
   -7.9626   -1.5816  -24.7699 C   0  0  0  0  0  0  0  0  0  0  0  0
   -8.3615   -1.5289  -25.9623 O   0  0  0  0  0  0  0  0  0  0  0  0
   -8.5875   -0.9011  -23.6876 N   0  0  0  0  0  0  0  0  0  0  0  0
   -7.1117   -3.4698  -22.3694 H   0  0  0  0  0  0  0  0  0  0  0  0
   -9.4519    0.2284  -23.7087 C   0  0  0  0  0  0  0  0  0  0  0  0
   -8.8226    1.4686  -23.8416 C   0  0  0  0  0  0  0  0  0  0  0  0
   -9.5740    2.5730  -23.8688 N   0  0  0  0  0  0  0  0  0  0  0  0
  -10.9245    2.5247  -23.7715 C   0  0  0  0  0  0  0  0  0  0  0  0
  -11.5774    1.2940  -23.6377 C   0  0  0  0  0  0  0  0  0  0  0  0
  -12.9622    1.2245  -23.5365 C   0  0  0  0  0  0  0  0  0  0  0  0
  -13.5655   -0.0155  -23.4053 C   0  0  0  0  0  0  0  0  0  0  0  0
  -12.7767   -1.1653  -23.3775 C   0  0  0  0  0  0  0  0  0  0  0  0
  -11.4032   -1.1017  -23.4776 C   0  0  0  0  0  0  0  0  0  0  0  0
  -10.8215    0.1404  -23.6073 C   0  0  0  0  0  0  0  0  0  0  0  0
  1  2  2  0  0  0
  2  3  1  0  0  0
  3  4  1  0  0  0
  3 17  1  0  0  0
  4  5  1  0  0  0
  4 14  1  0  0  0
  5  6  1  0  0  0
  6  7  1  0  0  0
  7  8  1  0  0  0
  8  9  2  0  0  0
  9 10  1  0  0  0
 10 11  2  0  0  0
 11 12  1  0  0  0
 12 13  2  0  0  0
 13  4  1  0  0  0
 13  8  1  0  0  0
 14 15  2  0  0  0
 14 16  1  0  0  0
 16 18  1  0  0  0
 16  2  1  0  0  0
 18 19  2  0  0  0
 19 20  1  0  0  0
 20 21  2  0  0  0
 21 22  1  0  0  0
 22 23  2  0  0  0
 23 24  1  0  0  0
 24 25  2  0  0  0
 25 26  1  0  0  0
 26 27  2  0  0  0
 27 18  1  0  0  0
 27 22  1  0  0  0
M  END
> <minimizedAffinity>
-6.31514

> <CNNscore>
0.2877161503

> <CNNaffinity>
5.1946029663

> <CNN_VS>
1.4945712090

> <CNNaffinity_variance>
0.2636943758

$$$$



 27 31  0  0  0  0  0  0  0  0999 V2000
   -8.5176   -0.9889  -25.5518 O   0  0  0  0  0  0  0  0  0  0  0  0
   -8.0223   -0.8536  -24.3961 C   0  0  0  0  0  0  0  0  0  0  0  0
   -6.6271   -0.7065  -24.0586 N   0  0  0  0  0  0  0  0  0  0  0  0
   -6.5160   -1.1025  -22.6901 C   0  0  0  0  0  0  0  0  0  0  0  0
   -5.3620   -0.4610  -21.9551 C   0  0  0  0  0  0  0  0  0  0  0  0
   -5.3681   -0.9329  -20.5318 C   0  0  0  0  0  0  0  0  0  0  0  0
   -5.8043   -2.2633  -20.3618 O   0  0  0  0  0  0  0  0  0  0  0  0
   -5.9680   -3.1412  -21.4263 C   0  0  0  0  0  0  0  0  0  0  0  0
   -5.7927   -4.4889  -21.3432 C   0  0  0  0  0  0  0  0  0  0  0  0
   -5.9823   -5.2682  -22.4664 C   0  0  0  0  0  0  0  0  0  0  0  0
   -6.3405   -4.7409  -23.6645 N   0  0  0  0  0  0  0  0  0  0  0  0
   -6.5104   -3.4004  -23.7293 C   0  0  0  0  0  0  0  0  0  0  0  0
   -6.3335   -2.5762  -22.6368 C   0  0  0  0  0  0  0  0  0  0  0  0
   -7.8144   -0.6543  -22.1330 C   0  0  0  0  0  0  0  0  0  0  0  0
   -8.0958   -0.2107  -20.9893 O   0  0  0  0  0  0  0  0  0  0  0  0
   -8.7625   -0.8199  -23.1811 N   0  0  0  0  0  0  0  0  0  0  0  0
   -5.9022   -0.3975  -24.6488 H   0  0  0  0  0  0  0  0  0  0  0  0
  -10.1784   -0.9359  -23.1089 C   0  0  0  0  0  0  0  0  0  0  0  0
  -10.6664   -2.2139  -22.8252 C   0  0  0  0  0  0  0  0  0  0  0  0
  -11.9874   -2.3956  -22.7424 N   0  0  0  0  0  0  0  0  0  0  0  0
  -12.8645   -1.3793  -22.9252 C   0  0  0  0  0  0  0  0  0  0  0  0
  -12.3995   -0.0904  -23.2104 C   0  0  0  0  0  0  0  0  0  0  0  0
  -13.2842    0.9649  -23.4011 C   0  0  0  0  0  0  0  0  0  0  0  0
  -12.7788    2.2238  -23.6816 C   0  0  0  0  0  0  0  0  0  0  0  0
  -11.3991    2.4083  -23.7669 C   0  0  0  0  0  0  0  0  0  0  0  0
  -10.5176    1.3651  -23.5786 C   0  0  0  0  0  0  0  0  0  0  0  0
  -11.0392    0.1206  -23.3006 C   0  0  0  0  0  0  0  0  0  0  0  0
  1  2  2  0  0  0
  2  3  1  0  0  0
  3  4  1  0  0  0
  3 17  1  0  0  0
  4  5  1  0  0  0
  4 14  1  0  0  0
  5  6  1  0  0  0
  6  7  1  0  0  0
  7  8  1  0  0  0
  8  9  2  0  0  0
  9 10  1  0  0  0
 10 11  2  0  0  0
 11 12  1  0  0  0
 12 13  2  0  0  0
 13  4  1  0  0  0
 13  8  1  0  0  0
 14 15  2  0  0  0
 14 16  1  0  0  0
 16 18  1  0  0  0
 16  2  1  0  0  0
 18 19  2  0  0  0
 19 20  1  0  0  0
 20 21  2  0  0  0
 21 22  1  0  0  0
 22 23  2  0  0  0
 23 24  1  0  0  0
 24 25  2  0  0  0
 25 26  1  0  0  0
 26 27  2  0  0  0
 27 18  1  0  0  0
 27 22  1  0  0  0
M  END
> <minimizedAffinity>
-7.59025

> <CNNscore>
0.2808756828

> <CNNaffinity>
5.1236028671

> <CNN_VS>
1.4390954971

> <CNNaffinity_variance>
0.1879192144

$$$$



 27 31  0  0  0  0  0  0  0  0999 V2000
   -7.7221   -0.5085  -20.5187 O   0  0  0  0  0  0  0  0  0  0  0  0
   -8.4005   -0.9060  -21.5092 C   0  0  0  0  0  0  0  0  0  0  0  0
   -9.3297   -2.0094  -21.5414 N   0  0  0  0  0  0  0  0  0  0  0  0
   -9.4361   -2.3860  -22.9157 C   0  0  0  0  0  0  0  0  0  0  0  0
  -10.7510   -3.0375  -23.2758 C   0  0  0  0  0  0  0  0  0  0  0  0
  -10.7502   -3.3602  -24.7401 C   0  0  0  0  0  0  0  0  0  0  0  0
   -9.4897   -3.7297  -25.2538 O   0  0  0  0  0  0  0  0  0  0  0  0
   -8.4027   -4.0194  -24.4383 C   0  0  0  0  0  0  0  0  0  0  0  0
   -7.4192   -4.9055  -24.7568 C   0  0  0  0  0  0  0  0  0  0  0  0
   -6.3831   -5.1167  -23.8699 C   0  0  0  0  0  0  0  0  0  0  0  0
   -6.3026   -4.4703  -22.6794 N   0  0  0  0  0  0  0  0  0  0  0  0
   -7.2880   -3.5934  -22.3789 C   0  0  0  0  0  0  0  0  0  0  0  0
   -8.3457   -3.3455  -23.2296 C   0  0  0  0  0  0  0  0  0  0  0  0
   -9.2835   -1.0828  -23.6053 C   0  0  0  0  0  0  0  0  0  0  0  0
   -9.8098   -0.6618  -24.6681 O   0  0  0  0  0  0  0  0  0  0  0  0
   -8.3766   -0.3283  -22.8095 N   0  0  0  0  0  0  0  0  0  0  0  0
   -9.7940   -2.4181  -20.7754 H   0  0  0  0  0  0  0  0  0  0  0  0
   -7.5732    0.7892  -23.1687 C   0  0  0  0  0  0  0  0  0  0  0  0
   -8.1657    2.0418  -22.9905 C   0  0  0  0  0  0  0  0  0  0  0  0
   -7.4677    3.1359  -23.3078 N   0  0  0  0  0  0  0  0  0  0  0  0
   -6.2057    3.0657  -23.7957 C   0  0  0  0  0  0  0  0  0  0  0  0
   -5.5912    1.8223  -23.9828 C   0  0  0  0  0  0  0  0  0  0  0  0
   -4.2971    1.7303  -24.4825 C   0  0  0  0  0  0  0  0  0  0  0  0
   -3.7288    0.4783  -24.6513 C   0  0  0  0  0  0  0  0  0  0  0  0
   -4.4616   -0.6607  -24.3187 C   0  0  0  0  0  0  0  0  0  0  0  0
   -5.7451   -0.5748  -23.8229 C   0  0  0  0  0  0  0  0  0  0  0  0
   -6.2932    0.6789  -23.6620 C   0  0  0  0  0  0  0  0  0  0  0  0
  1  2  2  0  0  0
  2  3  1  0  0  0
  3  4  1  0  0  0
  3 17  1  0  0  0
  4  5  1  0  0  0
  4 14  1  0  0  0
  5  6  1  0  0  0
  6  7  1  0  0  0
  7  8  1  0  0  0
  8  9  2  0  0  0
  9 10  1  0  0  0
 10 11  2  0  0  0
 11 12  1  0  0  0
 12 13  2  0  0  0
 13  4  1  0  0  0
 13  8  1  0  0  0
 14 15  2  0  0  0
 14 16  1  0  0  0
 16 18  1  0  0  0
 16  2  1  0  0  0
 18 19  2  0  0  0
 19 20  1  0  0  0
 20 21  2  0  0  0
 21 22  1  0  0  0
 22 23  2  0  0  0
 23 24  1  0  0  0
 24 25  2  0  0  0
 25 26  1  0  0  0
 26 27  2  0  0  0
 27 18  1  0  0  0
 27 22  1  0  0  0
M  END
> <minimizedAffinity>
-6.16686

> <CNNscore>
0.2787006199

> <CNNaffinity>
5.0841803551

> <CNN_VS>
1.4169641733

> <CNNaffinity_variance>
0.1261675060

$$$$



 42 47  0  0  0  0  0  0  0  0999 V2000
   -6.8191   -4.0556  -22.1392 N   0  0  0  0  0  0  0  0  0  0  0  0
   -7.7594   -3.3432  -22.9541 C   0  0  0  0  0  0  0  0  0  0  0  0
   -7.6360   -1.8642  -23.0038 C   0  0  0  0  0  0  0  0  0  0  0  0
   -8.9177   -1.2114  -22.5136 C   0  0  0  0  0  0  0  0  0  0  0  0
   -9.3197   -1.3230  -21.3120 O   0  0  0  0  0  0  0  0  0  0  0  0
   -9.5448   -0.5090  -23.5396 N   0  0  0  0  0  0  0  0  0  0  0  0
   -8.5891   -0.3173  -24.6088 C   0  0  0  0  0  0  0  0  0  0  0  0
   -7.4897   -1.2938  -24.3907 C   0  0  0  0  0  0  0  0  0  0  0  0
   -6.5551   -1.2942  -22.1601 C   0  0  0  0  0  0  0  0  0  0  0  0
   -6.3934    0.0858  -22.1480 C   0  0  0  0  0  0  0  0  0  0  0  0
   -5.4063    0.6795  -21.3795 C   0  0  0  0  0  0  0  0  0  0  0  0
   -5.2374    2.4445  -21.3946 Cl  0  0  0  0  0  0  0  0  0  0  0  0
   -4.5525   -0.0571  -20.6040 C   0  0  0  0  0  0  0  0  0  0  0  0
   -4.7009   -1.4352  -20.6056 C   0  0  0  0  0  0  0  0  0  0  0  0
   -5.6943   -2.0171  -21.3803 C   0  0  0  0  0  0  0  0  0  0  0  0
   -5.8045   -3.4670  -21.3451 C   0  0  0  0  0  0  0  0  0  0  0  0
   -5.0214   -4.1792  -20.6297 O   0  0  0  0  0  0  0  0  0  0  0  0
  -10.8842   -0.0352  -23.6000 C   0  0  0  0  0  0  0  0  0  0  0  0
  -11.9769   -0.9055  -23.5194 C   0  0  0  0  0  0  0  0  0  0  0  0
  -13.2438   -0.4626  -23.5698 N   0  0  0  0  0  0  0  0  0  0  0  0
  -13.5430    0.8530  -23.7015 C   0  0  0  0  0  0  0  0  0  0  0  0
  -12.4935    1.7667  -23.7866 C   0  0  0  0  0  0  0  0  0  0  0  0
  -12.8008    3.1211  -23.9244 C   0  0  0  0  0  0  0  0  0  0  0  0
  -11.7405    4.0149  -24.0080 C   0  0  0  0  0  0  0  0  0  0  0  0
  -10.4408    3.5684  -23.9555 C   0  0  0  0  0  0  0  0  0  0  0  0
  -10.1382    2.2156  -23.8190 C   0  0  0  0  0  0  0  0  0  0  0  0
  -11.1846    1.3230  -23.7356 C   0  0  0  0  0  0  0  0  0  0  0  0
   -6.9527   -5.5269  -22.1490 C   0  0  0  0  0  0  0  0  0  0  0  0
   -4.7914   -6.4218  -25.2175 C   0  0  0  0  0  0  0  0  0  0  0  0
   -5.1853   -5.9027  -23.9240 N   0  0  0  0  0  0  0  0  0  0  0  0
   -6.5221   -6.0525  -23.4726 C   0  0  0  0  0  0  0  0  0  0  0  0
   -7.3928   -6.6337  -24.1718 O   0  0  0  0  0  0  0  0  0  0  0  0
   -4.5238   -5.4448  -23.3565 H   0  0  0  0  0  0  0  0  0  0  0  0
   -7.5370   -2.3263  -25.4931 C   0  0  0  0  0  0  0  0  0  0  0  0
   -8.9590   -2.4328  -25.8787 N   0  0  0  0  0  0  0  0  0  0  0  0
   -9.5725   -1.6630  -25.8642 H   0  0  0  0  0  0  0  0  0  0  0  0
   -9.3736   -3.7411  -26.2744 C   0  0  0  0  0  0  0  0  0  0  0  0
  -10.2286   -4.4955  -25.5086 C   0  0  0  0  0  0  0  0  0  0  0  0
  -10.6613   -5.7562  -25.8394 C   0  0  0  0  0  0  0  0  0  0  0  0
  -10.2080   -6.3036  -27.0197 C   0  0  0  0  0  0  0  0  0  0  0  0
   -9.3345   -5.5691  -27.8309 C   0  0  0  0  0  0  0  0  0  0  0  0
   -8.9207   -4.3109  -27.4714 C   0  0  0  0  0  0  0  0  0  0  0  0
 29 30  1  0  0  0
 30 31  1  0  0  0
 30 33  1  0  0  0
 31 32  2  0  0  0
 31 28  1  0  0  0
 28  1  1  0  0  0
  1  2  1  0  0  0
  3  2  1  0  0  0
  3  4  1  0  0  0
  3  9  1  0  0  0
  4  5  2  0  0  0
  4  6  1  0  0  0
  6 18  1  0  0  0
  6  7  1  0  0  0
 18 19  2  0  0  0
 19 20  1  0  0  0
 20 21  2  0  0  0
 21 22  1  0  0  0
 22 23  2  0  0  0
 23 24  1  0  0  0
 24 25  2  0  0  0
 25 26  1  0  0  0
 26 27  2  0  0  0
 27 18  1  0  0  0
 27 22  1  0  0  0
  7  8  1  0  0  0
  8 34  1  0  0  0
  8  3  1  0  0  0
 34 35  1  0  0  0
 35 37  1  0  0  0
 35 36  1  0  0  0
 37 38  2  0  0  0
 38 39  1  0  0  0
 39 40  2  0  0  0
 40 41  1  0  0  0
 41 42  2  0  0  0
 42 37  1  0  0  0
  9 10  2  0  0  0
 10 11  1  0  0  0
 11 12  1  0  0  0
 11 13  2  0  0  0
 13 14  1  0  0  0
 14 15  2  0  0  0
 15 16  1  0  0  0
 15  9  1  0  0  0
 16 17  2  0  0  0
 16  1  1  0  0  0
M  END
> <minimizedAffinity>
-7.84482

> <CNNscore>
0.5150801539

> <CNNaffinity>
6.7855958939

> <CNN_VS>
3.4951257706

> <CNNaffinity_variance>
0.1471082866

$$$$



 42 47  0  0  0  0  0  0  0  0999 V2000
   -5.2686   -0.7765  -21.5531 N   0  0  0  0  0  0  0  0  0  0  0  0
   -6.5150   -0.8930  -22.2521 C   0  0  0  0  0  0  0  0  0  0  0  0
   -6.8282    0.1457  -23.2661 C   0  0  0  0  0  0  0  0  0  0  0  0
   -8.1177    0.8636  -22.9045 C   0  0  0  0  0  0  0  0  0  0  0  0
   -8.2236    1.5850  -21.8623 O   0  0  0  0  0  0  0  0  0  0  0  0
   -9.1096    0.6161  -23.8502 N   0  0  0  0  0  0  0  0  0  0  0  0
   -8.4806    0.0829  -25.0390 C   0  0  0  0  0  0  0  0  0  0  0  0
   -7.1292   -0.3916  -24.6413 C   0  0  0  0  0  0  0  0  0  0  0  0
   -5.8075    1.2149  -23.4078 C   0  0  0  0  0  0  0  0  0  0  0  0
   -6.0445    2.2277  -24.3290 C   0  0  0  0  0  0  0  0  0  0  0  0
   -5.1334    3.2554  -24.5061 C   0  0  0  0  0  0  0  0  0  0  0  0
   -5.4781    4.5270  -25.6928 Cl  0  0  0  0  0  0  0  0  0  0  0  0
   -3.9692    3.3213  -23.7899 C   0  0  0  0  0  0  0  0  0  0  0  0
   -3.7183    2.3180  -22.8670 C   0  0  0  0  0  0  0  0  0  0  0  0
   -4.6397    1.2940  -22.6995 C   0  0  0  0  0  0  0  0  0  0  0  0
   -4.3252    0.2673  -21.7185 C   0  0  0  0  0  0  0  0  0  0  0  0
   -3.2462    0.3041  -21.0355 O   0  0  0  0  0  0  0  0  0  0  0  0
  -10.5123    0.8209  -23.7381 C   0  0  0  0  0  0  0  0  0  0  0  0
  -11.0972    2.0656  -23.9957 C   0  0  0  0  0  0  0  0  0  0  0  0
  -12.4220    2.2627  -23.8972 N   0  0  0  0  0  0  0  0  0  0  0  0
  -13.2743    1.2699  -23.5429 C   0  0  0  0  0  0  0  0  0  0  0  0
  -12.7472    0.0077  -23.2741 C   0  0  0  0  0  0  0  0  0  0  0  0
  -13.6239   -1.0144  -22.9071 C   0  0  0  0  0  0  0  0  0  0  0  0
  -13.0782   -2.2646  -22.6431 C   0  0  0  0  0  0  0  0  0  0  0  0
  -11.7227   -2.4737  -22.7436 C   0  0  0  0  0  0  0  0  0  0  0  0
  -10.8509   -1.4508  -23.1091 C   0  0  0  0  0  0  0  0  0  0  0  0
  -11.3847   -0.2080  -23.3724 C   0  0  0  0  0  0  0  0  0  0  0  0
   -4.9789   -1.8514  -20.5819 C   0  0  0  0  0  0  0  0  0  0  0  0
   -5.5891    0.3347  -17.4617 C   0  0  0  0  0  0  0  0  0  0  0  0
   -5.1866   -0.0708  -18.7926 N   0  0  0  0  0  0  0  0  0  0  0  0
   -5.3850   -1.4090  -19.2207 C   0  0  0  0  0  0  0  0  0  0  0  0
   -5.9101   -2.2709  -18.4683 O   0  0  0  0  0  0  0  0  0  0  0  0
   -4.7745    0.5836  -19.4018 H   0  0  0  0  0  0  0  0  0  0  0  0
   -7.1008   -1.8995  -24.7369 C   0  0  0  0  0  0  0  0  0  0  0  0
   -8.2997   -2.2722  -25.5153 N   0  0  0  0  0  0  0  0  0  0  0  0
   -8.8649   -1.6074  -25.9711 H   0  0  0  0  0  0  0  0  0  0  0  0
   -8.5742   -3.6732  -25.5542 C   0  0  0  0  0  0  0  0  0  0  0  0
   -7.6249   -4.6096  -25.2244 C   0  0  0  0  0  0  0  0  0  0  0  0
   -7.8327   -5.9669  -25.2422 C   0  0  0  0  0  0  0  0  0  0  0  0
   -9.0779   -6.4229  -25.6163 C   0  0  0  0  0  0  0  0  0  0  0  0
  -10.0753   -5.5028  -25.9610 C   0  0  0  0  0  0  0  0  0  0  0  0
   -9.8352   -4.1518  -25.9329 C   0  0  0  0  0  0  0  0  0  0  0  0
 29 30  1  0  0  0
 30 31  1  0  0  0
 30 33  1  0  0  0
 31 32  2  0  0  0
 31 28  1  0  0  0
 28  1  1  0  0  0
  1  2  1  0  0  0
  3  2  1  0  0  0
  3  4  1  0  0  0
  3  9  1  0  0  0
  4  5  2  0  0  0
  4  6  1  0  0  0
  6 18  1  0  0  0
  6  7  1  0  0  0
 18 19  2  0  0  0
 19 20  1  0  0  0
 20 21  2  0  0  0
 21 22  1  0  0  0
 22 23  2  0  0  0
 23 24  1  0  0  0
 24 25  2  0  0  0
 25 26  1  0  0  0
 26 27  2  0  0  0
 27 18  1  0  0  0
 27 22  1  0  0  0
  7  8  1  0  0  0
  8 34  1  0  0  0
  8  3  1  0  0  0
 34 35  1  0  0  0
 35 37  1  0  0  0
 35 36  1  0  0  0
 37 38  2  0  0  0
 38 39  1  0  0  0
 39 40  2  0  0  0
 40 41  1  0  0  0
 41 42  2  0  0  0
 42 37  1  0  0  0
  9 10  2  0  0  0
 10 11  1  0  0  0
 11 12  1  0  0  0
 11 13  2  0  0  0
 13 14  1  0  0  0
 14 15  2  0  0  0
 15 16  1  0  0  0
 15  9  1  0  0  0
 16 17  2  0  0  0
 16  1  1  0  0  0
M  END
> <minimizedAffinity>
-8.15493

> <CNNscore>
0.3694771826

> <CNNaffinity>
6.7038178444

> <CNN_VS>
2.4769077301

> <CNNaffinity_variance>
0.0408435091

$$$$



 42 47  0  0  0  0  0  0  0  0999 V2000
   -5.9068   -1.2746  -22.0350 N   0  0  0  0  0  0  0  0  0  0  0  0
   -7.0302   -0.9214  -22.8529 C   0  0  0  0  0  0  0  0  0  0  0  0
   -7.1596    0.5018  -23.2565 C   0  0  0  0  0  0  0  0  0  0  0  0
   -8.4753    1.0742  -22.7560 C   0  0  0  0  0  0  0  0  0  0  0  0
   -8.7289    1.2097  -21.5170 O   0  0  0  0  0  0  0  0  0  0  0  0
   -9.3113    1.4084  -23.8185 N   0  0  0  0  0  0  0  0  0  0  0  0
   -8.5144    1.4581  -25.0250 C   0  0  0  0  0  0  0  0  0  0  0  0
   -7.2518    0.7256  -24.7437 C   0  0  0  0  0  0  0  0  0  0  0  0
   -6.1082    1.4051  -22.7239 C   0  0  0  0  0  0  0  0  0  0  0  0
   -6.1773    2.7538  -23.0505 C   0  0  0  0  0  0  0  0  0  0  0  0
   -5.2294    3.6483  -22.5828 C   0  0  0  0  0  0  0  0  0  0  0  0
   -5.3581    5.3607  -23.0248 Cl  0  0  0  0  0  0  0  0  0  0  0  0
   -4.1909    3.2504  -21.7853 C   0  0  0  0  0  0  0  0  0  0  0  0
   -4.1080    1.9079  -21.4509 C   0  0  0  0  0  0  0  0  0  0  0  0
   -5.0646    1.0222  -21.9263 C   0  0  0  0  0  0  0  0  0  0  0  0
   -4.9285   -0.3748  -21.5452 C   0  0  0  0  0  0  0  0  0  0  0  0
   -3.9695   -0.7740  -20.8015 O   0  0  0  0  0  0  0  0  0  0  0  0
  -10.7098    1.6649  -23.7994 C   0  0  0  0  0  0  0  0  0  0  0  0
  -11.2267    2.9435  -24.0354 C   0  0  0  0  0  0  0  0  0  0  0  0
  -12.5469    3.1899  -24.0245 N   0  0  0  0  0  0  0  0  0  0  0  0
  -13.4600    2.2170  -23.7849 C   0  0  0  0  0  0  0  0  0  0  0  0
  -13.0022    0.9226  -23.5429 C   0  0  0  0  0  0  0  0  0  0  0  0
  -13.9416   -0.0791  -23.2940 C   0  0  0  0  0  0  0  0  0  0  0  0
  -13.4644   -1.3618  -23.0548 C   0  0  0  0  0  0  0  0  0  0  0  0
  -12.1139   -1.6214  -23.0661 C   0  0  0  0  0  0  0  0  0  0  0  0
  -11.1794   -0.6186  -23.3138 C   0  0  0  0  0  0  0  0  0  0  0  0
  -11.6451    0.6562  -23.5518 C   0  0  0  0  0  0  0  0  0  0  0  0
   -5.7947   -2.7066  -21.6892 C   0  0  0  0  0  0  0  0  0  0  0  0
   -6.5627   -4.8871  -24.7783 C   0  0  0  0  0  0  0  0  0  0  0  0
   -5.8349   -4.1032  -23.8018 N   0  0  0  0  0  0  0  0  0  0  0  0
   -6.5185   -3.5176  -22.7050 C   0  0  0  0  0  0  0  0  0  0  0  0
   -7.7595   -3.6607  -22.5492 O   0  0  0  0  0  0  0  0  0  0  0  0
   -4.8634   -3.9765  -23.8993 H   0  0  0  0  0  0  0  0  0  0  0  0
   -7.2389   -0.5441  -25.5630 C   0  0  0  0  0  0  0  0  0  0  0  0
   -6.1368   -0.3814  -26.5330 N   0  0  0  0  0  0  0  0  0  0  0  0
   -6.2169   -0.6472  -27.4776 H   0  0  0  0  0  0  0  0  0  0  0  0
   -4.9458    0.1922  -25.9923 C   0  0  0  0  0  0  0  0  0  0  0  0
   -4.0702   -0.5378  -25.2261 C   0  0  0  0  0  0  0  0  0  0  0  0
   -2.9114   -0.0400  -24.6826 C   0  0  0  0  0  0  0  0  0  0  0  0
   -2.6043    1.2818  -24.9207 C   0  0  0  0  0  0  0  0  0  0  0  0
   -3.4695    2.0628  -25.6964 C   0  0  0  0  0  0  0  0  0  0  0  0
   -4.6205    1.5348  -26.2255 C   0  0  0  0  0  0  0  0  0  0  0  0
 29 30  1  0  0  0
 30 31  1  0  0  0
 30 33  1  0  0  0
 31 32  2  0  0  0
 31 28  1  0  0  0
 28  1  1  0  0  0
  1  2  1  0  0  0
  3  2  1  0  0  0
  3  4  1  0  0  0
  3  9  1  0  0  0
  4  5  2  0  0  0
  4  6  1  0  0  0
  6 18  1  0  0  0
  6  7  1  0  0  0
 18 19  2  0  0  0
 19 20  1  0  0  0
 20 21  2  0  0  0
 21 22  1  0  0  0
 22 23  2  0  0  0
 23 24  1  0  0  0
 24 25  2  0  0  0
 25 26  1  0  0  0
 26 27  2  0  0  0
 27 18  1  0  0  0
 27 22  1  0  0  0
  7  8  1  0  0  0
  8 34  1  0  0  0
  8  3  1  0  0  0
 34 35  1  0  0  0
 35 37  1  0  0  0
 35 36  1  0  0  0
 37 38  2  0  0  0
 38 39  1  0  0  0
 39 40  2  0  0  0
 40 41  1  0  0  0
 41 42  2  0  0  0
 42 37  1  0  0  0
  9 10  2  0  0  0
 10 11  1  0  0  0
 11 12  1  0  0  0
 11 13  2  0  0  0
 13 14  1  0  0  0
 14 15  2  0  0  0
 15 16  1  0  0  0
 15  9  1  0  0  0
 16 17  2  0  0  0
 16  1  1  0  0  0
M  END
> <minimizedAffinity>
-6.63376

> <CNNscore>
0.3192901611

> <CNNaffinity>
6.2466268539

> <CNN_VS>
1.9944864511

> <CNNaffinity_variance>
0.1496230215

$$$$



 42 47  0  0  0  0  0  0  0  0999 V2000
   -7.2803   -2.1643  -22.5666 N   0  0  0  0  0  0  0  0  0  0  0  0
   -7.9234   -1.1470  -23.3457 C   0  0  0  0  0  0  0  0  0  0  0  0
   -7.2879    0.1948  -23.3737 C   0  0  0  0  0  0  0  0  0  0  0  0
   -8.2487    1.2446  -22.8408 C   0  0  0  0  0  0  0  0  0  0  0  0
   -8.6432    1.2522  -21.6316 O   0  0  0  0  0  0  0  0  0  0  0  0
   -8.6060    2.1476  -23.8389 N   0  0  0  0  0  0  0  0  0  0  0  0
   -7.6629    2.0170  -24.9282 C   0  0  0  0  0  0  0  0  0  0  0  0
   -6.9743    0.7111  -24.7540 C   0  0  0  0  0  0  0  0  0  0  0  0
   -6.0609    0.3273  -22.5478 C   0  0  0  0  0  0  0  0  0  0  0  0
   -5.4233    1.5615  -22.5166 C   0  0  0  0  0  0  0  0  0  0  0  0
   -4.2771    1.7509  -21.7631 C   0  0  0  0  0  0  0  0  0  0  0  0
   -3.4976    3.3435  -21.7528 Cl  0  0  0  0  0  0  0  0  0  0  0  0
   -3.7240    0.7424  -21.0216 C   0  0  0  0  0  0  0  0  0  0  0  0
   -4.3484   -0.4949  -21.0427 C   0  0  0  0  0  0  0  0  0  0  0  0
   -5.4964   -0.6711  -21.8019 C   0  0  0  0  0  0  0  0  0  0  0  0
   -6.1096   -1.9899  -21.7883 C   0  0  0  0  0  0  0  0  0  0  0  0
   -5.6153   -2.9494  -21.1048 O   0  0  0  0  0  0  0  0  0  0  0  0
   -9.6935    3.0636  -23.8579 C   0  0  0  0  0  0  0  0  0  0  0  0
   -9.4919    4.4428  -23.9801 C   0  0  0  0  0  0  0  0  0  0  0  0
  -10.5158    5.3116  -24.0046 N   0  0  0  0  0  0  0  0  0  0  0  0
  -11.8066    4.9076  -23.9129 C   0  0  0  0  0  0  0  0  0  0  0  0
  -12.0676    3.5438  -23.7891 C   0  0  0  0  0  0  0  0  0  0  0  0
  -13.3962    3.1274  -23.6924 C   0  0  0  0  0  0  0  0  0  0  0  0
  -13.6345    1.7642  -23.5694 C   0  0  0  0  0  0  0  0  0  0  0  0
  -12.5908    0.8690  -23.5452 C   0  0  0  0  0  0  0  0  0  0  0  0
  -11.2661    1.2886  -23.6408 C   0  0  0  0  0  0  0  0  0  0  0  0
  -11.0218    2.6392  -23.7630 C   0  0  0  0  0  0  0  0  0  0  0  0
   -7.9237   -3.4939  -22.5978 C   0  0  0  0  0  0  0  0  0  0  0  0
  -11.7016   -2.7243  -22.7486 C   0  0  0  0  0  0  0  0  0  0  0  0
  -10.3481   -2.8491  -22.2483 N   0  0  0  0  0  0  0  0  0  0  0  0
   -9.3216   -3.3542  -23.0877 C   0  0  0  0  0  0  0  0  0  0  0  0
   -9.5525   -3.7024  -24.2752 O   0  0  0  0  0  0  0  0  0  0  0  0
  -10.1398   -2.5829  -21.3237 H   0  0  0  0  0  0  0  0  0  0  0  0
   -7.4014   -0.2115  -25.8721 C   0  0  0  0  0  0  0  0  0  0  0  0
   -6.3440   -0.1100  -26.8986 N   0  0  0  0  0  0  0  0  0  0  0  0
   -6.2620    0.6635  -27.5021 H   0  0  0  0  0  0  0  0  0  0  0  0
   -5.4498   -1.2227  -26.9462 C   0  0  0  0  0  0  0  0  0  0  0  0
   -4.0930   -1.0721  -26.7952 C   0  0  0  0  0  0  0  0  0  0  0  0
   -3.1876   -2.1041  -26.8303 C   0  0  0  0  0  0  0  0  0  0  0  0
   -3.6713   -3.3785  -27.0307 C   0  0  0  0  0  0  0  0  0  0  0  0
   -5.0480   -3.5775  -27.1899 C   0  0  0  0  0  0  0  0  0  0  0  0
   -5.9268   -2.5241  -27.1496 C   0  0  0  0  0  0  0  0  0  0  0  0
 29 30  1  0  0  0
 30 31  1  0  0  0
 30 33  1  0  0  0
 31 32  2  0  0  0
 31 28  1  0  0  0
 28  1  1  0  0  0
  1  2  1  0  0  0
  3  2  1  0  0  0
  3  4  1  0  0  0
  3  9  1  0  0  0
  4  5  2  0  0  0
  4  6  1  0  0  0
  6 18  1  0  0  0
  6  7  1  0  0  0
 18 19  2  0  0  0
 19 20  1  0  0  0
 20 21  2  0  0  0
 21 22  1  0  0  0
 22 23  2  0  0  0
 23 24  1  0  0  0
 24 25  2  0  0  0
 25 26  1  0  0  0
 26 27  2  0  0  0
 27 18  1  0  0  0
 27 22  1  0  0  0
  7  8  1  0  0  0
  8 34  1  0  0  0
  8  3  1  0  0  0
 34 35  1  0  0  0
 35 37  1  0  0  0
 35 36  1  0  0  0
 37 38  2  0  0  0
 38 39  1  0  0  0
 39 40  2  0  0  0
 40 41  1  0  0  0
 41 42  2  0  0  0
 42 37  1  0  0  0
  9 10  2  0  0  0
 10 11  1  0  0  0
 11 12  1  0  0  0
 11 13  2  0  0  0
 13 14  1  0  0  0
 14 15  2  0  0  0
 15 16  1  0  0  0
 15  9  1  0  0  0
 16 17  2  0  0  0
 16  1  1  0  0  0
M  END
> <minimizedAffinity>
-7.36658

> <CNNscore>
0.2775067985

> <CNNaffinity>
6.1841239929

> <CNN_VS>
1.7161364555

> <CNNaffinity_variance>
0.0977645814

$$$$



 42 47  0  0  0  0  0  0  0  0999 V2000
   -5.4381   -1.1586  -21.5211 N   0  0  0  0  0  0  0  0  0  0  0  0
   -6.7099   -1.3885  -22.1417 C   0  0  0  0  0  0  0  0  0  0  0  0
   -7.1083   -0.4727  -23.2406 C   0  0  0  0  0  0  0  0  0  0  0  0
   -8.4060    0.2366  -22.8915 C   0  0  0  0  0  0  0  0  0  0  0  0
   -8.4911    1.0595  -21.9253 O   0  0  0  0  0  0  0  0  0  0  0  0
   -9.4302   -0.1409  -23.7563 N   0  0  0  0  0  0  0  0  0  0  0  0
   -8.8368   -0.7750  -24.9134 C   0  0  0  0  0  0  0  0  0  0  0  0
   -7.4516   -1.1607  -24.5364 C   0  0  0  0  0  0  0  0  0  0  0  0
   -6.1363    0.6087  -23.5422 C   0  0  0  0  0  0  0  0  0  0  0  0
   -6.4533    1.5110  -24.5501 C   0  0  0  0  0  0  0  0  0  0  0  0
   -5.5907    2.5438  -24.8772 C   0  0  0  0  0  0  0  0  0  0  0  0
   -6.0373    3.6720  -26.1701 Cl  0  0  0  0  0  0  0  0  0  0  0  0
   -4.3982    2.7225  -24.2301 C   0  0  0  0  0  0  0  0  0  0  0  0
   -4.0675    1.8302  -23.2223 C   0  0  0  0  0  0  0  0  0  0  0  0
   -4.9410    0.7998  -22.9046 C   0  0  0  0  0  0  0  0  0  0  0  0
   -4.5433   -0.1076  -21.8398 C   0  0  0  0  0  0  0  0  0  0  0  0
   -3.4362    0.0359  -21.2185 O   0  0  0  0  0  0  0  0  0  0  0  0
  -10.8331    0.0284  -23.5965 C   0  0  0  0  0  0  0  0  0  0  0  0
  -11.6684   -1.0393  -23.2502 C   0  0  0  0  0  0  0  0  0  0  0  0
  -12.9930   -0.8835  -23.0921 N   0  0  0  0  0  0  0  0  0  0  0  0
  -13.6027    0.3159  -23.2577 C   0  0  0  0  0  0  0  0  0  0  0  0
  -12.8195    1.4161  -23.6034 C   0  0  0  0  0  0  0  0  0  0  0  0
  -13.4468    2.6508  -23.7762 C   0  0  0  0  0  0  0  0  0  0  0  0
  -12.6483    3.7342  -24.1210 C   0  0  0  0  0  0  0  0  0  0  0  0
  -11.2912    3.5820  -24.2828 C   0  0  0  0  0  0  0  0  0  0  0  0
  -10.6689    2.3478  -24.1106 C   0  0  0  0  0  0  0  0  0  0  0  0
  -11.4543    1.2685  -23.7687 C   0  0  0  0  0  0  0  0  0  0  0  0
   -5.0638   -2.1158  -20.4597 C   0  0  0  0  0  0  0  0  0  0  0  0
   -5.3987    0.2777  -17.4520 C   0  0  0  0  0  0  0  0  0  0  0  0
   -5.0267   -0.2480  -18.7493 N   0  0  0  0  0  0  0  0  0  0  0  0
   -5.4341   -1.5518  -19.1337 C   0  0  0  0  0  0  0  0  0  0  0  0
   -6.1220   -2.2793  -18.3708 O   0  0  0  0  0  0  0  0  0  0  0  0
   -4.4899    0.3005  -19.3659 H   0  0  0  0  0  0  0  0  0  0  0  0
   -7.3707   -2.6686  -24.4773 C   0  0  0  0  0  0  0  0  0  0  0  0
   -8.7656   -3.1463  -24.5682 N   0  0  0  0  0  0  0  0  0  0  0  0
   -9.5376   -2.5768  -24.3474 H   0  0  0  0  0  0  0  0  0  0  0  0
   -8.9056   -4.5000  -25.0017 C   0  0  0  0  0  0  0  0  0  0  0  0
   -9.9098   -4.8904  -25.8536 C   0  0  0  0  0  0  0  0  0  0  0  0
  -10.0916   -6.1750  -26.3039 C   0  0  0  0  0  0  0  0  0  0  0  0
   -9.2075   -7.1397  -25.8728 C   0  0  0  0  0  0  0  0  0  0  0  0
   -8.1688   -6.7854  -25.0033 C   0  0  0  0  0  0  0  0  0  0  0  0
   -8.0146   -5.4918  -24.5716 C   0  0  0  0  0  0  0  0  0  0  0  0
 29 30  1  0  0  0
 30 31  1  0  0  0
 30 33  1  0  0  0
 31 32  2  0  0  0
 31 28  1  0  0  0
 28  1  1  0  0  0
  1  2  1  0  0  0
  3  2  1  0  0  0
  3  4  1  0  0  0
  3  9  1  0  0  0
  4  5  2  0  0  0
  4  6  1  0  0  0
  6 18  1  0  0  0
  6  7  1  0  0  0
 18 19  2  0  0  0
 19 20  1  0  0  0
 20 21  2  0  0  0
 21 22  1  0  0  0
 22 23  2  0  0  0
 23 24  1  0  0  0
 24 25  2  0  0  0
 25 26  1  0  0  0
 26 27  2  0  0  0
 27 18  1  0  0  0
 27 22  1  0  0  0
  7  8  1  0  0  0
  8 34  1  0  0  0
  8  3  1  0  0  0
 34 35  1  0  0  0
 35 37  1  0  0  0
 35 36  1  0  0  0
 37 38  2  0  0  0
 38 39  1  0  0  0
 39 40  2  0  0  0
 40 41  1  0  0  0
 41 42  2  0  0  0
 42 37  1  0  0  0
  9 10  2  0  0  0
 10 11  1  0  0  0
 11 12  1  0  0  0
 11 13  2  0  0  0
 13 14  1  0  0  0
 14 15  2  0  0  0
 15 16  1  0  0  0
 15  9  1  0  0  0
 16 17  2  0  0  0
 16  1  1  0  0  0
M  END
> <minimizedAffinity>
-8.65079

> <CNNscore>
0.2607078850

> <CNNaffinity>
6.5720191002

> <CNN_VS>
1.7133772373

> <CNNaffinity_variance>
0.1265219748

$$$$



 42 47  0  0  0  0  0  0  0  0999 V2000
   -5.3483   -0.9550  -21.5579 N   0  0  0  0  0  0  0  0  0  0  0  0
   -6.6043   -1.1766  -22.2129 C   0  0  0  0  0  0  0  0  0  0  0  0
   -7.0149   -0.1967  -23.2504 C   0  0  0  0  0  0  0  0  0  0  0  0
   -8.3377    0.4484  -22.8722 C   0  0  0  0  0  0  0  0  0  0  0  0
   -8.4602    1.1976  -21.8517 O   0  0  0  0  0  0  0  0  0  0  0  0
   -9.3385    0.1041  -23.7774 N   0  0  0  0  0  0  0  0  0  0  0  0
   -8.7109   -0.4287  -24.9671 C   0  0  0  0  0  0  0  0  0  0  0  0
   -7.3200   -0.8004  -24.5968 C   0  0  0  0  0  0  0  0  0  0  0  0
   -6.0714    0.9308  -23.4596 C   0  0  0  0  0  0  0  0  0  0  0  0
   -6.4015    1.8931  -24.4059 C   0  0  0  0  0  0  0  0  0  0  0  0
   -5.5657    2.9708  -24.6457 C   0  0  0  0  0  0  0  0  0  0  0  0
   -6.0281    4.1749  -25.8625 Cl  0  0  0  0  0  0  0  0  0  0  0  0
   -4.3878    3.1372  -23.9692 C   0  0  0  0  0  0  0  0  0  0  0  0
   -4.0444    2.1853  -23.0220 C   0  0  0  0  0  0  0  0  0  0  0  0
   -4.8911    1.1103  -22.7916 C   0  0  0  0  0  0  0  0  0  0  0  0
   -4.4810    0.1412  -21.7875 C   0  0  0  0  0  0  0  0  0  0  0  0
   -3.3872    0.2718  -21.1405 O   0  0  0  0  0  0  0  0  0  0  0  0
  -10.7478    0.2213  -23.6279 C   0  0  0  0  0  0  0  0  0  0  0  0
  -11.5446   -0.8751  -23.2803 C   0  0  0  0  0  0  0  0  0  0  0  0
  -12.8751   -0.7684  -23.1319 N   0  0  0  0  0  0  0  0  0  0  0  0
  -13.5285    0.4061  -23.3091 C   0  0  0  0  0  0  0  0  0  0  0  0
  -12.7850    1.5329  -23.6566 C   0  0  0  0  0  0  0  0  0  0  0  0
  -13.4573    2.7420  -23.8414 C   0  0  0  0  0  0  0  0  0  0  0  0
  -12.6979    3.8526  -24.1878 C   0  0  0  0  0  0  0  0  0  0  0  0
  -11.3349    3.7508  -24.3397 C   0  0  0  0  0  0  0  0  0  0  0  0
  -10.6677    2.5420  -24.1557 C   0  0  0  0  0  0  0  0  0  0  0  0
  -11.4141    1.4360  -23.8120 C   0  0  0  0  0  0  0  0  0  0  0  0
   -4.9601   -1.9742  -20.5612 C   0  0  0  0  0  0  0  0  0  0  0  0
   -5.4268    0.1930  -17.4032 C   0  0  0  0  0  0  0  0  0  0  0  0
   -5.0202   -0.2271  -18.7283 N   0  0  0  0  0  0  0  0  0  0  0  0
   -5.3670   -1.5178  -19.2048 C   0  0  0  0  0  0  0  0  0  0  0  0
   -6.0298   -2.3242  -18.5012 O   0  0  0  0  0  0  0  0  0  0  0  0
   -4.5019    0.3845  -19.2999 H   0  0  0  0  0  0  0  0  0  0  0  0
   -7.1952   -2.3057  -24.6432 C   0  0  0  0  0  0  0  0  0  0  0  0
   -6.3303   -2.5983  -25.8045 N   0  0  0  0  0  0  0  0  0  0  0  0
   -6.3949   -3.4362  -26.3172 H   0  0  0  0  0  0  0  0  0  0  0  0
   -5.3931   -1.5692  -26.1247 C   0  0  0  0  0  0  0  0  0  0  0  0
   -5.6313   -0.6527  -27.1197 C   0  0  0  0  0  0  0  0  0  0  0  0
   -4.7686    0.3570  -27.4692 C   0  0  0  0  0  0  0  0  0  0  0  0
   -3.5825    0.4595  -26.7759 C   0  0  0  0  0  0  0  0  0  0  0  0
   -3.2988   -0.4544  -25.7539 C   0  0  0  0  0  0  0  0  0  0  0  0
   -4.1828   -1.4527  -25.4288 C   0  0  0  0  0  0  0  0  0  0  0  0
 29 30  1  0  0  0
 30 31  1  0  0  0
 30 33  1  0  0  0
 31 32  2  0  0  0
 31 28  1  0  0  0
 28  1  1  0  0  0
  1  2  1  0  0  0
  3  2  1  0  0  0
  3  4  1  0  0  0
  3  9  1  0  0  0
  4  5  2  0  0  0
  4  6  1  0  0  0
  6 18  1  0  0  0
  6  7  1  0  0  0
 18 19  2  0  0  0
 19 20  1  0  0  0
 20 21  2  0  0  0
 21 22  1  0  0  0
 22 23  2  0  0  0
 23 24  1  0  0  0
 24 25  2  0  0  0
 25 26  1  0  0  0
 26 27  2  0  0  0
 27 18  1  0  0  0
 27 22  1  0  0  0
  7  8  1  0  0  0
  8 34  1  0  0  0
  8  3  1  0  0  0
 34 35  1  0  0  0
 35 37  1  0  0  0
 35 36  1  0  0  0
 37 38  2  0  0  0
 38 39  1  0  0  0
 39 40  2  0  0  0
 40 41  1  0  0  0
 41 42  2  0  0  0
 42 37  1  0  0  0
  9 10  2  0  0  0
 10 11  1  0  0  0
 11 12  1  0  0  0
 11 13  2  0  0  0
 13 14  1  0  0  0
 14 15  2  0  0  0
 15 16  1  0  0  0
 15  9  1  0  0  0
 16 17  2  0  0  0
 16  1  1  0  0  0
M  END
> <minimizedAffinity>
-7.21320

> <CNNscore>
0.2012288123

> <CNNaffinity>
6.1758661270

> <CNN_VS>
1.2427622080

> <CNNaffinity_variance>
0.1404221803

$$$$



 42 47  0  0  0  0  0  0  0  0999 V2000
   -6.4325   -1.9634  -22.1761 N   0  0  0  0  0  0  0  0  0  0  0  0
   -7.4932   -1.4410  -22.9871 C   0  0  0  0  0  0  0  0  0  0  0  0
   -7.4975    0.0213  -23.2457 C   0  0  0  0  0  0  0  0  0  0  0  0
   -8.7836    0.6443  -22.7291 C   0  0  0  0  0  0  0  0  0  0  0  0
   -9.0735    0.6748  -21.4910 O   0  0  0  0  0  0  0  0  0  0  0  0
   -9.5501    1.1493  -23.7765 N   0  0  0  0  0  0  0  0  0  0  0  0
   -8.7059    1.2557  -24.9466 C   0  0  0  0  0  0  0  0  0  0  0  0
   -7.5150    0.3998  -24.7040 C   0  0  0  0  0  0  0  0  0  0  0  0
   -6.4011    0.7793  -22.5911 C   0  0  0  0  0  0  0  0  0  0  0  0
   -6.3540    2.1552  -22.7790 C   0  0  0  0  0  0  0  0  0  0  0  0
   -5.3590    2.9194  -22.1930 C   0  0  0  0  0  0  0  0  0  0  0  0
   -5.3389    4.6722  -22.4600 Cl  0  0  0  0  0  0  0  0  0  0  0  0
   -4.3854    2.3615  -21.4095 C   0  0  0  0  0  0  0  0  0  0  0  0
   -4.4187    0.9899  -21.2128 C   0  0  0  0  0  0  0  0  0  0  0  0
   -5.4214    0.2359  -21.8059 C   0  0  0  0  0  0  0  0  0  0  0  0
   -5.4076   -1.1987  -21.5667 C   0  0  0  0  0  0  0  0  0  0  0  0
   -4.5113   -1.7460  -20.8392 O   0  0  0  0  0  0  0  0  0  0  0  0
  -10.9245    1.5140  -23.7737 C   0  0  0  0  0  0  0  0  0  0  0  0
  -11.9388    0.5593  -23.6413 C   0  0  0  0  0  0  0  0  0  0  0  0
  -13.2382    0.8990  -23.6319 N   0  0  0  0  0  0  0  0  0  0  0  0
  -13.6478    2.1859  -23.7498 C   0  0  0  0  0  0  0  0  0  0  0  0
  -12.6802    3.1803  -23.8848 C   0  0  0  0  0  0  0  0  0  0  0  0
  -13.1013    4.5052  -24.0084 C   0  0  0  0  0  0  0  0  0  0  0  0
  -12.1212    5.4807  -24.1422 C   0  0  0  0  0  0  0  0  0  0  0  0
  -10.7889    5.1400  -24.1510 C   0  0  0  0  0  0  0  0  0  0  0  0
  -10.3726    3.8164  -24.0285 C   0  0  0  0  0  0  0  0  0  0  0  0
  -11.3389    2.8432  -23.8954 C   0  0  0  0  0  0  0  0  0  0  0  0
   -6.4439   -3.4272  -21.9764 C   0  0  0  0  0  0  0  0  0  0  0  0
   -5.7113   -4.6593  -25.5586 C   0  0  0  0  0  0  0  0  0  0  0  0
   -5.5605   -3.9921  -24.2820 N   0  0  0  0  0  0  0  0  0  0  0  0
   -6.5737   -4.1040  -23.2950 C   0  0  0  0  0  0  0  0  0  0  0  0
   -7.6179   -4.7778  -23.4955 O   0  0  0  0  0  0  0  0  0  0  0  0
   -4.7530   -3.4596  -24.0986 H   0  0  0  0  0  0  0  0  0  0  0  0
   -7.5681   -0.7783  -25.6490 C   0  0  0  0  0  0  0  0  0  0  0  0
   -6.4429   -0.5878  -26.5870 N   0  0  0  0  0  0  0  0  0  0  0  0
   -6.4871   -0.8602  -27.5320 H   0  0  0  0  0  0  0  0  0  0  0  0
   -5.2856    0.0227  -26.0144 C   0  0  0  0  0  0  0  0  0  0  0  0
   -4.3833   -0.6906  -25.2637 C   0  0  0  0  0  0  0  0  0  0  0  0
   -3.2546   -0.1573  -24.6913 C   0  0  0  0  0  0  0  0  0  0  0  0
   -3.0086    1.1849  -24.8817 C   0  0  0  0  0  0  0  0  0  0  0  0
   -3.9029    1.9500  -25.6402 C   0  0  0  0  0  0  0  0  0  0  0  0
   -5.0225    1.3863  -26.1991 C   0  0  0  0  0  0  0  0  0  0  0  0
 29 30  1  0  0  0
 30 31  1  0  0  0
 30 33  1  0  0  0
 31 32  2  0  0  0
 31 28  1  0  0  0
 28  1  1  0  0  0
  1  2  1  0  0  0
  3  2  1  0  0  0
  3  4  1  0  0  0
  3  9  1  0  0  0
  4  5  2  0  0  0
  4  6  1  0  0  0
  6 18  1  0  0  0
  6  7  1  0  0  0
 18 19  2  0  0  0
 19 20  1  0  0  0
 20 21  2  0  0  0
 21 22  1  0  0  0
 22 23  2  0  0  0
 23 24  1  0  0  0
 24 25  2  0  0  0
 25 26  1  0  0  0
 26 27  2  0  0  0
 27 18  1  0  0  0
 27 22  1  0  0  0
  7  8  1  0  0  0
  8 34  1  0  0  0
  8  3  1  0  0  0
 34 35  1  0  0  0
 35 37  1  0  0  0
 35 36  1  0  0  0
 37 38  2  0  0  0
 38 39  1  0  0  0
 39 40  2  0  0  0
 40 41  1  0  0  0
 41 42  2  0  0  0
 42 37  1  0  0  0
  9 10  2  0  0  0
 10 11  1  0  0  0
 11 12  1  0  0  0
 11 13  2  0  0  0
 13 14  1  0  0  0
 14 15  2  0  0  0
 15 16  1  0  0  0
 15  9  1  0  0  0
 16 17  2  0  0  0
 16  1  1  0  0  0
M  END
> <minimizedAffinity>
-7.09982

> <CNNscore>
0.1975850165

> <CNNaffinity>
5.9516835213

> <CNN_VS>
1.1759635210

> <CNNaffinity_variance>
0.3054484427

$$$$



 42 47  0  0  0  0  0  0  0  0999 V2000
   -6.7706   -3.3443  -24.7075 N   0  0  0  0  0  0  0  0  0  0  0  0
   -6.5795   -2.0295  -24.1687 C   0  0  0  0  0  0  0  0  0  0  0  0
   -7.7809   -1.3187  -23.6621 C   0  0  0  0  0  0  0  0  0  0  0  0
   -7.9788   -0.0143  -24.4161 C   0  0  0  0  0  0  0  0  0  0  0  0
   -8.2554    0.0168  -25.6573 O   0  0  0  0  0  0  0  0  0  0  0  0
   -7.8173    1.0809  -23.5713 N   0  0  0  0  0  0  0  0  0  0  0  0
   -7.8949    0.6147  -22.2038 C   0  0  0  0  0  0  0  0  0  0  0  0
   -7.6785   -0.8557  -22.2318 C   0  0  0  0  0  0  0  0  0  0  0  0
   -9.0596   -2.0587  -23.8112 C   0  0  0  0  0  0  0  0  0  0  0  0
  -10.2259   -1.4450  -23.3712 C   0  0  0  0  0  0  0  0  0  0  0  0
  -11.4507   -2.0809  -23.4851 C   0  0  0  0  0  0  0  0  0  0  0  0
  -12.9131   -1.2589  -22.9106 Cl  0  0  0  0  0  0  0  0  0  0  0  0
  -11.5690   -3.3304  -24.0306 C   0  0  0  0  0  0  0  0  0  0  0  0
  -10.4143   -3.9560  -24.4740 C   0  0  0  0  0  0  0  0  0  0  0  0
   -9.1934   -3.3075  -24.3539 C   0  0  0  0  0  0  0  0  0  0  0  0
   -8.0143   -4.0105  -24.8344 C   0  0  0  0  0  0  0  0  0  0  0  0
   -8.0955   -5.1772  -25.3486 O   0  0  0  0  0  0  0  0  0  0  0  0
   -7.6049    2.4437  -23.9172 C   0  0  0  0  0  0  0  0  0  0  0  0
   -6.3183    2.9722  -24.0698 C   0  0  0  0  0  0  0  0  0  0  0  0
   -6.1124    4.2571  -24.4023 N   0  0  0  0  0  0  0  0  0  0  0  0
   -7.1361    5.1210  -24.6107 C   0  0  0  0  0  0  0  0  0  0  0  0
   -8.4406    4.6494  -24.4723 C   0  0  0  0  0  0  0  0  0  0  0  0
   -9.4950    5.5388  -24.6845 C   0  0  0  0  0  0  0  0  0  0  0  0
  -10.7872    5.0488  -24.5412 C   0  0  0  0  0  0  0  0  0  0  0  0
  -11.0053    3.7339  -24.2025 C   0  0  0  0  0  0  0  0  0  0  0  0
   -9.9502    2.8496  -23.9904 C   0  0  0  0  0  0  0  0  0  0  0  0
   -8.6658    3.3282  -24.1306 C   0  0  0  0  0  0  0  0  0  0  0  0
   -5.5447   -4.0310  -25.1639 C   0  0  0  0  0  0  0  0  0  0  0  0
   -5.6367   -5.5066  -28.7279 C   0  0  0  0  0  0  0  0  0  0  0  0
   -5.6157   -5.4176  -27.2824 N   0  0  0  0  0  0  0  0  0  0  0  0
   -5.5688   -4.1498  -26.6468 C   0  0  0  0  0  0  0  0  0  0  0  0
   -5.5459   -3.0802  -27.3102 O   0  0  0  0  0  0  0  0  0  0  0  0
   -5.6340   -6.2387  -26.7395 H   0  0  0  0  0  0  0  0  0  0  0  0
   -6.3514   -1.1597  -21.5760 C   0  0  0  0  0  0  0  0  0  0  0  0
   -6.0908   -0.0297  -20.6610 N   0  0  0  0  0  0  0  0  0  0  0  0
   -6.7712    0.3197  -20.0412 H   0  0  0  0  0  0  0  0  0  0  0  0
   -4.7737    0.5159  -20.7465 C   0  0  0  0  0  0  0  0  0  0  0  0
   -4.1726    1.1357  -19.6783 C   0  0  0  0  0  0  0  0  0  0  0  0
   -2.9103    1.6761  -19.7026 C   0  0  0  0  0  0  0  0  0  0  0  0
   -2.1963    1.5921  -20.8779 C   0  0  0  0  0  0  0  0  0  0  0  0
   -2.7712    0.9688  -21.9920 C   0  0  0  0  0  0  0  0  0  0  0  0
   -4.0358    0.4385  -21.9349 C   0  0  0  0  0  0  0  0  0  0  0  0
 29 30  1  0  0  0
 30 31  1  0  0  0
 30 33  1  0  0  0
 31 32  2  0  0  0
 31 28  1  0  0  0
 28  1  1  0  0  0
  1  2  1  0  0  0
  3  2  1  0  0  0
  3  4  1  0  0  0
  3  9  1  0  0  0
  4  5  2  0  0  0
  4  6  1  0  0  0
  6 18  1  0  0  0
  6  7  1  0  0  0
 18 19  2  0  0  0
 19 20  1  0  0  0
 20 21  2  0  0  0
 21 22  1  0  0  0
 22 23  2  0  0  0
 23 24  1  0  0  0
 24 25  2  0  0  0
 25 26  1  0  0  0
 26 27  2  0  0  0
 27 18  1  0  0  0
 27 22  1  0  0  0
  7  8  1  0  0  0
  8 34  1  0  0  0
  8  3  1  0  0  0
 34 35  1  0  0  0
 35 37  1  0  0  0
 35 36  1  0  0  0
 37 38  2  0  0  0
 38 39  1  0  0  0
 39 40  2  0  0  0
 40 41  1  0  0  0
 41 42  2  0  0  0
 42 37  1  0  0  0
  9 10  2  0  0  0
 10 11  1  0  0  0
 11 12  1  0  0  0
 11 13  2  0  0  0
 13 14  1  0  0  0
 14 15  2  0  0  0
 15 16  1  0  0  0
 15  9  1  0  0  0
 16 17  2  0  0  0
 16  1  1  0  0  0
M  END
> <minimizedAffinity>
-6.94536

> <CNNscore>
0.1785503626

> <CNNaffinity>
6.3114519119

> <CNN_VS>
1.1269119978

> <CNNaffinity_variance>
0.1301620454

$$$$



 42 47  0  0  0  0  0  0  0  0999 V2000
  -11.4962    1.2678  -23.0741 N   0  0  0  0  0  0  0  0  0  0  0  0
  -10.0894    1.5439  -23.0926 C   0  0  0  0  0  0  0  0  0  0  0  0
   -9.1754    0.4100  -23.3828 C   0  0  0  0  0  0  0  0  0  0  0  0
   -8.2151    0.1971  -22.2245 C   0  0  0  0  0  0  0  0  0  0  0  0
   -8.6109   -0.1744  -21.0742 O   0  0  0  0  0  0  0  0  0  0  0  0
   -6.9026    0.4603  -22.6087 N   0  0  0  0  0  0  0  0  0  0  0  0
   -6.8468    0.4744  -24.0543 C   0  0  0  0  0  0  0  0  0  0  0  0
   -8.2412    0.6391  -24.5426 C   0  0  0  0  0  0  0  0  0  0  0  0
   -9.8435   -0.9003  -23.5875 C   0  0  0  0  0  0  0  0  0  0  0  0
   -9.0458   -2.0077  -23.8484 C   0  0  0  0  0  0  0  0  0  0  0  0
   -9.6074   -3.2581  -24.0452 C   0  0  0  0  0  0  0  0  0  0  0  0
   -8.5503   -4.6430  -24.3747 Cl  0  0  0  0  0  0  0  0  0  0  0  0
  -10.9599   -3.4599  -23.9926 C   0  0  0  0  0  0  0  0  0  0  0  0
  -11.7691   -2.3648  -23.7336 C   0  0  0  0  0  0  0  0  0  0  0  0
  -11.1933   -1.1174  -23.5382 C   0  0  0  0  0  0  0  0  0  0  0  0
  -12.0894   -0.0034  -23.2709 C   0  0  0  0  0  0  0  0  0  0  0  0
  -13.3557   -0.1632  -23.2155 O   0  0  0  0  0  0  0  0  0  0  0  0
   -5.7668    0.6902  -21.7846 C   0  0  0  0  0  0  0  0  0  0  0  0
   -5.3434   -0.2480  -20.8367 C   0  0  0  0  0  0  0  0  0  0  0  0
   -4.2678   -0.0385  -20.0602 N   0  0  0  0  0  0  0  0  0  0  0  0
   -3.5260    1.0929  -20.1459 C   0  0  0  0  0  0  0  0  0  0  0  0
   -3.9014    2.0635  -21.0735 C   0  0  0  0  0  0  0  0  0  0  0  0
   -3.1394    3.2296  -21.1608 C   0  0  0  0  0  0  0  0  0  0  0  0
   -3.5306    4.1843  -22.0912 C   0  0  0  0  0  0  0  0  0  0  0  0
   -4.6300    3.9755  -22.8906 C   0  0  0  0  0  0  0  0  0  0  0  0
   -5.3886    2.8108  -22.7997 C   0  0  0  0  0  0  0  0  0  0  0  0
   -5.0068    1.8593  -21.8791 C   0  0  0  0  0  0  0  0  0  0  0  0
  -12.3712    2.4309  -22.8205 C   0  0  0  0  0  0  0  0  0  0  0  0
  -10.6250    5.6264  -24.0960 C   0  0  0  0  0  0  0  0  0  0  0  0
  -11.0178    4.5318  -23.2326 N   0  0  0  0  0  0  0  0  0  0  0  0
  -11.9499    3.5637  -23.6881 C   0  0  0  0  0  0  0  0  0  0  0  0
  -12.4548    3.6252  -24.8396 O   0  0  0  0  0  0  0  0  0  0  0  0
  -10.6372    4.4593  -22.3275 H   0  0  0  0  0  0  0  0  0  0  0  0
   -8.3698    2.0026  -25.1815 C   0  0  0  0  0  0  0  0  0  0  0  0
   -7.1500    2.1778  -25.9959 N   0  0  0  0  0  0  0  0  0  0  0  0
   -6.7298    1.4368  -26.4894 H   0  0  0  0  0  0  0  0  0  0  0  0
   -6.6283    3.5073  -26.0109 C   0  0  0  0  0  0  0  0  0  0  0  0
   -5.4086    3.8035  -26.5686 C   0  0  0  0  0  0  0  0  0  0  0  0
   -4.8589    5.0612  -26.6127 C   0  0  0  0  0  0  0  0  0  0  0  0
   -5.5784    6.0982  -26.0604 C   0  0  0  0  0  0  0  0  0  0  0  0
   -6.8266    5.8409  -25.4808 C   0  0  0  0  0  0  0  0  0  0  0  0
   -7.3482    4.5717  -25.4528 C   0  0  0  0  0  0  0  0  0  0  0  0
 29 30  1  0  0  0
 30 31  1  0  0  0
 30 33  1  0  0  0
 31 32  2  0  0  0
 31 28  1  0  0  0
 28  1  1  0  0  0
  1  2  1  0  0  0
  3  2  1  0  0  0
  3  4  1  0  0  0
  3  9  1  0  0  0
  4  5  2  0  0  0
  4  6  1  0  0  0
  6 18  1  0  0  0
  6  7  1  0  0  0
 18 19  2  0  0  0
 19 20  1  0  0  0
 20 21  2  0  0  0
 21 22  1  0  0  0
 22 23  2  0  0  0
 23 24  1  0  0  0
 24 25  2  0  0  0
 25 26  1  0  0  0
 26 27  2  0  0  0
 27 18  1  0  0  0
 27 22  1  0  0  0
  7  8  1  0  0  0
  8 34  1  0  0  0
  8  3  1  0  0  0
 34 35  1  0  0  0
 35 37  1  0  0  0
 35 36  1  0  0  0
 37 38  2  0  0  0
 38 39  1  0  0  0
 39 40  2  0  0  0
 40 41  1  0  0  0
 41 42  2  0  0  0
 42 37  1  0  0  0
  9 10  2  0  0  0
 10 11  1  0  0  0
 11 12  1  0  0  0
 11 13  2  0  0  0
 13 14  1  0  0  0
 14 15  2  0  0  0
 15 16  1  0  0  0
 15  9  1  0  0  0
 16 17  2  0  0  0
 16  1  1  0  0  0
M  END
> <minimizedAffinity>
-7.18078

> <CNNscore>
0.1742528230

> <CNNaffinity>
6.1623358727

> <CNN_VS>
1.0738043785

> <CNNaffinity_variance>
0.1543954760

$$$$



 38 43  0  0  0  0  0  0  0  0999 V2000
   -6.4106   -1.7283  -20.8581 N   0  0  0  0  0  0  0  0  0  0  0  0
   -6.3900   -0.7783  -19.7524 C   0  0  0  0  0  0  0  0  0  0  0  0
   -5.3371    0.2321  -20.1366 C   0  0  0  0  0  0  0  0  0  0  0  0
   -4.4183    0.6915  -19.2165 C   0  0  0  0  0  0  0  0  0  0  0  0
   -3.4635    1.6124  -19.5946 C   0  0  0  0  0  0  0  0  0  0  0  0
   -3.4645    2.0469  -20.9037 C   0  0  0  0  0  0  0  0  0  0  0  0
   -2.2380    3.2271  -21.3811 Cl  0  0  0  0  0  0  0  0  0  0  0  0
   -4.3974    1.5745  -21.8197 C   0  0  0  0  0  0  0  0  0  0  0  0
   -5.3693    0.6426  -21.4517 C   0  0  0  0  0  0  0  0  0  0  0  0
   -6.3381    0.1734  -22.4533 C   0  0  0  0  0  0  0  0  0  0  0  0
   -5.8729    0.3089  -23.8583 C   0  0  0  0  0  0  0  0  0  0  0  0
   -6.4429    1.5673  -24.4029 C   0  0  0  0  0  0  0  0  0  0  0  0
   -7.1747    2.1920  -23.3215 N   0  0  0  0  0  0  0  0  0  0  0  0
   -7.4840    1.1537  -22.4034 C   0  0  0  0  0  0  0  0  0  0  0  0
   -8.5256    1.0678  -21.6795 O   0  0  0  0  0  0  0  0  0  0  0  0
   -6.8409   -1.1826  -22.0992 C   0  0  0  0  0  0  0  0  0  0  0  0
   -7.1377   -2.4098  -20.6406 H   0  0  0  0  0  0  0  0  0  0  0  0
   -7.5414    3.5669  -23.1567 C   0  0  0  0  0  0  0  0  0  0  0  0
   -6.8368    4.4286  -22.3404 C   0  0  0  0  0  0  0  0  0  0  0  0
   -7.2300    5.7164  -22.2240 N   0  0  0  0  0  0  0  0  0  0  0  0
   -8.3086    6.1305  -22.9130 C   0  0  0  0  0  0  0  0  0  0  0  0
   -9.0440    5.3074  -23.7402 C   0  0  0  0  0  0  0  0  0  0  0  0
  -10.1353    5.7947  -24.4153 C   0  0  0  0  0  0  0  0  0  0  0  0
  -10.8604    4.9353  -25.2463 C   0  0  0  0  0  0  0  0  0  0  0  0
  -10.4559    3.6212  -25.3626 C   0  0  0  0  0  0  0  0  0  0  0  0
   -9.3561    3.1546  -24.6745 C   0  0  0  0  0  0  0  0  0  0  0  0
   -8.6464    3.9916  -23.8624 C   0  0  0  0  0  0  0  0  0  0  0  0
   -5.1529   -2.4391  -20.9443 C   0  0  0  0  0  0  0  0  0  0  0  0
   -5.2901   -4.2672  -19.4137 O   0  0  0  0  0  0  0  0  0  0  0  0
   -5.3423   -3.8962  -20.6138 C   0  0  0  0  0  0  0  0  0  0  0  0
   -5.5728   -4.7774  -21.7036 N   0  0  0  0  0  0  0  0  0  0  0  0
   -5.6025   -4.4240  -22.6220 H   0  0  0  0  0  0  0  0  0  0  0  0
   -5.7641   -6.1919  -21.4699 C   0  0  0  0  0  0  0  0  0  0  0  0
   -6.0187   -6.9362  -22.7702 C   0  0  0  0  0  0  0  0  0  0  0  0
   -7.4950   -7.2040  -22.9343 C   0  0  0  0  0  0  0  0  0  0  0  0
   -7.4362   -6.5822  -24.2940 C   0  0  0  0  0  0  0  0  0  0  0  0
   -8.4769   -5.6798  -24.5359 F   0  0  0  0  0  0  0  0  0  0  0  0
   -6.1238   -5.9343  -23.9146 C   0  0  0  0  0  0  0  0  0  0  0  0
 29 30  2  0  0  0
 30 28  1  0  0  0
 30 31  1  0  0  0
  1 28  1  0  0  0
  1  2  1  0  0  0
  1 17  1  0  0  0
  2  3  1  0  0  0
  3  4  2  0  0  0
  4  5  1  0  0  0
  5  6  2  0  0  0
  6  7  1  0  0  0
  6  8  1  0  0  0
  8  9  2  0  0  0
  9  3  1  0  0  0
 10  9  1  0  0  0
 10 11  1  0  0  0
 10 16  1  0  0  0
 11 12  1  0  0  0
 12 13  1  0  0  0
 13 18  1  0  0  0
 13 14  1  0  0  0
 18 19  2  0  0  0
 19 20  1  0  0  0
 20 21  2  0  0  0
 21 22  1  0  0  0
 22 23  2  0  0  0
 23 24  1  0  0  0
 24 25  2  0  0  0
 25 26  1  0  0  0
 26 27  2  0  0  0
 27 18  1  0  0  0
 27 22  1  0  0  0
 14 15  2  0  0  0
 14 10  1  0  0  0
 16  1  1  0  0  0
 31 33  1  0  0  0
 31 32  1  0  0  0
 34 33  1  0  0  0
 34 35  1  0  0  0
 35 36  1  0  0  0
 36 37  1  0  0  0
 36 38  1  0  0  0
 38 34  1  0  0  0
M  CHG 1   1   1
M  END
> <minimizedAffinity>
-8.56245

> <CNNscore>
0.2891370952

> <CNNaffinity>
6.0423369408

> <CNN_VS>
1.7470637560

> <CNNaffinity_variance>
0.1098032594

$$$$



 38 43  0  0  0  0  0  0  0  0999 V2000
   -7.3545   -3.0488  -22.4047 N   0  0  0  0  0  0  0  0  0  0  0  0
   -8.2291   -4.1904  -22.6446 C   0  0  0  0  0  0  0  0  0  0  0  0
   -8.6677   -4.0403  -24.0806 C   0  0  0  0  0  0  0  0  0  0  0  0
   -9.9794   -4.2474  -24.4524 C   0  0  0  0  0  0  0  0  0  0  0  0
  -10.3551   -4.0999  -25.7713 C   0  0  0  0  0  0  0  0  0  0  0  0
   -9.3854   -3.7442  -26.6856 C   0  0  0  0  0  0  0  0  0  0  0  0
   -9.8741   -3.5569  -28.3741 Cl  0  0  0  0  0  0  0  0  0  0  0  0
   -8.0670   -3.5390  -26.2955 C   0  0  0  0  0  0  0  0  0  0  0  0
   -7.6721   -3.6845  -24.9646 C   0  0  0  0  0  0  0  0  0  0  0  0
   -6.2659   -3.4607  -24.5983 C   0  0  0  0  0  0  0  0  0  0  0  0
   -5.5221   -2.5914  -25.5469 C   0  0  0  0  0  0  0  0  0  0  0  0
   -4.7777   -3.4751  -26.4798 C   0  0  0  0  0  0  0  0  0  0  0  0
   -5.1273   -4.8353  -26.1289 N   0  0  0  0  0  0  0  0  0  0  0  0
   -5.5791   -4.7914  -24.7833 C   0  0  0  0  0  0  0  0  0  0  0  0
   -5.4328   -5.6989  -23.9050 O   0  0  0  0  0  0  0  0  0  0  0  0
   -6.1563   -3.0499  -23.1713 C   0  0  0  0  0  0  0  0  0  0  0  0
   -7.0162   -3.1397  -21.4467 H   0  0  0  0  0  0  0  0  0  0  0  0
   -5.0535   -6.0206  -26.9297 C   0  0  0  0  0  0  0  0  0  0  0  0
   -6.1601   -6.5664  -27.5484 C   0  0  0  0  0  0  0  0  0  0  0  0
   -6.0296   -7.6872  -28.2923 N   0  0  0  0  0  0  0  0  0  0  0  0
   -4.8131   -8.2486  -28.4124 C   0  0  0  0  0  0  0  0  0  0  0  0
   -3.6792   -7.7403  -27.8136 C   0  0  0  0  0  0  0  0  0  0  0  0
   -2.4670   -8.3633  -27.9772 C   0  0  0  0  0  0  0  0  0  0  0  0
   -1.3359   -7.8238  -27.3574 C   0  0  0  0  0  0  0  0  0  0  0  0
   -1.4730   -6.6794  -26.5987 C   0  0  0  0  0  0  0  0  0  0  0  0
   -2.7012   -6.0712  -26.4489 C   0  0  0  0  0  0  0  0  0  0  0  0
   -3.8073   -6.5960  -27.0530 C   0  0  0  0  0  0  0  0  0  0  0  0
   -8.0964   -1.8095  -22.4937 C   0  0  0  0  0  0  0  0  0  0  0  0
   -8.2773    0.2235  -21.2538 O   0  0  0  0  0  0  0  0  0  0  0  0
   -7.8719   -0.9665  -21.2660 C   0  0  0  0  0  0  0  0  0  0  0  0
   -7.2016   -1.5838  -20.1765 N   0  0  0  0  0  0  0  0  0  0  0  0
   -6.9088   -2.5210  -20.2486 H   0  0  0  0  0  0  0  0  0  0  0  0
   -6.9473   -0.8415  -18.9615 C   0  0  0  0  0  0  0  0  0  0  0  0
   -5.4570   -0.7260  -18.6875 C   0  0  0  0  0  0  0  0  0  0  0  0
   -4.7253   -0.3428  -19.9508 C   0  0  0  0  0  0  0  0  0  0  0  0
   -4.0831    0.7887  -19.2117 C   0  0  0  0  0  0  0  0  0  0  0  0
   -4.1088    1.9962  -19.9166 F   0  0  0  0  0  0  0  0  0  0  0  0
   -5.1483    0.6653  -18.1457 C   0  0  0  0  0  0  0  0  0  0  0  0
 29 30  2  0  0  0
 30 28  1  0  0  0
 30 31  1  0  0  0
  1 28  1  0  0  0
  1  2  1  0  0  0
  1 17  1  0  0  0
  2  3  1  0  0  0
  3  4  2  0  0  0
  4  5  1  0  0  0
  5  6  2  0  0  0
  6  7  1  0  0  0
  6  8  1  0  0  0
  8  9  2  0  0  0
  9  3  1  0  0  0
 10  9  1  0  0  0
 10 11  1  0  0  0
 10 16  1  0  0  0
 11 12  1  0  0  0
 12 13  1  0  0  0
 13 18  1  0  0  0
 13 14  1  0  0  0
 18 19  2  0  0  0
 19 20  1  0  0  0
 20 21  2  0  0  0
 21 22  1  0  0  0
 22 23  2  0  0  0
 23 24  1  0  0  0
 24 25  2  0  0  0
 25 26  1  0  0  0
 26 27  2  0  0  0
 27 18  1  0  0  0
 27 22  1  0  0  0
 14 15  2  0  0  0
 14 10  1  0  0  0
 16  1  1  0  0  0
 31 33  1  0  0  0
 31 32  1  0  0  0
 34 33  1  0  0  0
 34 35  1  0  0  0
 35 36  1  0  0  0
 36 37  1  0  0  0
 36 38  1  0  0  0
 38 34  1  0  0  0
M  CHG 1   1   1
M  END
> <minimizedAffinity>
-6.61253

> <CNNscore>
0.2847459018

> <CNNaffinity>
5.9867486954

> <CNN_VS>
1.7047021389

> <CNNaffinity_variance>
0.3471792042

$$$$



 38 43  0  0  0  0  0  0  0  0999 V2000
   -4.9636    0.7480  -21.6119 N   0  0  0  0  0  0  0  0  0  0  0  0
   -5.6319    1.9469  -21.1205 C   0  0  0  0  0  0  0  0  0  0  0  0
   -6.1046    2.6578  -22.3648 C   0  0  0  0  0  0  0  0  0  0  0  0
   -5.9635    4.0224  -22.5053 C   0  0  0  0  0  0  0  0  0  0  0  0
   -6.4005    4.6473  -23.6546 C   0  0  0  0  0  0  0  0  0  0  0  0
   -6.9732    3.8682  -24.6384 C   0  0  0  0  0  0  0  0  0  0  0  0
   -7.5310    4.6758  -26.1086 Cl  0  0  0  0  0  0  0  0  0  0  0  0
   -7.1086    2.4935  -24.4820 C   0  0  0  0  0  0  0  0  0  0  0  0
   -6.6711    1.8474  -23.3247 C   0  0  0  0  0  0  0  0  0  0  0  0
   -6.8379    0.3917  -23.2015 C   0  0  0  0  0  0  0  0  0  0  0  0
   -6.9512   -0.3189  -24.5019 C   0  0  0  0  0  0  0  0  0  0  0  0
   -8.3955   -0.5253  -24.7788 C   0  0  0  0  0  0  0  0  0  0  0  0
   -9.1188    0.1077  -23.6965 N   0  0  0  0  0  0  0  0  0  0  0  0
   -8.2099    0.1869  -22.6082 C   0  0  0  0  0  0  0  0  0  0  0  0
   -8.4980    0.1016  -21.3728 O   0  0  0  0  0  0  0  0  0  0  0  0
   -5.8175   -0.1750  -22.2770 C   0  0  0  0  0  0  0  0  0  0  0  0
   -4.6584    0.2288  -20.7887 H   0  0  0  0  0  0  0  0  0  0  0  0
  -10.4717    0.5775  -23.6693 C   0  0  0  0  0  0  0  0  0  0  0  0
  -10.8100    1.8794  -23.9792 C   0  0  0  0  0  0  0  0  0  0  0  0
  -12.1044    2.2658  -23.9364 N   0  0  0  0  0  0  0  0  0  0  0  0
  -13.0399    1.3637  -23.5894 C   0  0  0  0  0  0  0  0  0  0  0  0
  -12.7508    0.0530  -23.2716 C   0  0  0  0  0  0  0  0  0  0  0  0
  -13.7547   -0.8170  -22.9257 C   0  0  0  0  0  0  0  0  0  0  0  0
  -13.4296   -2.1393  -22.6088 C   0  0  0  0  0  0  0  0  0  0  0  0
  -12.1070   -2.5301  -22.6536 C   0  0  0  0  0  0  0  0  0  0  0  0
  -11.1159   -1.6383  -23.0041 C   0  0  0  0  0  0  0  0  0  0  0  0
  -11.4306   -0.3464  -23.3140 C   0  0  0  0  0  0  0  0  0  0  0  0
   -3.7841    1.0969  -22.3743 C   0  0  0  0  0  0  0  0  0  0  0  0
   -2.7053    0.9457  -20.2491 O   0  0  0  0  0  0  0  0  0  0  0  0
   -2.5783    1.1866  -21.4764 C   0  0  0  0  0  0  0  0  0  0  0  0
   -1.3475    1.5460  -22.0876 N   0  0  0  0  0  0  0  0  0  0  0  0
   -1.3140    1.7222  -23.0556 H   0  0  0  0  0  0  0  0  0  0  0  0
   -0.1432    1.6541  -21.2938 C   0  0  0  0  0  0  0  0  0  0  0  0
    0.3907    3.0768  -21.2929 C   0  0  0  0  0  0  0  0  0  0  0  0
   -0.3560    3.9120  -22.3042 C   0  0  0  0  0  0  0  0  0  0  0  0
   -0.6331    4.9221  -21.2356 C   0  0  0  0  0  0  0  0  0  0  0  0
   -1.9624    5.3563  -21.2150 F   0  0  0  0  0  0  0  0  0  0  0  0
   -0.3018    3.8765  -20.1949 C   0  0  0  0  0  0  0  0  0  0  0  0
 29 30  2  0  0  0
 30 28  1  0  0  0
 30 31  1  0  0  0
  1 28  1  0  0  0
  1  2  1  0  0  0
  1 17  1  0  0  0
  2  3  1  0  0  0
  3  4  2  0  0  0
  4  5  1  0  0  0
  5  6  2  0  0  0
  6  7  1  0  0  0
  6  8  1  0  0  0
  8  9  2  0  0  0
  9  3  1  0  0  0
 10  9  1  0  0  0
 10 11  1  0  0  0
 10 16  1  0  0  0
 11 12  1  0  0  0
 12 13  1  0  0  0
 13 18  1  0  0  0
 13 14  1  0  0  0
 18 19  2  0  0  0
 19 20  1  0  0  0
 20 21  2  0  0  0
 21 22  1  0  0  0
 22 23  2  0  0  0
 23 24  1  0  0  0
 24 25  2  0  0  0
 25 26  1  0  0  0
 26 27  2  0  0  0
 27 18  1  0  0  0
 27 22  1  0  0  0
 14 15  2  0  0  0
 14 10  1  0  0  0
 16  1  1  0  0  0
 31 33  1  0  0  0
 31 32  1  0  0  0
 34 33  1  0  0  0
 34 35  1  0  0  0
 35 36  1  0  0  0
 36 37  1  0  0  0
 36 38  1  0  0  0
 38 34  1  0  0  0
M  CHG 1   1   1
M  END
> <minimizedAffinity>
-6.89089

> <CNNscore>
0.2319912463

> <CNNaffinity>
5.8123717308

> <CNN_VS>
1.3484193087

> <CNNaffinity_variance>
0.2298914641

$$$$



 38 43  0  0  0  0  0  0  0  0999 V2000
   -4.8339    1.1155  -21.6461 N   0  0  0  0  0  0  0  0  0  0  0  0
   -5.8252    2.1655  -21.8471 C   0  0  0  0  0  0  0  0  0  0  0  0
   -6.3640    1.9213  -23.2353 C   0  0  0  0  0  0  0  0  0  0  0  0
   -6.5681    2.9627  -24.1160 C   0  0  0  0  0  0  0  0  0  0  0  0
   -7.0580    2.7119  -25.3807 C   0  0  0  0  0  0  0  0  0  0  0  0
   -7.3305    1.4037  -25.7226 C   0  0  0  0  0  0  0  0  0  0  0  0
   -7.9581    1.0897  -27.3451 Cl  0  0  0  0  0  0  0  0  0  0  0  0
   -7.1196    0.3645  -24.8237 C   0  0  0  0  0  0  0  0  0  0  0  0
   -6.6244    0.6029  -23.5407 C   0  0  0  0  0  0  0  0  0  0  0  0
   -6.4202   -0.5268  -22.6221 C   0  0  0  0  0  0  0  0  0  0  0  0
   -6.2427   -1.8371  -23.3008 C   0  0  0  0  0  0  0  0  0  0  0  0
   -7.5584   -2.5258  -23.3033 C   0  0  0  0  0  0  0  0  0  0  0  0
   -8.5043   -1.6130  -22.6971 N   0  0  0  0  0  0  0  0  0  0  0  0
   -7.7362   -0.7158  -21.9086 C   0  0  0  0  0  0  0  0  0  0  0  0
   -8.0903   -0.1762  -20.8132 O   0  0  0  0  0  0  0  0  0  0  0  0
   -5.3656   -0.2036  -21.6220 C   0  0  0  0  0  0  0  0  0  0  0  0
   -4.4721    1.2363  -20.7001 H   0  0  0  0  0  0  0  0  0  0  0  0
   -9.9302   -1.5740  -22.8274 C   0  0  0  0  0  0  0  0  0  0  0  0
  -10.7193   -2.6954  -22.6691 C   0  0  0  0  0  0  0  0  0  0  0  0
  -12.0605   -2.5979  -22.8041 N   0  0  0  0  0  0  0  0  0  0  0  0
  -12.5984   -1.3991  -23.0920 C   0  0  0  0  0  0  0  0  0  0  0  0
  -11.8516   -0.2515  -23.2592 C   0  0  0  0  0  0  0  0  0  0  0  0
  -12.4647    0.9412  -23.5523 C   0  0  0  0  0  0  0  0  0  0  0  0
  -11.6803    2.0869  -23.7160 C   0  0  0  0  0  0  0  0  0  0  0  0
  -10.3113    1.9834  -23.5775 C   0  0  0  0  0  0  0  0  0  0  0  0
   -9.7181    0.7743  -23.2827 C   0  0  0  0  0  0  0  0  0  0  0  0
  -10.4817   -0.3460  -23.1224 C   0  0  0  0  0  0  0  0  0  0  0  0
   -3.7269    1.2758  -22.5644 C   0  0  0  0  0  0  0  0  0  0  0  0
   -2.7502    3.4156  -22.9770 O   0  0  0  0  0  0  0  0  0  0  0  0
   -2.8789    2.4574  -22.1734 C   0  0  0  0  0  0  0  0  0  0  0  0
   -2.2651    2.4122  -20.8933 N   0  0  0  0  0  0  0  0  0  0  0  0
   -2.4054    1.6319  -20.3097 H   0  0  0  0  0  0  0  0  0  0  0  0
   -1.4348    3.5077  -20.4434 C   0  0  0  0  0  0  0  0  0  0  0  0
   -0.0101    3.0486  -20.1818 C   0  0  0  0  0  0  0  0  0  0  0  0
    0.1068    1.5617  -20.4137 C   0  0  0  0  0  0  0  0  0  0  0  0
    1.2624    1.8157  -21.3297 C   0  0  0  0  0  0  0  0  0  0  0  0
    1.1869    1.0991  -22.5283 F   0  0  0  0  0  0  0  0  0  0  0  0
    0.8285    3.2601  -21.4375 C   0  0  0  0  0  0  0  0  0  0  0  0
 29 30  2  0  0  0
 30 28  1  0  0  0
 30 31  1  0  0  0
  1 28  1  0  0  0
  1  2  1  0  0  0
  1 17  1  0  0  0
  2  3  1  0  0  0
  3  4  2  0  0  0
  4  5  1  0  0  0
  5  6  2  0  0  0
  6  7  1  0  0  0
  6  8  1  0  0  0
  8  9  2  0  0  0
  9  3  1  0  0  0
 10  9  1  0  0  0
 10 11  1  0  0  0
 10 16  1  0  0  0
 11 12  1  0  0  0
 12 13  1  0  0  0
 13 18  1  0  0  0
 13 14  1  0  0  0
 18 19  2  0  0  0
 19 20  1  0  0  0
 20 21  2  0  0  0
 21 22  1  0  0  0
 22 23  2  0  0  0
 23 24  1  0  0  0
 24 25  2  0  0  0
 25 26  1  0  0  0
 26 27  2  0  0  0
 27 18  1  0  0  0
 27 22  1  0  0  0
 14 15  2  0  0  0
 14 10  1  0  0  0
 16  1  1  0  0  0
 31 33  1  0  0  0
 31 32  1  0  0  0
 34 33  1  0  0  0
 34 35  1  0  0  0
 35 36  1  0  0  0
 36 37  1  0  0  0
 36 38  1  0  0  0
 38 34  1  0  0  0
M  CHG 1   1   1
M  END
> <minimizedAffinity>
-6.79356

> <CNNscore>
0.1525263637

> <CNNaffinity>
5.6428709030

> <CNN_VS>
0.8606866002

> <CNNaffinity_variance>
0.1920709759

$$$$



 38 43  0  0  0  0  0  0  0  0999 V2000
   -6.4980    2.2891  -23.6211 N   0  0  0  0  0  0  0  0  0  0  0  0
   -5.1327    1.8321  -23.3913 C   0  0  0  0  0  0  0  0  0  0  0  0
   -5.1415    1.2967  -21.9805 C   0  0  0  0  0  0  0  0  0  0  0  0
   -4.1161    1.5791  -21.1028 C   0  0  0  0  0  0  0  0  0  0  0  0
   -4.1503    1.0804  -19.8172 C   0  0  0  0  0  0  0  0  0  0  0  0
   -5.2298    0.3033  -19.4519 C   0  0  0  0  0  0  0  0  0  0  0  0
   -5.2669   -0.3324  -17.8028 Cl  0  0  0  0  0  0  0  0  0  0  0  0
   -6.2559    0.0274  -20.3482 C   0  0  0  0  0  0  0  0  0  0  0  0
   -6.2350    0.5250  -21.6522 C   0  0  0  0  0  0  0  0  0  0  0  0
   -7.3406    0.2046  -22.5669 C   0  0  0  0  0  0  0  0  0  0  0  0
   -8.6113   -0.1509  -21.8829 C   0  0  0  0  0  0  0  0  0  0  0  0
   -8.6915   -1.6324  -21.8215 C   0  0  0  0  0  0  0  0  0  0  0  0
   -7.4639   -2.1375  -22.3987 N   0  0  0  0  0  0  0  0  0  0  0  0
   -6.9606   -1.0985  -23.2258 C   0  0  0  0  0  0  0  0  0  0  0  0
   -6.3145   -1.2403  -24.3116 O   0  0  0  0  0  0  0  0  0  0  0  0
   -7.4770    1.2571  -23.6111 C   0  0  0  0  0  0  0  0  0  0  0  0
   -6.5312    2.6301  -24.5819 H   0  0  0  0  0  0  0  0  0  0  0  0
   -6.8372   -3.4120  -22.2124 C   0  0  0  0  0  0  0  0  0  0  0  0
   -5.8416   -3.6183  -21.2788 C   0  0  0  0  0  0  0  0  0  0  0  0
   -5.2867   -4.8437  -21.1478 N   0  0  0  0  0  0  0  0  0  0  0  0
   -5.7224   -5.8414  -21.9379 C   0  0  0  0  0  0  0  0  0  0  0  0
   -6.7136   -5.6838  -22.8840 C   0  0  0  0  0  0  0  0  0  0  0  0
   -7.1117   -6.7451  -23.6583 C   0  0  0  0  0  0  0  0  0  0  0  0
   -8.1189   -6.5535  -24.6089 C   0  0  0  0  0  0  0  0  0  0  0  0
   -8.6830   -5.3010  -24.7398 C   0  0  0  0  0  0  0  0  0  0  0  0
   -8.2667   -4.2501  -23.9506 C   0  0  0  0  0  0  0  0  0  0  0  0
   -7.2833   -4.4344  -23.0217 C   0  0  0  0  0  0  0  0  0  0  0  0
   -6.8188    3.3985  -22.7491 C   0  0  0  0  0  0  0  0  0  0  0  0
   -7.1748    5.1422  -24.3416 O   0  0  0  0  0  0  0  0  0  0  0  0
   -7.6856    4.4022  -23.4630 C   0  0  0  0  0  0  0  0  0  0  0  0
   -9.0551    4.4494  -23.0892 N   0  0  0  0  0  0  0  0  0  0  0  0
   -9.3943    3.8419  -22.3928 H   0  0  0  0  0  0  0  0  0  0  0  0
   -9.9534    5.3861  -23.7276 C   0  0  0  0  0  0  0  0  0  0  0  0
  -11.2447    4.7081  -24.1548 C   0  0  0  0  0  0  0  0  0  0  0  0
  -11.1885    3.2347  -23.8322 C   0  0  0  0  0  0  0  0  0  0  0  0
  -12.4936    3.3632  -23.1116 C   0  0  0  0  0  0  0  0  0  0  0  0
  -12.5024    2.7302  -21.8646 F   0  0  0  0  0  0  0  0  0  0  0  0
  -12.2851    4.8596  -23.0506 C   0  0  0  0  0  0  0  0  0  0  0  0
 29 30  2  0  0  0
 30 28  1  0  0  0
 30 31  1  0  0  0
  1 28  1  0  0  0
  1  2  1  0  0  0
  1 17  1  0  0  0
  2  3  1  0  0  0
  3  4  2  0  0  0
  4  5  1  0  0  0
  5  6  2  0  0  0
  6  7  1  0  0  0
  6  8  1  0  0  0
  8  9  2  0  0  0
  9  3  1  0  0  0
 10  9  1  0  0  0
 10 11  1  0  0  0
 10 16  1  0  0  0
 11 12  1  0  0  0
 12 13  1  0  0  0
 13 18  1  0  0  0
 13 14  1  0  0  0
 18 19  2  0  0  0
 19 20  1  0  0  0
 20 21  2  0  0  0
 21 22  1  0  0  0
 22 23  2  0  0  0
 23 24  1  0  0  0
 24 25  2  0  0  0
 25 26  1  0  0  0
 26 27  2  0  0  0
 27 18  1  0  0  0
 27 22  1  0  0  0
 14 15  2  0  0  0
 14 10  1  0  0  0
 16  1  1  0  0  0
 31 33  1  0  0  0
 31 32  1  0  0  0
 34 33  1  0  0  0
 34 35  1  0  0  0
 35 36  1  0  0  0
 36 37  1  0  0  0
 36 38  1  0  0  0
 38 34  1  0  0  0
M  CHG 1   1   1
M  END
> <minimizedAffinity>
-8.54748

> <CNNscore>
0.1352360547

> <CNNaffinity>
5.7543196678

> <CNN_VS>
0.7781915069

> <CNNaffinity_variance>
1.0602762699

$$$$



 38 43  0  0  0  0  0  0  0  0999 V2000
   -5.1220    4.5186  -22.1660 N   0  0  0  0  0  0  0  0  0  0  0  0
   -5.0996    5.8550  -22.7485 C   0  0  0  0  0  0  0  0  0  0  0  0
   -5.2843    5.6293  -24.2291 C   0  0  0  0  0  0  0  0  0  0  0  0
   -4.5275    6.3146  -25.1561 C   0  0  0  0  0  0  0  0  0  0  0  0
   -4.7135    6.0868  -26.5038 C   0  0  0  0  0  0  0  0  0  0  0  0
   -5.6678    5.1645  -26.8797 C   0  0  0  0  0  0  0  0  0  0  0  0
   -5.9006    4.8778  -28.6084 Cl  0  0  0  0  0  0  0  0  0  0  0  0
   -6.4230    4.4816  -25.9332 C   0  0  0  0  0  0  0  0  0  0  0  0
   -6.2460    4.7016  -24.5662 C   0  0  0  0  0  0  0  0  0  0  0  0
   -7.0697    3.9588  -23.6010 C   0  0  0  0  0  0  0  0  0  0  0  0
   -7.6158    2.6800  -24.1259 C   0  0  0  0  0  0  0  0  0  0  0  0
   -9.0038    2.9376  -24.5868 C   0  0  0  0  0  0  0  0  0  0  0  0
   -9.2469    4.3520  -24.3973 N   0  0  0  0  0  0  0  0  0  0  0  0
   -8.3195    4.7827  -23.4119 C   0  0  0  0  0  0  0  0  0  0  0  0
   -8.5072    5.6881  -22.5392 O   0  0  0  0  0  0  0  0  0  0  0  0
   -6.3638    3.8373  -22.2957 C   0  0  0  0  0  0  0  0  0  0  0  0
   -5.0295    4.6409  -21.1576 H   0  0  0  0  0  0  0  0  0  0  0  0
  -10.2092    5.1957  -25.0406 C   0  0  0  0  0  0  0  0  0  0  0  0
   -9.9384    5.8650  -26.2171 C   0  0  0  0  0  0  0  0  0  0  0  0
  -10.8862    6.6478  -26.7785 N   0  0  0  0  0  0  0  0  0  0  0  0
  -12.0816    6.7566  -26.1711 C   0  0  0  0  0  0  0  0  0  0  0  0
  -12.3985    6.1080  -24.9958 C   0  0  0  0  0  0  0  0  0  0  0  0
  -13.6388    6.2626  -24.4282 C   0  0  0  0  0  0  0  0  0  0  0  0
  -13.9298    5.5920  -23.2365 C   0  0  0  0  0  0  0  0  0  0  0  0
  -12.9595    4.7936  -22.6663 C   0  0  0  0  0  0  0  0  0  0  0  0
  -11.7208    4.6536  -23.2550 C   0  0  0  0  0  0  0  0  0  0  0  0
  -11.4340    5.3074  -24.4187 C   0  0  0  0  0  0  0  0  0  0  0  0
   -3.9875    3.7441  -22.6211 C   0  0  0  0  0  0  0  0  0  0  0  0
   -4.0696    1.3574  -22.6398 O   0  0  0  0  0  0  0  0  0  0  0  0
   -3.9567    2.3988  -21.9446 C   0  0  0  0  0  0  0  0  0  0  0  0
   -3.7987    2.3930  -20.5331 N   0  0  0  0  0  0  0  0  0  0  0  0
   -3.7153    3.2442  -20.0457 H   0  0  0  0  0  0  0  0  0  0  0  0
   -3.7598    1.1417  -19.8087 C   0  0  0  0  0  0  0  0  0  0  0  0
   -5.1501    0.7176  -19.3655 C   0  0  0  0  0  0  0  0  0  0  0  0
   -5.6192   -0.4602  -20.1846 C   0  0  0  0  0  0  0  0  0  0  0  0
   -5.9184   -1.1969  -18.9170 C   0  0  0  0  0  0  0  0  0  0  0  0
   -5.4507   -2.5149  -18.9187 F   0  0  0  0  0  0  0  0  0  0  0  0
   -5.0356   -0.2223  -18.1705 C   0  0  0  0  0  0  0  0  0  0  0  0
 29 30  2  0  0  0
 30 28  1  0  0  0
 30 31  1  0  0  0
  1 28  1  0  0  0
  1  2  1  0  0  0
  1 17  1  0  0  0
  2  3  1  0  0  0
  3  4  2  0  0  0
  4  5  1  0  0  0
  5  6  2  0  0  0
  6  7  1  0  0  0
  6  8  1  0  0  0
  8  9  2  0  0  0
  9  3  1  0  0  0
 10  9  1  0  0  0
 10 11  1  0  0  0
 10 16  1  0  0  0
 11 12  1  0  0  0
 12 13  1  0  0  0
 13 18  1  0  0  0
 13 14  1  0  0  0
 18 19  2  0  0  0
 19 20  1  0  0  0
 20 21  2  0  0  0
 21 22  1  0  0  0
 22 23  2  0  0  0
 23 24  1  0  0  0
 24 25  2  0  0  0
 25 26  1  0  0  0
 26 27  2  0  0  0
 27 18  1  0  0  0
 27 22  1  0  0  0
 14 15  2  0  0  0
 14 10  1  0  0  0
 16  1  1  0  0  0
 31 33  1  0  0  0
 31 32  1  0  0  0
 34 33  1  0  0  0
 34 35  1  0  0  0
 35 36  1  0  0  0
 36 37  1  0  0  0
 36 38  1  0  0  0
 38 34  1  0  0  0
M  CHG 1   1   1
M  END
> <minimizedAffinity>
-7.19546

> <CNNscore>
0.1257966608

> <CNNaffinity>
5.5330133438

> <CNN_VS>
0.6960346103

> <CNNaffinity_variance>
0.0761191919

$$$$



 38 43  0  0  0  0  0  0  0  0999 V2000
   -9.5117    1.7153  -24.4328 N   0  0  0  0  0  0  0  0  0  0  0  0
   -8.0663    1.5243  -24.4228 C   0  0  0  0  0  0  0  0  0  0  0  0
   -7.7793    0.8507  -23.1033 C   0  0  0  0  0  0  0  0  0  0  0  0
   -6.7142    1.2406  -22.3189 C   0  0  0  0  0  0  0  0  0  0  0  0
   -6.4761    0.6110  -21.1149 C   0  0  0  0  0  0  0  0  0  0  0  0
   -7.3289   -0.4042  -20.7346 C   0  0  0  0  0  0  0  0  0  0  0  0
   -7.0176   -1.2066  -19.1904 Cl  0  0  0  0  0  0  0  0  0  0  0  0
   -8.3984   -0.7861  -21.5363 C   0  0  0  0  0  0  0  0  0  0  0  0
   -8.6518   -0.1582  -22.7570 C   0  0  0  0  0  0  0  0  0  0  0  0
   -9.7927   -0.5976  -23.5738 C   0  0  0  0  0  0  0  0  0  0  0  0
  -10.8669   -1.2755  -22.8020 C   0  0  0  0  0  0  0  0  0  0  0  0
  -10.6572   -2.7402  -22.9280 C   0  0  0  0  0  0  0  0  0  0  0  0
   -9.4480   -2.9199  -23.7032 N   0  0  0  0  0  0  0  0  0  0  0  0
   -9.2686   -1.7179  -24.4379 C   0  0  0  0  0  0  0  0  0  0  0  0
   -8.7636   -1.6082  -25.5995 O   0  0  0  0  0  0  0  0  0  0  0  0
  -10.2677    0.5105  -24.4474 C   0  0  0  0  0  0  0  0  0  0  0  0
   -9.7409    2.1430  -25.3300 H   0  0  0  0  0  0  0  0  0  0  0  0
   -8.5729   -4.0524  -23.7595 C   0  0  0  0  0  0  0  0  0  0  0  0
   -7.4864   -4.1914  -22.9195 C   0  0  0  0  0  0  0  0  0  0  0  0
   -6.6952   -5.2826  -23.0189 N   0  0  0  0  0  0  0  0  0  0  0  0
   -6.9888   -6.2152  -23.9427 C   0  0  0  0  0  0  0  0  0  0  0  0
   -8.0624   -6.1205  -24.8035 C   0  0  0  0  0  0  0  0  0  0  0  0
   -8.3056   -7.1094  -25.7241 C   0  0  0  0  0  0  0  0  0  0  0  0
   -9.4018   -6.9845  -26.5828 C   0  0  0  0  0  0  0  0  0  0  0  0
  -10.2073   -5.8690  -26.4784 C   0  0  0  0  0  0  0  0  0  0  0  0
   -9.9431   -4.8888  -25.5456 C   0  0  0  0  0  0  0  0  0  0  0  0
   -8.8733   -5.0082  -24.7059 C   0  0  0  0  0  0  0  0  0  0  0  0
   -9.9123    2.6364  -23.3910 C   0  0  0  0  0  0  0  0  0  0  0  0
  -12.1866    2.5678  -22.6657 O   0  0  0  0  0  0  0  0  0  0  0  0
  -11.3706    2.9883  -23.5247 C   0  0  0  0  0  0  0  0  0  0  0  0
  -11.7386    3.7903  -24.6377 N   0  0  0  0  0  0  0  0  0  0  0  0
  -11.0508    4.0882  -25.2760 H   0  0  0  0  0  0  0  0  0  0  0  0
  -13.1195    4.1713  -24.8374 C   0  0  0  0  0  0  0  0  0  0  0  0
  -13.2731    5.0719  -26.0517 C   0  0  0  0  0  0  0  0  0  0  0  0
  -13.4588    6.5047  -25.6150 C   0  0  0  0  0  0  0  0  0  0  0  0
  -12.3382    6.9054  -26.5220 C   0  0  0  0  0  0  0  0  0  0  0  0
  -11.4208    7.7720  -25.9194 F   0  0  0  0  0  0  0  0  0  0  0  0
  -11.8934    5.4611  -26.5708 C   0  0  0  0  0  0  0  0  0  0  0  0
 29 30  2  0  0  0
 30 28  1  0  0  0
 30 31  1  0  0  0
  1 28  1  0  0  0
  1  2  1  0  0  0
  1 17  1  0  0  0
  2  3  1  0  0  0
  3  4  2  0  0  0
  4  5  1  0  0  0
  5  6  2  0  0  0
  6  7  1  0  0  0
  6  8  1  0  0  0
  8  9  2  0  0  0
  9  3  1  0  0  0
 10  9  1  0  0  0
 10 11  1  0  0  0
 10 16  1  0  0  0
 11 12  1  0  0  0
 12 13  1  0  0  0
 13 18  1  0  0  0
 13 14  1  0  0  0
 18 19  2  0  0  0
 19 20  1  0  0  0
 20 21  2  0  0  0
 21 22  1  0  0  0
 22 23  2  0  0  0
 23 24  1  0  0  0
 24 25  2  0  0  0
 25 26  1  0  0  0
 26 27  2  0  0  0
 27 18  1  0  0  0
 27 22  1  0  0  0
 14 15  2  0  0  0
 14 10  1  0  0  0
 16  1  1  0  0  0
 31 33  1  0  0  0
 31 32  1  0  0  0
 34 33  1  0  0  0
 34 35  1  0  0  0
 35 36  1  0  0  0
 36 37  1  0  0  0
 36 38  1  0  0  0
 38 34  1  0  0  0
M  CHG 1   1   1
M  END
> <minimizedAffinity>
-7.87739

> <CNNscore>
0.1182779893

> <CNNaffinity>
5.9484815598

> <CNN_VS>
0.7035744190

> <CNNaffinity_variance>
0.1073362008

$$$$



 38 43  0  0  0  0  0  0  0  0999 V2000
   -8.5602    1.8937  -24.5283 N   0  0  0  0  0  0  0  0  0  0  0  0
   -7.1640    1.4924  -24.4049 C   0  0  0  0  0  0  0  0  0  0  0  0
   -7.0806    0.8081  -23.0626 C   0  0  0  0  0  0  0  0  0  0  0  0
   -6.0321    1.0513  -22.2005 C   0  0  0  0  0  0  0  0  0  0  0  0
   -5.9817    0.4155  -20.9775 C   0  0  0  0  0  0  0  0  0  0  0  0
   -7.0017   -0.4562  -20.6576 C   0  0  0  0  0  0  0  0  0  0  0  0
   -6.9305   -1.2675  -19.0886 Cl  0  0  0  0  0  0  0  0  0  0  0  0
   -8.0521   -0.6912  -21.5373 C   0  0  0  0  0  0  0  0  0  0  0  0
   -8.1166   -0.0551  -22.7782 C   0  0  0  0  0  0  0  0  0  0  0  0
   -9.2448   -0.3367  -23.6780 C   0  0  0  0  0  0  0  0  0  0  0  0
  -10.4628   -0.8351  -22.9874 C   0  0  0  0  0  0  0  0  0  0  0  0
  -10.4633   -2.3168  -23.0868 C   0  0  0  0  0  0  0  0  0  0  0  0
   -9.2388   -2.6864  -23.7647 N   0  0  0  0  0  0  0  0  0  0  0  0
   -8.8284   -1.5374  -24.4913 C   0  0  0  0  0  0  0  0  0  0  0  0
   -8.2261   -1.5243  -25.6110 O   0  0  0  0  0  0  0  0  0  0  0  0
   -9.4830    0.8132  -24.5934 C   0  0  0  0  0  0  0  0  0  0  0  0
   -8.6549    2.3342  -25.4435 H   0  0  0  0  0  0  0  0  0  0  0  0
   -8.5392   -3.9362  -23.7452 C   0  0  0  0  0  0  0  0  0  0  0  0
   -7.5115   -4.1960  -22.8611 C   0  0  0  0  0  0  0  0  0  0  0  0
   -6.8875   -5.3944  -22.8894 N   0  0  0  0  0  0  0  0  0  0  0  0
   -7.2871   -6.3133  -23.7869 C   0  0  0  0  0  0  0  0  0  0  0  0
   -8.3081   -6.1001  -24.6895 C   0  0  0  0  0  0  0  0  0  0  0  0
   -8.6663   -7.0817  -25.5797 C   0  0  0  0  0  0  0  0  0  0  0  0
   -9.7052   -6.8352  -26.4822 C   0  0  0  0  0  0  0  0  0  0  0  0
  -10.3399   -5.6104  -26.4504 C   0  0  0  0  0  0  0  0  0  0  0  0
   -9.9625   -4.6398  -25.5469 C   0  0  0  0  0  0  0  0  0  0  0  0
   -8.9483   -4.8779  -24.6646 C   0  0  0  0  0  0  0  0  0  0  0  0
   -8.8978    2.8825  -23.5271 C   0  0  0  0  0  0  0  0  0  0  0  0
   -7.6739    4.8822  -23.0725 O   0  0  0  0  0  0  0  0  0  0  0  0
   -8.3520    4.2333  -23.9089 C   0  0  0  0  0  0  0  0  0  0  0  0
   -8.6451    4.6978  -25.2188 N   0  0  0  0  0  0  0  0  0  0  0  0
   -9.1824    4.1410  -25.8275 H   0  0  0  0  0  0  0  0  0  0  0  0
   -8.1577    5.9853  -25.6622 C   0  0  0  0  0  0  0  0  0  0  0  0
   -8.4516    6.2084  -27.1363 C   0  0  0  0  0  0  0  0  0  0  0  0
   -8.1542    7.6391  -27.5141 C   0  0  0  0  0  0  0  0  0  0  0  0
   -7.2961    7.1436  -28.6353 C   0  0  0  0  0  0  0  0  0  0  0  0
   -6.0629    7.7976  -28.7198 F   0  0  0  0  0  0  0  0  0  0  0  0
   -7.2404    5.7906  -27.9628 C   0  0  0  0  0  0  0  0  0  0  0  0
 29 30  2  0  0  0
 30 28  1  0  0  0
 30 31  1  0  0  0
  1 28  1  0  0  0
  1  2  1  0  0  0
  1 17  1  0  0  0
  2  3  1  0  0  0
  3  4  2  0  0  0
  4  5  1  0  0  0
  5  6  2  0  0  0
  6  7  1  0  0  0
  6  8  1  0  0  0
  8  9  2  0  0  0
  9  3  1  0  0  0
 10  9  1  0  0  0
 10 11  1  0  0  0
 10 16  1  0  0  0
 11 12  1  0  0  0
 12 13  1  0  0  0
 13 18  1  0  0  0
 13 14  1  0  0  0
 18 19  2  0  0  0
 19 20  1  0  0  0
 20 21  2  0  0  0
 21 22  1  0  0  0
 22 23  2  0  0  0
 23 24  1  0  0  0
 24 25  2  0  0  0
 25 26  1  0  0  0
 26 27  2  0  0  0
 27 18  1  0  0  0
 27 22  1  0  0  0
 14 15  2  0  0  0
 14 10  1  0  0  0
 16  1  1  0  0  0
 31 33  1  0  0  0
 31 32  1  0  0  0
 34 33  1  0  0  0
 34 35  1  0  0  0
 35 36  1  0  0  0
 36 37  1  0  0  0
 36 38  1  0  0  0
 38 34  1  0  0  0
M  CHG 1   1   1
M  END
> <minimizedAffinity>
-6.51904

> <CNNscore>
0.1162817329

> <CNNaffinity>
5.7680144310

> <CNN_VS>
0.6707147360

> <CNNaffinity_variance>
0.1709721684

$$$$



 38 43  0  0  0  0  0  0  0  0999 V2000
   -6.6985   -1.5933  -20.7963 N   0  0  0  0  0  0  0  0  0  0  0  0
   -6.5358   -0.3674  -20.0241 C   0  0  0  0  0  0  0  0  0  0  0  0
   -5.8307    0.5830  -20.9604 C   0  0  0  0  0  0  0  0  0  0  0  0
   -4.7865    1.3716  -20.5251 C   0  0  0  0  0  0  0  0  0  0  0  0
   -4.1563    2.2293  -21.4025 C   0  0  0  0  0  0  0  0  0  0  0  0
   -4.6035    2.2661  -22.7068 C   0  0  0  0  0  0  0  0  0  0  0  0
   -3.7911    3.3676  -23.8255 Cl  0  0  0  0  0  0  0  0  0  0  0  0
   -5.6575    1.4650  -23.1307 C   0  0  0  0  0  0  0  0  0  0  0  0
   -6.3048    0.5923  -22.2544 C   0  0  0  0  0  0  0  0  0  0  0  0
   -7.4174   -0.2337  -22.7460 C   0  0  0  0  0  0  0  0  0  0  0  0
   -7.3990   -0.4661  -24.2138 C   0  0  0  0  0  0  0  0  0  0  0  0
   -8.3133    0.5232  -24.8387 C   0  0  0  0  0  0  0  0  0  0  0  0
   -8.8092    1.3620  -23.7682 N   0  0  0  0  0  0  0  0  0  0  0  0
   -8.6577    0.6081  -22.5743 C   0  0  0  0  0  0  0  0  0  0  0  0
   -9.4205    0.6377  -21.5576 O   0  0  0  0  0  0  0  0  0  0  0  0
   -7.5510   -1.4709  -21.9284 C   0  0  0  0  0  0  0  0  0  0  0  0
   -7.2018   -2.2479  -20.1975 H   0  0  0  0  0  0  0  0  0  0  0  0
   -9.3525    2.6856  -23.8375 C   0  0  0  0  0  0  0  0  0  0  0  0
   -8.5557    3.8102  -23.9137 C   0  0  0  0  0  0  0  0  0  0  0  0
   -9.1250    5.0342  -23.9769 N   0  0  0  0  0  0  0  0  0  0  0  0
  -10.4669    5.1274  -23.9637 C   0  0  0  0  0  0  0  0  0  0  0  0
  -11.3038    4.0335  -23.8886 C   0  0  0  0  0  0  0  0  0  0  0  0
  -12.6665    4.1992  -23.8794 C   0  0  0  0  0  0  0  0  0  0  0  0
  -13.4883    3.0708  -23.8025 C   0  0  0  0  0  0  0  0  0  0  0  0
  -12.9034    1.8227  -23.7382 C   0  0  0  0  0  0  0  0  0  0  0  0
  -11.5320    1.6812  -23.7491 C   0  0  0  0  0  0  0  0  0  0  0  0
  -10.7272    2.7815  -23.8240 C   0  0  0  0  0  0  0  0  0  0  0  0
   -5.4109   -2.1783  -21.1030 C   0  0  0  0  0  0  0  0  0  0  0  0
   -5.1226   -3.9452  -19.5225 O   0  0  0  0  0  0  0  0  0  0  0  0
   -5.3812   -3.6326  -20.7124 C   0  0  0  0  0  0  0  0  0  0  0  0
   -5.6534   -4.5785  -21.7363 N   0  0  0  0  0  0  0  0  0  0  0  0
   -5.8494   -4.2690  -22.6501 H   0  0  0  0  0  0  0  0  0  0  0  0
   -5.6439   -5.9947  -21.4422 C   0  0  0  0  0  0  0  0  0  0  0  0
   -6.6815   -6.7364  -22.2684 C   0  0  0  0  0  0  0  0  0  0  0  0
   -7.4688   -5.7614  -23.1095 C   0  0  0  0  0  0  0  0  0  0  0  0
   -7.1596   -6.5862  -24.3191 C   0  0  0  0  0  0  0  0  0  0  0  0
   -6.7412   -5.8258  -25.4158 F   0  0  0  0  0  0  0  0  0  0  0  0
   -6.0361   -7.2462  -23.5522 C   0  0  0  0  0  0  0  0  0  0  0  0
 29 30  2  0  0  0
 30 28  1  0  0  0
 30 31  1  0  0  0
  1 28  1  0  0  0
  1  2  1  0  0  0
  1 17  1  0  0  0
  2  3  1  0  0  0
  3  4  2  0  0  0
  4  5  1  0  0  0
  5  6  2  0  0  0
  6  7  1  0  0  0
  6  8  1  0  0  0
  8  9  2  0  0  0
  9  3  1  0  0  0
 10  9  1  0  0  0
 10 11  1  0  0  0
 10 16  1  0  0  0
 11 12  1  0  0  0
 12 13  1  0  0  0
 13 18  1  0  0  0
 13 14  1  0  0  0
 18 19  2  0  0  0
 19 20  1  0  0  0
 20 21  2  0  0  0
 21 22  1  0  0  0
 22 23  2  0  0  0
 23 24  1  0  0  0
 24 25  2  0  0  0
 25 26  1  0  0  0
 26 27  2  0  0  0
 27 18  1  0  0  0
 27 22  1  0  0  0
 14 15  2  0  0  0
 14 10  1  0  0  0
 16  1  1  0  0  0
 31 33  1  0  0  0
 31 32  1  0  0  0
 34 33  1  0  0  0
 34 35  1  0  0  0
 35 36  1  0  0  0
 36 37  1  0  0  0
 36 38  1  0  0  0
 38 34  1  0  0  0
M  CHG 1   1   1
M  END
> <minimizedAffinity>
-8.82776

> <CNNscore>
0.1080097556

> <CNNaffinity>
5.7321963310

> <CNN_VS>
0.6191331148

> <CNNaffinity_variance>
0.3775397241

$$$$



 44 49  0  0  0  0  0  0  0  0999 V2000
   -6.8714    2.7445  -22.8763 N   0  0  0  0  0  0  0  0  0  0  0  0
   -6.7117    3.2272  -24.2440 C   0  0  0  0  0  0  0  0  0  0  0  0
   -7.9633    3.9940  -24.5218 C   0  0  0  0  0  0  0  0  0  0  0  0
   -8.7188    3.8093  -25.6575 C   0  0  0  0  0  0  0  0  0  0  0  0
   -9.8739    4.5328  -25.8687 C   0  0  0  0  0  0  0  0  0  0  0  0
  -10.2514    5.4547  -24.8981 C   0  0  0  0  0  0  0  0  0  0  0  0
  -11.7280    6.3858  -25.1581 Cl  0  0  0  0  0  0  0  0  0  0  0  0
   -9.4769    5.6227  -23.7667 C   0  0  0  0  0  0  0  0  0  0  0  0
   -8.3198    4.9145  -23.5306 C   0  0  0  0  0  0  0  0  0  0  0  0
   -7.4795    5.0907  -22.3212 C   0  0  0  0  0  0  0  0  0  0  0  0
   -6.8732    3.7942  -21.9163 C   0  0  0  0  0  0  0  0  0  0  0  0
   -6.0619    2.1855  -22.6067 H   0  0  0  0  0  0  0  0  0  0  0  0
   -6.4239    6.1252  -22.6287 C   0  0  0  0  0  0  0  0  0  0  0  0
   -6.7945    7.1092  -23.2907 O   0  0  0  0  0  0  0  0  0  0  0  0
   -5.0874    5.9654  -22.1785 N   0  0  0  0  0  0  0  0  0  0  0  0
   -4.8791    5.1550  -21.6597 H   0  0  0  0  0  0  0  0  0  0  0  0
   -4.0320    6.8738  -22.4137 C   0  0  0  0  0  0  0  0  0  0  0  0
   -3.7031    7.9253  -21.5897 C   0  0  0  0  0  0  0  0  0  0  0  0
   -2.6754    8.7790  -21.8587 N   0  0  0  0  0  0  0  0  0  0  0  0
   -1.9089    8.6595  -22.9436 C   0  0  0  0  0  0  0  0  0  0  0  0
   -2.2023    7.6135  -23.8050 C   0  0  0  0  0  0  0  0  0  0  0  0
   -1.4021    7.5061  -24.9182 C   0  0  0  0  0  0  0  0  0  0  0  0
   -1.6342    6.4936  -25.8165 C   0  0  0  0  0  0  0  0  0  0  0  0
   -2.6404    5.6026  -25.6178 C   0  0  0  0  0  0  0  0  0  0  0  0
   -3.4387    5.7349  -24.4779 C   0  0  0  0  0  0  0  0  0  0  0  0
   -3.2522    6.7246  -23.5498 C   0  0  0  0  0  0  0  0  0  0  0  0
   -8.0378    1.9083  -22.8361 C   0  0  0  0  0  0  0  0  0  0  0  0
   -7.0245   -0.1976  -22.6548 O   0  0  0  0  0  0  0  0  0  0  0  0
   -7.8250    0.5300  -23.3350 C   0  0  0  0  0  0  0  0  0  0  0  0
   -8.4378   -0.0103  -24.4850 N   0  0  0  0  0  0  0  0  0  0  0  0
   -9.0517    0.5645  -24.9968 H   0  0  0  0  0  0  0  0  0  0  0  0
   -8.2192   -1.3423  -24.9497 C   0  0  0  0  0  0  0  0  0  0  0  0
   -7.2431   -1.5310  -25.9058 C   0  0  0  0  0  0  0  0  0  0  0  0
   -6.9826   -2.7934  -26.3954 C   0  0  0  0  0  0  0  0  0  0  0  0
   -7.7334   -3.8631  -25.8951 C   0  0  0  0  0  0  0  0  0  0  0  0
   -8.7088   -3.6682  -24.9384 C   0  0  0  0  0  0  0  0  0  0  0  0
   -8.9720   -2.4042  -24.4457 C   0  0  0  0  0  0  0  0  0  0  0  0
   -7.4182   -5.1396  -26.4382 N   0  0  0  0  0  0  0  0  0  0  0  0
   -6.4948   -5.9886  -25.7008 C   0  0  0  0  0  0  0  0  0  0  0  0
   -5.7325   -6.8966  -26.6371 C   0  0  0  0  0  0  0  0  0  0  0  0
   -6.6095   -7.5562  -27.4906 O   0  0  0  0  0  0  0  0  0  0  0  0
   -7.1934   -6.6567  -28.3854 C   0  0  0  0  0  0  0  0  0  0  0  0
   -7.9677   -5.6082  -27.6618 C   0  0  0  0  0  0  0  0  0  0  0  0
   -9.0416   -5.1306  -28.0572 O   0  0  0  0  0  0  0  0  0  0  0  0
 28 29  2  0  0  0
 29 27  1  0  0  0
 29 30  1  0  0  0
  1 27  1  0  0  0
  1  2  1  0  0  0
  1 12  1  0  0  0
  2  3  1  0  0  0
  3  4  2  0  0  0
  4  5  1  0  0  0
  5  6  2  0  0  0
  6  7  1  0  0  0
  6  8  1  0  0  0
  8  9  2  0  0  0
  9 10  1  0  0  0
  9  3  1  0  0  0
 10 13  1  0  0  0
 10 11  1  0  0  0
 13 14  2  0  0  0
 13 15  1  0  0  0
 15 17  1  0  0  0
 15 16  1  0  0  0
 17 18  2  0  0  0
 18 19  1  0  0  0
 19 20  2  0  0  0
 20 21  1  0  0  0
 21 22  2  0  0  0
 22 23  1  0  0  0
 23 24  2  0  0  0
 24 25  1  0  0  0
 25 26  2  0  0  0
 26 17  1  0  0  0
 26 21  1  0  0  0
 11  1  1  0  0  0
 30 32  1  0  0  0
 30 31  1  0  0  0
 32 33  2  0  0  0
 33 34  1  0  0  0
 34 35  2  0  0  0
 35 38  1  0  0  0
 35 36  1  0  0  0
 38 39  1  0  0  0
 39 40  1  0  0  0
 40 41  1  0  0  0
 41 42  1  0  0  0
 42 43  1  0  0  0
 43 44  2  0  0  0
 43 38  1  0  0  0
 36 37  2  0  0  0
 37 32  1  0  0  0
M  CHG 1   1   1
M  END
> <minimizedAffinity>
-5.81334

> <CNNscore>
0.3770263791

> <CNNaffinity>
5.8968825340

> <CNN_VS>
2.2232801914

> <CNNaffinity_variance>
0.7269393206

$$$$



 44 49  0  0  0  0  0  0  0  0999 V2000
   -5.8086    0.0555  -23.3876 N   0  0  0  0  0  0  0  0  0  0  0  0
   -6.6196    0.9326  -24.2255 C   0  0  0  0  0  0  0  0  0  0  0  0
   -6.3803    0.4500  -25.6190 C   0  0  0  0  0  0  0  0  0  0  0  0
   -6.0532    1.2917  -26.6577 C   0  0  0  0  0  0  0  0  0  0  0  0
   -5.8310    0.8013  -27.9275 C   0  0  0  0  0  0  0  0  0  0  0  0
   -5.9478   -0.5705  -28.1253 C   0  0  0  0  0  0  0  0  0  0  0  0
   -5.6653   -1.2089  -29.7463 Cl  0  0  0  0  0  0  0  0  0  0  0  0
   -6.2774   -1.3954  -27.0674 C   0  0  0  0  0  0  0  0  0  0  0  0
   -6.5047   -0.9328  -25.7904 C   0  0  0  0  0  0  0  0  0  0  0  0
   -6.8630   -1.8097  -24.6493 C   0  0  0  0  0  0  0  0  0  0  0  0
   -6.2690   -1.2905  -23.3883 C   0  0  0  0  0  0  0  0  0  0  0  0
   -5.8956    0.3294  -22.4089 H   0  0  0  0  0  0  0  0  0  0  0  0
   -8.3687   -1.8808  -24.5657 C   0  0  0  0  0  0  0  0  0  0  0  0
   -8.9572   -2.2900  -25.5805 O   0  0  0  0  0  0  0  0  0  0  0  0
   -9.0564   -1.4971  -23.3848 N   0  0  0  0  0  0  0  0  0  0  0  0
   -8.5123   -1.1839  -22.6264 H   0  0  0  0  0  0  0  0  0  0  0  0
  -10.4573   -1.5277  -23.2089 C   0  0  0  0  0  0  0  0  0  0  0  0
  -11.1813   -2.6471  -22.8690 C   0  0  0  0  0  0  0  0  0  0  0  0
  -12.5350   -2.6297  -22.7117 N   0  0  0  0  0  0  0  0  0  0  0  0
  -13.2619   -1.5236  -22.8756 C   0  0  0  0  0  0  0  0  0  0  0  0
  -12.5757   -0.3688  -23.2190 C   0  0  0  0  0  0  0  0  0  0  0  0
  -13.3413    0.7615  -23.3843 C   0  0  0  0  0  0  0  0  0  0  0  0
  -12.7294    1.9427  -23.7251 C   0  0  0  0  0  0  0  0  0  0  0  0
  -11.3835    2.0055  -23.8997 C   0  0  0  0  0  0  0  0  0  0  0  0
  -10.6292    0.8415  -23.7255 C   0  0  0  0  0  0  0  0  0  0  0  0
  -11.1865   -0.3624  -23.3860 C   0  0  0  0  0  0  0  0  0  0  0  0
   -4.4374    0.2086  -23.7847 C   0  0  0  0  0  0  0  0  0  0  0  0
   -4.0107    1.7926  -22.1105 O   0  0  0  0  0  0  0  0  0  0  0  0
   -3.8005    1.4653  -23.3276 C   0  0  0  0  0  0  0  0  0  0  0  0
   -2.9980    2.2978  -24.1357 N   0  0  0  0  0  0  0  0  0  0  0  0
   -2.8467    2.0300  -25.0709 H   0  0  0  0  0  0  0  0  0  0  0  0
   -2.3928    3.5062  -23.6758 C   0  0  0  0  0  0  0  0  0  0  0  0
   -1.1694    3.4063  -23.0467 C   0  0  0  0  0  0  0  0  0  0  0  0
   -0.5319    4.5363  -22.5801 C   0  0  0  0  0  0  0  0  0  0  0  0
   -1.1610    5.7726  -22.7646 C   0  0  0  0  0  0  0  0  0  0  0  0
   -2.3852    5.8664  -23.3949 C   0  0  0  0  0  0  0  0  0  0  0  0
   -3.0266    4.7356  -23.8637 C   0  0  0  0  0  0  0  0  0  0  0  0
   -0.4543    6.9005  -22.2625 N   0  0  0  0  0  0  0  0  0  0  0  0
    0.7599    7.3102  -22.9517 C   0  0  0  0  0  0  0  0  0  0  0  0
    1.7253    7.9714  -21.9960 C   0  0  0  0  0  0  0  0  0  0  0  0
    1.0797    8.9640  -21.2675 O   0  0  0  0  0  0  0  0  0  0  0  0
    0.1530    8.4024  -20.3865 C   0  0  0  0  0  0  0  0  0  0  0  0
   -0.8884    7.6319  -21.1243 C   0  0  0  0  0  0  0  0  0  0  0  0
   -2.0871    7.5926  -20.8094 O   0  0  0  0  0  0  0  0  0  0  0  0
 28 29  2  0  0  0
 29 27  1  0  0  0
 29 30  1  0  0  0
  1 27  1  0  0  0
  1  2  1  0  0  0
  1 12  1  0  0  0
  2  3  1  0  0  0
  3  4  2  0  0  0
  4  5  1  0  0  0
  5  6  2  0  0  0
  6  7  1  0  0  0
  6  8  1  0  0  0
  8  9  2  0  0  0
  9 10  1  0  0  0
  9  3  1  0  0  0
 10 13  1  0  0  0
 10 11  1  0  0  0
 13 14  2  0  0  0
 13 15  1  0  0  0
 15 17  1  0  0  0
 15 16  1  0  0  0
 17 18  2  0  0  0
 18 19  1  0  0  0
 19 20  2  0  0  0
 20 21  1  0  0  0
 21 22  2  0  0  0
 22 23  1  0  0  0
 23 24  2  0  0  0
 24 25  1  0  0  0
 25 26  2  0  0  0
 26 17  1  0  0  0
 26 21  1  0  0  0
 11  1  1  0  0  0
 30 32  1  0  0  0
 30 31  1  0  0  0
 32 33  2  0  0  0
 33 34  1  0  0  0
 34 35  2  0  0  0
 35 38  1  0  0  0
 35 36  1  0  0  0
 38 39  1  0  0  0
 39 40  1  0  0  0
 40 41  1  0  0  0
 41 42  1  0  0  0
 42 43  1  0  0  0
 43 44  2  0  0  0
 43 38  1  0  0  0
 36 37  2  0  0  0
 37 32  1  0  0  0
M  CHG 1   1   1
M  END
> <minimizedAffinity>
-5.72853

> <CNNscore>
0.3231671154

> <CNNaffinity>
5.8484492302

> <CNN_VS>
1.8900264502

> <CNNaffinity_variance>
0.2228752077

$$$$



 44 49  0  0  0  0  0  0  0  0999 V2000
   -8.7983   -4.1484  -25.6445 N   0  0  0  0  0  0  0  0  0  0  0  0
   -7.4719   -3.6245  -25.3358 C   0  0  0  0  0  0  0  0  0  0  0  0
   -6.9942   -4.4582  -24.1917 C   0  0  0  0  0  0  0  0  0  0  0  0
   -6.4618   -3.9190  -23.0427 C   0  0  0  0  0  0  0  0  0  0  0  0
   -6.0422   -4.7265  -22.0063 C   0  0  0  0  0  0  0  0  0  0  0  0
   -6.1740   -6.1028  -22.1588 C   0  0  0  0  0  0  0  0  0  0  0  0
   -5.6403   -7.1455  -20.8386 Cl  0  0  0  0  0  0  0  0  0  0  0  0
   -6.7111   -6.6206  -23.3213 C   0  0  0  0  0  0  0  0  0  0  0  0
   -7.1375   -5.8381  -24.3712 C   0  0  0  0  0  0  0  0  0  0  0  0
   -7.7116   -6.3847  -25.6246 C   0  0  0  0  0  0  0  0  0  0  0  0
   -8.7635   -5.4760  -26.1541 C   0  0  0  0  0  0  0  0  0  0  0  0
   -9.2137   -3.6174  -26.4100 H   0  0  0  0  0  0  0  0  0  0  0  0
   -6.5874   -6.5692  -26.6153 C   0  0  0  0  0  0  0  0  0  0  0  0
   -6.5440   -5.7581  -27.5554 O   0  0  0  0  0  0  0  0  0  0  0  0
   -5.6420   -7.6172  -26.4647 N   0  0  0  0  0  0  0  0  0  0  0  0
   -5.7502   -8.2158  -25.6906 H   0  0  0  0  0  0  0  0  0  0  0  0
   -4.5588   -7.8715  -27.3345 C   0  0  0  0  0  0  0  0  0  0  0  0
   -4.6744   -8.4091  -28.5956 C   0  0  0  0  0  0  0  0  0  0  0  0
   -3.5988   -8.6390  -29.4002 N   0  0  0  0  0  0  0  0  0  0  0  0
   -2.3497   -8.3597  -29.0252 C   0  0  0  0  0  0  0  0  0  0  0  0
   -2.1827   -7.8157  -27.7608 C   0  0  0  0  0  0  0  0  0  0  0  0
   -0.8884   -7.5345  -27.3910 C   0  0  0  0  0  0  0  0  0  0  0  0
   -0.6467   -6.9940  -26.1520 C   0  0  0  0  0  0  0  0  0  0  0  0
   -1.6672   -6.7360  -25.2929 C   0  0  0  0  0  0  0  0  0  0  0  0
   -2.9733   -7.0315  -25.6943 C   0  0  0  0  0  0  0  0  0  0  0  0
   -3.2718   -7.5708  -26.9172 C   0  0  0  0  0  0  0  0  0  0  0  0
   -9.6197   -3.9871  -24.4781 C   0  0  0  0  0  0  0  0  0  0  0  0
  -11.3838   -2.6429  -25.2369 O   0  0  0  0  0  0  0  0  0  0  0  0
  -10.3902   -2.7227  -24.4375 C   0  0  0  0  0  0  0  0  0  0  0  0
  -10.0985   -1.6325  -23.5910 N   0  0  0  0  0  0  0  0  0  0  0  0
   -9.3294   -1.7115  -22.9815 H   0  0  0  0  0  0  0  0  0  0  0  0
  -10.8539   -0.4214  -23.5671 C   0  0  0  0  0  0  0  0  0  0  0  0
  -10.1666    0.7613  -23.7437 C   0  0  0  0  0  0  0  0  0  0  0  0
  -10.8381    1.9654  -23.7318 C   0  0  0  0  0  0  0  0  0  0  0  0
  -12.2237    1.9464  -23.5369 C   0  0  0  0  0  0  0  0  0  0  0  0
  -12.9061    0.7598  -23.3608 C   0  0  0  0  0  0  0  0  0  0  0  0
  -12.2358   -0.4487  -23.3723 C   0  0  0  0  0  0  0  0  0  0  0  0
  -12.8596    3.2189  -23.5352 N   0  0  0  0  0  0  0  0  0  0  0  0
  -13.2944    3.7690  -24.8102 C   0  0  0  0  0  0  0  0  0  0  0  0
  -13.2721    5.2793  -24.7814 C   0  0  0  0  0  0  0  0  0  0  0  0
  -13.9439    5.7508  -23.6593 O   0  0  0  0  0  0  0  0  0  0  0  0
  -13.2372    5.4375  -22.4962 C   0  0  0  0  0  0  0  0  0  0  0  0
  -13.0819    3.9625  -22.3450 C   0  0  0  0  0  0  0  0  0  0  0  0
  -13.1343    3.3586  -21.2633 O   0  0  0  0  0  0  0  0  0  0  0  0
 28 29  2  0  0  0
 29 27  1  0  0  0
 29 30  1  0  0  0
  1 27  1  0  0  0
  1  2  1  0  0  0
  1 12  1  0  0  0
  2  3  1  0  0  0
  3  4  2  0  0  0
  4  5  1  0  0  0
  5  6  2  0  0  0
  6  7  1  0  0  0
  6  8  1  0  0  0
  8  9  2  0  0  0
  9 10  1  0  0  0
  9  3  1  0  0  0
 10 13  1  0  0  0
 10 11  1  0  0  0
 13 14  2  0  0  0
 13 15  1  0  0  0
 15 17  1  0  0  0
 15 16  1  0  0  0
 17 18  2  0  0  0
 18 19  1  0  0  0
 19 20  2  0  0  0
 20 21  1  0  0  0
 21 22  2  0  0  0
 22 23  1  0  0  0
 23 24  2  0  0  0
 24 25  1  0  0  0
 25 26  2  0  0  0
 26 17  1  0  0  0
 26 21  1  0  0  0
 11  1  1  0  0  0
 30 32  1  0  0  0
 30 31  1  0  0  0
 32 33  2  0  0  0
 33 34  1  0  0  0
 34 35  2  0  0  0
 35 38  1  0  0  0
 35 36  1  0  0  0
 38 39  1  0  0  0
 39 40  1  0  0  0
 40 41  1  0  0  0
 41 42  1  0  0  0
 42 43  1  0  0  0
 43 44  2  0  0  0
 43 38  1  0  0  0
 36 37  2  0  0  0
 37 32  1  0  0  0
M  CHG 1   1   1
M  END
> <minimizedAffinity>
-8.76307

> <CNNscore>
0.3006644547

> <CNNaffinity>
5.9876799583

> <CNN_VS>
1.8002824783

> <CNNaffinity_variance>
0.1236046106

$$$$



 44 49  0  0  0  0  0  0  0  0999 V2000
   -6.6433    1.0400  -22.8721 N   0  0  0  0  0  0  0  0  0  0  0  0
   -6.3162    2.0222  -21.8438 C   0  0  0  0  0  0  0  0  0  0  0  0
   -4.8536    1.8398  -21.5998 C   0  0  0  0  0  0  0  0  0  0  0  0
   -4.3147    1.7092  -20.3400 C   0  0  0  0  0  0  0  0  0  0  0  0
   -2.9585    1.5325  -20.1615 C   0  0  0  0  0  0  0  0  0  0  0  0
   -2.1527    1.4903  -21.2944 C   0  0  0  0  0  0  0  0  0  0  0  0
   -0.4158    1.2643  -21.0775 Cl  0  0  0  0  0  0  0  0  0  0  0  0
   -2.7165    1.6239  -22.5484 C   0  0  0  0  0  0  0  0  0  0  0  0
   -4.0662    1.8016  -22.7554 C   0  0  0  0  0  0  0  0  0  0  0  0
   -4.6803    1.9500  -24.0972 C   0  0  0  0  0  0  0  0  0  0  0  0
   -6.0296    1.3244  -24.1234 C   0  0  0  0  0  0  0  0  0  0  0  0
   -7.6393    1.0797  -23.0884 H   0  0  0  0  0  0  0  0  0  0  0  0
   -4.7446    3.4224  -24.4245 C   0  0  0  0  0  0  0  0  0  0  0  0
   -3.9049    3.8422  -25.2383 O   0  0  0  0  0  0  0  0  0  0  0  0
   -5.7174    4.2649  -23.8256 N   0  0  0  0  0  0  0  0  0  0  0  0
   -6.3452    3.8502  -23.1907 H   0  0  0  0  0  0  0  0  0  0  0  0
   -5.8583    5.6494  -24.0661 C   0  0  0  0  0  0  0  0  0  0  0  0
   -6.7325    6.2035  -24.9724 C   0  0  0  0  0  0  0  0  0  0  0  0
   -6.8328    7.5479  -25.1725 N   0  0  0  0  0  0  0  0  0  0  0  0
   -6.0893    8.4300  -24.5033 C   0  0  0  0  0  0  0  0  0  0  0  0
   -5.1925    7.9185  -23.5778 C   0  0  0  0  0  0  0  0  0  0  0  0
   -4.4343    8.8425  -22.8978 C   0  0  0  0  0  0  0  0  0  0  0  0
   -3.5243    8.4085  -21.9654 C   0  0  0  0  0  0  0  0  0  0  0  0
   -3.3663    7.0835  -21.7098 C   0  0  0  0  0  0  0  0  0  0  0  0
   -4.1499    6.1657  -22.4155 C   0  0  0  0  0  0  0  0  0  0  0  0
   -5.0720    6.5424  -23.3553 C   0  0  0  0  0  0  0  0  0  0  0  0
   -6.3406   -0.2631  -22.3508 C   0  0  0  0  0  0  0  0  0  0  0  0
   -5.1124   -1.6095  -23.8249 O   0  0  0  0  0  0  0  0  0  0  0  0
   -6.2749   -1.3347  -23.3713 C   0  0  0  0  0  0  0  0  0  0  0  0
   -7.3901   -2.0489  -23.8572 N   0  0  0  0  0  0  0  0  0  0  0  0
   -8.2780   -1.8239  -23.4964 H   0  0  0  0  0  0  0  0  0  0  0  0
   -7.3056   -3.0790  -24.8420 C   0  0  0  0  0  0  0  0  0  0  0  0
   -7.2086   -4.3803  -24.3955 C   0  0  0  0  0  0  0  0  0  0  0  0
   -7.1246   -5.4212  -25.2959 C   0  0  0  0  0  0  0  0  0  0  0  0
   -7.1409   -5.1154  -26.6614 C   0  0  0  0  0  0  0  0  0  0  0  0
   -7.2382   -3.8112  -27.1023 C   0  0  0  0  0  0  0  0  0  0  0  0
   -7.3227   -2.7660  -26.2022 C   0  0  0  0  0  0  0  0  0  0  0  0
   -7.0518   -6.2306  -27.5400 N   0  0  0  0  0  0  0  0  0  0  0  0
   -5.8155   -6.9978  -27.5496 C   0  0  0  0  0  0  0  0  0  0  0  0
   -5.5788   -7.6218  -28.9050 C   0  0  0  0  0  0  0  0  0  0  0  0
   -6.7151   -8.3015  -29.3287 O   0  0  0  0  0  0  0  0  0  0  0  0
   -7.7480   -7.4043  -29.6092 C   0  0  0  0  0  0  0  0  0  0  0  0
   -8.1163   -6.6163  -28.3985 C   0  0  0  0  0  0  0  0  0  0  0  0
   -9.2738   -6.2843  -28.1026 O   0  0  0  0  0  0  0  0  0  0  0  0
 28 29  2  0  0  0
 29 27  1  0  0  0
 29 30  1  0  0  0
  1 27  1  0  0  0
  1  2  1  0  0  0
  1 12  1  0  0  0
  2  3  1  0  0  0
  3  4  2  0  0  0
  4  5  1  0  0  0
  5  6  2  0  0  0
  6  7  1  0  0  0
  6  8  1  0  0  0
  8  9  2  0  0  0
  9 10  1  0  0  0
  9  3  1  0  0  0
 10 13  1  0  0  0
 10 11  1  0  0  0
 13 14  2  0  0  0
 13 15  1  0  0  0
 15 17  1  0  0  0
 15 16  1  0  0  0
 17 18  2  0  0  0
 18 19  1  0  0  0
 19 20  2  0  0  0
 20 21  1  0  0  0
 21 22  2  0  0  0
 22 23  1  0  0  0
 23 24  2  0  0  0
 24 25  1  0  0  0
 25 26  2  0  0  0
 26 17  1  0  0  0
 26 21  1  0  0  0
 11  1  1  0  0  0
 30 32  1  0  0  0
 30 31  1  0  0  0
 32 33  2  0  0  0
 33 34  1  0  0  0
 34 35  2  0  0  0
 35 38  1  0  0  0
 35 36  1  0  0  0
 38 39  1  0  0  0
 39 40  1  0  0  0
 40 41  1  0  0  0
 41 42  1  0  0  0
 42 43  1  0  0  0
 43 44  2  0  0  0
 43 38  1  0  0  0
 36 37  2  0  0  0
 37 32  1  0  0  0
M  CHG 1   1   1
M  END
> <minimizedAffinity>
-6.06284

> <CNNscore>
0.2831571996

> <CNNaffinity>
5.6922059059

> <CNN_VS>
1.6117891073

> <CNNaffinity_variance>
0.6408097148

$$$$



 44 49  0  0  0  0  0  0  0  0999 V2000
   -7.9894   -0.1483  -23.0820 N   0  0  0  0  0  0  0  0  0  0  0  0
   -8.0851    0.9126  -22.0848 C   0  0  0  0  0  0  0  0  0  0  0  0
   -7.2634    2.0290  -22.6419 C   0  0  0  0  0  0  0  0  0  0  0  0
   -6.3059    2.6927  -21.9089 C   0  0  0  0  0  0  0  0  0  0  0  0
   -5.5629    3.7119  -22.4670 C   0  0  0  0  0  0  0  0  0  0  0  0
   -5.8114    4.0477  -23.7937 C   0  0  0  0  0  0  0  0  0  0  0  0
   -4.8659    5.3503  -24.5180 Cl  0  0  0  0  0  0  0  0  0  0  0  0
   -6.7775    3.3674  -24.5091 C   0  0  0  0  0  0  0  0  0  0  0  0
   -7.5337    2.3468  -23.9772 C   0  0  0  0  0  0  0  0  0  0  0  0
   -8.5758    1.6134  -24.7358 C   0  0  0  0  0  0  0  0  0  0  0  0
   -8.6225    0.1888  -24.3104 C   0  0  0  0  0  0  0  0  0  0  0  0
   -8.5102   -0.9681  -22.7704 H   0  0  0  0  0  0  0  0  0  0  0  0
   -9.8982    2.3048  -24.5067 C   0  0  0  0  0  0  0  0  0  0  0  0
  -10.8293    1.5900  -24.0995 O   0  0  0  0  0  0  0  0  0  0  0  0
  -10.0504    3.6951  -24.7488 N   0  0  0  0  0  0  0  0  0  0  0  0
   -9.2607    4.1868  -25.0711 H   0  0  0  0  0  0  0  0  0  0  0  0
  -11.2419    4.4306  -24.5652 C   0  0  0  0  0  0  0  0  0  0  0  0
  -11.8445    4.6579  -23.3495 C   0  0  0  0  0  0  0  0  0  0  0  0
  -12.9972    5.3734  -23.2206 N   0  0  0  0  0  0  0  0  0  0  0  0
  -13.6299    5.9086  -24.2657 C   0  0  0  0  0  0  0  0  0  0  0  0
  -13.0599    5.7060  -25.5132 C   0  0  0  0  0  0  0  0  0  0  0  0
  -13.7260    6.2645  -26.5788 C   0  0  0  0  0  0  0  0  0  0  0  0
  -13.2198    6.1045  -27.8453 C   0  0  0  0  0  0  0  0  0  0  0  0
  -12.0747    5.4041  -28.0549 C   0  0  0  0  0  0  0  0  0  0  0  0
  -11.4178    4.8468  -26.9539 C   0  0  0  0  0  0  0  0  0  0  0  0
  -11.8772    4.9751  -25.6702 C   0  0  0  0  0  0  0  0  0  0  0  0
   -6.6057   -0.5086  -23.2125 C   0  0  0  0  0  0  0  0  0  0  0  0
   -5.7107   -0.9549  -25.3324 O   0  0  0  0  0  0  0  0  0  0  0  0
   -6.3157   -1.4477  -24.3206 C   0  0  0  0  0  0  0  0  0  0  0  0
   -6.6591   -2.8160  -24.3229 N   0  0  0  0  0  0  0  0  0  0  0  0
   -7.1247   -3.1786  -23.5349 H   0  0  0  0  0  0  0  0  0  0  0  0
   -6.3705   -3.7052  -25.4018 C   0  0  0  0  0  0  0  0  0  0  0  0
   -5.0461   -4.0053  -25.6427 C   0  0  0  0  0  0  0  0  0  0  0  0
   -4.7009   -4.8583  -26.6696 C   0  0  0  0  0  0  0  0  0  0  0  0
   -5.7279   -5.4022  -27.4491 C   0  0  0  0  0  0  0  0  0  0  0  0
   -7.0515   -5.0982  -27.2034 C   0  0  0  0  0  0  0  0  0  0  0  0
   -7.4005   -4.2437  -26.1748 C   0  0  0  0  0  0  0  0  0  0  0  0
   -5.3092   -6.2745  -28.4919 N   0  0  0  0  0  0  0  0  0  0  0  0
   -5.2973   -7.7048  -28.2248 C   0  0  0  0  0  0  0  0  0  0  0  0
   -4.2377   -8.3983  -29.0488 C   0  0  0  0  0  0  0  0  0  0  0  0
   -4.3506   -8.0341  -30.3857 O   0  0  0  0  0  0  0  0  0  0  0  0
   -4.0073   -6.6915  -30.5595 C   0  0  0  0  0  0  0  0  0  0  0  0
   -4.9066   -5.8023  -29.7701 C   0  0  0  0  0  0  0  0  0  0  0  0
   -5.3157   -4.6971  -30.1557 O   0  0  0  0  0  0  0  0  0  0  0  0
 28 29  2  0  0  0
 29 27  1  0  0  0
 29 30  1  0  0  0
  1 27  1  0  0  0
  1  2  1  0  0  0
  1 12  1  0  0  0
  2  3  1  0  0  0
  3  4  2  0  0  0
  4  5  1  0  0  0
  5  6  2  0  0  0
  6  7  1  0  0  0
  6  8  1  0  0  0
  8  9  2  0  0  0
  9 10  1  0  0  0
  9  3  1  0  0  0
 10 13  1  0  0  0
 10 11  1  0  0  0
 13 14  2  0  0  0
 13 15  1  0  0  0
 15 17  1  0  0  0
 15 16  1  0  0  0
 17 18  2  0  0  0
 18 19  1  0  0  0
 19 20  2  0  0  0
 20 21  1  0  0  0
 21 22  2  0  0  0
 22 23  1  0  0  0
 23 24  2  0  0  0
 24 25  1  0  0  0
 25 26  2  0  0  0
 26 17  1  0  0  0
 26 21  1  0  0  0
 11  1  1  0  0  0
 30 32  1  0  0  0
 30 31  1  0  0  0
 32 33  2  0  0  0
 33 34  1  0  0  0
 34 35  2  0  0  0
 35 38  1  0  0  0
 35 36  1  0  0  0
 38 39  1  0  0  0
 39 40  1  0  0  0
 40 41  1  0  0  0
 41 42  1  0  0  0
 42 43  1  0  0  0
 43 44  2  0  0  0
 43 38  1  0  0  0
 36 37  2  0  0  0
 37 32  1  0  0  0
M  CHG 1   1   1
M  END
> <minimizedAffinity>
-6.50777

> <CNNscore>
0.2390039414

> <CNNaffinity>
5.6721992493

> <CNN_VS>
1.3556779623

> <CNNaffinity_variance>
0.3796682954

$$$$



 44 49  0  0  0  0  0  0  0  0999 V2000
   -5.2632   -4.3111  -24.6409 N   0  0  0  0  0  0  0  0  0  0  0  0
   -5.3836   -5.7526  -24.8331 C   0  0  0  0  0  0  0  0  0  0  0  0
   -6.7554   -5.9451  -25.3925 C   0  0  0  0  0  0  0  0  0  0  0  0
   -7.6451   -6.8693  -24.8936 C   0  0  0  0  0  0  0  0  0  0  0  0
   -8.9062   -7.0065  -25.4349 C   0  0  0  0  0  0  0  0  0  0  0  0
   -9.2507   -6.1816  -26.5005 C   0  0  0  0  0  0  0  0  0  0  0  0
  -10.8623   -6.3486  -27.2006 Cl  0  0  0  0  0  0  0  0  0  0  0  0
   -8.3408   -5.2616  -26.9841 C   0  0  0  0  0  0  0  0  0  0  0  0
   -7.0759   -5.1038  -26.4632 C   0  0  0  0  0  0  0  0  0  0  0  0
   -6.0907   -4.1220  -26.9780 C   0  0  0  0  0  0  0  0  0  0  0  0
   -5.2590   -3.5885  -25.8662 C   0  0  0  0  0  0  0  0  0  0  0  0
   -4.3536   -4.0876  -24.2372 H   0  0  0  0  0  0  0  0  0  0  0  0
   -5.2454   -4.8084  -28.0238 C   0  0  0  0  0  0  0  0  0  0  0  0
   -5.8543   -5.2912  -28.9932 O   0  0  0  0  0  0  0  0  0  0  0  0
   -3.8346   -4.8883  -27.8896 N   0  0  0  0  0  0  0  0  0  0  0  0
   -3.4328   -4.4790  -27.0893 H   0  0  0  0  0  0  0  0  0  0  0  0
   -2.9602   -5.5066  -28.8101 C   0  0  0  0  0  0  0  0  0  0  0  0
   -2.6614   -5.0157  -30.0601 C   0  0  0  0  0  0  0  0  0  0  0  0
   -1.8115   -5.6490  -30.9169 N   0  0  0  0  0  0  0  0  0  0  0  0
   -1.2038   -6.7953  -30.6077 C   0  0  0  0  0  0  0  0  0  0  0  0
   -1.4741   -7.3296  -29.3572 C   0  0  0  0  0  0  0  0  0  0  0  0
   -0.8392   -8.5116  -29.0559 C   0  0  0  0  0  0  0  0  0  0  0  0
   -1.0596   -9.0996  -27.8346 C   0  0  0  0  0  0  0  0  0  0  0  0
   -1.8936   -8.5288  -26.9266 C   0  0  0  0  0  0  0  0  0  0  0  0
   -2.5261   -7.3272  -27.2587 C   0  0  0  0  0  0  0  0  0  0  0  0
   -2.3429   -6.6975  -28.4609 C   0  0  0  0  0  0  0  0  0  0  0  0
   -6.2851   -3.9012  -23.7195 C   0  0  0  0  0  0  0  0  0  0  0  0
   -5.6908   -1.6904  -23.2160 O   0  0  0  0  0  0  0  0  0  0  0  0
   -6.5796   -2.4496  -23.7321 C   0  0  0  0  0  0  0  0  0  0  0  0
   -7.7515   -1.8736  -24.2659 N   0  0  0  0  0  0  0  0  0  0  0  0
   -8.4253   -2.4737  -24.6596 H   0  0  0  0  0  0  0  0  0  0  0  0
   -8.0168   -0.4709  -24.2682 C   0  0  0  0  0  0  0  0  0  0  0  0
   -8.6338    0.0622  -23.1559 C   0  0  0  0  0  0  0  0  0  0  0  0
   -8.9170    1.4103  -23.0956 C   0  0  0  0  0  0  0  0  0  0  0  0
   -8.5611    2.2089  -24.1882 C   0  0  0  0  0  0  0  0  0  0  0  0
   -7.9438    1.6698  -25.2987 C   0  0  0  0  0  0  0  0  0  0  0  0
   -7.6587    0.3190  -25.3619 C   0  0  0  0  0  0  0  0  0  0  0  0
   -8.8785    3.5903  -24.0665 N   0  0  0  0  0  0  0  0  0  0  0  0
   -7.8025    4.5140  -23.7406 C   0  0  0  0  0  0  0  0  0  0  0  0
   -8.3289    5.7070  -22.9775 C   0  0  0  0  0  0  0  0  0  0  0  0
   -9.4202    6.2594  -23.6381 O   0  0  0  0  0  0  0  0  0  0  0  0
  -10.5134    5.3916  -23.5911 C   0  0  0  0  0  0  0  0  0  0  0  0
  -10.1948    4.0928  -24.2500 C   0  0  0  0  0  0  0  0  0  0  0  0
  -10.9949    3.4384  -24.9350 O   0  0  0  0  0  0  0  0  0  0  0  0
 28 29  2  0  0  0
 29 27  1  0  0  0
 29 30  1  0  0  0
  1 27  1  0  0  0
  1  2  1  0  0  0
  1 12  1  0  0  0
  2  3  1  0  0  0
  3  4  2  0  0  0
  4  5  1  0  0  0
  5  6  2  0  0  0
  6  7  1  0  0  0
  6  8  1  0  0  0
  8  9  2  0  0  0
  9 10  1  0  0  0
  9  3  1  0  0  0
 10 13  1  0  0  0
 10 11  1  0  0  0
 13 14  2  0  0  0
 13 15  1  0  0  0
 15 17  1  0  0  0
 15 16  1  0  0  0
 17 18  2  0  0  0
 18 19  1  0  0  0
 19 20  2  0  0  0
 20 21  1  0  0  0
 21 22  2  0  0  0
 22 23  1  0  0  0
 23 24  2  0  0  0
 24 25  1  0  0  0
 25 26  2  0  0  0
 26 17  1  0  0  0
 26 21  1  0  0  0
 11  1  1  0  0  0
 30 32  1  0  0  0
 30 31  1  0  0  0
 32 33  2  0  0  0
 33 34  1  0  0  0
 34 35  2  0  0  0
 35 38  1  0  0  0
 35 36  1  0  0  0
 38 39  1  0  0  0
 39 40  1  0  0  0
 40 41  1  0  0  0
 41 42  1  0  0  0
 42 43  1  0  0  0
 43 44  2  0  0  0
 43 38  1  0  0  0
 36 37  2  0  0  0
 37 32  1  0  0  0
M  CHG 1   1   1
M  END
> <minimizedAffinity>
-5.92430

> <CNNscore>
0.2340055257

> <CNNaffinity>
5.6908125877

> <CNN_VS>
1.3316816092

> <CNNaffinity_variance>
0.3014778793

$$$$



 44 49  0  0  0  0  0  0  0  0999 V2000
   -6.1310   -1.0738  -24.6339 N   0  0  0  0  0  0  0  0  0  0  0  0
   -6.2072   -1.8811  -23.4208 C   0  0  0  0  0  0  0  0  0  0  0  0
   -7.6700   -2.0799  -23.1914 C   0  0  0  0  0  0  0  0  0  0  0  0
   -8.2745   -1.8587  -21.9748 C   0  0  0  0  0  0  0  0  0  0  0  0
   -9.6311   -2.0454  -21.8104 C   0  0  0  0  0  0  0  0  0  0  0  0
  -10.3691   -2.4641  -22.9126 C   0  0  0  0  0  0  0  0  0  0  0  0
  -12.1060   -2.7059  -22.7134 Cl  0  0  0  0  0  0  0  0  0  0  0  0
   -9.7402   -2.6797  -24.1234 C   0  0  0  0  0  0  0  0  0  0  0  0
   -8.3883   -2.5015  -24.3154 C   0  0  0  0  0  0  0  0  0  0  0  0
   -7.7033   -2.7343  -25.6101 C   0  0  0  0  0  0  0  0  0  0  0  0
   -6.5874   -1.7672  -25.7890 C   0  0  0  0  0  0  0  0  0  0  0  0
   -5.1568   -0.8693  -24.8564 H   0  0  0  0  0  0  0  0  0  0  0  0
   -7.2103   -4.1611  -25.6313 C   0  0  0  0  0  0  0  0  0  0  0  0
   -8.0697   -5.0425  -25.4633 O   0  0  0  0  0  0  0  0  0  0  0  0
   -5.8374   -4.4595  -25.8330 N   0  0  0  0  0  0  0  0  0  0  0  0
   -5.2234   -3.7002  -25.9578 H   0  0  0  0  0  0  0  0  0  0  0  0
   -5.2803   -5.7567  -25.8695 C   0  0  0  0  0  0  0  0  0  0  0  0
   -4.7729   -6.4239  -24.7785 C   0  0  0  0  0  0  0  0  0  0  0  0
   -4.2423   -7.6764  -24.8618 N   0  0  0  0  0  0  0  0  0  0  0  0
   -4.1746   -8.3518  -26.0099 C   0  0  0  0  0  0  0  0  0  0  0  0
   -4.6741   -7.7197  -27.1383 C   0  0  0  0  0  0  0  0  0  0  0  0
   -4.5955   -8.4307  -28.3128 C   0  0  0  0  0  0  0  0  0  0  0  0
   -5.0707   -7.8673  -29.4715 C   0  0  0  0  0  0  0  0  0  0  0  0
   -5.6141   -6.6220  -29.4693 C   0  0  0  0  0  0  0  0  0  0  0  0
   -5.6815   -5.9214  -28.2615 C   0  0  0  0  0  0  0  0  0  0  0  0
   -5.2234   -6.4343  -27.0772 C   0  0  0  0  0  0  0  0  0  0  0  0
   -6.8121    0.1651  -24.3838 C   0  0  0  0  0  0  0  0  0  0  0  0
   -5.0522    1.5182  -25.1363 O   0  0  0  0  0  0  0  0  0  0  0  0
   -5.9200    1.3356  -24.2164 C   0  0  0  0  0  0  0  0  0  0  0  0
   -5.9719    2.2347  -23.1306 N   0  0  0  0  0  0  0  0  0  0  0  0
   -6.6469    2.0787  -22.4311 H   0  0  0  0  0  0  0  0  0  0  0  0
   -5.1023    3.3578  -22.9874 C   0  0  0  0  0  0  0  0  0  0  0  0
   -5.4740    4.5338  -23.6047 C   0  0  0  0  0  0  0  0  0  0  0  0
   -4.6779    5.6551  -23.5041 C   0  0  0  0  0  0  0  0  0  0  0  0
   -3.4946    5.5599  -22.7632 C   0  0  0  0  0  0  0  0  0  0  0  0
   -3.1277    4.3804  -22.1476 C   0  0  0  0  0  0  0  0  0  0  0  0
   -3.9237    3.2549  -22.2466 C   0  0  0  0  0  0  0  0  0  0  0  0
   -2.7168    6.7491  -22.6956 N   0  0  0  0  0  0  0  0  0  0  0  0
   -1.8717    7.0802  -23.8329 C   0  0  0  0  0  0  0  0  0  0  0  0
   -0.6591    7.8664  -23.3927 C   0  0  0  0  0  0  0  0  0  0  0  0
   -1.0420    8.9367  -22.5924 O   0  0  0  0  0  0  0  0  0  0  0  0
   -1.5407    8.4819  -21.3697 C   0  0  0  0  0  0  0  0  0  0  0  0
   -2.7366    7.6142  -21.5687 C   0  0  0  0  0  0  0  0  0  0  0  0
   -3.7275    7.6033  -20.8234 O   0  0  0  0  0  0  0  0  0  0  0  0
 28 29  2  0  0  0
 29 27  1  0  0  0
 29 30  1  0  0  0
  1 27  1  0  0  0
  1  2  1  0  0  0
  1 12  1  0  0  0
  2  3  1  0  0  0
  3  4  2  0  0  0
  4  5  1  0  0  0
  5  6  2  0  0  0
  6  7  1  0  0  0
  6  8  1  0  0  0
  8  9  2  0  0  0
  9 10  1  0  0  0
  9  3  1  0  0  0
 10 13  1  0  0  0
 10 11  1  0  0  0
 13 14  2  0  0  0
 13 15  1  0  0  0
 15 17  1  0  0  0
 15 16  1  0  0  0
 17 18  2  0  0  0
 18 19  1  0  0  0
 19 20  2  0  0  0
 20 21  1  0  0  0
 21 22  2  0  0  0
 22 23  1  0  0  0
 23 24  2  0  0  0
 24 25  1  0  0  0
 25 26  2  0  0  0
 26 17  1  0  0  0
 26 21  1  0  0  0
 11  1  1  0  0  0
 30 32  1  0  0  0
 30 31  1  0  0  0
 32 33  2  0  0  0
 33 34  1  0  0  0
 34 35  2  0  0  0
 35 38  1  0  0  0
 35 36  1  0  0  0
 38 39  1  0  0  0
 39 40  1  0  0  0
 40 41  1  0  0  0
 41 42  1  0  0  0
 42 43  1  0  0  0
 43 44  2  0  0  0
 43 38  1  0  0  0
 36 37  2  0  0  0
 37 32  1  0  0  0
M  CHG 1   1   1
M  END
> <minimizedAffinity>
-5.84787

> <CNNscore>
0.2251460105

> <CNNaffinity>
5.6762151718

> <CNN_VS>
1.2779772282

> <CNNaffinity_variance>
0.5079094172

$$$$



 44 49  0  0  0  0  0  0  0  0999 V2000
   -7.2156    0.5183  -22.6485 N   0  0  0  0  0  0  0  0  0  0  0  0
   -6.8487    1.4750  -21.6096 C   0  0  0  0  0  0  0  0  0  0  0  0
   -5.3569    1.4175  -21.5540 C   0  0  0  0  0  0  0  0  0  0  0  0
   -4.6559    1.2757  -20.3779 C   0  0  0  0  0  0  0  0  0  0  0  0
   -3.2779    1.2172  -20.3741 C   0  0  0  0  0  0  0  0  0  0  0  0
   -2.6190    1.3056  -21.5958 C   0  0  0  0  0  0  0  0  0  0  0  0
   -0.8556    1.2315  -21.6024 Cl  0  0  0  0  0  0  0  0  0  0  0  0
   -3.3441    1.4477  -22.7629 C   0  0  0  0  0  0  0  0  0  0  0  0
   -4.7194    1.5092  -22.7958 C   0  0  0  0  0  0  0  0  0  0  0  0
   -5.5064    1.6657  -24.0430 C   0  0  0  0  0  0  0  0  0  0  0  0
   -6.7895    0.9195  -23.9450 C   0  0  0  0  0  0  0  0  0  0  0  0
   -8.2305    0.4759  -22.7412 H   0  0  0  0  0  0  0  0  0  0  0  0
   -5.7377    3.1400  -24.2712 C   0  0  0  0  0  0  0  0  0  0  0  0
   -4.7753    3.7846  -24.7206 O   0  0  0  0  0  0  0  0  0  0  0  0
   -6.9916    3.7390  -23.9822 N   0  0  0  0  0  0  0  0  0  0  0  0
   -7.7007    3.1548  -23.6282 H   0  0  0  0  0  0  0  0  0  0  0  0
   -7.3053    5.1042  -24.1609 C   0  0  0  0  0  0  0  0  0  0  0  0
   -6.5438    6.1518  -23.6970 C   0  0  0  0  0  0  0  0  0  0  0  0
   -6.8876    7.4561  -23.8919 N   0  0  0  0  0  0  0  0  0  0  0  0
   -7.9910    7.8165  -24.5488 C   0  0  0  0  0  0  0  0  0  0  0  0
   -8.7915    6.7945  -25.0357 C   0  0  0  0  0  0  0  0  0  0  0  0
   -9.9249    7.1847  -25.7097 C   0  0  0  0  0  0  0  0  0  0  0  0
  -10.7658    6.2264  -26.2200 C   0  0  0  0  0  0  0  0  0  0  0  0
  -10.4910    4.9047  -26.0664 C   0  0  0  0  0  0  0  0  0  0  0  0
   -9.3321    4.5358  -25.3770 C   0  0  0  0  0  0  0  0  0  0  0  0
   -8.4589    5.4485  -24.8479 C   0  0  0  0  0  0  0  0  0  0  0  0
   -6.7392   -0.7750  -22.2465 C   0  0  0  0  0  0  0  0  0  0  0  0
   -8.0419   -2.2173  -23.5569 O   0  0  0  0  0  0  0  0  0  0  0  0
   -6.8568   -1.8248  -23.2848 C   0  0  0  0  0  0  0  0  0  0  0  0
   -5.7666   -2.3998  -23.9710 N   0  0  0  0  0  0  0  0  0  0  0  0
   -4.8606   -2.0853  -23.7486 H   0  0  0  0  0  0  0  0  0  0  0  0
   -5.9010   -3.4115  -24.9692 C   0  0  0  0  0  0  0  0  0  0  0  0
   -6.1146   -4.7048  -24.5403 C   0  0  0  0  0  0  0  0  0  0  0  0
   -6.2536   -5.7277  -25.4543 C   0  0  0  0  0  0  0  0  0  0  0  0
   -6.1715   -5.4123  -26.8152 C   0  0  0  0  0  0  0  0  0  0  0  0
   -5.9576   -4.1162  -27.2385 C   0  0  0  0  0  0  0  0  0  0  0  0
   -5.8180   -3.0889  -26.3247 C   0  0  0  0  0  0  0  0  0  0  0  0
   -6.3231   -6.5090  -27.7085 N   0  0  0  0  0  0  0  0  0  0  0  0
   -5.3070   -7.5504  -27.6931 C   0  0  0  0  0  0  0  0  0  0  0  0
   -5.1819   -8.2016  -29.0505 C   0  0  0  0  0  0  0  0  0  0  0  0
   -6.4333   -8.5853  -29.5192 O   0  0  0  0  0  0  0  0  0  0  0  0
   -7.2111   -7.4641  -29.8164 C   0  0  0  0  0  0  0  0  0  0  0  0
   -7.4199   -6.6207  -28.6049 C   0  0  0  0  0  0  0  0  0  0  0  0
   -8.4733   -6.0231  -28.3388 O   0  0  0  0  0  0  0  0  0  0  0  0
 28 29  2  0  0  0
 29 27  1  0  0  0
 29 30  1  0  0  0
  1 27  1  0  0  0
  1  2  1  0  0  0
  1 12  1  0  0  0
  2  3  1  0  0  0
  3  4  2  0  0  0
  4  5  1  0  0  0
  5  6  2  0  0  0
  6  7  1  0  0  0
  6  8  1  0  0  0
  8  9  2  0  0  0
  9 10  1  0  0  0
  9  3  1  0  0  0
 10 13  1  0  0  0
 10 11  1  0  0  0
 13 14  2  0  0  0
 13 15  1  0  0  0
 15 17  1  0  0  0
 15 16  1  0  0  0
 17 18  2  0  0  0
 18 19  1  0  0  0
 19 20  2  0  0  0
 20 21  1  0  0  0
 21 22  2  0  0  0
 22 23  1  0  0  0
 23 24  2  0  0  0
 24 25  1  0  0  0
 25 26  2  0  0  0
 26 17  1  0  0  0
 26 21  1  0  0  0
 11  1  1  0  0  0
 30 32  1  0  0  0
 30 31  1  0  0  0
 32 33  2  0  0  0
 33 34  1  0  0  0
 34 35  2  0  0  0
 35 38  1  0  0  0
 35 36  1  0  0  0
 38 39  1  0  0  0
 39 40  1  0  0  0
 40 41  1  0  0  0
 41 42  1  0  0  0
 42 43  1  0  0  0
 43 44  2  0  0  0
 43 38  1  0  0  0
 36 37  2  0  0  0
 37 32  1  0  0  0
M  CHG 1   1   1
M  END
> <minimizedAffinity>
-6.34149

> <CNNscore>
0.2170067132

> <CNNaffinity>
5.6548304558

> <CNN_VS>
1.2271361351

> <CNNaffinity_variance>
0.3504985273

$$$$



 44 49  0  0  0  0  0  0  0  0999 V2000
   -7.3796    0.8557  -23.1302 N   0  0  0  0  0  0  0  0  0  0  0  0
   -7.4091    2.2811  -22.8193 C   0  0  0  0  0  0  0  0  0  0  0  0
   -7.2714    2.9588  -24.1435 C   0  0  0  0  0  0  0  0  0  0  0  0
   -6.3682    3.9710  -24.3770 C   0  0  0  0  0  0  0  0  0  0  0  0
   -6.2680    4.5622  -25.6190 C   0  0  0  0  0  0  0  0  0  0  0  0
   -7.1081    4.1035  -26.6282 C   0  0  0  0  0  0  0  0  0  0  0  0
   -6.9880    4.8529  -28.2216 Cl  0  0  0  0  0  0  0  0  0  0  0  0
   -8.0066    3.0866  -26.3700 C   0  0  0  0  0  0  0  0  0  0  0  0
   -8.1279    2.4791  -25.1401 C   0  0  0  0  0  0  0  0  0  0  0  0
   -9.0921    1.3896  -24.8521 C   0  0  0  0  0  0  0  0  0  0  0  0
   -8.5139    0.4288  -23.8748 C   0  0  0  0  0  0  0  0  0  0  0  0
   -7.4475    0.3097  -22.2714 H   0  0  0  0  0  0  0  0  0  0  0  0
  -10.3644    2.0134  -24.3310 C   0  0  0  0  0  0  0  0  0  0  0  0
  -11.2021    1.2329  -23.8487 O   0  0  0  0  0  0  0  0  0  0  0  0
  -10.5741    3.4156  -24.3973 N   0  0  0  0  0  0  0  0  0  0  0  0
   -9.8581    3.9614  -24.7957 H   0  0  0  0  0  0  0  0  0  0  0  0
  -11.7259    4.0919  -23.9385 C   0  0  0  0  0  0  0  0  0  0  0  0
  -12.4930    3.6973  -22.8667 C   0  0  0  0  0  0  0  0  0  0  0  0
  -13.5994    4.3815  -22.4605 N   0  0  0  0  0  0  0  0  0  0  0  0
  -14.0233    5.4880  -23.0727 C   0  0  0  0  0  0  0  0  0  0  0  0
  -13.2817    5.9252  -24.1595 C   0  0  0  0  0  0  0  0  0  0  0  0
  -13.7338    7.0670  -24.7784 C   0  0  0  0  0  0  0  0  0  0  0  0
  -13.0491    7.5589  -25.8624 C   0  0  0  0  0  0  0  0  0  0  0  0
  -11.9366    6.9325  -26.3270 C   0  0  0  0  0  0  0  0  0  0  0  0
  -11.4990    5.7736  -25.6792 C   0  0  0  0  0  0  0  0  0  0  0  0
  -12.1425    5.2394  -24.5947 C   0  0  0  0  0  0  0  0  0  0  0  0
   -6.1209    0.5662  -23.7573 C   0  0  0  0  0  0  0  0  0  0  0  0
   -5.9044   -0.2995  -25.9248 O   0  0  0  0  0  0  0  0  0  0  0  0
   -6.1513   -0.5745  -24.7017 C   0  0  0  0  0  0  0  0  0  0  0  0
   -6.4292   -1.9091  -24.3386 N   0  0  0  0  0  0  0  0  0  0  0  0
   -6.6170   -2.1026  -23.3918 H   0  0  0  0  0  0  0  0  0  0  0  0
   -6.4538   -2.9952  -25.2647 C   0  0  0  0  0  0  0  0  0  0  0  0
   -6.7313   -4.2509  -24.7662 C   0  0  0  0  0  0  0  0  0  0  0  0
   -6.7706   -5.3417  -25.6087 C   0  0  0  0  0  0  0  0  0  0  0  0
   -6.5225   -5.1332  -26.9701 C   0  0  0  0  0  0  0  0  0  0  0  0
   -6.2454   -3.8744  -27.4633 C   0  0  0  0  0  0  0  0  0  0  0  0
   -6.2054   -2.7792  -26.6212 C   0  0  0  0  0  0  0  0  0  0  0  0
   -6.5777   -6.2959  -27.7879 N   0  0  0  0  0  0  0  0  0  0  0  0
   -5.5287   -7.2924  -27.6333 C   0  0  0  0  0  0  0  0  0  0  0  0
   -5.2938   -8.0332  -28.9288 C   0  0  0  0  0  0  0  0  0  0  0  0
   -6.4981   -8.4986  -29.4442 O   0  0  0  0  0  0  0  0  0  0  0  0
   -7.2942   -7.4333  -29.8704 C   0  0  0  0  0  0  0  0  0  0  0  0
   -7.6100   -6.5147  -28.7394 C   0  0  0  0  0  0  0  0  0  0  0  0
   -8.6987   -5.9420  -28.5835 O   0  0  0  0  0  0  0  0  0  0  0  0
 28 29  2  0  0  0
 29 27  1  0  0  0
 29 30  1  0  0  0
  1 27  1  0  0  0
  1  2  1  0  0  0
  1 12  1  0  0  0
  2  3  1  0  0  0
  3  4  2  0  0  0
  4  5  1  0  0  0
  5  6  2  0  0  0
  6  7  1  0  0  0
  6  8  1  0  0  0
  8  9  2  0  0  0
  9 10  1  0  0  0
  9  3  1  0  0  0
 10 13  1  0  0  0
 10 11  1  0  0  0
 13 14  2  0  0  0
 13 15  1  0  0  0
 15 17  1  0  0  0
 15 16  1  0  0  0
 17 18  2  0  0  0
 18 19  1  0  0  0
 19 20  2  0  0  0
 20 21  1  0  0  0
 21 22  2  0  0  0
 22 23  1  0  0  0
 23 24  2  0  0  0
 24 25  1  0  0  0
 25 26  2  0  0  0
 26 17  1  0  0  0
 26 21  1  0  0  0
 11  1  1  0  0  0
 30 32  1  0  0  0
 30 31  1  0  0  0
 32 33  2  0  0  0
 33 34  1  0  0  0
 34 35  2  0  0  0
 35 38  1  0  0  0
 35 36  1  0  0  0
 38 39  1  0  0  0
 39 40  1  0  0  0
 40 41  1  0  0  0
 41 42  1  0  0  0
 42 43  1  0  0  0
 43 44  2  0  0  0
 43 38  1  0  0  0
 36 37  2  0  0  0
 37 32  1  0  0  0
M  CHG 1   1   1
M  END
> <minimizedAffinity>
-7.00233

> <CNNscore>
0.1971730441

> <CNNaffinity>
5.7952046394

> <CNN_VS>
1.1426581144

> <CNNaffinity_variance>
0.2441453487

$$$$



 35 40  0  0  0  0  0  0  0  0999 V2000
   -6.1796   -2.5663  -22.0965 C   0  0  0  0  0  0  0  0  0  0  0  0
   -7.4504   -2.3766  -22.8449 C   0  0  0  0  0  0  0  0  0  0  0  0
   -8.1811   -1.1056  -22.6071 C   0  0  0  0  0  0  0  0  0  0  0  0
   -9.1531   -1.1217  -23.7069 N   0  0  0  0  0  0  0  0  0  0  0  0
   -8.7151   -2.0218  -24.7193 C   0  0  0  0  0  0  0  0  0  0  0  0
   -9.4006   -2.3948  -25.6804 O   0  0  0  0  0  0  0  0  0  0  0  0
   -7.2981   -2.3859  -24.3545 C   0  0  0  0  0  0  0  0  0  0  0  0
   -6.4008   -1.3414  -24.8929 C   0  0  0  0  0  0  0  0  0  0  0  0
   -5.0806   -1.7630  -25.2530 N   0  0  0  0  0  0  0  0  0  0  0  0
   -4.8066   -3.1322  -25.6133 C   0  0  0  0  0  0  0  0  0  0  0  0
   -3.7112   -3.4171  -26.1593 O   0  0  0  0  0  0  0  0  0  0  0  0
   -5.7857   -4.1447  -25.3436 C   0  0  0  0  0  0  0  0  0  0  0  0
   -5.5459   -5.4592  -25.6788 C   0  0  0  0  0  0  0  0  0  0  0  0
   -6.4794   -6.4114  -25.4194 C   0  0  0  0  0  0  0  0  0  0  0  0
   -7.6731   -6.0823  -24.8211 C   0  0  0  0  0  0  0  0  0  0  0  0
   -8.5901   -7.0503  -24.5719 F   0  0  0  0  0  0  0  0  0  0  0  0
   -7.9128   -4.7480  -24.4825 C   0  0  0  0  0  0  0  0  0  0  0  0
   -6.9706   -3.7637  -24.7404 C   0  0  0  0  0  0  0  0  0  0  0  0
  -10.3344   -0.3165  -23.6727 C   0  0  0  0  0  0  0  0  0  0  0  0
  -10.2932    1.0268  -24.0277 C   0  0  0  0  0  0  0  0  0  0  0  0
  -11.4249    1.7197  -23.9747 N   0  0  0  0  0  0  0  0  0  0  0  0
  -12.5844    1.1811  -23.5982 C   0  0  0  0  0  0  0  0  0  0  0  0
  -12.6688   -0.1365  -23.2409 C   0  0  0  0  0  0  0  0  0  0  0  0
  -13.8523   -0.7397  -22.8429 C   0  0  0  0  0  0  0  0  0  0  0  0
  -13.8604   -2.0696  -22.4981 C   0  0  0  0  0  0  0  0  0  0  0  0
  -12.7179   -2.8602  -22.5282 C   0  0  0  0  0  0  0  0  0  0  0  0
  -11.5571   -2.2460  -22.9244 C   0  0  0  0  0  0  0  0  0  0  0  0
  -11.5246   -0.9077  -23.2763 C   0  0  0  0  0  0  0  0  0  0  0  0
   -3.9559   -0.8487  -25.2760 C   0  0  0  0  0  0  0  0  0  0  0  0
   -3.9552    0.1202  -24.1623 C   0  0  0  0  0  0  0  0  0  0  0  0
   -4.1319    1.4829  -24.3226 C   0  0  0  0  0  0  0  0  0  0  0  0
   -4.0758    2.0726  -23.1043 N   0  0  0  0  0  0  0  0  0  0  0  0
   -3.8739    1.1158  -22.2350 N   0  0  0  0  0  0  0  0  0  0  0  0
   -3.7968   -0.0700  -22.8397 N   0  0  0  0  0  0  0  0  0  0  0  0
   -3.7900    1.2532  -21.2637 H   0  0  0  0  0  0  0  0  0  0  0  0
  2  1  1  0  0  0
  2  3  1  0  0  0
  3  4  1  0  0  0
  4 19  1  0  0  0
  4  5  1  0  0  0
 19 20  2  0  0  0
 20 21  1  0  0  0
 21 22  2  0  0  0
 22 23  1  0  0  0
 23 24  2  0  0  0
 24 25  1  0  0  0
 25 26  2  0  0  0
 26 27  1  0  0  0
 27 28  2  0  0  0
 28 19  1  0  0  0
 28 23  1  0  0  0
  5  6  2  0  0  0
  7  5  1  0  0  0
  7  8  1  0  0  0
  7  2  1  0  0  0
  8  9  1  0  0  0
  9 29  1  0  0  0
  9 10  1  0  0  0
 29 30  1  0  0  0
 30 31  1  0  0  0
 31 32  2  0  0  0
 32 33  1  0  0  0
 33 34  1  0  0  0
 33 35  1  0  0  0
 34 30  2  0  0  0
 10 11  2  0  0  0
 10 12  1  0  0  0
 12 13  2  0  0  0
 13 14  1  0  0  0
 14 15  2  0  0  0
 15 16  1  0  0  0
 15 17  1  0  0  0
 17 18  2  0  0  0
 18 12  1  0  0  0
 18  7  1  0  0  0
M  END
> <minimizedAffinity>
-7.01518

> <CNNscore>
0.2708933949

> <CNNaffinity>
6.0186185837

> <CNN_VS>
1.6304039955

> <CNNaffinity_variance>
0.1443053782

$$$$



 35 40  0  0  0  0  0  0  0  0999 V2000
   -5.9803    2.6389  -21.7334 C   0  0  0  0  0  0  0  0  0  0  0  0
   -5.8852    2.3734  -23.1934 C   0  0  0  0  0  0  0  0  0  0  0  0
   -4.5239    2.3906  -23.7872 C   0  0  0  0  0  0  0  0  0  0  0  0
   -4.7750    1.7873  -25.1015 N   0  0  0  0  0  0  0  0  0  0  0  0
   -6.0057    1.0720  -25.0723 C   0  0  0  0  0  0  0  0  0  0  0  0
   -6.5820    0.6131  -26.0673 O   0  0  0  0  0  0  0  0  0  0  0  0
   -6.4085    1.0147  -23.6204 C   0  0  0  0  0  0  0  0  0  0  0  0
   -5.7225   -0.1371  -22.9970 C   0  0  0  0  0  0  0  0  0  0  0  0
   -6.4044   -0.7680  -21.9073 N   0  0  0  0  0  0  0  0  0  0  0  0
   -7.8392   -0.6951  -21.7823 C   0  0  0  0  0  0  0  0  0  0  0  0
   -8.4253   -1.4556  -20.9715 O   0  0  0  0  0  0  0  0  0  0  0  0
   -8.5729    0.2416  -22.5828 C   0  0  0  0  0  0  0  0  0  0  0  0
   -9.9439    0.3291  -22.4804 C   0  0  0  0  0  0  0  0  0  0  0  0
  -10.6304    1.2195  -23.2427 C   0  0  0  0  0  0  0  0  0  0  0  0
   -9.9731    2.0445  -24.1251 C   0  0  0  0  0  0  0  0  0  0  0  0
  -10.6798    2.9258  -24.8760 F   0  0  0  0  0  0  0  0  0  0  0  0
   -8.5825    1.9529  -24.2264 C   0  0  0  0  0  0  0  0  0  0  0  0
   -7.8666    1.0495  -23.4554 C   0  0  0  0  0  0  0  0  0  0  0  0
   -3.8587    1.9515  -26.1870 C   0  0  0  0  0  0  0  0  0  0  0  0
   -2.8611    1.0138  -26.4272 C   0  0  0  0  0  0  0  0  0  0  0  0
   -2.0422    1.2244  -27.4513 N   0  0  0  0  0  0  0  0  0  0  0  0
   -2.1405    2.2889  -28.2473 C   0  0  0  0  0  0  0  0  0  0  0  0
   -3.1074    3.2352  -28.0460 C   0  0  0  0  0  0  0  0  0  0  0  0
   -3.2478    4.3579  -28.8477 C   0  0  0  0  0  0  0  0  0  0  0  0
   -4.2440    5.2666  -28.5844 C   0  0  0  0  0  0  0  0  0  0  0  0
   -5.1391    5.1158  -27.5322 C   0  0  0  0  0  0  0  0  0  0  0  0
   -4.9844    3.9993  -26.7504 C   0  0  0  0  0  0  0  0  0  0  0  0
   -3.9883    3.0702  -26.9964 C   0  0  0  0  0  0  0  0  0  0  0  0
   -5.7005   -1.5078  -20.8785 C   0  0  0  0  0  0  0  0  0  0  0  0
   -5.3545   -0.6965  -19.6948 C   0  0  0  0  0  0  0  0  0  0  0  0
   -5.9706   -0.8242  -18.4627 C   0  0  0  0  0  0  0  0  0  0  0  0
   -5.4149    0.0668  -17.6069 N   0  0  0  0  0  0  0  0  0  0  0  0
   -4.4992    0.7127  -18.2823 N   0  0  0  0  0  0  0  0  0  0  0  0
   -4.4384    0.2768  -19.5409 N   0  0  0  0  0  0  0  0  0  0  0  0
   -3.9309    1.4255  -17.9107 H   0  0  0  0  0  0  0  0  0  0  0  0
  2  1  1  0  0  0
  2  3  1  0  0  0
  3  4  1  0  0  0
  4 19  1  0  0  0
  4  5  1  0  0  0
 19 20  2  0  0  0
 20 21  1  0  0  0
 21 22  2  0  0  0
 22 23  1  0  0  0
 23 24  2  0  0  0
 24 25  1  0  0  0
 25 26  2  0  0  0
 26 27  1  0  0  0
 27 28  2  0  0  0
 28 19  1  0  0  0
 28 23  1  0  0  0
  5  6  2  0  0  0
  7  5  1  0  0  0
  7  8  1  0  0  0
  7  2  1  0  0  0
  8  9  1  0  0  0
  9 29  1  0  0  0
  9 10  1  0  0  0
 29 30  1  0  0  0
 30 31  1  0  0  0
 31 32  2  0  0  0
 32 33  1  0  0  0
 33 34  1  0  0  0
 33 35  1  0  0  0
 34 30  2  0  0  0
 10 11  2  0  0  0
 10 12  1  0  0  0
 12 13  2  0  0  0
 13 14  1  0  0  0
 14 15  2  0  0  0
 15 16  1  0  0  0
 15 17  1  0  0  0
 17 18  2  0  0  0
 18 12  1  0  0  0
 18  7  1  0  0  0
M  END
> <minimizedAffinity>
-6.11164

> <CNNscore>
0.2286080122

> <CNNaffinity>
5.7148866653

> <CNN_VS>
1.3064688444

> <CNNaffinity_variance>
0.0647029281

$$$$



 35 40  0  0  0  0  0  0  0  0999 V2000
   -6.4893   -5.3764  -23.0785 C   0  0  0  0  0  0  0  0  0  0  0  0
   -6.7898   -4.0592  -22.4575 C   0  0  0  0  0  0  0  0  0  0  0  0
   -5.7521   -3.4936  -21.5580 C   0  0  0  0  0  0  0  0  0  0  0  0
   -6.2226   -2.1114  -21.4080 N   0  0  0  0  0  0  0  0  0  0  0  0
   -7.1212   -1.7945  -22.4660 C   0  0  0  0  0  0  0  0  0  0  0  0
   -7.8261   -0.7780  -22.5161 O   0  0  0  0  0  0  0  0  0  0  0  0
   -7.0090   -2.9321  -23.4493 C   0  0  0  0  0  0  0  0  0  0  0  0
   -5.8612   -2.6593  -24.3404 C   0  0  0  0  0  0  0  0  0  0  0  0
   -5.9518   -3.1828  -25.6702 N   0  0  0  0  0  0  0  0  0  0  0  0
   -7.2304   -3.4415  -26.2849 C   0  0  0  0  0  0  0  0  0  0  0  0
   -7.2856   -3.6586  -27.5214 O   0  0  0  0  0  0  0  0  0  0  0  0
   -8.4158   -3.4469  -25.4778 C   0  0  0  0  0  0  0  0  0  0  0  0
   -9.6480   -3.6917  -26.0430 C   0  0  0  0  0  0  0  0  0  0  0  0
  -10.7654   -3.6949  -25.2705 C   0  0  0  0  0  0  0  0  0  0  0  0
  -10.6870   -3.4554  -23.9186 C   0  0  0  0  0  0  0  0  0  0  0  0
  -11.8164   -3.4637  -23.1674 F   0  0  0  0  0  0  0  0  0  0  0  0
   -9.4354   -3.2075  -23.3488 C   0  0  0  0  0  0  0  0  0  0  0  0
   -8.2851   -3.2006  -24.1231 C   0  0  0  0  0  0  0  0  0  0  0  0
   -5.7852   -1.2858  -20.3254 C   0  0  0  0  0  0  0  0  0  0  0  0
   -6.3271   -1.4301  -19.0535 C   0  0  0  0  0  0  0  0  0  0  0  0
   -5.8778   -0.6326  -18.0912 N   0  0  0  0  0  0  0  0  0  0  0  0
   -4.9381    0.2897  -18.2978 C   0  0  0  0  0  0  0  0  0  0  0  0
   -4.3788    0.4645  -19.5337 C   0  0  0  0  0  0  0  0  0  0  0  0
   -3.3992    1.4103  -19.7956 C   0  0  0  0  0  0  0  0  0  0  0  0
   -2.8833    1.5285  -21.0634 C   0  0  0  0  0  0  0  0  0  0  0  0
   -3.3018    0.7310  -22.1218 C   0  0  0  0  0  0  0  0  0  0  0  0
   -4.2714   -0.1986  -21.8434 C   0  0  0  0  0  0  0  0  0  0  0  0
   -4.8059   -0.3359  -20.5740 C   0  0  0  0  0  0  0  0  0  0  0  0
   -4.7774   -3.4798  -26.4663 C   0  0  0  0  0  0  0  0  0  0  0  0
   -4.2276   -4.8298  -26.2332 C   0  0  0  0  0  0  0  0  0  0  0  0
   -4.9726   -5.9928  -26.3134 C   0  0  0  0  0  0  0  0  0  0  0  0
   -4.1627   -7.0447  -26.0437 N   0  0  0  0  0  0  0  0  0  0  0  0
   -2.9743   -6.5506  -25.8084 N   0  0  0  0  0  0  0  0  0  0  0  0
   -2.9804   -5.2216  -25.9145 N   0  0  0  0  0  0  0  0  0  0  0  0
   -2.1812   -7.0886  -25.5829 H   0  0  0  0  0  0  0  0  0  0  0  0
  2  1  1  0  0  0
  2  3  1  0  0  0
  3  4  1  0  0  0
  4 19  1  0  0  0
  4  5  1  0  0  0
 19 20  2  0  0  0
 20 21  1  0  0  0
 21 22  2  0  0  0
 22 23  1  0  0  0
 23 24  2  0  0  0
 24 25  1  0  0  0
 25 26  2  0  0  0
 26 27  1  0  0  0
 27 28  2  0  0  0
 28 19  1  0  0  0
 28 23  1  0  0  0
  5  6  2  0  0  0
  7  5  1  0  0  0
  7  8  1  0  0  0
  7  2  1  0  0  0
  8  9  1  0  0  0
  9 29  1  0  0  0
  9 10  1  0  0  0
 29 30  1  0  0  0
 30 31  1  0  0  0
 31 32  2  0  0  0
 32 33  1  0  0  0
 33 34  1  0  0  0
 33 35  1  0  0  0
 34 30  2  0  0  0
 10 11  2  0  0  0
 10 12  1  0  0  0
 12 13  2  0  0  0
 13 14  1  0  0  0
 14 15  2  0  0  0
 15 16  1  0  0  0
 15 17  1  0  0  0
 17 18  2  0  0  0
 18 12  1  0  0  0
 18  7  1  0  0  0
M  END
> <minimizedAffinity>
-8.62608

> <CNNscore>
0.2260662466

> <CNNaffinity>
5.9040350914

> <CNN_VS>
1.3347030878

> <CNNaffinity_variance>
0.1617199630

$$$$



 35 40  0  0  0  0  0  0  0  0999 V2000
   -4.4836   -0.3003  -25.3687 C   0  0  0  0  0  0  0  0  0  0  0  0
   -5.7634   -1.0458  -25.2376 C   0  0  0  0  0  0  0  0  0  0  0  0
   -5.6655   -2.5230  -25.1174 C   0  0  0  0  0  0  0  0  0  0  0  0
   -7.0264   -2.8682  -24.6891 N   0  0  0  0  0  0  0  0  0  0  0  0
   -7.6685   -1.7134  -24.1588 C   0  0  0  0  0  0  0  0  0  0  0  0
   -8.8740   -1.6348  -23.8880 O   0  0  0  0  0  0  0  0  0  0  0  0
   -6.5848   -0.6746  -24.0171 C   0  0  0  0  0  0  0  0  0  0  0  0
   -5.9042   -0.8923  -22.7228 C   0  0  0  0  0  0  0  0  0  0  0  0
   -5.3535    0.2694  -22.0921 N   0  0  0  0  0  0  0  0  0  0  0  0
   -5.8824    1.5844  -22.3579 C   0  0  0  0  0  0  0  0  0  0  0  0
   -5.5533    2.5417  -21.6133 O   0  0  0  0  0  0  0  0  0  0  0  0
   -6.7734    1.7787  -23.4647 C   0  0  0  0  0  0  0  0  0  0  0  0
   -7.2910    3.0258  -23.7379 C   0  0  0  0  0  0  0  0  0  0  0  0
   -8.1342    3.2002  -24.7885 C   0  0  0  0  0  0  0  0  0  0  0  0
   -8.4840    2.1415  -25.5935 C   0  0  0  0  0  0  0  0  0  0  0  0
   -9.3277    2.3398  -26.6369 F   0  0  0  0  0  0  0  0  0  0  0  0
   -7.9571    0.8780  -25.3133 C   0  0  0  0  0  0  0  0  0  0  0  0
   -7.0951    0.6828  -24.2447 C   0  0  0  0  0  0  0  0  0  0  0  0
   -7.5392   -4.1960  -24.8262 C   0  0  0  0  0  0  0  0  0  0  0  0
   -8.3687   -4.5347  -25.8890 C   0  0  0  0  0  0  0  0  0  0  0  0
   -8.8115   -5.7848  -25.9593 N   0  0  0  0  0  0  0  0  0  0  0  0
   -8.4938   -6.7151  -25.0594 C   0  0  0  0  0  0  0  0  0  0  0  0
   -7.6808   -6.4239  -23.9986 C   0  0  0  0  0  0  0  0  0  0  0  0
   -7.3235   -7.3584  -23.0384 C   0  0  0  0  0  0  0  0  0  0  0  0
   -6.5019   -6.9927  -21.9998 C   0  0  0  0  0  0  0  0  0  0  0  0
   -5.9985   -5.7051  -21.8580 C   0  0  0  0  0  0  0  0  0  0  0  0
   -6.3630   -4.7948  -22.8173 C   0  0  0  0  0  0  0  0  0  0  0  0
   -7.1894   -5.1402  -23.8726 C   0  0  0  0  0  0  0  0  0  0  0  0
   -4.2453    0.1920  -21.1609 C   0  0  0  0  0  0  0  0  0  0  0  0
   -4.6614    0.1416  -19.7454 C   0  0  0  0  0  0  0  0  0  0  0  0
   -5.3581   -0.9120  -19.1811 C   0  0  0  0  0  0  0  0  0  0  0  0
   -5.5764   -0.6350  -17.8731 N   0  0  0  0  0  0  0  0  0  0  0  0
   -5.0384    0.5354  -17.6441 N   0  0  0  0  0  0  0  0  0  0  0  0
   -4.4802    1.0286  -18.7500 N   0  0  0  0  0  0  0  0  0  0  0  0
   -5.0450    0.9913  -16.7715 H   0  0  0  0  0  0  0  0  0  0  0  0
  2  1  1  0  0  0
  2  3  1  0  0  0
  3  4  1  0  0  0
  4 19  1  0  0  0
  4  5  1  0  0  0
 19 20  2  0  0  0
 20 21  1  0  0  0
 21 22  2  0  0  0
 22 23  1  0  0  0
 23 24  2  0  0  0
 24 25  1  0  0  0
 25 26  2  0  0  0
 26 27  1  0  0  0
 27 28  2  0  0  0
 28 19  1  0  0  0
 28 23  1  0  0  0
  5  6  2  0  0  0
  7  5  1  0  0  0
  7  8  1  0  0  0
  7  2  1  0  0  0
  8  9  1  0  0  0
  9 29  1  0  0  0
  9 10  1  0  0  0
 29 30  1  0  0  0
 30 31  1  0  0  0
 31 32  2  0  0  0
 32 33  1  0  0  0
 33 34  1  0  0  0
 33 35  1  0  0  0
 34 30  2  0  0  0
 10 11  2  0  0  0
 10 12  1  0  0  0
 12 13  2  0  0  0
 13 14  1  0  0  0
 14 15  2  0  0  0
 15 16  1  0  0  0
 15 17  1  0  0  0
 17 18  2  0  0  0
 18 12  1  0  0  0
 18  7  1  0  0  0
M  END
> <minimizedAffinity>
-8.47186

> <CNNscore>
0.2200819999

> <CNNaffinity>
5.9268097878

> <CNN_VS>
1.3043841124

> <CNNaffinity_variance>
0.2033406496

$$$$



 35 40  0  0  0  0  0  0  0  0999 V2000
   -6.9746   -6.2523  -22.8584 C   0  0  0  0  0  0  0  0  0  0  0  0
   -7.4627   -4.8852  -23.1810 C   0  0  0  0  0  0  0  0  0  0  0  0
   -6.8610   -3.7642  -22.4147 C   0  0  0  0  0  0  0  0  0  0  0  0
   -7.3124   -2.6061  -23.1956 N   0  0  0  0  0  0  0  0  0  0  0  0
   -7.6975   -3.0290  -24.4994 C   0  0  0  0  0  0  0  0  0  0  0  0
   -8.2928   -2.3248  -25.3255 O   0  0  0  0  0  0  0  0  0  0  0  0
   -7.2302   -4.4577  -24.6181 C   0  0  0  0  0  0  0  0  0  0  0  0
   -5.8130   -4.4455  -25.0391 C   0  0  0  0  0  0  0  0  0  0  0  0
   -5.3736   -5.5617  -25.8210 N   0  0  0  0  0  0  0  0  0  0  0  0
   -6.3017   -6.3279  -26.6155 C   0  0  0  0  0  0  0  0  0  0  0  0
   -5.8588   -7.1313  -27.4743 O   0  0  0  0  0  0  0  0  0  0  0  0
   -7.7117   -6.1617  -26.4136 C   0  0  0  0  0  0  0  0  0  0  0  0
   -8.6170   -6.8829  -27.1606 C   0  0  0  0  0  0  0  0  0  0  0  0
   -9.9508   -6.7188  -26.9623 C   0  0  0  0  0  0  0  0  0  0  0  0
  -10.4184   -5.8352  -26.0180 C   0  0  0  0  0  0  0  0  0  0  0  0
  -11.7548   -5.6881  -25.8377 F   0  0  0  0  0  0  0  0  0  0  0  0
   -9.4972   -5.1053  -25.2621 C   0  0  0  0  0  0  0  0  0  0  0  0
   -8.1324   -5.2609  -25.4520 C   0  0  0  0  0  0  0  0  0  0  0  0
   -7.3262   -1.2888  -22.6395 C   0  0  0  0  0  0  0  0  0  0  0  0
   -8.3949   -0.8518  -21.8653 C   0  0  0  0  0  0  0  0  0  0  0  0
   -8.3469    0.3827  -21.3780 N   0  0  0  0  0  0  0  0  0  0  0  0
   -7.3244    1.2079  -21.6013 C   0  0  0  0  0  0  0  0  0  0  0  0
   -6.2534    0.8178  -22.3574 C   0  0  0  0  0  0  0  0  0  0  0  0
   -5.1681    1.6413  -22.6162 C   0  0  0  0  0  0  0  0  0  0  0  0
   -4.1271    1.1802  -23.3851 C   0  0  0  0  0  0  0  0  0  0  0  0
   -4.1045   -0.0982  -23.9297 C   0  0  0  0  0  0  0  0  0  0  0  0
   -5.1866   -0.8979  -23.6628 C   0  0  0  0  0  0  0  0  0  0  0  0
   -6.2468   -0.4551  -22.8909 C   0  0  0  0  0  0  0  0  0  0  0  0
   -3.9866   -5.9815  -25.8590 C   0  0  0  0  0  0  0  0  0  0  0  0
   -3.1251   -5.1115  -26.6836 C   0  0  0  0  0  0  0  0  0  0  0  0
   -1.7567   -5.2728  -26.8087 C   0  0  0  0  0  0  0  0  0  0  0  0
   -1.2814   -4.3098  -27.6344 N   0  0  0  0  0  0  0  0  0  0  0  0
   -2.3107   -3.5895  -28.0000 N   0  0  0  0  0  0  0  0  0  0  0  0
   -3.4338   -4.0461  -27.4453 N   0  0  0  0  0  0  0  0  0  0  0  0
   -2.2623   -2.8137  -28.6042 H   0  0  0  0  0  0  0  0  0  0  0  0
  2  1  1  0  0  0
  2  3  1  0  0  0
  3  4  1  0  0  0
  4 19  1  0  0  0
  4  5  1  0  0  0
 19 20  2  0  0  0
 20 21  1  0  0  0
 21 22  2  0  0  0
 22 23  1  0  0  0
 23 24  2  0  0  0
 24 25  1  0  0  0
 25 26  2  0  0  0
 26 27  1  0  0  0
 27 28  2  0  0  0
 28 19  1  0  0  0
 28 23  1  0  0  0
  5  6  2  0  0  0
  7  5  1  0  0  0
  7  8  1  0  0  0
  7  2  1  0  0  0
  8  9  1  0  0  0
  9 29  1  0  0  0
  9 10  1  0  0  0
 29 30  1  0  0  0
 30 31  1  0  0  0
 31 32  2  0  0  0
 32 33  1  0  0  0
 33 34  1  0  0  0
 33 35  1  0  0  0
 34 30  2  0  0  0
 10 11  2  0  0  0
 10 12  1  0  0  0
 12 13  2  0  0  0
 13 14  1  0  0  0
 14 15  2  0  0  0
 15 16  1  0  0  0
 15 17  1  0  0  0
 17 18  2  0  0  0
 18 12  1  0  0  0
 18  7  1  0  0  0
M  END
> <minimizedAffinity>
-6.28346

> <CNNscore>
0.1886494756

> <CNNaffinity>
5.8634424210

> <CNN_VS>
1.1061353683

> <CNNaffinity_variance>
0.1133062989

$$$$



 35 40  0  0  0  0  0  0  0  0999 V2000
   -6.5525   -6.1475  -22.9803 C   0  0  0  0  0  0  0  0  0  0  0  0
   -7.1529   -4.8272  -23.3081 C   0  0  0  0  0  0  0  0  0  0  0  0
   -6.6493   -3.6574  -22.5440 C   0  0  0  0  0  0  0  0  0  0  0  0
   -7.1945   -2.5436  -23.3294 N   0  0  0  0  0  0  0  0  0  0  0  0
   -7.5397   -3.0012  -24.6327 C   0  0  0  0  0  0  0  0  0  0  0  0
   -8.1900   -2.3518  -25.4623 O   0  0  0  0  0  0  0  0  0  0  0  0
   -6.9537   -4.3859  -24.7460 C   0  0  0  0  0  0  0  0  0  0  0  0
   -5.5416   -4.2559  -25.1640 C   0  0  0  0  0  0  0  0  0  0  0  0
   -5.0081   -5.3335  -25.9416 N   0  0  0  0  0  0  0  0  0  0  0  0
   -5.8667   -6.1773  -26.7356 C   0  0  0  0  0  0  0  0  0  0  0  0
   -5.3560   -6.9432  -27.5910 O   0  0  0  0  0  0  0  0  0  0  0  0
   -7.2862   -6.1295  -26.5372 C   0  0  0  0  0  0  0  0  0  0  0  0
   -8.1260   -6.9264  -27.2839 C   0  0  0  0  0  0  0  0  0  0  0  0
   -9.4693   -6.8743  -27.0889 C   0  0  0  0  0  0  0  0  0  0  0  0
  -10.0117   -6.0303  -26.1483 C   0  0  0  0  0  0  0  0  0  0  0  0
  -11.3561   -5.9955  -25.9713 F   0  0  0  0  0  0  0  0  0  0  0  0
   -9.1569   -5.2235  -25.3928 C   0  0  0  0  0  0  0  0  0  0  0  0
   -7.7834   -5.2645  -25.5793 C   0  0  0  0  0  0  0  0  0  0  0  0
   -7.3201   -1.2305  -22.7775 C   0  0  0  0  0  0  0  0  0  0  0  0
   -8.5130   -0.8096  -22.2009 C   0  0  0  0  0  0  0  0  0  0  0  0
   -8.5649    0.4218  -21.7062 N   0  0  0  0  0  0  0  0  0  0  0  0
   -7.5281    1.2586  -21.7419 C   0  0  0  0  0  0  0  0  0  0  0  0
   -6.3367    0.8845  -22.3000 C   0  0  0  0  0  0  0  0  0  0  0  0
   -5.2318    1.7204  -22.3596 C   0  0  0  0  0  0  0  0  0  0  0  0
   -4.0670    1.2750  -22.9360 C   0  0  0  0  0  0  0  0  0  0  0  0
   -3.9350    0.0009  -23.4749 C   0  0  0  0  0  0  0  0  0  0  0  0
   -5.0384   -0.8113  -23.4066 C   0  0  0  0  0  0  0  0  0  0  0  0
   -6.2225   -0.3845  -22.8308 C   0  0  0  0  0  0  0  0  0  0  0  0
   -3.5908   -5.6355  -25.9754 C   0  0  0  0  0  0  0  0  0  0  0  0
   -3.1471   -6.5263  -24.8850 C   0  0  0  0  0  0  0  0  0  0  0  0
   -1.8207   -6.7650  -24.5726 C   0  0  0  0  0  0  0  0  0  0  0  0
   -1.7706   -7.6247  -23.5269 N   0  0  0  0  0  0  0  0  0  0  0  0
   -3.0097   -7.9017  -23.2111 N   0  0  0  0  0  0  0  0  0  0  0  0
   -3.8611   -7.2568  -24.0092 N   0  0  0  0  0  0  0  0  0  0  0  0
   -3.2778   -8.5058  -22.4814 H   0  0  0  0  0  0  0  0  0  0  0  0
  2  1  1  0  0  0
  2  3  1  0  0  0
  3  4  1  0  0  0
  4 19  1  0  0  0
  4  5  1  0  0  0
 19 20  2  0  0  0
 20 21  1  0  0  0
 21 22  2  0  0  0
 22 23  1  0  0  0
 23 24  2  0  0  0
 24 25  1  0  0  0
 25 26  2  0  0  0
 26 27  1  0  0  0
 27 28  2  0  0  0
 28 19  1  0  0  0
 28 23  1  0  0  0
  5  6  2  0  0  0
  7  5  1  0  0  0
  7  8  1  0  0  0
  7  2  1  0  0  0
  8  9  1  0  0  0
  9 29  1  0  0  0
  9 10  1  0  0  0
 29 30  1  0  0  0
 30 31  1  0  0  0
 31 32  2  0  0  0
 32 33  1  0  0  0
 33 34  1  0  0  0
 33 35  1  0  0  0
 34 30  2  0  0  0
 10 11  2  0  0  0
 10 12  1  0  0  0
 12 13  2  0  0  0
 13 14  1  0  0  0
 14 15  2  0  0  0
 15 16  1  0  0  0
 15 17  1  0  0  0
 17 18  2  0  0  0
 18 12  1  0  0  0
 18  7  1  0  0  0
M  END
> <minimizedAffinity>
-7.23371

> <CNNscore>
0.1689757258

> <CNNaffinity>
5.8979902267

> <CNN_VS>
0.9966171980

> <CNNaffinity_variance>
0.3106263280

$$$$



 35 40  0  0  0  0  0  0  0  0999 V2000
   -6.3318    3.0890  -22.0747 C   0  0  0  0  0  0  0  0  0  0  0  0
   -6.4129    1.7332  -22.6799 C   0  0  0  0  0  0  0  0  0  0  0  0
   -6.4623    1.6667  -24.1628 C   0  0  0  0  0  0  0  0  0  0  0  0
   -6.2093    0.2397  -24.3960 N   0  0  0  0  0  0  0  0  0  0  0  0
   -5.6073   -0.3345  -23.2406 C   0  0  0  0  0  0  0  0  0  0  0  0
   -5.4443   -1.5477  -23.0556 O   0  0  0  0  0  0  0  0  0  0  0  0
   -5.2399    0.8280  -22.3532 C   0  0  0  0  0  0  0  0  0  0  0  0
   -3.9226    1.3404  -22.7868 C   0  0  0  0  0  0  0  0  0  0  0  0
   -3.1076    1.9358  -21.7711 N   0  0  0  0  0  0  0  0  0  0  0  0
   -3.2623    1.5751  -20.3834 C   0  0  0  0  0  0  0  0  0  0  0  0
   -2.3804    1.9185  -19.5567 O   0  0  0  0  0  0  0  0  0  0  0  0
   -4.4171    0.8323  -19.9695 C   0  0  0  0  0  0  0  0  0  0  0  0
   -4.5862    0.4767  -18.6494 C   0  0  0  0  0  0  0  0  0  0  0  0
   -5.6833   -0.2270  -18.2667 C   0  0  0  0  0  0  0  0  0  0  0  0
   -6.6391   -0.5947  -19.1846 C   0  0  0  0  0  0  0  0  0  0  0  0
   -7.7263   -1.2971  -18.7790 F   0  0  0  0  0  0  0  0  0  0  0  0
   -6.4642   -0.2323  -20.5228 C   0  0  0  0  0  0  0  0  0  0  0  0
   -5.3501    0.4859  -20.9300 C   0  0  0  0  0  0  0  0  0  0  0  0
   -6.5529   -0.3880  -25.6340 C   0  0  0  0  0  0  0  0  0  0  0  0
   -7.8074   -0.9566  -25.8222 C   0  0  0  0  0  0  0  0  0  0  0  0
   -8.0641   -1.5242  -26.9950 N   0  0  0  0  0  0  0  0  0  0  0  0
   -7.1740   -1.5683  -27.9861 C   0  0  0  0  0  0  0  0  0  0  0  0
   -5.9287   -1.0212  -27.8426 C   0  0  0  0  0  0  0  0  0  0  0  0
   -4.9709   -1.0432  -28.8451 C   0  0  0  0  0  0  0  0  0  0  0  0
   -3.7401   -0.4726  -28.6285 C   0  0  0  0  0  0  0  0  0  0  0  0
   -3.3968    0.1398  -27.4291 C   0  0  0  0  0  0  0  0  0  0  0  0
   -4.3571    0.1516  -26.4495 C   0  0  0  0  0  0  0  0  0  0  0  0
   -5.6039   -0.4168  -26.6449 C   0  0  0  0  0  0  0  0  0  0  0  0
   -2.0918    2.9242  -22.0750 C   0  0  0  0  0  0  0  0  0  0  0  0
   -2.5423    4.3170  -21.8841 C   0  0  0  0  0  0  0  0  0  0  0  0
   -3.4257    4.9666  -22.7277 C   0  0  0  0  0  0  0  0  0  0  0  0
   -3.6217    6.2240  -22.2634 N   0  0  0  0  0  0  0  0  0  0  0  0
   -2.8920    6.3418  -21.1839 N   0  0  0  0  0  0  0  0  0  0  0  0
   -2.2310    5.2122  -20.9291 N   0  0  0  0  0  0  0  0  0  0  0  0
   -2.8381    7.1560  -20.6331 H   0  0  0  0  0  0  0  0  0  0  0  0
  2  1  1  0  0  0
  2  3  1  0  0  0
  3  4  1  0  0  0
  4 19  1  0  0  0
  4  5  1  0  0  0
 19 20  2  0  0  0
 20 21  1  0  0  0
 21 22  2  0  0  0
 22 23  1  0  0  0
 23 24  2  0  0  0
 24 25  1  0  0  0
 25 26  2  0  0  0
 26 27  1  0  0  0
 27 28  2  0  0  0
 28 19  1  0  0  0
 28 23  1  0  0  0
  5  6  2  0  0  0
  7  5  1  0  0  0
  7  8  1  0  0  0
  7  2  1  0  0  0
  8  9  1  0  0  0
  9 29  1  0  0  0
  9 10  1  0  0  0
 29 30  1  0  0  0
 30 31  1  0  0  0
 31 32  2  0  0  0
 32 33  1  0  0  0
 33 34  1  0  0  0
 33 35  1  0  0  0
 34 30  2  0  0  0
 10 11  2  0  0  0
 10 12  1  0  0  0
 12 13  2  0  0  0
 13 14  1  0  0  0
 14 15  2  0  0  0
 15 16  1  0  0  0
 15 17  1  0  0  0
 17 18  2  0  0  0
 18 12  1  0  0  0
 18  7  1  0  0  0
M  END
> <minimizedAffinity>
-7.21980

> <CNNscore>
0.1623624563

> <CNNaffinity>
5.5320215225

> <CNN_VS>
0.8981925845

> <CNNaffinity_variance>
0.0595921353

$$$$



 35 40  0  0  0  0  0  0  0  0999 V2000
   -8.4414   -0.3076  -24.8039 C   0  0  0  0  0  0  0  0  0  0  0  0
   -7.5245   -0.8000  -23.7418 C   0  0  0  0  0  0  0  0  0  0  0  0
   -7.4968   -0.0272  -22.4737 C   0  0  0  0  0  0  0  0  0  0  0  0
   -6.7752   -0.9501  -21.5894 N   0  0  0  0  0  0  0  0  0  0  0  0
   -6.8214   -2.2661  -22.1310 C   0  0  0  0  0  0  0  0  0  0  0  0
   -6.1546   -3.2249  -21.7203 O   0  0  0  0  0  0  0  0  0  0  0  0
   -7.8213   -2.2071  -23.2581 C   0  0  0  0  0  0  0  0  0  0  0  0
   -9.1719   -2.3934  -22.6862 C   0  0  0  0  0  0  0  0  0  0  0  0
  -10.1416   -3.0138  -23.5379 N   0  0  0  0  0  0  0  0  0  0  0  0
   -9.7410   -3.8918  -24.6093 C   0  0  0  0  0  0  0  0  0  0  0  0
  -10.6055   -4.6093  -25.1724 O   0  0  0  0  0  0  0  0  0  0  0  0
   -8.3659   -3.9326  -25.0146 C   0  0  0  0  0  0  0  0  0  0  0  0
   -7.9600   -4.7634  -26.0357 C   0  0  0  0  0  0  0  0  0  0  0  0
   -6.6554   -4.7952  -26.4127 C   0  0  0  0  0  0  0  0  0  0  0  0
   -5.7221   -4.0032  -25.7858 C   0  0  0  0  0  0  0  0  0  0  0  0
   -4.4250   -4.0519  -26.1795 F   0  0  0  0  0  0  0  0  0  0  0  0
   -6.1375   -3.1617  -24.7504 C   0  0  0  0  0  0  0  0  0  0  0  0
   -7.4654   -3.1173  -24.3533 C   0  0  0  0  0  0  0  0  0  0  0  0
   -6.1518   -0.4976  -20.3847 C   0  0  0  0  0  0  0  0  0  0  0  0
   -6.7087   -0.7805  -19.1429 C   0  0  0  0  0  0  0  0  0  0  0  0
   -6.0807   -0.3317  -18.0621 N   0  0  0  0  0  0  0  0  0  0  0  0
   -4.9502    0.3714  -18.1237 C   0  0  0  0  0  0  0  0  0  0  0  0
   -4.3690    0.6716  -19.3249 C   0  0  0  0  0  0  0  0  0  0  0  0
   -3.1943    1.3997  -19.4378 C   0  0  0  0  0  0  0  0  0  0  0  0
   -2.6689    1.6630  -20.6796 C   0  0  0  0  0  0  0  0  0  0  0  0
   -3.2672    1.2276  -21.8559 C   0  0  0  0  0  0  0  0  0  0  0  0
   -4.4283    0.5091  -21.7241 C   0  0  0  0  0  0  0  0  0  0  0  0
   -4.9763    0.2316  -20.4837 C   0  0  0  0  0  0  0  0  0  0  0  0
  -11.5657   -2.7976  -23.3745 C   0  0  0  0  0  0  0  0  0  0  0  0
  -11.9733   -1.3868  -23.5246 C   0  0  0  0  0  0  0  0  0  0  0  0
  -13.2291   -0.9058  -23.1996 C   0  0  0  0  0  0  0  0  0  0  0  0
  -13.2636    0.4233  -23.4588 N   0  0  0  0  0  0  0  0  0  0  0  0
  -12.0830    0.7445  -23.9220 N   0  0  0  0  0  0  0  0  0  0  0  0
  -11.2843   -0.3219  -23.9737 N   0  0  0  0  0  0  0  0  0  0  0  0
  -11.8193    1.6527  -24.1960 H   0  0  0  0  0  0  0  0  0  0  0  0
  2  1  1  0  0  0
  2  3  1  0  0  0
  3  4  1  0  0  0
  4 19  1  0  0  0
  4  5  1  0  0  0
 19 20  2  0  0  0
 20 21  1  0  0  0
 21 22  2  0  0  0
 22 23  1  0  0  0
 23 24  2  0  0  0
 24 25  1  0  0  0
 25 26  2  0  0  0
 26 27  1  0  0  0
 27 28  2  0  0  0
 28 19  1  0  0  0
 28 23  1  0  0  0
  5  6  2  0  0  0
  7  5  1  0  0  0
  7  8  1  0  0  0
  7  2  1  0  0  0
  8  9  1  0  0  0
  9 29  1  0  0  0
  9 10  1  0  0  0
 29 30  1  0  0  0
 30 31  1  0  0  0
 31 32  2  0  0  0
 32 33  1  0  0  0
 33 34  1  0  0  0
 33 35  1  0  0  0
 34 30  2  0  0  0
 10 11  2  0  0  0
 10 12  1  0  0  0
 12 13  2  0  0  0
 13 14  1  0  0  0
 14 15  2  0  0  0
 15 16  1  0  0  0
 15 17  1  0  0  0
 17 18  2  0  0  0
 18 12  1  0  0  0
 18  7  1  0  0  0
M  END
> <minimizedAffinity>
-9.18580

> <CNNscore>
0.1463211924

> <CNNaffinity>
6.0017714500

> <CNN_VS>
0.8781863451

> <CNNaffinity_variance>
0.0841814727

$$$$



 35 40  0  0  0  0  0  0  0  0999 V2000
   -5.7377   -1.4859  -21.4743 C   0  0  0  0  0  0  0  0  0  0  0  0
   -6.8817   -1.4709  -22.4240 C   0  0  0  0  0  0  0  0  0  0  0  0
   -8.2183   -1.1645  -21.8534 C   0  0  0  0  0  0  0  0  0  0  0  0
   -9.0016   -0.9177  -23.0699 N   0  0  0  0  0  0  0  0  0  0  0  0
   -8.1241   -0.6338  -24.1546 C   0  0  0  0  0  0  0  0  0  0  0  0
   -8.4651   -0.5667  -25.3428 O   0  0  0  0  0  0  0  0  0  0  0  0
   -6.7613   -0.4465  -23.5368 C   0  0  0  0  0  0  0  0  0  0  0  0
   -6.6516    0.9551  -23.0792 C   0  0  0  0  0  0  0  0  0  0  0  0
   -5.3375    1.5239  -23.0863 N   0  0  0  0  0  0  0  0  0  0  0  0
   -4.3135    1.0261  -23.9714 C   0  0  0  0  0  0  0  0  0  0  0  0
   -3.2627    1.6958  -24.1343 O   0  0  0  0  0  0  0  0  0  0  0  0
   -4.5098   -0.2219  -24.6501 C   0  0  0  0  0  0  0  0  0  0  0  0
   -3.5456   -0.7171  -25.5002 C   0  0  0  0  0  0  0  0  0  0  0  0
   -3.7404   -1.9002  -26.1386 C   0  0  0  0  0  0  0  0  0  0  0  0
   -4.8965   -2.6204  -25.9489 C   0  0  0  0  0  0  0  0  0  0  0  0
   -5.0687   -3.7994  -26.5972 F   0  0  0  0  0  0  0  0  0  0  0  0
   -5.8723   -2.1149  -25.0858 C   0  0  0  0  0  0  0  0  0  0  0  0
   -5.6892   -0.9089  -24.4264 C   0  0  0  0  0  0  0  0  0  0  0  0
  -10.4303   -0.9770  -23.0642 C   0  0  0  0  0  0  0  0  0  0  0  0
  -11.0940   -2.1791  -22.8475 C   0  0  0  0  0  0  0  0  0  0  0  0
  -12.4220   -2.1671  -22.8545 N   0  0  0  0  0  0  0  0  0  0  0  0
  -13.1330   -1.0585  -23.0592 C   0  0  0  0  0  0  0  0  0  0  0  0
  -12.5196    0.1446  -23.2763 C   0  0  0  0  0  0  0  0  0  0  0  0
  -13.2175    1.3230  -23.4937 C   0  0  0  0  0  0  0  0  0  0  0  0
  -12.5326    2.4951  -23.7049 C   0  0  0  0  0  0  0  0  0  0  0  0
  -11.1446    2.5630  -23.7122 C   0  0  0  0  0  0  0  0  0  0  0  0
  -10.4718    1.3873  -23.4954 C   0  0  0  0  0  0  0  0  0  0  0  0
  -11.1403    0.1945  -23.2804 C   0  0  0  0  0  0  0  0  0  0  0  0
   -4.9643    2.6201  -22.2143 C   0  0  0  0  0  0  0  0  0  0  0  0
   -4.2913    2.1891  -20.9731 C   0  0  0  0  0  0  0  0  0  0  0  0
   -3.0262    2.6027  -20.5956 C   0  0  0  0  0  0  0  0  0  0  0  0
   -2.7163    2.0212  -19.4120 N   0  0  0  0  0  0  0  0  0  0  0  0
   -3.7440    1.2839  -19.0775 N   0  0  0  0  0  0  0  0  0  0  0  0
   -4.7076    1.3636  -19.9956 N   0  0  0  0  0  0  0  0  0  0  0  0
   -3.7986    0.7424  -18.2571 H   0  0  0  0  0  0  0  0  0  0  0  0
  2  1  1  0  0  0
  2  3  1  0  0  0
  3  4  1  0  0  0
  4 19  1  0  0  0
  4  5  1  0  0  0
 19 20  2  0  0  0
 20 21  1  0  0  0
 21 22  2  0  0  0
 22 23  1  0  0  0
 23 24  2  0  0  0
 24 25  1  0  0  0
 25 26  2  0  0  0
 26 27  1  0  0  0
 27 28  2  0  0  0
 28 19  1  0  0  0
 28 23  1  0  0  0
  5  6  2  0  0  0
  7  5  1  0  0  0
  7  8  1  0  0  0
  7  2  1  0  0  0
  8  9  1  0  0  0
  9 29  1  0  0  0
  9 10  1  0  0  0
 29 30  1  0  0  0
 30 31  1  0  0  0
 31 32  2  0  0  0
 32 33  1  0  0  0
 33 34  1  0  0  0
 33 35  1  0  0  0
 34 30  2  0  0  0
 10 11  2  0  0  0
 10 12  1  0  0  0
 12 13  2  0  0  0
 13 14  1  0  0  0
 14 15  2  0  0  0
 15 16  1  0  0  0
 15 17  1  0  0  0
 17 18  2  0  0  0
 18 12  1  0  0  0
 18  7  1  0  0  0
M  END
> <minimizedAffinity>
-8.27290

> <CNNscore>
0.1413458884

> <CNNaffinity>
5.7761940956

> <CNN_VS>
0.8164412975

> <CNNaffinity_variance>
0.1429839283

$$$$



 34 38  0  0  0  0  0  0  0  0999 V2000
   -9.2266    1.7126  -24.2422 N   0  0  0  0  0  0  0  0  0  0  0  0
   -8.6308    0.4329  -24.5544 C   0  0  0  0  0  0  0  0  0  0  0  0
   -9.0287   -0.5482  -23.4791 C   0  0  0  0  0  0  0  0  0  0  0  0
   -8.5401    0.0148  -22.1666 C   0  0  0  0  0  0  0  0  0  0  0  0
   -9.1558    0.8635  -21.4550 O   0  0  0  0  0  0  0  0  0  0  0  0
   -7.2711   -0.5625  -21.8540 N   0  0  0  0  0  0  0  0  0  0  0  0
   -6.9137   -1.4077  -22.9754 C   0  0  0  0  0  0  0  0  0  0  0  0
   -8.2837   -1.8203  -23.5380 C   0  0  0  0  0  0  0  0  0  0  0  0
   -8.0160   -2.3403  -24.9289 C   0  0  0  0  0  0  0  0  0  0  0  0
  -10.4816   -0.6109  -23.3914 C   0  0  0  0  0  0  0  0  0  0  0  0
  -11.1684   -1.7639  -22.9871 C   0  0  0  0  0  0  0  0  0  0  0  0
  -12.5492   -1.7885  -22.8987 C   0  0  0  0  0  0  0  0  0  0  0  0
  -13.2001   -2.9289  -22.4999 F   0  0  0  0  0  0  0  0  0  0  0  0
  -13.3216   -0.6889  -23.2008 C   0  0  0  0  0  0  0  0  0  0  0  0
  -12.6571    0.4504  -23.5998 C   0  0  0  0  0  0  0  0  0  0  0  0
  -11.2886    0.4713  -23.6866 C   0  0  0  0  0  0  0  0  0  0  0  0
  -10.6659    1.7274  -24.1408 C   0  0  0  0  0  0  0  0  0  0  0  0
  -11.3413    2.7500  -24.4229 O   0  0  0  0  0  0  0  0  0  0  0  0
   -6.4784   -0.3655  -20.6722 C   0  0  0  0  0  0  0  0  0  0  0  0
   -6.8583   -1.0059  -19.5040 C   0  0  0  0  0  0  0  0  0  0  0  0
   -6.1723   -0.8757  -18.3506 N   0  0  0  0  0  0  0  0  0  0  0  0
   -5.0786   -0.0937  -18.3388 C   0  0  0  0  0  0  0  0  0  0  0  0
   -4.6621    0.5620  -19.4719 C   0  0  0  0  0  0  0  0  0  0  0  0
   -3.5327    1.3588  -19.4267 C   0  0  0  0  0  0  0  0  0  0  0  0
   -3.1313    2.0122  -20.5904 C   0  0  0  0  0  0  0  0  0  0  0  0
   -3.8312    1.8733  -21.7481 C   0  0  0  0  0  0  0  0  0  0  0  0
   -4.9479    1.0745  -21.7576 C   0  0  0  0  0  0  0  0  0  0  0  0
   -5.3681    0.4186  -20.6290 C   0  0  0  0  0  0  0  0  0  0  0  0
   -8.5148    2.9311  -24.0309 C   0  0  0  0  0  0  0  0  0  0  0  0
   -7.0304    2.8478  -24.1061 C   0  0  0  0  0  0  0  0  0  0  0  0
   -6.8024    4.2601  -22.2391 C   0  0  0  0  0  0  0  0  0  0  0  0
   -6.3406    4.0064  -23.6019 N   0  0  0  0  0  0  0  0  0  0  0  0
   -5.3352    3.8347  -23.5988 H   0  0  0  0  0  0  0  0  0  0  0  0
   -6.5332    4.8145  -24.1938 H   0  0  0  0  0  0  0  0  0  0  0  0
 31 32  1  0  0  0
 32 30  1  0  0  0
 32 33  1  0  0  0
 32 34  1  0  0  0
 30 29  1  0  0  0
 29  1  1  0  0  0
  1  2  1  0  0  0
  3  2  1  0  0  0
  3  4  1  0  0  0
  3 10  1  0  0  0
  4  5  2  0  0  0
  4  6  1  0  0  0
  6 19  1  0  0  0
  6  7  1  0  0  0
 19 20  2  0  0  0
 20 21  1  0  0  0
 21 22  2  0  0  0
 22 23  1  0  0  0
 23 24  2  0  0  0
 24 25  1  0  0  0
 25 26  2  0  0  0
 26 27  1  0  0  0
 27 28  2  0  0  0
 28 19  1  0  0  0
 28 23  1  0  0  0
  7  8  1  0  0  0
  8  9  1  0  0  0
  8  3  1  0  0  0
 10 11  2  0  0  0
 11 12  1  0  0  0
 12 13  1  0  0  0
 12 14  2  0  0  0
 14 15  1  0  0  0
 15 16  2  0  0  0
 16 17  1  0  0  0
 16 10  1  0  0  0
 17 18  2  0  0  0
 17  1  1  0  0  0
M  CHG 1  32   1
M  END
> <minimizedAffinity>
-8.55770

> <CNNscore>
0.8105766177

> <CNNaffinity>
6.3562850952

> <CNN_VS>
5.1522560120

> <CNNaffinity_variance>
0.1262147576

$$$$



 34 38  0  0  0  0  0  0  0  0999 V2000
   -7.0569   -2.7469  -23.3367 N   0  0  0  0  0  0  0  0  0  0  0  0
   -6.8472   -1.6516  -24.2567 C   0  0  0  0  0  0  0  0  0  0  0  0
   -7.0713   -0.3590  -23.5110 C   0  0  0  0  0  0  0  0  0  0  0  0
   -8.4798   -0.4011  -22.9701 C   0  0  0  0  0  0  0  0  0  0  0  0
   -8.8356   -0.9513  -21.8855 O   0  0  0  0  0  0  0  0  0  0  0  0
   -9.3493    0.2790  -23.8772 N   0  0  0  0  0  0  0  0  0  0  0  0
   -8.5377    0.6727  -25.0113 C   0  0  0  0  0  0  0  0  0  0  0  0
   -7.1394    0.8238  -24.3903 C   0  0  0  0  0  0  0  0  0  0  0  0
   -6.1730    0.8151  -25.5491 C   0  0  0  0  0  0  0  0  0  0  0  0
   -6.1828   -0.3025  -22.3577 C   0  0  0  0  0  0  0  0  0  0  0  0
   -5.6953    0.9026  -21.8336 C   0  0  0  0  0  0  0  0  0  0  0  0
   -4.8647    0.9254  -20.7270 C   0  0  0  0  0  0  0  0  0  0  0  0
   -4.3999    2.1176  -20.2312 F   0  0  0  0  0  0  0  0  0  0  0  0
   -4.4727   -0.2268  -20.0823 C   0  0  0  0  0  0  0  0  0  0  0  0
   -4.9457   -1.4177  -20.5889 C   0  0  0  0  0  0  0  0  0  0  0  0
   -5.7685   -1.4368  -21.6860 C   0  0  0  0  0  0  0  0  0  0  0  0
   -6.2094   -2.7575  -22.1690 C   0  0  0  0  0  0  0  0  0  0  0  0
   -5.8715   -3.8285  -21.6029 O   0  0  0  0  0  0  0  0  0  0  0  0
  -10.7542    0.5384  -23.7271 C   0  0  0  0  0  0  0  0  0  0  0  0
  -11.2215    1.8206  -23.9654 C   0  0  0  0  0  0  0  0  0  0  0  0
  -12.5234    2.1507  -23.8472 N   0  0  0  0  0  0  0  0  0  0  0  0
  -13.3975    1.1958  -23.4840 C   0  0  0  0  0  0  0  0  0  0  0  0
  -12.9823   -0.0902  -23.2367 C   0  0  0  0  0  0  0  0  0  0  0  0
  -13.9066   -1.0494  -22.8652 C   0  0  0  0  0  0  0  0  0  0  0  0
  -13.4592   -2.3465  -22.6210 C   0  0  0  0  0  0  0  0  0  0  0  0
  -12.1435   -2.6678  -22.7436 C   0  0  0  0  0  0  0  0  0  0  0  0
  -11.2527   -1.6909  -23.1142 C   0  0  0  0  0  0  0  0  0  0  0  0
  -11.6621   -0.4057  -23.3613 C   0  0  0  0  0  0  0  0  0  0  0  0
   -8.0165   -3.7913  -23.4933 C   0  0  0  0  0  0  0  0  0  0  0  0
   -7.6283   -4.9126  -24.3922 C   0  0  0  0  0  0  0  0  0  0  0  0
   -8.2897   -6.9733  -25.3132 C   0  0  0  0  0  0  0  0  0  0  0  0
   -8.2706   -6.1663  -24.0953 N   0  0  0  0  0  0  0  0  0  0  0  0
   -7.7516   -6.6552  -23.3659 H   0  0  0  0  0  0  0  0  0  0  0  0
   -9.2226   -6.0037  -23.7671 H   0  0  0  0  0  0  0  0  0  0  0  0
 31 32  1  0  0  0
 32 30  1  0  0  0
 32 33  1  0  0  0
 32 34  1  0  0  0
 30 29  1  0  0  0
 29  1  1  0  0  0
  1  2  1  0  0  0
  3  2  1  0  0  0
  3  4  1  0  0  0
  3 10  1  0  0  0
  4  5  2  0  0  0
  4  6  1  0  0  0
  6 19  1  0  0  0
  6  7  1  0  0  0
 19 20  2  0  0  0
 20 21  1  0  0  0
 21 22  2  0  0  0
 22 23  1  0  0  0
 23 24  2  0  0  0
 24 25  1  0  0  0
 25 26  2  0  0  0
 26 27  1  0  0  0
 27 28  2  0  0  0
 28 19  1  0  0  0
 28 23  1  0  0  0
  7  8  1  0  0  0
  8  9  1  0  0  0
  8  3  1  0  0  0
 10 11  2  0  0  0
 11 12  1  0  0  0
 12 13  1  0  0  0
 12 14  2  0  0  0
 14 15  1  0  0  0
 15 16  2  0  0  0
 16 17  1  0  0  0
 16 10  1  0  0  0
 17 18  2  0  0  0
 17  1  1  0  0  0
M  CHG 1  32   1
M  END
> <minimizedAffinity>
-7.34738

> <CNNscore>
0.4048801959

> <CNNaffinity>
6.2669744492

> <CNN_VS>
2.5373737812

> <CNNaffinity_variance>
0.0988703445

$$$$



 34 38  0  0  0  0  0  0  0  0999 V2000
   -6.6466   -2.0624  -26.3714 N   0  0  0  0  0  0  0  0  0  0  0  0
   -6.3738   -1.8363  -24.9697 C   0  0  0  0  0  0  0  0  0  0  0  0
   -7.4016   -2.5891  -24.1611 C   0  0  0  0  0  0  0  0  0  0  0  0
   -8.7565   -2.0717  -24.5796 C   0  0  0  0  0  0  0  0  0  0  0  0
   -9.4212   -2.4747  -25.5803 O   0  0  0  0  0  0  0  0  0  0  0  0
   -9.1704   -1.0538  -23.6664 N   0  0  0  0  0  0  0  0  0  0  0  0
   -8.0753   -0.8616  -22.7371 C   0  0  0  0  0  0  0  0  0  0  0  0
   -7.3940   -2.2398  -22.7277 C   0  0  0  0  0  0  0  0  0  0  0  0
   -6.0259   -2.0168  -22.1315 C   0  0  0  0  0  0  0  0  0  0  0  0
   -7.3646   -4.0005  -24.5204 C   0  0  0  0  0  0  0  0  0  0  0  0
   -7.6976   -5.0218  -23.6201 C   0  0  0  0  0  0  0  0  0  0  0  0
   -7.6678   -6.3535  -23.9952 C   0  0  0  0  0  0  0  0  0  0  0  0
   -7.9985   -7.3364  -23.0965 F   0  0  0  0  0  0  0  0  0  0  0  0
   -7.3117   -6.7481  -25.2658 C   0  0  0  0  0  0  0  0  0  0  0  0
   -6.9820   -5.7525  -26.1596 C   0  0  0  0  0  0  0  0  0  0  0  0
   -7.0124   -4.4337  -25.7844 C   0  0  0  0  0  0  0  0  0  0  0  0
   -6.6252   -3.4396  -26.8012 C   0  0  0  0  0  0  0  0  0  0  0  0
   -6.2966   -3.7657  -27.9705 O   0  0  0  0  0  0  0  0  0  0  0  0
  -10.4172   -0.3406  -23.6449 C   0  0  0  0  0  0  0  0  0  0  0  0
  -10.4311    0.9842  -24.0495 C   0  0  0  0  0  0  0  0  0  0  0  0
  -11.5564    1.7268  -24.0597 N   0  0  0  0  0  0  0  0  0  0  0  0
  -12.7064    1.1553  -23.6611 C   0  0  0  0  0  0  0  0  0  0  0  0
  -12.7433   -0.1554  -23.2509 C   0  0  0  0  0  0  0  0  0  0  0  0
  -13.9423   -0.7137  -22.8472 C   0  0  0  0  0  0  0  0  0  0  0  0
  -13.9524   -2.0454  -22.4366 C   0  0  0  0  0  0  0  0  0  0  0  0
  -12.8110   -2.7846  -22.4307 C   0  0  0  0  0  0  0  0  0  0  0  0
  -11.6378   -2.1988  -22.8377 C   0  0  0  0  0  0  0  0  0  0  0  0
  -11.5956   -0.8908  -23.2472 C   0  0  0  0  0  0  0  0  0  0  0  0
   -6.9296   -1.0504  -27.3366 C   0  0  0  0  0  0  0  0  0  0  0  0
   -7.0813    0.3348  -26.8128 C   0  0  0  0  0  0  0  0  0  0  0  0
   -8.0114    1.9637  -28.2320 C   0  0  0  0  0  0  0  0  0  0  0  0
   -6.7622    1.3703  -27.7606 N   0  0  0  0  0  0  0  0  0  0  0  0
   -6.1895    2.0846  -27.3109 H   0  0  0  0  0  0  0  0  0  0  0  0
   -6.2414    0.9791  -28.5456 H   0  0  0  0  0  0  0  0  0  0  0  0
 31 32  1  0  0  0
 32 30  1  0  0  0
 32 33  1  0  0  0
 32 34  1  0  0  0
 30 29  1  0  0  0
 29  1  1  0  0  0
  1  2  1  0  0  0
  3  2  1  0  0  0
  3  4  1  0  0  0
  3 10  1  0  0  0
  4  5  2  0  0  0
  4  6  1  0  0  0
  6 19  1  0  0  0
  6  7  1  0  0  0
 19 20  2  0  0  0
 20 21  1  0  0  0
 21 22  2  0  0  0
 22 23  1  0  0  0
 23 24  2  0  0  0
 24 25  1  0  0  0
 25 26  2  0  0  0
 26 27  1  0  0  0
 27 28  2  0  0  0
 28 19  1  0  0  0
 28 23  1  0  0  0
  7  8  1  0  0  0
  8  9  1  0  0  0
  8  3  1  0  0  0
 10 11  2  0  0  0
 11 12  1  0  0  0
 12 13  1  0  0  0
 12 14  2  0  0  0
 14 15  1  0  0  0
 15 16  2  0  0  0
 16 17  1  0  0  0
 16 10  1  0  0  0
 17 18  2  0  0  0
 17  1  1  0  0  0
M  CHG 1  32   1
M  END
> <minimizedAffinity>
-6.73403

> <CNNscore>
0.3997291327

> <CNNaffinity>
5.7973594666

> <CNN_VS>
2.3173735142

> <CNNaffinity_variance>
0.2790501118

$$$$



 34 38  0  0  0  0  0  0  0  0999 V2000
   -7.4955   -1.4867  -21.6327 N   0  0  0  0  0  0  0  0  0  0  0  0
   -6.4961   -1.3008  -22.6606 C   0  0  0  0  0  0  0  0  0  0  0  0
   -5.9384    0.0953  -22.5299 C   0  0  0  0  0  0  0  0  0  0  0  0
   -7.1001    1.0486  -22.6708 C   0  0  0  0  0  0  0  0  0  0  0  0
   -7.8810    1.4002  -21.7368 O   0  0  0  0  0  0  0  0  0  0  0  0
   -7.1792    1.4918  -24.0268 N   0  0  0  0  0  0  0  0  0  0  0  0
   -6.1507    0.7776  -24.7559 C   0  0  0  0  0  0  0  0  0  0  0  0
   -5.0965    0.5021  -23.6713 C   0  0  0  0  0  0  0  0  0  0  0  0
   -4.2083   -0.5828  -24.2289 C   0  0  0  0  0  0  0  0  0  0  0  0
   -5.4053    0.2824  -21.1871 C   0  0  0  0  0  0  0  0  0  0  0  0
   -4.3384    1.1475  -20.9078 C   0  0  0  0  0  0  0  0  0  0  0  0
   -3.8636    1.3161  -19.6190 C   0  0  0  0  0  0  0  0  0  0  0  0
   -2.8179    2.1692  -19.3694 F   0  0  0  0  0  0  0  0  0  0  0  0
   -4.4086    0.6480  -18.5450 C   0  0  0  0  0  0  0  0  0  0  0  0
   -5.4580   -0.2055  -18.8076 C   0  0  0  0  0  0  0  0  0  0  0  0
   -5.9260   -0.3705  -20.0861 C   0  0  0  0  0  0  0  0  0  0  0  0
   -7.0385   -1.3185  -20.2744 C   0  0  0  0  0  0  0  0  0  0  0  0
   -7.5601   -1.9432  -19.3157 O   0  0  0  0  0  0  0  0  0  0  0  0
   -8.0863    2.4528  -24.5902 C   0  0  0  0  0  0  0  0  0  0  0  0
   -8.9224    2.0520  -25.6195 C   0  0  0  0  0  0  0  0  0  0  0  0
   -9.8025    2.8888  -26.2053 N   0  0  0  0  0  0  0  0  0  0  0  0
   -9.8674    4.1594  -25.7704 C   0  0  0  0  0  0  0  0  0  0  0  0
   -9.0588    4.6040  -24.7526 C   0  0  0  0  0  0  0  0  0  0  0  0
   -9.1504    5.9170  -24.3282 C   0  0  0  0  0  0  0  0  0  0  0  0
   -8.3193    6.3421  -23.2934 C   0  0  0  0  0  0  0  0  0  0  0  0
   -7.4354    5.4890  -22.7101 C   0  0  0  0  0  0  0  0  0  0  0  0
   -7.3706    4.1921  -23.1561 C   0  0  0  0  0  0  0  0  0  0  0  0
   -8.1750    3.7438  -24.1722 C   0  0  0  0  0  0  0  0  0  0  0  0
   -8.8661   -1.8148  -21.8561 C   0  0  0  0  0  0  0  0  0  0  0  0
   -9.1312   -2.9012  -22.8387 C   0  0  0  0  0  0  0  0  0  0  0  0
  -10.7191   -3.4981  -24.4680 C   0  0  0  0  0  0  0  0  0  0  0  0
  -10.5260   -3.1851  -23.0539 N   0  0  0  0  0  0  0  0  0  0  0  0
  -10.8076   -3.9821  -22.4829 H   0  0  0  0  0  0  0  0  0  0  0  0
  -11.0926   -2.3782  -22.7925 H   0  0  0  0  0  0  0  0  0  0  0  0
 31 32  1  0  0  0
 32 30  1  0  0  0
 32 33  1  0  0  0
 32 34  1  0  0  0
 30 29  1  0  0  0
 29  1  1  0  0  0
  1  2  1  0  0  0
  3  2  1  0  0  0
  3  4  1  0  0  0
  3 10  1  0  0  0
  4  5  2  0  0  0
  4  6  1  0  0  0
  6 19  1  0  0  0
  6  7  1  0  0  0
 19 20  2  0  0  0
 20 21  1  0  0  0
 21 22  2  0  0  0
 22 23  1  0  0  0
 23 24  2  0  0  0
 24 25  1  0  0  0
 25 26  2  0  0  0
 26 27  1  0  0  0
 27 28  2  0  0  0
 28 19  1  0  0  0
 28 23  1  0  0  0
  7  8  1  0  0  0
  8  9  1  0  0  0
  8  3  1  0  0  0
 10 11  2  0  0  0
 11 12  1  0  0  0
 12 13  1  0  0  0
 12 14  2  0  0  0
 14 15  1  0  0  0
 15 16  2  0  0  0
 16 17  1  0  0  0
 16 10  1  0  0  0
 17 18  2  0  0  0
 17  1  1  0  0  0
M  CHG 1  32   1
M  END
> <minimizedAffinity>
-7.03752

> <CNNscore>
0.3288990259

> <CNNaffinity>
5.6441731453

> <CNN_VS>
1.8563630581

> <CNNaffinity_variance>
0.0680937916

$$$$



 34 38  0  0  0  0  0  0  0  0999 V2000
   -7.1156   -1.5772  -21.9009 N   0  0  0  0  0  0  0  0  0  0  0  0
   -6.5933   -1.0027  -23.1204 C   0  0  0  0  0  0  0  0  0  0  0  0
   -6.4024    0.4780  -22.9009 C   0  0  0  0  0  0  0  0  0  0  0  0
   -7.7494    1.0444  -22.5228 C   0  0  0  0  0  0  0  0  0  0  0  0
   -8.2421    1.0548  -21.3554 O   0  0  0  0  0  0  0  0  0  0  0  0
   -8.3813    1.5678  -23.6925 N   0  0  0  0  0  0  0  0  0  0  0  0
   -7.5031    1.2692  -24.8057 C   0  0  0  0  0  0  0  0  0  0  0  0
   -6.1175    1.2250  -24.1409 C   0  0  0  0  0  0  0  0  0  0  0  0
   -5.2151    0.5163  -25.1208 C   0  0  0  0  0  0  0  0  0  0  0  0
   -5.5243    0.6910  -21.7581 C   0  0  0  0  0  0  0  0  0  0  0  0
   -4.6853    1.8079  -21.6435 C   0  0  0  0  0  0  0  0  0  0  0  0
   -3.8732    1.9909  -20.5381 C   0  0  0  0  0  0  0  0  0  0  0  0
   -3.0601    3.0928  -20.4476 F   0  0  0  0  0  0  0  0  0  0  0  0
   -3.8434    1.0920  -19.4950 C   0  0  0  0  0  0  0  0  0  0  0  0
   -4.6640   -0.0102  -19.5969 C   0  0  0  0  0  0  0  0  0  0  0  0
   -5.4675   -0.1886  -20.6939 C   0  0  0  0  0  0  0  0  0  0  0  0
   -6.2967   -1.4065  -20.7252 C   0  0  0  0  0  0  0  0  0  0  0  0
   -6.2947   -2.2464  -19.7891 O   0  0  0  0  0  0  0  0  0  0  0  0
   -9.6379    2.2580  -23.7835 C   0  0  0  0  0  0  0  0  0  0  0  0
   -9.6292    3.6343  -23.9413 C   0  0  0  0  0  0  0  0  0  0  0  0
  -10.7617    4.3599  -24.0345 N   0  0  0  0  0  0  0  0  0  0  0  0
  -11.9419    3.7190  -23.9714 C   0  0  0  0  0  0  0  0  0  0  0  0
  -12.0021    2.3553  -23.8155 C   0  0  0  0  0  0  0  0  0  0  0  0
  -13.2321    1.7261  -23.7546 C   0  0  0  0  0  0  0  0  0  0  0  0
  -13.2651    0.3417  -23.5969 C   0  0  0  0  0  0  0  0  0  0  0  0
  -12.1161   -0.3798  -23.5041 C   0  0  0  0  0  0  0  0  0  0  0  0
  -10.9120    0.2770  -23.5683 C   0  0  0  0  0  0  0  0  0  0  0  0
  -10.8467    1.6380  -23.7231 C   0  0  0  0  0  0  0  0  0  0  0  0
   -8.3502   -2.2817  -21.7764 C   0  0  0  0  0  0  0  0  0  0  0  0
   -8.7096   -3.1842  -22.9044 C   0  0  0  0  0  0  0  0  0  0  0  0
  -10.4122   -3.5235  -24.4914 C   0  0  0  0  0  0  0  0  0  0  0  0
  -10.1228   -3.4078  -23.0639 N   0  0  0  0  0  0  0  0  0  0  0  0
  -10.3916   -4.2684  -22.5869 H   0  0  0  0  0  0  0  0  0  0  0  0
  -10.6483   -2.6320  -22.6610 H   0  0  0  0  0  0  0  0  0  0  0  0
 31 32  1  0  0  0
 32 30  1  0  0  0
 32 33  1  0  0  0
 32 34  1  0  0  0
 30 29  1  0  0  0
 29  1  1  0  0  0
  1  2  1  0  0  0
  3  2  1  0  0  0
  3  4  1  0  0  0
  3 10  1  0  0  0
  4  5  2  0  0  0
  4  6  1  0  0  0
  6 19  1  0  0  0
  6  7  1  0  0  0
 19 20  2  0  0  0
 20 21  1  0  0  0
 21 22  2  0  0  0
 22 23  1  0  0  0
 23 24  2  0  0  0
 24 25  1  0  0  0
 25 26  2  0  0  0
 26 27  1  0  0  0
 27 28  2  0  0  0
 28 19  1  0  0  0
 28 23  1  0  0  0
  7  8  1  0  0  0
  8  9  1  0  0  0
  8  3  1  0  0  0
 10 11  2  0  0  0
 11 12  1  0  0  0
 12 13  1  0  0  0
 12 14  2  0  0  0
 14 15  1  0  0  0
 15 16  2  0  0  0
 16 17  1  0  0  0
 16 10  1  0  0  0
 17 18  2  0  0  0
 17  1  1  0  0  0
M  CHG 1  32   1
M  END
> <minimizedAffinity>
-8.11794

> <CNNscore>
0.3019117117

> <CNNaffinity>
5.8343482018

> <CNN_VS>
1.7614580393

> <CNNaffinity_variance>
0.1051396877

$$$$



 34 38  0  0  0  0  0  0  0  0999 V2000
   -3.5813    2.4882  -21.3245 N   0  0  0  0  0  0  0  0  0  0  0  0
   -4.8702    2.6236  -21.9653 C   0  0  0  0  0  0  0  0  0  0  0  0
   -5.4970    1.2541  -22.0591 C   0  0  0  0  0  0  0  0  0  0  0  0
   -4.5453    0.3871  -22.8471 C   0  0  0  0  0  0  0  0  0  0  0  0
   -3.5474   -0.2318  -22.3706 O   0  0  0  0  0  0  0  0  0  0  0  0
   -4.9491    0.3757  -24.2175 N   0  0  0  0  0  0  0  0  0  0  0  0
   -6.0777    1.2783  -24.3237 C   0  0  0  0  0  0  0  0  0  0  0  0
   -6.6962    1.2132  -22.9177 C   0  0  0  0  0  0  0  0  0  0  0  0
   -7.5998    2.4170  -22.8111 C   0  0  0  0  0  0  0  0  0  0  0  0
   -5.5897    0.6694  -20.7280 C   0  0  0  0  0  0  0  0  0  0  0  0
   -6.5943   -0.2386  -20.3662 C   0  0  0  0  0  0  0  0  0  0  0  0
   -6.6475   -0.7894  -19.0978 C   0  0  0  0  0  0  0  0  0  0  0  0
   -7.6404   -1.6769  -18.7664 F   0  0  0  0  0  0  0  0  0  0  0  0
   -5.7225   -0.4788  -18.1257 C   0  0  0  0  0  0  0  0  0  0  0  0
   -4.7302    0.4131  -18.4700 C   0  0  0  0  0  0  0  0  0  0  0  0
   -4.6807    0.9573  -19.7279 C   0  0  0  0  0  0  0  0  0  0  0  0
   -3.5954    1.9167  -19.9997 C   0  0  0  0  0  0  0  0  0  0  0  0
   -2.7338    2.2209  -19.1356 O   0  0  0  0  0  0  0  0  0  0  0  0
   -4.3731   -0.3703  -25.3017 C   0  0  0  0  0  0  0  0  0  0  0  0
   -4.8476   -1.6470  -25.5547 C   0  0  0  0  0  0  0  0  0  0  0  0
   -4.3632   -2.4155  -26.5510 N   0  0  0  0  0  0  0  0  0  0  0  0
   -3.3824   -1.9197  -27.3256 C   0  0  0  0  0  0  0  0  0  0  0  0
   -2.8789   -0.6590  -27.1139 C   0  0  0  0  0  0  0  0  0  0  0  0
   -1.8703   -0.1781  -27.9286 C   0  0  0  0  0  0  0  0  0  0  0  0
   -1.3779    1.1042  -27.6930 C   0  0  0  0  0  0  0  0  0  0  0  0
   -1.8744    1.8703  -26.6851 C   0  0  0  0  0  0  0  0  0  0  0  0
   -2.8756    1.3616  -25.8951 C   0  0  0  0  0  0  0  0  0  0  0  0
   -3.3809    0.1037  -26.1019 C   0  0  0  0  0  0  0  0  0  0  0  0
   -2.3278    2.8671  -21.8911 C   0  0  0  0  0  0  0  0  0  0  0  0
   -2.0078    4.3208  -21.8686 C   0  0  0  0  0  0  0  0  0  0  0  0
   -0.1769    4.2903  -20.3923 C   0  0  0  0  0  0  0  0  0  0  0  0
   -1.5274    4.8074  -20.6018 N   0  0  0  0  0  0  0  0  0  0  0  0
   -1.5087    5.8272  -20.6089 H   0  0  0  0  0  0  0  0  0  0  0  0
   -2.1428    4.4961  -19.8502 H   0  0  0  0  0  0  0  0  0  0  0  0
 31 32  1  0  0  0
 32 30  1  0  0  0
 32 33  1  0  0  0
 32 34  1  0  0  0
 30 29  1  0  0  0
 29  1  1  0  0  0
  1  2  1  0  0  0
  3  2  1  0  0  0
  3  4  1  0  0  0
  3 10  1  0  0  0
  4  5  2  0  0  0
  4  6  1  0  0  0
  6 19  1  0  0  0
  6  7  1  0  0  0
 19 20  2  0  0  0
 20 21  1  0  0  0
 21 22  2  0  0  0
 22 23  1  0  0  0
 23 24  2  0  0  0
 24 25  1  0  0  0
 25 26  2  0  0  0
 26 27  1  0  0  0
 27 28  2  0  0  0
 28 19  1  0  0  0
 28 23  1  0  0  0
  7  8  1  0  0  0
  8  9  1  0  0  0
  8  3  1  0  0  0
 10 11  2  0  0  0
 11 12  1  0  0  0
 12 13  1  0  0  0
 12 14  2  0  0  0
 14 15  1  0  0  0
 15 16  2  0  0  0
 16 17  1  0  0  0
 16 10  1  0  0  0
 17 18  2  0  0  0
 17  1  1  0  0  0
M  CHG 1  32   1
M  END
> <minimizedAffinity>
-6.08056

> <CNNscore>
0.2995544374

> <CNNaffinity>
5.3880400658

> <CNN_VS>
1.6140112877

> <CNNaffinity_variance>
0.1025802940

$$$$



 34 38  0  0  0  0  0  0  0  0999 V2000
   -6.9381   -1.6736  -22.2434 N   0  0  0  0  0  0  0  0  0  0  0  0
   -6.8004   -1.0831  -23.5558 C   0  0  0  0  0  0  0  0  0  0  0  0
   -6.9309    0.4138  -23.4162 C   0  0  0  0  0  0  0  0  0  0  0  0
   -8.2813    0.6823  -22.7976 C   0  0  0  0  0  0  0  0  0  0  0  0
   -8.5397    0.6626  -21.5572 O   0  0  0  0  0  0  0  0  0  0  0  0
   -9.2230    0.9626  -23.8349 N   0  0  0  0  0  0  0  0  0  0  0  0
   -8.5182    0.7946  -25.0898 C   0  0  0  0  0  0  0  0  0  0  0  0
   -7.0644    1.1160  -24.7069 C   0  0  0  0  0  0  0  0  0  0  0  0
   -6.2144    0.5649  -25.8252 C   0  0  0  0  0  0  0  0  0  0  0  0
   -5.9347    0.9029  -22.4723 C   0  0  0  0  0  0  0  0  0  0  0  0
   -5.3797    2.1874  -22.5524 C   0  0  0  0  0  0  0  0  0  0  0  0
   -4.4461    2.6296  -21.6315 C   0  0  0  0  0  0  0  0  0  0  0  0
   -3.9166    3.8918  -21.7297 F   0  0  0  0  0  0  0  0  0  0  0  0
   -4.0123    1.8379  -20.5913 C   0  0  0  0  0  0  0  0  0  0  0  0
   -4.5510    0.5727  -20.5027 C   0  0  0  0  0  0  0  0  0  0  0  0
   -5.4759    0.1376  -21.4172 C   0  0  0  0  0  0  0  0  0  0  0  0
   -5.9823   -1.2368  -21.2547 C   0  0  0  0  0  0  0  0  0  0  0  0
   -5.6087   -1.9852  -20.3155 O   0  0  0  0  0  0  0  0  0  0  0  0
  -10.6026    1.3387  -23.6972 C   0  0  0  0  0  0  0  0  0  0  0  0
  -11.5432    0.3445  -23.4821 C   0  0  0  0  0  0  0  0  0  0  0  0
  -12.8578    0.6091  -23.3426 N   0  0  0  0  0  0  0  0  0  0  0  0
  -13.2667    1.8879  -23.4156 C   0  0  0  0  0  0  0  0  0  0  0  0
  -12.3719    2.9087  -23.6275 C   0  0  0  0  0  0  0  0  0  0  0  0
  -12.8246    4.2135  -23.6972 C   0  0  0  0  0  0  0  0  0  0  0  0
  -11.8960    5.2302  -23.9122 C   0  0  0  0  0  0  0  0  0  0  0  0
  -10.5723    4.9513  -24.0515 C   0  0  0  0  0  0  0  0  0  0  0  0
  -10.1572    3.6446  -23.9770 C   0  0  0  0  0  0  0  0  0  0  0  0
  -11.0465    2.6222  -23.7664 C   0  0  0  0  0  0  0  0  0  0  0  0
   -7.9250   -2.6313  -21.8626 C   0  0  0  0  0  0  0  0  0  0  0  0
   -8.9184   -3.0036  -22.9069 C   0  0  0  0  0  0  0  0  0  0  0  0
  -11.1554   -3.1710  -23.6141 C   0  0  0  0  0  0  0  0  0  0  0  0
  -10.2832   -3.0327  -22.4500 N   0  0  0  0  0  0  0  0  0  0  0  0
  -10.4195   -3.8244  -21.8214 H   0  0  0  0  0  0  0  0  0  0  0  0
  -10.5031   -2.1731  -21.9469 H   0  0  0  0  0  0  0  0  0  0  0  0
 31 32  1  0  0  0
 32 30  1  0  0  0
 32 33  1  0  0  0
 32 34  1  0  0  0
 30 29  1  0  0  0
 29  1  1  0  0  0
  1  2  1  0  0  0
  3  2  1  0  0  0
  3  4  1  0  0  0
  3 10  1  0  0  0
  4  5  2  0  0  0
  4  6  1  0  0  0
  6 19  1  0  0  0
  6  7  1  0  0  0
 19 20  2  0  0  0
 20 21  1  0  0  0
 21 22  2  0  0  0
 22 23  1  0  0  0
 23 24  2  0  0  0
 24 25  1  0  0  0
 25 26  2  0  0  0
 26 27  1  0  0  0
 27 28  2  0  0  0
 28 19  1  0  0  0
 28 23  1  0  0  0
  7  8  1  0  0  0
  8  9  1  0  0  0
  8  3  1  0  0  0
 10 11  2  0  0  0
 11 12  1  0  0  0
 12 13  1  0  0  0
 12 14  2  0  0  0
 14 15  1  0  0  0
 15 16  2  0  0  0
 16 17  1  0  0  0
 16 10  1  0  0  0
 17 18  2  0  0  0
 17  1  1  0  0  0
M  CHG 1  32   1
M  END
> <minimizedAffinity>
-7.80541

> <CNNscore>
0.2604146600

> <CNNaffinity>
5.7743563652

> <CNN_VS>
1.5037270784

> <CNNaffinity_variance>
0.0541145205

$$$$



 34 38  0  0  0  0  0  0  0  0999 V2000
   -3.5963    2.4768  -21.3531 N   0  0  0  0  0  0  0  0  0  0  0  0
   -4.8766    2.6323  -22.0064 C   0  0  0  0  0  0  0  0  0  0  0  0
   -5.5164    1.2706  -22.1216 C   0  0  0  0  0  0  0  0  0  0  0  0
   -4.5650    0.4021  -22.9084 C   0  0  0  0  0  0  0  0  0  0  0  0
   -3.5790   -0.2322  -22.4277 O   0  0  0  0  0  0  0  0  0  0  0  0
   -4.9539    0.4093  -24.2832 N   0  0  0  0  0  0  0  0  0  0  0  0
   -6.0719    1.3248  -24.3920 C   0  0  0  0  0  0  0  0  0  0  0  0
   -6.7065    1.2513  -22.9936 C   0  0  0  0  0  0  0  0  0  0  0  0
   -7.5987    2.4632  -22.8840 C   0  0  0  0  0  0  0  0  0  0  0  0
   -5.6297    0.6728  -20.7979 C   0  0  0  0  0  0  0  0  0  0  0  0
   -6.6476   -0.2284  -20.4568 C   0  0  0  0  0  0  0  0  0  0  0  0
   -6.7203   -0.7920  -19.1950 C   0  0  0  0  0  0  0  0  0  0  0  0
   -7.7259   -1.6726  -18.8839 F   0  0  0  0  0  0  0  0  0  0  0  0
   -5.8030   -0.5013  -18.2096 C   0  0  0  0  0  0  0  0  0  0  0  0
   -4.7978    0.3837  -18.5336 C   0  0  0  0  0  0  0  0  0  0  0  0
   -4.7288    0.9407  -19.7849 C   0  0  0  0  0  0  0  0  0  0  0  0
   -3.6309    1.8915  -20.0347 C   0  0  0  0  0  0  0  0  0  0  0  0
   -2.7757    2.1776  -19.1580 O   0  0  0  0  0  0  0  0  0  0  0  0
   -4.3737   -0.3311  -25.3689 C   0  0  0  0  0  0  0  0  0  0  0  0
   -3.4155    0.2865  -26.1560 C   0  0  0  0  0  0  0  0  0  0  0  0
   -2.8210   -0.3347  -27.1946 N   0  0  0  0  0  0  0  0  0  0  0  0
   -3.1749   -1.6016  -27.4729 C   0  0  0  0  0  0  0  0  0  0  0  0
   -4.1204   -2.2564  -26.7214 C   0  0  0  0  0  0  0  0  0  0  0  0
   -4.4619   -3.5596  -27.0336 C   0  0  0  0  0  0  0  0  0  0  0  0
   -5.4233   -4.2011  -26.2547 C   0  0  0  0  0  0  0  0  0  0  0  0
   -6.0161   -3.5645  -25.2095 C   0  0  0  0  0  0  0  0  0  0  0  0
   -5.6534   -2.2706  -24.9274 C   0  0  0  0  0  0  0  0  0  0  0  0
   -4.7109   -1.6125  -25.6751 C   0  0  0  0  0  0  0  0  0  0  0  0
   -2.3328    2.8486  -21.9020 C   0  0  0  0  0  0  0  0  0  0  0  0
   -1.9982    4.2986  -21.8606 C   0  0  0  0  0  0  0  0  0  0  0  0
   -0.1988    4.2213  -20.3478 C   0  0  0  0  0  0  0  0  0  0  0  0
   -1.5333    4.7684  -20.5818 N   0  0  0  0  0  0  0  0  0  0  0  0
   -1.4926    5.7876  -20.5830 H   0  0  0  0  0  0  0  0  0  0  0  0
   -2.1704    4.4668  -19.8445 H   0  0  0  0  0  0  0  0  0  0  0  0
 31 32  1  0  0  0
 32 30  1  0  0  0
 32 33  1  0  0  0
 32 34  1  0  0  0
 30 29  1  0  0  0
 29  1  1  0  0  0
  1  2  1  0  0  0
  3  2  1  0  0  0
  3  4  1  0  0  0
  3 10  1  0  0  0
  4  5  2  0  0  0
  4  6  1  0  0  0
  6 19  1  0  0  0
  6  7  1  0  0  0
 19 20  2  0  0  0
 20 21  1  0  0  0
 21 22  2  0  0  0
 22 23  1  0  0  0
 23 24  2  0  0  0
 24 25  1  0  0  0
 25 26  2  0  0  0
 26 27  1  0  0  0
 27 28  2  0  0  0
 28 19  1  0  0  0
 28 23  1  0  0  0
  7  8  1  0  0  0
  8  9  1  0  0  0
  8  3  1  0  0  0
 10 11  2  0  0  0
 11 12  1  0  0  0
 12 13  1  0  0  0
 12 14  2  0  0  0
 14 15  1  0  0  0
 15 16  2  0  0  0
 16 17  1  0  0  0
 16 10  1  0  0  0
 17 18  2  0  0  0
 17  1  1  0  0  0
M  CHG 1  32   1
M  END
> <minimizedAffinity>
-6.41886

> <CNNscore>
0.2332050949

> <CNNaffinity>
5.4112143517

> <CNN_VS>
1.2619227171

> <CNNaffinity_variance>
0.1493642032

$$$$



 34 38  0  0  0  0  0  0  0  0999 V2000
   -6.5256   -0.6058  -22.1775 N   0  0  0  0  0  0  0  0  0  0  0  0
   -5.5964   -0.9203  -23.2395 C   0  0  0  0  0  0  0  0  0  0  0  0
   -6.3846   -1.1383  -24.5076 C   0  0  0  0  0  0  0  0  0  0  0  0
   -7.3560   -2.2611  -24.2349 C   0  0  0  0  0  0  0  0  0  0  0  0
   -8.4929   -2.1345  -23.6898 O   0  0  0  0  0  0  0  0  0  0  0  0
   -6.7884   -3.4909  -24.6897 N   0  0  0  0  0  0  0  0  0  0  0  0
   -5.4545   -3.1806  -25.1632 C   0  0  0  0  0  0  0  0  0  0  0  0
   -5.5853   -1.7142  -25.6060 C   0  0  0  0  0  0  0  0  0  0  0  0
   -4.1742   -1.1904  -25.7120 C   0  0  0  0  0  0  0  0  0  0  0  0
   -7.1844    0.0455  -24.7927 C   0  0  0  0  0  0  0  0  0  0  0  0
   -7.5298    0.4325  -26.0948 C   0  0  0  0  0  0  0  0  0  0  0  0
   -8.3042    1.5543  -26.3336 C   0  0  0  0  0  0  0  0  0  0  0  0
   -8.6303    1.9135  -27.6173 F   0  0  0  0  0  0  0  0  0  0  0  0
   -8.7761    2.3487  -25.3122 C   0  0  0  0  0  0  0  0  0  0  0  0
   -8.4426    1.9780  -24.0277 C   0  0  0  0  0  0  0  0  0  0  0  0
   -7.6748    0.8658  -23.7946 C   0  0  0  0  0  0  0  0  0  0  0  0
   -7.3519    0.5578  -22.3901 C   0  0  0  0  0  0  0  0  0  0  0  0
   -7.7679    1.2609  -21.4339 O   0  0  0  0  0  0  0  0  0  0  0  0
   -7.3917   -4.7946  -24.6916 C   0  0  0  0  0  0  0  0  0  0  0  0
   -7.0702   -5.6760  -23.6723 C   0  0  0  0  0  0  0  0  0  0  0  0
   -7.5896   -6.9180  -23.5981 N   0  0  0  0  0  0  0  0  0  0  0  0
   -8.4520   -7.3114  -24.5517 C   0  0  0  0  0  0  0  0  0  0  0  0
   -8.8017   -6.4733  -25.5826 C   0  0  0  0  0  0  0  0  0  0  0  0
   -9.6917   -6.9081  -26.5475 C   0  0  0  0  0  0  0  0  0  0  0  0
  -10.0304   -6.0379  -27.5821 C   0  0  0  0  0  0  0  0  0  0  0  0
   -9.5001   -4.7873  -27.6466 C   0  0  0  0  0  0  0  0  0  0  0  0
   -8.6193   -4.3879  -26.6719 C   0  0  0  0  0  0  0  0  0  0  0  0
   -8.2665   -5.2210  -25.6414 C   0  0  0  0  0  0  0  0  0  0  0  0
   -6.6832   -1.3429  -20.9660 C   0  0  0  0  0  0  0  0  0  0  0  0
   -5.4320   -1.8386  -20.3296 C   0  0  0  0  0  0  0  0  0  0  0  0
   -6.1563   -0.3929  -18.6214 C   0  0  0  0  0  0  0  0  0  0  0  0
   -4.9949   -1.0707  -19.1930 N   0  0  0  0  0  0  0  0  0  0  0  0
   -4.5805   -1.6906  -18.4970 H   0  0  0  0  0  0  0  0  0  0  0  0
   -4.2953   -0.3863  -19.4802 H   0  0  0  0  0  0  0  0  0  0  0  0
 31 32  1  0  0  0
 32 30  1  0  0  0
 32 33  1  0  0  0
 32 34  1  0  0  0
 30 29  1  0  0  0
 29  1  1  0  0  0
  1  2  1  0  0  0
  3  2  1  0  0  0
  3  4  1  0  0  0
  3 10  1  0  0  0
  4  5  2  0  0  0
  4  6  1  0  0  0
  6 19  1  0  0  0
  6  7  1  0  0  0
 19 20  2  0  0  0
 20 21  1  0  0  0
 21 22  2  0  0  0
 22 23  1  0  0  0
 23 24  2  0  0  0
 24 25  1  0  0  0
 25 26  2  0  0  0
 26 27  1  0  0  0
 27 28  2  0  0  0
 28 19  1  0  0  0
 28 23  1  0  0  0
  7  8  1  0  0  0
  8  9  1  0  0  0
  8  3  1  0  0  0
 10 11  2  0  0  0
 11 12  1  0  0  0
 12 13  1  0  0  0
 12 14  2  0  0  0
 14 15  1  0  0  0
 15 16  2  0  0  0
 16 17  1  0  0  0
 16 10  1  0  0  0
 17 18  2  0  0  0
 17  1  1  0  0  0
M  CHG 1  32   1
M  END
> <minimizedAffinity>
-6.28133

> <CNNscore>
0.2108338624

> <CNNaffinity>
5.7655668259

> <CNN_VS>
1.2155767679

> <CNNaffinity_variance>
0.2377264947

$$$$



 40 44  0  0  0  0  0  0  0  0999 V2000
   -5.6664   -1.4053  -25.1434 N   0  0  0  0  0  0  0  0  0  0  0  0
   -6.0052   -1.2133  -23.7565 C   0  0  0  0  0  0  0  0  0  0  0  0
   -6.9131   -2.2441  -23.1619 C   0  0  0  0  0  0  0  0  0  0  0  0
   -8.3247   -1.9135  -23.5876 C   0  0  0  0  0  0  0  0  0  0  0  0
   -9.0259   -2.4821  -24.4593 O   0  0  0  0  0  0  0  0  0  0  0  0
   -8.6904   -0.8110  -22.7808 N   0  0  0  0  0  0  0  0  0  0  0  0
   -8.0437   -0.8963  -21.5107 C   0  0  0  0  0  0  0  0  0  0  0  0
   -7.0384   -2.0531  -21.6755 C   0  0  0  0  0  0  0  0  0  0  0  0
   -6.5219   -3.5766  -23.6126 C   0  0  0  0  0  0  0  0  0  0  0  0
   -6.9023   -4.7193  -22.8956 C   0  0  0  0  0  0  0  0  0  0  0  0
   -6.5532   -5.9905  -23.3156 C   0  0  0  0  0  0  0  0  0  0  0  0
   -7.0627   -7.3994  -22.3660 Cl  0  0  0  0  0  0  0  0  0  0  0  0
   -5.8164   -6.2032  -24.4567 C   0  0  0  0  0  0  0  0  0  0  0  0
   -5.4337   -5.0917  -25.1739 C   0  0  0  0  0  0  0  0  0  0  0  0
   -5.7825   -3.8238  -24.7532 C   0  0  0  0  0  0  0  0  0  0  0  0
   -5.3157   -2.7145  -25.5840 C   0  0  0  0  0  0  0  0  0  0  0  0
   -4.6351   -2.9172  -26.6406 O   0  0  0  0  0  0  0  0  0  0  0  0
   -9.5808    0.2553  -23.1531 C   0  0  0  0  0  0  0  0  0  0  0  0
   -9.0945    1.5255  -23.4603 C   0  0  0  0  0  0  0  0  0  0  0  0
   -9.9136    2.5309  -23.8094 N   0  0  0  0  0  0  0  0  0  0  0  0
  -11.2487    2.3726  -23.8832 C   0  0  0  0  0  0  0  0  0  0  0  0
  -11.7708    1.1211  -23.5844 C   0  0  0  0  0  0  0  0  0  0  0  0
  -13.1564    0.9400  -23.6554 C   0  0  0  0  0  0  0  0  0  0  0  0
  -13.7006   -0.2876  -23.3642 C   0  0  0  0  0  0  0  0  0  0  0  0
  -12.8701   -1.3288  -23.0037 C   0  0  0  0  0  0  0  0  0  0  0  0
  -11.4987   -1.1765  -22.9256 C   0  0  0  0  0  0  0  0  0  0  0  0
  -10.9572    0.0537  -23.2186 C   0  0  0  0  0  0  0  0  0  0  0  0
   -5.6309   -0.3253  -26.1064 C   0  0  0  0  0  0  0  0  0  0  0  0
   -8.3179    2.1895  -27.0786 C   0  0  0  0  0  0  0  0  0  0  0  0
   -7.0441    1.6255  -26.6793 N   0  0  0  0  0  0  0  0  0  0  0  0
   -6.9299    0.2005  -26.5071 C   0  0  0  0  0  0  0  0  0  0  0  0
   -7.9724   -0.4584  -26.7214 O   0  0  0  0  0  0  0  0  0  0  0  0
   -6.2662    2.2096  -26.5275 H   0  0  0  0  0  0  0  0  0  0  0  0
   -5.7621   -1.5886  -21.0275 C   0  0  0  0  0  0  0  0  0  0  0  0
   -5.7736   -1.9144  -19.2930 S   0  0  0  0  0  0  0  0  0  0  0  0
   -7.2152   -1.9105  -18.7798 O   0  0  0  0  0  0  0  0  0  0  0  0
   -5.2809   -3.3378  -19.0571 O   0  0  0  0  0  0  0  0  0  0  0  0
   -4.8316   -0.9005  -18.3353 N   0  0  0  0  0  0  0  0  0  0  0  0
   -5.3541    0.3393  -17.9205 C   0  0  0  0  0  0  0  0  0  0  0  0
   -3.9793   -0.7034  -18.8599 H   0  0  0  0  0  0  0  0  0  0  0  0
 29 30  1  0  0  0
 30 31  1  0  0  0
 30 33  1  0  0  0
 31 32  2  0  0  0
 31 28  1  0  0  0
 28  1  1  0  0  0
  1  2  1  0  0  0
  3  2  1  0  0  0
  3  4  1  0  0  0
  3  9  1  0  0  0
  4  5  2  0  0  0
  4  6  1  0  0  0
  6 18  1  0  0  0
  6  7  1  0  0  0
 18 19  2  0  0  0
 19 20  1  0  0  0
 20 21  2  0  0  0
 21 22  1  0  0  0
 22 23  2  0  0  0
 23 24  1  0  0  0
 24 25  2  0  0  0
 25 26  1  0  0  0
 26 27  2  0  0  0
 27 18  1  0  0  0
 27 22  1  0  0  0
  7  8  1  0  0  0
  8 34  1  0  0  0
  8  3  1  0  0  0
 34 35  1  0  0  0
 35 36  2  0  0  0
 35 37  2  0  0  0
 35 38  1  0  0  0
 38 39  1  0  0  0
 38 40  1  0  0  0
  9 10  2  0  0  0
 10 11  1  0  0  0
 11 12  1  0  0  0
 11 13  2  0  0  0
 13 14  1  0  0  0
 14 15  2  0  0  0
 15 16  1  0  0  0
 15  9  1  0  0  0
 16 17  2  0  0  0
 16  1  1  0  0  0
M  END
> <minimizedAffinity>
-8.37709

> <CNNscore>
0.7098424435

> <CNNaffinity>
6.9209799767

> <CNN_VS>
4.9128055573

> <CNNaffinity_variance>
0.0543352775

$$$$



 40 44  0  0  0  0  0  0  0  0999 V2000
   -6.7392   -2.2128  -25.2930 N   0  0  0  0  0  0  0  0  0  0  0  0
   -6.9136   -1.7913  -23.9266 C   0  0  0  0  0  0  0  0  0  0  0  0
   -7.3089   -2.8652  -22.9619 C   0  0  0  0  0  0  0  0  0  0  0  0
   -8.7941   -3.0969  -23.1156 C   0  0  0  0  0  0  0  0  0  0  0  0
   -9.3760   -4.0513  -23.6862 O   0  0  0  0  0  0  0  0  0  0  0  0
   -9.3951   -1.9922  -22.4686 N   0  0  0  0  0  0  0  0  0  0  0  0
   -8.5780   -1.5554  -21.3823 C   0  0  0  0  0  0  0  0  0  0  0  0
   -7.2705   -2.3547  -21.5479 C   0  0  0  0  0  0  0  0  0  0  0  0
   -6.5516   -4.0842  -23.2308 C   0  0  0  0  0  0  0  0  0  0  0  0
   -6.4015   -5.0701  -22.2458 C   0  0  0  0  0  0  0  0  0  0  0  0
   -5.6999   -6.2378  -22.4875 C   0  0  0  0  0  0  0  0  0  0  0  0
   -5.5425   -7.4493  -21.2014 Cl  0  0  0  0  0  0  0  0  0  0  0  0
   -5.1132   -6.4960  -23.7038 C   0  0  0  0  0  0  0  0  0  0  0  0
   -5.2505   -5.5380  -24.6836 C   0  0  0  0  0  0  0  0  0  0  0  0
   -5.9506   -4.3731  -24.4407 C   0  0  0  0  0  0  0  0  0  0  0  0
   -6.0260   -3.4202  -25.5475 C   0  0  0  0  0  0  0  0  0  0  0  0
   -5.4823   -3.6650  -26.6724 O   0  0  0  0  0  0  0  0  0  0  0  0
  -10.6447   -1.3760  -22.8255 C   0  0  0  0  0  0  0  0  0  0  0  0
  -11.8421   -2.0880  -22.7645 C   0  0  0  0  0  0  0  0  0  0  0  0
  -13.0163   -1.5262  -23.0947 N   0  0  0  0  0  0  0  0  0  0  0  0
  -13.1070   -0.2464  -23.5031 C   0  0  0  0  0  0  0  0  0  0  0  0
  -11.9354    0.4953  -23.5767 C   0  0  0  0  0  0  0  0  0  0  0  0
  -12.0119    1.8267  -24.0001 C   0  0  0  0  0  0  0  0  0  0  0  0
  -10.8684    2.5838  -24.0831 C   0  0  0  0  0  0  0  0  0  0  0  0
   -9.6554    2.0185  -23.7471 C   0  0  0  0  0  0  0  0  0  0  0  0
   -9.5521    0.7061  -23.3265 C   0  0  0  0  0  0  0  0  0  0  0  0
  -10.6992   -0.0488  -23.2437 C   0  0  0  0  0  0  0  0  0  0  0  0
   -7.2236   -1.4511  -26.4244 C   0  0  0  0  0  0  0  0  0  0  0  0
   -9.6695   -4.0987  -27.6481 C   0  0  0  0  0  0  0  0  0  0  0  0
   -8.7412   -3.3697  -26.8072 N   0  0  0  0  0  0  0  0  0  0  0  0
   -8.1505   -2.1537  -27.3028 C   0  0  0  0  0  0  0  0  0  0  0  0
   -8.4952   -1.8127  -28.4569 O   0  0  0  0  0  0  0  0  0  0  0  0
   -8.5172   -3.7019  -25.9079 H   0  0  0  0  0  0  0  0  0  0  0  0
   -6.1531   -1.3775  -21.3002 C   0  0  0  0  0  0  0  0  0  0  0  0
   -5.5825   -1.4722  -19.6328 S   0  0  0  0  0  0  0  0  0  0  0  0
   -6.7466   -1.2054  -18.6762 O   0  0  0  0  0  0  0  0  0  0  0  0
   -5.1592   -2.9073  -19.3391 O   0  0  0  0  0  0  0  0  0  0  0  0
   -4.2831   -0.4816  -19.2296 N   0  0  0  0  0  0  0  0  0  0  0  0
   -4.4332    0.9166  -19.2990 C   0  0  0  0  0  0  0  0  0  0  0  0
   -3.5153   -0.7295  -19.8538 H   0  0  0  0  0  0  0  0  0  0  0  0
 29 30  1  0  0  0
 30 31  1  0  0  0
 30 33  1  0  0  0
 31 32  2  0  0  0
 31 28  1  0  0  0
 28  1  1  0  0  0
  1  2  1  0  0  0
  3  2  1  0  0  0
  3  4  1  0  0  0
  3  9  1  0  0  0
  4  5  2  0  0  0
  4  6  1  0  0  0
  6 18  1  0  0  0
  6  7  1  0  0  0
 18 19  2  0  0  0
 19 20  1  0  0  0
 20 21  2  0  0  0
 21 22  1  0  0  0
 22 23  2  0  0  0
 23 24  1  0  0  0
 24 25  2  0  0  0
 25 26  1  0  0  0
 26 27  2  0  0  0
 27 18  1  0  0  0
 27 22  1  0  0  0
  7  8  1  0  0  0
  8 34  1  0  0  0
  8  3  1  0  0  0
 34 35  1  0  0  0
 35 36  2  0  0  0
 35 37  2  0  0  0
 35 38  1  0  0  0
 38 39  1  0  0  0
 38 40  1  0  0  0
  9 10  2  0  0  0
 10 11  1  0  0  0
 11 12  1  0  0  0
 11 13  2  0  0  0
 13 14  1  0  0  0
 14 15  2  0  0  0
 15 16  1  0  0  0
 15  9  1  0  0  0
 16 17  2  0  0  0
 16  1  1  0  0  0
M  END
> <minimizedAffinity>
-8.25348

> <CNNscore>
0.5773992538

> <CNNaffinity>
6.7283143997

> <CNN_VS>
3.8849236965

> <CNNaffinity_variance>
0.3617621362

$$$$



 40 44  0  0  0  0  0  0  0  0999 V2000
   -9.2724   -3.3912  -23.7278 N   0  0  0  0  0  0  0  0  0  0  0  0
   -8.4211   -2.5784  -22.8973 C   0  0  0  0  0  0  0  0  0  0  0  0
   -8.5621   -1.0990  -23.0756 C   0  0  0  0  0  0  0  0  0  0  0  0
   -7.7857   -0.7091  -24.3118 C   0  0  0  0  0  0  0  0  0  0  0  0
   -8.2312   -0.4121  -25.4469 O   0  0  0  0  0  0  0  0  0  0  0  0
   -6.4308   -0.7507  -23.9085 N   0  0  0  0  0  0  0  0  0  0  0  0
   -6.3182   -0.4007  -22.5289 C   0  0  0  0  0  0  0  0  0  0  0  0
   -7.7761   -0.3568  -22.0302 C   0  0  0  0  0  0  0  0  0  0  0  0
   -9.9722   -0.7412  -23.2006 C   0  0  0  0  0  0  0  0  0  0  0  0
  -10.4084    0.5659  -22.9442 C   0  0  0  0  0  0  0  0  0  0  0  0
  -11.7381    0.9264  -23.0717 C   0  0  0  0  0  0  0  0  0  0  0  0
  -12.2311    2.5963  -22.7327 Cl  0  0  0  0  0  0  0  0  0  0  0  0
  -12.7027    0.0255  -23.4565 C   0  0  0  0  0  0  0  0  0  0  0  0
  -12.2921   -1.2638  -23.7124 C   0  0  0  0  0  0  0  0  0  0  0  0
  -10.9649   -1.6221  -23.5843 C   0  0  0  0  0  0  0  0  0  0  0  0
  -10.6407   -3.0190  -23.8709 C   0  0  0  0  0  0  0  0  0  0  0  0
  -11.5376   -3.8487  -24.2285 O   0  0  0  0  0  0  0  0  0  0  0  0
   -5.3074   -1.0900  -24.7401 C   0  0  0  0  0  0  0  0  0  0  0  0
   -5.2576   -2.3048  -25.4227 C   0  0  0  0  0  0  0  0  0  0  0  0
   -4.2155   -2.6355  -26.2026 N   0  0  0  0  0  0  0  0  0  0  0  0
   -3.1602   -1.8163  -26.3711 C   0  0  0  0  0  0  0  0  0  0  0  0
   -3.1736   -0.5968  -25.7072 C   0  0  0  0  0  0  0  0  0  0  0  0
   -2.0843    0.2659  -25.8709 C   0  0  0  0  0  0  0  0  0  0  0  0
   -2.0704    1.4787  -25.2252 C   0  0  0  0  0  0  0  0  0  0  0  0
   -3.1347    1.8303  -24.4207 C   0  0  0  0  0  0  0  0  0  0  0  0
   -4.2224    0.9967  -24.2417 C   0  0  0  0  0  0  0  0  0  0  0  0
   -4.2333   -0.2164  -24.8903 C   0  0  0  0  0  0  0  0  0  0  0  0
   -8.8141   -4.5896  -24.3978 C   0  0  0  0  0  0  0  0  0  0  0  0
   -9.7619   -5.5181  -27.9655 C   0  0  0  0  0  0  0  0  0  0  0  0
   -9.6872   -5.5234  -26.5182 N   0  0  0  0  0  0  0  0  0  0  0  0
   -8.8596   -4.5502  -25.8540 C   0  0  0  0  0  0  0  0  0  0  0  0
   -8.2505   -3.7527  -26.6025 O   0  0  0  0  0  0  0  0  0  0  0  0
  -10.1961   -6.1845  -25.9955 H   0  0  0  0  0  0  0  0  0  0  0  0
   -7.7767   -1.0418  -20.6903 C   0  0  0  0  0  0  0  0  0  0  0  0
   -6.3750   -0.5636  -19.7303 S   0  0  0  0  0  0  0  0  0  0  0  0
   -5.7727    0.7199  -20.3059 O   0  0  0  0  0  0  0  0  0  0  0  0
   -6.8453   -0.1792  -18.3318 O   0  0  0  0  0  0  0  0  0  0  0  0
   -5.1660   -1.7196  -19.5445 N   0  0  0  0  0  0  0  0  0  0  0  0
   -5.2872   -2.9575  -20.2041 C   0  0  0  0  0  0  0  0  0  0  0  0
   -5.0972   -1.9199  -18.5467 H   0  0  0  0  0  0  0  0  0  0  0  0
 29 30  1  0  0  0
 30 31  1  0  0  0
 30 33  1  0  0  0
 31 32  2  0  0  0
 31 28  1  0  0  0
 28  1  1  0  0  0
  1  2  1  0  0  0
  3  2  1  0  0  0
  3  4  1  0  0  0
  3  9  1  0  0  0
  4  5  2  0  0  0
  4  6  1  0  0  0
  6 18  1  0  0  0
  6  7  1  0  0  0
 18 19  2  0  0  0
 19 20  1  0  0  0
 20 21  2  0  0  0
 21 22  1  0  0  0
 22 23  2  0  0  0
 23 24  1  0  0  0
 24 25  2  0  0  0
 25 26  1  0  0  0
 26 27  2  0  0  0
 27 18  1  0  0  0
 27 22  1  0  0  0
  7  8  1  0  0  0
  8 34  1  0  0  0
  8  3  1  0  0  0
 34 35  1  0  0  0
 35 36  2  0  0  0
 35 37  2  0  0  0
 35 38  1  0  0  0
 38 39  1  0  0  0
 38 40  1  0  0  0
  9 10  2  0  0  0
 10 11  1  0  0  0
 11 12  1  0  0  0
 11 13  2  0  0  0
 13 14  1  0  0  0
 14 15  2  0  0  0
 15 16  1  0  0  0
 15  9  1  0  0  0
 16 17  2  0  0  0
 16  1  1  0  0  0
M  END
> <minimizedAffinity>
-7.39606

> <CNNscore>
0.4920221865

> <CNNaffinity>
6.4784803391

> <CNN_VS>
3.1875560284

> <CNNaffinity_variance>
0.2708657980

$$$$



 40 44  0  0  0  0  0  0  0  0999 V2000
   -6.0121   -2.7914  -21.4614 N   0  0  0  0  0  0  0  0  0  0  0  0
   -7.1030   -2.1210  -22.1214 C   0  0  0  0  0  0  0  0  0  0  0  0
   -7.4569   -2.6403  -23.4798 C   0  0  0  0  0  0  0  0  0  0  0  0
   -6.4643   -2.0667  -24.4640 C   0  0  0  0  0  0  0  0  0  0  0  0
   -5.4952   -2.6435  -25.0146 O   0  0  0  0  0  0  0  0  0  0  0  0
   -6.8685   -0.7221  -24.6338 N   0  0  0  0  0  0  0  0  0  0  0  0
   -8.2853   -0.6140  -24.4944 C   0  0  0  0  0  0  0  0  0  0  0  0
   -8.7216   -2.0015  -23.9840 C   0  0  0  0  0  0  0  0  0  0  0  0
   -7.4233   -4.1000  -23.4829 C   0  0  0  0  0  0  0  0  0  0  0  0
   -8.1131   -4.8336  -24.4579 C   0  0  0  0  0  0  0  0  0  0  0  0
   -8.0805   -6.2165  -24.4850 C   0  0  0  0  0  0  0  0  0  0  0  0
   -8.9744   -7.0910  -25.7431 Cl  0  0  0  0  0  0  0  0  0  0  0  0
   -7.3713   -6.9461  -23.5604 C   0  0  0  0  0  0  0  0  0  0  0  0
   -6.6875   -6.2417  -22.5947 C   0  0  0  0  0  0  0  0  0  0  0  0
   -6.7213   -4.8617  -22.5688 C   0  0  0  0  0  0  0  0  0  0  0  0
   -5.9679   -4.2156  -21.4947 C   0  0  0  0  0  0  0  0  0  0  0  0
   -5.3115   -4.8960  -20.6420 O   0  0  0  0  0  0  0  0  0  0  0  0
   -6.0060    0.3955  -24.9089 C   0  0  0  0  0  0  0  0  0  0  0  0
   -5.5493    0.6518  -26.2012 C   0  0  0  0  0  0  0  0  0  0  0  0
   -4.7435    1.6911  -26.4733 N   0  0  0  0  0  0  0  0  0  0  0  0
   -4.3300    2.5447  -25.5175 C   0  0  0  0  0  0  0  0  0  0  0  0
   -4.7641    2.3220  -24.2175 C   0  0  0  0  0  0  0  0  0  0  0  0
   -4.3429    3.1993  -23.2121 C   0  0  0  0  0  0  0  0  0  0  0  0
   -4.7563    3.0025  -21.9167 C   0  0  0  0  0  0  0  0  0  0  0  0
   -5.5839    1.9382  -21.6236 C   0  0  0  0  0  0  0  0  0  0  0  0
   -6.0141    1.0570  -22.5976 C   0  0  0  0  0  0  0  0  0  0  0  0
   -5.5989    1.2575  -23.8937 C   0  0  0  0  0  0  0  0  0  0  0  0
   -4.9751   -2.0900  -20.7351 C   0  0  0  0  0  0  0  0  0  0  0  0
   -5.2723    0.2768  -17.7687 C   0  0  0  0  0  0  0  0  0  0  0  0
   -4.9098   -0.2649  -19.0630 N   0  0  0  0  0  0  0  0  0  0  0  0
   -5.3607   -1.5840  -19.4237 C   0  0  0  0  0  0  0  0  0  0  0  0
   -6.0502   -2.1772  -18.5636 O   0  0  0  0  0  0  0  0  0  0  0  0
   -4.3620    0.2626  -19.6882 H   0  0  0  0  0  0  0  0  0  0  0  0
   -9.7305   -1.7450  -22.8974 C   0  0  0  0  0  0  0  0  0  0  0  0
  -11.3376   -2.2935  -23.3785 S   0  0  0  0  0  0  0  0  0  0  0  0
  -12.0511   -1.1793  -24.1473 O   0  0  0  0  0  0  0  0  0  0  0  0
  -11.1883   -3.4275  -24.3867 O   0  0  0  0  0  0  0  0  0  0  0  0
  -12.3358   -2.8565  -22.1460 N   0  0  0  0  0  0  0  0  0  0  0  0
  -13.6959   -2.4926  -22.1386 C   0  0  0  0  0  0  0  0  0  0  0  0
  -11.9358   -2.5294  -21.2666 H   0  0  0  0  0  0  0  0  0  0  0  0
 29 30  1  0  0  0
 30 31  1  0  0  0
 30 33  1  0  0  0
 31 32  2  0  0  0
 31 28  1  0  0  0
 28  1  1  0  0  0
  1  2  1  0  0  0
  3  2  1  0  0  0
  3  4  1  0  0  0
  3  9  1  0  0  0
  4  5  2  0  0  0
  4  6  1  0  0  0
  6 18  1  0  0  0
  6  7  1  0  0  0
 18 19  2  0  0  0
 19 20  1  0  0  0
 20 21  2  0  0  0
 21 22  1  0  0  0
 22 23  2  0  0  0
 23 24  1  0  0  0
 24 25  2  0  0  0
 25 26  1  0  0  0
 26 27  2  0  0  0
 27 18  1  0  0  0
 27 22  1  0  0  0
  7  8  1  0  0  0
  8 34  1  0  0  0
  8  3  1  0  0  0
 34 35  1  0  0  0
 35 36  2  0  0  0
 35 37  2  0  0  0
 35 38  1  0  0  0
 38 39  1  0  0  0
 38 40  1  0  0  0
  9 10  2  0  0  0
 10 11  1  0  0  0
 11 12  1  0  0  0
 11 13  2  0  0  0
 13 14  1  0  0  0
 14 15  2  0  0  0
 15 16  1  0  0  0
 15  9  1  0  0  0
 16 17  2  0  0  0
 16  1  1  0  0  0
M  END
> <minimizedAffinity>
-8.30159

> <CNNscore>
0.4533154666

> <CNNaffinity>
6.5726776123

> <CNN_VS>
2.9794964790

> <CNNaffinity_variance>
0.3293792903

$$$$



 40 44  0  0  0  0  0  0  0  0999 V2000
  -10.2212   -2.1461  -23.5102 N   0  0  0  0  0  0  0  0  0  0  0  0
   -9.0667   -2.1790  -22.6493 C   0  0  0  0  0  0  0  0  0  0  0  0
   -8.0237   -1.1409  -22.9229 C   0  0  0  0  0  0  0  0  0  0  0  0
   -7.2020   -1.6141  -24.0994 C   0  0  0  0  0  0  0  0  0  0  0  0
   -7.2411   -1.2091  -25.2866 O   0  0  0  0  0  0  0  0  0  0  0  0
   -6.3679   -2.6246  -23.5671 N   0  0  0  0  0  0  0  0  0  0  0  0
   -6.0537   -2.3346  -22.2049 C   0  0  0  0  0  0  0  0  0  0  0  0
   -6.9693   -1.1462  -21.8507 C   0  0  0  0  0  0  0  0  0  0  0  0
   -8.6570    0.1448  -23.2016 C   0  0  0  0  0  0  0  0  0  0  0  0
   -7.9441    1.3435  -23.0618 C   0  0  0  0  0  0  0  0  0  0  0  0
   -8.5234    2.5697  -23.3355 C   0  0  0  0  0  0  0  0  0  0  0  0
   -7.5715    4.0536  -23.1393 Cl  0  0  0  0  0  0  0  0  0  0  0  0
   -9.8266    2.6806  -23.7593 C   0  0  0  0  0  0  0  0  0  0  0  0
  -10.5424    1.5128  -23.9021 C   0  0  0  0  0  0  0  0  0  0  0  0
   -9.9630    0.2900  -23.6283 C   0  0  0  0  0  0  0  0  0  0  0  0
  -10.8161   -0.8847  -23.8038 C   0  0  0  0  0  0  0  0  0  0  0  0
  -12.0218   -0.7765  -24.1981 O   0  0  0  0  0  0  0  0  0  0  0  0
   -5.8874   -3.7852  -24.2674 C   0  0  0  0  0  0  0  0  0  0  0  0
   -5.2095   -3.6653  -25.4800 C   0  0  0  0  0  0  0  0  0  0  0  0
   -4.7552   -4.7397  -26.1455 N   0  0  0  0  0  0  0  0  0  0  0  0
   -4.9268   -5.9925  -25.6828 C   0  0  0  0  0  0  0  0  0  0  0  0
   -5.5975   -6.1524  -24.4775 C   0  0  0  0  0  0  0  0  0  0  0  0
   -5.7850   -7.4478  -23.9830 C   0  0  0  0  0  0  0  0  0  0  0  0
   -6.4460   -7.6357  -22.7932 C   0  0  0  0  0  0  0  0  0  0  0  0
   -6.9181   -6.5402  -22.0999 C   0  0  0  0  0  0  0  0  0  0  0  0
   -6.7466   -5.2506  -22.5662 C   0  0  0  0  0  0  0  0  0  0  0  0
   -6.0837   -5.0661  -23.7574 C   0  0  0  0  0  0  0  0  0  0  0  0
  -10.8290   -3.3367  -24.0651 C   0  0  0  0  0  0  0  0  0  0  0  0
   -8.8065   -5.7516  -26.2023 C   0  0  0  0  0  0  0  0  0  0  0  0
   -9.4841   -5.1584  -25.0668 N   0  0  0  0  0  0  0  0  0  0  0  0
  -10.1589   -3.8972  -25.2318 C   0  0  0  0  0  0  0  0  0  0  0  0
  -10.1041   -3.3970  -26.3781 O   0  0  0  0  0  0  0  0  0  0  0  0
   -9.4830   -5.6123  -24.1932 H   0  0  0  0  0  0  0  0  0  0  0  0
   -7.5182   -1.4398  -20.4806 C   0  0  0  0  0  0  0  0  0  0  0  0
   -6.3168   -1.1123  -19.2298 S   0  0  0  0  0  0  0  0  0  0  0  0
   -6.9066   -0.1579  -18.1893 O   0  0  0  0  0  0  0  0  0  0  0  0
   -6.0417   -2.4013  -18.4633 O   0  0  0  0  0  0  0  0  0  0  0  0
   -4.8305   -0.5238  -19.7561 N   0  0  0  0  0  0  0  0  0  0  0  0
   -4.3838    0.7309  -19.2995 C   0  0  0  0  0  0  0  0  0  0  0  0
   -4.8751   -0.4711  -20.7738 H   0  0  0  0  0  0  0  0  0  0  0  0
 29 30  1  0  0  0
 30 31  1  0  0  0
 30 33  1  0  0  0
 31 32  2  0  0  0
 31 28  1  0  0  0
 28  1  1  0  0  0
  1  2  1  0  0  0
  3  2  1  0  0  0
  3  4  1  0  0  0
  3  9  1  0  0  0
  4  5  2  0  0  0
  4  6  1  0  0  0
  6 18  1  0  0  0
  6  7  1  0  0  0
 18 19  2  0  0  0
 19 20  1  0  0  0
 20 21  2  0  0  0
 21 22  1  0  0  0
 22 23  2  0  0  0
 23 24  1  0  0  0
 24 25  2  0  0  0
 25 26  1  0  0  0
 26 27  2  0  0  0
 27 18  1  0  0  0
 27 22  1  0  0  0
  7  8  1  0  0  0
  8 34  1  0  0  0
  8  3  1  0  0  0
 34 35  1  0  0  0
 35 36  2  0  0  0
 35 37  2  0  0  0
 35 38  1  0  0  0
 38 39  1  0  0  0
 38 40  1  0  0  0
  9 10  2  0  0  0
 10 11  1  0  0  0
 11 12  1  0  0  0
 11 13  2  0  0  0
 13 14  1  0  0  0
 14 15  2  0  0  0
 15 16  1  0  0  0
 15  9  1  0  0  0
 16 17  2  0  0  0
 16  1  1  0  0  0
M  END
> <minimizedAffinity>
-8.56951

> <CNNscore>
0.3948404193

> <CNNaffinity>
6.3887686729

> <CNN_VS>
2.5225441456

> <CNNaffinity_variance>
0.5016826391

$$$$



 40 44  0  0  0  0  0  0  0  0999 V2000
  -10.0627   -0.2201  -23.2058 N   0  0  0  0  0  0  0  0  0  0  0  0
   -9.1350   -1.0248  -22.4529 C   0  0  0  0  0  0  0  0  0  0  0  0
   -7.6853   -0.7440  -22.6980 C   0  0  0  0  0  0  0  0  0  0  0  0
   -7.2943   -1.4353  -23.9834 C   0  0  0  0  0  0  0  0  0  0  0  0
   -7.0985   -0.9227  -25.1121 O   0  0  0  0  0  0  0  0  0  0  0  0
   -7.1946   -2.8025  -23.6356 N   0  0  0  0  0  0  0  0  0  0  0  0
   -6.7635   -2.9343  -22.2809 C   0  0  0  0  0  0  0  0  0  0  0  0
   -6.8223   -1.4981  -21.7244 C   0  0  0  0  0  0  0  0  0  0  0  0
   -7.4608    0.6963  -22.7813 C   0  0  0  0  0  0  0  0  0  0  0  0
   -6.1856    1.2391  -22.5718 C   0  0  0  0  0  0  0  0  0  0  0  0
   -5.9514    2.5998  -22.6611 C   0  0  0  0  0  0  0  0  0  0  0  0
   -4.3160    3.2288  -22.3847 Cl  0  0  0  0  0  0  0  0  0  0  0  0
   -6.9531    3.4927  -22.9602 C   0  0  0  0  0  0  0  0  0  0  0  0
   -8.2128    2.9769  -23.1690 C   0  0  0  0  0  0  0  0  0  0  0  0
   -8.4450    1.6190  -23.0792 C   0  0  0  0  0  0  0  0  0  0  0  0
   -9.8210    1.1806  -23.3098 C   0  0  0  0  0  0  0  0  0  0  0  0
  -10.7446    2.0116  -23.5880 O   0  0  0  0  0  0  0  0  0  0  0  0
   -7.4768   -3.9202  -24.4958 C   0  0  0  0  0  0  0  0  0  0  0  0
   -8.7189   -4.5532  -24.4700 C   0  0  0  0  0  0  0  0  0  0  0  0
   -8.9969   -5.5978  -25.2669 N   0  0  0  0  0  0  0  0  0  0  0  0
   -8.0956   -6.0943  -26.1353 C   0  0  0  0  0  0  0  0  0  0  0  0
   -6.8466   -5.4900  -26.1899 C   0  0  0  0  0  0  0  0  0  0  0  0
   -5.8981   -5.9943  -27.0864 C   0  0  0  0  0  0  0  0  0  0  0  0
   -4.6538   -5.4164  -27.1610 C   0  0  0  0  0  0  0  0  0  0  0  0
   -4.3553   -4.3428  -26.3474 C   0  0  0  0  0  0  0  0  0  0  0  0
   -5.2736   -3.8257  -25.4533 C   0  0  0  0  0  0  0  0  0  0  0  0
   -6.5187   -4.4063  -25.3818 C   0  0  0  0  0  0  0  0  0  0  0  0
  -11.2496   -0.7596  -23.8344 C   0  0  0  0  0  0  0  0  0  0  0  0
  -13.7842   -2.7514  -21.8100 C   0  0  0  0  0  0  0  0  0  0  0  0
  -13.1354   -1.6573  -22.5044 N   0  0  0  0  0  0  0  0  0  0  0  0
  -11.8668   -1.8863  -23.1459 C   0  0  0  0  0  0  0  0  0  0  0  0
  -11.4102   -3.0478  -23.0489 O   0  0  0  0  0  0  0  0  0  0  0  0
  -13.5569   -0.7681  -22.5372 H   0  0  0  0  0  0  0  0  0  0  0  0
   -7.4328   -1.6094  -20.3534 C   0  0  0  0  0  0  0  0  0  0  0  0
   -6.2644   -1.1866  -19.1000 S   0  0  0  0  0  0  0  0  0  0  0  0
   -6.8974   -0.1941  -18.1224 O   0  0  0  0  0  0  0  0  0  0  0  0
   -5.9733   -2.4262  -18.2614 O   0  0  0  0  0  0  0  0  0  0  0  0
   -4.7827   -0.5893  -19.6294 N   0  0  0  0  0  0  0  0  0  0  0  0
   -4.4037    0.7220  -19.2841 C   0  0  0  0  0  0  0  0  0  0  0  0
   -4.7894   -0.6382  -20.6483 H   0  0  0  0  0  0  0  0  0  0  0  0
 29 30  1  0  0  0
 30 31  1  0  0  0
 30 33  1  0  0  0
 31 32  2  0  0  0
 31 28  1  0  0  0
 28  1  1  0  0  0
  1  2  1  0  0  0
  3  2  1  0  0  0
  3  4  1  0  0  0
  3  9  1  0  0  0
  4  5  2  0  0  0
  4  6  1  0  0  0
  6 18  1  0  0  0
  6  7  1  0  0  0
 18 19  2  0  0  0
 19 20  1  0  0  0
 20 21  2  0  0  0
 21 22  1  0  0  0
 22 23  2  0  0  0
 23 24  1  0  0  0
 24 25  2  0  0  0
 25 26  1  0  0  0
 26 27  2  0  0  0
 27 18  1  0  0  0
 27 22  1  0  0  0
  7  8  1  0  0  0
  8 34  1  0  0  0
  8  3  1  0  0  0
 34 35  1  0  0  0
 35 36  2  0  0  0
 35 37  2  0  0  0
 35 38  1  0  0  0
 38 39  1  0  0  0
 38 40  1  0  0  0
  9 10  2  0  0  0
 10 11  1  0  0  0
 11 12  1  0  0  0
 11 13  2  0  0  0
 13 14  1  0  0  0
 14 15  2  0  0  0
 15 16  1  0  0  0
 15  9  1  0  0  0
 16 17  2  0  0  0
 16  1  1  0  0  0
M  END
> <minimizedAffinity>
-8.19016

> <CNNscore>
0.3313564062

> <CNNaffinity>
6.4460954666

> <CNN_VS>
2.1359550953

> <CNNaffinity_variance>
0.4738267958

$$$$



 40 44  0  0  0  0  0  0  0  0999 V2000
   -7.5166   -0.4260  -22.3952 N   0  0  0  0  0  0  0  0  0  0  0  0
   -6.6169   -0.8749  -23.4267 C   0  0  0  0  0  0  0  0  0  0  0  0
   -7.1248   -0.7517  -24.8293 C   0  0  0  0  0  0  0  0  0  0  0  0
   -8.0534   -1.9158  -25.0855 C   0  0  0  0  0  0  0  0  0  0  0  0
   -9.3075   -1.9125  -25.1334 O   0  0  0  0  0  0  0  0  0  0  0  0
   -7.1933   -3.0244  -25.2629 N   0  0  0  0  0  0  0  0  0  0  0  0
   -5.9639   -2.6023  -25.8535 C   0  0  0  0  0  0  0  0  0  0  0  0
   -6.0380   -1.0630  -25.8211 C   0  0  0  0  0  0  0  0  0  0  0  0
   -7.8135    0.5240  -25.0028 C   0  0  0  0  0  0  0  0  0  0  0  0
   -7.9958    1.0756  -26.2784 C   0  0  0  0  0  0  0  0  0  0  0  0
   -8.6587    2.2759  -26.4630 C   0  0  0  0  0  0  0  0  0  0  0  0
   -8.8582    2.9253  -28.1017 Cl  0  0  0  0  0  0  0  0  0  0  0  0
   -9.1747    2.9920  -25.4090 C   0  0  0  0  0  0  0  0  0  0  0  0
   -9.0046    2.4650  -24.1481 C   0  0  0  0  0  0  0  0  0  0  0  0
   -8.3426    1.2673  -23.9655 C   0  0  0  0  0  0  0  0  0  0  0  0
   -8.2100    0.8047  -22.5845 C   0  0  0  0  0  0  0  0  0  0  0  0
   -8.6911    1.4710  -21.6122 O   0  0  0  0  0  0  0  0  0  0  0  0
   -7.4836   -4.3888  -24.9126 C   0  0  0  0  0  0  0  0  0  0  0  0
   -7.0091   -4.9438  -23.7247 C   0  0  0  0  0  0  0  0  0  0  0  0
   -7.2718   -6.2161  -23.3842 N   0  0  0  0  0  0  0  0  0  0  0  0
   -8.0065   -7.0287  -24.1672 C   0  0  0  0  0  0  0  0  0  0  0  0
   -8.4968   -6.5115  -25.3589 C   0  0  0  0  0  0  0  0  0  0  0  0
   -9.2614   -7.3430  -26.1846 C   0  0  0  0  0  0  0  0  0  0  0  0
   -9.7586   -6.8579  -27.3700 C   0  0  0  0  0  0  0  0  0  0  0  0
   -9.4957   -5.5527  -27.7317 C   0  0  0  0  0  0  0  0  0  0  0  0
   -8.7431   -4.7108  -26.9349 C   0  0  0  0  0  0  0  0  0  0  0  0
   -8.2476   -5.1995  -25.7483 C   0  0  0  0  0  0  0  0  0  0  0  0
   -7.7256   -1.1475  -21.1580 C   0  0  0  0  0  0  0  0  0  0  0  0
   -4.7563    0.2332  -19.2174 C   0  0  0  0  0  0  0  0  0  0  0  0
   -5.5917   -0.2199  -20.3115 N   0  0  0  0  0  0  0  0  0  0  0  0
   -6.9183   -0.7030  -20.0288 C   0  0  0  0  0  0  0  0  0  0  0  0
   -7.2549   -0.6943  -18.8231 O   0  0  0  0  0  0  0  0  0  0  0  0
   -5.2562   -0.1976  -21.2368 H   0  0  0  0  0  0  0  0  0  0  0  0
   -4.6789   -0.5918  -25.3790 C   0  0  0  0  0  0  0  0  0  0  0  0
   -3.9955    0.5539  -26.5345 S   0  0  0  0  0  0  0  0  0  0  0  0
   -2.6598    0.0205  -27.0570 O   0  0  0  0  0  0  0  0  0  0  0  0
   -4.8981    0.6113  -27.7620 O   0  0  0  0  0  0  0  0  0  0  0  0
   -3.7978    2.1349  -25.9924 N   0  0  0  0  0  0  0  0  0  0  0  0
   -4.8620    2.7759  -25.3301 C   0  0  0  0  0  0  0  0  0  0  0  0
   -3.5704    2.7028  -26.8086 H   0  0  0  0  0  0  0  0  0  0  0  0
 29 30  1  0  0  0
 30 31  1  0  0  0
 30 33  1  0  0  0
 31 32  2  0  0  0
 31 28  1  0  0  0
 28  1  1  0  0  0
  1  2  1  0  0  0
  3  2  1  0  0  0
  3  4  1  0  0  0
  3  9  1  0  0  0
  4  5  2  0  0  0
  4  6  1  0  0  0
  6 18  1  0  0  0
  6  7  1  0  0  0
 18 19  2  0  0  0
 19 20  1  0  0  0
 20 21  2  0  0  0
 21 22  1  0  0  0
 22 23  2  0  0  0
 23 24  1  0  0  0
 24 25  2  0  0  0
 25 26  1  0  0  0
 26 27  2  0  0  0
 27 18  1  0  0  0
 27 22  1  0  0  0
  7  8  1  0  0  0
  8 34  1  0  0  0
  8  3  1  0  0  0
 34 35  1  0  0  0
 35 36  2  0  0  0
 35 37  2  0  0  0
 35 38  1  0  0  0
 38 39  1  0  0  0
 38 40  1  0  0  0
  9 10  2  0  0  0
 10 11  1  0  0  0
 11 12  1  0  0  0
 11 13  2  0  0  0
 13 14  1  0  0  0
 14 15  2  0  0  0
 15 16  1  0  0  0
 15  9  1  0  0  0
 16 17  2  0  0  0
 16  1  1  0  0  0
M  END
> <minimizedAffinity>
-6.46570

> <CNNscore>
0.3206105232

> <CNNaffinity>
6.2398967743

> <CNN_VS>
2.0005764961

> <CNNaffinity_variance>
0.0670328364

$$$$



 40 44  0  0  0  0  0  0  0  0999 V2000
   -6.1163   -1.7451  -20.2013 N   0  0  0  0  0  0  0  0  0  0  0  0
   -7.2290   -1.3277  -21.0154 C   0  0  0  0  0  0  0  0  0  0  0  0
   -7.2030   -1.7934  -22.4377 C   0  0  0  0  0  0  0  0  0  0  0  0
   -6.2624   -0.8894  -23.2000 C   0  0  0  0  0  0  0  0  0  0  0  0
   -5.0964   -1.1364  -23.5931 O   0  0  0  0  0  0  0  0  0  0  0  0
   -6.9891    0.3108  -23.3781 N   0  0  0  0  0  0  0  0  0  0  0  0
   -8.3840    0.0279  -23.4910 C   0  0  0  0  0  0  0  0  0  0  0  0
   -8.4966   -1.4667  -23.1314 C   0  0  0  0  0  0  0  0  0  0  0  0
   -6.7679   -3.1857  -22.5014 C   0  0  0  0  0  0  0  0  0  0  0  0
   -7.0626   -3.9814  -23.6170 C   0  0  0  0  0  0  0  0  0  0  0  0
   -6.6459   -5.2980  -23.7011 C   0  0  0  0  0  0  0  0  0  0  0  0
   -7.0497   -6.2563  -25.1381 Cl  0  0  0  0  0  0  0  0  0  0  0  0
   -5.9211   -5.8974  -22.6983 C   0  0  0  0  0  0  0  0  0  0  0  0
   -5.6225   -5.1304  -21.5942 C   0  0  0  0  0  0  0  0  0  0  0  0
   -6.0394   -3.8168  -21.5117 C   0  0  0  0  0  0  0  0  0  0  0  0
   -5.6762   -3.0976  -20.2912 C   0  0  0  0  0  0  0  0  0  0  0  0
   -5.0035   -3.6570  -19.3664 O   0  0  0  0  0  0  0  0  0  0  0  0
   -6.4358    1.6368  -23.4421 C   0  0  0  0  0  0  0  0  0  0  0  0
   -6.2077    2.3787  -22.2837 C   0  0  0  0  0  0  0  0  0  0  0  0
   -5.6920    3.6179  -22.3278 N   0  0  0  0  0  0  0  0  0  0  0  0
   -5.3655    4.2156  -23.4893 C   0  0  0  0  0  0  0  0  0  0  0  0
   -5.5782    3.5079  -24.6649 C   0  0  0  0  0  0  0  0  0  0  0  0
   -5.2451    4.1150  -25.8807 C   0  0  0  0  0  0  0  0  0  0  0  0
   -5.4457    3.4383  -27.0596 C   0  0  0  0  0  0  0  0  0  0  0  0
   -5.9753    2.1646  -27.0282 C   0  0  0  0  0  0  0  0  0  0  0  0
   -6.3131    1.5425  -25.8413 C   0  0  0  0  0  0  0  0  0  0  0  0
   -6.1102    2.2226  -24.6628 C   0  0  0  0  0  0  0  0  0  0  0  0
   -5.4438   -0.8656  -19.2690 C   0  0  0  0  0  0  0  0  0  0  0  0
   -2.9642    2.0035  -19.5990 C   0  0  0  0  0  0  0  0  0  0  0  0
   -3.9804    1.1210  -19.0619 N   0  0  0  0  0  0  0  0  0  0  0  0
   -4.4215   -0.0025  -19.8471 C   0  0  0  0  0  0  0  0  0  0  0  0
   -3.8761   -0.1311  -20.9666 O   0  0  0  0  0  0  0  0  0  0  0  0
   -4.3647    1.2875  -18.1709 H   0  0  0  0  0  0  0  0  0  0  0  0
   -9.6981   -1.5876  -22.2334 C   0  0  0  0  0  0  0  0  0  0  0  0
  -11.0524   -2.3390  -23.0797 S   0  0  0  0  0  0  0  0  0  0  0  0
  -11.5951   -1.3751  -24.1370 O   0  0  0  0  0  0  0  0  0  0  0  0
  -10.5344   -3.5340  -23.8724 O   0  0  0  0  0  0  0  0  0  0  0  0
  -12.3187   -2.8942  -22.1202 N   0  0  0  0  0  0  0  0  0  0  0  0
  -13.5919   -2.3073  -22.2498 C   0  0  0  0  0  0  0  0  0  0  0  0
  -12.0320   -2.7709  -21.1490 H   0  0  0  0  0  0  0  0  0  0  0  0
 29 30  1  0  0  0
 30 31  1  0  0  0
 30 33  1  0  0  0
 31 32  2  0  0  0
 31 28  1  0  0  0
 28  1  1  0  0  0
  1  2  1  0  0  0
  3  2  1  0  0  0
  3  4  1  0  0  0
  3  9  1  0  0  0
  4  5  2  0  0  0
  4  6  1  0  0  0
  6 18  1  0  0  0
  6  7  1  0  0  0
 18 19  2  0  0  0
 19 20  1  0  0  0
 20 21  2  0  0  0
 21 22  1  0  0  0
 22 23  2  0  0  0
 23 24  1  0  0  0
 24 25  2  0  0  0
 25 26  1  0  0  0
 26 27  2  0  0  0
 27 18  1  0  0  0
 27 22  1  0  0  0
  7  8  1  0  0  0
  8 34  1  0  0  0
  8  3  1  0  0  0
 34 35  1  0  0  0
 35 36  2  0  0  0
 35 37  2  0  0  0
 35 38  1  0  0  0
 38 39  1  0  0  0
 38 40  1  0  0  0
  9 10  2  0  0  0
 10 11  1  0  0  0
 11 12  1  0  0  0
 11 13  2  0  0  0
 13 14  1  0  0  0
 14 15  2  0  0  0
 15 16  1  0  0  0
 15  9  1  0  0  0
 16 17  2  0  0  0
 16  1  1  0  0  0
M  END
> <minimizedAffinity>
-8.18270

> <CNNscore>
0.2885547280

> <CNNaffinity>
6.3334860802

> <CNN_VS>
1.8275573254

> <CNNaffinity_variance>
0.2724998295

$$$$



 40 44  0  0  0  0  0  0  0  0999 V2000
   -6.2763   -1.5754  -22.1713 N   0  0  0  0  0  0  0  0  0  0  0  0
   -6.4814   -0.1713  -22.4191 C   0  0  0  0  0  0  0  0  0  0  0  0
   -5.9394    0.3446  -23.7154 C   0  0  0  0  0  0  0  0  0  0  0  0
   -4.4539    0.5579  -23.5399 C   0  0  0  0  0  0  0  0  0  0  0  0
   -3.5116   -0.1501  -23.9711 O   0  0  0  0  0  0  0  0  0  0  0  0
   -4.3528    1.7434  -22.7754 N   0  0  0  0  0  0  0  0  0  0  0  0
   -5.4398    2.6178  -23.0795 C   0  0  0  0  0  0  0  0  0  0  0  0
   -6.3793    1.7630  -23.9527 C   0  0  0  0  0  0  0  0  0  0  0  0
   -6.2152   -0.6067  -24.7882 C   0  0  0  0  0  0  0  0  0  0  0  0
   -6.2135   -0.1993  -26.1293 C   0  0  0  0  0  0  0  0  0  0  0  0
   -6.4582   -1.0898  -27.1596 C   0  0  0  0  0  0  0  0  0  0  0  0
   -6.4438   -0.5156  -28.8379 Cl  0  0  0  0  0  0  0  0  0  0  0  0
   -6.7152   -2.4200  -26.9262 C   0  0  0  0  0  0  0  0  0  0  0  0
   -6.7211   -2.8381  -25.6141 C   0  0  0  0  0  0  0  0  0  0  0  0
   -6.4771   -1.9482  -24.5871 C   0  0  0  0  0  0  0  0  0  0  0  0
   -6.5171   -2.4965  -23.2319 C   0  0  0  0  0  0  0  0  0  0  0  0
   -6.7540   -3.7296  -23.0215 O   0  0  0  0  0  0  0  0  0  0  0  0
   -3.3197    2.0550  -21.8245 C   0  0  0  0  0  0  0  0  0  0  0  0
   -3.5374    1.9183  -20.4540 C   0  0  0  0  0  0  0  0  0  0  0  0
   -2.5827    2.2055  -19.5543 N   0  0  0  0  0  0  0  0  0  0  0  0
   -1.3625    2.6411  -19.9209 C   0  0  0  0  0  0  0  0  0  0  0  0
   -1.1077    2.7897  -21.2778 C   0  0  0  0  0  0  0  0  0  0  0  0
    0.1551    3.2423  -21.6757 C   0  0  0  0  0  0  0  0  0  0  0  0
    0.4346    3.3994  -23.0117 C   0  0  0  0  0  0  0  0  0  0  0  0
   -0.5378    3.1083  -23.9463 C   0  0  0  0  0  0  0  0  0  0  0  0
   -1.7929    2.6603  -23.5801 C   0  0  0  0  0  0  0  0  0  0  0  0
   -2.0690    2.5033  -22.2416 C   0  0  0  0  0  0  0  0  0  0  0  0
   -5.8702   -2.1012  -20.8854 C   0  0  0  0  0  0  0  0  0  0  0  0
   -5.3434    0.0628  -17.7985 C   0  0  0  0  0  0  0  0  0  0  0  0
   -5.0775   -0.7784  -18.9483 N   0  0  0  0  0  0  0  0  0  0  0  0
   -6.1819   -1.2596  -19.7370 C   0  0  0  0  0  0  0  0  0  0  0  0
   -7.3193   -0.9034  -19.3545 O   0  0  0  0  0  0  0  0  0  0  0  0
   -4.1529   -1.0178  -19.1873 H   0  0  0  0  0  0  0  0  0  0  0  0
   -7.7729    2.0422  -23.4583 C   0  0  0  0  0  0  0  0  0  0  0  0
   -8.8978    2.2413  -24.8036 S   0  0  0  0  0  0  0  0  0  0  0  0
   -9.3959    0.8693  -25.2632 O   0  0  0  0  0  0  0  0  0  0  0  0
  -10.1450    2.9587  -24.2993 O   0  0  0  0  0  0  0  0  0  0  0  0
   -8.3314    3.1086  -26.1301 N   0  0  0  0  0  0  0  0  0  0  0  0
   -8.7773    2.7657  -27.4207 C   0  0  0  0  0  0  0  0  0  0  0  0
   -7.3154    3.0180  -26.1327 H   0  0  0  0  0  0  0  0  0  0  0  0
 29 30  1  0  0  0
 30 31  1  0  0  0
 30 33  1  0  0  0
 31 32  2  0  0  0
 31 28  1  0  0  0
 28  1  1  0  0  0
  1  2  1  0  0  0
  3  2  1  0  0  0
  3  4  1  0  0  0
  3  9  1  0  0  0
  4  5  2  0  0  0
  4  6  1  0  0  0
  6 18  1  0  0  0
  6  7  1  0  0  0
 18 19  2  0  0  0
 19 20  1  0  0  0
 20 21  2  0  0  0
 21 22  1  0  0  0
 22 23  2  0  0  0
 23 24  1  0  0  0
 24 25  2  0  0  0
 25 26  1  0  0  0
 26 27  2  0  0  0
 27 18  1  0  0  0
 27 22  1  0  0  0
  7  8  1  0  0  0
  8 34  1  0  0  0
  8  3  1  0  0  0
 34 35  1  0  0  0
 35 36  2  0  0  0
 35 37  2  0  0  0
 35 38  1  0  0  0
 38 39  1  0  0  0
 38 40  1  0  0  0
  9 10  2  0  0  0
 10 11  1  0  0  0
 11 12  1  0  0  0
 11 13  2  0  0  0
 13 14  1  0  0  0
 14 15  2  0  0  0
 15 16  1  0  0  0
 15  9  1  0  0  0
 16 17  2  0  0  0
 16  1  1  0  0  0
M  END
> <minimizedAffinity>
-6.02095

> <CNNscore>
0.2382897139

> <CNNaffinity>
5.8312520981

> <CNN_VS>
1.3895274401

> <CNNaffinity_variance>
0.0534715429

$$$$



 35 40  0  0  0  0  0  0  0  0999 V2000
   -5.5788   -2.7964  -21.8760 C   0  0  0  0  0  0  0  0  0  0  0  0
   -6.7049   -2.8050  -22.8655 C   0  0  0  0  0  0  0  0  0  0  0  0
   -8.0573   -2.5977  -22.2165 C   0  0  0  0  0  0  0  0  0  0  0  0
   -8.9142   -2.0728  -23.2912 N   0  0  0  0  0  0  0  0  0  0  0  0
   -8.0562   -1.7980  -24.3994 C   0  0  0  0  0  0  0  0  0  0  0  0
   -8.4306   -1.7279  -25.5839 O   0  0  0  0  0  0  0  0  0  0  0  0
   -6.6833   -1.6264  -23.8169 C   0  0  0  0  0  0  0  0  0  0  0  0
   -6.7297   -0.3035  -23.1071 C   0  0  0  0  0  0  0  0  0  0  0  0
   -5.4376    0.1777  -22.6722 N   0  0  0  0  0  0  0  0  0  0  0  0
   -4.3824    0.1514  -23.6425 C   0  0  0  0  0  0  0  0  0  0  0  0
   -3.4028    0.9269  -23.5450 O   0  0  0  0  0  0  0  0  0  0  0  0
   -4.5107   -0.8231  -24.7446 C   0  0  0  0  0  0  0  0  0  0  0  0
   -3.5101   -0.8904  -25.7175 C   0  0  0  0  0  0  0  0  0  0  0  0
   -3.5934   -1.7910  -26.7674 C   0  0  0  0  0  0  0  0  0  0  0  0
   -4.6992   -2.6375  -26.8415 C   0  0  0  0  0  0  0  0  0  0  0  0
   -4.8081   -3.5402  -27.8712 F   0  0  0  0  0  0  0  0  0  0  0  0
   -5.6965   -2.5756  -25.8782 C   0  0  0  0  0  0  0  0  0  0  0  0
   -5.6204   -1.6692  -24.8146 C   0  0  0  0  0  0  0  0  0  0  0  0
  -10.3089   -1.9024  -23.1740 C   0  0  0  0  0  0  0  0  0  0  0  0
  -11.1755   -2.9665  -22.9061 C   0  0  0  0  0  0  0  0  0  0  0  0
  -12.5047   -2.7927  -22.7963 N   0  0  0  0  0  0  0  0  0  0  0  0
  -13.0361   -1.5524  -22.9473 C   0  0  0  0  0  0  0  0  0  0  0  0
  -12.2369   -0.4492  -23.2146 C   0  0  0  0  0  0  0  0  0  0  0  0
  -12.7900    0.8191  -23.3681 C   0  0  0  0  0  0  0  0  0  0  0  0
  -11.9460    1.8952  -23.6355 C   0  0  0  0  0  0  0  0  0  0  0  0
  -10.5707    1.7280  -23.7513 C   0  0  0  0  0  0  0  0  0  0  0  0
  -10.0668    0.4577  -23.5924 C   0  0  0  0  0  0  0  0  0  0  0  0
  -10.8589   -0.6456  -23.3258 C   0  0  0  0  0  0  0  0  0  0  0  0
   -5.1783    0.6666  -21.3452 C   0  0  0  0  0  0  0  0  0  0  0  0
   -5.8444   -0.1395  -20.2949 C   0  0  0  0  0  0  0  0  0  0  0  0
   -5.1332   -0.9387  -19.4056 C   0  0  0  0  0  0  0  0  0  0  0  0
   -6.0701   -1.5186  -18.5992 N   0  0  0  0  0  0  0  0  0  0  0  0
   -7.2658   -1.0985  -18.9754 N   0  0  0  0  0  0  0  0  0  0  0  0
   -7.1507   -0.2640  -19.9991 N   0  0  0  0  0  0  0  0  0  0  0  0
   -8.1161   -1.3660  -18.5573 H   0  0  0  0  0  0  0  0  0  0  0  0
  2  1  1  0  0  0
  2  3  1  0  0  0
  3  4  1  0  0  0
  4 19  1  0  0  0
  4  5  1  0  0  0
 19 20  2  0  0  0
 20 21  1  0  0  0
 21 22  2  0  0  0
 22 23  1  0  0  0
 23 24  2  0  0  0
 24 25  1  0  0  0
 25 26  2  0  0  0
 26 27  1  0  0  0
 27 28  2  0  0  0
 28 19  1  0  0  0
 28 23  1  0  0  0
  5  6  2  0  0  0
  7  5  1  0  0  0
  7  8  1  0  0  0
  7  2  1  0  0  0
  8  9  1  0  0  0
  9 29  1  0  0  0
  9 10  1  0  0  0
 29 30  1  0  0  0
 30 31  1  0  0  0
 31 32  2  0  0  0
 32 33  1  0  0  0
 33 34  1  0  0  0
 33 35  1  0  0  0
 34 30  2  0  0  0
 10 11  2  0  0  0
 10 12  1  0  0  0
 12 13  2  0  0  0
 13 14  1  0  0  0
 14 15  2  0  0  0
 15 16  1  0  0  0
 15 17  1  0  0  0
 17 18  2  0  0  0
 18 12  1  0  0  0
 18  7  1  0  0  0
M  END
> <minimizedAffinity>
-7.77639

> <CNNscore>
0.5180386305

> <CNNaffinity>
6.3584914207

> <CNN_VS>
3.2939441204

> <CNNaffinity_variance>
0.0980642959

$$$$



 35 40  0  0  0  0  0  0  0  0999 V2000
   -4.4204   -0.1990  -24.9948 C   0  0  0  0  0  0  0  0  0  0  0  0
   -5.7172   -0.9092  -25.2414 C   0  0  0  0  0  0  0  0  0  0  0  0
   -5.6382   -2.3928  -24.9485 C   0  0  0  0  0  0  0  0  0  0  0  0
   -7.0272   -2.7986  -24.6821 N   0  0  0  0  0  0  0  0  0  0  0  0
   -7.7968   -1.5974  -24.6129 C   0  0  0  0  0  0  0  0  0  0  0  0
   -9.0254   -1.5324  -24.7987 O   0  0  0  0  0  0  0  0  0  0  0  0
   -6.8189   -0.5074  -24.2824 C   0  0  0  0  0  0  0  0  0  0  0  0
   -6.4540   -0.7417  -22.8444 C   0  0  0  0  0  0  0  0  0  0  0  0
   -5.7022    0.3373  -22.2437 N   0  0  0  0  0  0  0  0  0  0  0  0
   -6.2156    1.6622  -22.4348 C   0  0  0  0  0  0  0  0  0  0  0  0
   -5.9413    2.5786  -21.6251 O   0  0  0  0  0  0  0  0  0  0  0  0
   -7.0711    1.8844  -23.6177 C   0  0  0  0  0  0  0  0  0  0  0  0
   -7.5978    3.1574  -23.8512 C   0  0  0  0  0  0  0  0  0  0  0  0
   -8.4048    3.4066  -24.9498 C   0  0  0  0  0  0  0  0  0  0  0  0
   -8.6874    2.3609  -25.8280 C   0  0  0  0  0  0  0  0  0  0  0  0
   -9.4844    2.5791  -26.9254 F   0  0  0  0  0  0  0  0  0  0  0  0
   -8.1672    1.0941  -25.6018 C   0  0  0  0  0  0  0  0  0  0  0  0
   -7.3514    0.8336  -24.4949 C   0  0  0  0  0  0  0  0  0  0  0  0
   -7.4419   -4.1382  -24.5354 C   0  0  0  0  0  0  0  0  0  0  0  0
   -7.1416   -4.8971  -23.4001 C   0  0  0  0  0  0  0  0  0  0  0  0
   -7.5422   -6.1746  -23.2704 N   0  0  0  0  0  0  0  0  0  0  0  0
   -8.2608   -6.7587  -24.2634 C   0  0  0  0  0  0  0  0  0  0  0  0
   -8.5958   -6.0663  -25.4192 C   0  0  0  0  0  0  0  0  0  0  0  0
   -9.3329   -6.6730  -26.4325 C   0  0  0  0  0  0  0  0  0  0  0  0
   -9.6443   -5.9363  -27.5737 C   0  0  0  0  0  0  0  0  0  0  0  0
   -9.2357   -4.6153  -27.7191 C   0  0  0  0  0  0  0  0  0  0  0  0
   -8.5095   -4.0555  -26.6935 C   0  0  0  0  0  0  0  0  0  0  0  0
   -8.1727   -4.7410  -25.5391 C   0  0  0  0  0  0  0  0  0  0  0  0
   -4.4968    0.1388  -21.4856 C   0  0  0  0  0  0  0  0  0  0  0  0
   -4.7265    0.1681  -20.0217 C   0  0  0  0  0  0  0  0  0  0  0  0
   -5.4309   -0.8311  -19.3577 C   0  0  0  0  0  0  0  0  0  0  0  0
   -5.4372   -0.4669  -18.0418 N   0  0  0  0  0  0  0  0  0  0  0  0
   -4.7814    0.6743  -17.9189 N   0  0  0  0  0  0  0  0  0  0  0  0
   -4.3439    1.0747  -19.1046 N   0  0  0  0  0  0  0  0  0  0  0  0
   -4.6391    1.1558  -17.0720 H   0  0  0  0  0  0  0  0  0  0  0  0
  2  1  1  0  0  0
  2  3  1  0  0  0
  3  4  1  0  0  0
  4 19  1  0  0  0
  4  5  1  0  0  0
 19 20  2  0  0  0
 20 21  1  0  0  0
 21 22  2  0  0  0
 22 23  1  0  0  0
 23 24  2  0  0  0
 24 25  1  0  0  0
 25 26  2  0  0  0
 26 27  1  0  0  0
 27 28  2  0  0  0
 28 19  1  0  0  0
 28 23  1  0  0  0
  5  6  2  0  0  0
  7  5  1  0  0  0
  7  8  1  0  0  0
  7  2  1  0  0  0
  8  9  1  0  0  0
  9 29  1  0  0  0
  9 10  1  0  0  0
 29 30  1  0  0  0
 30 31  1  0  0  0
 31 32  2  0  0  0
 32 33  1  0  0  0
 33 34  1  0  0  0
 33 35  1  0  0  0
 34 30  2  0  0  0
 10 11  2  0  0  0
 10 12  1  0  0  0
 12 13  2  0  0  0
 13 14  1  0  0  0
 14 15  2  0  0  0
 15 16  1  0  0  0
 15 17  1  0  0  0
 17 18  2  0  0  0
 18 12  1  0  0  0
 18  7  1  0  0  0
M  END
> <minimizedAffinity>
-8.11682

> <CNNscore>
0.4438468218

> <CNNaffinity>
6.3586893082

> <CNN_VS>
2.8222839832

> <CNNaffinity_variance>
0.0202003401

$$$$



 35 40  0  0  0  0  0  0  0  0999 V2000
   -7.5529   -1.2471  -25.4119 C   0  0  0  0  0  0  0  0  0  0  0  0
   -6.7346   -1.7154  -24.2465 C   0  0  0  0  0  0  0  0  0  0  0  0
   -6.6315   -0.6783  -23.1479 C   0  0  0  0  0  0  0  0  0  0  0  0
   -6.3334   -1.4482  -21.9300 N   0  0  0  0  0  0  0  0  0  0  0  0
   -6.4763   -2.8270  -22.2740 C   0  0  0  0  0  0  0  0  0  0  0  0
   -5.9412   -3.7684  -21.6612 O   0  0  0  0  0  0  0  0  0  0  0  0
   -7.3728   -2.8541  -23.4778 C   0  0  0  0  0  0  0  0  0  0  0  0
   -8.7358   -2.5090  -22.9496 C   0  0  0  0  0  0  0  0  0  0  0  0
   -9.8053   -2.7112  -23.9012 N   0  0  0  0  0  0  0  0  0  0  0  0
   -9.8237   -3.9688  -24.5894 C   0  0  0  0  0  0  0  0  0  0  0  0
  -10.8917   -4.4269  -25.0586 O   0  0  0  0  0  0  0  0  0  0  0  0
   -8.5372   -4.6831  -24.7129 C   0  0  0  0  0  0  0  0  0  0  0  0
   -8.4989   -5.9133  -25.3744 C   0  0  0  0  0  0  0  0  0  0  0  0
   -7.3116   -6.6146  -25.5113 C   0  0  0  0  0  0  0  0  0  0  0  0
   -6.1441   -6.0720  -24.9755 C   0  0  0  0  0  0  0  0  0  0  0  0
   -4.9528   -6.7452  -25.0963 F   0  0  0  0  0  0  0  0  0  0  0  0
   -6.1754   -4.8504  -24.3172 C   0  0  0  0  0  0  0  0  0  0  0  0
   -7.3699   -4.1354  -24.1745 C   0  0  0  0  0  0  0  0  0  0  0  0
   -5.9813   -0.8644  -20.6958 C   0  0  0  0  0  0  0  0  0  0  0  0
   -6.7251   -1.0682  -19.5294 C   0  0  0  0  0  0  0  0  0  0  0  0
   -6.3802   -0.5063  -18.3571 N   0  0  0  0  0  0  0  0  0  0  0  0
   -5.2791    0.2851  -18.2881 C   0  0  0  0  0  0  0  0  0  0  0  0
   -4.4929    0.5320  -19.4055 C   0  0  0  0  0  0  0  0  0  0  0  0
   -3.3655    1.3448  -19.3259 C   0  0  0  0  0  0  0  0  0  0  0  0
   -2.6084    1.5624  -20.4755 C   0  0  0  0  0  0  0  0  0  0  0  0
   -2.9550    0.9872  -21.6928 C   0  0  0  0  0  0  0  0  0  0  0  0
   -4.0766    0.1911  -21.7260 C   0  0  0  0  0  0  0  0  0  0  0  0
   -4.8639   -0.0584  -20.6153 C   0  0  0  0  0  0  0  0  0  0  0  0
  -10.8197   -1.7300  -24.1755 C   0  0  0  0  0  0  0  0  0  0  0  0
  -12.0220   -1.8921  -23.3241 C   0  0  0  0  0  0  0  0  0  0  0  0
  -13.0539   -0.9592  -23.3063 C   0  0  0  0  0  0  0  0  0  0  0  0
  -13.9723   -1.4407  -22.4179 N   0  0  0  0  0  0  0  0  0  0  0  0
  -13.5259   -2.5863  -21.9321 N   0  0  0  0  0  0  0  0  0  0  0  0
  -12.3483   -2.8766  -22.4675 N   0  0  0  0  0  0  0  0  0  0  0  0
  -13.9982   -3.1417  -21.2705 H   0  0  0  0  0  0  0  0  0  0  0  0
  2  1  1  0  0  0
  2  3  1  0  0  0
  3  4  1  0  0  0
  4 19  1  0  0  0
  4  5  1  0  0  0
 19 20  2  0  0  0
 20 21  1  0  0  0
 21 22  2  0  0  0
 22 23  1  0  0  0
 23 24  2  0  0  0
 24 25  1  0  0  0
 25 26  2  0  0  0
 26 27  1  0  0  0
 27 28  2  0  0  0
 28 19  1  0  0  0
 28 23  1  0  0  0
  5  6  2  0  0  0
  7  5  1  0  0  0
  7  8  1  0  0  0
  7  2  1  0  0  0
  8  9  1  0  0  0
  9 29  1  0  0  0
  9 10  1  0  0  0
 29 30  1  0  0  0
 30 31  1  0  0  0
 31 32  2  0  0  0
 32 33  1  0  0  0
 33 34  1  0  0  0
 33 35  1  0  0  0
 34 30  2  0  0  0
 10 11  2  0  0  0
 10 12  1  0  0  0
 12 13  2  0  0  0
 13 14  1  0  0  0
 14 15  2  0  0  0
 15 16  1  0  0  0
 15 17  1  0  0  0
 17 18  2  0  0  0
 18 12  1  0  0  0
 18  7  1  0  0  0
M  END
> <minimizedAffinity>
-9.32770

> <CNNscore>
0.3276595175

> <CNNaffinity>
6.4737749100

> <CNN_VS>
2.1211938858

> <CNNaffinity_variance>
0.1036828160

$$$$



 35 40  0  0  0  0  0  0  0  0999 V2000
   -8.3012   -2.6616  -21.6324 C   0  0  0  0  0  0  0  0  0  0  0  0
   -9.0759   -2.0726  -22.7725 C   0  0  0  0  0  0  0  0  0  0  0  0
  -10.1685   -1.1296  -22.3139 C   0  0  0  0  0  0  0  0  0  0  0  0
  -10.4147   -0.2494  -23.4669 N   0  0  0  0  0  0  0  0  0  0  0  0
   -9.3898   -0.5307  -24.4209 C   0  0  0  0  0  0  0  0  0  0  0  0
   -9.4755   -0.2998  -25.6406 O   0  0  0  0  0  0  0  0  0  0  0  0
   -8.2602   -1.1336  -23.6372 C   0  0  0  0  0  0  0  0  0  0  0  0
   -7.6757    0.0126  -22.8621 C   0  0  0  0  0  0  0  0  0  0  0  0
   -6.4184   -0.2924  -22.2169 N   0  0  0  0  0  0  0  0  0  0  0  0
   -5.4197   -0.9295  -23.0247 C   0  0  0  0  0  0  0  0  0  0  0  0
   -4.2037   -0.8264  -22.7398 O   0  0  0  0  0  0  0  0  0  0  0  0
   -5.8943   -1.7007  -24.1911 C   0  0  0  0  0  0  0  0  0  0  0  0
   -4.9626   -2.3416  -25.0119 C   0  0  0  0  0  0  0  0  0  0  0  0
   -5.3675   -3.0749  -26.1158 C   0  0  0  0  0  0  0  0  0  0  0  0
   -6.7297   -3.1661  -26.4001 C   0  0  0  0  0  0  0  0  0  0  0  0
   -7.1598   -3.8863  -27.4879 F   0  0  0  0  0  0  0  0  0  0  0  0
   -7.6602   -2.5319  -25.5887 C   0  0  0  0  0  0  0  0  0  0  0  0
   -7.2601   -1.7894  -24.4719 C   0  0  0  0  0  0  0  0  0  0  0  0
  -11.4805    0.6706  -23.5418 C   0  0  0  0  0  0  0  0  0  0  0  0
  -12.8189    0.2676  -23.5823 C   0  0  0  0  0  0  0  0  0  0  0  0
  -13.8281    1.1538  -23.6537 N   0  0  0  0  0  0  0  0  0  0  0  0
  -13.5551    2.4834  -23.6882 C   0  0  0  0  0  0  0  0  0  0  0  0
  -12.2504    2.9566  -23.6514 C   0  0  0  0  0  0  0  0  0  0  0  0
  -11.9795    4.3216  -23.6872 C   0  0  0  0  0  0  0  0  0  0  0  0
  -10.6531    4.7472  -23.6479 C   0  0  0  0  0  0  0  0  0  0  0  0
   -9.6015    3.8407  -23.5742 C   0  0  0  0  0  0  0  0  0  0  0  0
   -9.9148    2.5015  -23.5410 C   0  0  0  0  0  0  0  0  0  0  0  0
  -11.2135    2.0243  -23.5774 C   0  0  0  0  0  0  0  0  0  0  0  0
   -6.1396    0.0092  -20.8391 C   0  0  0  0  0  0  0  0  0  0  0  0
   -5.4299   -1.0894  -20.1420 C   0  0  0  0  0  0  0  0  0  0  0  0
   -4.6851   -0.8800  -18.9858 C   0  0  0  0  0  0  0  0  0  0  0  0
   -4.1881   -2.1037  -18.6395 N   0  0  0  0  0  0  0  0  0  0  0  0
   -4.6042   -2.9920  -19.5257 N   0  0  0  0  0  0  0  0  0  0  0  0
   -5.3563   -2.3986  -20.4422 N   0  0  0  0  0  0  0  0  0  0  0  0
   -4.3876   -3.9522  -19.5079 H   0  0  0  0  0  0  0  0  0  0  0  0
  2  1  1  0  0  0
  2  3  1  0  0  0
  3  4  1  0  0  0
  4 19  1  0  0  0
  4  5  1  0  0  0
 19 20  2  0  0  0
 20 21  1  0  0  0
 21 22  2  0  0  0
 22 23  1  0  0  0
 23 24  2  0  0  0
 24 25  1  0  0  0
 25 26  2  0  0  0
 26 27  1  0  0  0
 27 28  2  0  0  0
 28 19  1  0  0  0
 28 23  1  0  0  0
  5  6  2  0  0  0
  7  5  1  0  0  0
  7  8  1  0  0  0
  7  2  1  0  0  0
  8  9  1  0  0  0
  9 29  1  0  0  0
  9 10  1  0  0  0
 29 30  1  0  0  0
 30 31  1  0  0  0
 31 32  2  0  0  0
 32 33  1  0  0  0
 33 34  1  0  0  0
 33 35  1  0  0  0
 34 30  2  0  0  0
 10 11  2  0  0  0
 10 12  1  0  0  0
 12 13  2  0  0  0
 13 14  1  0  0  0
 14 15  2  0  0  0
 15 16  1  0  0  0
 15 17  1  0  0  0
 17 18  2  0  0  0
 18 12  1  0  0  0
 18  7  1  0  0  0
M  END
> <minimizedAffinity>
-1.38590

> <CNNscore>
0.3250118494

> <CNNaffinity>
6.0235719681

> <CNN_VS>
1.9577323198

> <CNNaffinity_variance>
0.1836502850

$$$$



 35 40  0  0  0  0  0  0  0  0999 V2000
   -4.5397   -0.3732  -24.9929 C   0  0  0  0  0  0  0  0  0  0  0  0
   -5.8299   -1.0271  -25.3866 C   0  0  0  0  0  0  0  0  0  0  0  0
   -5.7877   -2.5350  -25.2530 C   0  0  0  0  0  0  0  0  0  0  0  0
   -7.1950   -2.9398  -25.1095 N   0  0  0  0  0  0  0  0  0  0  0  0
   -7.9510   -1.7383  -24.9527 C   0  0  0  0  0  0  0  0  0  0  0  0
   -9.1660   -1.6296  -25.1980 O   0  0  0  0  0  0  0  0  0  0  0  0
   -6.9790   -0.7097  -24.4520 C   0  0  0  0  0  0  0  0  0  0  0  0
   -6.7000   -1.1049  -23.0301 C   0  0  0  0  0  0  0  0  0  0  0  0
   -5.9692   -0.1119  -22.2748 N   0  0  0  0  0  0  0  0  0  0  0  0
   -6.4530    1.2357  -22.3486 C   0  0  0  0  0  0  0  0  0  0  0  0
   -6.2131    2.0538  -21.4301 O   0  0  0  0  0  0  0  0  0  0  0  0
   -7.2365    1.6010  -23.5459 C   0  0  0  0  0  0  0  0  0  0  0  0
   -7.7318    2.9018  -23.6681 C   0  0  0  0  0  0  0  0  0  0  0  0
   -8.4713    3.2838  -24.7760 C   0  0  0  0  0  0  0  0  0  0  0  0
   -8.7174    2.3447  -25.7771 C   0  0  0  0  0  0  0  0  0  0  0  0
   -9.4475    2.6956  -26.8866 F   0  0  0  0  0  0  0  0  0  0  0  0
   -8.2281    1.0510  -25.6617 C   0  0  0  0  0  0  0  0  0  0  0  0
   -7.4804    0.6566  -24.5464 C   0  0  0  0  0  0  0  0  0  0  0  0
   -7.6353   -4.2790  -25.1327 C   0  0  0  0  0  0  0  0  0  0  0  0
   -8.4264   -4.7916  -26.1655 C   0  0  0  0  0  0  0  0  0  0  0  0
   -8.8410   -6.0710  -26.1777 N   0  0  0  0  0  0  0  0  0  0  0  0
   -8.4890   -6.9024  -25.1636 C   0  0  0  0  0  0  0  0  0  0  0  0
   -7.7055   -6.4629  -24.1050 C   0  0  0  0  0  0  0  0  0  0  0  0
   -7.3491   -7.3221  -23.0693 C   0  0  0  0  0  0  0  0  0  0  0  0
   -6.5611   -6.8338  -22.0288 C   0  0  0  0  0  0  0  0  0  0  0  0
   -6.1265   -5.5133  -22.0052 C   0  0  0  0  0  0  0  0  0  0  0  0
   -6.5020   -4.6993  -23.0488 C   0  0  0  0  0  0  0  0  0  0  0  0
   -7.2828   -5.1321  -24.1065 C   0  0  0  0  0  0  0  0  0  0  0  0
   -4.8118   -0.4146  -21.4774 C   0  0  0  0  0  0  0  0  0  0  0  0
   -5.1306   -1.2481  -20.2941 C   0  0  0  0  0  0  0  0  0  0  0  0
   -5.5851   -0.7017  -19.0982 C   0  0  0  0  0  0  0  0  0  0  0  0
   -5.7681   -1.7594  -18.2543 N   0  0  0  0  0  0  0  0  0  0  0  0
   -5.4462   -2.8693  -18.8964 N   0  0  0  0  0  0  0  0  0  0  0  0
   -5.0583   -2.5814  -20.1310 N   0  0  0  0  0  0  0  0  0  0  0  0
   -5.4883   -3.7756  -18.5142 H   0  0  0  0  0  0  0  0  0  0  0  0
  2  1  1  0  0  0
  2  3  1  0  0  0
  3  4  1  0  0  0
  4 19  1  0  0  0
  4  5  1  0  0  0
 19 20  2  0  0  0
 20 21  1  0  0  0
 21 22  2  0  0  0
 22 23  1  0  0  0
 23 24  2  0  0  0
 24 25  1  0  0  0
 25 26  2  0  0  0
 26 27  1  0  0  0
 27 28  2  0  0  0
 28 19  1  0  0  0
 28 23  1  0  0  0
  5  6  2  0  0  0
  7  5  1  0  0  0
  7  8  1  0  0  0
  7  2  1  0  0  0
  8  9  1  0  0  0
  9 29  1  0  0  0
  9 10  1  0  0  0
 29 30  1  0  0  0
 30 31  1  0  0  0
 31 32  2  0  0  0
 32 33  1  0  0  0
 33 34  1  0  0  0
 33 35  1  0  0  0
 34 30  2  0  0  0
 10 11  2  0  0  0
 10 12  1  0  0  0
 12 13  2  0  0  0
 13 14  1  0  0  0
 14 15  2  0  0  0
 15 16  1  0  0  0
 15 17  1  0  0  0
 17 18  2  0  0  0
 18 12  1  0  0  0
 18  7  1  0  0  0
M  END
> <minimizedAffinity>
-8.31876

> <CNNscore>
0.3232562840

> <CNNaffinity>
6.0462713242

> <CNN_VS>
1.9544951916

> <CNNaffinity_variance>
0.2331128418

$$$$



 35 40  0  0  0  0  0  0  0  0999 V2000
   -7.4893    0.4786  -24.5154 C   0  0  0  0  0  0  0  0  0  0  0  0
   -6.0651    0.4424  -24.9817 C   0  0  0  0  0  0  0  0  0  0  0  0
   -5.1833    1.4327  -24.2504 C   0  0  0  0  0  0  0  0  0  0  0  0
   -3.8203    0.8952  -24.3862 N   0  0  0  0  0  0  0  0  0  0  0  0
   -3.9507   -0.4072  -24.9575 C   0  0  0  0  0  0  0  0  0  0  0  0
   -3.0504   -1.0013  -25.5777 O   0  0  0  0  0  0  0  0  0  0  0  0
   -5.3505   -0.8498  -24.6438 C   0  0  0  0  0  0  0  0  0  0  0  0
   -5.3399   -1.1418  -23.1705 C   0  0  0  0  0  0  0  0  0  0  0  0
   -6.5277   -1.8145  -22.6943 N   0  0  0  0  0  0  0  0  0  0  0  0
   -6.9618   -2.9581  -23.4422 C   0  0  0  0  0  0  0  0  0  0  0  0
   -7.6545   -3.8519  -22.9019 O   0  0  0  0  0  0  0  0  0  0  0  0
   -6.5548   -3.0244  -24.8602 C   0  0  0  0  0  0  0  0  0  0  0  0
   -6.9510   -4.1177  -25.6348 C   0  0  0  0  0  0  0  0  0  0  0  0
   -6.5896   -4.2170  -26.9689 C   0  0  0  0  0  0  0  0  0  0  0  0
   -5.8181   -3.2022  -27.5342 C   0  0  0  0  0  0  0  0  0  0  0  0
   -5.4453   -3.2743  -28.8544 F   0  0  0  0  0  0  0  0  0  0  0  0
   -5.4213   -2.1135  -26.7701 C   0  0  0  0  0  0  0  0  0  0  0  0
   -5.7818   -2.0052  -25.4223 C   0  0  0  0  0  0  0  0  0  0  0  0
   -2.6568    1.5931  -24.0027 C   0  0  0  0  0  0  0  0  0  0  0  0
   -1.7816    2.1621  -24.9330 C   0  0  0  0  0  0  0  0  0  0  0  0
   -0.6742    2.8259  -24.5562 N   0  0  0  0  0  0  0  0  0  0  0  0
   -0.3838    2.9561  -23.2363 C   0  0  0  0  0  0  0  0  0  0  0  0
   -1.2069    2.4173  -22.2566 C   0  0  0  0  0  0  0  0  0  0  0  0
   -0.9016    2.5553  -20.9054 C   0  0  0  0  0  0  0  0  0  0  0  0
   -1.7592    1.9967  -19.9597 C   0  0  0  0  0  0  0  0  0  0  0  0
   -2.9067    1.3083  -20.3370 C   0  0  0  0  0  0  0  0  0  0  0  0
   -3.1697    1.1957  -21.6826 C   0  0  0  0  0  0  0  0  0  0  0  0
   -2.3528    1.7309  -22.6635 C   0  0  0  0  0  0  0  0  0  0  0  0
   -7.2675   -1.3938  -21.5356 C   0  0  0  0  0  0  0  0  0  0  0  0
   -6.5392   -1.6381  -20.2681 C   0  0  0  0  0  0  0  0  0  0  0  0
   -6.7223   -0.8466  -19.1388 C   0  0  0  0  0  0  0  0  0  0  0  0
   -5.8961   -1.3673  -18.1845 N   0  0  0  0  0  0  0  0  0  0  0  0
   -5.2574   -2.4027  -18.7017 N   0  0  0  0  0  0  0  0  0  0  0  0
   -5.6323   -2.5828  -19.9605 N   0  0  0  0  0  0  0  0  0  0  0  0
   -4.6003   -2.9580  -18.2228 H   0  0  0  0  0  0  0  0  0  0  0  0
  2  1  1  0  0  0
  2  3  1  0  0  0
  3  4  1  0  0  0
  4 19  1  0  0  0
  4  5  1  0  0  0
 19 20  2  0  0  0
 20 21  1  0  0  0
 21 22  2  0  0  0
 22 23  1  0  0  0
 23 24  2  0  0  0
 24 25  1  0  0  0
 25 26  2  0  0  0
 26 27  1  0  0  0
 27 28  2  0  0  0
 28 19  1  0  0  0
 28 23  1  0  0  0
  5  6  2  0  0  0
  7  5  1  0  0  0
  7  8  1  0  0  0
  7  2  1  0  0  0
  8  9  1  0  0  0
  9 29  1  0  0  0
  9 10  1  0  0  0
 29 30  1  0  0  0
 30 31  1  0  0  0
 31 32  2  0  0  0
 32 33  1  0  0  0
 33 34  1  0  0  0
 33 35  1  0  0  0
 34 30  2  0  0  0
 10 11  2  0  0  0
 10 12  1  0  0  0
 12 13  2  0  0  0
 13 14  1  0  0  0
 14 15  2  0  0  0
 15 16  1  0  0  0
 15 17  1  0  0  0
 17 18  2  0  0  0
 18 12  1  0  0  0
 18  7  1  0  0  0
M  END
> <minimizedAffinity>
-6.66978

> <CNNscore>
0.3123841286

> <CNNaffinity>
5.7945885658

> <CNN_VS>
1.8101375103

> <CNNaffinity_variance>
0.0912012681

$$$$



 35 40  0  0  0  0  0  0  0  0999 V2000
   -6.5279   -4.9799  -22.5651 C   0  0  0  0  0  0  0  0  0  0  0  0
   -6.8235   -3.6568  -21.9254 C   0  0  0  0  0  0  0  0  0  0  0  0
   -5.5776   -2.9551  -21.4269 C   0  0  0  0  0  0  0  0  0  0  0  0
   -5.9418   -1.5303  -21.3782 N   0  0  0  0  0  0  0  0  0  0  0  0
   -7.2180   -1.4139  -22.0088 C   0  0  0  0  0  0  0  0  0  0  0  0
   -8.0186   -0.4805  -21.8191 O   0  0  0  0  0  0  0  0  0  0  0  0
   -7.3429   -2.6174  -22.8974 C   0  0  0  0  0  0  0  0  0  0  0  0
   -6.3953   -2.3565  -24.0331 C   0  0  0  0  0  0  0  0  0  0  0  0
   -6.5290   -3.2809  -25.1366 N   0  0  0  0  0  0  0  0  0  0  0  0
   -7.8582   -3.5167  -25.6197 C   0  0  0  0  0  0  0  0  0  0  0  0
   -8.0534   -3.9034  -26.7957 O   0  0  0  0  0  0  0  0  0  0  0  0
   -8.9661   -3.2827  -24.6719 C   0  0  0  0  0  0  0  0  0  0  0  0
  -10.2816   -3.4974  -25.0914 C   0  0  0  0  0  0  0  0  0  0  0  0
  -11.3487   -3.2893  -24.2323 C   0  0  0  0  0  0  0  0  0  0  0  0
  -11.0910   -2.8587  -22.9312 C   0  0  0  0  0  0  0  0  0  0  0  0
  -12.1295   -2.6443  -22.0579 F   0  0  0  0  0  0  0  0  0  0  0  0
   -9.7866   -2.6437  -22.5083 C   0  0  0  0  0  0  0  0  0  0  0  0
   -8.7030   -2.8515  -23.3692 C   0  0  0  0  0  0  0  0  0  0  0  0
   -5.1325   -0.5299  -20.8019 C   0  0  0  0  0  0  0  0  0  0  0  0
   -5.2385   -0.1605  -19.4575 C   0  0  0  0  0  0  0  0  0  0  0  0
   -4.4613    0.7954  -18.9178 N   0  0  0  0  0  0  0  0  0  0  0  0
   -3.5412    1.4298  -19.6889 C   0  0  0  0  0  0  0  0  0  0  0  0
   -3.3801    1.1152  -21.0315 C   0  0  0  0  0  0  0  0  0  0  0  0
   -2.4342    1.7707  -21.8149 C   0  0  0  0  0  0  0  0  0  0  0  0
   -2.3103    1.4194  -23.1577 C   0  0  0  0  0  0  0  0  0  0  0  0
   -3.1080    0.4331  -23.7268 C   0  0  0  0  0  0  0  0  0  0  0  0
   -4.0294   -0.1887  -22.9163 C   0  0  0  0  0  0  0  0  0  0  0  0
   -4.1943    0.1208  -21.5773 C   0  0  0  0  0  0  0  0  0  0  0  0
   -5.4149   -3.9520  -25.7493 C   0  0  0  0  0  0  0  0  0  0  0  0
   -5.7207   -5.3543  -26.1191 C   0  0  0  0  0  0  0  0  0  0  0  0
   -5.5344   -5.8426  -27.4084 C   0  0  0  0  0  0  0  0  0  0  0  0
   -5.9178   -7.1525  -27.3666 N   0  0  0  0  0  0  0  0  0  0  0  0
   -6.3090   -7.4363  -26.1361 N   0  0  0  0  0  0  0  0  0  0  0  0
   -6.1974   -6.3624  -25.3668 N   0  0  0  0  0  0  0  0  0  0  0  0
   -6.6351   -8.3153  -25.8355 H   0  0  0  0  0  0  0  0  0  0  0  0
  2  1  1  0  0  0
  2  3  1  0  0  0
  3  4  1  0  0  0
  4 19  1  0  0  0
  4  5  1  0  0  0
 19 20  2  0  0  0
 20 21  1  0  0  0
 21 22  2  0  0  0
 22 23  1  0  0  0
 23 24  2  0  0  0
 24 25  1  0  0  0
 25 26  2  0  0  0
 26 27  1  0  0  0
 27 28  2  0  0  0
 28 19  1  0  0  0
 28 23  1  0  0  0
  5  6  2  0  0  0
  7  5  1  0  0  0
  7  8  1  0  0  0
  7  2  1  0  0  0
  8  9  1  0  0  0
  9 29  1  0  0  0
  9 10  1  0  0  0
 29 30  1  0  0  0
 30 31  1  0  0  0
 31 32  2  0  0  0
 32 33  1  0  0  0
 33 34  1  0  0  0
 33 35  1  0  0  0
 34 30  2  0  0  0
 10 11  2  0  0  0
 10 12  1  0  0  0
 12 13  2  0  0  0
 13 14  1  0  0  0
 14 15  2  0  0  0
 15 16  1  0  0  0
 15 17  1  0  0  0
 17 18  2  0  0  0
 18 12  1  0  0  0
 18  7  1  0  0  0
M  END
> <minimizedAffinity>
-8.15837

> <CNNscore>
0.2597586513

> <CNNaffinity>
5.9325914383

> <CNN_VS>
1.5410419703

> <CNNaffinity_variance>
0.1922354400

$$$$



 35 40  0  0  0  0  0  0  0  0999 V2000
   -6.4540   -4.9505  -22.5926 C   0  0  0  0  0  0  0  0  0  0  0  0
   -6.7686   -3.6398  -21.9366 C   0  0  0  0  0  0  0  0  0  0  0  0
   -5.5335   -2.9297  -21.4234 C   0  0  0  0  0  0  0  0  0  0  0  0
   -5.9154   -1.5103  -21.3572 N   0  0  0  0  0  0  0  0  0  0  0  0
   -7.1902   -1.4010  -21.9918 C   0  0  0  0  0  0  0  0  0  0  0  0
   -8.0030   -0.4801  -21.7930 O   0  0  0  0  0  0  0  0  0  0  0  0
   -7.2966   -2.5940  -22.8969 C   0  0  0  0  0  0  0  0  0  0  0  0
   -6.3475   -2.3062  -24.0248 C   0  0  0  0  0  0  0  0  0  0  0  0
   -6.4652   -3.2173  -25.1412 N   0  0  0  0  0  0  0  0  0  0  0  0
   -7.7893   -3.4628  -25.6332 C   0  0  0  0  0  0  0  0  0  0  0  0
   -7.9748   -3.8361  -26.8151 O   0  0  0  0  0  0  0  0  0  0  0  0
   -8.9040   -3.2552  -24.6872 C   0  0  0  0  0  0  0  0  0  0  0  0
  -10.2149   -3.4803  -25.1153 C   0  0  0  0  0  0  0  0  0  0  0  0
  -11.2882   -3.2968  -24.2581 C   0  0  0  0  0  0  0  0  0  0  0  0
  -11.0412   -2.8806  -22.9503 C   0  0  0  0  0  0  0  0  0  0  0  0
  -12.0860   -2.6907  -22.0787 F   0  0  0  0  0  0  0  0  0  0  0  0
   -9.7414   -2.6554  -22.5189 C   0  0  0  0  0  0  0  0  0  0  0  0
   -8.6517   -2.8383  -23.3777 C   0  0  0  0  0  0  0  0  0  0  0  0
   -5.1209   -0.5079  -20.7640 C   0  0  0  0  0  0  0  0  0  0  0  0
   -5.2475   -0.1473  -19.4190 C   0  0  0  0  0  0  0  0  0  0  0  0
   -4.4843    0.8106  -18.8631 N   0  0  0  0  0  0  0  0  0  0  0  0
   -3.5583    1.4559  -19.6179 C   0  0  0  0  0  0  0  0  0  0  0  0
   -3.3768    1.1505  -20.9601 C   0  0  0  0  0  0  0  0  0  0  0  0
   -2.4251    1.8171  -21.7267 C   0  0  0  0  0  0  0  0  0  0  0  0
   -2.2806    1.4748  -23.0698 C   0  0  0  0  0  0  0  0  0  0  0  0
   -3.0637    0.4865  -23.6555 C   0  0  0  0  0  0  0  0  0  0  0  0
   -3.9917   -0.1464  -22.8612 C   0  0  0  0  0  0  0  0  0  0  0  0
   -4.1768    0.1539  -21.5228 C   0  0  0  0  0  0  0  0  0  0  0  0
   -5.3403   -3.8665  -25.7579 C   0  0  0  0  0  0  0  0  0  0  0  0
   -4.5040   -2.9362  -26.5527 C   0  0  0  0  0  0  0  0  0  0  0  0
   -4.8141   -2.5904  -27.8641 C   0  0  0  0  0  0  0  0  0  0  0  0
   -3.8321   -1.7288  -28.2613 N   0  0  0  0  0  0  0  0  0  0  0  0
   -2.9864   -1.5650  -27.2585 N   0  0  0  0  0  0  0  0  0  0  0  0
   -3.3751   -2.2866  -26.2164 N   0  0  0  0  0  0  0  0  0  0  0  0
   -2.1862   -0.9920  -27.2821 H   0  0  0  0  0  0  0  0  0  0  0  0
  2  1  1  0  0  0
  2  3  1  0  0  0
  3  4  1  0  0  0
  4 19  1  0  0  0
  4  5  1  0  0  0
 19 20  2  0  0  0
 20 21  1  0  0  0
 21 22  2  0  0  0
 22 23  1  0  0  0
 23 24  2  0  0  0
 24 25  1  0  0  0
 25 26  2  0  0  0
 26 27  1  0  0  0
 27 28  2  0  0  0
 28 19  1  0  0  0
 28 23  1  0  0  0
  5  6  2  0  0  0
  7  5  1  0  0  0
  7  8  1  0  0  0
  7  2  1  0  0  0
  8  9  1  0  0  0
  9 29  1  0  0  0
  9 10  1  0  0  0
 29 30  1  0  0  0
 30 31  1  0  0  0
 31 32  2  0  0  0
 32 33  1  0  0  0
 33 34  1  0  0  0
 33 35  1  0  0  0
 34 30  2  0  0  0
 10 11  2  0  0  0
 10 12  1  0  0  0
 12 13  2  0  0  0
 13 14  1  0  0  0
 14 15  2  0  0  0
 15 16  1  0  0  0
 15 17  1  0  0  0
 17 18  2  0  0  0
 18 12  1  0  0  0
 18  7  1  0  0  0
M  END
> <minimizedAffinity>
-7.50769

> <CNNscore>
0.2220968604

> <CNNaffinity>
5.8006148338

> <CNN_VS>
1.2882983685

> <CNNaffinity_variance>
0.1256174594

$$$$



 35 40  0  0  0  0  0  0  0  0999 V2000
   -3.5451    0.0245  -24.6777 C   0  0  0  0  0  0  0  0  0  0  0  0
   -4.9361    0.0624  -25.2353 C   0  0  0  0  0  0  0  0  0  0  0  0
   -5.5714   -1.3096  -25.3200 C   0  0  0  0  0  0  0  0  0  0  0  0
   -7.0205   -1.0545  -25.3174 N   0  0  0  0  0  0  0  0  0  0  0  0
   -7.1894    0.3345  -25.0311 C   0  0  0  0  0  0  0  0  0  0  0  0
   -8.1980    1.0005  -25.3269 O   0  0  0  0  0  0  0  0  0  0  0  0
   -5.9314    0.7606  -24.3316 C   0  0  0  0  0  0  0  0  0  0  0  0
   -6.0192    0.1357  -22.9686 C   0  0  0  0  0  0  0  0  0  0  0  0
   -5.0215    0.6114  -22.0366 N   0  0  0  0  0  0  0  0  0  0  0  0
   -4.8571    2.0325  -21.9413 C   0  0  0  0  0  0  0  0  0  0  0  0
   -4.3926    2.5555  -20.9015 O   0  0  0  0  0  0  0  0  0  0  0  0
   -5.2586    2.8330  -23.1155 C   0  0  0  0  0  0  0  0  0  0  0  0
   -5.1192    4.2227  -23.0755 C   0  0  0  0  0  0  0  0  0  0  0  0
   -5.4844    5.0091  -24.1565 C   0  0  0  0  0  0  0  0  0  0  0  0
   -5.9976    4.3901  -25.2958 C   0  0  0  0  0  0  0  0  0  0  0  0
   -6.3678    5.1447  -26.3824 F   0  0  0  0  0  0  0  0  0  0  0  0
   -6.1385    3.0100  -25.3419 C   0  0  0  0  0  0  0  0  0  0  0  0
   -5.7722    2.2083  -24.2549 C   0  0  0  0  0  0  0  0  0  0  0  0
   -7.9947   -2.0444  -25.5601 C   0  0  0  0  0  0  0  0  0  0  0  0
   -7.9980   -2.8266  -26.7191 C   0  0  0  0  0  0  0  0  0  0  0  0
   -8.9324   -3.7684  -26.9406 N   0  0  0  0  0  0  0  0  0  0  0  0
   -9.9084   -3.9777  -26.0201 C   0  0  0  0  0  0  0  0  0  0  0  0
   -9.9680   -3.2389  -24.8462 C   0  0  0  0  0  0  0  0  0  0  0  0
  -10.9723   -3.4601  -23.9079 C   0  0  0  0  0  0  0  0  0  0  0  0
  -10.9895   -2.6927  -22.7448 C   0  0  0  0  0  0  0  0  0  0  0  0
  -10.0292   -1.7163  -22.5048 C   0  0  0  0  0  0  0  0  0  0  0  0
   -9.0553   -1.5312  -23.4587 C   0  0  0  0  0  0  0  0  0  0  0  0
   -8.9910   -2.2649  -24.6307 C   0  0  0  0  0  0  0  0  0  0  0  0
   -4.2128   -0.2589  -21.2269 C   0  0  0  0  0  0  0  0  0  0  0  0
   -4.9353   -0.7771  -20.0410 C   0  0  0  0  0  0  0  0  0  0  0  0
   -4.9642   -0.0948  -18.8290 C   0  0  0  0  0  0  0  0  0  0  0  0
   -5.7132   -0.8667  -17.9879 N   0  0  0  0  0  0  0  0  0  0  0  0
   -6.1099   -1.9421  -18.6466 N   0  0  0  0  0  0  0  0  0  0  0  0
   -5.6500   -1.9066  -19.8896 N   0  0  0  0  0  0  0  0  0  0  0  0
   -6.6648   -2.6628  -18.2698 H   0  0  0  0  0  0  0  0  0  0  0  0
  2  1  1  0  0  0
  2  3  1  0  0  0
  3  4  1  0  0  0
  4 19  1  0  0  0
  4  5  1  0  0  0
 19 20  2  0  0  0
 20 21  1  0  0  0
 21 22  2  0  0  0
 22 23  1  0  0  0
 23 24  2  0  0  0
 24 25  1  0  0  0
 25 26  2  0  0  0
 26 27  1  0  0  0
 27 28  2  0  0  0
 28 19  1  0  0  0
 28 23  1  0  0  0
  5  6  2  0  0  0
  7  5  1  0  0  0
  7  8  1  0  0  0
  7  2  1  0  0  0
  8  9  1  0  0  0
  9 29  1  0  0  0
  9 10  1  0  0  0
 29 30  1  0  0  0
 30 31  1  0  0  0
 31 32  2  0  0  0
 32 33  1  0  0  0
 33 34  1  0  0  0
 33 35  1  0  0  0
 34 30  2  0  0  0
 10 11  2  0  0  0
 10 12  1  0  0  0
 12 13  2  0  0  0
 13 14  1  0  0  0
 14 15  2  0  0  0
 15 16  1  0  0  0
 15 17  1  0  0  0
 17 18  2  0  0  0
 18 12  1  0  0  0
 18  7  1  0  0  0
M  END
> <minimizedAffinity>
-6.99774

> <CNNscore>
0.2038407475

> <CNNaffinity>
6.0165395737

> <CNN_VS>
1.2264158726

> <CNNaffinity_variance>
0.0043093078

$$$$



 37 42  0  0  0  0  0  0  0  0999 V2000
   -7.2232   -1.4017  -25.3482 C   0  0  0  0  0  0  0  0  0  0  0  0
   -7.3189   -0.2169  -24.4116 C   0  0  0  0  0  0  0  0  0  0  0  0
   -8.5169    0.5919  -24.8649 C   0  0  0  0  0  0  0  0  0  0  0  0
   -9.4144    0.6385  -23.7169 N   0  0  0  0  0  0  0  0  0  0  0  0
   -8.6183    0.3547  -22.5794 C   0  0  0  0  0  0  0  0  0  0  0  0
   -8.7773    0.8148  -21.3979 O   0  0  0  0  0  0  0  0  0  0  0  0
   -7.5228   -0.6005  -22.9849 C   0  0  0  0  0  0  0  0  0  0  0  0
   -8.1157   -1.9674  -22.8569 C   0  0  0  0  0  0  0  0  0  0  0  0
   -7.1675   -3.0022  -22.4896 N   0  0  0  0  0  0  0  0  0  0  0  0
   -6.0517   -2.7580  -21.6372 C   0  0  0  0  0  0  0  0  0  0  0  0
   -5.4514   -3.7121  -21.0806 O   0  0  0  0  0  0  0  0  0  0  0  0
   -5.6632   -1.3590  -21.4593 C   0  0  0  0  0  0  0  0  0  0  0  0
   -4.5852   -1.0991  -20.6381 C   0  0  0  0  0  0  0  0  0  0  0  0
   -4.1998    0.2248  -20.4558 C   0  0  0  0  0  0  0  0  0  0  0  0
   -4.8986    1.2436  -21.0956 C   0  0  0  0  0  0  0  0  0  0  0  0
   -4.5285    2.5562  -20.9243 F   0  0  0  0  0  0  0  0  0  0  0  0
   -5.9733    0.9546  -21.9115 C   0  0  0  0  0  0  0  0  0  0  0  0
   -6.3757   -0.3674  -22.1073 C   0  0  0  0  0  0  0  0  0  0  0  0
  -10.7998    0.9071  -23.6921 C   0  0  0  0  0  0  0  0  0  0  0  0
  -11.2881    2.1752  -24.0140 C   0  0  0  0  0  0  0  0  0  0  0  0
  -12.6256    2.4289  -23.9886 N   0  0  0  0  0  0  0  0  0  0  0  0
  -13.4903    1.4462  -23.6491 C   0  0  0  0  0  0  0  0  0  0  0  0
  -13.0625    0.1746  -23.3219 C   0  0  0  0  0  0  0  0  0  0  0  0
  -13.9895   -0.8088  -22.9777 C   0  0  0  0  0  0  0  0  0  0  0  0
  -13.5219   -2.0834  -22.6525 C   0  0  0  0  0  0  0  0  0  0  0  0
  -12.1718   -2.3658  -22.6707 C   0  0  0  0  0  0  0  0  0  0  0  0
  -11.2925   -1.3584  -23.0181 C   0  0  0  0  0  0  0  0  0  0  0  0
  -11.7089   -0.0834  -23.3472 C   0  0  0  0  0  0  0  0  0  0  0  0
   -7.3298   -4.3737  -22.9972 C   0  0  0  0  0  0  0  0  0  0  0  0
   -8.1617   -4.3652  -24.2423 C   0  0  0  0  0  0  0  0  0  0  0  0
   -7.5536   -4.6653  -25.4672 C   0  0  0  0  0  0  0  0  0  0  0  0
   -8.3061   -4.6621  -26.6271 C   0  0  0  0  0  0  0  0  0  0  0  0
   -7.7543   -4.9333  -27.7290 O   0  0  0  0  0  0  0  0  0  0  0  0
   -9.6304   -4.3640  -26.5419 N   0  0  0  0  0  0  0  0  0  0  0  0
  -10.2183   -4.0744  -25.3617 C   0  0  0  0  0  0  0  0  0  0  0  0
   -9.4766   -4.0790  -24.2292 N   0  0  0  0  0  0  0  0  0  0  0  0
  -10.1745   -4.3594  -27.3624 H   0  0  0  0  0  0  0  0  0  0  0  0
  2  1  1  0  0  0
  2  3  1  0  0  0
  3  4  1  0  0  0
  4 19  1  0  0  0
  4  5  1  0  0  0
 19 20  2  0  0  0
 20 21  1  0  0  0
 21 22  2  0  0  0
 22 23  1  0  0  0
 23 24  2  0  0  0
 24 25  1  0  0  0
 25 26  2  0  0  0
 26 27  1  0  0  0
 27 28  2  0  0  0
 28 19  1  0  0  0
 28 23  1  0  0  0
  5  6  2  0  0  0
  7  5  1  0  0  0
  7  8  1  0  0  0
  7  2  1  0  0  0
  8  9  1  0  0  0
  9 29  1  0  0  0
  9 10  1  0  0  0
 29 30  1  0  0  0
 30 31  2  0  0  0
 31 32  1  0  0  0
 32 33  2  0  0  0
 32 34  1  0  0  0
 34 35  1  0  0  0
 34 37  1  0  0  0
 35 36  2  0  0  0
 36 30  1  0  0  0
 10 11  2  0  0  0
 10 12  1  0  0  0
 12 13  2  0  0  0
 13 14  1  0  0  0
 14 15  2  0  0  0
 15 16  1  0  0  0
 15 17  1  0  0  0
 17 18  2  0  0  0
 18 12  1  0  0  0
 18  7  1  0  0  0
M  END
> <minimizedAffinity>
-9.10312

> <CNNscore>
0.4850310087

> <CNNaffinity>
6.5420179367

> <CNN_VS>
3.1730816364

> <CNNaffinity_variance>
0.0661370009

$$$$



 37 42  0  0  0  0  0  0  0  0999 V2000
   -8.2411    1.5686  -26.0959 C   0  0  0  0  0  0  0  0  0  0  0  0
   -9.0204    0.7934  -25.0558 C   0  0  0  0  0  0  0  0  0  0  0  0
   -8.1020   -0.3065  -24.5642 C   0  0  0  0  0  0  0  0  0  0  0  0
   -7.9640   -0.0886  -23.1292 N   0  0  0  0  0  0  0  0  0  0  0  0
   -9.0718    0.7048  -22.7402 C   0  0  0  0  0  0  0  0  0  0  0  0
   -9.6809    0.6736  -21.6172 O   0  0  0  0  0  0  0  0  0  0  0  0
   -9.4347    1.6188  -23.8848 C   0  0  0  0  0  0  0  0  0  0  0  0
   -8.5683    2.8268  -23.7226 C   0  0  0  0  0  0  0  0  0  0  0  0
   -9.1684    4.0638  -24.1855 N   0  0  0  0  0  0  0  0  0  0  0  0
  -10.5673    4.3220  -24.0982 C   0  0  0  0  0  0  0  0  0  0  0  0
  -11.0084    5.4952  -24.1951 O   0  0  0  0  0  0  0  0  0  0  0  0
  -11.4315    3.1595  -23.8938 C   0  0  0  0  0  0  0  0  0  0  0  0
  -12.7899    3.3858  -23.8064 C   0  0  0  0  0  0  0  0  0  0  0  0
  -13.6288    2.2937  -23.6121 C   0  0  0  0  0  0  0  0  0  0  0  0
  -13.0889    1.0154  -23.5116 C   0  0  0  0  0  0  0  0  0  0  0  0
  -13.9064   -0.0728  -23.3196 F   0  0  0  0  0  0  0  0  0  0  0  0
  -11.7261    0.8182  -23.6027 C   0  0  0  0  0  0  0  0  0  0  0  0
  -10.8676    1.9011  -23.7976 C   0  0  0  0  0  0  0  0  0  0  0  0
   -6.9522   -0.5521  -22.2610 C   0  0  0  0  0  0  0  0  0  0  0  0
   -6.9118   -1.8890  -21.8594 C   0  0  0  0  0  0  0  0  0  0  0  0
   -5.9336   -2.3309  -21.0219 N   0  0  0  0  0  0  0  0  0  0  0  0
   -4.9920   -1.4698  -20.5738 C   0  0  0  0  0  0  0  0  0  0  0  0
   -4.9841   -0.1380  -20.9388 C   0  0  0  0  0  0  0  0  0  0  0  0
   -3.9937    0.7151  -20.4527 C   0  0  0  0  0  0  0  0  0  0  0  0
   -4.0161    2.0555  -20.8422 C   0  0  0  0  0  0  0  0  0  0  0  0
   -4.9965    2.5279  -21.6898 C   0  0  0  0  0  0  0  0  0  0  0  0
   -5.9561    1.6442  -22.1447 C   0  0  0  0  0  0  0  0  0  0  0  0
   -5.9738    0.3105  -21.7865 C   0  0  0  0  0  0  0  0  0  0  0  0
   -8.3321    5.1210  -24.7756 C   0  0  0  0  0  0  0  0  0  0  0  0
   -7.2489    5.5128  -23.8186 C   0  0  0  0  0  0  0  0  0  0  0  0
   -5.9125    5.3780  -24.2138 C   0  0  0  0  0  0  0  0  0  0  0  0
   -4.8993    5.7347  -23.3433 C   0  0  0  0  0  0  0  0  0  0  0  0
   -3.6961    5.6118  -23.7033 O   0  0  0  0  0  0  0  0  0  0  0  0
   -5.2355    6.2116  -22.1148 N   0  0  0  0  0  0  0  0  0  0  0  0
   -6.5236    6.3421  -21.7323 C   0  0  0  0  0  0  0  0  0  0  0  0
   -7.5116    5.9913  -22.5887 N   0  0  0  0  0  0  0  0  0  0  0  0
   -4.5209    6.4684  -21.4881 H   0  0  0  0  0  0  0  0  0  0  0  0
  2  1  1  0  0  0
  2  3  1  0  0  0
  3  4  1  0  0  0
  4 19  1  0  0  0
  4  5  1  0  0  0
 19 20  2  0  0  0
 20 21  1  0  0  0
 21 22  2  0  0  0
 22 23  1  0  0  0
 23 24  2  0  0  0
 24 25  1  0  0  0
 25 26  2  0  0  0
 26 27  1  0  0  0
 27 28  2  0  0  0
 28 19  1  0  0  0
 28 23  1  0  0  0
  5  6  2  0  0  0
  7  5  1  0  0  0
  7  8  1  0  0  0
  7  2  1  0  0  0
  8  9  1  0  0  0
  9 29  1  0  0  0
  9 10  1  0  0  0
 29 30  1  0  0  0
 30 31  2  0  0  0
 31 32  1  0  0  0
 32 33  2  0  0  0
 32 34  1  0  0  0
 34 35  1  0  0  0
 34 37  1  0  0  0
 35 36  2  0  0  0
 36 30  1  0  0  0
 10 11  2  0  0  0
 10 12  1  0  0  0
 12 13  2  0  0  0
 13 14  1  0  0  0
 14 15  2  0  0  0
 15 16  1  0  0  0
 15 17  1  0  0  0
 17 18  2  0  0  0
 18 12  1  0  0  0
 18  7  1  0  0  0
M  END
> <minimizedAffinity>
-8.40318

> <CNNscore>
0.2957580984

> <CNNaffinity>
6.1456542015

> <CNN_VS>
1.8176269531

> <CNNaffinity_variance>
0.2938759625

$$$$



 37 42  0  0  0  0  0  0  0  0999 V2000
   -7.2675    2.9628  -22.3541 C   0  0  0  0  0  0  0  0  0  0  0  0
   -6.9904    1.9972  -23.4858 C   0  0  0  0  0  0  0  0  0  0  0  0
   -7.3641    0.6206  -22.9757 C   0  0  0  0  0  0  0  0  0  0  0  0
   -8.3933    0.1323  -23.8857 N   0  0  0  0  0  0  0  0  0  0  0  0
   -8.2615    0.8895  -25.0763 C   0  0  0  0  0  0  0  0  0  0  0  0
   -8.4969    0.4922  -26.2678 O   0  0  0  0  0  0  0  0  0  0  0  0
   -7.7877    2.2759  -24.7150 C   0  0  0  0  0  0  0  0  0  0  0  0
   -9.0266    3.0551  -24.4083 C   0  0  0  0  0  0  0  0  0  0  0  0
   -8.9450    4.4667  -24.7332 N   0  0  0  0  0  0  0  0  0  0  0  0
   -8.1921    4.9614  -25.8375 C   0  0  0  0  0  0  0  0  0  0  0  0
   -8.3985    6.1176  -26.2856 O   0  0  0  0  0  0  0  0  0  0  0  0
   -7.1894    4.0560  -26.3985 C   0  0  0  0  0  0  0  0  0  0  0  0
   -6.4483    4.5141  -27.4685 C   0  0  0  0  0  0  0  0  0  0  0  0
   -5.4897    3.6684  -28.0165 C   0  0  0  0  0  0  0  0  0  0  0  0
   -5.3010    2.3977  -27.4824 C   0  0  0  0  0  0  0  0  0  0  0  0
   -4.3572    1.5517  -28.0141 F   0  0  0  0  0  0  0  0  0  0  0  0
   -6.0567    1.9655  -26.4117 C   0  0  0  0  0  0  0  0  0  0  0  0
   -7.0235    2.7990  -25.8477 C   0  0  0  0  0  0  0  0  0  0  0  0
   -9.3487   -0.8841  -23.6711 C   0  0  0  0  0  0  0  0  0  0  0  0
   -8.9607   -2.2226  -23.5807 C   0  0  0  0  0  0  0  0  0  0  0  0
   -9.8865   -3.1991  -23.3736 N   0  0  0  0  0  0  0  0  0  0  0  0
  -11.1934   -2.8727  -23.2541 C   0  0  0  0  0  0  0  0  0  0  0  0
  -11.6325   -1.5659  -23.3353 C   0  0  0  0  0  0  0  0  0  0  0  0
  -12.9902   -1.2745  -23.2064 C   0  0  0  0  0  0  0  0  0  0  0  0
  -13.3990    0.0575  -23.2937 C   0  0  0  0  0  0  0  0  0  0  0  0
  -12.4807    1.0653  -23.5032 C   0  0  0  0  0  0  0  0  0  0  0  0
  -11.1468    0.7266  -23.6246 C   0  0  0  0  0  0  0  0  0  0  0  0
  -10.6963   -0.5765  -23.5450 C   0  0  0  0  0  0  0  0  0  0  0  0
   -9.6550    5.4608  -23.9130 C   0  0  0  0  0  0  0  0  0  0  0  0
  -11.1343    5.2562  -24.0245 C   0  0  0  0  0  0  0  0  0  0  0  0
  -11.7569    5.4621  -25.2616 C   0  0  0  0  0  0  0  0  0  0  0  0
  -13.1218    5.2779  -25.3831 C   0  0  0  0  0  0  0  0  0  0  0  0
  -13.6790    5.4645  -26.4998 O   0  0  0  0  0  0  0  0  0  0  0  0
  -13.8268    4.8977  -24.2839 N   0  0  0  0  0  0  0  0  0  0  0  0
  -13.2281    4.6988  -23.0905 C   0  0  0  0  0  0  0  0  0  0  0  0
  -11.8913    4.8805  -22.9773 N   0  0  0  0  0  0  0  0  0  0  0  0
  -14.7992    4.7640  -24.3607 H   0  0  0  0  0  0  0  0  0  0  0  0
  2  1  1  0  0  0
  2  3  1  0  0  0
  3  4  1  0  0  0
  4 19  1  0  0  0
  4  5  1  0  0  0
 19 20  2  0  0  0
 20 21  1  0  0  0
 21 22  2  0  0  0
 22 23  1  0  0  0
 23 24  2  0  0  0
 24 25  1  0  0  0
 25 26  2  0  0  0
 26 27  1  0  0  0
 27 28  2  0  0  0
 28 19  1  0  0  0
 28 23  1  0  0  0
  5  6  2  0  0  0
  7  5  1  0  0  0
  7  8  1  0  0  0
  7  2  1  0  0  0
  8  9  1  0  0  0
  9 29  1  0  0  0
  9 10  1  0  0  0
 29 30  1  0  0  0
 30 31  2  0  0  0
 31 32  1  0  0  0
 32 33  2  0  0  0
 32 34  1  0  0  0
 34 35  1  0  0  0
 34 37  1  0  0  0
 35 36  2  0  0  0
 36 30  1  0  0  0
 10 11  2  0  0  0
 10 12  1  0  0  0
 12 13  2  0  0  0
 13 14  1  0  0  0
 14 15  2  0  0  0
 15 16  1  0  0  0
 15 17  1  0  0  0
 17 18  2  0  0  0
 18 12  1  0  0  0
 18  7  1  0  0  0
M  END
> <minimizedAffinity>
-7.26032

> <CNNscore>
0.2295016050

> <CNNaffinity>
5.9229536057

> <CNN_VS>
1.3593273163

> <CNNaffinity_variance>
0.2977930307

$$$$



 37 42  0  0  0  0  0  0  0  0999 V2000
   -3.9742   -0.9668  -25.2778 C   0  0  0  0  0  0  0  0  0  0  0  0
   -5.3885   -0.9678  -25.8162 C   0  0  0  0  0  0  0  0  0  0  0  0
   -5.6972   -2.3986  -26.2066 C   0  0  0  0  0  0  0  0  0  0  0  0
   -6.8592   -2.7787  -25.4123 N   0  0  0  0  0  0  0  0  0  0  0  0
   -7.4759   -1.5688  -25.0075 C   0  0  0  0  0  0  0  0  0  0  0  0
   -8.7245   -1.3684  -24.8239 O   0  0  0  0  0  0  0  0  0  0  0  0
   -6.4051   -0.5222  -24.8201 C   0  0  0  0  0  0  0  0  0  0  0  0
   -5.9192   -0.6933  -23.4163 C   0  0  0  0  0  0  0  0  0  0  0  0
   -5.4745    0.5324  -22.7802 N   0  0  0  0  0  0  0  0  0  0  0  0
   -6.0653    1.8004  -23.0522 C   0  0  0  0  0  0  0  0  0  0  0  0
   -5.8934    2.7676  -22.2677 O   0  0  0  0  0  0  0  0  0  0  0  0
   -6.8638    1.8970  -24.2741 C   0  0  0  0  0  0  0  0  0  0  0  0
   -7.4455    3.1158  -24.5577 C   0  0  0  0  0  0  0  0  0  0  0  0
   -8.2088    3.2284  -25.7148 C   0  0  0  0  0  0  0  0  0  0  0  0
   -8.3673    2.1266  -26.5494 C   0  0  0  0  0  0  0  0  0  0  0  0
   -9.1189    2.2239  -27.6961 F   0  0  0  0  0  0  0  0  0  0  0  0
   -7.7741    0.9194  -26.2411 C   0  0  0  0  0  0  0  0  0  0  0  0
   -7.0043    0.7861  -25.0846 C   0  0  0  0  0  0  0  0  0  0  0  0
   -7.3178   -4.0730  -25.0856 C   0  0  0  0  0  0  0  0  0  0  0  0
   -6.8571   -4.7270  -23.9409 C   0  0  0  0  0  0  0  0  0  0  0  0
   -7.3028   -5.9754  -23.6304 N   0  0  0  0  0  0  0  0  0  0  0  0
   -8.1991   -6.5894  -24.4356 C   0  0  0  0  0  0  0  0  0  0  0  0
   -8.6879   -5.9893  -25.5793 C   0  0  0  0  0  0  0  0  0  0  0  0
   -9.6116   -6.6593  -26.3811 C   0  0  0  0  0  0  0  0  0  0  0  0
  -10.0847   -6.0229  -27.5301 C   0  0  0  0  0  0  0  0  0  0  0  0
   -9.6488   -4.7582  -27.8667 C   0  0  0  0  0  0  0  0  0  0  0  0
   -8.7330   -4.1353  -27.0408 C   0  0  0  0  0  0  0  0  0  0  0  0
   -8.2375   -4.7256  -25.8948 C   0  0  0  0  0  0  0  0  0  0  0  0
   -4.3705    0.5074  -21.8078 C   0  0  0  0  0  0  0  0  0  0  0  0
   -4.7880   -0.2348  -20.5760 C   0  0  0  0  0  0  0  0  0  0  0  0
   -4.9856    0.4787  -19.3876 C   0  0  0  0  0  0  0  0  0  0  0  0
   -5.3711   -0.1901  -18.2406 C   0  0  0  0  0  0  0  0  0  0  0  0
   -5.5482    0.4567  -17.1716 O   0  0  0  0  0  0  0  0  0  0  0  0
   -5.5489   -1.5371  -18.3021 N   0  0  0  0  0  0  0  0  0  0  0  0
   -5.3587   -2.2265  -19.4470 C   0  0  0  0  0  0  0  0  0  0  0  0
   -4.9813   -1.5665  -20.5672 N   0  0  0  0  0  0  0  0  0  0  0  0
   -5.8235   -2.0220  -17.4904 H   0  0  0  0  0  0  0  0  0  0  0  0
  2  1  1  0  0  0
  2  3  1  0  0  0
  3  4  1  0  0  0
  4 19  1  0  0  0
  4  5  1  0  0  0
 19 20  2  0  0  0
 20 21  1  0  0  0
 21 22  2  0  0  0
 22 23  1  0  0  0
 23 24  2  0  0  0
 24 25  1  0  0  0
 25 26  2  0  0  0
 26 27  1  0  0  0
 27 28  2  0  0  0
 28 19  1  0  0  0
 28 23  1  0  0  0
  5  6  2  0  0  0
  7  5  1  0  0  0
  7  8  1  0  0  0
  7  2  1  0  0  0
  8  9  1  0  0  0
  9 29  1  0  0  0
  9 10  1  0  0  0
 29 30  1  0  0  0
 30 31  2  0  0  0
 31 32  1  0  0  0
 32 33  2  0  0  0
 32 34  1  0  0  0
 34 35  1  0  0  0
 34 37  1  0  0  0
 35 36  2  0  0  0
 36 30  1  0  0  0
 10 11  2  0  0  0
 10 12  1  0  0  0
 12 13  2  0  0  0
 13 14  1  0  0  0
 14 15  2  0  0  0
 15 16  1  0  0  0
 15 17  1  0  0  0
 17 18  2  0  0  0
 18 12  1  0  0  0
 18  7  1  0  0  0
M  END
> <minimizedAffinity>
-7.91560

> <CNNscore>
0.2148782909

> <CNNaffinity>
6.1778903008

> <CNN_VS>
1.3274945021

> <CNNaffinity_variance>
0.0101024304

$$$$



 37 42  0  0  0  0  0  0  0  0999 V2000
  -10.1235   -2.3245  -22.8398 C   0  0  0  0  0  0  0  0  0  0  0  0
   -9.1893   -1.1790  -23.1640 C   0  0  0  0  0  0  0  0  0  0  0  0
   -8.8345   -0.5284  -21.8428 C   0  0  0  0  0  0  0  0  0  0  0  0
   -7.3832   -0.6208  -21.7384 N   0  0  0  0  0  0  0  0  0  0  0  0
   -6.9025   -0.8162  -23.0571 C   0  0  0  0  0  0  0  0  0  0  0  0
   -5.7937   -0.4015  -23.5384 O   0  0  0  0  0  0  0  0  0  0  0  0
   -7.9265   -1.6107  -23.8298 C   0  0  0  0  0  0  0  0  0  0  0  0
   -7.6140   -3.0460  -23.5500 C   0  0  0  0  0  0  0  0  0  0  0  0
   -7.9224   -3.9523  -24.6401 N   0  0  0  0  0  0  0  0  0  0  0  0
   -7.8079   -3.5772  -26.0103 C   0  0  0  0  0  0  0  0  0  0  0  0
   -7.7605   -4.4527  -26.9112 O   0  0  0  0  0  0  0  0  0  0  0  0
   -7.7511   -2.1423  -26.2890 C   0  0  0  0  0  0  0  0  0  0  0  0
   -7.6403   -1.7559  -27.6091 C   0  0  0  0  0  0  0  0  0  0  0  0
   -7.5847   -0.3960  -27.8953 C   0  0  0  0  0  0  0  0  0  0  0  0
   -7.6413    0.5320  -26.8603 C   0  0  0  0  0  0  0  0  0  0  0  0
   -7.5874    1.8790  -27.1289 F   0  0  0  0  0  0  0  0  0  0  0  0
   -7.7520    0.1173  -25.5489 C   0  0  0  0  0  0  0  0  0  0  0  0
   -7.8093   -1.2428  -25.2410 C   0  0  0  0  0  0  0  0  0  0  0  0
   -6.5760   -0.5386  -20.5835 C   0  0  0  0  0  0  0  0  0  0  0  0
   -6.7916   -1.3906  -19.4983 C   0  0  0  0  0  0  0  0  0  0  0  0
   -6.0100   -1.3070  -18.3867 N   0  0  0  0  0  0  0  0  0  0  0  0
   -5.0158   -0.3921  -18.3306 C   0  0  0  0  0  0  0  0  0  0  0  0
   -4.7584    0.4749  -19.3742 C   0  0  0  0  0  0  0  0  0  0  0  0
   -3.7225    1.4032  -19.2737 C   0  0  0  0  0  0  0  0  0  0  0  0
   -3.4903    2.2644  -20.3477 C   0  0  0  0  0  0  0  0  0  0  0  0
   -4.2682    2.1999  -21.4850 C   0  0  0  0  0  0  0  0  0  0  0  0
   -5.2826    1.2634  -21.5373 C   0  0  0  0  0  0  0  0  0  0  0  0
   -5.5490    0.3914  -20.5000 C   0  0  0  0  0  0  0  0  0  0  0  0
   -8.3750   -5.3243  -24.3612 C   0  0  0  0  0  0  0  0  0  0  0  0
   -7.2267   -6.1557  -23.8791 C   0  0  0  0  0  0  0  0  0  0  0  0
   -7.0117   -6.2827  -22.5014 C   0  0  0  0  0  0  0  0  0  0  0  0
   -5.9562   -7.0463  -22.0382 C   0  0  0  0  0  0  0  0  0  0  0  0
   -5.7659   -7.1582  -20.7958 O   0  0  0  0  0  0  0  0  0  0  0  0
   -5.1492   -7.6584  -22.9457 N   0  0  0  0  0  0  0  0  0  0  0  0
   -5.3551   -7.5370  -24.2743 C   0  0  0  0  0  0  0  0  0  0  0  0
   -6.3901   -6.7881  -24.7223 N   0  0  0  0  0  0  0  0  0  0  0  0
   -4.3951   -8.2044  -22.6254 H   0  0  0  0  0  0  0  0  0  0  0  0
  2  1  1  0  0  0
  2  3  1  0  0  0
  3  4  1  0  0  0
  4 19  1  0  0  0
  4  5  1  0  0  0
 19 20  2  0  0  0
 20 21  1  0  0  0
 21 22  2  0  0  0
 22 23  1  0  0  0
 23 24  2  0  0  0
 24 25  1  0  0  0
 25 26  2  0  0  0
 26 27  1  0  0  0
 27 28  2  0  0  0
 28 19  1  0  0  0
 28 23  1  0  0  0
  5  6  2  0  0  0
  7  5  1  0  0  0
  7  8  1  0  0  0
  7  2  1  0  0  0
  8  9  1  0  0  0
  9 29  1  0  0  0
  9 10  1  0  0  0
 29 30  1  0  0  0
 30 31  2  0  0  0
 31 32  1  0  0  0
 32 33  2  0  0  0
 32 34  1  0  0  0
 34 35  1  0  0  0
 34 37  1  0  0  0
 35 36  2  0  0  0
 36 30  1  0  0  0
 10 11  2  0  0  0
 10 12  1  0  0  0
 12 13  2  0  0  0
 13 14  1  0  0  0
 14 15  2  0  0  0
 15 16  1  0  0  0
 15 17  1  0  0  0
 17 18  2  0  0  0
 18 12  1  0  0  0
 18  7  1  0  0  0
M  END
> <minimizedAffinity>
-9.10879

> <CNNscore>
0.2090672702

> <CNNaffinity>
6.3212413788

> <CNN_VS>
1.3215646744

> <CNNaffinity_variance>
0.3528853059

$$$$



 37 42  0  0  0  0  0  0  0  0999 V2000
   -4.6231   -0.7907  -25.6035 C   0  0  0  0  0  0  0  0  0  0  0  0
   -6.0815   -0.6330  -25.9755 C   0  0  0  0  0  0  0  0  0  0  0  0
   -6.5138   -1.9519  -26.5824 C   0  0  0  0  0  0  0  0  0  0  0  0
   -7.6117   -2.4253  -25.7481 N   0  0  0  0  0  0  0  0  0  0  0  0
   -8.1104   -1.2876  -25.0660 C   0  0  0  0  0  0  0  0  0  0  0  0
   -9.3201   -1.0736  -24.7140 O   0  0  0  0  0  0  0  0  0  0  0  0
   -6.9648   -0.3393  -24.8103 C   0  0  0  0  0  0  0  0  0  0  0  0
   -6.3526   -0.7890  -23.5223 C   0  0  0  0  0  0  0  0  0  0  0  0
   -5.7732    0.2772  -22.7272 N   0  0  0  0  0  0  0  0  0  0  0  0
   -6.3102    1.5970  -22.6990 C   0  0  0  0  0  0  0  0  0  0  0  0
   -6.0026    2.3930  -21.7759 O   0  0  0  0  0  0  0  0  0  0  0  0
   -7.2192    1.9525  -23.7886 C   0  0  0  0  0  0  0  0  0  0  0  0
   -7.7512    3.2257  -23.7816 C   0  0  0  0  0  0  0  0  0  0  0  0
   -8.6179    3.5834  -24.8089 C   0  0  0  0  0  0  0  0  0  0  0  0
   -8.9254    2.6640  -25.8068 C   0  0  0  0  0  0  0  0  0  0  0  0
   -9.7803    3.0043  -26.8279 F   0  0  0  0  0  0  0  0  0  0  0  0
   -8.3787    1.3971  -25.7888 C   0  0  0  0  0  0  0  0  0  0  0  0
   -7.5069    1.0189  -24.7666 C   0  0  0  0  0  0  0  0  0  0  0  0
   -8.1131   -3.7377  -25.6129 C   0  0  0  0  0  0  0  0  0  0  0  0
   -9.1021   -4.2175  -26.4742 C   0  0  0  0  0  0  0  0  0  0  0  0
   -9.5822   -5.4845  -26.3394 N   0  0  0  0  0  0  0  0  0  0  0  0
   -9.0986   -6.2869  -25.3642 C   0  0  0  0  0  0  0  0  0  0  0  0
   -8.1208   -5.8641  -24.4853 C   0  0  0  0  0  0  0  0  0  0  0  0
   -7.6510   -6.7253  -23.4941 C   0  0  0  0  0  0  0  0  0  0  0  0
   -6.6621   -6.2650  -22.6228 C   0  0  0  0  0  0  0  0  0  0  0  0
   -6.1593   -4.9857  -22.7383 C   0  0  0  0  0  0  0  0  0  0  0  0
   -6.6567   -4.1699  -23.7363 C   0  0  0  0  0  0  0  0  0  0  0  0
   -7.6342   -4.5819  -24.6207 C   0  0  0  0  0  0  0  0  0  0  0  0
   -4.5813    0.0259  -21.9018 C   0  0  0  0  0  0  0  0  0  0  0  0
   -4.9677   -0.6975  -20.6488 C   0  0  0  0  0  0  0  0  0  0  0  0
   -4.9483   -2.0974  -20.6396 C   0  0  0  0  0  0  0  0  0  0  0  0
   -5.3021   -2.7819  -19.4916 C   0  0  0  0  0  0  0  0  0  0  0  0
   -5.2832   -4.0437  -19.4874 O   0  0  0  0  0  0  0  0  0  0  0  0
   -5.6625   -2.0660  -18.3928 N   0  0  0  0  0  0  0  0  0  0  0  0
   -5.6818   -0.7162  -18.4001 C   0  0  0  0  0  0  0  0  0  0  0  0
   -5.3344   -0.0511  -19.5269 N   0  0  0  0  0  0  0  0  0  0  0  0
   -5.9160   -2.5447  -17.5706 H   0  0  0  0  0  0  0  0  0  0  0  0
  2  1  1  0  0  0
  2  3  1  0  0  0
  3  4  1  0  0  0
  4 19  1  0  0  0
  4  5  1  0  0  0
 19 20  2  0  0  0
 20 21  1  0  0  0
 21 22  2  0  0  0
 22 23  1  0  0  0
 23 24  2  0  0  0
 24 25  1  0  0  0
 25 26  2  0  0  0
 26 27  1  0  0  0
 27 28  2  0  0  0
 28 19  1  0  0  0
 28 23  1  0  0  0
  5  6  2  0  0  0
  7  5  1  0  0  0
  7  8  1  0  0  0
  7  2  1  0  0  0
  8  9  1  0  0  0
  9 29  1  0  0  0
  9 10  1  0  0  0
 29 30  1  0  0  0
 30 31  2  0  0  0
 31 32  1  0  0  0
 32 33  2  0  0  0
 32 34  1  0  0  0
 34 35  1  0  0  0
 34 37  1  0  0  0
 35 36  2  0  0  0
 36 30  1  0  0  0
 10 11  2  0  0  0
 10 12  1  0  0  0
 12 13  2  0  0  0
 13 14  1  0  0  0
 14 15  2  0  0  0
 15 16  1  0  0  0
 15 17  1  0  0  0
 17 18  2  0  0  0
 18 12  1  0  0  0
 18  7  1  0  0  0
M  END
> <minimizedAffinity>
-8.32638

> <CNNscore>
0.1718756855

> <CNNaffinity>
6.0326809883

> <CNN_VS>
1.0368711948

> <CNNaffinity_variance>
0.1440228522

$$$$



 37 42  0  0  0  0  0  0  0  0999 V2000
   -4.3034   -0.5682  -23.4795 C   0  0  0  0  0  0  0  0  0  0  0  0
   -5.4511   -0.5243  -24.4648 C   0  0  0  0  0  0  0  0  0  0  0  0
   -4.9594   -1.2044  -25.7260 C   0  0  0  0  0  0  0  0  0  0  0  0
   -5.8704   -2.3208  -25.9490 N   0  0  0  0  0  0  0  0  0  0  0  0
   -7.0502   -2.0207  -25.2237 C   0  0  0  0  0  0  0  0  0  0  0  0
   -8.2461   -2.3444  -25.5369 O   0  0  0  0  0  0  0  0  0  0  0  0
   -6.6711   -1.2387  -23.9901 C   0  0  0  0  0  0  0  0  0  0  0  0
   -6.3452   -2.2635  -22.9510 C   0  0  0  0  0  0  0  0  0  0  0  0
   -6.6495   -1.8591  -21.5913 N   0  0  0  0  0  0  0  0  0  0  0  0
   -7.7508   -1.0150  -21.2662 C   0  0  0  0  0  0  0  0  0  0  0  0
   -8.1803   -0.9500  -20.0865 O   0  0  0  0  0  0  0  0  0  0  0  0
   -8.3314   -0.2498  -22.3695 C   0  0  0  0  0  0  0  0  0  0  0  0
   -9.3989    0.5745  -22.0778 C   0  0  0  0  0  0  0  0  0  0  0  0
   -9.9654    1.3106  -23.1130 C   0  0  0  0  0  0  0  0  0  0  0  0
   -9.4514    1.2021  -24.4013 C   0  0  0  0  0  0  0  0  0  0  0  0
  -10.0015    1.9238  -25.4336 F   0  0  0  0  0  0  0  0  0  0  0  0
   -8.3828    0.3697  -24.6645 C   0  0  0  0  0  0  0  0  0  0  0  0
   -7.8005   -0.3772  -23.6394 C   0  0  0  0  0  0  0  0  0  0  0  0
   -5.6652   -3.4846  -26.7208 C   0  0  0  0  0  0  0  0  0  0  0  0
   -5.5778   -3.4132  -28.1127 C   0  0  0  0  0  0  0  0  0  0  0  0
   -5.3798   -4.5390  -28.8524 N   0  0  0  0  0  0  0  0  0  0  0  0
   -5.2665   -5.7374  -28.2363 C   0  0  0  0  0  0  0  0  0  0  0  0
   -5.3451   -5.8658  -26.8636 C   0  0  0  0  0  0  0  0  0  0  0  0
   -5.2227   -7.1218  -26.2700 C   0  0  0  0  0  0  0  0  0  0  0  0
   -5.3072   -7.2149  -24.8795 C   0  0  0  0  0  0  0  0  0  0  0  0
   -5.5074   -6.0893  -24.1077 C   0  0  0  0  0  0  0  0  0  0  0  0
   -5.6226   -4.8673  -24.7419 C   0  0  0  0  0  0  0  0  0  0  0  0
   -5.5455   -4.7270  -26.1137 C   0  0  0  0  0  0  0  0  0  0  0  0
   -5.8103   -2.3184  -20.4734 C   0  0  0  0  0  0  0  0  0  0  0  0
   -5.3663   -1.1487  -19.6504 C   0  0  0  0  0  0  0  0  0  0  0  0
   -4.5931   -0.1490  -20.2529 C   0  0  0  0  0  0  0  0  0  0  0  0
   -4.1742    0.9381  -19.5084 C   0  0  0  0  0  0  0  0  0  0  0  0
   -3.4775    1.8369  -20.0552 O   0  0  0  0  0  0  0  0  0  0  0  0
   -4.5302    1.0043  -18.1974 N   0  0  0  0  0  0  0  0  0  0  0  0
   -5.2757    0.0412  -17.6150 C   0  0  0  0  0  0  0  0  0  0  0  0
   -5.6831   -1.0210  -18.3488 N   0  0  0  0  0  0  0  0  0  0  0  0
   -4.2367    1.7746  -17.6592 H   0  0  0  0  0  0  0  0  0  0  0  0
  2  1  1  0  0  0
  2  3  1  0  0  0
  3  4  1  0  0  0
  4 19  1  0  0  0
  4  5  1  0  0  0
 19 20  2  0  0  0
 20 21  1  0  0  0
 21 22  2  0  0  0
 22 23  1  0  0  0
 23 24  2  0  0  0
 24 25  1  0  0  0
 25 26  2  0  0  0
 26 27  1  0  0  0
 27 28  2  0  0  0
 28 19  1  0  0  0
 28 23  1  0  0  0
  5  6  2  0  0  0
  7  5  1  0  0  0
  7  8  1  0  0  0
  7  2  1  0  0  0
  8  9  1  0  0  0
  9 29  1  0  0  0
  9 10  1  0  0  0
 29 30  1  0  0  0
 30 31  2  0  0  0
 31 32  1  0  0  0
 32 33  2  0  0  0
 32 34  1  0  0  0
 34 35  1  0  0  0
 34 37  1  0  0  0
 35 36  2  0  0  0
 36 30  1  0  0  0
 10 11  2  0  0  0
 10 12  1  0  0  0
 12 13  2  0  0  0
 13 14  1  0  0  0
 14 15  2  0  0  0
 15 16  1  0  0  0
 15 17  1  0  0  0
 17 18  2  0  0  0
 18 12  1  0  0  0
 18  7  1  0  0  0
M  END
> <minimizedAffinity>
-8.58261

> <CNNscore>
0.1716957688

> <CNNaffinity>
5.7979850769

> <CNN_VS>
0.9954894781

> <CNNaffinity_variance>
0.3128405809

$$$$



 37 42  0  0  0  0  0  0  0  0999 V2000
   -5.9316   -2.9895  -21.6705 C   0  0  0  0  0  0  0  0  0  0  0  0
   -7.1145   -2.0485  -21.7434 C   0  0  0  0  0  0  0  0  0  0  0  0
   -6.6494   -0.7299  -21.1603 C   0  0  0  0  0  0  0  0  0  0  0  0
   -6.8305    0.2528  -22.2221 N   0  0  0  0  0  0  0  0  0  0  0  0
   -7.7711   -0.3056  -23.1230 C   0  0  0  0  0  0  0  0  0  0  0  0
   -8.6332    0.3280  -23.8218 O   0  0  0  0  0  0  0  0  0  0  0  0
   -7.5964   -1.8044  -23.1334 C   0  0  0  0  0  0  0  0  0  0  0  0
   -6.5304   -2.0762  -24.1463 C   0  0  0  0  0  0  0  0  0  0  0  0
   -6.6713   -3.3409  -24.8431 N   0  0  0  0  0  0  0  0  0  0  0  0
   -7.9392   -3.9159  -25.1483 C   0  0  0  0  0  0  0  0  0  0  0  0
   -8.0396   -4.8177  -26.0183 O   0  0  0  0  0  0  0  0  0  0  0  0
   -9.0847   -3.3989  -24.3998 C   0  0  0  0  0  0  0  0  0  0  0  0
  -10.3225   -3.9413  -24.6788 C   0  0  0  0  0  0  0  0  0  0  0  0
  -11.4246   -3.4633  -23.9779 C   0  0  0  0  0  0  0  0  0  0  0  0
  -11.2584   -2.4637  -23.0247 C   0  0  0  0  0  0  0  0  0  0  0  0
  -12.3389   -1.9821  -22.3248 F   0  0  0  0  0  0  0  0  0  0  0  0
  -10.0085   -1.9391  -22.7660 C   0  0  0  0  0  0  0  0  0  0  0  0
   -8.8901   -2.4053  -23.4586 C   0  0  0  0  0  0  0  0  0  0  0  0
   -6.2174    1.5158  -22.3674 C   0  0  0  0  0  0  0  0  0  0  0  0
   -6.9201    2.6886  -22.0832 C   0  0  0  0  0  0  0  0  0  0  0  0
   -6.3239    3.9044  -22.2250 N   0  0  0  0  0  0  0  0  0  0  0  0
   -5.0404    3.9794  -22.6444 C   0  0  0  0  0  0  0  0  0  0  0  0
   -4.2990    2.8522  -22.9392 C   0  0  0  0  0  0  0  0  0  0  0  0
   -2.9780    2.9760  -23.3688 C   0  0  0  0  0  0  0  0  0  0  0  0
   -2.2579    1.8156  -23.6581 C   0  0  0  0  0  0  0  0  0  0  0  0
   -2.8391    0.5720  -23.5226 C   0  0  0  0  0  0  0  0  0  0  0  0
   -4.1506    0.5008  -23.0938 C   0  0  0  0  0  0  0  0  0  0  0  0
   -4.9015    1.6210  -22.7961 C   0  0  0  0  0  0  0  0  0  0  0  0
   -5.4800   -4.0919  -25.2694 C   0  0  0  0  0  0  0  0  0  0  0  0
   -5.4673   -5.4435  -24.6248 C   0  0  0  0  0  0  0  0  0  0  0  0
   -5.8750   -5.5633  -23.2907 C   0  0  0  0  0  0  0  0  0  0  0  0
   -5.8696   -6.8034  -22.6793 C   0  0  0  0  0  0  0  0  0  0  0  0
   -6.2379   -6.9071  -21.4769 O   0  0  0  0  0  0  0  0  0  0  0  0
   -5.4636   -7.8823  -23.4011 N   0  0  0  0  0  0  0  0  0  0  0  0
   -5.0702   -7.7684  -24.6874 C   0  0  0  0  0  0  0  0  0  0  0  0
   -5.0774   -6.5518  -25.2810 N   0  0  0  0  0  0  0  0  0  0  0  0
   -5.4565   -8.7695  -22.9743 H   0  0  0  0  0  0  0  0  0  0  0  0
  2  1  1  0  0  0
  2  3  1  0  0  0
  3  4  1  0  0  0
  4 19  1  0  0  0
  4  5  1  0  0  0
 19 20  2  0  0  0
 20 21  1  0  0  0
 21 22  2  0  0  0
 22 23  1  0  0  0
 23 24  2  0  0  0
 24 25  1  0  0  0
 25 26  2  0  0  0
 26 27  1  0  0  0
 27 28  2  0  0  0
 28 19  1  0  0  0
 28 23  1  0  0  0
  5  6  2  0  0  0
  7  5  1  0  0  0
  7  8  1  0  0  0
  7  2  1  0  0  0
  8  9  1  0  0  0
  9 29  1  0  0  0
  9 10  1  0  0  0
 29 30  1  0  0  0
 30 31  2  0  0  0
 31 32  1  0  0  0
 32 33  2  0  0  0
 32 34  1  0  0  0
 34 35  1  0  0  0
 34 37  1  0  0  0
 35 36  2  0  0  0
 36 30  1  0  0  0
 10 11  2  0  0  0
 10 12  1  0  0  0
 12 13  2  0  0  0
 13 14  1  0  0  0
 14 15  2  0  0  0
 15 16  1  0  0  0
 15 17  1  0  0  0
 17 18  2  0  0  0
 18 12  1  0  0  0
 18  7  1  0  0  0
M  END
> <minimizedAffinity>
-7.28628

> <CNNscore>
0.1552096754

> <CNNaffinity>
6.1725640297

> <CNN_VS>
0.9580416679

> <CNNaffinity_variance>
0.2365415096

$$$$



 37 42  0  0  0  0  0  0  0  0999 V2000
   -6.5610    3.5614  -22.5630 C   0  0  0  0  0  0  0  0  0  0  0  0
   -6.8963    2.0922  -22.4240 C   0  0  0  0  0  0  0  0  0  0  0  0
   -7.4876    1.6604  -23.7502 C   0  0  0  0  0  0  0  0  0  0  0  0
   -6.6240    0.5897  -24.2334 N   0  0  0  0  0  0  0  0  0  0  0  0
   -5.9334    0.0950  -23.0992 C   0  0  0  0  0  0  0  0  0  0  0  0
   -5.5514   -1.1078  -22.8983 O   0  0  0  0  0  0  0  0  0  0  0  0
   -5.7100    1.2353  -22.1365 C   0  0  0  0  0  0  0  0  0  0  0  0
   -4.4365    1.8853  -22.5743 C   0  0  0  0  0  0  0  0  0  0  0  0
   -3.6600    2.4720  -21.4983 N   0  0  0  0  0  0  0  0  0  0  0  0
   -3.6226    1.9201  -20.1849 C   0  0  0  0  0  0  0  0  0  0  0  0
   -2.7103    2.2415  -19.3819 O   0  0  0  0  0  0  0  0  0  0  0  0
   -4.6899    0.9796  -19.8442 C   0  0  0  0  0  0  0  0  0  0  0  0
   -4.6737    0.4328  -18.5773 C   0  0  0  0  0  0  0  0  0  0  0  0
   -5.6798   -0.4639  -18.2337 C   0  0  0  0  0  0  0  0  0  0  0  0
   -6.6665   -0.7856  -19.1603 C   0  0  0  0  0  0  0  0  0  0  0  0
   -7.6666   -1.6701  -18.8339 F   0  0  0  0  0  0  0  0  0  0  0  0
   -6.6581   -0.2235  -20.4206 C   0  0  0  0  0  0  0  0  0  0  0  0
   -5.6571    0.6783  -20.7847 C   0  0  0  0  0  0  0  0  0  0  0  0
   -6.4718    0.1076  -25.5512 C   0  0  0  0  0  0  0  0  0  0  0  0
   -7.2369   -0.9655  -26.0128 C   0  0  0  0  0  0  0  0  0  0  0  0
   -7.0860   -1.4265  -27.2850 N   0  0  0  0  0  0  0  0  0  0  0  0
   -6.1884   -0.8418  -28.1104 C   0  0  0  0  0  0  0  0  0  0  0  0
   -5.4062    0.2220  -27.7063 C   0  0  0  0  0  0  0  0  0  0  0  0
   -4.4928    0.7949  -28.5910 C   0  0  0  0  0  0  0  0  0  0  0  0
   -3.7182    1.8690  -28.1491 C   0  0  0  0  0  0  0  0  0  0  0  0
   -3.8520    2.3546  -26.8650 C   0  0  0  0  0  0  0  0  0  0  0  0
   -4.7704    1.7537  -26.0256 C   0  0  0  0  0  0  0  0  0  0  0  0
   -5.5579    0.6895  -26.4188 C   0  0  0  0  0  0  0  0  0  0  0  0
   -2.8643    3.6873  -21.7325 C   0  0  0  0  0  0  0  0  0  0  0  0
   -1.7897    3.4116  -22.7383 C   0  0  0  0  0  0  0  0  0  0  0  0
   -0.7188    2.5846  -22.3782 C   0  0  0  0  0  0  0  0  0  0  0  0
    0.2825    2.3191  -23.2940 C   0  0  0  0  0  0  0  0  0  0  0  0
    1.2459    1.5733  -22.9655 O   0  0  0  0  0  0  0  0  0  0  0  0
    0.1958    2.8760  -24.5318 N   0  0  0  0  0  0  0  0  0  0  0  0
   -0.8361    3.6735  -24.8805 C   0  0  0  0  0  0  0  0  0  0  0  0
   -1.8137    3.9301  -23.9798 N   0  0  0  0  0  0  0  0  0  0  0  0
    0.9039    2.6926  -25.1907 H   0  0  0  0  0  0  0  0  0  0  0  0
  2  1  1  0  0  0
  2  3  1  0  0  0
  3  4  1  0  0  0
  4 19  1  0  0  0
  4  5  1  0  0  0
 19 20  2  0  0  0
 20 21  1  0  0  0
 21 22  2  0  0  0
 22 23  1  0  0  0
 23 24  2  0  0  0
 24 25  1  0  0  0
 25 26  2  0  0  0
 26 27  1  0  0  0
 27 28  2  0  0  0
 28 19  1  0  0  0
 28 23  1  0  0  0
  5  6  2  0  0  0
  7  5  1  0  0  0
  7  8  1  0  0  0
  7  2  1  0  0  0
  8  9  1  0  0  0
  9 29  1  0  0  0
  9 10  1  0  0  0
 29 30  1  0  0  0
 30 31  2  0  0  0
 31 32  1  0  0  0
 32 33  2  0  0  0
 32 34  1  0  0  0
 34 35  1  0  0  0
 34 37  1  0  0  0
 35 36  2  0  0  0
 36 30  1  0  0  0
 10 11  2  0  0  0
 10 12  1  0  0  0
 12 13  2  0  0  0
 13 14  1  0  0  0
 14 15  2  0  0  0
 15 16  1  0  0  0
 15 17  1  0  0  0
 17 18  2  0  0  0
 18 12  1  0  0  0
 18  7  1  0  0  0
M  END
> <minimizedAffinity>
-6.64791

> <CNNscore>
0.1488008946

> <CNNaffinity>
5.6913151741

> <CNN_VS>
0.8468728065

> <CNNaffinity_variance>
0.0332446583

$$$$



 42 47  0  0  0  0  0  0  0  0999 V2000
  -10.6099    3.2555  -24.3373 N   0  0  0  0  0  0  0  0  0  0  0  0
   -9.4507    2.5090  -23.9396 C   0  0  0  0  0  0  0  0  0  0  0  0
   -9.5624    1.0320  -23.8699 C   0  0  0  0  0  0  0  0  0  0  0  0
   -8.8138    0.6052  -22.6279 C   0  0  0  0  0  0  0  0  0  0  0  0
   -9.1024    1.0520  -21.4784 O   0  0  0  0  0  0  0  0  0  0  0  0
   -7.7968   -0.3174  -22.9194 N   0  0  0  0  0  0  0  0  0  0  0  0
   -8.0128   -0.8043  -24.2611 C   0  0  0  0  0  0  0  0  0  0  0  0
   -8.8907    0.2548  -24.9417 C   0  0  0  0  0  0  0  0  0  0  0  0
  -10.9838    0.5941  -23.6884 C   0  0  0  0  0  0  0  0  0  0  0  0
  -11.2393   -0.7453  -23.3567 C   0  0  0  0  0  0  0  0  0  0  0  0
  -12.5309   -1.2097  -23.1785 C   0  0  0  0  0  0  0  0  0  0  0  0
  -12.8160   -2.9044  -22.7607 Cl  0  0  0  0  0  0  0  0  0  0  0  0
  -13.6176   -0.3740  -23.3203 C   0  0  0  0  0  0  0  0  0  0  0  0
  -13.3823    0.9278  -23.6421 C   0  0  0  0  0  0  0  0  0  0  0  0
  -12.0870    1.3852  -23.8187 C   0  0  0  0  0  0  0  0  0  0  0  0
  -11.9377    2.7920  -24.1594 C   0  0  0  0  0  0  0  0  0  0  0  0
  -12.9329    3.5372  -24.2847 O   0  0  0  0  0  0  0  0  0  0  0  0
   -6.7625   -0.6692  -22.0052 C   0  0  0  0  0  0  0  0  0  0  0  0
   -6.6360   -1.9462  -21.4728 C   0  0  0  0  0  0  0  0  0  0  0  0
   -5.6511   -2.2695  -20.6039 N   0  0  0  0  0  0  0  0  0  0  0  0
   -4.7209   -1.3942  -20.1854 C   0  0  0  0  0  0  0  0  0  0  0  0
   -4.8014   -0.1112  -20.6846 C   0  0  0  0  0  0  0  0  0  0  0  0
   -3.8491    0.7970  -20.2597 C   0  0  0  0  0  0  0  0  0  0  0  0
   -3.9024    2.0930  -20.7416 C   0  0  0  0  0  0  0  0  0  0  0  0
   -4.8838    2.4882  -21.6321 C   0  0  0  0  0  0  0  0  0  0  0  0
   -5.8045    1.5401  -22.0191 C   0  0  0  0  0  0  0  0  0  0  0  0
   -5.8030    0.2429  -21.5768 C   0  0  0  0  0  0  0  0  0  0  0  0
  -10.4443    4.5642  -24.9364 C   0  0  0  0  0  0  0  0  0  0  0  0
   -7.0783    6.2891  -24.6687 C   0  0  0  0  0  0  0  0  0  0  0  0
   -8.1753    5.5118  -25.2341 N   0  0  0  0  0  0  0  0  0  0  0  0
   -9.3188    5.3402  -24.4038 C   0  0  0  0  0  0  0  0  0  0  0  0
   -9.2751    5.8723  -23.2674 O   0  0  0  0  0  0  0  0  0  0  0  0
   -8.1277    5.1275  -26.1392 H   0  0  0  0  0  0  0  0  0  0  0  0
   -8.0200    0.9637  -25.9031 C   0  0  0  0  0  0  0  0  0  0  0  0
   -6.6757    1.2268  -25.5128 N   0  0  0  0  0  0  0  0  0  0  0  0
   -6.4553    1.5597  -24.6129 H   0  0  0  0  0  0  0  0  0  0  0  0
   -5.6495    0.9811  -26.5030 C   0  0  0  0  0  0  0  0  0  0  0  0
   -5.2507   -0.3055  -26.8002 C   0  0  0  0  0  0  0  0  0  0  0  0
   -4.2690   -0.5043  -27.7503 C   0  0  0  0  0  0  0  0  0  0  0  0
   -3.6927    0.5429  -28.3937 N   0  0  0  0  0  0  0  0  0  0  0  0
   -4.1074    1.7840  -28.0775 C   0  0  0  0  0  0  0  0  0  0  0  0
   -5.0655    2.0071  -27.1524 N   0  0  0  0  0  0  0  0  0  0  0  0
 29 30  1  0  0  0
 30 31  1  0  0  0
 30 33  1  0  0  0
 31 32  2  0  0  0
 31 28  1  0  0  0
 28  1  1  0  0  0
  1  2  1  0  0  0
  3  2  1  0  0  0
  3  4  1  0  0  0
  3  9  1  0  0  0
  4  5  2  0  0  0
  4  6  1  0  0  0
  6 18  1  0  0  0
  6  7  1  0  0  0
 18 19  2  0  0  0
 19 20  1  0  0  0
 20 21  2  0  0  0
 21 22  1  0  0  0
 22 23  2  0  0  0
 23 24  1  0  0  0
 24 25  2  0  0  0
 25 26  1  0  0  0
 26 27  2  0  0  0
 27 18  1  0  0  0
 27 22  1  0  0  0
  7  8  1  0  0  0
  8 34  1  0  0  0
  8  3  1  0  0  0
 34 35  1  0  0  0
 35 37  1  0  0  0
 35 36  1  0  0  0
 37 38  2  0  0  0
 38 39  1  0  0  0
 39 40  2  0  0  0
 40 41  1  0  0  0
 41 42  2  0  0  0
 42 37  1  0  0  0
  9 10  2  0  0  0
 10 11  1  0  0  0
 11 12  1  0  0  0
 11 13  2  0  0  0
 13 14  1  0  0  0
 14 15  2  0  0  0
 15 16  1  0  0  0
 15  9  1  0  0  0
 16 17  2  0  0  0
 16  1  1  0  0  0
M  END
> <minimizedAffinity>
-6.95568

> <CNNscore>
0.4172343910

> <CNNaffinity>
6.4903326035

> <CNN_VS>
2.7079899311

> <CNNaffinity_variance>
0.1885404885

$$$$



 42 47  0  0  0  0  0  0  0  0999 V2000
   -5.5552   -0.6710  -20.6576 N   0  0  0  0  0  0  0  0  0  0  0  0
   -6.8785   -0.6696  -21.2128 C   0  0  0  0  0  0  0  0  0  0  0  0
   -7.0466   -0.2137  -22.6138 C   0  0  0  0  0  0  0  0  0  0  0  0
   -8.3038    0.6254  -22.6419 C   0  0  0  0  0  0  0  0  0  0  0  0
   -8.4536    1.6425  -21.9021 O   0  0  0  0  0  0  0  0  0  0  0  0
   -9.2405    0.1361  -23.5658 N   0  0  0  0  0  0  0  0  0  0  0  0
   -8.5657   -0.8127  -24.4193 C   0  0  0  0  0  0  0  0  0  0  0  0
   -7.3252   -1.2571  -23.6324 C   0  0  0  0  0  0  0  0  0  0  0  0
   -5.9225    0.6795  -23.0421 C   0  0  0  0  0  0  0  0  0  0  0  0
   -6.0492    1.3937  -24.2434 C   0  0  0  0  0  0  0  0  0  0  0  0
   -5.0440    2.2323  -24.6926 C   0  0  0  0  0  0  0  0  0  0  0  0
   -5.2377    3.1172  -26.2116 Cl  0  0  0  0  0  0  0  0  0  0  0  0
   -3.8779    2.3987  -23.9770 C   0  0  0  0  0  0  0  0  0  0  0  0
   -3.7434    1.7110  -22.8097 C   0  0  0  0  0  0  0  0  0  0  0  0
   -4.7538    0.8737  -22.3666 C   0  0  0  0  0  0  0  0  0  0  0  0
   -4.5174    0.1834  -21.1076 C   0  0  0  0  0  0  0  0  0  0  0  0
   -3.4548    0.3445  -20.4702 O   0  0  0  0  0  0  0  0  0  0  0  0
  -10.6040    0.5469  -23.6024 C   0  0  0  0  0  0  0  0  0  0  0  0
  -10.9897    1.8308  -23.9676 C   0  0  0  0  0  0  0  0  0  0  0  0
  -12.2873    2.2114  -23.9973 N   0  0  0  0  0  0  0  0  0  0  0  0
  -13.3035    1.3908  -23.6801 C   0  0  0  0  0  0  0  0  0  0  0  0
  -12.9745    0.1037  -23.3102 C   0  0  0  0  0  0  0  0  0  0  0  0
  -14.0130   -0.7482  -22.9815 C   0  0  0  0  0  0  0  0  0  0  0  0
  -13.7164   -2.0465  -22.6055 C   0  0  0  0  0  0  0  0  0  0  0  0
  -12.4106   -2.4987  -22.5545 C   0  0  0  0  0  0  0  0  0  0  0  0
  -11.4190   -1.6051  -22.8928 C   0  0  0  0  0  0  0  0  0  0  0  0
  -11.6505   -0.3087  -23.2725 C   0  0  0  0  0  0  0  0  0  0  0  0
   -5.2415   -1.5688  -19.5648 C   0  0  0  0  0  0  0  0  0  0  0  0
   -5.4683   -4.7638  -21.5939 C   0  0  0  0  0  0  0  0  0  0  0  0
   -5.4280   -3.3383  -21.2878 N   0  0  0  0  0  0  0  0  0  0  0  0
   -5.2861   -2.9930  -19.9141 C   0  0  0  0  0  0  0  0  0  0  0  0
   -5.2092   -3.9448  -19.0988 O   0  0  0  0  0  0  0  0  0  0  0  0
   -5.4951   -2.6533  -21.9918 H   0  0  0  0  0  0  0  0  0  0  0  0
   -7.5875   -2.6420  -23.1869 C   0  0  0  0  0  0  0  0  0  0  0  0
   -8.4432   -3.4477  -23.9914 N   0  0  0  0  0  0  0  0  0  0  0  0
   -9.4041   -3.2521  -24.0790 H   0  0  0  0  0  0  0  0  0  0  0  0
   -7.8319   -4.5677  -24.6739 C   0  0  0  0  0  0  0  0  0  0  0  0
   -8.5296   -5.7422  -24.8655 C   0  0  0  0  0  0  0  0  0  0  0  0
   -7.9163   -6.7912  -25.5208 C   0  0  0  0  0  0  0  0  0  0  0  0
   -6.6423   -6.6848  -25.9773 N   0  0  0  0  0  0  0  0  0  0  0  0
   -5.9929   -5.5236  -25.7720 C   0  0  0  0  0  0  0  0  0  0  0  0
   -6.5686   -4.4818  -25.1344 N   0  0  0  0  0  0  0  0  0  0  0  0
 29 30  1  0  0  0
 30 31  1  0  0  0
 30 33  1  0  0  0
 31 32  2  0  0  0
 31 28  1  0  0  0
 28  1  1  0  0  0
  1  2  1  0  0  0
  3  2  1  0  0  0
  3  4  1  0  0  0
  3  9  1  0  0  0
  4  5  2  0  0  0
  4  6  1  0  0  0
  6 18  1  0  0  0
  6  7  1  0  0  0
 18 19  2  0  0  0
 19 20  1  0  0  0
 20 21  2  0  0  0
 21 22  1  0  0  0
 22 23  2  0  0  0
 23 24  1  0  0  0
 24 25  2  0  0  0
 25 26  1  0  0  0
 26 27  2  0  0  0
 27 18  1  0  0  0
 27 22  1  0  0  0
  7  8  1  0  0  0
  8 34  1  0  0  0
  8  3  1  0  0  0
 34 35  1  0  0  0
 35 37  1  0  0  0
 35 36  1  0  0  0
 37 38  2  0  0  0
 38 39  1  0  0  0
 39 40  2  0  0  0
 40 41  1  0  0  0
 41 42  2  0  0  0
 42 37  1  0  0  0
  9 10  2  0  0  0
 10 11  1  0  0  0
 11 12  1  0  0  0
 11 13  2  0  0  0
 13 14  1  0  0  0
 14 15  2  0  0  0
 15 16  1  0  0  0
 15  9  1  0  0  0
 16 17  2  0  0  0
 16  1  1  0  0  0
M  END
> <minimizedAffinity>
-8.43249

> <CNNscore>
0.3910318613

> <CNNaffinity>
6.7676439285

> <CNN_VS>
2.6463644505

> <CNNaffinity_variance>
0.1789660156

$$$$



 42 47  0  0  0  0  0  0  0  0999 V2000
   -7.3869   -5.9361  -24.5276 N   0  0  0  0  0  0  0  0  0  0  0  0
   -7.5196   -4.8984  -23.5454 C   0  0  0  0  0  0  0  0  0  0  0  0
   -7.0090   -3.5481  -23.8841 C   0  0  0  0  0  0  0  0  0  0  0  0
   -6.3340   -3.0218  -22.6380 C   0  0  0  0  0  0  0  0  0  0  0  0
   -5.3877   -3.6425  -22.0692 O   0  0  0  0  0  0  0  0  0  0  0  0
   -6.8832   -1.7994  -22.2203 N   0  0  0  0  0  0  0  0  0  0  0  0
   -7.6895   -1.2845  -23.3013 C   0  0  0  0  0  0  0  0  0  0  0  0
   -8.0192   -2.5006  -24.1778 C   0  0  0  0  0  0  0  0  0  0  0  0
   -5.9589   -3.6068  -24.9511 C   0  0  0  0  0  0  0  0  0  0  0  0
   -5.1987   -2.4566  -25.2129 C   0  0  0  0  0  0  0  0  0  0  0  0
   -4.2163   -2.4486  -26.1877 C   0  0  0  0  0  0  0  0  0  0  0  0
   -3.2773   -0.9809  -26.4907 Cl  0  0  0  0  0  0  0  0  0  0  0  0
   -3.9462   -3.5710  -26.9405 C   0  0  0  0  0  0  0  0  0  0  0  0
   -4.6773   -4.6931  -26.6958 C   0  0  0  0  0  0  0  0  0  0  0  0
   -5.6586   -4.6935  -25.7185 C   0  0  0  0  0  0  0  0  0  0  0  0
   -6.3848   -5.9404  -25.5302 C   0  0  0  0  0  0  0  0  0  0  0  0
   -6.1284   -6.9498  -26.2209 O   0  0  0  0  0  0  0  0  0  0  0  0
   -6.6452   -1.2220  -20.9400 C   0  0  0  0  0  0  0  0  0  0  0  0
   -7.4941   -1.4224  -19.8585 C   0  0  0  0  0  0  0  0  0  0  0  0
   -7.2599   -0.8680  -18.6472 N   0  0  0  0  0  0  0  0  0  0  0  0
   -6.1987   -0.0849  -18.3879 C   0  0  0  0  0  0  0  0  0  0  0  0
   -5.3239    0.1460  -19.4286 C   0  0  0  0  0  0  0  0  0  0  0  0
   -4.2291    0.9508  -19.1720 C   0  0  0  0  0  0  0  0  0  0  0  0
   -3.3324    1.2024  -20.1954 C   0  0  0  0  0  0  0  0  0  0  0  0
   -3.5138    0.6662  -21.4570 C   0  0  0  0  0  0  0  0  0  0  0  0
   -4.6221   -0.1274  -21.6527 C   0  0  0  0  0  0  0  0  0  0  0  0
   -5.5440   -0.4122  -20.6794 C   0  0  0  0  0  0  0  0  0  0  0  0
   -8.2993   -7.0612  -24.5040 C   0  0  0  0  0  0  0  0  0  0  0  0
  -10.6118   -6.0826  -27.3450 C   0  0  0  0  0  0  0  0  0  0  0  0
   -9.7392   -5.9482  -26.1841 N   0  0  0  0  0  0  0  0  0  0  0  0
   -9.1826   -7.1541  -25.6717 C   0  0  0  0  0  0  0  0  0  0  0  0
   -9.4943   -8.2155  -26.2656 O   0  0  0  0  0  0  0  0  0  0  0  0
   -9.5459   -5.0726  -25.7776 H   0  0  0  0  0  0  0  0  0  0  0  0
   -9.4492   -2.8008  -23.9542 C   0  0  0  0  0  0  0  0  0  0  0  0
  -10.0776   -2.2274  -22.8119 N   0  0  0  0  0  0  0  0  0  0  0  0
   -9.6122   -2.1582  -21.9471 H   0  0  0  0  0  0  0  0  0  0  0  0
  -11.4333   -1.7514  -22.9839 C   0  0  0  0  0  0  0  0  0  0  0  0
  -12.4851   -2.3738  -22.3443 C   0  0  0  0  0  0  0  0  0  0  0  0
  -13.7661   -1.8939  -22.5302 C   0  0  0  0  0  0  0  0  0  0  0  0
  -14.0052   -0.8232  -23.3298 N   0  0  0  0  0  0  0  0  0  0  0  0
  -12.9541   -0.2417  -23.9375 C   0  0  0  0  0  0  0  0  0  0  0  0
  -11.6911   -0.6904  -23.7732 N   0  0  0  0  0  0  0  0  0  0  0  0
 29 30  1  0  0  0
 30 31  1  0  0  0
 30 33  1  0  0  0
 31 32  2  0  0  0
 31 28  1  0  0  0
 28  1  1  0  0  0
  1  2  1  0  0  0
  3  2  1  0  0  0
  3  4  1  0  0  0
  3  9  1  0  0  0
  4  5  2  0  0  0
  4  6  1  0  0  0
  6 18  1  0  0  0
  6  7  1  0  0  0
 18 19  2  0  0  0
 19 20  1  0  0  0
 20 21  2  0  0  0
 21 22  1  0  0  0
 22 23  2  0  0  0
 23 24  1  0  0  0
 24 25  2  0  0  0
 25 26  1  0  0  0
 26 27  2  0  0  0
 27 18  1  0  0  0
 27 22  1  0  0  0
  7  8  1  0  0  0
  8 34  1  0  0  0
  8  3  1  0  0  0
 34 35  1  0  0  0
 35 37  1  0  0  0
 35 36  1  0  0  0
 37 38  2  0  0  0
 38 39  1  0  0  0
 39 40  2  0  0  0
 40 41  1  0  0  0
 41 42  2  0  0  0
 42 37  1  0  0  0
  9 10  2  0  0  0
 10 11  1  0  0  0
 11 12  1  0  0  0
 11 13  2  0  0  0
 13 14  1  0  0  0
 14 15  2  0  0  0
 15 16  1  0  0  0
 15  9  1  0  0  0
 16 17  2  0  0  0
 16  1  1  0  0  0
M  END
> <minimizedAffinity>
-8.55641

> <CNNscore>
0.3640451133

> <CNNaffinity>
6.6976561546

> <CNN_VS>
2.4382491112

> <CNNaffinity_variance>
0.1931468546

$$$$



 42 47  0  0  0  0  0  0  0  0999 V2000
  -11.6426    3.3329  -23.6744 N   0  0  0  0  0  0  0  0  0  0  0  0
  -10.2502    2.9875  -23.6423 C   0  0  0  0  0  0  0  0  0  0  0  0
   -9.8710    1.5892  -23.9582 C   0  0  0  0  0  0  0  0  0  0  0  0
   -8.7803    1.2115  -22.9819 C   0  0  0  0  0  0  0  0  0  0  0  0
   -8.9451    1.2751  -21.7277 O   0  0  0  0  0  0  0  0  0  0  0  0
   -7.6098    0.7982  -23.6371 N   0  0  0  0  0  0  0  0  0  0  0  0
   -7.9397    0.5569  -25.0216 C   0  0  0  0  0  0  0  0  0  0  0  0
   -9.2310    1.3465  -25.2756 C   0  0  0  0  0  0  0  0  0  0  0  0
  -11.0079    0.6423  -23.7220 C   0  0  0  0  0  0  0  0  0  0  0  0
  -10.7497   -0.7370  -23.7325 C   0  0  0  0  0  0  0  0  0  0  0  0
  -11.7589   -1.6606  -23.5231 C   0  0  0  0  0  0  0  0  0  0  0  0
  -11.3973   -3.3917  -23.5431 Cl  0  0  0  0  0  0  0  0  0  0  0  0
  -13.0584   -1.2613  -23.2961 C   0  0  0  0  0  0  0  0  0  0  0  0
  -13.3213    0.0745  -23.2836 C   0  0  0  0  0  0  0  0  0  0  0  0
  -12.3060    0.9927  -23.4939 C   0  0  0  0  0  0  0  0  0  0  0  0
  -12.6857    2.3971  -23.4604 C   0  0  0  0  0  0  0  0  0  0  0  0
  -13.8684    2.7435  -23.2535 O   0  0  0  0  0  0  0  0  0  0  0  0
   -6.3483    0.6596  -22.9900 C   0  0  0  0  0  0  0  0  0  0  0  0
   -5.8304   -0.5740  -22.6152 C   0  0  0  0  0  0  0  0  0  0  0  0
   -4.6322   -0.6945  -21.9995 N   0  0  0  0  0  0  0  0  0  0  0  0
   -3.8483    0.3556  -21.7005 C   0  0  0  0  0  0  0  0  0  0  0  0
   -4.3164    1.6043  -22.0516 C   0  0  0  0  0  0  0  0  0  0  0  0
   -3.5174    2.6912  -21.7479 C   0  0  0  0  0  0  0  0  0  0  0  0
   -3.9588    3.9582  -22.0866 C   0  0  0  0  0  0  0  0  0  0  0  0
   -5.1742    4.1503  -22.7174 C   0  0  0  0  0  0  0  0  0  0  0  0
   -5.9262    3.0304  -22.9944 C   0  0  0  0  0  0  0  0  0  0  0  0
   -5.5425    1.7519  -22.6838 C   0  0  0  0  0  0  0  0  0  0  0  0
  -12.0309    4.7076  -23.9160 C   0  0  0  0  0  0  0  0  0  0  0  0
  -10.8084    6.2475  -27.1580 C   0  0  0  0  0  0  0  0  0  0  0  0
  -10.8310    5.8565  -25.7530 N   0  0  0  0  0  0  0  0  0  0  0  0
  -11.9704    5.1197  -25.3227 C   0  0  0  0  0  0  0  0  0  0  0  0
  -12.8450    4.8767  -26.1902 O   0  0  0  0  0  0  0  0  0  0  0  0
  -10.0992    6.0892  -25.1369 H   0  0  0  0  0  0  0  0  0  0  0  0
   -8.8543    2.5043  -26.1138 C   0  0  0  0  0  0  0  0  0  0  0  0
   -7.4878    2.6319  -26.4947 N   0  0  0  0  0  0  0  0  0  0  0  0
   -6.9984    1.8895  -26.9173 H   0  0  0  0  0  0  0  0  0  0  0  0
   -6.8537    3.9055  -26.2307 C   0  0  0  0  0  0  0  0  0  0  0  0
   -5.5177    4.0996  -26.5137 C   0  0  0  0  0  0  0  0  0  0  0  0
   -4.9442    5.3273  -26.2495 C   0  0  0  0  0  0  0  0  0  0  0  0
   -5.6722    6.3420  -25.7174 N   0  0  0  0  0  0  0  0  0  0  0  0
   -6.9729    6.1157  -25.4544 C   0  0  0  0  0  0  0  0  0  0  0  0
   -7.5592    4.9249  -25.7029 N   0  0  0  0  0  0  0  0  0  0  0  0
 29 30  1  0  0  0
 30 31  1  0  0  0
 30 33  1  0  0  0
 31 32  2  0  0  0
 31 28  1  0  0  0
 28  1  1  0  0  0
  1  2  1  0  0  0
  3  2  1  0  0  0
  3  4  1  0  0  0
  3  9  1  0  0  0
  4  5  2  0  0  0
  4  6  1  0  0  0
  6 18  1  0  0  0
  6  7  1  0  0  0
 18 19  2  0  0  0
 19 20  1  0  0  0
 20 21  2  0  0  0
 21 22  1  0  0  0
 22 23  2  0  0  0
 23 24  1  0  0  0
 24 25  2  0  0  0
 25 26  1  0  0  0
 26 27  2  0  0  0
 27 18  1  0  0  0
 27 22  1  0  0  0
  7  8  1  0  0  0
  8 34  1  0  0  0
  8  3  1  0  0  0
 34 35  1  0  0  0
 35 37  1  0  0  0
 35 36  1  0  0  0
 37 38  2  0  0  0
 38 39  1  0  0  0
 39 40  2  0  0  0
 40 41  1  0  0  0
 41 42  2  0  0  0
 42 37  1  0  0  0
  9 10  2  0  0  0
 10 11  1  0  0  0
 11 12  1  0  0  0
 11 13  2  0  0  0
 13 14  1  0  0  0
 14 15  2  0  0  0
 15 16  1  0  0  0
 15  9  1  0  0  0
 16 17  2  0  0  0
 16  1  1  0  0  0
M  END
> <minimizedAffinity>
-6.82817

> <CNNscore>
0.3344905674

> <CNNaffinity>
6.3585987091

> <CNN_VS>
2.1268913746

> <CNNaffinity_variance>
0.1307063252

$$$$



 42 47  0  0  0  0  0  0  0  0999 V2000
   -7.3849   -0.9416  -21.7052 N   0  0  0  0  0  0  0  0  0  0  0  0
   -8.6223   -0.2218  -21.8045 C   0  0  0  0  0  0  0  0  0  0  0  0
   -9.1752    0.0316  -23.1568 C   0  0  0  0  0  0  0  0  0  0  0  0
   -9.7127    1.4445  -23.1406 C   0  0  0  0  0  0  0  0  0  0  0  0
   -8.9869    2.4398  -22.8459 O   0  0  0  0  0  0  0  0  0  0  0  0
  -11.0729    1.4923  -23.4841 N   0  0  0  0  0  0  0  0  0  0  0  0
  -11.4292    0.2165  -24.0580 C   0  0  0  0  0  0  0  0  0  0  0  0
  -10.3606   -0.7661  -23.5598 C   0  0  0  0  0  0  0  0  0  0  0  0
   -8.1071   -0.0113  -24.2067 C   0  0  0  0  0  0  0  0  0  0  0  0
   -8.4113    0.4486  -25.4971 C   0  0  0  0  0  0  0  0  0  0  0  0
   -7.4675    0.4319  -26.5092 C   0  0  0  0  0  0  0  0  0  0  0  0
   -7.8858    1.0194  -28.1240 Cl  0  0  0  0  0  0  0  0  0  0  0  0
   -6.1907   -0.0379  -26.2891 C   0  0  0  0  0  0  0  0  0  0  0  0
   -5.8836   -0.4869  -25.0410 C   0  0  0  0  0  0  0  0  0  0  0  0
   -6.8334   -0.4668  -24.0332 C   0  0  0  0  0  0  0  0  0  0  0  0
   -6.4096   -0.9659  -22.7337 C   0  0  0  0  0  0  0  0  0  0  0  0
   -5.2482   -1.3889  -22.5497 O   0  0  0  0  0  0  0  0  0  0  0  0
  -11.9009    2.6330  -23.2776 C   0  0  0  0  0  0  0  0  0  0  0  0
  -12.7969    2.7263  -22.2199 C   0  0  0  0  0  0  0  0  0  0  0  0
  -13.5800    3.8132  -22.0337 N   0  0  0  0  0  0  0  0  0  0  0  0
  -13.5595    4.8841  -22.8458 C   0  0  0  0  0  0  0  0  0  0  0  0
  -12.6864    4.8424  -23.9124 C   0  0  0  0  0  0  0  0  0  0  0  0
  -12.6581    5.9392  -24.7539 C   0  0  0  0  0  0  0  0  0  0  0  0
  -11.7932    5.9284  -25.8340 C   0  0  0  0  0  0  0  0  0  0  0  0
  -10.9659    4.8481  -26.0806 C   0  0  0  0  0  0  0  0  0  0  0  0
  -11.0383    3.7850  -25.2083 C   0  0  0  0  0  0  0  0  0  0  0  0
  -11.8737    3.7379  -24.1229 C   0  0  0  0  0  0  0  0  0  0  0  0
   -7.0814   -1.6743  -20.4928 C   0  0  0  0  0  0  0  0  0  0  0  0
   -4.7673    0.4485  -18.3678 C   0  0  0  0  0  0  0  0  0  0  0  0
   -5.2352   -0.3694  -19.4812 N   0  0  0  0  0  0  0  0  0  0  0  0
   -6.5730   -0.8478  -19.3925 C   0  0  0  0  0  0  0  0  0  0  0  0
   -7.2213   -0.5216  -18.3679 O   0  0  0  0  0  0  0  0  0  0  0  0
   -4.6581   -0.5787  -20.2509 H   0  0  0  0  0  0  0  0  0  0  0  0
  -11.0208   -1.6267  -22.5555 C   0  0  0  0  0  0  0  0  0  0  0  0
  -10.7433   -3.0233  -22.5922 N   0  0  0  0  0  0  0  0  0  0  0  0
  -11.0401   -3.6275  -21.8738 H   0  0  0  0  0  0  0  0  0  0  0  0
  -10.0040   -3.5110  -23.7366 C   0  0  0  0  0  0  0  0  0  0  0  0
   -8.6469   -3.7433  -23.6519 C   0  0  0  0  0  0  0  0  0  0  0  0
   -7.9722   -4.2087  -24.7627 C   0  0  0  0  0  0  0  0  0  0  0  0
   -8.6214   -4.4402  -25.9323 N   0  0  0  0  0  0  0  0  0  0  0  0
   -9.9457   -4.2021  -25.9772 C   0  0  0  0  0  0  0  0  0  0  0  0
  -10.6303   -3.7469  -24.9060 N   0  0  0  0  0  0  0  0  0  0  0  0
 29 30  1  0  0  0
 30 31  1  0  0  0
 30 33  1  0  0  0
 31 32  2  0  0  0
 31 28  1  0  0  0
 28  1  1  0  0  0
  1  2  1  0  0  0
  3  2  1  0  0  0
  3  4  1  0  0  0
  3  9  1  0  0  0
  4  5  2  0  0  0
  4  6  1  0  0  0
  6 18  1  0  0  0
  6  7  1  0  0  0
 18 19  2  0  0  0
 19 20  1  0  0  0
 20 21  2  0  0  0
 21 22  1  0  0  0
 22 23  2  0  0  0
 23 24  1  0  0  0
 24 25  2  0  0  0
 25 26  1  0  0  0
 26 27  2  0  0  0
 27 18  1  0  0  0
 27 22  1  0  0  0
  7  8  1  0  0  0
  8 34  1  0  0  0
  8  3  1  0  0  0
 34 35  1  0  0  0
 35 37  1  0  0  0
 35 36  1  0  0  0
 37 38  2  0  0  0
 38 39  1  0  0  0
 39 40  2  0  0  0
 40 41  1  0  0  0
 41 42  2  0  0  0
 42 37  1  0  0  0
  9 10  2  0  0  0
 10 11  1  0  0  0
 11 12  1  0  0  0
 11 13  2  0  0  0
 13 14  1  0  0  0
 14 15  2  0  0  0
 15 16  1  0  0  0
 15  9  1  0  0  0
 16 17  2  0  0  0
 16  1  1  0  0  0
M  END
> <minimizedAffinity>
-8.57260

> <CNNscore>
0.2256287932

> <CNNaffinity>
6.5829057693

> <CNN_VS>
1.4852930307

> <CNNaffinity_variance>
0.3651617765

$$$$



 42 47  0  0  0  0  0  0  0  0999 V2000
  -11.5817    3.6399  -23.9798 N   0  0  0  0  0  0  0  0  0  0  0  0
  -10.2035    3.2523  -23.8811 C   0  0  0  0  0  0  0  0  0  0  0  0
   -9.8639    1.8243  -24.0914 C   0  0  0  0  0  0  0  0  0  0  0  0
   -8.8160    1.4779  -23.0584 C   0  0  0  0  0  0  0  0  0  0  0  0
   -9.0150    1.6311  -21.8169 O   0  0  0  0  0  0  0  0  0  0  0  0
   -7.6417    0.9835  -23.6476 N   0  0  0  0  0  0  0  0  0  0  0  0
   -7.9392    0.6603  -25.0227 C   0  0  0  0  0  0  0  0  0  0  0  0
   -9.1945    1.4727  -25.3690 C   0  0  0  0  0  0  0  0  0  0  0  0
  -11.0393    0.9330  -23.8289 C   0  0  0  0  0  0  0  0  0  0  0  0
  -10.8288   -0.4516  -23.7397 C   0  0  0  0  0  0  0  0  0  0  0  0
  -11.8751   -1.3257  -23.5014 C   0  0  0  0  0  0  0  0  0  0  0  0
  -11.5731   -3.0650  -23.3951 Cl  0  0  0  0  0  0  0  0  0  0  0  0
  -13.1660   -0.8699  -23.3424 C   0  0  0  0  0  0  0  0  0  0  0  0
  -13.3827    0.4716  -23.4268 C   0  0  0  0  0  0  0  0  0  0  0  0
  -12.3306    1.3400  -23.6654 C   0  0  0  0  0  0  0  0  0  0  0  0
  -12.6623    2.7551  -23.7371 C   0  0  0  0  0  0  0  0  0  0  0  0
  -13.8378    3.1530  -23.5910 O   0  0  0  0  0  0  0  0  0  0  0  0
   -6.4053    0.8478  -22.9533 C   0  0  0  0  0  0  0  0  0  0  0  0
   -5.4040    1.8092  -23.0121 C   0  0  0  0  0  0  0  0  0  0  0  0
   -4.2326    1.6699  -22.3504 N   0  0  0  0  0  0  0  0  0  0  0  0
   -3.9393    0.6026  -21.5879 C   0  0  0  0  0  0  0  0  0  0  0  0
   -4.9005   -0.3820  -21.4956 C   0  0  0  0  0  0  0  0  0  0  0  0
   -4.6082   -1.4844  -20.7138 C   0  0  0  0  0  0  0  0  0  0  0  0
   -5.5515   -2.4905  -20.6009 C   0  0  0  0  0  0  0  0  0  0  0  0
   -6.7688   -2.4096  -21.2518 C   0  0  0  0  0  0  0  0  0  0  0  0
   -7.0034   -1.2882  -22.0159 C   0  0  0  0  0  0  0  0  0  0  0  0
   -6.1092   -0.2604  -22.1657 C   0  0  0  0  0  0  0  0  0  0  0  0
  -11.9149    5.0071  -24.3241 C   0  0  0  0  0  0  0  0  0  0  0  0
  -11.2010    6.0639  -27.8949 C   0  0  0  0  0  0  0  0  0  0  0  0
  -10.9957    5.8385  -26.4686 N   0  0  0  0  0  0  0  0  0  0  0  0
  -12.0820    5.2502  -25.7612 C   0  0  0  0  0  0  0  0  0  0  0  0
  -13.1104    4.9818  -26.4298 O   0  0  0  0  0  0  0  0  0  0  0  0
  -10.1531    6.0796  -26.0202 H   0  0  0  0  0  0  0  0  0  0  0  0
   -8.7536    2.5586  -26.2699 C   0  0  0  0  0  0  0  0  0  0  0  0
   -7.3528    2.7581  -26.4337 N   0  0  0  0  0  0  0  0  0  0  0  0
   -6.7838    2.0858  -26.8736 H   0  0  0  0  0  0  0  0  0  0  0  0
   -6.8066    3.9967  -25.9222 C   0  0  0  0  0  0  0  0  0  0  0  0
   -7.5952    5.1233  -25.8150 C   0  0  0  0  0  0  0  0  0  0  0  0
   -7.0423    6.2886  -25.3227 C   0  0  0  0  0  0  0  0  0  0  0  0
   -5.7397    6.3422  -24.9444 N   0  0  0  0  0  0  0  0  0  0  0  0
   -5.0010    5.2230  -25.0635 C   0  0  0  0  0  0  0  0  0  0  0  0
   -5.5162    4.0700  -25.5415 N   0  0  0  0  0  0  0  0  0  0  0  0
 29 30  1  0  0  0
 30 31  1  0  0  0
 30 33  1  0  0  0
 31 32  2  0  0  0
 31 28  1  0  0  0
 28  1  1  0  0  0
  1  2  1  0  0  0
  3  2  1  0  0  0
  3  4  1  0  0  0
  3  9  1  0  0  0
  4  5  2  0  0  0
  4  6  1  0  0  0
  6 18  1  0  0  0
  6  7  1  0  0  0
 18 19  2  0  0  0
 19 20  1  0  0  0
 20 21  2  0  0  0
 21 22  1  0  0  0
 22 23  2  0  0  0
 23 24  1  0  0  0
 24 25  2  0  0  0
 25 26  1  0  0  0
 26 27  2  0  0  0
 27 18  1  0  0  0
 27 22  1  0  0  0
  7  8  1  0  0  0
  8 34  1  0  0  0
  8  3  1  0  0  0
 34 35  1  0  0  0
 35 37  1  0  0  0
 35 36  1  0  0  0
 37 38  2  0  0  0
 38 39  1  0  0  0
 39 40  2  0  0  0
 40 41  1  0  0  0
 41 42  2  0  0  0
 42 37  1  0  0  0
  9 10  2  0  0  0
 10 11  1  0  0  0
 11 12  1  0  0  0
 11 13  2  0  0  0
 13 14  1  0  0  0
 14 15  2  0  0  0
 15 16  1  0  0  0
 15  9  1  0  0  0
 16 17  2  0  0  0
 16  1  1  0  0  0
M  END
> <minimizedAffinity>
-6.71172

> <CNNscore>
0.2057858407

> <CNNaffinity>
6.2659592628

> <CNN_VS>
1.2894456387

> <CNNaffinity_variance>
0.1911756694

$$$$



 42 47  0  0  0  0  0  0  0  0999 V2000
   -9.3808   -3.0541  -24.2612 N   0  0  0  0  0  0  0  0  0  0  0  0
   -8.4861   -1.9324  -24.2369 C   0  0  0  0  0  0  0  0  0  0  0  0
   -8.9572   -0.6781  -23.6017 C   0  0  0  0  0  0  0  0  0  0  0  0
   -8.4735    0.4533  -24.4800 C   0  0  0  0  0  0  0  0  0  0  0  0
   -8.7697    0.5280  -25.7092 O   0  0  0  0  0  0  0  0  0  0  0  0
   -7.6833    1.3692  -23.7680 N   0  0  0  0  0  0  0  0  0  0  0  0
   -7.8624    1.1068  -22.3598 C   0  0  0  0  0  0  0  0  0  0  0  0
   -8.3797   -0.3359  -22.2775 C   0  0  0  0  0  0  0  0  0  0  0  0
  -10.4533   -0.5982  -23.5807 C   0  0  0  0  0  0  0  0  0  0  0  0
  -11.0586    0.6222  -23.2440 C   0  0  0  0  0  0  0  0  0  0  0  0
  -12.4354    0.7572  -23.2052 C   0  0  0  0  0  0  0  0  0  0  0  0
  -13.1642    2.3106  -22.7768 Cl  0  0  0  0  0  0  0  0  0  0  0  0
  -13.2667   -0.3031  -23.4957 C   0  0  0  0  0  0  0  0  0  0  0  0
  -12.6910   -1.4924  -23.8237 C   0  0  0  0  0  0  0  0  0  0  0  0
  -11.3124   -1.6197  -23.8606 C   0  0  0  0  0  0  0  0  0  0  0  0
  -10.7924   -2.9295  -24.2232 C   0  0  0  0  0  0  0  0  0  0  0  0
  -11.5590   -3.8813  -24.4837 O   0  0  0  0  0  0  0  0  0  0  0  0
   -6.8703    2.3613  -24.3877 C   0  0  0  0  0  0  0  0  0  0  0  0
   -5.5760    2.1042  -24.8226 C   0  0  0  0  0  0  0  0  0  0  0  0
   -4.8115    3.0539  -25.4084 N   0  0  0  0  0  0  0  0  0  0  0  0
   -5.2325    4.3130  -25.6181 C   0  0  0  0  0  0  0  0  0  0  0  0
   -6.5115    4.6208  -25.2045 C   0  0  0  0  0  0  0  0  0  0  0  0
   -6.9538    5.9139  -25.4153 C   0  0  0  0  0  0  0  0  0  0  0  0
   -8.2325    6.2551  -25.0112 C   0  0  0  0  0  0  0  0  0  0  0  0
   -9.0648    5.3313  -24.4062 C   0  0  0  0  0  0  0  0  0  0  0  0
   -8.5695    4.0596  -24.2227 C   0  0  0  0  0  0  0  0  0  0  0  0
   -7.3134    3.6628  -24.6013 C   0  0  0  0  0  0  0  0  0  0  0  0
   -8.8404   -4.3954  -24.3495 C   0  0  0  0  0  0  0  0  0  0  0  0
   -9.5106   -6.0017  -27.7181 C   0  0  0  0  0  0  0  0  0  0  0  0
   -9.7434   -5.5290  -26.3580 N   0  0  0  0  0  0  0  0  0  0  0  0
   -8.6464   -4.8853  -25.7187 C   0  0  0  0  0  0  0  0  0  0  0  0
   -7.5861   -4.7854  -26.3837 O   0  0  0  0  0  0  0  0  0  0  0  0
  -10.6105   -5.6485  -25.9075 H   0  0  0  0  0  0  0  0  0  0  0  0
   -7.2643   -1.1498  -21.7499 C   0  0  0  0  0  0  0  0  0  0  0  0
   -7.1929   -1.3449  -20.3408 N   0  0  0  0  0  0  0  0  0  0  0  0
   -7.7823   -1.9831  -19.8776 H   0  0  0  0  0  0  0  0  0  0  0  0
   -6.2122   -0.5595  -19.6229 C   0  0  0  0  0  0  0  0  0  0  0  0
   -5.1598    0.0335  -20.2891 C   0  0  0  0  0  0  0  0  0  0  0  0
   -4.2421    0.7762  -19.5736 C   0  0  0  0  0  0  0  0  0  0  0  0
   -4.3591    0.9311  -18.2300 N   0  0  0  0  0  0  0  0  0  0  0  0
   -5.3989    0.3377  -17.6142 C   0  0  0  0  0  0  0  0  0  0  0  0
   -6.3110   -0.3941  -18.2894 N   0  0  0  0  0  0  0  0  0  0  0  0
 29 30  1  0  0  0
 30 31  1  0  0  0
 30 33  1  0  0  0
 31 32  2  0  0  0
 31 28  1  0  0  0
 28  1  1  0  0  0
  1  2  1  0  0  0
  3  2  1  0  0  0
  3  4  1  0  0  0
  3  9  1  0  0  0
  4  5  2  0  0  0
  4  6  1  0  0  0
  6 18  1  0  0  0
  6  7  1  0  0  0
 18 19  2  0  0  0
 19 20  1  0  0  0
 20 21  2  0  0  0
 21 22  1  0  0  0
 22 23  2  0  0  0
 23 24  1  0  0  0
 24 25  2  0  0  0
 25 26  1  0  0  0
 26 27  2  0  0  0
 27 18  1  0  0  0
 27 22  1  0  0  0
  7  8  1  0  0  0
  8 34  1  0  0  0
  8  3  1  0  0  0
 34 35  1  0  0  0
 35 37  1  0  0  0
 35 36  1  0  0  0
 37 38  2  0  0  0
 38 39  1  0  0  0
 39 40  2  0  0  0
 40 41  1  0  0  0
 41 42  2  0  0  0
 42 37  1  0  0  0
  9 10  2  0  0  0
 10 11  1  0  0  0
 11 12  1  0  0  0
 11 13  2  0  0  0
 13 14  1  0  0  0
 14 15  2  0  0  0
 15 16  1  0  0  0
 15  9  1  0  0  0
 16 17  2  0  0  0
 16  1  1  0  0  0
M  END
> <minimizedAffinity>
-8.06182

> <CNNscore>
0.1765451133

> <CNNaffinity>
6.4713354111

> <CNN_VS>
1.1424826384

> <CNNaffinity_variance>
0.2882837951

$$$$



 42 47  0  0  0  0  0  0  0  0999 V2000
   -9.3873   -3.0385  -24.2675 N   0  0  0  0  0  0  0  0  0  0  0  0
   -8.4888   -1.9198  -24.2478 C   0  0  0  0  0  0  0  0  0  0  0  0
   -8.9560   -0.6611  -23.6183 C   0  0  0  0  0  0  0  0  0  0  0  0
   -8.4681    0.4647  -24.5014 C   0  0  0  0  0  0  0  0  0  0  0  0
   -8.7635    0.5350  -25.7311 O   0  0  0  0  0  0  0  0  0  0  0  0
   -7.6750    1.3811  -23.7931 N   0  0  0  0  0  0  0  0  0  0  0  0
   -7.8556    1.1255  -22.3839 C   0  0  0  0  0  0  0  0  0  0  0  0
   -8.3779   -0.3151  -22.2955 C   0  0  0  0  0  0  0  0  0  0  0  0
  -10.4517   -0.5761  -23.5984 C   0  0  0  0  0  0  0  0  0  0  0  0
  -11.0531    0.6479  -23.2674 C   0  0  0  0  0  0  0  0  0  0  0  0
  -12.4295    0.7877  -23.2297 C   0  0  0  0  0  0  0  0  0  0  0  0
  -13.1532    2.3454  -22.8085 Cl  0  0  0  0  0  0  0  0  0  0  0  0
  -13.2642   -0.2711  -23.5159 C   0  0  0  0  0  0  0  0  0  0  0  0
  -12.6924   -1.4638  -23.8384 C   0  0  0  0  0  0  0  0  0  0  0  0
  -11.3142   -1.5959  -23.8741 C   0  0  0  0  0  0  0  0  0  0  0  0
  -10.7984   -2.9090  -24.2307 C   0  0  0  0  0  0  0  0  0  0  0  0
  -11.5682   -3.8594  -24.4874 O   0  0  0  0  0  0  0  0  0  0  0  0
   -6.8584    2.3676  -24.4168 C   0  0  0  0  0  0  0  0  0  0  0  0
   -7.3316    3.6312  -24.7482 C   0  0  0  0  0  0  0  0  0  0  0  0
   -6.5484    4.5603  -25.3420 N   0  0  0  0  0  0  0  0  0  0  0  0
   -5.2601    4.3445  -25.6591 C   0  0  0  0  0  0  0  0  0  0  0  0
   -4.7405    3.1048  -25.3510 C   0  0  0  0  0  0  0  0  0  0  0  0
   -3.4161    2.8727  -25.6737 C   0  0  0  0  0  0  0  0  0  0  0  0
   -2.8645    1.6385  -25.3782 C   0  0  0  0  0  0  0  0  0  0  0  0
   -3.6111    0.6451  -24.7716 C   0  0  0  0  0  0  0  0  0  0  0  0
   -4.9242    0.9343  -24.4740 C   0  0  0  0  0  0  0  0  0  0  0  0
   -5.5254    2.1365  -24.7420 C   0  0  0  0  0  0  0  0  0  0  0  0
   -8.8515   -4.3820  -24.3497 C   0  0  0  0  0  0  0  0  0  0  0  0
   -9.5104   -5.9935  -27.7181 C   0  0  0  0  0  0  0  0  0  0  0  0
   -9.7485   -5.5165  -26.3604 N   0  0  0  0  0  0  0  0  0  0  0  0
   -8.6522   -4.8761  -25.7166 C   0  0  0  0  0  0  0  0  0  0  0  0
   -7.5878   -4.7826  -26.3761 O   0  0  0  0  0  0  0  0  0  0  0  0
  -10.6186   -5.6310  -25.9143 H   0  0  0  0  0  0  0  0  0  0  0  0
   -7.2654   -1.1304  -21.7638 C   0  0  0  0  0  0  0  0  0  0  0  0
   -7.1978   -1.3231  -20.3541 N   0  0  0  0  0  0  0  0  0  0  0  0
   -7.7920   -1.9567  -19.8908 H   0  0  0  0  0  0  0  0  0  0  0  0
   -6.2134   -0.5425  -19.6361 C   0  0  0  0  0  0  0  0  0  0  0  0
   -5.1639    0.0541  -20.3035 C   0  0  0  0  0  0  0  0  0  0  0  0
   -4.2424    0.7921  -19.5878 C   0  0  0  0  0  0  0  0  0  0  0  0
   -4.3531    0.9388  -18.2428 N   0  0  0  0  0  0  0  0  0  0  0  0
   -5.3903    0.3422  -17.6258 C   0  0  0  0  0  0  0  0  0  0  0  0
   -6.3059   -0.3851  -18.3011 N   0  0  0  0  0  0  0  0  0  0  0  0
 29 30  1  0  0  0
 30 31  1  0  0  0
 30 33  1  0  0  0
 31 32  2  0  0  0
 31 28  1  0  0  0
 28  1  1  0  0  0
  1  2  1  0  0  0
  3  2  1  0  0  0
  3  4  1  0  0  0
  3  9  1  0  0  0
  4  5  2  0  0  0
  4  6  1  0  0  0
  6 18  1  0  0  0
  6  7  1  0  0  0
 18 19  2  0  0  0
 19 20  1  0  0  0
 20 21  2  0  0  0
 21 22  1  0  0  0
 22 23  2  0  0  0
 23 24  1  0  0  0
 24 25  2  0  0  0
 25 26  1  0  0  0
 26 27  2  0  0  0
 27 18  1  0  0  0
 27 22  1  0  0  0
  7  8  1  0  0  0
  8 34  1  0  0  0
  8  3  1  0  0  0
 34 35  1  0  0  0
 35 37  1  0  0  0
 35 36  1  0  0  0
 37 38  2  0  0  0
 38 39  1  0  0  0
 39 40  2  0  0  0
 40 41  1  0  0  0
 41 42  2  0  0  0
 42 37  1  0  0  0
  9 10  2  0  0  0
 10 11  1  0  0  0
 11 12  1  0  0  0
 11 13  2  0  0  0
 13 14  1  0  0  0
 14 15  2  0  0  0
 15 16  1  0  0  0
 15  9  1  0  0  0
 16 17  2  0  0  0
 16  1  1  0  0  0
M  END
> <minimizedAffinity>
-7.79090

> <CNNscore>
0.1466024071

> <CNNaffinity>
6.4514107704

> <CNN_VS>
0.9457923770

> <CNNaffinity_variance>
0.2329274416

$$$$



 42 47  0  0  0  0  0  0  0  0999 V2000
   -7.0119   -4.0822  -24.8243 N   0  0  0  0  0  0  0  0  0  0  0  0
   -6.6391   -2.7436  -24.4658 C   0  0  0  0  0  0  0  0  0  0  0  0
   -7.6111   -1.9318  -23.6945 C   0  0  0  0  0  0  0  0  0  0  0  0
   -7.5567   -0.5364  -24.2736 C   0  0  0  0  0  0  0  0  0  0  0  0
   -7.7733   -0.3053  -25.5000 O   0  0  0  0  0  0  0  0  0  0  0  0
   -7.2449    0.4244  -23.2989 N   0  0  0  0  0  0  0  0  0  0  0  0
   -7.4012   -0.1932  -22.0035 C   0  0  0  0  0  0  0  0  0  0  0  0
   -7.3086   -1.7037  -22.2591 C   0  0  0  0  0  0  0  0  0  0  0  0
   -9.0139   -2.4229  -23.8844 C   0  0  0  0  0  0  0  0  0  0  0  0
  -10.0749   -1.6249  -23.4297 C   0  0  0  0  0  0  0  0  0  0  0  0
  -11.3916   -2.0259  -23.5744 C   0  0  0  0  0  0  0  0  0  0  0  0
  -12.7039   -0.9947  -22.9895 Cl  0  0  0  0  0  0  0  0  0  0  0  0
  -11.7125   -3.2260  -24.1713 C   0  0  0  0  0  0  0  0  0  0  0  0
  -10.6915   -4.0090  -24.6165 C   0  0  0  0  0  0  0  0  0  0  0  0
   -9.3764   -3.6009  -24.4682 C   0  0  0  0  0  0  0  0  0  0  0  0
   -8.3562   -4.5053  -24.9770 C   0  0  0  0  0  0  0  0  0  0  0  0
   -8.6630   -5.5903  -25.5156 O   0  0  0  0  0  0  0  0  0  0  0  0
   -6.8514    1.7595  -23.6021 C   0  0  0  0  0  0  0  0  0  0  0  0
   -7.7048    2.8450  -23.4480 C   0  0  0  0  0  0  0  0  0  0  0  0
   -7.3219    4.1088  -23.7405 N   0  0  0  0  0  0  0  0  0  0  0  0
   -6.0977    4.4203  -24.1998 C   0  0  0  0  0  0  0  0  0  0  0  0
   -5.2110    3.3780  -24.3706 C   0  0  0  0  0  0  0  0  0  0  0  0
   -3.9490    3.6881  -24.8432 C   0  0  0  0  0  0  0  0  0  0  0  0
   -3.0358    2.6648  -25.0261 C   0  0  0  0  0  0  0  0  0  0  0  0
   -3.3640    1.3510  -24.7461 C   0  0  0  0  0  0  0  0  0  0  0  0
   -4.6353    1.1034  -24.2783 C   0  0  0  0  0  0  0  0  0  0  0  0
   -5.5820    2.0738  -24.0772 C   0  0  0  0  0  0  0  0  0  0  0  0
   -5.9795   -5.0687  -25.0689 C   0  0  0  0  0  0  0  0  0  0  0  0
   -5.3470   -6.7258  -21.7177 C   0  0  0  0  0  0  0  0  0  0  0  0
   -5.4571   -5.6773  -22.7255 N   0  0  0  0  0  0  0  0  0  0  0  0
   -5.8570   -6.0939  -24.0267 C   0  0  0  0  0  0  0  0  0  0  0  0
   -6.0764   -7.3202  -24.1831 O   0  0  0  0  0  0  0  0  0  0  0  0
   -5.2657   -4.7342  -22.5176 H   0  0  0  0  0  0  0  0  0  0  0  0
   -6.0009   -2.1381  -21.7242 C   0  0  0  0  0  0  0  0  0  0  0  0
   -4.8994   -1.2448  -21.8561 N   0  0  0  0  0  0  0  0  0  0  0  0
   -4.3583   -1.2103  -22.6779 H   0  0  0  0  0  0  0  0  0  0  0  0
   -4.6141   -0.3903  -20.7236 C   0  0  0  0  0  0  0  0  0  0  0  0
   -3.7964    0.7121  -20.8611 C   0  0  0  0  0  0  0  0  0  0  0  0
   -3.5451    1.5063  -19.7601 C   0  0  0  0  0  0  0  0  0  0  0  0
   -4.0880    1.2197  -18.5494 N   0  0  0  0  0  0  0  0  0  0  0  0
   -4.8808    0.1359  -18.4535 C   0  0  0  0  0  0  0  0  0  0  0  0
   -5.1434   -0.6579  -19.5138 N   0  0  0  0  0  0  0  0  0  0  0  0
 29 30  1  0  0  0
 30 31  1  0  0  0
 30 33  1  0  0  0
 31 32  2  0  0  0
 31 28  1  0  0  0
 28  1  1  0  0  0
  1  2  1  0  0  0
  3  2  1  0  0  0
  3  4  1  0  0  0
  3  9  1  0  0  0
  4  5  2  0  0  0
  4  6  1  0  0  0
  6 18  1  0  0  0
  6  7  1  0  0  0
 18 19  2  0  0  0
 19 20  1  0  0  0
 20 21  2  0  0  0
 21 22  1  0  0  0
 22 23  2  0  0  0
 23 24  1  0  0  0
 24 25  2  0  0  0
 25 26  1  0  0  0
 26 27  2  0  0  0
 27 18  1  0  0  0
 27 22  1  0  0  0
  7  8  1  0  0  0
  8 34  1  0  0  0
  8  3  1  0  0  0
 34 35  1  0  0  0
 35 37  1  0  0  0
 35 36  1  0  0  0
 37 38  2  0  0  0
 38 39  1  0  0  0
 39 40  2  0  0  0
 40 41  1  0  0  0
 41 42  2  0  0  0
 42 37  1  0  0  0
  9 10  2  0  0  0
 10 11  1  0  0  0
 11 12  1  0  0  0
 11 13  2  0  0  0
 13 14  1  0  0  0
 14 15  2  0  0  0
 15 16  1  0  0  0
 15  9  1  0  0  0
 16 17  2  0  0  0
 16  1  1  0  0  0
M  END
> <minimizedAffinity>
-7.18144

> <CNNscore>
0.1333267540

> <CNNaffinity>
6.2779626846

> <CNN_VS>
0.8370203972

> <CNNaffinity_variance>
0.1728121936

$$$$



 35 40  0  0  0  0  0  0  0  0999 V2000
   -7.0299    1.6306  -22.5040 C   0  0  0  0  0  0  0  0  0  0  0  0
   -8.4277    1.0838  -22.4414 C   0  0  0  0  0  0  0  0  0  0  0  0
   -9.3537    2.2456  -22.6718 C   0  0  0  0  0  0  0  0  0  0  0  0
   -9.3778    2.3774  -24.1067 N   0  0  0  0  0  0  0  0  0  0  0  0
   -8.8927    1.1850  -24.7056 C   0  0  0  0  0  0  0  0  0  0  0  0
   -8.6818    1.0415  -25.9469 O   0  0  0  0  0  0  0  0  0  0  0  0
   -8.6977    0.1968  -23.6163 C   0  0  0  0  0  0  0  0  0  0  0  0
   -7.5910   -0.7778  -23.9269 C   0  0  0  0  0  0  0  0  0  0  0  0
   -7.5148   -1.7612  -22.8922 N   0  0  0  0  0  0  0  0  0  0  0  0
   -8.7024   -2.5316  -22.6314 C   0  0  0  0  0  0  0  0  0  0  0  0
   -8.6378   -3.7078  -22.1622 O   0  0  0  0  0  0  0  0  0  0  0  0
   -9.9649   -1.8810  -22.9370 C   0  0  0  0  0  0  0  0  0  0  0  0
  -11.1158   -2.6019  -22.7460 C   0  0  0  0  0  0  0  0  0  0  0  0
  -12.3384   -2.0553  -23.0613 C   0  0  0  0  0  0  0  0  0  0  0  0
  -12.3710   -0.7750  -23.5696 C   0  0  0  0  0  0  0  0  0  0  0  0
  -13.5903   -0.2515  -23.8764 F   0  0  0  0  0  0  0  0  0  0  0  0
  -11.2048   -0.0695  -23.7525 C   0  0  0  0  0  0  0  0  0  0  0  0
   -9.9521   -0.5873  -23.4449 C   0  0  0  0  0  0  0  0  0  0  0  0
   -9.8573    3.5722  -24.7517 C   0  0  0  0  0  0  0  0  0  0  0  0
   -8.9983    4.4402  -25.4091 C   0  0  0  0  0  0  0  0  0  0  0  0
   -9.4598    5.5737  -26.0142 N   0  0  0  0  0  0  0  0  0  0  0  0
  -10.7517    5.9169  -26.0128 C   0  0  0  0  0  0  0  0  0  0  0  0
  -11.6382    5.0963  -25.3792 C   0  0  0  0  0  0  0  0  0  0  0  0
  -12.9680    5.4532  -25.3767 C   0  0  0  0  0  0  0  0  0  0  0  0
  -13.9079    4.6628  -24.7487 C   0  0  0  0  0  0  0  0  0  0  0  0
  -13.4695    3.5194  -24.1334 C   0  0  0  0  0  0  0  0  0  0  0  0
  -12.1412    3.1672  -24.1386 C   0  0  0  0  0  0  0  0  0  0  0  0
  -11.1885    3.9294  -24.7521 C   0  0  0  0  0  0  0  0  0  0  0  0
   -6.3288   -2.0465  -22.1036 C   0  0  0  0  0  0  0  0  0  0  0  0
   -6.4159   -1.3595  -20.7679 C   0  0  0  0  0  0  0  0  0  0  0  0
   -7.4161   -1.4699  -19.8686 N   0  0  0  0  0  0  0  0  0  0  0  0
   -7.0972   -0.6972  -18.8242 N   0  0  0  0  0  0  0  0  0  0  0  0
   -5.9494   -0.1184  -19.0403 N   0  0  0  0  0  0  0  0  0  0  0  0
   -5.5063   -0.5089  -20.2318 N   0  0  0  0  0  0  0  0  0  0  0  0
   -4.2573   -0.0807  -20.8307 C   0  0  0  0  0  0  0  0  0  0  0  0
  2  1  1  0  0  0
  2  3  1  0  0  0
  3  4  1  0  0  0
  4 19  1  0  0  0
  4  5  1  0  0  0
 19 20  2  0  0  0
 20 21  1  0  0  0
 21 22  2  0  0  0
 22 23  1  0  0  0
 23 24  2  0  0  0
 24 25  1  0  0  0
 25 26  2  0  0  0
 26 27  1  0  0  0
 27 28  2  0  0  0
 28 19  1  0  0  0
 28 23  1  0  0  0
  5  6  2  0  0  0
  7  5  1  0  0  0
  7  8  1  0  0  0
  7  2  1  0  0  0
  8  9  1  0  0  0
  9 29  1  0  0  0
  9 10  1  0  0  0
 29 30  1  0  0  0
 30 31  2  0  0  0
 31 32  1  0  0  0
 32 33  2  0  0  0
 33 34  1  0  0  0
 34 35  1  0  0  0
 34 30  1  0  0  0
 10 11  2  0  0  0
 10 12  1  0  0  0
 12 13  2  0  0  0
 13 14  1  0  0  0
 14 15  2  0  0  0
 15 16  1  0  0  0
 15 17  1  0  0  0
 17 18  2  0  0  0
 18 12  1  0  0  0
 18  7  1  0  0  0
M  END
> <minimizedAffinity>
-8.34988

> <CNNscore>
0.5462151170

> <CNNaffinity>
6.5837030411

> <CNN_VS>
3.5961182117

> <CNNaffinity_variance>
0.0489988551

$$$$



 35 40  0  0  0  0  0  0  0  0999 V2000
   -8.8302   -1.0618  -24.3774 C   0  0  0  0  0  0  0  0  0  0  0  0
   -8.0836    0.2371  -24.2660 C   0  0  0  0  0  0  0  0  0  0  0  0
   -8.9731    1.2953  -24.8569 C   0  0  0  0  0  0  0  0  0  0  0  0
   -9.8717    1.6206  -23.7782 N   0  0  0  0  0  0  0  0  0  0  0  0
   -9.3330    1.1566  -22.5493 C   0  0  0  0  0  0  0  0  0  0  0  0
   -9.9466    1.1878  -21.4410 O   0  0  0  0  0  0  0  0  0  0  0  0
   -7.9662    0.6540  -22.8334 C   0  0  0  0  0  0  0  0  0  0  0  0
   -7.5633   -0.4538  -21.8944 C   0  0  0  0  0  0  0  0  0  0  0  0
   -6.2080   -0.8291  -22.1504 N   0  0  0  0  0  0  0  0  0  0  0  0
   -5.2110    0.2040  -22.0458 C   0  0  0  0  0  0  0  0  0  0  0  0
   -4.0112   -0.0641  -21.7350 O   0  0  0  0  0  0  0  0  0  0  0  0
   -5.6636    1.5575  -22.3169 C   0  0  0  0  0  0  0  0  0  0  0  0
   -4.7525    2.5734  -22.1806 C   0  0  0  0  0  0  0  0  0  0  0  0
   -5.1342    3.8802  -22.3791 C   0  0  0  0  0  0  0  0  0  0  0  0
   -6.4461    4.1346  -22.7153 C   0  0  0  0  0  0  0  0  0  0  0  0
   -6.8050    5.4344  -22.9068 F   0  0  0  0  0  0  0  0  0  0  0  0
   -7.3432    3.1008  -22.8474 C   0  0  0  0  0  0  0  0  0  0  0  0
   -6.9949    1.7688  -22.6562 C   0  0  0  0  0  0  0  0  0  0  0  0
  -11.1041    2.3303  -24.0041 C   0  0  0  0  0  0  0  0  0  0  0  0
  -12.3342    1.7735  -23.6873 C   0  0  0  0  0  0  0  0  0  0  0  0
  -13.4988    2.4507  -23.9091 N   0  0  0  0  0  0  0  0  0  0  0  0
  -13.5297    3.6776  -24.4386 C   0  0  0  0  0  0  0  0  0  0  0  0
  -12.3460    4.2699  -24.7681 C   0  0  0  0  0  0  0  0  0  0  0  0
  -12.3805    5.5327  -25.3160 C   0  0  0  0  0  0  0  0  0  0  0  0
  -11.2144    6.1782  -25.6711 C   0  0  0  0  0  0  0  0  0  0  0  0
  -10.0319    5.5189  -25.4589 C   0  0  0  0  0  0  0  0  0  0  0  0
  -10.0023    4.2587  -24.9116 C   0  0  0  0  0  0  0  0  0  0  0  0
  -11.1399    3.5953  -24.5502 C   0  0  0  0  0  0  0  0  0  0  0  0
   -5.7679   -2.1711  -22.4895 C   0  0  0  0  0  0  0  0  0  0  0  0
   -5.5752   -2.9856  -21.2392 C   0  0  0  0  0  0  0  0  0  0  0  0
   -5.3116   -2.5137  -20.0026 N   0  0  0  0  0  0  0  0  0  0  0  0
   -5.2159   -3.5699  -19.1873 N   0  0  0  0  0  0  0  0  0  0  0  0
   -5.4084   -4.6667  -19.8650 N   0  0  0  0  0  0  0  0  0  0  0  0
   -5.6322   -4.3361  -21.1334 N   0  0  0  0  0  0  0  0  0  0  0  0
   -5.8907   -5.2821  -22.2014 C   0  0  0  0  0  0  0  0  0  0  0  0
  2  1  1  0  0  0
  2  3  1  0  0  0
  3  4  1  0  0  0
  4 19  1  0  0  0
  4  5  1  0  0  0
 19 20  2  0  0  0
 20 21  1  0  0  0
 21 22  2  0  0  0
 22 23  1  0  0  0
 23 24  2  0  0  0
 24 25  1  0  0  0
 25 26  2  0  0  0
 26 27  1  0  0  0
 27 28  2  0  0  0
 28 19  1  0  0  0
 28 23  1  0  0  0
  5  6  2  0  0  0
  7  5  1  0  0  0
  7  8  1  0  0  0
  7  2  1  0  0  0
  8  9  1  0  0  0
  9 29  1  0  0  0
  9 10  1  0  0  0
 29 30  1  0  0  0
 30 31  2  0  0  0
 31 32  1  0  0  0
 32 33  2  0  0  0
 33 34  1  0  0  0
 34 35  1  0  0  0
 34 30  1  0  0  0
 10 11  2  0  0  0
 10 12  1  0  0  0
 12 13  2  0  0  0
 13 14  1  0  0  0
 14 15  2  0  0  0
 15 16  1  0  0  0
 15 17  1  0  0  0
 17 18  2  0  0  0
 18 12  1  0  0  0
 18  7  1  0  0  0
M  END
> <minimizedAffinity>
-7.97438

> <CNNscore>
0.3349407613

> <CNNaffinity>
6.0849280357

> <CNN_VS>
2.0380904675

> <CNNaffinity_variance>
0.0997175425

$$$$



 35 40  0  0  0  0  0  0  0  0999 V2000
   -9.0244   -0.7824  -21.5047 C   0  0  0  0  0  0  0  0  0  0  0  0
   -8.3141   -0.5442  -22.8068 C   0  0  0  0  0  0  0  0  0  0  0  0
   -7.2434    0.4747  -22.5314 C   0  0  0  0  0  0  0  0  0  0  0  0
   -6.1639   -0.3100  -21.9876 N   0  0  0  0  0  0  0  0  0  0  0  0
   -6.3639   -1.6808  -22.2986 C   0  0  0  0  0  0  0  0  0  0  0  0
   -5.6478   -2.6278  -21.8554 O   0  0  0  0  0  0  0  0  0  0  0  0
   -7.5335   -1.7564  -23.2084 C   0  0  0  0  0  0  0  0  0  0  0  0
   -8.2829   -3.0555  -23.0612 C   0  0  0  0  0  0  0  0  0  0  0  0
   -9.3354   -3.1131  -24.0267 N   0  0  0  0  0  0  0  0  0  0  0  0
   -8.9620   -2.9893  -25.4114 C   0  0  0  0  0  0  0  0  0  0  0  0
   -9.6528   -3.5205  -26.3325 O   0  0  0  0  0  0  0  0  0  0  0  0
   -7.7566   -2.2248  -25.6814 C   0  0  0  0  0  0  0  0  0  0  0  0
   -7.3436   -2.1256  -26.9854 C   0  0  0  0  0  0  0  0  0  0  0  0
   -6.1845   -1.4535  -27.2979 C   0  0  0  0  0  0  0  0  0  0  0  0
   -5.4586   -0.8892  -26.2716 C   0  0  0  0  0  0  0  0  0  0  0  0
   -4.3139   -0.2288  -26.6007 F   0  0  0  0  0  0  0  0  0  0  0  0
   -5.8913   -1.0000  -24.9709 C   0  0  0  0  0  0  0  0  0  0  0  0
   -7.0566   -1.6697  -24.6166 C   0  0  0  0  0  0  0  0  0  0  0  0
   -5.0747    0.2942  -21.2649 C   0  0  0  0  0  0  0  0  0  0  0  0
   -5.1810    0.6129  -19.9194 C   0  0  0  0  0  0  0  0  0  0  0  0
   -4.1456    1.1902  -19.2422 N   0  0  0  0  0  0  0  0  0  0  0  0
   -2.9777    1.4823  -19.8232 C   0  0  0  0  0  0  0  0  0  0  0  0
   -2.8222    1.1887  -21.1461 C   0  0  0  0  0  0  0  0  0  0  0  0
   -1.6193    1.4929  -21.7431 C   0  0  0  0  0  0  0  0  0  0  0  0
   -1.4076    1.2211  -23.0787 C   0  0  0  0  0  0  0  0  0  0  0  0
   -2.4322    0.6419  -23.7807 C   0  0  0  0  0  0  0  0  0  0  0  0
   -3.6310    0.3399  -23.1805 C   0  0  0  0  0  0  0  0  0  0  0  0
   -3.8693    0.5970  -21.8608 C   0  0  0  0  0  0  0  0  0  0  0  0
  -10.7408   -3.3026  -23.7126 C   0  0  0  0  0  0  0  0  0  0  0  0
  -11.4447   -1.9738  -23.6599 C   0  0  0  0  0  0  0  0  0  0  0  0
  -11.1083   -0.8562  -24.3376 N   0  0  0  0  0  0  0  0  0  0  0  0
  -11.9916    0.0910  -24.0032 N   0  0  0  0  0  0  0  0  0  0  0  0
  -12.8534   -0.3925  -23.1530 N   0  0  0  0  0  0  0  0  0  0  0  0
  -12.5400   -1.6642  -22.9233 N   0  0  0  0  0  0  0  0  0  0  0  0
  -13.2656   -2.5466  -22.0305 C   0  0  0  0  0  0  0  0  0  0  0  0
  2  1  1  0  0  0
  2  3  1  0  0  0
  3  4  1  0  0  0
  4 19  1  0  0  0
  4  5  1  0  0  0
 19 20  2  0  0  0
 20 21  1  0  0  0
 21 22  2  0  0  0
 22 23  1  0  0  0
 23 24  2  0  0  0
 24 25  1  0  0  0
 25 26  2  0  0  0
 26 27  1  0  0  0
 27 28  2  0  0  0
 28 19  1  0  0  0
 28 23  1  0  0  0
  5  6  2  0  0  0
  7  5  1  0  0  0
  7  8  1  0  0  0
  7  2  1  0  0  0
  8  9  1  0  0  0
  9 29  1  0  0  0
  9 10  1  0  0  0
 29 30  1  0  0  0
 30 31  2  0  0  0
 31 32  1  0  0  0
 32 33  2  0  0  0
 33 34  1  0  0  0
 34 35  1  0  0  0
 34 30  1  0  0  0
 10 11  2  0  0  0
 10 12  1  0  0  0
 12 13  2  0  0  0
 13 14  1  0  0  0
 14 15  2  0  0  0
 15 16  1  0  0  0
 15 17  1  0  0  0
 17 18  2  0  0  0
 18 12  1  0  0  0
 18  7  1  0  0  0
M  END
> <minimizedAffinity>
-7.86310

> <CNNscore>
0.3136620820

> <CNNaffinity>
6.0778746605

> <CNN_VS>
1.9063987732

> <CNNaffinity_variance>
0.1021124721

$$$$



 35 40  0  0  0  0  0  0  0  0999 V2000
   -3.9559    0.0927  -20.7312 C   0  0  0  0  0  0  0  0  0  0  0  0
   -4.8032    1.2543  -21.1663 C   0  0  0  0  0  0  0  0  0  0  0  0
   -3.9630    2.4884  -20.9891 C   0  0  0  0  0  0  0  0  0  0  0  0
   -3.1556    2.5201  -22.1824 N   0  0  0  0  0  0  0  0  0  0  0  0
   -3.7283    1.6773  -23.1711 C   0  0  0  0  0  0  0  0  0  0  0  0
   -3.1841    1.4047  -24.2826 O   0  0  0  0  0  0  0  0  0  0  0  0
   -5.0346    1.2109  -22.6443 C   0  0  0  0  0  0  0  0  0  0  0  0
   -5.4068   -0.1493  -23.1758 C   0  0  0  0  0  0  0  0  0  0  0  0
   -6.7129   -0.5024  -22.7146 N   0  0  0  0  0  0  0  0  0  0  0  0
   -7.7892    0.3948  -23.0445 C   0  0  0  0  0  0  0  0  0  0  0  0
   -8.9814   -0.0194  -23.1667 O   0  0  0  0  0  0  0  0  0  0  0  0
   -7.4247    1.7893  -23.2255 C   0  0  0  0  0  0  0  0  0  0  0  0
   -8.4160    2.6653  -23.5871 C   0  0  0  0  0  0  0  0  0  0  0  0
   -8.1228    3.9896  -23.8178 C   0  0  0  0  0  0  0  0  0  0  0  0
   -6.8165    4.4046  -23.6762 C   0  0  0  0  0  0  0  0  0  0  0  0
   -6.5459    5.7189  -23.9095 F   0  0  0  0  0  0  0  0  0  0  0  0
   -5.8380    3.5096  -23.3121 C   0  0  0  0  0  0  0  0  0  0  0  0
   -6.0956    2.1654  -23.0697 C   0  0  0  0  0  0  0  0  0  0  0  0
   -1.9690    3.3307  -22.2753 C   0  0  0  0  0  0  0  0  0  0  0  0
   -1.9831    4.5756  -22.8862 C   0  0  0  0  0  0  0  0  0  0  0  0
   -0.8528    5.3363  -22.9748 N   0  0  0  0  0  0  0  0  0  0  0  0
    0.3253    4.9368  -22.4855 C   0  0  0  0  0  0  0  0  0  0  0  0
    0.3925    3.7190  -21.8747 C   0  0  0  0  0  0  0  0  0  0  0  0
    1.6076    3.3085  -21.3739 C   0  0  0  0  0  0  0  0  0  0  0  0
    1.7346    2.0852  -20.7492 C   0  0  0  0  0  0  0  0  0  0  0  0
    0.6141    1.3027  -20.6482 C   0  0  0  0  0  0  0  0  0  0  0  0
   -0.5966    1.7167  -21.1494 C   0  0  0  0  0  0  0  0  0  0  0  0
   -0.7526    2.9219  -21.7722 C   0  0  0  0  0  0  0  0  0  0  0  0
   -7.0304   -1.7006  -21.9575 C   0  0  0  0  0  0  0  0  0  0  0  0
   -6.8580   -1.4451  -20.4848 C   0  0  0  0  0  0  0  0  0  0  0  0
   -7.4318   -0.4577  -19.7657 N   0  0  0  0  0  0  0  0  0  0  0  0
   -7.0134   -0.5930  -18.5023 N   0  0  0  0  0  0  0  0  0  0  0  0
   -6.2106   -1.6160  -18.4127 N   0  0  0  0  0  0  0  0  0  0  0  0
   -6.0967   -2.1604  -19.6206 N   0  0  0  0  0  0  0  0  0  0  0  0
   -5.2875   -3.3227  -19.9309 C   0  0  0  0  0  0  0  0  0  0  0  0
  2  1  1  0  0  0
  2  3  1  0  0  0
  3  4  1  0  0  0
  4 19  1  0  0  0
  4  5  1  0  0  0
 19 20  2  0  0  0
 20 21  1  0  0  0
 21 22  2  0  0  0
 22 23  1  0  0  0
 23 24  2  0  0  0
 24 25  1  0  0  0
 25 26  2  0  0  0
 26 27  1  0  0  0
 27 28  2  0  0  0
 28 19  1  0  0  0
 28 23  1  0  0  0
  5  6  2  0  0  0
  7  5  1  0  0  0
  7  8  1  0  0  0
  7  2  1  0  0  0
  8  9  1  0  0  0
  9 29  1  0  0  0
  9 10  1  0  0  0
 29 30  1  0  0  0
 30 31  2  0  0  0
 31 32  1  0  0  0
 32 33  2  0  0  0
 33 34  1  0  0  0
 34 35  1  0  0  0
 34 30  1  0  0  0
 10 11  2  0  0  0
 10 12  1  0  0  0
 12 13  2  0  0  0
 13 14  1  0  0  0
 14 15  2  0  0  0
 15 16  1  0  0  0
 15 17  1  0  0  0
 17 18  2  0  0  0
 18 12  1  0  0  0
 18  7  1  0  0  0
M  END
> <minimizedAffinity>
-7.00783

> <CNNscore>
0.2384215295

> <CNNaffinity>
5.8734846115

> <CNN_VS>
1.4003652334

> <CNNaffinity_variance>
0.0410531498

$$$$



 35 40  0  0  0  0  0  0  0  0999 V2000
   -5.6851   -1.1467  -23.7187 C   0  0  0  0  0  0  0  0  0  0  0  0
   -6.2774    0.2031  -24.0085 C   0  0  0  0  0  0  0  0  0  0  0  0
   -7.6832   -0.0384  -24.4838 C   0  0  0  0  0  0  0  0  0  0  0  0
   -8.4291   -0.1982  -23.2611 N   0  0  0  0  0  0  0  0  0  0  0  0
   -7.6793    0.3177  -22.1714 C   0  0  0  0  0  0  0  0  0  0  0  0
   -8.0183    0.2122  -20.9549 O   0  0  0  0  0  0  0  0  0  0  0  0
   -6.4756    0.9727  -22.7403 C   0  0  0  0  0  0  0  0  0  0  0  0
   -5.3037    0.9245  -21.7941 C   0  0  0  0  0  0  0  0  0  0  0  0
   -4.2078    1.6531  -22.3519 N   0  0  0  0  0  0  0  0  0  0  0  0
   -4.4381    3.0363  -22.6773 C   0  0  0  0  0  0  0  0  0  0  0  0
   -3.4945    3.8833  -22.6697 O   0  0  0  0  0  0  0  0  0  0  0  0
   -5.8059    3.3940  -23.0114 C   0  0  0  0  0  0  0  0  0  0  0  0
   -6.0722    4.7121  -23.2807 C   0  0  0  0  0  0  0  0  0  0  0  0
   -7.3569    5.1187  -23.5583 C   0  0  0  0  0  0  0  0  0  0  0  0
   -8.3574    4.1713  -23.5573 C   0  0  0  0  0  0  0  0  0  0  0  0
   -9.6226    4.5932  -23.8335 F   0  0  0  0  0  0  0  0  0  0  0  0
   -8.0683    2.8547  -23.2853 C   0  0  0  0  0  0  0  0  0  0  0  0
   -6.7836    2.4061  -23.0017 C   0  0  0  0  0  0  0  0  0  0  0  0
   -9.7425   -0.7883  -23.2443 C   0  0  0  0  0  0  0  0  0  0  0  0
   -9.9245   -2.1575  -23.1198 C   0  0  0  0  0  0  0  0  0  0  0  0
  -11.1729   -2.7102  -23.1096 N   0  0  0  0  0  0  0  0  0  0  0  0
  -12.2863   -1.9783  -23.2175 C   0  0  0  0  0  0  0  0  0  0  0  0
  -12.1616   -0.6258  -23.3426 C   0  0  0  0  0  0  0  0  0  0  0  0
  -13.3097    0.1258  -23.4563 C   0  0  0  0  0  0  0  0  0  0  0  0
  -13.2432    1.4971  -23.5884 C   0  0  0  0  0  0  0  0  0  0  0  0
  -12.0011    2.0759  -23.6019 C   0  0  0  0  0  0  0  0  0  0  0  0
  -10.8579    1.3218  -23.4879 C   0  0  0  0  0  0  0  0  0  0  0  0
  -10.8926   -0.0369  -23.3556 C   0  0  0  0  0  0  0  0  0  0  0  0
   -2.8849    1.1052  -22.5961 C   0  0  0  0  0  0  0  0  0  0  0  0
   -1.9638    1.4448  -21.4558 C   0  0  0  0  0  0  0  0  0  0  0  0
   -2.2882    1.5004  -20.1470 N   0  0  0  0  0  0  0  0  0  0  0  0
   -1.1798    1.8372  -19.4780 N   0  0  0  0  0  0  0  0  0  0  0  0
   -0.1916    1.9906  -20.3141 N   0  0  0  0  0  0  0  0  0  0  0  0
   -0.6467    1.7548  -21.5411 N   0  0  0  0  0  0  0  0  0  0  0  0
    0.1541    1.8248  -22.7478 C   0  0  0  0  0  0  0  0  0  0  0  0
  2  1  1  0  0  0
  2  3  1  0  0  0
  3  4  1  0  0  0
  4 19  1  0  0  0
  4  5  1  0  0  0
 19 20  2  0  0  0
 20 21  1  0  0  0
 21 22  2  0  0  0
 22 23  1  0  0  0
 23 24  2  0  0  0
 24 25  1  0  0  0
 25 26  2  0  0  0
 26 27  1  0  0  0
 27 28  2  0  0  0
 28 19  1  0  0  0
 28 23  1  0  0  0
  5  6  2  0  0  0
  7  5  1  0  0  0
  7  8  1  0  0  0
  7  2  1  0  0  0
  8  9  1  0  0  0
  9 29  1  0  0  0
  9 10  1  0  0  0
 29 30  1  0  0  0
 30 31  2  0  0  0
 31 32  1  0  0  0
 32 33  2  0  0  0
 33 34  1  0  0  0
 34 35  1  0  0  0
 34 30  1  0  0  0
 10 11  2  0  0  0
 10 12  1  0  0  0
 12 13  2  0  0  0
 13 14  1  0  0  0
 14 15  2  0  0  0
 15 16  1  0  0  0
 15 17  1  0  0  0
 17 18  2  0  0  0
 18 12  1  0  0  0
 18  7  1  0  0  0
M  END
> <minimizedAffinity>
-7.75142

> <CNNscore>
0.1833600402

> <CNNaffinity>
5.7824192047

> <CNN_VS>
1.0602645874

> <CNNaffinity_variance>
0.1018047556

$$$$



 35 40  0  0  0  0  0  0  0  0999 V2000
   -4.7224   -1.1323  -24.7633 C   0  0  0  0  0  0  0  0  0  0  0  0
   -6.1971   -1.3521  -24.9468 C   0  0  0  0  0  0  0  0  0  0  0  0
   -6.3622   -2.0940  -26.2440 C   0  0  0  0  0  0  0  0  0  0  0  0
   -6.1159   -3.4666  -25.8806 N   0  0  0  0  0  0  0  0  0  0  0  0
   -6.2256   -3.6167  -24.4730 C   0  0  0  0  0  0  0  0  0  0  0  0
   -5.9462   -4.6796  -23.8420 O   0  0  0  0  0  0  0  0  0  0  0  0
   -6.7134   -2.3239  -23.9324 C   0  0  0  0  0  0  0  0  0  0  0  0
   -6.2242   -2.0761  -22.5287 C   0  0  0  0  0  0  0  0  0  0  0  0
   -6.8029   -0.8695  -22.0262 N   0  0  0  0  0  0  0  0  0  0  0  0
   -8.2401   -0.7942  -21.9978 C   0  0  0  0  0  0  0  0  0  0  0  0
   -8.8479   -0.0739  -21.1494 O   0  0  0  0  0  0  0  0  0  0  0  0
   -8.9405   -1.5874  -22.9930 C   0  0  0  0  0  0  0  0  0  0  0  0
  -10.3116   -1.5777  -22.9661 C   0  0  0  0  0  0  0  0  0  0  0  0
  -11.0295   -2.3452  -23.8541 C   0  0  0  0  0  0  0  0  0  0  0  0
  -10.3361   -3.1161  -24.7617 C   0  0  0  0  0  0  0  0  0  0  0  0
  -11.0641   -3.8696  -25.6319 F   0  0  0  0  0  0  0  0  0  0  0  0
   -8.9610   -3.1105  -24.7719 C   0  0  0  0  0  0  0  0  0  0  0  0
   -8.2018   -2.3479  -23.8920 C   0  0  0  0  0  0  0  0  0  0  0  0
   -5.8269   -4.4738  -26.8683 C   0  0  0  0  0  0  0  0  0  0  0  0
   -4.5465   -4.6576  -27.3685 C   0  0  0  0  0  0  0  0  0  0  0  0
   -4.2812   -5.6114  -28.3086 N   0  0  0  0  0  0  0  0  0  0  0  0
   -5.2248   -6.4195  -28.8020 C   0  0  0  0  0  0  0  0  0  0  0  0
   -6.5015   -6.2790  -28.3427 C   0  0  0  0  0  0  0  0  0  0  0  0
   -7.4723   -7.1107  -28.8544 C   0  0  0  0  0  0  0  0  0  0  0  0
   -8.7805   -7.0111  -28.4287 C   0  0  0  0  0  0  0  0  0  0  0  0
   -9.0724   -6.0606  -27.4856 C   0  0  0  0  0  0  0  0  0  0  0  0
   -8.1001   -5.2329  -26.9776 C   0  0  0  0  0  0  0  0  0  0  0  0
   -6.7972   -5.3085  -27.3795 C   0  0  0  0  0  0  0  0  0  0  0  0
   -6.0494    0.2694  -21.5311 C   0  0  0  0  0  0  0  0  0  0  0  0
   -5.6376    0.0381  -20.1026 C   0  0  0  0  0  0  0  0  0  0  0  0
   -6.2679   -0.7405  -19.1982 N   0  0  0  0  0  0  0  0  0  0  0  0
   -5.5729   -0.6653  -18.0577 N   0  0  0  0  0  0  0  0  0  0  0  0
   -4.5468    0.1221  -18.2197 N   0  0  0  0  0  0  0  0  0  0  0  0
   -4.5620    0.5701  -19.4717 N   0  0  0  0  0  0  0  0  0  0  0  0
   -3.5804    1.4742  -20.0385 C   0  0  0  0  0  0  0  0  0  0  0  0
  2  1  1  0  0  0
  2  3  1  0  0  0
  3  4  1  0  0  0
  4 19  1  0  0  0
  4  5  1  0  0  0
 19 20  2  0  0  0
 20 21  1  0  0  0
 21 22  2  0  0  0
 22 23  1  0  0  0
 23 24  2  0  0  0
 24 25  1  0  0  0
 25 26  2  0  0  0
 26 27  1  0  0  0
 27 28  2  0  0  0
 28 19  1  0  0  0
 28 23  1  0  0  0
  5  6  2  0  0  0
  7  5  1  0  0  0
  7  8  1  0  0  0
  7  2  1  0  0  0
  8  9  1  0  0  0
  9 29  1  0  0  0
  9 10  1  0  0  0
 29 30  1  0  0  0
 30 31  2  0  0  0
 31 32  1  0  0  0
 32 33  2  0  0  0
 33 34  1  0  0  0
 34 35  1  0  0  0
 34 30  1  0  0  0
 10 11  2  0  0  0
 10 12  1  0  0  0
 12 13  2  0  0  0
 13 14  1  0  0  0
 14 15  2  0  0  0
 15 16  1  0  0  0
 15 17  1  0  0  0
 17 18  2  0  0  0
 18 12  1  0  0  0
 18  7  1  0  0  0
M  END
> <minimizedAffinity>
-7.65985

> <CNNscore>
0.1770450324

> <CNNaffinity>
5.9960112572

> <CNN_VS>
1.0615639687

> <CNNaffinity_variance>
0.0557857528

$$$$



 35 40  0  0  0  0  0  0  0  0999 V2000
   -8.9969   -1.2914  -24.7723 C   0  0  0  0  0  0  0  0  0  0  0  0
   -7.7913   -0.6252  -24.1727 C   0  0  0  0  0  0  0  0  0  0  0  0
   -7.8482    0.8188  -24.5877 C   0  0  0  0  0  0  0  0  0  0  0  0
   -8.7542    1.4077  -23.6342 N   0  0  0  0  0  0  0  0  0  0  0  0
   -8.8918    0.5502  -22.5110 C   0  0  0  0  0  0  0  0  0  0  0  0
   -9.7112    0.7378  -21.5627 O   0  0  0  0  0  0  0  0  0  0  0  0
   -7.9169   -0.5550  -22.6829 C   0  0  0  0  0  0  0  0  0  0  0  0
   -8.3890   -1.8325  -22.0378 C   0  0  0  0  0  0  0  0  0  0  0  0
   -7.3710   -2.8297  -22.1494 N   0  0  0  0  0  0  0  0  0  0  0  0
   -6.0831   -2.5174  -21.5874 C   0  0  0  0  0  0  0  0  0  0  0  0
   -5.3096   -3.4271  -21.1608 O   0  0  0  0  0  0  0  0  0  0  0  0
   -5.7315   -1.1086  -21.5417 C   0  0  0  0  0  0  0  0  0  0  0  0
   -4.5322   -0.7694  -20.9695 C   0  0  0  0  0  0  0  0  0  0  0  0
   -4.1655    0.5518  -20.8561 C   0  0  0  0  0  0  0  0  0  0  0  0
   -5.0309    1.5138  -21.3298 C   0  0  0  0  0  0  0  0  0  0  0  0
   -4.6507    2.8159  -21.2079 F   0  0  0  0  0  0  0  0  0  0  0  0
   -6.2283    1.1516  -21.9008 C   0  0  0  0  0  0  0  0  0  0  0  0
   -6.6325   -0.1716  -22.0338 C   0  0  0  0  0  0  0  0  0  0  0  0
   -9.3688    2.6898  -23.8622 C   0  0  0  0  0  0  0  0  0  0  0  0
   -8.6129    3.8390  -24.0392 C   0  0  0  0  0  0  0  0  0  0  0  0
   -9.2030    5.0520  -24.2500 N   0  0  0  0  0  0  0  0  0  0  0  0
  -10.5295    5.2097  -24.2989 C   0  0  0  0  0  0  0  0  0  0  0  0
  -11.3182    4.1096  -24.1304 C   0  0  0  0  0  0  0  0  0  0  0  0
  -12.6844    4.2749  -24.1784 C   0  0  0  0  0  0  0  0  0  0  0  0
  -13.5301    3.1981  -24.0115 C   0  0  0  0  0  0  0  0  0  0  0  0
  -12.9618    1.9695  -23.7979 C   0  0  0  0  0  0  0  0  0  0  0  0
  -11.5978    1.8093  -23.7509 C   0  0  0  0  0  0  0  0  0  0  0  0
  -10.7361    2.8562  -23.9130 C   0  0  0  0  0  0  0  0  0  0  0  0
   -7.5479   -4.1310  -22.7699 C   0  0  0  0  0  0  0  0  0  0  0  0
   -7.0832   -4.0915  -24.2004 C   0  0  0  0  0  0  0  0  0  0  0  0
   -5.9198   -3.5812  -24.6560 N   0  0  0  0  0  0  0  0  0  0  0  0
   -5.9061   -3.7491  -25.9830 N   0  0  0  0  0  0  0  0  0  0  0  0
   -7.0053   -4.3379  -26.3627 N   0  0  0  0  0  0  0  0  0  0  0  0
   -7.7499   -4.5609  -25.2837 N   0  0  0  0  0  0  0  0  0  0  0  0
   -9.0511   -5.2002  -25.2945 C   0  0  0  0  0  0  0  0  0  0  0  0
  2  1  1  0  0  0
  2  3  1  0  0  0
  3  4  1  0  0  0
  4 19  1  0  0  0
  4  5  1  0  0  0
 19 20  2  0  0  0
 20 21  1  0  0  0
 21 22  2  0  0  0
 22 23  1  0  0  0
 23 24  2  0  0  0
 24 25  1  0  0  0
 25 26  2  0  0  0
 26 27  1  0  0  0
 27 28  2  0  0  0
 28 19  1  0  0  0
 28 23  1  0  0  0
  5  6  2  0  0  0
  7  5  1  0  0  0
  7  8  1  0  0  0
  7  2  1  0  0  0
  8  9  1  0  0  0
  9 29  1  0  0  0
  9 10  1  0  0  0
 29 30  1  0  0  0
 30 31  2  0  0  0
 31 32  1  0  0  0
 32 33  2  0  0  0
 33 34  1  0  0  0
 34 35  1  0  0  0
 34 30  1  0  0  0
 10 11  2  0  0  0
 10 12  1  0  0  0
 12 13  2  0  0  0
 13 14  1  0  0  0
 14 15  2  0  0  0
 15 16  1  0  0  0
 15 17  1  0  0  0
 17 18  2  0  0  0
 18 12  1  0  0  0
 18  7  1  0  0  0
M  END
> <minimizedAffinity>
-7.76299

> <CNNscore>
0.1524093449

> <CNNaffinity>
5.8033871651

> <CNN_VS>
0.8844904304

> <CNNaffinity_variance>
0.2190755904

$$$$



 35 40  0  0  0  0  0  0  0  0999 V2000
   -6.5380    0.5660  -24.3588 C   0  0  0  0  0  0  0  0  0  0  0  0
   -7.8892   -0.0903  -24.3747 C   0  0  0  0  0  0  0  0  0  0  0  0
   -7.6469   -1.5728  -24.3113 C   0  0  0  0  0  0  0  0  0  0  0  0
   -7.4478   -1.8215  -22.9059 N   0  0  0  0  0  0  0  0  0  0  0  0
   -7.9419   -0.7255  -22.1505 C   0  0  0  0  0  0  0  0  0  0  0  0
   -7.8011   -0.5976  -20.8976 O   0  0  0  0  0  0  0  0  0  0  0  0
   -8.6232    0.1882  -23.1005 C   0  0  0  0  0  0  0  0  0  0  0  0
   -8.5612    1.6245  -22.6484 C   0  0  0  0  0  0  0  0  0  0  0  0
   -9.3148    2.4420  -23.5467 N   0  0  0  0  0  0  0  0  0  0  0  0
  -10.7038    2.1098  -23.7268 C   0  0  0  0  0  0  0  0  0  0  0  0
  -11.5593    2.9918  -24.0399 O   0  0  0  0  0  0  0  0  0  0  0  0
  -11.0571    0.7147  -23.5290 C   0  0  0  0  0  0  0  0  0  0  0  0
  -12.3792    0.3694  -23.6456 C   0  0  0  0  0  0  0  0  0  0  0  0
  -12.7807   -0.9278  -23.4241 C   0  0  0  0  0  0  0  0  0  0  0  0
  -11.8240   -1.8597  -23.0850 C   0  0  0  0  0  0  0  0  0  0  0  0
  -12.2409   -3.1382  -22.8689 F   0  0  0  0  0  0  0  0  0  0  0  0
  -10.5035   -1.4922  -22.9742 C   0  0  0  0  0  0  0  0  0  0  0  0
  -10.0599   -0.1929  -23.1913 C   0  0  0  0  0  0  0  0  0  0  0  0
   -6.8448   -3.0387  -22.4279 C   0  0  0  0  0  0  0  0  0  0  0  0
   -5.8946   -3.0333  -21.4177 C   0  0  0  0  0  0  0  0  0  0  0  0
   -5.3238   -4.1911  -20.9733 N   0  0  0  0  0  0  0  0  0  0  0  0
   -5.6386   -5.3893  -21.4754 C   0  0  0  0  0  0  0  0  0  0  0  0
   -6.5684   -5.4490  -22.4717 C   0  0  0  0  0  0  0  0  0  0  0  0
   -6.8890   -6.6840  -22.9892 C   0  0  0  0  0  0  0  0  0  0  0  0
   -7.8200   -6.8036  -24.0000 C   0  0  0  0  0  0  0  0  0  0  0  0
   -8.4070   -5.6554  -24.4639 C   0  0  0  0  0  0  0  0  0  0  0  0
   -8.0839   -4.4250  -23.9441 C   0  0  0  0  0  0  0  0  0  0  0  0
   -7.1668   -4.2757  -22.9434 C   0  0  0  0  0  0  0  0  0  0  0  0
   -8.7862    3.5843  -24.2717 C   0  0  0  0  0  0  0  0  0  0  0  0
   -8.9607    3.3852  -25.7528 C   0  0  0  0  0  0  0  0  0  0  0  0
   -8.4414    2.3874  -26.4985 N   0  0  0  0  0  0  0  0  0  0  0  0
   -8.8396    2.5868  -27.7599 N   0  0  0  0  0  0  0  0  0  0  0  0
   -9.5781    3.6592  -27.8230 N   0  0  0  0  0  0  0  0  0  0  0  0
   -9.6696    4.1719  -26.5995 N   0  0  0  0  0  0  0  0  0  0  0  0
  -10.4097    5.3711  -26.2586 C   0  0  0  0  0  0  0  0  0  0  0  0
  2  1  1  0  0  0
  2  3  1  0  0  0
  3  4  1  0  0  0
  4 19  1  0  0  0
  4  5  1  0  0  0
 19 20  2  0  0  0
 20 21  1  0  0  0
 21 22  2  0  0  0
 22 23  1  0  0  0
 23 24  2  0  0  0
 24 25  1  0  0  0
 25 26  2  0  0  0
 26 27  1  0  0  0
 27 28  2  0  0  0
 28 19  1  0  0  0
 28 23  1  0  0  0
  5  6  2  0  0  0
  7  5  1  0  0  0
  7  8  1  0  0  0
  7  2  1  0  0  0
  8  9  1  0  0  0
  9 29  1  0  0  0
  9 10  1  0  0  0
 29 30  1  0  0  0
 30 31  2  0  0  0
 31 32  1  0  0  0
 32 33  2  0  0  0
 33 34  1  0  0  0
 34 35  1  0  0  0
 34 30  1  0  0  0
 10 11  2  0  0  0
 10 12  1  0  0  0
 12 13  2  0  0  0
 13 14  1  0  0  0
 14 15  2  0  0  0
 15 16  1  0  0  0
 15 17  1  0  0  0
 17 18  2  0  0  0
 18 12  1  0  0  0
 18  7  1  0  0  0
M  END
> <minimizedAffinity>
-8.07603

> <CNNscore>
0.1473633647

> <CNNaffinity>
5.9316582680

> <CNN_VS>
0.8741091490

> <CNNaffinity_variance>
0.4691333175

$$$$



 35 40  0  0  0  0  0  0  0  0999 V2000
   -6.0335   -0.0510  -23.4690 C   0  0  0  0  0  0  0  0  0  0  0  0
   -7.4383   -0.4005  -23.0674 C   0  0  0  0  0  0  0  0  0  0  0  0
   -8.0484    0.8534  -22.5054 C   0  0  0  0  0  0  0  0  0  0  0  0
   -8.4722    1.5763  -23.6778 N   0  0  0  0  0  0  0  0  0  0  0  0
   -8.5259    0.6958  -24.7904 C   0  0  0  0  0  0  0  0  0  0  0  0
   -8.7485    1.0615  -25.9831 O   0  0  0  0  0  0  0  0  0  0  0  0
   -8.2774   -0.6736  -24.2763 C   0  0  0  0  0  0  0  0  0  0  0  0
   -7.6169   -1.5541  -25.3057 C   0  0  0  0  0  0  0  0  0  0  0  0
   -7.4925   -2.8818  -24.7910 N   0  0  0  0  0  0  0  0  0  0  0  0
   -8.7038   -3.5410  -24.3783 C   0  0  0  0  0  0  0  0  0  0  0  0
   -8.8130   -4.8039  -24.4097 O   0  0  0  0  0  0  0  0  0  0  0  0
   -9.7800   -2.6751  -23.9284 C   0  0  0  0  0  0  0  0  0  0  0  0
  -10.9658   -3.2649  -23.5724 C   0  0  0  0  0  0  0  0  0  0  0  0
  -12.0360   -2.4932  -23.1822 C   0  0  0  0  0  0  0  0  0  0  0  0
  -11.8818   -1.1241  -23.1605 C   0  0  0  0  0  0  0  0  0  0  0  0
  -12.9525   -0.3773  -22.7723 F   0  0  0  0  0  0  0  0  0  0  0  0
  -10.6836   -0.5534  -23.5208 C   0  0  0  0  0  0  0  0  0  0  0  0
   -9.5806   -1.2995  -23.9191 C   0  0  0  0  0  0  0  0  0  0  0  0
   -8.7912    2.9797  -23.6308 C   0  0  0  0  0  0  0  0  0  0  0  0
  -10.0585    3.4496  -23.9415 C   0  0  0  0  0  0  0  0  0  0  0  0
  -10.3521    4.7823  -23.8994 N   0  0  0  0  0  0  0  0  0  0  0  0
   -9.4501    5.7089  -23.5607 C   0  0  0  0  0  0  0  0  0  0  0  0
   -8.1880    5.2983  -23.2460 C   0  0  0  0  0  0  0  0  0  0  0  0
   -7.2599    6.2548  -22.9001 C   0  0  0  0  0  0  0  0  0  0  0  0
   -5.9679    5.8972  -22.5755 C   0  0  0  0  0  0  0  0  0  0  0  0
   -5.6481    4.5650  -22.6109 C   0  0  0  0  0  0  0  0  0  0  0  0
   -6.5779    3.6139  -22.9566 C   0  0  0  0  0  0  0  0  0  0  0  0
   -7.8638    3.9379  -23.2823 C   0  0  0  0  0  0  0  0  0  0  0  0
   -6.2427   -3.6123  -24.6716 C   0  0  0  0  0  0  0  0  0  0  0  0
   -6.0054   -4.0043  -23.2384 C   0  0  0  0  0  0  0  0  0  0  0  0
   -5.9307   -3.1735  -22.1775 N   0  0  0  0  0  0  0  0  0  0  0  0
   -5.7101   -3.9299  -21.0965 N   0  0  0  0  0  0  0  0  0  0  0  0
   -5.6461   -5.1846  -21.4441 N   0  0  0  0  0  0  0  0  0  0  0  0
   -5.8247   -5.2598  -22.7596 N   0  0  0  0  0  0  0  0  0  0  0  0
   -5.8219   -6.4908  -23.5257 C   0  0  0  0  0  0  0  0  0  0  0  0
  2  1  1  0  0  0
  2  3  1  0  0  0
  3  4  1  0  0  0
  4 19  1  0  0  0
  4  5  1  0  0  0
 19 20  2  0  0  0
 20 21  1  0  0  0
 21 22  2  0  0  0
 22 23  1  0  0  0
 23 24  2  0  0  0
 24 25  1  0  0  0
 25 26  2  0  0  0
 26 27  1  0  0  0
 27 28  2  0  0  0
 28 19  1  0  0  0
 28 23  1  0  0  0
  5  6  2  0  0  0
  7  5  1  0  0  0
  7  8  1  0  0  0
  7  2  1  0  0  0
  8  9  1  0  0  0
  9 29  1  0  0  0
  9 10  1  0  0  0
 29 30  1  0  0  0
 30 31  2  0  0  0
 31 32  1  0  0  0
 32 33  2  0  0  0
 33 34  1  0  0  0
 34 35  1  0  0  0
 34 30  1  0  0  0
 10 11  2  0  0  0
 10 12  1  0  0  0
 12 13  2  0  0  0
 13 14  1  0  0  0
 14 15  2  0  0  0
 15 16  1  0  0  0
 15 17  1  0  0  0
 17 18  2  0  0  0
 18 12  1  0  0  0
 18  7  1  0  0  0
M  END
> <minimizedAffinity>
-7.16265

> <CNNscore>
0.1459458768

> <CNNaffinity>
5.9244699478

> <CNN_VS>
0.8646519780

> <CNNaffinity_variance>
0.2916242182

$$$$



 33 34  0  0  0  0  0  0  0  0999 V2000
  -10.2330   -1.4740  -23.0330 C   0  0  0  0  0  0  0  0  0  0  0  0
  -11.2117   -2.3506  -22.6306 C   0  0  0  0  0  0  0  0  0  0  0  0
  -12.5349   -1.9178  -22.6117 C   0  0  0  0  0  0  0  0  0  0  0  0
  -13.7984   -3.0425  -22.0945 Cl  0  0  0  0  0  0  0  0  0  0  0  0
  -12.8867   -0.6285  -22.9877 C   0  0  0  0  0  0  0  0  0  0  0  0
  -11.9052    0.2423  -23.3886 C   0  0  0  0  0  0  0  0  0  0  0  0
  -10.5888   -0.1845  -23.4085 C   0  0  0  0  0  0  0  0  0  0  0  0
  -12.1606    1.6176  -23.8036 C   0  0  0  0  0  0  0  0  0  0  0  0
  -11.1338    2.3827  -24.2749 C   0  0  0  0  0  0  0  0  0  0  0  0
  -11.3828    3.6817  -24.6651 C   0  0  0  0  0  0  0  0  0  0  0  0
  -12.6587    4.1566  -24.5639 C   0  0  0  0  0  0  0  0  0  0  0  0
  -13.7045    3.3753  -24.0832 C   0  0  0  0  0  0  0  0  0  0  0  0
  -13.4635    2.0785  -23.6921 C   0  0  0  0  0  0  0  0  0  0  0  0
  -12.9879    5.8056  -25.0565 S   0  0  0  0  0  0  0  0  0  0  0  0
  -14.0412    6.5767  -23.9230 N   0  0  0  0  0  0  0  0  0  0  0  0
  -11.7042    6.5857  -25.0965 O   0  0  0  0  0  0  0  0  0  0  0  0
  -13.5885    5.8060  -26.4341 O   0  0  0  0  0  0  0  0  0  0  0  0
  -13.6126    6.5640  -22.9975 H   0  0  0  0  0  0  0  0  0  0  0  0
  -14.9309    6.0789  -23.8925 H   0  0  0  0  0  0  0  0  0  0  0  0
   -8.7154   -3.3663  -23.0800 C   0  0  0  0  0  0  0  0  0  0  0  0
   -8.8121   -1.8532  -23.0804 C   0  0  0  0  0  0  0  0  0  0  0  0
   -8.1881   -1.3898  -21.8445 N   0  0  0  0  0  0  0  0  0  0  0  0
   -7.1006   -0.4602  -21.9003 C   0  0  0  0  0  0  0  0  0  0  0  0
   -6.7143   -0.0679  -23.0407 O   0  0  0  0  0  0  0  0  0  0  0  0
   -8.5144   -1.7158  -20.9748 H   0  0  0  0  0  0  0  0  0  0  0  0
   -6.4473    0.0274  -20.6559 C   0  0  0  0  0  0  0  0  0  0  0  0
   -5.4113   -0.8285  -20.3304 O   0  0  0  0  0  0  0  0  0  0  0  0
   -5.8302   -1.6261  -18.8897 S   0  0  0  0  0  0  0  0  0  0  0  0
   -5.2250   -3.1960  -18.8899 N   0  0  0  0  0  0  0  0  0  0  0  0
   -5.2780   -0.8418  -17.7407 O   0  0  0  0  0  0  0  0  0  0  0  0
   -7.3245   -1.6544  -18.8118 O   0  0  0  0  0  0  0  0  0  0  0  0
   -4.2068   -3.1679  -18.9432 H   0  0  0  0  0  0  0  0  0  0  0  0
   -5.5937   -3.7024  -19.6949 H   0  0  0  0  0  0  0  0  0  0  0  0
 21 20  1  0  0  0
 21 22  1  0  0  0
 21  1  1  0  0  0
 22 23  1  0  0  0
 22 25  1  0  0  0
 23 24  2  0  0  0
 23 26  1  0  0  0
 26 27  1  0  0  0
 27 28  1  0  0  0
 28 29  1  0  0  0
 28 30  2  0  0  0
 28 31  2  0  0  0
 29 32  1  0  0  0
 29 33  1  0  0  0
  1  2  2  0  0  0
  2  3  1  0  0  0
  3  4  1  0  0  0
  3  5  2  0  0  0
  5  6  1  0  0  0
  6  8  1  0  0  0
  6  7  2  0  0  0
  8  9  2  0  0  0
  9 10  1  0  0  0
 10 11  2  0  0  0
 11 14  1  0  0  0
 11 12  1  0  0  0
 14 15  1  0  0  0
 14 16  2  0  0  0
 14 17  2  0  0  0
 15 18  1  0  0  0
 15 19  1  0  0  0
 12 13  2  0  0  0
 13  8  1  0  0  0
  7  1  1  0  0  0
M  END
> <minimizedAffinity>
-8.35623

> <CNNscore>
0.8595972061

> <CNNaffinity>
6.4243369102

> <CNN_VS>
5.5223422050

> <CNNaffinity_variance>
0.2283370495

$$$$



 33 34  0  0  0  0  0  0  0  0999 V2000
  -10.3561   -1.6799  -23.5439 C   0  0  0  0  0  0  0  0  0  0  0  0
  -11.2717   -2.4984  -22.9276 C   0  0  0  0  0  0  0  0  0  0  0  0
  -12.5260   -1.9842  -22.6099 C   0  0  0  0  0  0  0  0  0  0  0  0
  -13.7082   -3.0340  -21.8165 Cl  0  0  0  0  0  0  0  0  0  0  0  0
  -12.8713   -0.6711  -22.8995 C   0  0  0  0  0  0  0  0  0  0  0  0
  -11.9530    0.1415  -23.5151 C   0  0  0  0  0  0  0  0  0  0  0  0
  -10.7052   -0.3663  -23.8322 C   0  0  0  0  0  0  0  0  0  0  0  0
  -12.2080    1.5349  -23.8647 C   0  0  0  0  0  0  0  0  0  0  0  0
  -13.4630    2.0496  -23.7168 C   0  0  0  0  0  0  0  0  0  0  0  0
  -13.6965    3.3674  -24.0495 C   0  0  0  0  0  0  0  0  0  0  0  0
  -12.6535    4.1131  -24.5183 C   0  0  0  0  0  0  0  0  0  0  0  0
  -11.3745    3.5869  -24.6686 C   0  0  0  0  0  0  0  0  0  0  0  0
  -11.1343    2.2730  -24.3386 C   0  0  0  0  0  0  0  0  0  0  0  0
  -12.9373    5.7888  -24.9446 S   0  0  0  0  0  0  0  0  0  0  0  0
  -14.0284    6.5222  -23.8218 N   0  0  0  0  0  0  0  0  0  0  0  0
  -11.6421    6.5490  -24.8913 O   0  0  0  0  0  0  0  0  0  0  0  0
  -13.4767    5.8646  -26.3452 O   0  0  0  0  0  0  0  0  0  0  0  0
  -13.6412    6.4585  -22.8803 H   0  0  0  0  0  0  0  0  0  0  0  0
  -14.9256    6.0380  -23.8539 H   0  0  0  0  0  0  0  0  0  0  0  0
   -8.3240   -1.0585  -24.7144 C   0  0  0  0  0  0  0  0  0  0  0  0
   -9.0100   -2.1465  -23.9117 C   0  0  0  0  0  0  0  0  0  0  0  0
   -9.1659   -3.2933  -24.8016 N   0  0  0  0  0  0  0  0  0  0  0  0
   -8.7140   -4.5861  -24.3840 C   0  0  0  0  0  0  0  0  0  0  0  0
   -8.1866   -4.6874  -23.2372 O   0  0  0  0  0  0  0  0  0  0  0  0
   -9.5809   -3.1779  -25.6869 H   0  0  0  0  0  0  0  0  0  0  0  0
   -8.8610   -5.7707  -25.2718 C   0  0  0  0  0  0  0  0  0  0  0  0
   -8.1169   -5.5643  -26.4188 O   0  0  0  0  0  0  0  0  0  0  0  0
   -9.1919   -5.5205  -27.7339 S   0  0  0  0  0  0  0  0  0  0  0  0
  -10.5785   -6.4092  -27.3893 N   0  0  0  0  0  0  0  0  0  0  0  0
   -9.5315   -4.0904  -28.0159 O   0  0  0  0  0  0  0  0  0  0  0  0
   -8.4837   -6.1145  -28.9110 O   0  0  0  0  0  0  0  0  0  0  0  0
  -11.0549   -5.9982  -26.5865 H   0  0  0  0  0  0  0  0  0  0  0  0
  -10.3205   -7.3724  -27.1750 H   0  0  0  0  0  0  0  0  0  0  0  0
 21 20  1  0  0  0
 21 22  1  0  0  0
 21  1  1  0  0  0
 22 23  1  0  0  0
 22 25  1  0  0  0
 23 24  2  0  0  0
 23 26  1  0  0  0
 26 27  1  0  0  0
 27 28  1  0  0  0
 28 29  1  0  0  0
 28 30  2  0  0  0
 28 31  2  0  0  0
 29 32  1  0  0  0
 29 33  1  0  0  0
  1  2  2  0  0  0
  2  3  1  0  0  0
  3  4  1  0  0  0
  3  5  2  0  0  0
  5  6  1  0  0  0
  6  8  1  0  0  0
  6  7  2  0  0  0
  8  9  2  0  0  0
  9 10  1  0  0  0
 10 11  2  0  0  0
 11 14  1  0  0  0
 11 12  1  0  0  0
 14 15  1  0  0  0
 14 16  2  0  0  0
 14 17  2  0  0  0
 15 18  1  0  0  0
 15 19  1  0  0  0
 12 13  2  0  0  0
 13  8  1  0  0  0
  7  1  1  0  0  0
M  END
> <minimizedAffinity>
-7.48950

> <CNNscore>
0.8467427492

> <CNNaffinity>
6.0737895966

> <CNN_VS>
5.1429371834

> <CNNaffinity_variance>
0.1148110405

$$$$



 33 34  0  0  0  0  0  0  0  0999 V2000
  -10.2239   -1.4128  -23.0455 C   0  0  0  0  0  0  0  0  0  0  0  0
  -11.1887   -2.2980  -22.6292 C   0  0  0  0  0  0  0  0  0  0  0  0
  -12.5170   -1.8814  -22.6041 C   0  0  0  0  0  0  0  0  0  0  0  0
  -13.7629   -3.0175  -22.0691 Cl  0  0  0  0  0  0  0  0  0  0  0  0
  -12.8874   -0.5996  -22.9876 C   0  0  0  0  0  0  0  0  0  0  0  0
  -11.9196    0.2800  -23.4025 C   0  0  0  0  0  0  0  0  0  0  0  0
  -10.5982   -0.1307  -23.4286 C   0  0  0  0  0  0  0  0  0  0  0  0
  -12.1949    1.6488  -23.8263 C   0  0  0  0  0  0  0  0  0  0  0  0
  -13.4545    2.1565  -23.6936 C   0  0  0  0  0  0  0  0  0  0  0  0
  -13.7072    3.4510  -24.0965 C   0  0  0  0  0  0  0  0  0  0  0  0
  -12.6781    4.1812  -24.6174 C   0  0  0  0  0  0  0  0  0  0  0  0
  -11.3945    3.6621  -24.7521 C   0  0  0  0  0  0  0  0  0  0  0  0
  -11.1351    2.3715  -24.3522 C   0  0  0  0  0  0  0  0  0  0  0  0
  -12.9864    5.8273  -25.1331 S   0  0  0  0  0  0  0  0  0  0  0  0
  -14.0584    6.6161  -24.0296 N   0  0  0  0  0  0  0  0  0  0  0  0
  -11.6972    6.5990  -25.1537 O   0  0  0  0  0  0  0  0  0  0  0  0
  -13.5579    5.8176  -26.5229 O   0  0  0  0  0  0  0  0  0  0  0  0
  -13.6494    6.6100  -23.0952 H   0  0  0  0  0  0  0  0  0  0  0  0
  -14.9517    6.1241  -24.0130 H   0  0  0  0  0  0  0  0  0  0  0  0
   -8.6879   -3.2783  -23.2615 C   0  0  0  0  0  0  0  0  0  0  0  0
   -8.7987   -1.7748  -23.1003 C   0  0  0  0  0  0  0  0  0  0  0  0
   -8.2072   -1.4440  -21.8071 N   0  0  0  0  0  0  0  0  0  0  0  0
   -6.8883   -0.8901  -21.7475 C   0  0  0  0  0  0  0  0  0  0  0  0
   -6.2737   -0.7047  -22.8389 O   0  0  0  0  0  0  0  0  0  0  0  0
   -8.7142   -1.6015  -20.9780 H   0  0  0  0  0  0  0  0  0  0  0  0
   -6.2628   -0.5445  -20.4427 C   0  0  0  0  0  0  0  0  0  0  0  0
   -4.8916   -0.6838  -20.5540 O   0  0  0  0  0  0  0  0  0  0  0  0
   -4.1845    0.8100  -20.1593 S   0  0  0  0  0  0  0  0  0  0  0  0
   -4.2140    1.0525  -18.4946 N   0  0  0  0  0  0  0  0  0  0  0  0
   -2.7791    0.8153  -20.6742 O   0  0  0  0  0  0  0  0  0  0  0  0
   -4.9792    1.8767  -20.8453 O   0  0  0  0  0  0  0  0  0  0  0  0
   -3.6706    0.3220  -18.0349 H   0  0  0  0  0  0  0  0  0  0  0  0
   -5.1780    1.0187  -18.1631 H   0  0  0  0  0  0  0  0  0  0  0  0
 21 20  1  0  0  0
 21 22  1  0  0  0
 21  1  1  0  0  0
 22 23  1  0  0  0
 22 25  1  0  0  0
 23 24  2  0  0  0
 23 26  1  0  0  0
 26 27  1  0  0  0
 27 28  1  0  0  0
 28 29  1  0  0  0
 28 30  2  0  0  0
 28 31  2  0  0  0
 29 32  1  0  0  0
 29 33  1  0  0  0
  1  2  2  0  0  0
  2  3  1  0  0  0
  3  4  1  0  0  0
  3  5  2  0  0  0
  5  6  1  0  0  0
  6  8  1  0  0  0
  6  7  2  0  0  0
  8  9  2  0  0  0
  9 10  1  0  0  0
 10 11  2  0  0  0
 11 14  1  0  0  0
 11 12  1  0  0  0
 14 15  1  0  0  0
 14 16  2  0  0  0
 14 17  2  0  0  0
 15 18  1  0  0  0
 15 19  1  0  0  0
 12 13  2  0  0  0
 13  8  1  0  0  0
  7  1  1  0  0  0
M  END
> <minimizedAffinity>
-7.61066

> <CNNscore>
0.7918393612

> <CNNaffinity>
6.0374279022

> <CNN_VS>
4.7806730270

> <CNNaffinity_variance>
0.1061681956

$$$$



 33 34  0  0  0  0  0  0  0  0999 V2000
   -8.1554   -2.9072  -23.6208 C   0  0  0  0  0  0  0  0  0  0  0  0
   -8.6562   -3.9959  -24.2929 C   0  0  0  0  0  0  0  0  0  0  0  0
   -9.9457   -3.9291  -24.8139 C   0  0  0  0  0  0  0  0  0  0  0  0
  -10.5949   -5.3281  -25.6802 Cl  0  0  0  0  0  0  0  0  0  0  0  0
  -10.7329   -2.7946  -24.6710 C   0  0  0  0  0  0  0  0  0  0  0  0
  -10.2275   -1.7104  -23.9989 C   0  0  0  0  0  0  0  0  0  0  0  0
   -8.9461   -1.7734  -23.4795 C   0  0  0  0  0  0  0  0  0  0  0  0
  -10.9654   -0.4693  -23.7894 C   0  0  0  0  0  0  0  0  0  0  0  0
  -12.3290   -0.4936  -23.7444 C   0  0  0  0  0  0  0  0  0  0  0  0
  -13.0196    0.6835  -23.5462 C   0  0  0  0  0  0  0  0  0  0  0  0
  -12.3061    1.8382  -23.4013 C   0  0  0  0  0  0  0  0  0  0  0  0
  -10.9159    1.8614  -23.4475 C   0  0  0  0  0  0  0  0  0  0  0  0
  -10.2203    0.6909  -23.6448 C   0  0  0  0  0  0  0  0  0  0  0  0
  -13.1721    3.3405  -23.1489 S   0  0  0  0  0  0  0  0  0  0  0  0
  -14.4770    3.4828  -24.2740 N   0  0  0  0  0  0  0  0  0  0  0  0
  -13.7542    3.3603  -21.7637 O   0  0  0  0  0  0  0  0  0  0  0  0
  -12.2199    4.4955  -23.2819 O   0  0  0  0  0  0  0  0  0  0  0  0
  -15.1083    2.6891  -24.1646 H   0  0  0  0  0  0  0  0  0  0  0  0
  -14.1069    3.4944  -25.2244 H   0  0  0  0  0  0  0  0  0  0  0  0
   -6.5320   -4.2571  -22.4256 C   0  0  0  0  0  0  0  0  0  0  0  0
   -6.8034   -2.8980  -23.0403 C   0  0  0  0  0  0  0  0  0  0  0  0
   -6.7970   -1.9309  -21.9465 N   0  0  0  0  0  0  0  0  0  0  0  0
   -5.9272   -0.7951  -22.0045 C   0  0  0  0  0  0  0  0  0  0  0  0
   -5.1827   -0.6703  -23.0212 O   0  0  0  0  0  0  0  0  0  0  0  0
   -7.3895   -2.0595  -21.1709 H   0  0  0  0  0  0  0  0  0  0  0  0
   -5.9013    0.2047  -20.9033 C   0  0  0  0  0  0  0  0  0  0  0  0
   -4.9446   -0.1731  -19.9793 O   0  0  0  0  0  0  0  0  0  0  0  0
   -5.7220   -1.0734  -18.7659 S   0  0  0  0  0  0  0  0  0  0  0  0
   -5.4194   -2.7161  -18.9681 N   0  0  0  0  0  0  0  0  0  0  0  0
   -5.2237   -0.5990  -17.4366 O   0  0  0  0  0  0  0  0  0  0  0  0
   -7.1901   -0.8061  -18.8812 O   0  0  0  0  0  0  0  0  0  0  0  0
   -4.4175   -2.8897  -18.8881 H   0  0  0  0  0  0  0  0  0  0  0  0
   -5.7431   -3.0106  -19.8894 H   0  0  0  0  0  0  0  0  0  0  0  0
 21 20  1  0  0  0
 21 22  1  0  0  0
 21  1  1  0  0  0
 22 23  1  0  0  0
 22 25  1  0  0  0
 23 24  2  0  0  0
 23 26  1  0  0  0
 26 27  1  0  0  0
 27 28  1  0  0  0
 28 29  1  0  0  0
 28 30  2  0  0  0
 28 31  2  0  0  0
 29 32  1  0  0  0
 29 33  1  0  0  0
  1  2  2  0  0  0
  2  3  1  0  0  0
  3  4  1  0  0  0
  3  5  2  0  0  0
  5  6  1  0  0  0
  6  8  1  0  0  0
  6  7  2  0  0  0
  8  9  2  0  0  0
  9 10  1  0  0  0
 10 11  2  0  0  0
 11 14  1  0  0  0
 11 12  1  0  0  0
 14 15  1  0  0  0
 14 16  2  0  0  0
 14 17  2  0  0  0
 15 18  1  0  0  0
 15 19  1  0  0  0
 12 13  2  0  0  0
 13  8  1  0  0  0
  7  1  1  0  0  0
M  END
> <minimizedAffinity>
-8.12486

> <CNNscore>
0.7829068899

> <CNNaffinity>
6.4249725342

> <CNN_VS>
5.0301551819

> <CNNaffinity_variance>
0.1669688225

$$$$



 33 34  0  0  0  0  0  0  0  0999 V2000
   -9.6767   -1.9949  -23.2815 C   0  0  0  0  0  0  0  0  0  0  0  0
  -10.7860   -2.6645  -22.8244 C   0  0  0  0  0  0  0  0  0  0  0  0
  -11.9996   -1.9856  -22.7554 C   0  0  0  0  0  0  0  0  0  0  0  0
  -13.4307   -2.8433  -22.1677 Cl  0  0  0  0  0  0  0  0  0  0  0  0
  -12.1145   -0.6552  -23.1354 C   0  0  0  0  0  0  0  0  0  0  0  0
  -11.0034    0.0082  -23.5911 C   0  0  0  0  0  0  0  0  0  0  0  0
   -9.7953   -0.6636  -23.6609 C   0  0  0  0  0  0  0  0  0  0  0  0
  -11.0090    1.4043  -24.0154 C   0  0  0  0  0  0  0  0  0  0  0  0
  -12.1072    2.1782  -23.7772 C   0  0  0  0  0  0  0  0  0  0  0  0
  -12.1052    3.4967  -24.1813 C   0  0  0  0  0  0  0  0  0  0  0  0
  -10.9945    3.9813  -24.8098 C   0  0  0  0  0  0  0  0  0  0  0  0
   -9.8756    3.1910  -25.0520 C   0  0  0  0  0  0  0  0  0  0  0  0
   -9.8705    1.8747  -24.6516 C   0  0  0  0  0  0  0  0  0  0  0  0
  -10.9797    5.6551  -25.3281 S   0  0  0  0  0  0  0  0  0  0  0  0
  -12.4780    6.4232  -24.9356 N   0  0  0  0  0  0  0  0  0  0  0  0
   -9.8827    6.3941  -24.6149 O   0  0  0  0  0  0  0  0  0  0  0  0
  -10.7143    5.7190  -26.8059 O   0  0  0  0  0  0  0  0  0  0  0  0
  -12.6356    6.3670  -23.9294 H   0  0  0  0  0  0  0  0  0  0  0  0
  -13.2394    5.9537  -25.4257 H   0  0  0  0  0  0  0  0  0  0  0  0
   -8.5353   -4.1340  -23.1942 C   0  0  0  0  0  0  0  0  0  0  0  0
   -8.3583   -2.6402  -23.3840 C   0  0  0  0  0  0  0  0  0  0  0  0
   -7.5447   -2.1661  -22.2683 N   0  0  0  0  0  0  0  0  0  0  0  0
   -6.1785   -1.7984  -22.4883 C   0  0  0  0  0  0  0  0  0  0  0  0
   -5.7195   -1.9000  -23.6640 O   0  0  0  0  0  0  0  0  0  0  0  0
   -7.9346   -2.0995  -21.3668 H   0  0  0  0  0  0  0  0  0  0  0  0
   -5.3281   -1.3125  -21.3686 C   0  0  0  0  0  0  0  0  0  0  0  0
   -6.0527   -0.4044  -20.6189 O   0  0  0  0  0  0  0  0  0  0  0  0
   -5.8984   -0.8408  -18.9840 S   0  0  0  0  0  0  0  0  0  0  0  0
   -4.6258   -0.0032  -18.2698 N   0  0  0  0  0  0  0  0  0  0  0  0
   -7.1908   -0.5377  -18.2926 O   0  0  0  0  0  0  0  0  0  0  0  0
   -5.6318   -2.3128  -18.9367 O   0  0  0  0  0  0  0  0  0  0  0  0
   -4.8151    0.9984  -18.3061 H   0  0  0  0  0  0  0  0  0  0  0  0
   -3.7616   -0.2044  -18.7728 H   0  0  0  0  0  0  0  0  0  0  0  0
 21 20  1  0  0  0
 21 22  1  0  0  0
 21  1  1  0  0  0
 22 23  1  0  0  0
 22 25  1  0  0  0
 23 24  2  0  0  0
 23 26  1  0  0  0
 26 27  1  0  0  0
 27 28  1  0  0  0
 28 29  1  0  0  0
 28 30  2  0  0  0
 28 31  2  0  0  0
 29 32  1  0  0  0
 29 33  1  0  0  0
  1  2  2  0  0  0
  2  3  1  0  0  0
  3  4  1  0  0  0
  3  5  2  0  0  0
  5  6  1  0  0  0
  6  8  1  0  0  0
  6  7  2  0  0  0
  8  9  2  0  0  0
  9 10  1  0  0  0
 10 11  2  0  0  0
 11 14  1  0  0  0
 11 12  1  0  0  0
 14 15  1  0  0  0
 14 16  2  0  0  0
 14 17  2  0  0  0
 15 18  1  0  0  0
 15 19  1  0  0  0
 12 13  2  0  0  0
 13  8  1  0  0  0
  7  1  1  0  0  0
M  END
> <minimizedAffinity>
-6.98202

> <CNNscore>
0.7754624486

> <CNNaffinity>
6.4072351456

> <CNN_VS>
4.9685702324

> <CNNaffinity_variance>
0.2341280729

$$$$



 33 34  0  0  0  0  0  0  0  0999 V2000
   -9.9433   -1.0390  -23.2452 C   0  0  0  0  0  0  0  0  0  0  0  0
  -10.8497   -1.9769  -22.8131 C   0  0  0  0  0  0  0  0  0  0  0  0
  -12.1976   -1.6325  -22.7566 C   0  0  0  0  0  0  0  0  0  0  0  0
  -13.3685   -2.8365  -22.2011 Cl  0  0  0  0  0  0  0  0  0  0  0  0
  -12.6447   -0.3708  -23.1246 C   0  0  0  0  0  0  0  0  0  0  0  0
  -11.7350    0.5616  -23.5554 C   0  0  0  0  0  0  0  0  0  0  0  0
  -10.3943    0.2227  -23.6127 C   0  0  0  0  0  0  0  0  0  0  0  0
  -12.0928    1.9154  -23.9653 C   0  0  0  0  0  0  0  0  0  0  0  0
  -13.3742    2.3545  -23.8009 C   0  0  0  0  0  0  0  0  0  0  0  0
  -13.7049    3.6352  -24.1908 C   0  0  0  0  0  0  0  0  0  0  0  0
  -12.7287    4.4217  -24.7312 C   0  0  0  0  0  0  0  0  0  0  0  0
  -11.4227    3.9726  -24.8982 C   0  0  0  0  0  0  0  0  0  0  0  0
  -11.0855    2.6960  -24.5115 C   0  0  0  0  0  0  0  0  0  0  0  0
  -13.1364    6.0511  -25.2306 S   0  0  0  0  0  0  0  0  0  0  0  0
  -14.1537    6.8074  -24.0551 N   0  0  0  0  0  0  0  0  0  0  0  0
  -11.8824    6.8705  -25.3499 O   0  0  0  0  0  0  0  0  0  0  0  0
  -13.8076    6.0094  -26.5746 O   0  0  0  0  0  0  0  0  0  0  0  0
  -13.6773    6.8238  -23.1533 H   0  0  0  0  0  0  0  0  0  0  0  0
  -15.0240    6.2824  -23.9704 H   0  0  0  0  0  0  0  0  0  0  0  0
   -7.9761   -0.7554  -24.6366 C   0  0  0  0  0  0  0  0  0  0  0  0
   -8.5023   -1.3236  -23.3331 C   0  0  0  0  0  0  0  0  0  0  0  0
   -8.3402   -2.7726  -23.4079 N   0  0  0  0  0  0  0  0  0  0  0  0
   -7.2948   -3.4119  -22.6674 C   0  0  0  0  0  0  0  0  0  0  0  0
   -6.5366   -2.6827  -21.9626 O   0  0  0  0  0  0  0  0  0  0  0  0
   -8.9484   -3.3088  -23.9663 H   0  0  0  0  0  0  0  0  0  0  0  0
   -7.1081   -4.8867  -22.7265 C   0  0  0  0  0  0  0  0  0  0  0  0
   -5.8785   -5.2035  -22.1795 O   0  0  0  0  0  0  0  0  0  0  0  0
   -5.2701   -6.5516  -23.0159 S   0  0  0  0  0  0  0  0  0  0  0  0
   -6.0929   -7.9466  -22.5597 N   0  0  0  0  0  0  0  0  0  0  0  0
   -5.4193   -6.3004  -24.4839 O   0  0  0  0  0  0  0  0  0  0  0  0
   -3.8197   -6.6770  -22.6685 O   0  0  0  0  0  0  0  0  0  0  0  0
   -7.0798   -7.8531  -22.7997 H   0  0  0  0  0  0  0  0  0  0  0  0
   -5.9992   -8.0827  -21.5532 H   0  0  0  0  0  0  0  0  0  0  0  0
 21 20  1  0  0  0
 21 22  1  0  0  0
 21  1  1  0  0  0
 22 23  1  0  0  0
 22 25  1  0  0  0
 23 24  2  0  0  0
 23 26  1  0  0  0
 26 27  1  0  0  0
 27 28  1  0  0  0
 28 29  1  0  0  0
 28 30  2  0  0  0
 28 31  2  0  0  0
 29 32  1  0  0  0
 29 33  1  0  0  0
  1  2  2  0  0  0
  2  3  1  0  0  0
  3  4  1  0  0  0
  3  5  2  0  0  0
  5  6  1  0  0  0
  6  8  1  0  0  0
  6  7  2  0  0  0
  8  9  2  0  0  0
  9 10  1  0  0  0
 10 11  2  0  0  0
 11 14  1  0  0  0
 11 12  1  0  0  0
 14 15  1  0  0  0
 14 16  2  0  0  0
 14 17  2  0  0  0
 15 18  1  0  0  0
 15 19  1  0  0  0
 12 13  2  0  0  0
 13  8  1  0  0  0
  7  1  1  0  0  0
M  END
> <minimizedAffinity>
-7.01329

> <CNNscore>
0.6880393624

> <CNNaffinity>
5.8584461212

> <CNN_VS>
4.0308413506

> <CNNaffinity_variance>
0.0246975925

$$$$



 33 34  0  0  0  0  0  0  0  0999 V2000
  -10.1475   -1.1842  -23.0032 C   0  0  0  0  0  0  0  0  0  0  0  0
  -11.1138   -2.0918  -22.6420 C   0  0  0  0  0  0  0  0  0  0  0  0
  -12.4509   -1.7072  -22.6969 C   0  0  0  0  0  0  0  0  0  0  0  0
  -13.6987   -2.8721  -22.2330 Cl  0  0  0  0  0  0  0  0  0  0  0  0
  -12.8285   -0.4354  -23.1057 C   0  0  0  0  0  0  0  0  0  0  0  0
  -11.8592    0.4666  -23.4652 C   0  0  0  0  0  0  0  0  0  0  0  0
  -10.5290    0.0878  -23.4117 C   0  0  0  0  0  0  0  0  0  0  0  0
  -12.1416    1.8276  -23.9089 C   0  0  0  0  0  0  0  0  0  0  0  0
  -11.1361    2.5921  -24.4251 C   0  0  0  0  0  0  0  0  0  0  0  0
  -11.4106    3.8776  -24.8422 C   0  0  0  0  0  0  0  0  0  0  0  0
  -12.6893    4.3400  -24.7215 C   0  0  0  0  0  0  0  0  0  0  0  0
  -13.7134    3.5594  -24.1949 C   0  0  0  0  0  0  0  0  0  0  0  0
  -13.4468    2.2760  -23.7768 C   0  0  0  0  0  0  0  0  0  0  0  0
  -13.0509    5.9718  -25.2479 S   0  0  0  0  0  0  0  0  0  0  0  0
  -13.9673    5.9455  -26.7136 N   0  0  0  0  0  0  0  0  0  0  0  0
  -13.8751    6.6680  -24.2020 O   0  0  0  0  0  0  0  0  0  0  0  0
  -11.7689    6.7346  -25.4296 O   0  0  0  0  0  0  0  0  0  0  0  0
  -14.8308    5.4232  -26.5654 H   0  0  0  0  0  0  0  0  0  0  0  0
  -13.4205    5.4968  -27.4485 H   0  0  0  0  0  0  0  0  0  0  0  0
   -8.2906   -1.6959  -21.5280 C   0  0  0  0  0  0  0  0  0  0  0  0
   -8.7134   -1.5119  -22.9724 C   0  0  0  0  0  0  0  0  0  0  0  0
   -7.9831   -0.3550  -23.4821 N   0  0  0  0  0  0  0  0  0  0  0  0
   -6.9628   -0.5350  -24.4702 C   0  0  0  0  0  0  0  0  0  0  0  0
   -6.7283   -1.7128  -24.8721 O   0  0  0  0  0  0  0  0  0  0  0  0
   -8.1919    0.5469  -23.1470 H   0  0  0  0  0  0  0  0  0  0  0  0
   -6.2040    0.6271  -25.0058 C   0  0  0  0  0  0  0  0  0  0  0  0
   -5.6219    0.2653  -26.2067 O   0  0  0  0  0  0  0  0  0  0  0  0
   -3.9759   -0.0390  -25.9146 S   0  0  0  0  0  0  0  0  0  0  0  0
   -3.7214   -1.6792  -25.6388 N   0  0  0  0  0  0  0  0  0  0  0  0
   -3.1935    0.4299  -27.1014 O   0  0  0  0  0  0  0  0  0  0  0  0
   -3.5825    0.7497  -24.7050 O   0  0  0  0  0  0  0  0  0  0  0  0
   -3.9917   -2.2092  -26.4672 H   0  0  0  0  0  0  0  0  0  0  0  0
   -4.2837   -1.9814  -24.8433 H   0  0  0  0  0  0  0  0  0  0  0  0
 21 20  1  0  0  0
 21 22  1  0  0  0
 21  1  1  0  0  0
 22 23  1  0  0  0
 22 25  1  0  0  0
 23 24  2  0  0  0
 23 26  1  0  0  0
 26 27  1  0  0  0
 27 28  1  0  0  0
 28 29  1  0  0  0
 28 30  2  0  0  0
 28 31  2  0  0  0
 29 32  1  0  0  0
 29 33  1  0  0  0
  1  2  2  0  0  0
  2  3  1  0  0  0
  3  4  1  0  0  0
  3  5  2  0  0  0
  5  6  1  0  0  0
  6  8  1  0  0  0
  6  7  2  0  0  0
  8  9  2  0  0  0
  9 10  1  0  0  0
 10 11  2  0  0  0
 11 14  1  0  0  0
 11 12  1  0  0  0
 14 15  1  0  0  0
 14 16  2  0  0  0
 14 17  2  0  0  0
 15 18  1  0  0  0
 15 19  1  0  0  0
 12 13  2  0  0  0
 13  8  1  0  0  0
  7  1  1  0  0  0
M  END
> <minimizedAffinity>
-5.73360

> <CNNscore>
0.6566399336

> <CNNaffinity>
5.4555711746

> <CNN_VS>
3.5823459625

> <CNNaffinity_variance>
0.1331409514

$$$$



 33 34  0  0  0  0  0  0  0  0999 V2000
  -10.2793   -1.6547  -23.2047 C   0  0  0  0  0  0  0  0  0  0  0  0
  -11.2627   -2.4936  -22.7388 C   0  0  0  0  0  0  0  0  0  0  0  0
  -12.5604   -2.0044  -22.6152 C   0  0  0  0  0  0  0  0  0  0  0  0
  -13.8299   -3.0806  -22.0160 Cl  0  0  0  0  0  0  0  0  0  0  0  0
  -12.8822   -0.6960  -22.9498 C   0  0  0  0  0  0  0  0  0  0  0  0
  -11.8961    0.1371  -23.4145 C   0  0  0  0  0  0  0  0  0  0  0  0
  -10.6050   -0.3459  -23.5385 C   0  0  0  0  0  0  0  0  0  0  0  0
  -12.1210    1.5278  -23.7943 C   0  0  0  0  0  0  0  0  0  0  0  0
  -11.0747    2.2859  -24.2328 C   0  0  0  0  0  0  0  0  0  0  0  0
  -11.2949    3.5996  -24.5898 C   0  0  0  0  0  0  0  0  0  0  0  0
  -12.5628    4.0956  -24.4898 C   0  0  0  0  0  0  0  0  0  0  0  0
  -13.6286    3.3215  -24.0425 C   0  0  0  0  0  0  0  0  0  0  0  0
  -13.4162    2.0101  -23.6846 C   0  0  0  0  0  0  0  0  0  0  0  0
  -12.8556    5.7634  -24.9404 S   0  0  0  0  0  0  0  0  0  0  0  0
  -13.8045    5.8426  -26.3834 N   0  0  0  0  0  0  0  0  0  0  0  0
  -13.6213    6.4541  -23.8473 O   0  0  0  0  0  0  0  0  0  0  0  0
  -11.5421    6.4708  -25.1219 O   0  0  0  0  0  0  0  0  0  0  0  0
  -14.6891    5.3567  -26.2357 H   0  0  0  0  0  0  0  0  0  0  0  0
  -13.2968    5.3993  -27.1489 H   0  0  0  0  0  0  0  0  0  0  0  0
   -8.1206   -1.0184  -24.1108 C   0  0  0  0  0  0  0  0  0  0  0  0
   -8.8841   -2.0942  -23.3635 C   0  0  0  0  0  0  0  0  0  0  0  0
   -8.8869   -3.2795  -24.2159 N   0  0  0  0  0  0  0  0  0  0  0  0
   -8.1825   -4.4557  -23.8033 C   0  0  0  0  0  0  0  0  0  0  0  0
   -7.5726   -4.4225  -22.6941 O   0  0  0  0  0  0  0  0  0  0  0  0
   -9.3722   -3.2700  -25.0725 H   0  0  0  0  0  0  0  0  0  0  0  0
   -8.1695   -5.6765  -24.6533 C   0  0  0  0  0  0  0  0  0  0  0  0
   -8.1721   -5.2953  -25.9824 O   0  0  0  0  0  0  0  0  0  0  0  0
   -9.3434   -6.2268  -26.7872 S   0  0  0  0  0  0  0  0  0  0  0  0
   -9.3872   -5.8311  -28.4220 N   0  0  0  0  0  0  0  0  0  0  0  0
   -9.0058   -7.6726  -26.5974 O   0  0  0  0  0  0  0  0  0  0  0  0
  -10.6659   -5.9281  -26.1534 O   0  0  0  0  0  0  0  0  0  0  0  0
   -8.4829   -6.0374  -28.8462 H   0  0  0  0  0  0  0  0  0  0  0  0
   -9.5927   -4.8374  -28.5259 H   0  0  0  0  0  0  0  0  0  0  0  0
 21 20  1  0  0  0
 21 22  1  0  0  0
 21  1  1  0  0  0
 22 23  1  0  0  0
 22 25  1  0  0  0
 23 24  2  0  0  0
 23 26  1  0  0  0
 26 27  1  0  0  0
 27 28  1  0  0  0
 28 29  1  0  0  0
 28 30  2  0  0  0
 28 31  2  0  0  0
 29 32  1  0  0  0
 29 33  1  0  0  0
  1  2  2  0  0  0
  2  3  1  0  0  0
  3  4  1  0  0  0
  3  5  2  0  0  0
  5  6  1  0  0  0
  6  8  1  0  0  0
  6  7  2  0  0  0
  8  9  2  0  0  0
  9 10  1  0  0  0
 10 11  2  0  0  0
 11 14  1  0  0  0
 11 12  1  0  0  0
 14 15  1  0  0  0
 14 16  2  0  0  0
 14 17  2  0  0  0
 15 18  1  0  0  0
 15 19  1  0  0  0
 12 13  2  0  0  0
 13  8  1  0  0  0
  7  1  1  0  0  0
M  END
> <minimizedAffinity>
-7.20759

> <CNNscore>
0.6051684618

> <CNNaffinity>
5.9798607826

> <CNN_VS>
3.6188230515

> <CNNaffinity_variance>
0.0470127836

$$$$



 33 34  0  0  0  0  0  0  0  0999 V2000
  -10.3740   -2.6095  -24.0869 C   0  0  0  0  0  0  0  0  0  0  0  0
  -11.4222   -3.0805  -23.3336 C   0  0  0  0  0  0  0  0  0  0  0  0
  -12.2941   -2.1657  -22.7493 C   0  0  0  0  0  0  0  0  0  0  0  0
  -13.6452   -2.7671  -21.7787 Cl  0  0  0  0  0  0  0  0  0  0  0  0
  -12.1302   -0.7964  -22.9091 C   0  0  0  0  0  0  0  0  0  0  0  0
  -11.0818   -0.3320  -23.6624 C   0  0  0  0  0  0  0  0  0  0  0  0
  -10.2130   -1.2385  -24.2446 C   0  0  0  0  0  0  0  0  0  0  0  0
  -10.8145    1.0833  -23.8957 C   0  0  0  0  0  0  0  0  0  0  0  0
  -11.7048    2.0200  -23.4576 C   0  0  0  0  0  0  0  0  0  0  0  0
  -11.4454    3.3558  -23.6819 C   0  0  0  0  0  0  0  0  0  0  0  0
  -10.2976    3.6926  -24.3396 C   0  0  0  0  0  0  0  0  0  0  0  0
   -9.3909    2.7365  -24.7857 C   0  0  0  0  0  0  0  0  0  0  0  0
   -9.6431    1.4020  -24.5654 C   0  0  0  0  0  0  0  0  0  0  0  0
   -9.9567    5.3865  -24.6308 S   0  0  0  0  0  0  0  0  0  0  0  0
   -8.8434    5.5629  -25.9416 N   0  0  0  0  0  0  0  0  0  0  0  0
  -11.2256    6.0990  -25.0054 O   0  0  0  0  0  0  0  0  0  0  0  0
   -9.4128    6.0104  -23.3765 O   0  0  0  0  0  0  0  0  0  0  0  0
   -9.2341    5.1327  -26.7799 H   0  0  0  0  0  0  0  0  0  0  0  0
   -7.9630    5.1061  -25.7038 H   0  0  0  0  0  0  0  0  0  0  0  0
  -10.0891   -4.1795  -25.9146 C   0  0  0  0  0  0  0  0  0  0  0  0
   -9.4085   -3.5100  -24.7367 C   0  0  0  0  0  0  0  0  0  0  0  0
   -9.0768   -4.5658  -23.7846 N   0  0  0  0  0  0  0  0  0  0  0  0
   -7.8790   -5.3310  -23.9576 C   0  0  0  0  0  0  0  0  0  0  0  0
   -7.1392   -5.0575  -24.9482 O   0  0  0  0  0  0  0  0  0  0  0  0
   -9.6754   -4.7513  -23.0252 H   0  0  0  0  0  0  0  0  0  0  0  0
   -7.5181   -6.4124  -23.0018 C   0  0  0  0  0  0  0  0  0  0  0  0
   -6.2789   -6.9189  -23.3477 O   0  0  0  0  0  0  0  0  0  0  0  0
   -5.1815   -6.4855  -22.1250 S   0  0  0  0  0  0  0  0  0  0  0  0
   -5.2413   -4.8279  -21.8423 N   0  0  0  0  0  0  0  0  0  0  0  0
   -5.5309   -7.2506  -20.8870 O   0  0  0  0  0  0  0  0  0  0  0  0
   -3.8140   -6.8752  -22.5921 O   0  0  0  0  0  0  0  0  0  0  0  0
   -6.1758   -4.5707  -21.5246 H   0  0  0  0  0  0  0  0  0  0  0  0
   -5.0258   -4.3279  -22.7048 H   0  0  0  0  0  0  0  0  0  0  0  0
 21 20  1  0  0  0
 21 22  1  0  0  0
 21  1  1  0  0  0
 22 23  1  0  0  0
 22 25  1  0  0  0
 23 24  2  0  0  0
 23 26  1  0  0  0
 26 27  1  0  0  0
 27 28  1  0  0  0
 28 29  1  0  0  0
 28 30  2  0  0  0
 28 31  2  0  0  0
 29 32  1  0  0  0
 29 33  1  0  0  0
  1  2  2  0  0  0
  2  3  1  0  0  0
  3  4  1  0  0  0
  3  5  2  0  0  0
  5  6  1  0  0  0
  6  8  1  0  0  0
  6  7  2  0  0  0
  8  9  2  0  0  0
  9 10  1  0  0  0
 10 11  2  0  0  0
 11 14  1  0  0  0
 11 12  1  0  0  0
 14 15  1  0  0  0
 14 16  2  0  0  0
 14 17  2  0  0  0
 15 18  1  0  0  0
 15 19  1  0  0  0
 12 13  2  0  0  0
 13  8  1  0  0  0
  7  1  1  0  0  0
M  END
> <minimizedAffinity>
-6.59033

> <CNNscore>
0.5913693905

> <CNNaffinity>
5.8024773598

> <CNN_VS>
3.4314074516

> <CNNaffinity_variance>
0.0733995885

$$$$



 38 42  0  0  0  0  0  0  0  0999 V2000
   -8.0067   -1.8390  -23.8929 N   0  0  0  0  0  0  0  0  0  0  0  0
   -7.5914   -0.5107  -24.2518 C   0  0  0  0  0  0  0  0  0  0  0  0
   -7.1796    0.3771  -23.1287 C   0  0  0  0  0  0  0  0  0  0  0  0
   -8.4514    1.0820  -22.6899 C   0  0  0  0  0  0  0  0  0  0  0  0
   -9.2020    0.7803  -21.7295 O   0  0  0  0  0  0  0  0  0  0  0  0
   -8.5899    2.1538  -23.6140 N   0  0  0  0  0  0  0  0  0  0  0  0
   -7.3924    2.2885  -24.4275 C   0  0  0  0  0  0  0  0  0  0  0  0
   -6.3817    1.5557  -23.5312 C   0  0  0  0  0  0  0  0  0  0  0  0
   -6.5580   -0.2952  -21.9732 C   0  0  0  0  0  0  0  0  0  0  0  0
   -5.8389    0.3560  -20.9928 C   0  0  0  0  0  0  0  0  0  0  0  0
   -5.2682   -0.2643  -19.9086 C   0  0  0  0  0  0  0  0  0  0  0  0
   -4.3669    0.6180  -18.6959 Cl  0  0  0  0  0  0  0  0  0  0  0  0
   -5.3901   -1.6503  -19.7304 C   0  0  0  0  0  0  0  0  0  0  0  0
   -6.0985   -2.3145  -20.6899 C   0  0  0  0  0  0  0  0  0  0  0  0
   -6.6658   -1.6887  -21.7711 C   0  0  0  0  0  0  0  0  0  0  0  0
   -7.4103   -2.4419  -22.7684 C   0  0  0  0  0  0  0  0  0  0  0  0
   -7.4887   -3.7059  -22.5541 O   0  0  0  0  0  0  0  0  0  0  0  0
   -9.7134    3.0312  -23.7879 C   0  0  0  0  0  0  0  0  0  0  0  0
   -9.4946    4.4037  -24.0075 C   0  0  0  0  0  0  0  0  0  0  0  0
  -10.5979    5.1988  -24.1555 N   0  0  0  0  0  0  0  0  0  0  0  0
  -11.8571    4.7196  -24.0988 C   0  0  0  0  0  0  0  0  0  0  0  0
  -12.1179    3.3642  -23.8827 C   0  0  0  0  0  0  0  0  0  0  0  0
  -13.4030    2.8632  -23.8223 C   0  0  0  0  0  0  0  0  0  0  0  0
  -13.5205    1.5103  -23.6044 C   0  0  0  0  0  0  0  0  0  0  0  0
  -12.4633    0.6502  -23.4472 C   0  0  0  0  0  0  0  0  0  0  0  0
  -11.1905    1.1988  -23.5152 C   0  0  0  0  0  0  0  0  0  0  0  0
  -10.9981    2.5710  -23.7350 C   0  0  0  0  0  0  0  0  0  0  0  0
   -9.0154   -2.5948  -24.6440 C   0  0  0  0  0  0  0  0  0  0  0  0
  -12.0371   -2.6575  -22.2779 C   0  0  0  0  0  0  0  0  0  0  0  0
  -10.6605   -2.8443  -22.6970 N   0  0  0  0  0  0  0  0  0  0  0  0
  -10.3374   -2.4822  -24.0275 C   0  0  0  0  0  0  0  0  0  0  0  0
  -11.2855   -2.0247  -24.7294 O   0  0  0  0  0  0  0  0  0  0  0  0
   -9.9811   -3.2066  -22.0836 H   0  0  0  0  0  0  0  0  0  0  0  0
   -5.0922    1.3281  -24.2409 C   0  0  0  0  0  0  0  0  0  0  0  0
   -4.2440    2.3653  -23.9962 O   0  0  0  0  0  0  0  0  0  0  0  0
   -3.1919    2.1729  -23.1549 C   0  0  0  0  0  0  0  0  0  0  0  0
   -3.3131    2.8019  -21.8077 C   0  0  0  0  0  0  0  0  0  0  0  0
   -2.8214    0.7174  -22.9522 C   0  0  0  0  0  0  0  0  0  0  0  0
 29 30  1  0  0  0
 30 31  1  0  0  0
 30 33  1  0  0  0
 31 32  2  0  0  0
 31 28  1  0  0  0
 28  1  1  0  0  0
  1  2  1  0  0  0
  3  2  1  0  0  0
  3  4  1  0  0  0
  3  9  1  0  0  0
  4  5  2  0  0  0
  4  6  1  0  0  0
  6 18  1  0  0  0
  6  7  1  0  0  0
 18 19  2  0  0  0
 19 20  1  0  0  0
 20 21  2  0  0  0
 21 22  1  0  0  0
 22 23  2  0  0  0
 23 24  1  0  0  0
 24 25  2  0  0  0
 25 26  1  0  0  0
 26 27  2  0  0  0
 27 18  1  0  0  0
 27 22  1  0  0  0
  7  8  1  0  0  0
  8 34  1  0  0  0
  8  3  1  0  0  0
 34 35  1  0  0  0
 35 36  1  0  0  0
 36 37  1  0  0  0
 36 38  1  0  0  0
  9 10  2  0  0  0
 10 11  1  0  0  0
 11 12  1  0  0  0
 11 13  2  0  0  0
 13 14  1  0  0  0
 14 15  2  0  0  0
 15 16  1  0  0  0
 15  9  1  0  0  0
 16 17  2  0  0  0
 16  1  1  0  0  0
M  END
> <minimizedAffinity>
-7.97375

> <CNNscore>
0.4225750566

> <CNNaffinity>
6.2986307144

> <CNN_VS>
2.6616442204

> <CNNaffinity_variance>
0.1253552735

$$$$



 38 42  0  0  0  0  0  0  0  0999 V2000
   -7.0088   -2.3112  -22.3866 N   0  0  0  0  0  0  0  0  0  0  0  0
   -7.3842   -1.4596  -23.4820 C   0  0  0  0  0  0  0  0  0  0  0  0
   -7.1160   -0.0047  -23.3075 C   0  0  0  0  0  0  0  0  0  0  0  0
   -8.3727    0.5591  -22.6672 C   0  0  0  0  0  0  0  0  0  0  0  0
   -8.5726    0.7948  -21.4501 O   0  0  0  0  0  0  0  0  0  0  0  0
   -9.2604    0.7553  -23.7606 N   0  0  0  0  0  0  0  0  0  0  0  0
   -8.5663    0.5721  -25.0248 C   0  0  0  0  0  0  0  0  0  0  0  0
   -7.1159    0.7800  -24.5613 C   0  0  0  0  0  0  0  0  0  0  0  0
   -5.9409    0.3378  -22.4856 C   0  0  0  0  0  0  0  0  0  0  0  0
   -5.3493    1.5835  -22.4610 C   0  0  0  0  0  0  0  0  0  0  0  0
   -4.2621    1.9104  -21.6884 C   0  0  0  0  0  0  0  0  0  0  0  0
   -3.5561    3.5113  -21.7001 Cl  0  0  0  0  0  0  0  0  0  0  0  0
   -3.6691    0.9575  -20.8470 C   0  0  0  0  0  0  0  0  0  0  0  0
   -4.2394   -0.2828  -20.8561 C   0  0  0  0  0  0  0  0  0  0  0  0
   -5.3255   -0.6029  -21.6310 C   0  0  0  0  0  0  0  0  0  0  0  0
   -5.8961   -1.9409  -21.6066 C   0  0  0  0  0  0  0  0  0  0  0  0
   -5.3125   -2.7709  -20.8191 O   0  0  0  0  0  0  0  0  0  0  0  0
  -10.6561    1.0905  -23.7165 C   0  0  0  0  0  0  0  0  0  0  0  0
  -11.0593    2.4166  -23.9593 C   0  0  0  0  0  0  0  0  0  0  0  0
  -12.3988    2.6865  -23.8944 N   0  0  0  0  0  0  0  0  0  0  0  0
  -13.3215    1.7446  -23.6120 C   0  0  0  0  0  0  0  0  0  0  0  0
  -12.9635    0.4169  -23.3648 C   0  0  0  0  0  0  0  0  0  0  0  0
  -13.8998   -0.5551  -23.0741 C   0  0  0  0  0  0  0  0  0  0  0  0
  -13.4141   -1.8225  -22.8515 C   0  0  0  0  0  0  0  0  0  0  0  0
  -12.0878   -2.1699  -22.8996 C   0  0  0  0  0  0  0  0  0  0  0  0
  -11.1833   -1.1597  -23.1950 C   0  0  0  0  0  0  0  0  0  0  0  0
  -11.6100    0.1553  -23.4331 C   0  0  0  0  0  0  0  0  0  0  0  0
   -7.7251   -3.5462  -22.0484 C   0  0  0  0  0  0  0  0  0  0  0  0
   -8.1676   -6.0251  -24.9454 C   0  0  0  0  0  0  0  0  0  0  0  0
   -8.5434   -4.9937  -23.9964 N   0  0  0  0  0  0  0  0  0  0  0  0
   -7.5498   -4.5668  -23.0821 C   0  0  0  0  0  0  0  0  0  0  0  0
   -6.4197   -5.1269  -23.1811 O   0  0  0  0  0  0  0  0  0  0  0  0
   -9.4491   -4.6079  -23.9885 H   0  0  0  0  0  0  0  0  0  0  0  0
   -6.1464    0.4075  -25.6287 C   0  0  0  0  0  0  0  0  0  0  0  0
   -6.7895   -0.2774  -26.6148 O   0  0  0  0  0  0  0  0  0  0  0  0
   -6.2681   -1.4579  -27.0463 C   0  0  0  0  0  0  0  0  0  0  0  0
   -5.0357   -1.9198  -26.3441 C   0  0  0  0  0  0  0  0  0  0  0  0
   -7.2567   -2.6066  -27.0459 C   0  0  0  0  0  0  0  0  0  0  0  0
 29 30  1  0  0  0
 30 31  1  0  0  0
 30 33  1  0  0  0
 31 32  2  0  0  0
 31 28  1  0  0  0
 28  1  1  0  0  0
  1  2  1  0  0  0
  3  2  1  0  0  0
  3  4  1  0  0  0
  3  9  1  0  0  0
  4  5  2  0  0  0
  4  6  1  0  0  0
  6 18  1  0  0  0
  6  7  1  0  0  0
 18 19  2  0  0  0
 19 20  1  0  0  0
 20 21  2  0  0  0
 21 22  1  0  0  0
 22 23  2  0  0  0
 23 24  1  0  0  0
 24 25  2  0  0  0
 25 26  1  0  0  0
 26 27  2  0  0  0
 27 18  1  0  0  0
 27 22  1  0  0  0
  7  8  1  0  0  0
  8 34  1  0  0  0
  8  3  1  0  0  0
 34 35  1  0  0  0
 35 36  1  0  0  0
 36 37  1  0  0  0
 36 38  1  0  0  0
  9 10  2  0  0  0
 10 11  1  0  0  0
 11 12  1  0  0  0
 11 13  2  0  0  0
 13 14  1  0  0  0
 14 15  2  0  0  0
 15 16  1  0  0  0
 15  9  1  0  0  0
 16 17  2  0  0  0
 16  1  1  0  0  0
M  END
> <minimizedAffinity>
-6.99211

> <CNNscore>
0.3994928002

> <CNNaffinity>
6.3190679550

> <CNN_VS>
2.5244221687

> <CNNaffinity_variance>
0.0699445158

$$$$



 38 42  0  0  0  0  0  0  0  0999 V2000
   -6.1377   -2.9256  -21.3662 N   0  0  0  0  0  0  0  0  0  0  0  0
   -7.2556   -2.0964  -21.7249 C   0  0  0  0  0  0  0  0  0  0  0  0
   -7.8960   -2.3856  -23.0384 C   0  0  0  0  0  0  0  0  0  0  0  0
   -7.1555   -1.5197  -24.0430 C   0  0  0  0  0  0  0  0  0  0  0  0
   -6.2190   -1.8624  -24.8061 O   0  0  0  0  0  0  0  0  0  0  0  0
   -7.7674   -0.2424  -23.9167 N   0  0  0  0  0  0  0  0  0  0  0  0
   -8.9596   -0.3237  -23.0885 C   0  0  0  0  0  0  0  0  0  0  0  0
   -9.2560   -1.8274  -23.2009 C   0  0  0  0  0  0  0  0  0  0  0  0
   -7.8621   -3.7939  -23.4733 C   0  0  0  0  0  0  0  0  0  0  0  0
   -8.6515   -4.3136  -24.4779 C   0  0  0  0  0  0  0  0  0  0  0  0
   -8.6151   -5.6217  -24.8944 C   0  0  0  0  0  0  0  0  0  0  0  0
   -9.6427   -6.2219  -26.1770 Cl  0  0  0  0  0  0  0  0  0  0  0  0
   -7.7374   -6.5390  -24.2977 C   0  0  0  0  0  0  0  0  0  0  0  0
   -6.9465   -6.0450  -23.3006 C   0  0  0  0  0  0  0  0  0  0  0  0
   -6.9883   -4.7368  -22.8890 C   0  0  0  0  0  0  0  0  0  0  0  0
   -6.1255   -4.2590  -21.8196 C   0  0  0  0  0  0  0  0  0  0  0  0
   -5.3439   -5.1421  -21.3106 O   0  0  0  0  0  0  0  0  0  0  0  0
   -7.3405    1.0026  -24.4911 C   0  0  0  0  0  0  0  0  0  0  0  0
   -7.7513    1.3433  -25.7931 C   0  0  0  0  0  0  0  0  0  0  0  0
   -7.3083    2.5346  -26.2989 N   0  0  0  0  0  0  0  0  0  0  0  0
   -6.5100    3.3715  -25.6055 C   0  0  0  0  0  0  0  0  0  0  0  0
   -6.0797    3.0712  -24.3106 C   0  0  0  0  0  0  0  0  0  0  0  0
   -5.2620    3.9205  -23.5922 C   0  0  0  0  0  0  0  0  0  0  0  0
   -4.9118    3.5056  -22.3286 C   0  0  0  0  0  0  0  0  0  0  0  0
   -5.3160    2.3274  -21.7537 C   0  0  0  0  0  0  0  0  0  0  0  0
   -6.1366    1.5058  -22.5135 C   0  0  0  0  0  0  0  0  0  0  0  0
   -6.5325    1.8675  -23.8098 C   0  0  0  0  0  0  0  0  0  0  0  0
   -5.0160   -2.4505  -20.5484 C   0  0  0  0  0  0  0  0  0  0  0  0
   -5.8413    0.2398  -17.9381 C   0  0  0  0  0  0  0  0  0  0  0  0
   -5.3025   -0.3132  -19.1665 N   0  0  0  0  0  0  0  0  0  0  0  0
   -5.4837   -1.7011  -19.3821 C   0  0  0  0  0  0  0  0  0  0  0  0
   -6.1048   -2.3319  -18.4781 O   0  0  0  0  0  0  0  0  0  0  0  0
   -4.8316    0.2514  -19.8213 H   0  0  0  0  0  0  0  0  0  0  0  0
  -10.3120   -2.2458  -22.2375 C   0  0  0  0  0  0  0  0  0  0  0  0
  -11.4892   -2.4297  -22.8976 O   0  0  0  0  0  0  0  0  0  0  0  0
  -12.5845   -1.7259  -22.5018 C   0  0  0  0  0  0  0  0  0  0  0  0
  -13.0611   -0.6772  -23.4496 C   0  0  0  0  0  0  0  0  0  0  0  0
  -13.7741   -2.5900  -22.1344 C   0  0  0  0  0  0  0  0  0  0  0  0
 29 30  1  0  0  0
 30 31  1  0  0  0
 30 33  1  0  0  0
 31 32  2  0  0  0
 31 28  1  0  0  0
 28  1  1  0  0  0
  1  2  1  0  0  0
  3  2  1  0  0  0
  3  4  1  0  0  0
  3  9  1  0  0  0
  4  5  2  0  0  0
  4  6  1  0  0  0
  6 18  1  0  0  0
  6  7  1  0  0  0
 18 19  2  0  0  0
 19 20  1  0  0  0
 20 21  2  0  0  0
 21 22  1  0  0  0
 22 23  2  0  0  0
 23 24  1  0  0  0
 24 25  2  0  0  0
 25 26  1  0  0  0
 26 27  2  0  0  0
 27 18  1  0  0  0
 27 22  1  0  0  0
  7  8  1  0  0  0
  8 34  1  0  0  0
  8  3  1  0  0  0
 34 35  1  0  0  0
 35 36  1  0  0  0
 36 37  1  0  0  0
 36 38  1  0  0  0
  9 10  2  0  0  0
 10 11  1  0  0  0
 11 12  1  0  0  0
 11 13  2  0  0  0
 13 14  1  0  0  0
 14 15  2  0  0  0
 15 16  1  0  0  0
 15  9  1  0  0  0
 16 17  2  0  0  0
 16  1  1  0  0  0
M  END
> <minimizedAffinity>
-7.57517

> <CNNscore>
0.3831307888

> <CNNaffinity>
6.4863052368

> <CNN_VS>
2.4851031303

> <CNNaffinity_variance>
0.2372618020

$$$$



 38 42  0  0  0  0  0  0  0  0999 V2000
   -6.9872   -2.3323  -22.4145 N   0  0  0  0  0  0  0  0  0  0  0  0
   -7.3367   -1.4476  -23.4919 C   0  0  0  0  0  0  0  0  0  0  0  0
   -7.0752    0.0014  -23.2660 C   0  0  0  0  0  0  0  0  0  0  0  0
   -8.3481    0.5442  -22.6399 C   0  0  0  0  0  0  0  0  0  0  0  0
   -8.5784    0.7420  -21.4215 O   0  0  0  0  0  0  0  0  0  0  0  0
   -9.2088    0.7734  -23.7483 N   0  0  0  0  0  0  0  0  0  0  0  0
   -8.4834    0.6299  -25.0001 C   0  0  0  0  0  0  0  0  0  0  0  0
   -7.0453    0.8245  -24.4946 C   0  0  0  0  0  0  0  0  0  0  0  0
   -5.9212    0.3193  -22.4052 C   0  0  0  0  0  0  0  0  0  0  0  0
   -5.3324    1.5641  -22.3274 C   0  0  0  0  0  0  0  0  0  0  0  0
   -4.2651    1.8678  -21.5184 C   0  0  0  0  0  0  0  0  0  0  0  0
   -3.5615    3.4689  -21.4632 Cl  0  0  0  0  0  0  0  0  0  0  0  0
   -3.6916    0.8898  -20.6924 C   0  0  0  0  0  0  0  0  0  0  0  0
   -4.2596   -0.3500  -20.7540 C   0  0  0  0  0  0  0  0  0  0  0  0
   -5.3257   -0.6469  -21.5650 C   0  0  0  0  0  0  0  0  0  0  0  0
   -5.8947   -1.9855  -21.5961 C   0  0  0  0  0  0  0  0  0  0  0  0
   -5.3293   -2.8390  -20.8205 O   0  0  0  0  0  0  0  0  0  0  0  0
  -10.6057    1.1060  -23.7285 C   0  0  0  0  0  0  0  0  0  0  0  0
  -11.0087    2.4263  -24.0010 C   0  0  0  0  0  0  0  0  0  0  0  0
  -12.3495    2.6942  -23.9584 N   0  0  0  0  0  0  0  0  0  0  0  0
  -13.2737    1.7554  -23.6705 C   0  0  0  0  0  0  0  0  0  0  0  0
  -12.9160    0.4334  -23.3941 C   0  0  0  0  0  0  0  0  0  0  0  0
  -13.8539   -0.5353  -23.0975 C   0  0  0  0  0  0  0  0  0  0  0  0
  -13.3683   -1.7972  -22.8452 C   0  0  0  0  0  0  0  0  0  0  0  0
  -12.0407   -2.1422  -22.8697 C   0  0  0  0  0  0  0  0  0  0  0  0
  -11.1347   -1.1355  -23.1721 C   0  0  0  0  0  0  0  0  0  0  0  0
  -11.5612    0.1738  -23.4400 C   0  0  0  0  0  0  0  0  0  0  0  0
   -7.7097   -3.5778  -22.1324 C   0  0  0  0  0  0  0  0  0  0  0  0
   -7.9275   -6.2779  -24.8518 C   0  0  0  0  0  0  0  0  0  0  0  0
   -8.4094   -5.2993  -23.8950 N   0  0  0  0  0  0  0  0  0  0  0  0
   -7.4344   -4.5973  -23.1451 C   0  0  0  0  0  0  0  0  0  0  0  0
   -6.2268   -4.8898  -23.3836 O   0  0  0  0  0  0  0  0  0  0  0  0
   -9.3715   -5.1308  -23.7724 H   0  0  0  0  0  0  0  0  0  0  0  0
   -6.0491    0.4860  -25.5487 C   0  0  0  0  0  0  0  0  0  0  0  0
   -5.7424    1.6023  -26.2664 O   0  0  0  0  0  0  0  0  0  0  0  0
   -5.6151    2.7906  -25.6157 C   0  0  0  0  0  0  0  0  0  0  0  0
   -4.2187    3.2743  -25.4123 C   0  0  0  0  0  0  0  0  0  0  0  0
   -6.4090    3.9226  -26.2363 C   0  0  0  0  0  0  0  0  0  0  0  0
 29 30  1  0  0  0
 30 31  1  0  0  0
 30 33  1  0  0  0
 31 32  2  0  0  0
 31 28  1  0  0  0
 28  1  1  0  0  0
  1  2  1  0  0  0
  3  2  1  0  0  0
  3  4  1  0  0  0
  3  9  1  0  0  0
  4  5  2  0  0  0
  4  6  1  0  0  0
  6 18  1  0  0  0
  6  7  1  0  0  0
 18 19  2  0  0  0
 19 20  1  0  0  0
 20 21  2  0  0  0
 21 22  1  0  0  0
 22 23  2  0  0  0
 23 24  1  0  0  0
 24 25  2  0  0  0
 25 26  1  0  0  0
 26 27  2  0  0  0
 27 18  1  0  0  0
 27 22  1  0  0  0
  7  8  1  0  0  0
  8 34  1  0  0  0
  8  3  1  0  0  0
 34 35  1  0  0  0
 35 36  1  0  0  0
 36 37  1  0  0  0
 36 38  1  0  0  0
  9 10  2  0  0  0
 10 11  1  0  0  0
 11 12  1  0  0  0
 11 13  2  0  0  0
 13 14  1  0  0  0
 14 15  2  0  0  0
 15 16  1  0  0  0
 15  9  1  0  0  0
 16 17  2  0  0  0
 16  1  1  0  0  0
M  END
> <minimizedAffinity>
-6.99815

> <CNNscore>
0.3560214937

> <CNNaffinity>
6.2926549911

> <CNN_VS>
2.2403204441

> <CNNaffinity_variance>
0.0454316661

$$$$



 38 42  0  0  0  0  0  0  0  0999 V2000
   -7.9462   -2.5385  -23.6173 N   0  0  0  0  0  0  0  0  0  0  0  0
   -8.0617   -1.2900  -24.3201 C   0  0  0  0  0  0  0  0  0  0  0  0
   -7.6723   -0.0684  -23.5617 C   0  0  0  0  0  0  0  0  0  0  0  0
   -8.9452    0.3996  -22.8777 C   0  0  0  0  0  0  0  0  0  0  0  0
   -9.3002    0.1873  -21.6921 O   0  0  0  0  0  0  0  0  0  0  0  0
   -9.6330    1.1279  -23.8869 N   0  0  0  0  0  0  0  0  0  0  0  0
   -8.7796    1.3296  -25.0465 C   0  0  0  0  0  0  0  0  0  0  0  0
   -7.4017    1.1205  -24.3988 C   0  0  0  0  0  0  0  0  0  0  0  0
   -6.6049   -0.2469  -22.5605 C   0  0  0  0  0  0  0  0  0  0  0  0
   -5.8970    0.7901  -21.9896 C   0  0  0  0  0  0  0  0  0  0  0  0
   -4.9102    0.6295  -21.0482 C   0  0  0  0  0  0  0  0  0  0  0  0
   -4.0473    1.9869  -20.3595 Cl  0  0  0  0  0  0  0  0  0  0  0  0
   -4.5533   -0.6495  -20.5960 C   0  0  0  0  0  0  0  0  0  0  0  0
   -5.2421   -1.6907  -21.1484 C   0  0  0  0  0  0  0  0  0  0  0  0
   -6.2267   -1.5232  -22.0892 C   0  0  0  0  0  0  0  0  0  0  0  0
   -6.9310   -2.6662  -22.6495 C   0  0  0  0  0  0  0  0  0  0  0  0
   -6.5623   -3.8112  -22.1992 O   0  0  0  0  0  0  0  0  0  0  0  0
  -10.9767    1.6333  -23.8516 C   0  0  0  0  0  0  0  0  0  0  0  0
  -12.0509    0.7382  -23.6935 C   0  0  0  0  0  0  0  0  0  0  0  0
  -13.3118    1.2684  -23.6776 N   0  0  0  0  0  0  0  0  0  0  0  0
  -13.5511    2.5893  -23.8056 C   0  0  0  0  0  0  0  0  0  0  0  0
  -12.5135    3.5114  -23.9644 C   0  0  0  0  0  0  0  0  0  0  0  0
  -12.7472    4.8656  -24.0968 C   0  0  0  0  0  0  0  0  0  0  0  0
  -11.6375    5.6642  -24.2463 C   0  0  0  0  0  0  0  0  0  0  0  0
  -10.3443    5.2069  -24.2713 C   0  0  0  0  0  0  0  0  0  0  0  0
  -10.1582    3.8386  -24.1349 C   0  0  0  0  0  0  0  0  0  0  0  0
  -11.2456    2.9662  -23.9787 C   0  0  0  0  0  0  0  0  0  0  0  0
   -8.8302   -3.6832  -23.8645 C   0  0  0  0  0  0  0  0  0  0  0  0
  -12.1933   -2.5190  -22.4265 C   0  0  0  0  0  0  0  0  0  0  0  0
  -10.7686   -2.7937  -22.4464 N   0  0  0  0  0  0  0  0  0  0  0  0
  -10.2333   -3.3338  -23.6411 C   0  0  0  0  0  0  0  0  0  0  0  0
  -11.0529   -3.5250  -24.5859 O   0  0  0  0  0  0  0  0  0  0  0  0
  -10.1993   -2.6127  -21.6639 H   0  0  0  0  0  0  0  0  0  0  0  0
   -6.3269    1.0326  -25.4261 C   0  0  0  0  0  0  0  0  0  0  0  0
   -5.4841    2.0953  -25.3013 O   0  0  0  0  0  0  0  0  0  0  0  0
   -4.1521    1.8661  -25.1439 C   0  0  0  0  0  0  0  0  0  0  0  0
   -3.4900    2.6138  -24.0359 C   0  0  0  0  0  0  0  0  0  0  0  0
   -3.7911    0.4020  -24.9921 C   0  0  0  0  0  0  0  0  0  0  0  0
 29 30  1  0  0  0
 30 31  1  0  0  0
 30 33  1  0  0  0
 31 32  2  0  0  0
 31 28  1  0  0  0
 28  1  1  0  0  0
  1  2  1  0  0  0
  3  2  1  0  0  0
  3  4  1  0  0  0
  3  9  1  0  0  0
  4  5  2  0  0  0
  4  6  1  0  0  0
  6 18  1  0  0  0
  6  7  1  0  0  0
 18 19  2  0  0  0
 19 20  1  0  0  0
 20 21  2  0  0  0
 21 22  1  0  0  0
 22 23  2  0  0  0
 23 24  1  0  0  0
 24 25  2  0  0  0
 25 26  1  0  0  0
 26 27  2  0  0  0
 27 18  1  0  0  0
 27 22  1  0  0  0
  7  8  1  0  0  0
  8 34  1  0  0  0
  8  3  1  0  0  0
 34 35  1  0  0  0
 35 36  1  0  0  0
 36 37  1  0  0  0
 36 38  1  0  0  0
  9 10  2  0  0  0
 10 11  1  0  0  0
 11 12  1  0  0  0
 11 13  2  0  0  0
 13 14  1  0  0  0
 14 15  2  0  0  0
 15 16  1  0  0  0
 15  9  1  0  0  0
 16 17  2  0  0  0
 16  1  1  0  0  0
M  END
> <minimizedAffinity>
-7.48529

> <CNNscore>
0.3529281318

> <CNNaffinity>
6.3464546204

> <CNN_VS>
2.2398424149

> <CNNaffinity_variance>
0.0506895259

$$$$



 38 42  0  0  0  0  0  0  0  0999 V2000
   -7.6836   -4.9793  -23.4372 N   0  0  0  0  0  0  0  0  0  0  0  0
   -8.2703   -3.8272  -22.8093 C   0  0  0  0  0  0  0  0  0  0  0  0
   -7.9546   -2.5083  -23.4257 C   0  0  0  0  0  0  0  0  0  0  0  0
   -6.6945   -2.0312  -22.7246 C   0  0  0  0  0  0  0  0  0  0  0  0
   -5.5100   -2.1242  -23.1309 O   0  0  0  0  0  0  0  0  0  0  0  0
   -7.1682   -1.4597  -21.5118 N   0  0  0  0  0  0  0  0  0  0  0  0
   -8.6177   -1.3485  -21.5283 C   0  0  0  0  0  0  0  0  0  0  0  0
   -8.8692   -1.4107  -23.0430 C   0  0  0  0  0  0  0  0  0  0  0  0
   -7.7413   -2.5157  -24.8845 C   0  0  0  0  0  0  0  0  0  0  0  0
   -7.7500   -1.3851  -25.6744 C   0  0  0  0  0  0  0  0  0  0  0  0
   -7.5401   -1.3857  -27.0316 C   0  0  0  0  0  0  0  0  0  0  0  0
   -7.5626    0.0843  -27.9803 Cl  0  0  0  0  0  0  0  0  0  0  0  0
   -7.2947   -2.5844  -27.7176 C   0  0  0  0  0  0  0  0  0  0  0  0
   -7.2817   -3.7160  -26.9542 C   0  0  0  0  0  0  0  0  0  0  0  0
   -7.4927   -3.7084  -25.5985 C   0  0  0  0  0  0  0  0  0  0  0  0
   -7.4707   -4.9428  -24.8290 C   0  0  0  0  0  0  0  0  0  0  0  0
   -7.2423   -6.0082  -25.5091 O   0  0  0  0  0  0  0  0  0  0  0  0
   -6.3985   -1.0235  -20.3807 C   0  0  0  0  0  0  0  0  0  0  0  0
   -6.5472   -1.6802  -19.1451 C   0  0  0  0  0  0  0  0  0  0  0  0
   -5.8000   -1.2193  -18.0960 N   0  0  0  0  0  0  0  0  0  0  0  0
   -4.9467   -0.1810  -18.2067 C   0  0  0  0  0  0  0  0  0  0  0  0
   -4.7695    0.4980  -19.4148 C   0  0  0  0  0  0  0  0  0  0  0  0
   -3.8991    1.5625  -19.5390 C   0  0  0  0  0  0  0  0  0  0  0  0
   -3.8187    2.1425  -20.7835 C   0  0  0  0  0  0  0  0  0  0  0  0
   -4.5342    1.7368  -21.8815 C   0  0  0  0  0  0  0  0  0  0  0  0
   -5.3965    0.6634  -21.7090 C   0  0  0  0  0  0  0  0  0  0  0  0
   -5.5276    0.0250  -20.4667 C   0  0  0  0  0  0  0  0  0  0  0  0
   -7.3028   -6.1888  -22.6990 C   0  0  0  0  0  0  0  0  0  0  0  0
   -3.5923   -7.0990  -23.0685 C   0  0  0  0  0  0  0  0  0  0  0  0
   -5.0135   -7.1285  -23.3592 N   0  0  0  0  0  0  0  0  0  0  0  0
   -5.8498   -6.3018  -22.5700 C   0  0  0  0  0  0  0  0  0  0  0  0
   -5.2746   -5.6088  -21.6813 O   0  0  0  0  0  0  0  0  0  0  0  0
   -5.3804   -7.6980  -24.0735 H   0  0  0  0  0  0  0  0  0  0  0  0
  -10.3196   -1.5603  -23.3466 C   0  0  0  0  0  0  0  0  0  0  0  0
  -10.7631   -0.4638  -24.0221 O   0  0  0  0  0  0  0  0  0  0  0  0
  -11.6606    0.3634  -23.4205 C   0  0  0  0  0  0  0  0  0  0  0  0
  -11.4572    1.8228  -23.6527 C   0  0  0  0  0  0  0  0  0  0  0  0
  -13.1068    0.0430  -23.7408 C   0  0  0  0  0  0  0  0  0  0  0  0
 29 30  1  0  0  0
 30 31  1  0  0  0
 30 33  1  0  0  0
 31 32  2  0  0  0
 31 28  1  0  0  0
 28  1  1  0  0  0
  1  2  1  0  0  0
  3  2  1  0  0  0
  3  4  1  0  0  0
  3  9  1  0  0  0
  4  5  2  0  0  0
  4  6  1  0  0  0
  6 18  1  0  0  0
  6  7  1  0  0  0
 18 19  2  0  0  0
 19 20  1  0  0  0
 20 21  2  0  0  0
 21 22  1  0  0  0
 22 23  2  0  0  0
 23 24  1  0  0  0
 24 25  2  0  0  0
 25 26  1  0  0  0
 26 27  2  0  0  0
 27 18  1  0  0  0
 27 22  1  0  0  0
  7  8  1  0  0  0
  8 34  1  0  0  0
  8  3  1  0  0  0
 34 35  1  0  0  0
 35 36  1  0  0  0
 36 37  1  0  0  0
 36 38  1  0  0  0
  9 10  2  0  0  0
 10 11  1  0  0  0
 11 12  1  0  0  0
 11 13  2  0  0  0
 13 14  1  0  0  0
 14 15  2  0  0  0
 15 16  1  0  0  0
 15  9  1  0  0  0
 16 17  2  0  0  0
 16  1  1  0  0  0
M  END
> <minimizedAffinity>
-8.52028

> <CNNscore>
0.3264086843

> <CNNaffinity>
6.4083199501

> <CNN_VS>
2.0917313099

> <CNNaffinity_variance>
0.4295143485

$$$$



 38 42  0  0  0  0  0  0  0  0999 V2000
   -6.0669   -0.9282  -21.6984 N   0  0  0  0  0  0  0  0  0  0  0  0
   -6.6790   -0.6938  -22.9776 C   0  0  0  0  0  0  0  0  0  0  0  0
   -6.7320    0.7236  -23.4330 C   0  0  0  0  0  0  0  0  0  0  0  0
   -8.0473    1.2652  -22.9003 C   0  0  0  0  0  0  0  0  0  0  0  0
   -8.2307    1.9461  -21.8613 O   0  0  0  0  0  0  0  0  0  0  0  0
   -9.0123    0.8238  -23.8468 N   0  0  0  0  0  0  0  0  0  0  0  0
   -8.3620    0.2596  -25.0183 C   0  0  0  0  0  0  0  0  0  0  0  0
   -6.9719    0.9004  -24.8817 C   0  0  0  0  0  0  0  0  0  0  0  0
   -5.6211    1.5838  -22.9863 C   0  0  0  0  0  0  0  0  0  0  0  0
   -5.3207    2.8109  -23.5397 C   0  0  0  0  0  0  0  0  0  0  0  0
   -4.2944    3.6208  -23.1193 C   0  0  0  0  0  0  0  0  0  0  0  0
   -3.9635    5.1700  -23.8624 Cl  0  0  0  0  0  0  0  0  0  0  0  0
   -3.4613    3.2298  -22.0607 C   0  0  0  0  0  0  0  0  0  0  0  0
   -3.7414    2.0178  -21.4983 C   0  0  0  0  0  0  0  0  0  0  0  0
   -4.7682    1.2132  -21.9236 C   0  0  0  0  0  0  0  0  0  0  0  0
   -5.0251   -0.0719  -21.2920 C   0  0  0  0  0  0  0  0  0  0  0  0
   -4.2312   -0.3777  -20.3297 O   0  0  0  0  0  0  0  0  0  0  0  0
  -10.4434    0.8882  -23.7454 C   0  0  0  0  0  0  0  0  0  0  0  0
  -11.1045    2.1005  -24.0162 C   0  0  0  0  0  0  0  0  0  0  0  0
  -12.4669    2.1125  -23.8944 N   0  0  0  0  0  0  0  0  0  0  0  0
  -13.1781    1.0257  -23.5318 C   0  0  0  0  0  0  0  0  0  0  0  0
  -12.5608   -0.1966  -23.2543 C   0  0  0  0  0  0  0  0  0  0  0  0
  -13.2792   -1.3151  -22.8817 C   0  0  0  0  0  0  0  0  0  0  0  0
  -12.5495   -2.4550  -22.6373 C   0  0  0  0  0  0  0  0  0  0  0  0
  -11.1842   -2.5448  -22.7388 C   0  0  0  0  0  0  0  0  0  0  0  0
  -10.5046   -1.3951  -23.1159 C   0  0  0  0  0  0  0  0  0  0  0  0
  -11.1864   -0.1980  -23.3804 C   0  0  0  0  0  0  0  0  0  0  0  0
   -6.4721   -2.0172  -20.8025 C   0  0  0  0  0  0  0  0  0  0  0  0
   -6.0683   -5.2631  -22.8110 C   0  0  0  0  0  0  0  0  0  0  0  0
   -6.6150   -3.9662  -22.4580 N   0  0  0  0  0  0  0  0  0  0  0  0
   -6.0620   -3.3208  -21.3252 C   0  0  0  0  0  0  0  0  0  0  0  0
   -5.1354   -3.9389  -20.7251 O   0  0  0  0  0  0  0  0  0  0  0  0
   -7.3384   -3.5533  -22.9827 H   0  0  0  0  0  0  0  0  0  0  0  0
   -6.0009    0.2993  -25.8379 C   0  0  0  0  0  0  0  0  0  0  0  0
   -6.6133   -0.6803  -26.5594 O   0  0  0  0  0  0  0  0  0  0  0  0
   -6.4400   -0.7122  -27.9087 C   0  0  0  0  0  0  0  0  0  0  0  0
   -7.6883   -0.7660  -28.7236 C   0  0  0  0  0  0  0  0  0  0  0  0
   -5.5856    0.4172  -28.4485 C   0  0  0  0  0  0  0  0  0  0  0  0
 29 30  1  0  0  0
 30 31  1  0  0  0
 30 33  1  0  0  0
 31 32  2  0  0  0
 31 28  1  0  0  0
 28  1  1  0  0  0
  1  2  1  0  0  0
  3  2  1  0  0  0
  3  4  1  0  0  0
  3  9  1  0  0  0
  4  5  2  0  0  0
  4  6  1  0  0  0
  6 18  1  0  0  0
  6  7  1  0  0  0
 18 19  2  0  0  0
 19 20  1  0  0  0
 20 21  2  0  0  0
 21 22  1  0  0  0
 22 23  2  0  0  0
 23 24  1  0  0  0
 24 25  2  0  0  0
 25 26  1  0  0  0
 26 27  2  0  0  0
 27 18  1  0  0  0
 27 22  1  0  0  0
  7  8  1  0  0  0
  8 34  1  0  0  0
  8  3  1  0  0  0
 34 35  1  0  0  0
 35 36  1  0  0  0
 36 37  1  0  0  0
 36 38  1  0  0  0
  9 10  2  0  0  0
 10 11  1  0  0  0
 11 12  1  0  0  0
 11 13  2  0  0  0
 13 14  1  0  0  0
 14 15  2  0  0  0
 15 16  1  0  0  0
 15  9  1  0  0  0
 16 17  2  0  0  0
 16  1  1  0  0  0
M  END
> <minimizedAffinity>
-6.57280

> <CNNscore>
0.3063175678

> <CNNaffinity>
6.2870535851

> <CNN_VS>
1.9258350134

> <CNNaffinity_variance>
0.0960118994

$$$$



 38 42  0  0  0  0  0  0  0  0999 V2000
   -6.4331   -3.1614  -21.6667 N   0  0  0  0  0  0  0  0  0  0  0  0
   -7.5759   -2.3740  -22.0407 C   0  0  0  0  0  0  0  0  0  0  0  0
   -7.9693   -2.4242  -23.4766 C   0  0  0  0  0  0  0  0  0  0  0  0
   -7.1956   -1.2993  -24.1423 C   0  0  0  0  0  0  0  0  0  0  0  0
   -6.1194   -1.3849  -24.7836 O   0  0  0  0  0  0  0  0  0  0  0  0
   -7.9702   -0.1382  -23.8708 N   0  0  0  0  0  0  0  0  0  0  0  0
   -9.2555   -0.5010  -23.2963 C   0  0  0  0  0  0  0  0  0  0  0  0
   -9.3465   -1.9640  -23.7581 C   0  0  0  0  0  0  0  0  0  0  0  0
   -7.6989   -3.6955  -24.1726 C   0  0  0  0  0  0  0  0  0  0  0  0
   -8.2575   -4.0500  -25.3828 C   0  0  0  0  0  0  0  0  0  0  0  0
   -7.9996   -5.2277  -26.0405 C   0  0  0  0  0  0  0  0  0  0  0  0
   -8.7398   -5.6205  -27.5765 Cl  0  0  0  0  0  0  0  0  0  0  0  0
   -7.1179   -6.1733  -25.4965 C   0  0  0  0  0  0  0  0  0  0  0  0
   -6.5536   -5.8421  -24.2984 C   0  0  0  0  0  0  0  0  0  0  0  0
   -6.8161   -4.6638  -23.6463 C   0  0  0  0  0  0  0  0  0  0  0  0
   -6.1903   -4.3577  -22.3692 C   0  0  0  0  0  0  0  0  0  0  0  0
   -5.3937   -5.2594  -21.9196 O   0  0  0  0  0  0  0  0  0  0  0  0
   -7.6154    1.2343  -24.1003 C   0  0  0  0  0  0  0  0  0  0  0  0
   -7.2706    2.0537  -23.0096 C   0  0  0  0  0  0  0  0  0  0  0  0
   -6.9517    3.3562  -23.2799 N   0  0  0  0  0  0  0  0  0  0  0  0
   -6.9574    3.8663  -24.5282 C   0  0  0  0  0  0  0  0  0  0  0  0
   -7.2935    3.0871  -25.6381 C   0  0  0  0  0  0  0  0  0  0  0  0
   -7.3032    3.5993  -26.9202 C   0  0  0  0  0  0  0  0  0  0  0  0
   -7.6523    2.7255  -27.9233 C   0  0  0  0  0  0  0  0  0  0  0  0
   -7.9834    1.4082  -27.7309 C   0  0  0  0  0  0  0  0  0  0  0  0
   -7.9602    0.9379  -26.4256 C   0  0  0  0  0  0  0  0  0  0  0  0
   -7.6132    1.7748  -25.3544 C   0  0  0  0  0  0  0  0  0  0  0  0
   -5.5147   -2.7807  -20.5875 C   0  0  0  0  0  0  0  0  0  0  0  0
   -4.0383    0.4796  -21.9744 C   0  0  0  0  0  0  0  0  0  0  0  0
   -4.5127   -0.8915  -21.9969 N   0  0  0  0  0  0  0  0  0  0  0  0
   -4.9976   -1.4254  -20.7781 C   0  0  0  0  0  0  0  0  0  0  0  0
   -4.9737   -0.6504  -19.7783 O   0  0  0  0  0  0  0  0  0  0  0  0
   -4.4980   -1.4269  -22.8228 H   0  0  0  0  0  0  0  0  0  0  0  0
  -10.4779   -2.6722  -23.0972 C   0  0  0  0  0  0  0  0  0  0  0  0
  -11.3664   -1.7628  -22.6085 O   0  0  0  0  0  0  0  0  0  0  0  0
  -12.6722   -1.8502  -22.9811 C   0  0  0  0  0  0  0  0  0  0  0  0
  -13.5868   -2.5006  -21.9983 C   0  0  0  0  0  0  0  0  0  0  0  0
  -13.2908   -0.5253  -23.3794 C   0  0  0  0  0  0  0  0  0  0  0  0
 29 30  1  0  0  0
 30 31  1  0  0  0
 30 33  1  0  0  0
 31 32  2  0  0  0
 31 28  1  0  0  0
 28  1  1  0  0  0
  1  2  1  0  0  0
  3  2  1  0  0  0
  3  4  1  0  0  0
  3  9  1  0  0  0
  4  5  2  0  0  0
  4  6  1  0  0  0
  6 18  1  0  0  0
  6  7  1  0  0  0
 18 19  2  0  0  0
 19 20  1  0  0  0
 20 21  2  0  0  0
 21 22  1  0  0  0
 22 23  2  0  0  0
 23 24  1  0  0  0
 24 25  2  0  0  0
 25 26  1  0  0  0
 26 27  2  0  0  0
 27 18  1  0  0  0
 27 22  1  0  0  0
  7  8  1  0  0  0
  8 34  1  0  0  0
  8  3  1  0  0  0
 34 35  1  0  0  0
 35 36  1  0  0  0
 36 37  1  0  0  0
 36 38  1  0  0  0
  9 10  2  0  0  0
 10 11  1  0  0  0
 11 12  1  0  0  0
 11 13  2  0  0  0
 13 14  1  0  0  0
 14 15  2  0  0  0
 15 16  1  0  0  0
 15  9  1  0  0  0
 16 17  2  0  0  0
 16  1  1  0  0  0
M  END
> <minimizedAffinity>
-6.62270

> <CNNscore>
0.1854415834

> <CNNaffinity>
6.1131043434

> <CNN_VS>
1.1336237192

> <CNNaffinity_variance>
0.1900770366

$$$$



 38 42  0  0  0  0  0  0  0  0999 V2000
   -6.1183   -2.1922  -23.8256 N   0  0  0  0  0  0  0  0  0  0  0  0
   -5.5328   -0.8903  -23.9932 C   0  0  0  0  0  0  0  0  0  0  0  0
   -5.6756    0.0491  -22.8459 C   0  0  0  0  0  0  0  0  0  0  0  0
   -6.9753    0.7935  -23.0985 C   0  0  0  0  0  0  0  0  0  0  0  0
   -8.1043    0.5527  -22.6046 O   0  0  0  0  0  0  0  0  0  0  0  0
   -6.6150    1.8174  -24.0170 N   0  0  0  0  0  0  0  0  0  0  0  0
   -5.1703    1.8929  -24.1613 C   0  0  0  0  0  0  0  0  0  0  0  0
   -4.7393    1.1940  -22.8623 C   0  0  0  0  0  0  0  0  0  0  0  0
   -5.7077   -0.5706  -21.5085 C   0  0  0  0  0  0  0  0  0  0  0  0
   -5.5214    0.1208  -20.3297 C   0  0  0  0  0  0  0  0  0  0  0  0
   -5.5621   -0.4499  -19.0812 C   0  0  0  0  0  0  0  0  0  0  0  0
   -5.3184    0.4819  -17.6205 Cl  0  0  0  0  0  0  0  0  0  0  0  0
   -5.8059   -1.8229  -18.9292 C   0  0  0  0  0  0  0  0  0  0  0  0
   -5.9932   -2.5264  -20.0840 C   0  0  0  0  0  0  0  0  0  0  0  0
   -5.9507   -1.9499  -21.3284 C   0  0  0  0  0  0  0  0  0  0  0  0
   -6.1551   -2.7438  -22.5303 C   0  0  0  0  0  0  0  0  0  0  0  0
   -6.3733   -3.9937  -22.3304 O   0  0  0  0  0  0  0  0  0  0  0  0
   -7.4851    2.7000  -24.7425 C   0  0  0  0  0  0  0  0  0  0  0  0
   -8.0756    3.7918  -24.0797 C   0  0  0  0  0  0  0  0  0  0  0  0
   -8.9054    4.5958  -24.8121 N   0  0  0  0  0  0  0  0  0  0  0  0
   -9.1682    4.3797  -26.1169 C   0  0  0  0  0  0  0  0  0  0  0  0
   -8.6027    3.3077  -26.8120 C   0  0  0  0  0  0  0  0  0  0  0  0
   -8.8655    3.0769  -28.1476 C   0  0  0  0  0  0  0  0  0  0  0  0
   -8.2444    1.9873  -28.7118 C   0  0  0  0  0  0  0  0  0  0  0  0
   -7.4004    1.1370  -28.0435 C   0  0  0  0  0  0  0  0  0  0  0  0
   -7.1663    1.4082  -26.7029 C   0  0  0  0  0  0  0  0  0  0  0  0
   -7.7671    2.5032  -26.0641 C   0  0  0  0  0  0  0  0  0  0  0  0
   -6.6722   -2.9721  -24.9381 C   0  0  0  0  0  0  0  0  0  0  0  0
   -3.5991   -4.7370  -26.4127 C   0  0  0  0  0  0  0  0  0  0  0  0
   -4.4113   -3.6286  -25.9465 N   0  0  0  0  0  0  0  0  0  0  0  0
   -5.7006   -3.9391  -25.4498 C   0  0  0  0  0  0  0  0  0  0  0  0
   -6.0242   -5.1622  -25.4572 O   0  0  0  0  0  0  0  0  0  0  0  0
   -4.0806   -2.7018  -25.9742 H   0  0  0  0  0  0  0  0  0  0  0  0
   -3.2769    0.9118  -22.8573 C   0  0  0  0  0  0  0  0  0  0  0  0
   -2.5933    2.0361  -22.5053 O   0  0  0  0  0  0  0  0  0  0  0  0
   -2.7814    2.5611  -21.2640 C   0  0  0  0  0  0  0  0  0  0  0  0
   -2.2787    1.7373  -20.1265 C   0  0  0  0  0  0  0  0  0  0  0  0
   -2.2307    3.9630  -21.0965 C   0  0  0  0  0  0  0  0  0  0  0  0
 29 30  1  0  0  0
 30 31  1  0  0  0
 30 33  1  0  0  0
 31 32  2  0  0  0
 31 28  1  0  0  0
 28  1  1  0  0  0
  1  2  1  0  0  0
  3  2  1  0  0  0
  3  4  1  0  0  0
  3  9  1  0  0  0
  4  5  2  0  0  0
  4  6  1  0  0  0
  6 18  1  0  0  0
  6  7  1  0  0  0
 18 19  2  0  0  0
 19 20  1  0  0  0
 20 21  2  0  0  0
 21 22  1  0  0  0
 22 23  2  0  0  0
 23 24  1  0  0  0
 24 25  2  0  0  0
 25 26  1  0  0  0
 26 27  2  0  0  0
 27 18  1  0  0  0
 27 22  1  0  0  0
  7  8  1  0  0  0
  8 34  1  0  0  0
  8  3  1  0  0  0
 34 35  1  0  0  0
 35 36  1  0  0  0
 36 37  1  0  0  0
 36 38  1  0  0  0
  9 10  2  0  0  0
 10 11  1  0  0  0
 11 12  1  0  0  0
 11 13  2  0  0  0
 13 14  1  0  0  0
 14 15  2  0  0  0
 15 16  1  0  0  0
 15  9  1  0  0  0
 16 17  2  0  0  0
 16  1  1  0  0  0
M  END
> <minimizedAffinity>
-5.74005

> <CNNscore>
0.1822792590

> <CNNaffinity>
5.7974801064

> <CNN_VS>
1.0567604303

> <CNNaffinity_variance>
0.1560487449

$$$$



 23 25  0  0  0  0  0  0  0  0999 V2000
   -7.8998   -1.3515  -21.3294 O   0  0  0  0  0  0  0  0  0  0  0  0
   -7.3190   -2.3584  -21.8596 C   0  0  0  0  0  0  0  0  0  0  0  0
   -7.9804   -3.2095  -22.7871 N   0  0  0  0  0  0  0  0  0  0  0  0
   -7.2473   -4.3149  -23.3287 C   0  0  0  0  0  0  0  0  0  0  0  0
   -7.6274   -4.6507  -24.7635 C   0  0  0  0  0  0  0  0  0  0  0  0
   -9.1435   -4.6327  -24.7919 C   0  0  0  0  0  0  0  0  0  0  0  0
   -9.5492   -3.2069  -24.5887 C   0  0  0  0  0  0  0  0  0  0  0  0
   -9.3570   -2.8951  -23.1187 C   0  0  0  0  0  0  0  0  0  0  0  0
   -9.7221   -5.2860  -26.0098 C   0  0  0  0  0  0  0  0  0  0  0  0
   -9.6439   -4.5139  -27.1381 F   0  0  0  0  0  0  0  0  0  0  0  0
   -9.0167   -6.4875  -26.1620 F   0  0  0  0  0  0  0  0  0  0  0  0
  -11.0176   -5.6247  -25.7325 F   0  0  0  0  0  0  0  0  0  0  0  0
   -5.9084   -2.5732  -21.4376 C   0  0  0  0  0  0  0  0  0  0  0  0
   -5.5908   -1.6646  -20.3171 C   0  0  0  0  0  0  0  0  0  0  0  0
   -6.0498   -1.9230  -19.0267 C   0  0  0  0  0  0  0  0  0  0  0  0
   -5.7753   -1.1134  -17.9889 N   0  0  0  0  0  0  0  0  0  0  0  0
   -5.0360   -0.0105  -18.1696 C   0  0  0  0  0  0  0  0  0  0  0  0
   -4.5652    0.2747  -19.4374 C   0  0  0  0  0  0  0  0  0  0  0  0
   -3.8015    1.4262  -19.5910 C   0  0  0  0  0  0  0  0  0  0  0  0
   -3.2881    1.7902  -20.8283 C   0  0  0  0  0  0  0  0  0  0  0  0
   -3.5712    0.9585  -21.8899 C   0  0  0  0  0  0  0  0  0  0  0  0
   -4.3301   -0.1894  -21.7471 C   0  0  0  0  0  0  0  0  0  0  0  0
   -4.8279   -0.5335  -20.5232 C   0  0  0  0  0  0  0  0  0  0  0  0
  1  2  2  0  0  0
  2 13  1  0  0  0
  2  3  1  0  0  0
 13 14  1  0  0  0
 14 15  2  0  0  0
 15 16  1  0  0  0
 16 17  2  0  0  0
 17 18  1  0  0  0
 18 19  2  0  0  0
 19 20  1  0  0  0
 20 21  2  0  0  0
 21 22  1  0  0  0
 22 23  2  0  0  0
 23 14  1  0  0  0
 23 18  1  0  0  0
  3  4  1  0  0  0
  4  5  1  0  0  0
  5  6  1  0  0  0
  6  9  1  0  0  0
  6  7  1  0  0  0
  9 10  1  0  0  0
  9 11  1  0  0  0
  9 12  1  0  0  0
  7  8  1  0  0  0
  8  3  1  0  0  0
M  END
> <minimizedAffinity>
-7.30793

> <CNNscore>
0.6543316841

> <CNNaffinity>
5.2414641380

> <CNN_VS>
3.4296560287

> <CNNaffinity_variance>
0.4029794335

$$$$



 23 25  0  0  0  0  0  0  0  0999 V2000
   -5.3729   -3.2860  -20.6809 O   0  0  0  0  0  0  0  0  0  0  0  0
   -6.1645   -2.9487  -21.6252 C   0  0  0  0  0  0  0  0  0  0  0  0
   -6.6102   -3.8782  -22.6050 N   0  0  0  0  0  0  0  0  0  0  0  0
   -7.4971   -3.4070  -23.6267 C   0  0  0  0  0  0  0  0  0  0  0  0
   -8.5052   -4.4512  -24.0843 C   0  0  0  0  0  0  0  0  0  0  0  0
   -7.7051   -5.7254  -24.2742 C   0  0  0  0  0  0  0  0  0  0  0  0
   -7.2699   -6.1540  -22.9083 C   0  0  0  0  0  0  0  0  0  0  0  0
   -6.1310   -5.2430  -22.4981 C   0  0  0  0  0  0  0  0  0  0  0  0
   -8.4332   -6.7715  -25.0618 C   0  0  0  0  0  0  0  0  0  0  0  0
   -8.8768   -7.8219  -24.3033 F   0  0  0  0  0  0  0  0  0  0  0  0
   -9.4974   -6.1020  -25.6810 F   0  0  0  0  0  0  0  0  0  0  0  0
   -7.6050   -7.2002  -26.0619 F   0  0  0  0  0  0  0  0  0  0  0  0
   -6.5832   -1.5209  -21.6243 C   0  0  0  0  0  0  0  0  0  0  0  0
   -6.0431   -0.8553  -20.4213 C   0  0  0  0  0  0  0  0  0  0  0  0
   -6.6459   -1.0176  -19.1751 C   0  0  0  0  0  0  0  0  0  0  0  0
   -6.1752   -0.4242  -18.0643 N   0  0  0  0  0  0  0  0  0  0  0  0
   -5.0886    0.3577  -18.1249 C   0  0  0  0  0  0  0  0  0  0  0  0
   -4.4668    0.5396  -19.3458 C   0  0  0  0  0  0  0  0  0  0  0  0
   -3.3424    1.3566  -19.3744 C   0  0  0  0  0  0  0  0  0  0  0  0
   -2.6553    1.5951  -20.5568 C   0  0  0  0  0  0  0  0  0  0  0  0
   -3.1403    0.9854  -21.6935 C   0  0  0  0  0  0  0  0  0  0  0  0
   -4.2583    0.1708  -21.6751 C   0  0  0  0  0  0  0  0  0  0  0  0
   -4.9230   -0.0538  -20.5039 C   0  0  0  0  0  0  0  0  0  0  0  0
  1  2  2  0  0  0
  2 13  1  0  0  0
  2  3  1  0  0  0
 13 14  1  0  0  0
 14 15  2  0  0  0
 15 16  1  0  0  0
 16 17  2  0  0  0
 17 18  1  0  0  0
 18 19  2  0  0  0
 19 20  1  0  0  0
 20 21  2  0  0  0
 21 22  1  0  0  0
 22 23  2  0  0  0
 23 14  1  0  0  0
 23 18  1  0  0  0
  3  4  1  0  0  0
  4  5  1  0  0  0
  5  6  1  0  0  0
  6  9  1  0  0  0
  6  7  1  0  0  0
  9 10  1  0  0  0
  9 11  1  0  0  0
  9 12  1  0  0  0
  7  8  1  0  0  0
  8  3  1  0  0  0
M  END
> <minimizedAffinity>
-7.51314

> <CNNscore>
0.6269524097

> <CNNaffinity>
5.1899466515

> <CNN_VS>
3.2538495064

> <CNNaffinity_variance>
0.2874499857

$$$$



 23 25  0  0  0  0  0  0  0  0999 V2000
   -7.4689   -3.6665  -22.4834 O   0  0  0  0  0  0  0  0  0  0  0  0
   -7.7045   -2.4394  -22.7497 C   0  0  0  0  0  0  0  0  0  0  0  0
   -9.0018   -1.9802  -23.1081 N   0  0  0  0  0  0  0  0  0  0  0  0
   -9.1690   -0.5855  -23.3897 C   0  0  0  0  0  0  0  0  0  0  0  0
  -10.5301   -0.0423  -22.9794 C   0  0  0  0  0  0  0  0  0  0  0  0
  -11.5358   -1.0632  -23.4754 C   0  0  0  0  0  0  0  0  0  0  0  0
  -11.3254   -2.2934  -22.6502 C   0  0  0  0  0  0  0  0  0  0  0  0
  -10.0670   -2.9631  -23.1633 C   0  0  0  0  0  0  0  0  0  0  0  0
  -12.9431   -0.5492  -23.4944 C   0  0  0  0  0  0  0  0  0  0  0  0
  -13.8288   -1.3451  -22.8182 F   0  0  0  0  0  0  0  0  0  0  0  0
  -12.8809    0.7354  -22.9372 F   0  0  0  0  0  0  0  0  0  0  0  0
  -13.3180   -0.3921  -24.8000 F   0  0  0  0  0  0  0  0  0  0  0  0
   -6.5289   -1.5320  -22.6575 C   0  0  0  0  0  0  0  0  0  0  0  0
   -6.3803   -1.0667  -21.2634 C   0  0  0  0  0  0  0  0  0  0  0  0
   -7.3121   -1.4098  -20.2853 C   0  0  0  0  0  0  0  0  0  0  0  0
   -7.2010   -1.0006  -19.0094 N   0  0  0  0  0  0  0  0  0  0  0  0
   -6.1681   -0.2343  -18.6332 C   0  0  0  0  0  0  0  0  0  0  0  0
   -5.2260    0.1239  -19.5791 C   0  0  0  0  0  0  0  0  0  0  0  0
   -4.1672    0.9194  -19.1564 C   0  0  0  0  0  0  0  0  0  0  0  0
   -3.1756    1.3267  -20.0383 C   0  0  0  0  0  0  0  0  0  0  0  0
   -3.2923    0.9057  -21.3453 C   0  0  0  0  0  0  0  0  0  0  0  0
   -4.3422    0.1141  -21.7754 C   0  0  0  0  0  0  0  0  0  0  0  0
   -5.3095   -0.2781  -20.8954 C   0  0  0  0  0  0  0  0  0  0  0  0
  1  2  2  0  0  0
  2 13  1  0  0  0
  2  3  1  0  0  0
 13 14  1  0  0  0
 14 15  2  0  0  0
 15 16  1  0  0  0
 16 17  2  0  0  0
 17 18  1  0  0  0
 18 19  2  0  0  0
 19 20  1  0  0  0
 20 21  2  0  0  0
 21 22  1  0  0  0
 22 23  2  0  0  0
 23 14  1  0  0  0
 23 18  1  0  0  0
  3  4  1  0  0  0
  4  5  1  0  0  0
  5  6  1  0  0  0
  6  9  1  0  0  0
  6  7  1  0  0  0
  9 10  1  0  0  0
  9 11  1  0  0  0
  9 12  1  0  0  0
  7  8  1  0  0  0
  8  3  1  0  0  0
M  END
> <minimizedAffinity>
-7.41797

> <CNNscore>
0.5596888065

> <CNNaffinity>
5.3994631767

> <CNN_VS>
3.0220191479

> <CNNaffinity_variance>
0.2691999972

$$$$



 23 25  0  0  0  0  0  0  0  0999 V2000
   -8.2212    0.5791  -24.0564 O   0  0  0  0  0  0  0  0  0  0  0  0
   -8.3984   -0.5707  -23.5284 C   0  0  0  0  0  0  0  0  0  0  0  0
   -9.6647   -0.9870  -23.0329 N   0  0  0  0  0  0  0  0  0  0  0  0
   -9.7662   -2.2948  -22.4569 C   0  0  0  0  0  0  0  0  0  0  0  0
  -11.1154   -2.9586  -22.6922 C   0  0  0  0  0  0  0  0  0  0  0  0
  -12.1472   -1.8903  -22.3858 C   0  0  0  0  0  0  0  0  0  0  0  0
  -12.0116   -0.8571  -23.4595 C   0  0  0  0  0  0  0  0  0  0  0  0
  -10.7673   -0.0515  -23.1468 C   0  0  0  0  0  0  0  0  0  0  0  0
  -13.5310   -2.4359  -22.2062 C   0  0  0  0  0  0  0  0  0  0  0  0
  -13.8712   -2.6533  -20.8977 F   0  0  0  0  0  0  0  0  0  0  0  0
  -14.3840   -1.5009  -22.8082 F   0  0  0  0  0  0  0  0  0  0  0  0
  -13.6303   -3.5858  -22.9395 F   0  0  0  0  0  0  0  0  0  0  0  0
   -7.1898   -1.4367  -23.4706 C   0  0  0  0  0  0  0  0  0  0  0  0
   -6.3289   -0.9983  -22.3530 C   0  0  0  0  0  0  0  0  0  0  0  0
   -6.6909   -1.2351  -21.0280 C   0  0  0  0  0  0  0  0  0  0  0  0
   -5.9263   -0.8476  -19.9922 N   0  0  0  0  0  0  0  0  0  0  0  0
   -4.7685   -0.2087  -20.2089 C   0  0  0  0  0  0  0  0  0  0  0  0
   -4.3803    0.0417  -21.5116 C   0  0  0  0  0  0  0  0  0  0  0  0
   -3.1743    0.7064  -21.7020 C   0  0  0  0  0  0  0  0  0  0  0  0
   -2.7068    0.9995  -22.9758 C   0  0  0  0  0  0  0  0  0  0  0  0
   -3.4927    0.6011  -24.0353 C   0  0  0  0  0  0  0  0  0  0  0  0
   -4.6942   -0.0608  -23.8560 C   0  0  0  0  0  0  0  0  0  0  0  0
   -5.1402   -0.3416  -22.5965 C   0  0  0  0  0  0  0  0  0  0  0  0
  1  2  2  0  0  0
  2 13  1  0  0  0
  2  3  1  0  0  0
 13 14  1  0  0  0
 14 15  2  0  0  0
 15 16  1  0  0  0
 16 17  2  0  0  0
 17 18  1  0  0  0
 18 19  2  0  0  0
 19 20  1  0  0  0
 20 21  2  0  0  0
 21 22  1  0  0  0
 22 23  2  0  0  0
 23 14  1  0  0  0
 23 18  1  0  0  0
  3  4  1  0  0  0
  4  5  1  0  0  0
  5  6  1  0  0  0
  6  9  1  0  0  0
  6  7  1  0  0  0
  9 10  1  0  0  0
  9 11  1  0  0  0
  9 12  1  0  0  0
  7  8  1  0  0  0
  8  3  1  0  0  0
M  END
> <minimizedAffinity>
-5.71515

> <CNNscore>
0.5140851736

> <CNNaffinity>
5.3923702240

> <CNN_VS>
2.7721376419

> <CNNaffinity_variance>
0.3062888980

$$$$



 23 25  0  0  0  0  0  0  0  0999 V2000
   -6.7181    1.2695  -22.0105 O   0  0  0  0  0  0  0  0  0  0  0  0
   -6.8671    0.0039  -21.9197 C   0  0  0  0  0  0  0  0  0  0  0  0
   -8.1434   -0.6152  -22.0200 N   0  0  0  0  0  0  0  0  0  0  0  0
   -8.2114   -2.0416  -21.9050 C   0  0  0  0  0  0  0  0  0  0  0  0
   -9.3041   -2.6680  -22.7592 C   0  0  0  0  0  0  0  0  0  0  0  0
  -10.5329   -1.8088  -22.5325 C   0  0  0  0  0  0  0  0  0  0  0  0
  -10.2384   -0.4830  -23.1602 C   0  0  0  0  0  0  0  0  0  0  0  0
   -9.2898    0.2477  -22.2320 C   0  0  0  0  0  0  0  0  0  0  0  0
  -11.8032   -2.4567  -22.9926 C   0  0  0  0  0  0  0  0  0  0  0  0
  -11.6117   -3.6574  -23.6226 F   0  0  0  0  0  0  0  0  0  0  0  0
  -12.5884   -2.6025  -21.8409 F   0  0  0  0  0  0  0  0  0  0  0  0
  -12.4585   -1.5725  -23.8042 F   0  0  0  0  0  0  0  0  0  0  0  0
   -5.6146   -0.7695  -21.7027 C   0  0  0  0  0  0  0  0  0  0  0  0
   -4.6144    0.0964  -21.0456 C   0  0  0  0  0  0  0  0  0  0  0  0
   -4.7317    0.4413  -19.7002 C   0  0  0  0  0  0  0  0  0  0  0  0
   -3.8359    1.2270  -19.0772 N   0  0  0  0  0  0  0  0  0  0  0  0
   -2.7813    1.7116  -19.7469 C   0  0  0  0  0  0  0  0  0  0  0  0
   -2.6356    1.3885  -21.0829 C   0  0  0  0  0  0  0  0  0  0  0  0
   -1.5310    1.9075  -21.7486 C   0  0  0  0  0  0  0  0  0  0  0  0
   -1.3056    1.6350  -23.0910 C   0  0  0  0  0  0  0  0  0  0  0  0
   -2.2255    0.8295  -23.7266 C   0  0  0  0  0  0  0  0  0  0  0  0
   -3.3276    0.3084  -23.0727 C   0  0  0  0  0  0  0  0  0  0  0  0
   -3.5351    0.5858  -21.7521 C   0  0  0  0  0  0  0  0  0  0  0  0
  1  2  2  0  0  0
  2 13  1  0  0  0
  2  3  1  0  0  0
 13 14  1  0  0  0
 14 15  2  0  0  0
 15 16  1  0  0  0
 16 17  2  0  0  0
 17 18  1  0  0  0
 18 19  2  0  0  0
 19 20  1  0  0  0
 20 21  2  0  0  0
 21 22  1  0  0  0
 22 23  2  0  0  0
 23 14  1  0  0  0
 23 18  1  0  0  0
  3  4  1  0  0  0
  4  5  1  0  0  0
  5  6  1  0  0  0
  6  9  1  0  0  0
  6  7  1  0  0  0
  9 10  1  0  0  0
  9 11  1  0  0  0
  9 12  1  0  0  0
  7  8  1  0  0  0
  8  3  1  0  0  0
M  END
> <minimizedAffinity>
-6.41945

> <CNNscore>
0.3808211386

> <CNNaffinity>
4.9191246033

> <CNN_VS>
1.8733066320

> <CNNaffinity_variance>
0.2370902300

$$$$



 23 25  0  0  0  0  0  0  0  0999 V2000
   -7.2747    1.7281  -22.9639 O   0  0  0  0  0  0  0  0  0  0  0  0
   -7.8137    0.6002  -22.7001 C   0  0  0  0  0  0  0  0  0  0  0  0
   -9.2221    0.4077  -22.7442 N   0  0  0  0  0  0  0  0  0  0  0  0
   -9.7345   -0.8932  -22.4320 C   0  0  0  0  0  0  0  0  0  0  0  0
  -10.9867   -1.2567  -23.2168 C   0  0  0  0  0  0  0  0  0  0  0  0
  -11.8764   -0.0309  -23.1433 C   0  0  0  0  0  0  0  0  0  0  0  0
  -11.1916    1.0320  -23.9433 C   0  0  0  0  0  0  0  0  0  0  0  0
  -10.0416    1.5492  -23.1035 C   0  0  0  0  0  0  0  0  0  0  0  0
  -13.2956   -0.3029  -23.5394 C   0  0  0  0  0  0  0  0  0  0  0  0
  -13.8660   -1.3464  -22.8603 F   0  0  0  0  0  0  0  0  0  0  0  0
  -13.9854    0.8953  -23.3098 F   0  0  0  0  0  0  0  0  0  0  0  0
  -13.3236   -0.5186  -24.8894 F   0  0  0  0  0  0  0  0  0  0  0  0
   -6.8653   -0.4901  -22.3458 C   0  0  0  0  0  0  0  0  0  0  0  0
   -6.3873   -0.2901  -20.9625 C   0  0  0  0  0  0  0  0  0  0  0  0
   -7.1365   -0.7248  -19.8706 C   0  0  0  0  0  0  0  0  0  0  0  0
   -6.7252   -0.5562  -18.6017 N   0  0  0  0  0  0  0  0  0  0  0  0
   -5.5569    0.0479  -18.3448 C   0  0  0  0  0  0  0  0  0  0  0  0
   -4.7895    0.4909  -19.4056 C   0  0  0  0  0  0  0  0  0  0  0  0
   -3.5833    1.1135  -19.1051 C   0  0  0  0  0  0  0  0  0  0  0  0
   -2.7493    1.5895  -20.1075 C   0  0  0  0  0  0  0  0  0  0  0  0
   -3.1737    1.4152  -21.4069 C   0  0  0  0  0  0  0  0  0  0  0  0
   -4.3721    0.7970  -21.7159 C   0  0  0  0  0  0  0  0  0  0  0  0
   -5.1813    0.3343  -20.7183 C   0  0  0  0  0  0  0  0  0  0  0  0
  1  2  2  0  0  0
  2 13  1  0  0  0
  2  3  1  0  0  0
 13 14  1  0  0  0
 14 15  2  0  0  0
 15 16  1  0  0  0
 16 17  2  0  0  0
 17 18  1  0  0  0
 18 19  2  0  0  0
 19 20  1  0  0  0
 20 21  2  0  0  0
 21 22  1  0  0  0
 22 23  2  0  0  0
 23 14  1  0  0  0
 23 18  1  0  0  0
  3  4  1  0  0  0
  4  5  1  0  0  0
  5  6  1  0  0  0
  6  9  1  0  0  0
  6  7  1  0  0  0
  9 10  1  0  0  0
  9 11  1  0  0  0
  9 12  1  0  0  0
  7  8  1  0  0  0
  8  3  1  0  0  0
M  END
> <minimizedAffinity>
-6.98550

> <CNNscore>
0.3740977645

> <CNNaffinity>
5.1066803932

> <CNN_VS>
1.9103977680

> <CNNaffinity_variance>
0.2070168704

$$$$



 23 25  0  0  0  0  0  0  0  0999 V2000
   -8.7652   -1.3967  -24.8431 O   0  0  0  0  0  0  0  0  0  0  0  0
   -9.9301   -1.4900  -24.3271 C   0  0  0  0  0  0  0  0  0  0  0  0
  -10.5965   -0.3693  -23.7595 N   0  0  0  0  0  0  0  0  0  0  0  0
  -11.9013   -0.5716  -23.2035 C   0  0  0  0  0  0  0  0  0  0  0  0
  -12.8225    0.6291  -23.3645 C   0  0  0  0  0  0  0  0  0  0  0  0
  -11.9865    1.8319  -22.9721 C   0  0  0  0  0  0  0  0  0  0  0  0
  -10.9409    1.9789  -24.0321 C   0  0  0  0  0  0  0  0  0  0  0  0
   -9.9023    0.9040  -23.7844 C   0  0  0  0  0  0  0  0  0  0  0  0
  -12.8014    3.0626  -22.7146 C   0  0  0  0  0  0  0  0  0  0  0  0
  -13.2835    3.1457  -21.4355 F   0  0  0  0  0  0  0  0  0  0  0  0
  -11.9578    4.1408  -23.0147 F   0  0  0  0  0  0  0  0  0  0  0  0
  -13.8184    3.0948  -23.6282 F   0  0  0  0  0  0  0  0  0  0  0  0
  -10.5344   -2.8492  -24.3637 C   0  0  0  0  0  0  0  0  0  0  0  0
   -9.4710   -3.8603  -24.1935 C   0  0  0  0  0  0  0  0  0  0  0  0
   -8.6525   -3.8633  -23.0654 C   0  0  0  0  0  0  0  0  0  0  0  0
   -7.6779   -4.7718  -22.8849 N   0  0  0  0  0  0  0  0  0  0  0  0
   -7.4609   -5.7216  -23.8049 C   0  0  0  0  0  0  0  0  0  0  0  0
   -8.2554   -5.7466  -24.9357 C   0  0  0  0  0  0  0  0  0  0  0  0
   -8.0043   -6.7445  -25.8705 C   0  0  0  0  0  0  0  0  0  0  0  0
   -8.7529   -6.8450  -27.0352 C   0  0  0  0  0  0  0  0  0  0  0  0
   -9.7510   -5.9124  -27.2173 C   0  0  0  0  0  0  0  0  0  0  0  0
  -10.0084   -4.9159  -26.2928 C   0  0  0  0  0  0  0  0  0  0  0  0
   -9.2630   -4.8306  -25.1522 C   0  0  0  0  0  0  0  0  0  0  0  0
  1  2  2  0  0  0
  2 13  1  0  0  0
  2  3  1  0  0  0
 13 14  1  0  0  0
 14 15  2  0  0  0
 15 16  1  0  0  0
 16 17  2  0  0  0
 17 18  1  0  0  0
 18 19  2  0  0  0
 19 20  1  0  0  0
 20 21  2  0  0  0
 21 22  1  0  0  0
 22 23  2  0  0  0
 23 14  1  0  0  0
 23 18  1  0  0  0
  3  4  1  0  0  0
  4  5  1  0  0  0
  5  6  1  0  0  0
  6  9  1  0  0  0
  6  7  1  0  0  0
  9 10  1  0  0  0
  9 11  1  0  0  0
  9 12  1  0  0  0
  7  8  1  0  0  0
  8  3  1  0  0  0
M  END
> <minimizedAffinity>
-6.63150

> <CNNscore>
0.3586344123

> <CNNaffinity>
5.1311550140

> <CNN_VS>
1.8402087688

> <CNNaffinity_variance>
0.1303156316

$$$$



 23 25  0  0  0  0  0  0  0  0999 V2000
   -6.3428   -1.8017  -24.3328 O   0  0  0  0  0  0  0  0  0  0  0  0
   -7.0006   -1.8990  -23.2419 C   0  0  0  0  0  0  0  0  0  0  0  0
   -6.4393   -1.5356  -21.9868 N   0  0  0  0  0  0  0  0  0  0  0  0
   -7.2540   -1.6800  -20.8172 C   0  0  0  0  0  0  0  0  0  0  0  0
   -6.9839   -0.6238  -19.7553 C   0  0  0  0  0  0  0  0  0  0  0  0
   -5.4736   -0.5403  -19.6472 C   0  0  0  0  0  0  0  0  0  0  0  0
   -4.9935    0.0493  -20.9358 C   0  0  0  0  0  0  0  0  0  0  0  0
   -5.0751   -1.0432  -21.9823 C   0  0  0  0  0  0  0  0  0  0  0  0
   -5.0053    0.1712  -18.4145 C   0  0  0  0  0  0  0  0  0  0  0  0
   -3.9613    1.0289  -18.6374 F   0  0  0  0  0  0  0  0  0  0  0  0
   -6.1289    0.8495  -17.9231 F   0  0  0  0  0  0  0  0  0  0  0  0
   -4.6779   -0.7725  -17.4806 F   0  0  0  0  0  0  0  0  0  0  0  0
   -8.3885   -2.4170  -23.3807 C   0  0  0  0  0  0  0  0  0  0  0  0
   -9.3142   -1.2836  -23.5821 C   0  0  0  0  0  0  0  0  0  0  0  0
   -8.8597   -0.0589  -24.0682 C   0  0  0  0  0  0  0  0  0  0  0  0
   -9.6801    0.9887  -24.2614 N   0  0  0  0  0  0  0  0  0  0  0  0
  -10.9873    0.8828  -23.9862 C   0  0  0  0  0  0  0  0  0  0  0  0
  -11.4703   -0.3186  -23.5025 C   0  0  0  0  0  0  0  0  0  0  0  0
  -12.8308   -0.3953  -23.2269 C   0  0  0  0  0  0  0  0  0  0  0  0
  -13.4019   -1.5624  -22.7382 C   0  0  0  0  0  0  0  0  0  0  0  0
  -12.5584   -2.6342  -22.5412 C   0  0  0  0  0  0  0  0  0  0  0  0
  -11.2035   -2.5675  -22.8125 C   0  0  0  0  0  0  0  0  0  0  0  0
  -10.6571   -1.4122  -23.2928 C   0  0  0  0  0  0  0  0  0  0  0  0
  1  2  2  0  0  0
  2 13  1  0  0  0
  2  3  1  0  0  0
 13 14  1  0  0  0
 14 15  2  0  0  0
 15 16  1  0  0  0
 16 17  2  0  0  0
 17 18  1  0  0  0
 18 19  2  0  0  0
 19 20  1  0  0  0
 20 21  2  0  0  0
 21 22  1  0  0  0
 22 23  2  0  0  0
 23 14  1  0  0  0
 23 18  1  0  0  0
  3  4  1  0  0  0
  4  5  1  0  0  0
  5  6  1  0  0  0
  6  9  1  0  0  0
  6  7  1  0  0  0
  9 10  1  0  0  0
  9 11  1  0  0  0
  9 12  1  0  0  0
  7  8  1  0  0  0
  8  3  1  0  0  0
M  END
> <minimizedAffinity>
-6.48861

> <CNNscore>
0.2965162992

> <CNNaffinity>
5.0349898338

> <CNN_VS>
1.4929565191

> <CNNaffinity_variance>
0.3324443698

$$$$



 23 25  0  0  0  0  0  0  0  0999 V2000
   -6.9856    1.6372  -21.7701 O   0  0  0  0  0  0  0  0  0  0  0  0
   -7.1050    0.3878  -21.5315 C   0  0  0  0  0  0  0  0  0  0  0  0
   -8.3206   -0.3125  -21.7643 N   0  0  0  0  0  0  0  0  0  0  0  0
   -8.3591   -1.7132  -21.4658 C   0  0  0  0  0  0  0  0  0  0  0  0
   -9.2586   -2.5086  -22.4009 C   0  0  0  0  0  0  0  0  0  0  0  0
  -10.5369   -1.7004  -22.5120 C   0  0  0  0  0  0  0  0  0  0  0  0
  -10.1802   -0.4530  -23.2572 C   0  0  0  0  0  0  0  0  0  0  0  0
   -9.4393    0.4468  -22.2894 C   0  0  0  0  0  0  0  0  0  0  0  0
  -11.6810   -2.4758  -23.0906 C   0  0  0  0  0  0  0  0  0  0  0  0
  -11.3001   -3.6296  -23.7224 F   0  0  0  0  0  0  0  0  0  0  0  0
  -12.5374   -2.7410  -22.0133 F   0  0  0  0  0  0  0  0  0  0  0  0
  -12.3642   -1.6504  -23.9401 F   0  0  0  0  0  0  0  0  0  0  0  0
   -5.8860   -0.2762  -20.9957 C   0  0  0  0  0  0  0  0  0  0  0  0
   -4.7422    0.0140  -21.8842 C   0  0  0  0  0  0  0  0  0  0  0  0
   -4.7350   -0.4092  -23.2122 C   0  0  0  0  0  0  0  0  0  0  0  0
   -3.7077   -0.1585  -24.0426 N   0  0  0  0  0  0  0  0  0  0  0  0
   -2.6377    0.5208  -23.6076 C   0  0  0  0  0  0  0  0  0  0  0  0
   -2.6133    0.9548  -22.2955 C   0  0  0  0  0  0  0  0  0  0  0  0
   -1.4888    1.6563  -21.8758 C   0  0  0  0  0  0  0  0  0  0  0  0
   -1.3791    2.1295  -20.5754 C   0  0  0  0  0  0  0  0  0  0  0  0
   -2.4335    1.8708  -19.7267 C   0  0  0  0  0  0  0  0  0  0  0  0
   -3.5565    1.1736  -20.1351 C   0  0  0  0  0  0  0  0  0  0  0  0
   -3.6491    0.7149  -21.4176 C   0  0  0  0  0  0  0  0  0  0  0  0
  1  2  2  0  0  0
  2 13  1  0  0  0
  2  3  1  0  0  0
 13 14  1  0  0  0
 14 15  2  0  0  0
 15 16  1  0  0  0
 16 17  2  0  0  0
 17 18  1  0  0  0
 18 19  2  0  0  0
 19 20  1  0  0  0
 20 21  2  0  0  0
 21 22  1  0  0  0
 22 23  2  0  0  0
 23 14  1  0  0  0
 23 18  1  0  0  0
  3  4  1  0  0  0
  4  5  1  0  0  0
  5  6  1  0  0  0
  6  9  1  0  0  0
  6  7  1  0  0  0
  9 10  1  0  0  0
  9 11  1  0  0  0
  9 12  1  0  0  0
  7  8  1  0  0  0
  8  3  1  0  0  0
M  END
> <minimizedAffinity>
-6.12945

> <CNNscore>
0.2956111133

> <CNNaffinity>
4.8353271484

> <CNN_VS>
1.4293764830

> <CNNaffinity_variance>
0.1584224999

$$$$



 25 28  0  0  0  0  0  0  0  0999 V2000
   -8.4232    0.1108  -21.3035 O   0  0  0  0  0  0  0  0  0  0  0  0
   -7.8355   -0.9859  -21.5653 C   0  0  0  0  0  0  0  0  0  0  0  0
   -8.1358   -1.5208  -22.8820 N   0  0  0  0  0  0  0  0  0  0  0  0
   -7.4858   -2.7302  -23.3566 C   0  0  0  0  0  0  0  0  0  0  0  0
   -7.9324   -3.2576  -24.6584 C   0  0  0  0  0  0  0  0  0  0  0  0
   -8.8584   -2.4439  -25.4820 C   0  0  0  0  0  0  0  0  0  0  0  0
   -8.7571   -0.9808  -25.1668 C   0  0  0  0  0  0  0  0  0  0  0  0
   -9.0992   -0.8055  -23.7192 C   0  0  0  0  0  0  0  0  0  0  0  0
  -10.4929   -1.1223  -23.4209 C   0  0  0  0  0  0  0  0  0  0  0  0
  -11.5174   -0.2197  -23.7109 C   0  0  0  0  0  0  0  0  0  0  0  0
  -12.8437   -0.4977  -23.4148 C   0  0  0  0  0  0  0  0  0  0  0  0
  -13.2142   -1.7071  -22.8085 C   0  0  0  0  0  0  0  0  0  0  0  0
  -12.1979   -2.5903  -22.5264 C   0  0  0  0  0  0  0  0  0  0  0  0
  -10.8617   -2.3222  -22.8180 C   0  0  0  0  0  0  0  0  0  0  0  0
   -6.9188   -1.6607  -20.6129 C   0  0  0  0  0  0  0  0  0  0  0  0
   -6.1050   -0.7518  -19.7910 C   0  0  0  0  0  0  0  0  0  0  0  0
   -6.4942   -0.6154  -18.4420 C   0  0  0  0  0  0  0  0  0  0  0  0
   -5.8067    0.1373  -17.5805 N   0  0  0  0  0  0  0  0  0  0  0  0
   -4.7021    0.8225  -17.9193 C   0  0  0  0  0  0  0  0  0  0  0  0
   -4.2735    0.7224  -19.2549 C   0  0  0  0  0  0  0  0  0  0  0  0
   -3.1476    1.4219  -19.6840 C   0  0  0  0  0  0  0  0  0  0  0  0
   -2.7260    1.3505  -21.0093 C   0  0  0  0  0  0  0  0  0  0  0  0
   -3.4619    0.5637  -21.8839 C   0  0  0  0  0  0  0  0  0  0  0  0
   -4.5689   -0.1236  -21.4482 C   0  0  0  0  0  0  0  0  0  0  0  0
   -4.9895   -0.0646  -20.1601 C   0  0  0  0  0  0  0  0  0  0  0  0
  1  2  2  0  0  0
  2 15  1  0  0  0
  2  3  1  0  0  0
 15 16  1  0  0  0
 16 17  2  0  0  0
 17 18  1  0  0  0
 18 19  2  0  0  0
 19 20  1  0  0  0
 20 21  2  0  0  0
 21 22  1  0  0  0
 22 23  2  0  0  0
 23 24  1  0  0  0
 24 25  2  0  0  0
 25 16  1  0  0  0
 25 20  1  0  0  0
  3  4  1  0  0  0
  4  5  1  0  0  0
  5  6  1  0  0  0
  6  7  1  0  0  0
  7  8  1  0  0  0
  8  9  1  0  0  0
  8  3  1  0  0  0
  9 10  2  0  0  0
 10 11  1  0  0  0
 11 12  2  0  0  0
 12 13  1  0  0  0
 13 14  2  0  0  0
 14  9  1  0  0  0
M  END
> <minimizedAffinity>
-6.97134

> <CNNscore>
0.7506673932

> <CNNaffinity>
5.7503423691

> <CNN_VS>
4.3165946007

> <CNNaffinity_variance>
0.2456425130

$$$$



 25 28  0  0  0  0  0  0  0  0999 V2000
   -5.2956   -3.9777  -21.1238 O   0  0  0  0  0  0  0  0  0  0  0  0
   -6.2170   -3.5301  -21.8769 C   0  0  0  0  0  0  0  0  0  0  0  0
   -6.8531   -4.5420  -22.7024 N   0  0  0  0  0  0  0  0  0  0  0  0
   -7.9721   -4.2003  -23.5634 C   0  0  0  0  0  0  0  0  0  0  0  0
   -8.4827   -5.2662  -24.4441 C   0  0  0  0  0  0  0  0  0  0  0  0
   -7.9686   -6.6460  -24.2719 C   0  0  0  0  0  0  0  0  0  0  0  0
   -7.4547   -6.8880  -22.8835 C   0  0  0  0  0  0  0  0  0  0  0  0
   -6.3453   -5.9126  -22.6358 C   0  0  0  0  0  0  0  0  0  0  0  0
   -5.1770   -6.1529  -23.4779 C   0  0  0  0  0  0  0  0  0  0  0  0
   -4.1023   -6.9180  -23.0221 C   0  0  0  0  0  0  0  0  0  0  0  0
   -2.9769   -7.1380  -23.8025 C   0  0  0  0  0  0  0  0  0  0  0  0
   -2.8713   -6.5982  -25.0929 C   0  0  0  0  0  0  0  0  0  0  0  0
   -3.9353   -5.8456  -25.5336 C   0  0  0  0  0  0  0  0  0  0  0  0
   -5.0708   -5.6166  -24.7587 C   0  0  0  0  0  0  0  0  0  0  0  0
   -6.6136   -2.1002  -21.9090 C   0  0  0  0  0  0  0  0  0  0  0  0
   -6.1467   -1.3048  -20.7630 C   0  0  0  0  0  0  0  0  0  0  0  0
   -6.8333   -1.5027  -19.5467 C   0  0  0  0  0  0  0  0  0  0  0  0
   -6.4725   -0.8811  -18.4220 N   0  0  0  0  0  0  0  0  0  0  0  0
   -5.4409   -0.0236  -18.3526 C   0  0  0  0  0  0  0  0  0  0  0  0
   -4.7248    0.2109  -19.5400 C   0  0  0  0  0  0  0  0  0  0  0  0
   -3.6555    1.1040  -19.5489 C   0  0  0  0  0  0  0  0  0  0  0  0
   -2.9529    1.3634  -20.7229 C   0  0  0  0  0  0  0  0  0  0  0  0
   -3.3522    0.7063  -21.8780 C   0  0  0  0  0  0  0  0  0  0  0  0
   -4.4067   -0.1743  -21.8560 C   0  0  0  0  0  0  0  0  0  0  0  0
   -5.0984   -0.4377  -20.7195 C   0  0  0  0  0  0  0  0  0  0  0  0
  1  2  2  0  0  0
  2 15  1  0  0  0
  2  3  1  0  0  0
 15 16  1  0  0  0
 16 17  2  0  0  0
 17 18  1  0  0  0
 18 19  2  0  0  0
 19 20  1  0  0  0
 20 21  2  0  0  0
 21 22  1  0  0  0
 22 23  2  0  0  0
 23 24  1  0  0  0
 24 25  2  0  0  0
 25 16  1  0  0  0
 25 20  1  0  0  0
  3  4  1  0  0  0
  4  5  1  0  0  0
  5  6  1  0  0  0
  6  7  1  0  0  0
  7  8  1  0  0  0
  8  9  1  0  0  0
  8  3  1  0  0  0
  9 10  2  0  0  0
 10 11  1  0  0  0
 11 12  2  0  0  0
 12 13  1  0  0  0
 13 14  2  0  0  0
 14  9  1  0  0  0
M  END
> <minimizedAffinity>
-7.61914

> <CNNscore>
0.7471936941

> <CNNaffinity>
5.6226797104

> <CNN_VS>
4.2012310028

> <CNNaffinity_variance>
0.1624310762

$$$$



 25 28  0  0  0  0  0  0  0  0999 V2000
   -7.1692   -3.3074  -22.7169 O   0  0  0  0  0  0  0  0  0  0  0  0
   -7.5179   -2.0893  -22.8238 C   0  0  0  0  0  0  0  0  0  0  0  0
   -8.9209   -1.8998  -23.1493 N   0  0  0  0  0  0  0  0  0  0  0  0
   -9.4883   -0.5653  -23.2346 C   0  0  0  0  0  0  0  0  0  0  0  0
  -10.8910   -0.4665  -23.6761 C   0  0  0  0  0  0  0  0  0  0  0  0
  -11.6862   -1.7093  -23.8206 C   0  0  0  0  0  0  0  0  0  0  0  0
  -11.1606   -2.8193  -22.9594 C   0  0  0  0  0  0  0  0  0  0  0  0
   -9.7472   -3.0854  -23.3777 C   0  0  0  0  0  0  0  0  0  0  0  0
   -9.6457   -3.6265  -24.7300 C   0  0  0  0  0  0  0  0  0  0  0  0
  -10.3076   -4.8014  -25.0900 C   0  0  0  0  0  0  0  0  0  0  0  0
  -10.2044   -5.3389  -26.3647 C   0  0  0  0  0  0  0  0  0  0  0  0
   -9.4261   -4.7188  -27.3532 C   0  0  0  0  0  0  0  0  0  0  0  0
   -8.7775   -3.5614  -26.9892 C   0  0  0  0  0  0  0  0  0  0  0  0
   -8.8725   -3.0122  -25.7118 C   0  0  0  0  0  0  0  0  0  0  0  0
   -6.5774   -0.9577  -22.6294 C   0  0  0  0  0  0  0  0  0  0  0  0
   -6.3127   -0.6101  -21.2247 C   0  0  0  0  0  0  0  0  0  0  0  0
   -7.2486   -1.0805  -20.2799 C   0  0  0  0  0  0  0  0  0  0  0  0
   -7.0936   -0.8777  -18.9698 N   0  0  0  0  0  0  0  0  0  0  0  0
   -6.0493   -0.2152  -18.4455 C   0  0  0  0  0  0  0  0  0  0  0  0
   -5.0884    0.2774  -19.3464 C   0  0  0  0  0  0  0  0  0  0  0  0
   -3.9888    0.9925  -18.8767 C   0  0  0  0  0  0  0  0  0  0  0  0
   -3.0423    1.5063  -19.7596 C   0  0  0  0  0  0  0  0  0  0  0  0
   -3.2308    1.2838  -21.1163 C   0  0  0  0  0  0  0  0  0  0  0  0
   -4.3179    0.5747  -21.5671 C   0  0  0  0  0  0  0  0  0  0  0  0
   -5.2461    0.0672  -20.7184 C   0  0  0  0  0  0  0  0  0  0  0  0
  1  2  2  0  0  0
  2 15  1  0  0  0
  2  3  1  0  0  0
 15 16  1  0  0  0
 16 17  2  0  0  0
 17 18  1  0  0  0
 18 19  2  0  0  0
 19 20  1  0  0  0
 20 21  2  0  0  0
 21 22  1  0  0  0
 22 23  2  0  0  0
 23 24  1  0  0  0
 24 25  2  0  0  0
 25 16  1  0  0  0
 25 20  1  0  0  0
  3  4  1  0  0  0
  4  5  1  0  0  0
  5  6  1  0  0  0
  6  7  1  0  0  0
  7  8  1  0  0  0
  8  9  1  0  0  0
  8  3  1  0  0  0
  9 10  2  0  0  0
 10 11  1  0  0  0
 11 12  2  0  0  0
 12 13  1  0  0  0
 13 14  2  0  0  0
 14  9  1  0  0  0
M  END
> <minimizedAffinity>
-7.05118

> <CNNscore>
0.5494841337

> <CNNaffinity>
5.3776340485

> <CNN_VS>
2.9549245834

> <CNNaffinity_variance>
0.2693037391

$$$$



 25 28  0  0  0  0  0  0  0  0999 V2000
   -8.6642    1.0800  -21.3785 O   0  0  0  0  0  0  0  0  0  0  0  0
   -7.9609    0.7054  -22.3692 C   0  0  0  0  0  0  0  0  0  0  0  0
   -8.3897    1.2554  -23.6435 N   0  0  0  0  0  0  0  0  0  0  0  0
   -7.6437    0.9787  -24.8589 C   0  0  0  0  0  0  0  0  0  0  0  0
   -8.2135    1.4885  -26.1190 C   0  0  0  0  0  0  0  0  0  0  0  0
   -9.3839    2.3966  -26.0608 C   0  0  0  0  0  0  0  0  0  0  0  0
   -9.4670    3.1276  -24.7535 C   0  0  0  0  0  0  0  0  0  0  0  0
   -9.5830    2.1016  -23.6684 C   0  0  0  0  0  0  0  0  0  0  0  0
  -10.8370    1.3556  -23.7217 C   0  0  0  0  0  0  0  0  0  0  0  0
  -12.0681    2.0013  -23.5960 C   0  0  0  0  0  0  0  0  0  0  0  0
  -13.2668    1.3039  -23.6239 C   0  0  0  0  0  0  0  0  0  0  0  0
  -13.2927   -0.0895  -23.7825 C   0  0  0  0  0  0  0  0  0  0  0  0
  -12.0747   -0.7172  -23.9055 C   0  0  0  0  0  0  0  0  0  0  0  0
  -10.8637   -0.0279  -23.8780 C   0  0  0  0  0  0  0  0  0  0  0  0
   -6.8000   -0.2101  -22.2381 C   0  0  0  0  0  0  0  0  0  0  0  0
   -6.0117   -0.0344  -21.0087 C   0  0  0  0  0  0  0  0  0  0  0  0
   -6.3803   -0.8416  -19.9121 C   0  0  0  0  0  0  0  0  0  0  0  0
   -5.7105   -0.8149  -18.7579 N   0  0  0  0  0  0  0  0  0  0  0  0
   -4.6444   -0.0265  -18.5430 C   0  0  0  0  0  0  0  0  0  0  0  0
   -4.2378    0.8008  -19.6050 C   0  0  0  0  0  0  0  0  0  0  0  0
   -3.1528    1.6606  -19.4479 C   0  0  0  0  0  0  0  0  0  0  0  0
   -2.7543    2.5022  -20.4833 C   0  0  0  0  0  0  0  0  0  0  0  0
   -3.4712    2.4565  -21.6706 C   0  0  0  0  0  0  0  0  0  0  0  0
   -4.5378    1.6023  -21.8142 C   0  0  0  0  0  0  0  0  0  0  0  0
   -4.9354    0.7760  -20.8150 C   0  0  0  0  0  0  0  0  0  0  0  0
  1  2  2  0  0  0
  2 15  1  0  0  0
  2  3  1  0  0  0
 15 16  1  0  0  0
 16 17  2  0  0  0
 17 18  1  0  0  0
 18 19  2  0  0  0
 19 20  1  0  0  0
 20 21  2  0  0  0
 21 22  1  0  0  0
 22 23  2  0  0  0
 23 24  1  0  0  0
 24 25  2  0  0  0
 25 16  1  0  0  0
 25 20  1  0  0  0
  3  4  1  0  0  0
  4  5  1  0  0  0
  5  6  1  0  0  0
  6  7  1  0  0  0
  7  8  1  0  0  0
  8  9  1  0  0  0
  8  3  1  0  0  0
  9 10  2  0  0  0
 10 11  1  0  0  0
 11 12  2  0  0  0
 12 13  1  0  0  0
 13 14  2  0  0  0
 14  9  1  0  0  0
M  END
> <minimizedAffinity>
-6.81792

> <CNNscore>
0.5256935358

> <CNNaffinity>
5.2588820457

> <CNN_VS>
2.7645602226

> <CNNaffinity_variance>
0.2155604064

$$$$



 25 28  0  0  0  0  0  0  0  0999 V2000
   -6.2828   -2.4156  -22.6438 O   0  0  0  0  0  0  0  0  0  0  0  0
   -7.0130   -1.3770  -22.7130 C   0  0  0  0  0  0  0  0  0  0  0  0
   -7.2148   -0.8821  -24.0637 N   0  0  0  0  0  0  0  0  0  0  0  0
   -8.0838    0.2546  -24.3146 C   0  0  0  0  0  0  0  0  0  0  0  0
   -8.1426    0.7531  -25.7003 C   0  0  0  0  0  0  0  0  0  0  0  0
   -7.4805   -0.0284  -26.7720 C   0  0  0  0  0  0  0  0  0  0  0  0
   -7.3490   -1.4792  -26.4139 C   0  0  0  0  0  0  0  0  0  0  0  0
   -6.5301   -1.5635  -25.1626 C   0  0  0  0  0  0  0  0  0  0  0  0
   -5.1481   -1.1342  -25.3564 C   0  0  0  0  0  0  0  0  0  0  0  0
   -4.3387   -1.7209  -26.3304 C   0  0  0  0  0  0  0  0  0  0  0  0
   -3.0179   -1.3381  -26.5127 C   0  0  0  0  0  0  0  0  0  0  0  0
   -2.4364   -0.3368  -25.7211 C   0  0  0  0  0  0  0  0  0  0  0  0
   -3.2417    0.2356  -24.7638 C   0  0  0  0  0  0  0  0  0  0  0  0
   -4.5695   -0.1409  -24.5703 C   0  0  0  0  0  0  0  0  0  0  0  0
   -7.6119   -0.7273  -21.5205 C   0  0  0  0  0  0  0  0  0  0  0  0
   -6.6748   -0.4890  -20.4119 C   0  0  0  0  0  0  0  0  0  0  0  0
   -6.8746   -1.2641  -19.2504 C   0  0  0  0  0  0  0  0  0  0  0  0
   -6.0607   -1.1803  -18.1959 N   0  0  0  0  0  0  0  0  0  0  0  0
   -4.9977   -0.3604  -18.1492 C   0  0  0  0  0  0  0  0  0  0  0  0
   -4.7563    0.4370  -19.2822 C   0  0  0  0  0  0  0  0  0  0  0  0
   -3.6841    1.3266  -19.2977 C   0  0  0  0  0  0  0  0  0  0  0  0
   -3.4477    2.1391  -20.4036 C   0  0  0  0  0  0  0  0  0  0  0  0
   -4.3121    2.0338  -21.4841 C   0  0  0  0  0  0  0  0  0  0  0  0
   -5.3645    1.1508  -21.4579 C   0  0  0  0  0  0  0  0  0  0  0  0
   -5.6052    0.3523  -20.3883 C   0  0  0  0  0  0  0  0  0  0  0  0
  1  2  2  0  0  0
  2 15  1  0  0  0
  2  3  1  0  0  0
 15 16  1  0  0  0
 16 17  2  0  0  0
 17 18  1  0  0  0
 18 19  2  0  0  0
 19 20  1  0  0  0
 20 21  2  0  0  0
 21 22  1  0  0  0
 22 23  2  0  0  0
 23 24  1  0  0  0
 24 25  2  0  0  0
 25 16  1  0  0  0
 25 20  1  0  0  0
  3  4  1  0  0  0
  4  5  1  0  0  0
  5  6  1  0  0  0
  6  7  1  0  0  0
  7  8  1  0  0  0
  8  9  1  0  0  0
  8  3  1  0  0  0
  9 10  2  0  0  0
 10 11  1  0  0  0
 11 12  2  0  0  0
 12 13  1  0  0  0
 13 14  2  0  0  0
 14  9  1  0  0  0
M  END
> <minimizedAffinity>
-5.91854

> <CNNscore>
0.5101056099

> <CNNaffinity>
5.1929473877

> <CNN_VS>
2.6489515305

> <CNNaffinity_variance>
0.1060547084

$$$$



 25 28  0  0  0  0  0  0  0  0999 V2000
   -8.0218   -4.1055  -22.8042 O   0  0  0  0  0  0  0  0  0  0  0  0
   -8.4881   -3.5909  -23.8693 C   0  0  0  0  0  0  0  0  0  0  0  0
   -8.5955   -4.5207  -24.9802 N   0  0  0  0  0  0  0  0  0  0  0  0
   -9.1773   -4.1020  -26.2436 C   0  0  0  0  0  0  0  0  0  0  0  0
   -9.1457   -5.0795  -27.3462 C   0  0  0  0  0  0  0  0  0  0  0  0
   -8.7086   -6.4672  -27.0616 C   0  0  0  0  0  0  0  0  0  0  0  0
   -8.9153   -6.8406  -25.6235 C   0  0  0  0  0  0  0  0  0  0  0  0
   -8.1136   -5.8890  -24.7897 C   0  0  0  0  0  0  0  0  0  0  0  0
   -6.6737   -6.0413  -24.9774 C   0  0  0  0  0  0  0  0  0  0  0  0
   -5.9892   -7.1409  -24.4574 C   0  0  0  0  0  0  0  0  0  0  0  0
   -4.6184   -7.2890  -24.6097 C   0  0  0  0  0  0  0  0  0  0  0  0
   -3.8571   -6.3339  -25.2992 C   0  0  0  0  0  0  0  0  0  0  0  0
   -4.5402   -5.2536  -25.8082 C   0  0  0  0  0  0  0  0  0  0  0  0
   -5.9168   -5.0930  -25.6609 C   0  0  0  0  0  0  0  0  0  0  0  0
   -8.8923   -2.1664  -23.9708 C   0  0  0  0  0  0  0  0  0  0  0  0
  -10.2924   -1.8954  -23.6102 C   0  0  0  0  0  0  0  0  0  0  0  0
  -11.0542   -3.0068  -23.1926 C   0  0  0  0  0  0  0  0  0  0  0  0
  -12.3204   -2.8845  -22.7887 N   0  0  0  0  0  0  0  0  0  0  0  0
  -12.9704   -1.7096  -22.7481 C   0  0  0  0  0  0  0  0  0  0  0  0
  -12.2554   -0.5701  -23.1577 C   0  0  0  0  0  0  0  0  0  0  0  0
  -12.8713    0.6797  -23.1621 C   0  0  0  0  0  0  0  0  0  0  0  0
  -12.1824    1.8126  -23.5878 C   0  0  0  0  0  0  0  0  0  0  0  0
  -10.8686    1.6554  -24.0060 C   0  0  0  0  0  0  0  0  0  0  0  0
  -10.2713    0.4181  -23.9946 C   0  0  0  0  0  0  0  0  0  0  0  0
  -10.9298   -0.6931  -23.5808 C   0  0  0  0  0  0  0  0  0  0  0  0
  1  2  2  0  0  0
  2 15  1  0  0  0
  2  3  1  0  0  0
 15 16  1  0  0  0
 16 17  2  0  0  0
 17 18  1  0  0  0
 18 19  2  0  0  0
 19 20  1  0  0  0
 20 21  2  0  0  0
 21 22  1  0  0  0
 22 23  2  0  0  0
 23 24  1  0  0  0
 24 25  2  0  0  0
 25 16  1  0  0  0
 25 20  1  0  0  0
  3  4  1  0  0  0
  4  5  1  0  0  0
  5  6  1  0  0  0
  6  7  1  0  0  0
  7  8  1  0  0  0
  8  9  1  0  0  0
  8  3  1  0  0  0
  9 10  2  0  0  0
 10 11  1  0  0  0
 11 12  2  0  0  0
 12 13  1  0  0  0
 13 14  2  0  0  0
 14  9  1  0  0  0
M  END
> <minimizedAffinity>
-6.65163

> <CNNscore>
0.4925250411

> <CNNaffinity>
5.3782091141

> <CNN_VS>
2.6489026546

> <CNNaffinity_variance>
0.1005584151

$$$$



 25 28  0  0  0  0  0  0  0  0999 V2000
   -7.8064    1.4495  -21.5823 O   0  0  0  0  0  0  0  0  0  0  0  0
   -7.7735    0.3499  -22.2197 C   0  0  0  0  0  0  0  0  0  0  0  0
   -6.9988   -0.6915  -21.5674 N   0  0  0  0  0  0  0  0  0  0  0  0
   -6.9254   -2.0265  -22.1353 C   0  0  0  0  0  0  0  0  0  0  0  0
   -6.0299   -2.9858  -21.4643 C   0  0  0  0  0  0  0  0  0  0  0  0
   -5.4158   -2.6079  -20.1690 C   0  0  0  0  0  0  0  0  0  0  0  0
   -6.2230   -1.5736  -19.4418 C   0  0  0  0  0  0  0  0  0  0  0  0
   -6.3053   -0.3640  -20.3213 C   0  0  0  0  0  0  0  0  0  0  0  0
   -5.0134    0.2876  -20.5162 C   0  0  0  0  0  0  0  0  0  0  0  0
   -4.3653    0.9371  -19.4644 C   0  0  0  0  0  0  0  0  0  0  0  0
   -3.1476    1.5781  -19.6387 C   0  0  0  0  0  0  0  0  0  0  0  0
   -2.5107    1.5994  -20.8883 C   0  0  0  0  0  0  0  0  0  0  0  0
   -3.1568    0.9567  -21.9189 C   0  0  0  0  0  0  0  0  0  0  0  0
   -4.3807    0.3102  -21.7566 C   0  0  0  0  0  0  0  0  0  0  0  0
   -8.4684    0.1436  -23.5148 C   0  0  0  0  0  0  0  0  0  0  0  0
   -9.9113    0.4287  -23.4929 C   0  0  0  0  0  0  0  0  0  0  0  0
  -10.2905    1.7472  -23.8207 C   0  0  0  0  0  0  0  0  0  0  0  0
  -11.5707    2.1186  -23.8882 N   0  0  0  0  0  0  0  0  0  0  0  0
  -12.5941    1.2815  -23.6506 C   0  0  0  0  0  0  0  0  0  0  0  0
  -12.2691   -0.0451  -23.3161 C   0  0  0  0  0  0  0  0  0  0  0  0
  -13.2777   -0.9646  -23.0359 C   0  0  0  0  0  0  0  0  0  0  0  0
  -12.9692   -2.2751  -22.6802 C   0  0  0  0  0  0  0  0  0  0  0  0
  -11.6300   -2.6325  -22.6140 C   0  0  0  0  0  0  0  0  0  0  0  0
  -10.6444   -1.7174  -22.8953 C   0  0  0  0  0  0  0  0  0  0  0  0
  -10.9306   -0.4386  -23.2447 C   0  0  0  0  0  0  0  0  0  0  0  0
  1  2  2  0  0  0
  2 15  1  0  0  0
  2  3  1  0  0  0
 15 16  1  0  0  0
 16 17  2  0  0  0
 17 18  1  0  0  0
 18 19  2  0  0  0
 19 20  1  0  0  0
 20 21  2  0  0  0
 21 22  1  0  0  0
 22 23  2  0  0  0
 23 24  1  0  0  0
 24 25  2  0  0  0
 25 16  1  0  0  0
 25 20  1  0  0  0
  3  4  1  0  0  0
  4  5  1  0  0  0
  5  6  1  0  0  0
  6  7  1  0  0  0
  7  8  1  0  0  0
  8  9  1  0  0  0
  8  3  1  0  0  0
  9 10  2  0  0  0
 10 11  1  0  0  0
 11 12  2  0  0  0
 12 13  1  0  0  0
 13 14  2  0  0  0
 14  9  1  0  0  0
M  END
> <minimizedAffinity>
-7.46345

> <CNNscore>
0.4820693433

> <CNNaffinity>
5.1934933662

> <CNN_VS>
2.5036239624

> <CNNaffinity_variance>
0.1177147850

$$$$



 25 28  0  0  0  0  0  0  0  0999 V2000
   -8.2742    0.5368  -21.0817 O   0  0  0  0  0  0  0  0  0  0  0  0
   -7.5103    0.2670  -22.0618 C   0  0  0  0  0  0  0  0  0  0  0  0
   -7.9461    0.8317  -23.3272 N   0  0  0  0  0  0  0  0  0  0  0  0
   -7.1415    0.6726  -24.5261 C   0  0  0  0  0  0  0  0  0  0  0  0
   -7.7146    1.1846  -25.7838 C   0  0  0  0  0  0  0  0  0  0  0  0
   -8.9615    1.9847  -25.7300 C   0  0  0  0  0  0  0  0  0  0  0  0
   -9.1489    2.6494  -24.3983 C   0  0  0  0  0  0  0  0  0  0  0  0
   -9.2078    1.5718  -23.3596 C   0  0  0  0  0  0  0  0  0  0  0  0
  -10.3892    0.7232  -23.4858 C   0  0  0  0  0  0  0  0  0  0  0  0
  -11.6752    1.2647  -23.4516 C   0  0  0  0  0  0  0  0  0  0  0  0
  -12.8075    0.4693  -23.5495 C   0  0  0  0  0  0  0  0  0  0  0  0
  -12.7070   -0.9227  -23.6897 C   0  0  0  0  0  0  0  0  0  0  0  0
  -11.4356   -1.4473  -23.7224 C   0  0  0  0  0  0  0  0  0  0  0  0
  -10.2905   -0.6590  -23.6239 C   0  0  0  0  0  0  0  0  0  0  0  0
   -6.2782   -0.5494  -21.9272 C   0  0  0  0  0  0  0  0  0  0  0  0
   -5.1178    0.1706  -21.3803 C   0  0  0  0  0  0  0  0  0  0  0  0
   -5.2041    0.5524  -20.0251 C   0  0  0  0  0  0  0  0  0  0  0  0
   -4.1973    1.1638  -19.3974 N   0  0  0  0  0  0  0  0  0  0  0  0
   -3.0326    1.4665  -19.9940 C   0  0  0  0  0  0  0  0  0  0  0  0
   -2.8970    1.1095  -21.3475 C   0  0  0  0  0  0  0  0  0  0  0  0
   -1.7247    1.4104  -22.0377 C   0  0  0  0  0  0  0  0  0  0  0  0
   -1.5864    1.0839  -23.3844 C   0  0  0  0  0  0  0  0  0  0  0  0
   -2.6504    0.4524  -24.0126 C   0  0  0  0  0  0  0  0  0  0  0  0
   -3.8003    0.1584  -23.3205 C   0  0  0  0  0  0  0  0  0  0  0  0
   -3.9478    0.4690  -22.0085 C   0  0  0  0  0  0  0  0  0  0  0  0
  1  2  2  0  0  0
  2 15  1  0  0  0
  2  3  1  0  0  0
 15 16  1  0  0  0
 16 17  2  0  0  0
 17 18  1  0  0  0
 18 19  2  0  0  0
 19 20  1  0  0  0
 20 21  2  0  0  0
 21 22  1  0  0  0
 22 23  2  0  0  0
 23 24  1  0  0  0
 24 25  2  0  0  0
 25 16  1  0  0  0
 25 20  1  0  0  0
  3  4  1  0  0  0
  4  5  1  0  0  0
  5  6  1  0  0  0
  6  7  1  0  0  0
  7  8  1  0  0  0
  8  9  1  0  0  0
  8  3  1  0  0  0
  9 10  2  0  0  0
 10 11  1  0  0  0
 11 12  2  0  0  0
 12 13  1  0  0  0
 13 14  2  0  0  0
 14  9  1  0  0  0
M  END
> <minimizedAffinity>
-6.39043

> <CNNscore>
0.3767516613

> <CNNaffinity>
5.0410957336

> <CNN_VS>
1.8992412090

> <CNNaffinity_variance>
0.0502030775

$$$$



 25 28  0  0  0  0  0  0  0  0999 V2000
   -7.9848    1.0885  -21.5442 O   0  0  0  0  0  0  0  0  0  0  0  0
   -7.8749   -0.0156  -22.1652 C   0  0  0  0  0  0  0  0  0  0  0  0
   -7.0366   -0.9936  -21.4936 N   0  0  0  0  0  0  0  0  0  0  0  0
   -6.8711   -2.3287  -22.0414 C   0  0  0  0  0  0  0  0  0  0  0  0
   -5.9178   -3.2165  -21.3518 C   0  0  0  0  0  0  0  0  0  0  0  0
   -5.3381   -2.7799  -20.0590 C   0  0  0  0  0  0  0  0  0  0  0  0
   -6.2168   -1.7913  -19.3513 C   0  0  0  0  0  0  0  0  0  0  0  0
   -6.3741   -0.6027  -20.2490 C   0  0  0  0  0  0  0  0  0  0  0  0
   -5.1272    0.1307  -20.4468 C   0  0  0  0  0  0  0  0  0  0  0  0
   -4.4935    0.7786  -19.3854 C   0  0  0  0  0  0  0  0  0  0  0  0
   -3.3196    1.4963  -19.5615 C   0  0  0  0  0  0  0  0  0  0  0  0
   -2.7146    1.6005  -20.8227 C   0  0  0  0  0  0  0  0  0  0  0  0
   -3.3463    0.9588  -21.8628 C   0  0  0  0  0  0  0  0  0  0  0  0
   -4.5264    0.2356  -21.6988 C   0  0  0  0  0  0  0  0  0  0  0  0
   -8.5466   -0.2863  -23.4607 C   0  0  0  0  0  0  0  0  0  0  0  0
  -10.0071   -0.4411  -23.3777 C   0  0  0  0  0  0  0  0  0  0  0  0
  -10.4798   -1.7351  -23.0740 C   0  0  0  0  0  0  0  0  0  0  0  0
  -11.7798   -1.9944  -22.9186 N   0  0  0  0  0  0  0  0  0  0  0  0
  -12.7369   -1.0596  -23.0389 C   0  0  0  0  0  0  0  0  0  0  0  0
  -12.3178    0.2475  -23.3445 C   0  0  0  0  0  0  0  0  0  0  0  0
  -13.2560    1.2649  -23.5050 C   0  0  0  0  0  0  0  0  0  0  0  0
  -12.8564    2.5584  -23.8311 C   0  0  0  0  0  0  0  0  0  0  0  0
  -11.4990    2.7985  -23.9905 C   0  0  0  0  0  0  0  0  0  0  0  0
  -10.5832    1.7874  -23.8269 C   0  0  0  0  0  0  0  0  0  0  0  0
  -10.9582    0.5238  -23.5076 C   0  0  0  0  0  0  0  0  0  0  0  0
  1  2  2  0  0  0
  2 15  1  0  0  0
  2  3  1  0  0  0
 15 16  1  0  0  0
 16 17  2  0  0  0
 17 18  1  0  0  0
 18 19  2  0  0  0
 19 20  1  0  0  0
 20 21  2  0  0  0
 21 22  1  0  0  0
 22 23  2  0  0  0
 23 24  1  0  0  0
 24 25  2  0  0  0
 25 16  1  0  0  0
 25 20  1  0  0  0
  3  4  1  0  0  0
  4  5  1  0  0  0
  5  6  1  0  0  0
  6  7  1  0  0  0
  7  8  1  0  0  0
  8  9  1  0  0  0
  8  3  1  0  0  0
  9 10  2  0  0  0
 10 11  1  0  0  0
 11 12  2  0  0  0
 12 13  1  0  0  0
 13 14  2  0  0  0
 14  9  1  0  0  0
M  END
> <minimizedAffinity>
-7.81235

> <CNNscore>
0.3667520583

> <CNNaffinity>
4.9644918442

> <CNN_VS>
1.8207376003

> <CNNaffinity_variance>
0.3691455722

$$$$



 33 37  0  0  0  0  0  0  0  0999 V2000
   -7.4753   -0.6736  -22.8233 N   0  0  0  0  0  0  0  0  0  0  0  0
   -6.4158   -0.5782  -23.8012 C   0  0  0  0  0  0  0  0  0  0  0  0
   -7.0379   -0.3508  -25.1489 C   0  0  0  0  0  0  0  0  0  0  0  0
   -7.7965   -1.6344  -25.4694 C   0  0  0  0  0  0  0  0  0  0  0  0
   -9.0348   -1.7271  -25.5464 O   0  0  0  0  0  0  0  0  0  0  0  0
   -6.7748   -2.6547  -25.6533 N   0  0  0  0  0  0  0  0  0  0  0  0
   -5.6819   -1.9305  -26.2224 C   0  0  0  0  0  0  0  0  0  0  0  0
   -6.0683   -0.4315  -26.2695 C   0  0  0  0  0  0  0  0  0  0  0  0
   -4.8256    0.3939  -26.0653 C   0  0  0  0  0  0  0  0  0  0  0  0
   -7.9478    0.7809  -25.1223 C   0  0  0  0  0  0  0  0  0  0  0  0
   -8.2184    1.5638  -26.2526 C   0  0  0  0  0  0  0  0  0  0  0  0
   -9.0963    2.6302  -26.2017 C   0  0  0  0  0  0  0  0  0  0  0  0
   -9.7497    2.9778  -25.0389 C   0  0  0  0  0  0  0  0  0  0  0  0
   -9.4906    2.2154  -23.9238 C   0  0  0  0  0  0  0  0  0  0  0  0
   -8.6227    1.1630  -23.9783 C   0  0  0  0  0  0  0  0  0  0  0  0
   -8.3922    0.4113  -22.7495 C   0  0  0  0  0  0  0  0  0  0  0  0
   -8.9691    0.6916  -21.6563 O   0  0  0  0  0  0  0  0  0  0  0  0
   -7.0352   -3.9803  -25.2572 C   0  0  0  0  0  0  0  0  0  0  0  0
   -6.4028   -4.5140  -24.1138 C   0  0  0  0  0  0  0  0  0  0  0  0
   -6.6155   -5.7525  -23.6740 N   0  0  0  0  0  0  0  0  0  0  0  0
   -7.4484   -6.5870  -24.2869 C   0  0  0  0  0  0  0  0  0  0  0  0
   -8.1057   -6.1584  -25.4020 C   0  0  0  0  0  0  0  0  0  0  0  0
   -8.9669   -7.0403  -26.0140 C   0  0  0  0  0  0  0  0  0  0  0  0
   -9.6686   -6.6696  -27.1417 C   0  0  0  0  0  0  0  0  0  0  0  0
   -9.4523   -5.3868  -27.6008 C   0  0  0  0  0  0  0  0  0  0  0  0
   -8.5906   -4.5092  -26.9858 C   0  0  0  0  0  0  0  0  0  0  0  0
   -7.8936   -4.8586  -25.8776 C   0  0  0  0  0  0  0  0  0  0  0  0
   -7.6311   -1.8055  -21.9284 C   0  0  0  0  0  0  0  0  0  0  0  0
  -11.3594   -2.5440  -22.8365 C   0  0  0  0  0  0  0  0  0  0  0  0
  -10.1197   -1.8589  -22.5216 N   0  0  0  0  0  0  0  0  0  0  0  0
   -8.9039   -2.5456  -22.2531 C   0  0  0  0  0  0  0  0  0  0  0  0
   -8.9268   -3.8023  -22.2961 O   0  0  0  0  0  0  0  0  0  0  0  0
  -10.1204   -0.8749  -22.4924 H   0  0  0  0  0  0  0  0  0  0  0  0
 29 30  1  0  0  0
 30 31  1  0  0  0
 30 33  1  0  0  0
 31 32  2  0  0  0
 31 28  1  0  0  0
 28  1  1  0  0  0
  1  2  1  0  0  0
  3  2  1  0  0  0
  3  4  1  0  0  0
  3 10  1  0  0  0
  4  5  2  0  0  0
  4  6  1  0  0  0
  6 18  1  0  0  0
  6  7  1  0  0  0
 18 19  2  0  0  0
 19 20  1  0  0  0
 20 21  2  0  0  0
 21 22  1  0  0  0
 22 23  2  0  0  0
 23 24  1  0  0  0
 24 25  2  0  0  0
 25 26  1  0  0  0
 26 27  2  0  0  0
 27 18  1  0  0  0
 27 22  1  0  0  0
  7  8  1  0  0  0
  8  9  1  0  0  0
  8  3  1  0  0  0
 10 11  2  0  0  0
 11 12  1  0  0  0
 12 13  2  0  0  0
 13 14  1  0  0  0
 14 15  2  0  0  0
 15 16  1  0  0  0
 15 10  1  0  0  0
 16 17  2  0  0  0
 16  1  1  0  0  0
M  END
> <minimizedAffinity>
-6.62778

> <CNNscore>
0.6157016754

> <CNNaffinity>
5.9716043472

> <CNN_VS>
3.6767268181

> <CNNaffinity_variance>
0.0705641359

$$$$



 33 37  0  0  0  0  0  0  0  0999 V2000
   -5.7965   -2.9953  -21.7495 N   0  0  0  0  0  0  0  0  0  0  0  0
   -5.3763   -2.2683  -22.9253 C   0  0  0  0  0  0  0  0  0  0  0  0
   -5.8071   -0.8378  -22.7734 C   0  0  0  0  0  0  0  0  0  0  0  0
   -7.3315   -0.8648  -22.8137 C   0  0  0  0  0  0  0  0  0  0  0  0
   -8.0721   -0.5937  -21.8516 O   0  0  0  0  0  0  0  0  0  0  0  0
   -7.6779   -1.2581  -24.1716 N   0  0  0  0  0  0  0  0  0  0  0  0
   -6.6333   -0.6837  -24.9598 C   0  0  0  0  0  0  0  0  0  0  0  0
   -5.6101   -0.0269  -24.0006 C   0  0  0  0  0  0  0  0  0  0  0  0
   -4.2355   -0.1505  -24.6028 C   0  0  0  0  0  0  0  0  0  0  0  0
   -5.3445   -0.2817  -21.5140 C   0  0  0  0  0  0  0  0  0  0  0  0
   -5.0864    1.0843  -21.3368 C   0  0  0  0  0  0  0  0  0  0  0  0
   -4.6556    1.5885  -20.1242 C   0  0  0  0  0  0  0  0  0  0  0  0
   -4.4581    0.7756  -19.0287 C   0  0  0  0  0  0  0  0  0  0  0  0
   -4.7086   -0.5669  -19.1927 C   0  0  0  0  0  0  0  0  0  0  0  0
   -5.1339   -1.0610  -20.3922 C   0  0  0  0  0  0  0  0  0  0  0  0
   -5.3658   -2.4980  -20.4884 C   0  0  0  0  0  0  0  0  0  0  0  0
   -5.1989   -3.2862  -19.5100 O   0  0  0  0  0  0  0  0  0  0  0  0
   -8.8206   -2.0489  -24.3973 C   0  0  0  0  0  0  0  0  0  0  0  0
  -10.0997   -1.5559  -24.0611 C   0  0  0  0  0  0  0  0  0  0  0  0
  -11.2222   -2.2429  -24.2623 N   0  0  0  0  0  0  0  0  0  0  0  0
  -11.2205   -3.4578  -24.8006 C   0  0  0  0  0  0  0  0  0  0  0  0
  -10.0292   -4.0166  -25.1580 C   0  0  0  0  0  0  0  0  0  0  0  0
  -10.0561   -5.2731  -25.7187 C   0  0  0  0  0  0  0  0  0  0  0  0
   -8.8882   -5.8939  -26.1090 C   0  0  0  0  0  0  0  0  0  0  0  0
   -7.7225   -5.1856  -25.9035 C   0  0  0  0  0  0  0  0  0  0  0  0
   -7.7007   -3.9302  -25.3426 C   0  0  0  0  0  0  0  0  0  0  0  0
   -8.8394   -3.3073  -24.9535 C   0  0  0  0  0  0  0  0  0  0  0  0
   -6.6164   -4.1916  -21.8058 C   0  0  0  0  0  0  0  0  0  0  0  0
   -4.3734   -6.8946  -23.5186 C   0  0  0  0  0  0  0  0  0  0  0  0
   -5.2157   -5.7354  -23.2900 N   0  0  0  0  0  0  0  0  0  0  0  0
   -5.7434   -5.4035  -22.0120 C   0  0  0  0  0  0  0  0  0  0  0  0
   -5.4544   -6.1618  -21.0513 O   0  0  0  0  0  0  0  0  0  0  0  0
   -5.4315   -5.1528  -24.0536 H   0  0  0  0  0  0  0  0  0  0  0  0
 29 30  1  0  0  0
 30 31  1  0  0  0
 30 33  1  0  0  0
 31 32  2  0  0  0
 31 28  1  0  0  0
 28  1  1  0  0  0
  1  2  1  0  0  0
  3  2  1  0  0  0
  3  4  1  0  0  0
  3 10  1  0  0  0
  4  5  2  0  0  0
  4  6  1  0  0  0
  6 18  1  0  0  0
  6  7  1  0  0  0
 18 19  2  0  0  0
 19 20  1  0  0  0
 20 21  2  0  0  0
 21 22  1  0  0  0
 22 23  2  0  0  0
 23 24  1  0  0  0
 24 25  2  0  0  0
 25 26  1  0  0  0
 26 27  2  0  0  0
 27 18  1  0  0  0
 27 22  1  0  0  0
  7  8  1  0  0  0
  8  9  1  0  0  0
  8  3  1  0  0  0
 10 11  2  0  0  0
 11 12  1  0  0  0
 12 13  2  0  0  0
 13 14  1  0  0  0
 14 15  2  0  0  0
 15 16  1  0  0  0
 15 10  1  0  0  0
 16 17  2  0  0  0
 16  1  1  0  0  0
M  END
> <minimizedAffinity>
-6.89331

> <CNNscore>
0.5634415150

> <CNNaffinity>
5.9844632149

> <CNN_VS>
3.3718950748

> <CNNaffinity_variance>
0.0919383243

$$$$



 33 37  0  0  0  0  0  0  0  0999 V2000
   -7.9898    0.4910  -23.9486 N   0  0  0  0  0  0  0  0  0  0  0  0
   -7.5119   -0.8718  -23.9934 C   0  0  0  0  0  0  0  0  0  0  0  0
   -8.2119   -1.6520  -22.9181 C   0  0  0  0  0  0  0  0  0  0  0  0
   -7.7109   -1.0700  -21.6005 C   0  0  0  0  0  0  0  0  0  0  0  0
   -8.4101   -0.4278  -20.7964 O   0  0  0  0  0  0  0  0  0  0  0  0
   -6.3036   -1.4338  -21.5245 N   0  0  0  0  0  0  0  0  0  0  0  0
   -6.2537   -2.7034  -22.1789 C   0  0  0  0  0  0  0  0  0  0  0  0
   -7.6667   -3.0192  -22.7286 C   0  0  0  0  0  0  0  0  0  0  0  0
   -7.5236   -3.8044  -24.0054 C   0  0  0  0  0  0  0  0  0  0  0  0
   -9.6535   -1.5070  -23.0191 C   0  0  0  0  0  0  0  0  0  0  0  0
  -10.5480   -2.4907  -22.5765 C   0  0  0  0  0  0  0  0  0  0  0  0
  -11.9164   -2.3229  -22.6761 C   0  0  0  0  0  0  0  0  0  0  0  0
  -12.4706   -1.1816  -23.2148 C   0  0  0  0  0  0  0  0  0  0  0  0
  -11.6007   -0.2101  -23.6523 C   0  0  0  0  0  0  0  0  0  0  0  0
  -10.2498   -0.3799  -23.5522 C   0  0  0  0  0  0  0  0  0  0  0  0
   -9.3943    0.6917  -24.0502 C   0  0  0  0  0  0  0  0  0  0  0  0
   -9.8559    1.7595  -24.5531 O   0  0  0  0  0  0  0  0  0  0  0  0
   -5.3887   -0.5535  -20.9162 C   0  0  0  0  0  0  0  0  0  0  0  0
   -5.4849   -0.2764  -19.5355 C   0  0  0  0  0  0  0  0  0  0  0  0
   -4.6444    0.5323  -18.8937 N   0  0  0  0  0  0  0  0  0  0  0  0
   -3.6415    1.1455  -19.5135 C   0  0  0  0  0  0  0  0  0  0  0  0
   -3.4696    0.9377  -20.8500 C   0  0  0  0  0  0  0  0  0  0  0  0
   -2.4199    1.5799  -21.4661 C   0  0  0  0  0  0  0  0  0  0  0  0
   -2.1848    1.4089  -22.8141 C   0  0  0  0  0  0  0  0  0  0  0  0
   -3.0525    0.5710  -23.4834 C   0  0  0  0  0  0  0  0  0  0  0  0
   -4.1001   -0.0685  -22.8633 C   0  0  0  0  0  0  0  0  0  0  0  0
   -4.3446    0.0898  -21.5400 C   0  0  0  0  0  0  0  0  0  0  0  0
   -7.1101    1.6376  -23.8148 C   0  0  0  0  0  0  0  0  0  0  0  0
   -6.9687    3.5492  -27.2201 C   0  0  0  0  0  0  0  0  0  0  0  0
   -7.3787    3.0847  -25.9081 N   0  0  0  0  0  0  0  0  0  0  0  0
   -6.6587    2.1004  -25.1769 C   0  0  0  0  0  0  0  0  0  0  0  0
   -5.6235    1.6250  -25.7099 O   0  0  0  0  0  0  0  0  0  0  0  0
   -8.1916    3.4680  -25.5061 H   0  0  0  0  0  0  0  0  0  0  0  0
 29 30  1  0  0  0
 30 31  1  0  0  0
 30 33  1  0  0  0
 31 32  2  0  0  0
 31 28  1  0  0  0
 28  1  1  0  0  0
  1  2  1  0  0  0
  3  2  1  0  0  0
  3  4  1  0  0  0
  3 10  1  0  0  0
  4  5  2  0  0  0
  4  6  1  0  0  0
  6 18  1  0  0  0
  6  7  1  0  0  0
 18 19  2  0  0  0
 19 20  1  0  0  0
 20 21  2  0  0  0
 21 22  1  0  0  0
 22 23  2  0  0  0
 23 24  1  0  0  0
 24 25  2  0  0  0
 25 26  1  0  0  0
 26 27  2  0  0  0
 27 18  1  0  0  0
 27 22  1  0  0  0
  7  8  1  0  0  0
  8  9  1  0  0  0
  8  3  1  0  0  0
 10 11  2  0  0  0
 11 12  1  0  0  0
 12 13  2  0  0  0
 13 14  1  0  0  0
 14 15  2  0  0  0
 15 16  1  0  0  0
 15 10  1  0  0  0
 16 17  2  0  0  0
 16  1  1  0  0  0
M  END
> <minimizedAffinity>
-7.54606

> <CNNscore>
0.4575614929

> <CNNaffinity>
5.8326334953

> <CNN_VS>
2.6687884331

> <CNNaffinity_variance>
0.0875987336

$$$$



 33 37  0  0  0  0  0  0  0  0999 V2000
   -6.4599   -1.7656  -22.1920 N   0  0  0  0  0  0  0  0  0  0  0  0
   -6.1810   -1.0129  -23.3935 C   0  0  0  0  0  0  0  0  0  0  0  0
   -6.2220    0.4492  -23.0534 C   0  0  0  0  0  0  0  0  0  0  0  0
   -7.6751    0.7439  -22.6960 C   0  0  0  0  0  0  0  0  0  0  0  0
   -8.0785    1.0518  -21.5602 O   0  0  0  0  0  0  0  0  0  0  0  0
   -8.4203    0.5876  -23.9365 N   0  0  0  0  0  0  0  0  0  0  0  0
   -7.4940    1.0184  -24.9361 C   0  0  0  0  0  0  0  0  0  0  0  0
   -6.1467    1.3354  -24.2414 C   0  0  0  0  0  0  0  0  0  0  0  0
   -5.0247    0.9983  -25.1874 C   0  0  0  0  0  0  0  0  0  0  0  0
   -5.3538    0.7506  -21.9289 C   0  0  0  0  0  0  0  0  0  0  0  0
   -4.7539    2.0041  -21.7479 C   0  0  0  0  0  0  0  0  0  0  0  0
   -3.9388    2.2671  -20.6631 C   0  0  0  0  0  0  0  0  0  0  0  0
   -3.6745    1.3119  -19.7051 C   0  0  0  0  0  0  0  0  0  0  0  0
   -4.2586    0.0781  -19.8739 C   0  0  0  0  0  0  0  0  0  0  0  0
   -5.0629   -0.1776  -20.9470 C   0  0  0  0  0  0  0  0  0  0  0  0
   -5.6348   -1.5148  -21.0608 C   0  0  0  0  0  0  0  0  0  0  0  0
   -5.4219   -2.4262  -20.2063 O   0  0  0  0  0  0  0  0  0  0  0  0
   -9.7337    0.0820  -23.9008 C   0  0  0  0  0  0  0  0  0  0  0  0
   -9.9592   -1.3082  -23.9936 C   0  0  0  0  0  0  0  0  0  0  0  0
  -11.1724   -1.8548  -23.9503 N   0  0  0  0  0  0  0  0  0  0  0  0
  -12.2731   -1.1227  -23.8152 C   0  0  0  0  0  0  0  0  0  0  0  0
  -12.1534    0.2321  -23.7177 C   0  0  0  0  0  0  0  0  0  0  0  0
  -13.3084    0.9662  -23.5725 C   0  0  0  0  0  0  0  0  0  0  0  0
  -13.2590    2.3398  -23.4614 C   0  0  0  0  0  0  0  0  0  0  0  0
  -12.0040    2.9108  -23.5049 C   0  0  0  0  0  0  0  0  0  0  0  0
  -10.8527    2.1730  -23.6502 C   0  0  0  0  0  0  0  0  0  0  0  0
  -10.8847    0.8229  -23.7611 C   0  0  0  0  0  0  0  0  0  0  0  0
   -7.5211   -2.7513  -22.1003 C   0  0  0  0  0  0  0  0  0  0  0  0
   -5.5730   -5.9811  -23.1219 C   0  0  0  0  0  0  0  0  0  0  0  0
   -5.9836   -4.7686  -22.4388 N   0  0  0  0  0  0  0  0  0  0  0  0
   -7.1194   -4.0080  -22.8302 C   0  0  0  0  0  0  0  0  0  0  0  0
   -7.7832   -4.4229  -23.8144 O   0  0  0  0  0  0  0  0  0  0  0  0
   -5.4522   -4.4587  -21.6702 H   0  0  0  0  0  0  0  0  0  0  0  0
 29 30  1  0  0  0
 30 31  1  0  0  0
 30 33  1  0  0  0
 31 32  2  0  0  0
 31 28  1  0  0  0
 28  1  1  0  0  0
  1  2  1  0  0  0
  3  2  1  0  0  0
  3  4  1  0  0  0
  3 10  1  0  0  0
  4  5  2  0  0  0
  4  6  1  0  0  0
  6 18  1  0  0  0
  6  7  1  0  0  0
 18 19  2  0  0  0
 19 20  1  0  0  0
 20 21  2  0  0  0
 21 22  1  0  0  0
 22 23  2  0  0  0
 23 24  1  0  0  0
 24 25  2  0  0  0
 25 26  1  0  0  0
 26 27  2  0  0  0
 27 18  1  0  0  0
 27 22  1  0  0  0
  7  8  1  0  0  0
  8  9  1  0  0  0
  8  3  1  0  0  0
 10 11  2  0  0  0
 11 12  1  0  0  0
 12 13  2  0  0  0
 13 14  1  0  0  0
 14 15  2  0  0  0
 15 16  1  0  0  0
 15 10  1  0  0  0
 16 17  2  0  0  0
 16  1  1  0  0  0
M  END
> <minimizedAffinity>
-8.30323

> <CNNscore>
0.4351668358

> <CNNaffinity>
5.8827791214

> <CNN_VS>
2.5599904060

> <CNNaffinity_variance>
0.0557127483

$$$$



 33 37  0  0  0  0  0  0  0  0999 V2000
   -8.5063   -1.9473  -23.6599 N   0  0  0  0  0  0  0  0  0  0  0  0
   -7.8773   -0.8371  -24.3378 C   0  0  0  0  0  0  0  0  0  0  0  0
   -7.3807    0.1280  -23.3000 C   0  0  0  0  0  0  0  0  0  0  0  0
   -8.6324    0.6912  -22.6351 C   0  0  0  0  0  0  0  0  0  0  0  0
   -8.9665    0.4789  -21.4557 O   0  0  0  0  0  0  0  0  0  0  0  0
   -9.2914    1.4889  -23.6588 N   0  0  0  0  0  0  0  0  0  0  0  0
   -8.2030    2.0119  -24.4233 C   0  0  0  0  0  0  0  0  0  0  0  0
   -6.8892    1.4076  -23.8689 C   0  0  0  0  0  0  0  0  0  0  0  0
   -5.9174    1.2393  -25.0067 C   0  0  0  0  0  0  0  0  0  0  0  0
   -6.5447   -0.5411  -22.3189 C   0  0  0  0  0  0  0  0  0  0  0  0
   -5.5259    0.1158  -21.6156 C   0  0  0  0  0  0  0  0  0  0  0  0
   -4.7508   -0.5432  -20.6800 C   0  0  0  0  0  0  0  0  0  0  0  0
   -4.9394   -1.8776  -20.3909 C   0  0  0  0  0  0  0  0  0  0  0  0
   -5.9369   -2.5313  -21.0762 C   0  0  0  0  0  0  0  0  0  0  0  0
   -6.7002   -1.8768  -21.9997 C   0  0  0  0  0  0  0  0  0  0  0  0
   -7.7299   -2.6435  -22.6926 C   0  0  0  0  0  0  0  0  0  0  0  0
   -7.9419   -3.8715  -22.4615 O   0  0  0  0  0  0  0  0  0  0  0  0
  -10.6973    1.5527  -23.6940 C   0  0  0  0  0  0  0  0  0  0  0  0
  -11.4612    0.3681  -23.6194 C   0  0  0  0  0  0  0  0  0  0  0  0
  -12.7924    0.3568  -23.6308 N   0  0  0  0  0  0  0  0  0  0  0  0
  -13.5081    1.4733  -23.7146 C   0  0  0  0  0  0  0  0  0  0  0  0
  -12.8555    2.6681  -23.7910 C   0  0  0  0  0  0  0  0  0  0  0  0
  -13.6204    3.8093  -23.8710 C   0  0  0  0  0  0  0  0  0  0  0  0
  -13.0250    5.0509  -23.9441 C   0  0  0  0  0  0  0  0  0  0  0  0
  -11.6457    5.0680  -23.9316 C   0  0  0  0  0  0  0  0  0  0  0  0
  -10.8857    3.9248  -23.8517 C   0  0  0  0  0  0  0  0  0  0  0  0
  -11.4557    2.6976  -23.7798 C   0  0  0  0  0  0  0  0  0  0  0  0
   -9.8672   -2.3743  -23.9283 C   0  0  0  0  0  0  0  0  0  0  0  0
   -9.8129   -5.8185  -25.7737 C   0  0  0  0  0  0  0  0  0  0  0  0
   -9.8083   -4.8005  -24.7398 N   0  0  0  0  0  0  0  0  0  0  0  0
   -9.8740   -3.4090  -25.0251 C   0  0  0  0  0  0  0  0  0  0  0  0
   -9.9387   -3.0680  -26.2338 O   0  0  0  0  0  0  0  0  0  0  0  0
   -9.7573   -5.0858  -23.7990 H   0  0  0  0  0  0  0  0  0  0  0  0
 29 30  1  0  0  0
 30 31  1  0  0  0
 30 33  1  0  0  0
 31 32  2  0  0  0
 31 28  1  0  0  0
 28  1  1  0  0  0
  1  2  1  0  0  0
  3  2  1  0  0  0
  3  4  1  0  0  0
  3 10  1  0  0  0
  4  5  2  0  0  0
  4  6  1  0  0  0
  6 18  1  0  0  0
  6  7  1  0  0  0
 18 19  2  0  0  0
 19 20  1  0  0  0
 20 21  2  0  0  0
 21 22  1  0  0  0
 22 23  2  0  0  0
 23 24  1  0  0  0
 24 25  2  0  0  0
 25 26  1  0  0  0
 26 27  2  0  0  0
 27 18  1  0  0  0
 27 22  1  0  0  0
  7  8  1  0  0  0
  8  9  1  0  0  0
  8  3  1  0  0  0
 10 11  2  0  0  0
 11 12  1  0  0  0
 12 13  2  0  0  0
 13 14  1  0  0  0
 14 15  2  0  0  0
 15 16  1  0  0  0
 15 10  1  0  0  0
 16 17  2  0  0  0
 16  1  1  0  0  0
M  END
> <minimizedAffinity>
-7.81004

> <CNNscore>
0.4320782423

> <CNNaffinity>
6.0582075119

> <CNN_VS>
2.6176197529

> <CNNaffinity_variance>
0.0287717376

$$$$



 33 37  0  0  0  0  0  0  0  0999 V2000
   -7.3687   -0.6963  -22.6701 N   0  0  0  0  0  0  0  0  0  0  0  0
   -6.3916   -0.6765  -23.7343 C   0  0  0  0  0  0  0  0  0  0  0  0
   -7.1138   -0.4588  -25.0327 C   0  0  0  0  0  0  0  0  0  0  0  0
   -7.9511   -1.7150  -25.2490 C   0  0  0  0  0  0  0  0  0  0  0  0
   -9.1944   -1.7532  -25.2209 O   0  0  0  0  0  0  0  0  0  0  0  0
   -6.9933   -2.7854  -25.4841 N   0  0  0  0  0  0  0  0  0  0  0  0
   -5.9217   -2.1279  -26.1638 C   0  0  0  0  0  0  0  0  0  0  0  0
   -6.2457   -0.6148  -26.2262 C   0  0  0  0  0  0  0  0  0  0  0  0
   -4.9559    0.1586  -26.1512 C   0  0  0  0  0  0  0  0  0  0  0  0
   -7.9688    0.7135  -24.9671 C   0  0  0  0  0  0  0  0  0  0  0  0
   -8.2989    1.4761  -26.0955 C   0  0  0  0  0  0  0  0  0  0  0  0
   -9.1227    2.5824  -26.0062 C   0  0  0  0  0  0  0  0  0  0  0  0
   -9.6610    2.9917  -24.8051 C   0  0  0  0  0  0  0  0  0  0  0  0
   -9.3427    2.2496  -23.6916 C   0  0  0  0  0  0  0  0  0  0  0  0
   -8.5285    1.1577  -23.7841 C   0  0  0  0  0  0  0  0  0  0  0  0
   -8.2287    0.4309  -22.5553 C   0  0  0  0  0  0  0  0  0  0  0  0
   -8.6995    0.7675  -21.4277 O   0  0  0  0  0  0  0  0  0  0  0  0
   -7.2765   -4.0862  -25.0263 C   0  0  0  0  0  0  0  0  0  0  0  0
   -6.7631   -4.5276  -23.7878 C   0  0  0  0  0  0  0  0  0  0  0  0
   -7.0047   -5.7375  -23.2876 N   0  0  0  0  0  0  0  0  0  0  0  0
   -7.7557   -6.6291  -23.9256 C   0  0  0  0  0  0  0  0  0  0  0  0
   -8.2955   -6.2911  -25.1313 C   0  0  0  0  0  0  0  0  0  0  0  0
   -9.0740   -7.2305  -25.7680 C   0  0  0  0  0  0  0  0  0  0  0  0
   -9.6558   -6.9521  -26.9868 C   0  0  0  0  0  0  0  0  0  0  0  0
   -9.4091   -5.6993  -27.5088 C   0  0  0  0  0  0  0  0  0  0  0  0
   -8.6303   -4.7640  -26.8688 C   0  0  0  0  0  0  0  0  0  0  0  0
   -8.0515   -5.0225  -25.6712 C   0  0  0  0  0  0  0  0  0  0  0  0
   -7.4977   -1.7945  -21.7301 C   0  0  0  0  0  0  0  0  0  0  0  0
   -5.5068   -0.5574  -18.6034 C   0  0  0  0  0  0  0  0  0  0  0  0
   -6.5085   -0.6897  -19.6447 N   0  0  0  0  0  0  0  0  0  0  0  0
   -6.4408   -1.6822  -20.6606 C   0  0  0  0  0  0  0  0  0  0  0  0
   -5.4608   -2.4699  -20.6364 O   0  0  0  0  0  0  0  0  0  0  0  0
   -7.2689   -0.0644  -19.6480 H   0  0  0  0  0  0  0  0  0  0  0  0
 29 30  1  0  0  0
 30 31  1  0  0  0
 30 33  1  0  0  0
 31 32  2  0  0  0
 31 28  1  0  0  0
 28  1  1  0  0  0
  1  2  1  0  0  0
  3  2  1  0  0  0
  3  4  1  0  0  0
  3 10  1  0  0  0
  4  5  2  0  0  0
  4  6  1  0  0  0
  6 18  1  0  0  0
  6  7  1  0  0  0
 18 19  2  0  0  0
 19 20  1  0  0  0
 20 21  2  0  0  0
 21 22  1  0  0  0
 22 23  2  0  0  0
 23 24  1  0  0  0
 24 25  2  0  0  0
 25 26  1  0  0  0
 26 27  2  0  0  0
 27 18  1  0  0  0
 27 22  1  0  0  0
  7  8  1  0  0  0
  8  9  1  0  0  0
  8  3  1  0  0  0
 10 11  2  0  0  0
 11 12  1  0  0  0
 12 13  2  0  0  0
 13 14  1  0  0  0
 14 15  2  0  0  0
 15 16  1  0  0  0
 15 10  1  0  0  0
 16 17  2  0  0  0
 16  1  1  0  0  0
M  END
> <minimizedAffinity>
-7.11575

> <CNNscore>
0.3252351582

> <CNNaffinity>
5.7024731636

> <CNN_VS>
1.8546447754

> <CNNaffinity_variance>
0.0236467011

$$$$



 33 37  0  0  0  0  0  0  0  0999 V2000
   -9.5377    1.7498  -24.4233 N   0  0  0  0  0  0  0  0  0  0  0  0
   -9.0000    0.4829  -24.8634 C   0  0  0  0  0  0  0  0  0  0  0  0
   -9.3556   -0.5596  -23.8428 C   0  0  0  0  0  0  0  0  0  0  0  0
   -8.5777   -0.1822  -22.5865 C   0  0  0  0  0  0  0  0  0  0  0  0
   -9.0919    0.2139  -21.5252 O   0  0  0  0  0  0  0  0  0  0  0  0
   -7.1761   -0.3914  -22.9191 N   0  0  0  0  0  0  0  0  0  0  0  0
   -7.2110   -1.5015  -23.8185 C   0  0  0  0  0  0  0  0  0  0  0  0
   -8.6936   -1.8671  -24.0770 C   0  0  0  0  0  0  0  0  0  0  0  0
   -8.8262   -2.3772  -25.4876 C   0  0  0  0  0  0  0  0  0  0  0  0
  -10.7824   -0.5631  -23.5719 C   0  0  0  0  0  0  0  0  0  0  0  0
  -11.4719   -1.7077  -23.1494 C   0  0  0  0  0  0  0  0  0  0  0  0
  -12.8291   -1.6809  -22.8895 C   0  0  0  0  0  0  0  0  0  0  0  0
  -13.5730   -0.5293  -23.0322 C   0  0  0  0  0  0  0  0  0  0  0  0
  -12.9054    0.5995  -23.4466 C   0  0  0  0  0  0  0  0  0  0  0  0
  -11.5647    0.5688  -23.7024 C   0  0  0  0  0  0  0  0  0  0  0  0
  -10.9325    1.8049  -24.1499 C   0  0  0  0  0  0  0  0  0  0  0  0
  -11.5733    2.8887  -24.2957 O   0  0  0  0  0  0  0  0  0  0  0  0
   -6.1961    0.4573  -22.3703 C   0  0  0  0  0  0  0  0  0  0  0  0
   -5.6754    1.5236  -23.1345 C   0  0  0  0  0  0  0  0  0  0  0  0
   -4.7602    2.3730  -22.6728 N   0  0  0  0  0  0  0  0  0  0  0  0
   -4.2635    2.2778  -21.4439 C   0  0  0  0  0  0  0  0  0  0  0  0
   -4.7077    1.2770  -20.6314 C   0  0  0  0  0  0  0  0  0  0  0  0
   -4.1816    1.2046  -19.3618 C   0  0  0  0  0  0  0  0  0  0  0  0
   -4.5913    0.2213  -18.4860 C   0  0  0  0  0  0  0  0  0  0  0  0
   -5.5403   -0.6607  -18.9595 C   0  0  0  0  0  0  0  0  0  0  0  0
   -6.0630   -0.5844  -20.2291 C   0  0  0  0  0  0  0  0  0  0  0  0
   -5.6703    0.3754  -21.1014 C   0  0  0  0  0  0  0  0  0  0  0  0
   -8.7280    2.9433  -24.2609 C   0  0  0  0  0  0  0  0  0  0  0  0
   -9.7772    5.9736  -26.4940 C   0  0  0  0  0  0  0  0  0  0  0  0
   -9.5958    5.0838  -25.3624 N   0  0  0  0  0  0  0  0  0  0  0  0
   -8.9001    3.8472  -25.4554 C   0  0  0  0  0  0  0  0  0  0  0  0
   -8.4292    3.5305  -26.5776 O   0  0  0  0  0  0  0  0  0  0  0  0
   -9.9711    5.3479  -24.4914 H   0  0  0  0  0  0  0  0  0  0  0  0
 29 30  1  0  0  0
 30 31  1  0  0  0
 30 33  1  0  0  0
 31 32  2  0  0  0
 31 28  1  0  0  0
 28  1  1  0  0  0
  1  2  1  0  0  0
  3  2  1  0  0  0
  3  4  1  0  0  0
  3 10  1  0  0  0
  4  5  2  0  0  0
  4  6  1  0  0  0
  6 18  1  0  0  0
  6  7  1  0  0  0
 18 19  2  0  0  0
 19 20  1  0  0  0
 20 21  2  0  0  0
 21 22  1  0  0  0
 22 23  2  0  0  0
 23 24  1  0  0  0
 24 25  2  0  0  0
 25 26  1  0  0  0
 26 27  2  0  0  0
 27 18  1  0  0  0
 27 22  1  0  0  0
  7  8  1  0  0  0
  8  9  1  0  0  0
  8  3  1  0  0  0
 10 11  2  0  0  0
 11 12  1  0  0  0
 12 13  2  0  0  0
 13 14  1  0  0  0
 14 15  2  0  0  0
 15 16  1  0  0  0
 15 10  1  0  0  0
 16 17  2  0  0  0
 16  1  1  0  0  0
M  END
> <minimizedAffinity>
-7.45309

> <CNNscore>
0.3105231524

> <CNNaffinity>
5.7101125717

> <CNN_VS>
1.7731221914

> <CNNaffinity_variance>
0.0729873702

$$$$



 33 37  0  0  0  0  0  0  0  0999 V2000
   -6.4200   -2.3813  -21.7075 N   0  0  0  0  0  0  0  0  0  0  0  0
   -7.7477   -2.3375  -22.2759 C   0  0  0  0  0  0  0  0  0  0  0  0
   -7.7791   -3.2480  -23.4697 C   0  0  0  0  0  0  0  0  0  0  0  0
   -6.8559   -2.6034  -24.4983 C   0  0  0  0  0  0  0  0  0  0  0  0
   -5.7714   -3.0812  -24.8771 O   0  0  0  0  0  0  0  0  0  0  0  0
   -7.5205   -1.3725  -24.9005 N   0  0  0  0  0  0  0  0  0  0  0  0
   -8.9084   -1.7043  -24.8219 C   0  0  0  0  0  0  0  0  0  0  0  0
   -9.0300   -3.1429  -24.2614 C   0  0  0  0  0  0  0  0  0  0  0  0
  -10.2866   -3.2352  -23.4370 C   0  0  0  0  0  0  0  0  0  0  0  0
   -7.3050   -4.5775  -23.1278 C   0  0  0  0  0  0  0  0  0  0  0  0
   -7.7267   -5.7306  -23.8035 C   0  0  0  0  0  0  0  0  0  0  0  0
   -7.2522   -6.9835  -23.4635 C   0  0  0  0  0  0  0  0  0  0  0  0
   -6.3416   -7.1630  -22.4444 C   0  0  0  0  0  0  0  0  0  0  0  0
   -5.9217   -6.0372  -21.7750 C   0  0  0  0  0  0  0  0  0  0  0  0
   -6.3929   -4.8015  -22.1139 C   0  0  0  0  0  0  0  0  0  0  0  0
   -5.9081   -3.6587  -21.3477 C   0  0  0  0  0  0  0  0  0  0  0  0
   -5.0711   -3.7725  -20.4028 O   0  0  0  0  0  0  0  0  0  0  0  0
   -6.7507   -0.2385  -25.2218 C   0  0  0  0  0  0  0  0  0  0  0  0
   -5.9548   -0.2308  -26.3875 C   0  0  0  0  0  0  0  0  0  0  0  0
   -5.2161    0.8124  -26.7594 N   0  0  0  0  0  0  0  0  0  0  0  0
   -5.1730    1.9363  -26.0517 C   0  0  0  0  0  0  0  0  0  0  0  0
   -5.9106    2.0214  -24.9081 C   0  0  0  0  0  0  0  0  0  0  0  0
   -5.8528    3.1984  -24.1973 C   0  0  0  0  0  0  0  0  0  0  0  0
   -6.5789    3.3544  -23.0354 C   0  0  0  0  0  0  0  0  0  0  0  0
   -7.3467    2.2765  -22.6463 C   0  0  0  0  0  0  0  0  0  0  0  0
   -7.4011    1.1023  -23.3600 C   0  0  0  0  0  0  0  0  0  0  0  0
   -6.6933    0.9334  -24.5030 C   0  0  0  0  0  0  0  0  0  0  0  0
   -5.6104   -1.1971  -21.4873 C   0  0  0  0  0  0  0  0  0  0  0  0
   -5.2813   -0.0562  -17.7643 C   0  0  0  0  0  0  0  0  0  0  0  0
   -4.9995   -0.6246  -19.0692 N   0  0  0  0  0  0  0  0  0  0  0  0
   -5.9325   -0.5975  -20.1419 C   0  0  0  0  0  0  0  0  0  0  0  0
   -7.0450   -0.0516  -19.9282 O   0  0  0  0  0  0  0  0  0  0  0  0
   -4.1233   -1.0480  -19.2186 H   0  0  0  0  0  0  0  0  0  0  0  0
 29 30  1  0  0  0
 30 31  1  0  0  0
 30 33  1  0  0  0
 31 32  2  0  0  0
 31 28  1  0  0  0
 28  1  1  0  0  0
  1  2  1  0  0  0
  3  2  1  0  0  0
  3  4  1  0  0  0
  3 10  1  0  0  0
  4  5  2  0  0  0
  4  6  1  0  0  0
  6 18  1  0  0  0
  6  7  1  0  0  0
 18 19  2  0  0  0
 19 20  1  0  0  0
 20 21  2  0  0  0
 21 22  1  0  0  0
 22 23  2  0  0  0
 23 24  1  0  0  0
 24 25  2  0  0  0
 25 26  1  0  0  0
 26 27  2  0  0  0
 27 18  1  0  0  0
 27 22  1  0  0  0
  7  8  1  0  0  0
  8  9  1  0  0  0
  8  3  1  0  0  0
 10 11  2  0  0  0
 11 12  1  0  0  0
 12 13  2  0  0  0
 13 14  1  0  0  0
 14 15  2  0  0  0
 15 16  1  0  0  0
 15 10  1  0  0  0
 16 17  2  0  0  0
 16  1  1  0  0  0
M  END
> <minimizedAffinity>
-7.20934

> <CNNscore>
0.2841774225

> <CNNaffinity>
5.8228206635

> <CNN_VS>
1.6547142267

> <CNNaffinity_variance>
0.0756679848

$$$$



 33 37  0  0  0  0  0  0  0  0999 V2000
   -7.2717   -2.4635  -25.4914 N   0  0  0  0  0  0  0  0  0  0  0  0
   -7.9873   -3.6003  -26.0237 C   0  0  0  0  0  0  0  0  0  0  0  0
   -8.8538   -4.1635  -24.9343 C   0  0  0  0  0  0  0  0  0  0  0  0
   -7.8889   -4.7198  -23.8925 C   0  0  0  0  0  0  0  0  0  0  0  0
   -7.7354   -4.2568  -22.7480 O   0  0  0  0  0  0  0  0  0  0  0  0
   -7.2388   -5.8548  -24.5310 N   0  0  0  0  0  0  0  0  0  0  0  0
   -8.2570   -6.3836  -25.3832 C   0  0  0  0  0  0  0  0  0  0  0  0
   -9.4924   -5.4540  -25.2937 C   0  0  0  0  0  0  0  0  0  0  0  0
  -10.1863   -5.4433  -26.6300 C   0  0  0  0  0  0  0  0  0  0  0  0
   -9.6933   -3.1341  -24.3471 C   0  0  0  0  0  0  0  0  0  0  0  0
  -10.9368   -3.4107  -23.7629 C   0  0  0  0  0  0  0  0  0  0  0  0
  -11.7118   -2.4128  -23.2026 C   0  0  0  0  0  0  0  0  0  0  0  0
  -11.3023   -1.0967  -23.1894 C   0  0  0  0  0  0  0  0  0  0  0  0
  -10.0832   -0.8150  -23.7605 C   0  0  0  0  0  0  0  0  0  0  0  0
   -9.3209   -1.8036  -24.3131 C   0  0  0  0  0  0  0  0  0  0  0  0
   -8.0458   -1.4215  -24.9098 C   0  0  0  0  0  0  0  0  0  0  0  0
   -7.6257   -0.2258  -24.9221 O   0  0  0  0  0  0  0  0  0  0  0  0
   -5.8947   -6.1468  -24.2308 C   0  0  0  0  0  0  0  0  0  0  0  0
   -5.5283   -6.5236  -22.9208 C   0  0  0  0  0  0  0  0  0  0  0  0
   -4.2803   -6.8288  -22.5719 N   0  0  0  0  0  0  0  0  0  0  0  0
   -3.2760   -6.8003  -23.4416 C   0  0  0  0  0  0  0  0  0  0  0  0
   -3.5349   -6.4471  -24.7329 C   0  0  0  0  0  0  0  0  0  0  0  0
   -2.4783   -6.4315  -25.6145 C   0  0  0  0  0  0  0  0  0  0  0  0
   -2.6708   -6.0901  -26.9366 C   0  0  0  0  0  0  0  0  0  0  0  0
   -3.9625   -5.7739  -27.3034 C   0  0  0  0  0  0  0  0  0  0  0  0
   -5.0151   -5.7909  -26.4186 C   0  0  0  0  0  0  0  0  0  0  0  0
   -4.8421   -6.1236  -25.1166 C   0  0  0  0  0  0  0  0  0  0  0  0
   -5.8259   -2.3438  -25.5338 C   0  0  0  0  0  0  0  0  0  0  0  0
   -5.2977   -1.5352  -21.7473 C   0  0  0  0  0  0  0  0  0  0  0  0
   -5.7606   -2.1362  -22.9842 N   0  0  0  0  0  0  0  0  0  0  0  0
   -5.3264   -1.6991  -24.2657 C   0  0  0  0  0  0  0  0  0  0  0  0
   -4.5044   -0.7482  -24.3054 O   0  0  0  0  0  0  0  0  0  0  0  0
   -6.4041   -2.8796  -22.9340 H   0  0  0  0  0  0  0  0  0  0  0  0
 29 30  1  0  0  0
 30 31  1  0  0  0
 30 33  1  0  0  0
 31 32  2  0  0  0
 31 28  1  0  0  0
 28  1  1  0  0  0
  1  2  1  0  0  0
  3  2  1  0  0  0
  3  4  1  0  0  0
  3 10  1  0  0  0
  4  5  2  0  0  0
  4  6  1  0  0  0
  6 18  1  0  0  0
  6  7  1  0  0  0
 18 19  2  0  0  0
 19 20  1  0  0  0
 20 21  2  0  0  0
 21 22  1  0  0  0
 22 23  2  0  0  0
 23 24  1  0  0  0
 24 25  2  0  0  0
 25 26  1  0  0  0
 26 27  2  0  0  0
 27 18  1  0  0  0
 27 22  1  0  0  0
  7  8  1  0  0  0
  8  9  1  0  0  0
  8  3  1  0  0  0
 10 11  2  0  0  0
 11 12  1  0  0  0
 12 13  2  0  0  0
 13 14  1  0  0  0
 14 15  2  0  0  0
 15 16  1  0  0  0
 15 10  1  0  0  0
 16 17  2  0  0  0
 16  1  1  0  0  0
M  END
> <minimizedAffinity>
-6.48296

> <CNNscore>
0.2809868157

> <CNNaffinity>
5.7711286545

> <CNN_VS>
1.6216111183

> <CNNaffinity_variance>
0.0373008326

$$$$



 22 24  0  0  0  0  0  0  0  0999 V2000
   -8.9230   -6.7214  -27.1430 C   0  0  0  0  0  0  0  0  0  0  0  0
   -9.3623   -5.4626  -26.4040 C   0  0  0  0  0  0  0  0  0  0  0  0
   -8.7207   -5.3683  -25.0603 C   0  0  0  0  0  0  0  0  0  0  0  0
   -8.9398   -3.9952  -24.4457 C   0  0  0  0  0  0  0  0  0  0  0  0
   -8.2156   -4.0319  -23.1146 C   0  0  0  0  0  0  0  0  0  0  0  0
   -8.5693   -2.9230  -25.3049 N   0  0  0  0  0  0  0  0  0  0  0  0
   -8.5748   -1.5344  -24.9893 C   0  0  0  0  0  0  0  0  0  0  0  0
   -8.1953   -0.7862  -25.9645 O   0  0  0  0  0  0  0  0  0  0  0  0
   -8.1371   -3.2973  -26.6645 C   0  0  0  0  0  0  0  0  0  0  0  0
   -6.6946   -3.6454  -26.6611 C   0  0  0  0  0  0  0  0  0  0  0  0
   -9.0628   -4.2833  -27.2864 C   0  0  0  0  0  0  0  0  0  0  0  0
   -8.9707   -0.9714  -23.6840 C   0  0  0  0  0  0  0  0  0  0  0  0
  -10.1961   -0.1780  -23.6764 C   0  0  0  0  0  0  0  0  0  0  0  0
  -10.3236    1.1481  -24.0076 C   0  0  0  0  0  0  0  0  0  0  0  0
  -11.5273    1.8028  -23.9729 N   0  0  0  0  0  0  0  0  0  0  0  0
  -12.6630    1.2232  -23.6205 C   0  0  0  0  0  0  0  0  0  0  0  0
  -12.5888   -0.1291  -23.2706 C   0  0  0  0  0  0  0  0  0  0  0  0
  -13.7771   -0.7117  -22.8903 C   0  0  0  0  0  0  0  0  0  0  0  0
  -13.8175   -2.0336  -22.5096 C   0  0  0  0  0  0  0  0  0  0  0  0
  -12.6260   -2.7370  -22.5270 C   0  0  0  0  0  0  0  0  0  0  0  0
  -11.4308   -2.1339  -22.9150 C   0  0  0  0  0  0  0  0  0  0  0  0
  -11.3831   -0.8170  -23.2963 C   0  0  0  0  0  0  0  0  0  0  0  0
  2  1  1  0  0  0
  2  3  1  0  0  0
  3  4  1  0  0  0
  4  5  1  0  0  0
  4  6  1  0  0  0
  6  7  1  0  0  0
  6  9  1  0  0  0
  7  8  2  0  0  0
  7 12  1  0  0  0
 12 13  1  0  0  0
 13 14  2  0  0  0
 14 15  1  0  0  0
 15 16  2  0  0  0
 16 17  1  0  0  0
 17 18  2  0  0  0
 18 19  1  0  0  0
 19 20  2  0  0  0
 20 21  1  0  0  0
 21 22  2  0  0  0
 22 13  1  0  0  0
 22 17  1  0  0  0
  9 10  1  0  0  0
  9 11  1  0  0  0
 11  2  1  0  0  0
M  END
> <minimizedAffinity>
-5.87320

> <CNNscore>
0.6974127293

> <CNNaffinity>
5.2482361794

> <CNN_VS>
3.6601867676

> <CNNaffinity_variance>
0.1108077317

$$$$



 22 24  0  0  0  0  0  0  0  0999 V2000
   -7.1122   -6.7949  -26.0128 C   0  0  0  0  0  0  0  0  0  0  0  0
   -6.8422   -5.4647  -25.3192 C   0  0  0  0  0  0  0  0  0  0  0  0
   -8.0823   -4.9118  -24.7006 C   0  0  0  0  0  0  0  0  0  0  0  0
   -7.7609   -3.7409  -23.7857 C   0  0  0  0  0  0  0  0  0  0  0  0
   -9.0934   -3.3058  -23.2090 C   0  0  0  0  0  0  0  0  0  0  0  0
   -6.7532   -4.0319  -22.8240 N   0  0  0  0  0  0  0  0  0  0  0  0
   -6.2963   -3.1778  -21.7802 C   0  0  0  0  0  0  0  0  0  0  0  0
   -5.3670   -3.7006  -21.0606 O   0  0  0  0  0  0  0  0  0  0  0  0
   -6.1182   -5.3593  -22.9270 C   0  0  0  0  0  0  0  0  0  0  0  0
   -6.9358   -6.3702  -22.2118 C   0  0  0  0  0  0  0  0  0  0  0  0
   -5.7324   -5.6795  -24.3286 C   0  0  0  0  0  0  0  0  0  0  0  0
   -6.8132   -1.8205  -21.5189 C   0  0  0  0  0  0  0  0  0  0  0  0
   -6.2770   -1.1498  -20.3384 C   0  0  0  0  0  0  0  0  0  0  0  0
   -6.7392   -1.2506  -19.0496 C   0  0  0  0  0  0  0  0  0  0  0  0
   -6.1584   -0.5799  -18.0050 N   0  0  0  0  0  0  0  0  0  0  0  0
   -5.1115    0.2172  -18.1418 C   0  0  0  0  0  0  0  0  0  0  0  0
   -4.6015    0.3574  -19.4367 C   0  0  0  0  0  0  0  0  0  0  0  0
   -3.5227    1.2038  -19.5632 C   0  0  0  0  0  0  0  0  0  0  0  0
   -2.9511    1.4288  -20.7947 C   0  0  0  0  0  0  0  0  0  0  0  0
   -3.5039    0.7743  -21.8814 C   0  0  0  0  0  0  0  0  0  0  0  0
   -4.5957   -0.0801  -21.7378 C   0  0  0  0  0  0  0  0  0  0  0  0
   -5.1701   -0.3096  -20.5134 C   0  0  0  0  0  0  0  0  0  0  0  0
  2  1  1  0  0  0
  2  3  1  0  0  0
  3  4  1  0  0  0
  4  5  1  0  0  0
  4  6  1  0  0  0
  6  7  1  0  0  0
  6  9  1  0  0  0
  7  8  2  0  0  0
  7 12  1  0  0  0
 12 13  1  0  0  0
 13 14  2  0  0  0
 14 15  1  0  0  0
 15 16  2  0  0  0
 16 17  1  0  0  0
 17 18  2  0  0  0
 18 19  1  0  0  0
 19 20  2  0  0  0
 20 21  1  0  0  0
 21 22  2  0  0  0
 22 13  1  0  0  0
 22 17  1  0  0  0
  9 10  1  0  0  0
  9 11  1  0  0  0
 11  2  1  0  0  0
M  END
> <minimizedAffinity>
-7.49957

> <CNNscore>
0.6269495487

> <CNNaffinity>
5.2336754799

> <CNN_VS>
3.2812504768

> <CNNaffinity_variance>
0.2970104814

$$$$



 22 24  0  0  0  0  0  0  0  0999 V2000
   -5.3727   -7.5710  -26.2343 C   0  0  0  0  0  0  0  0  0  0  0  0
   -5.3615   -6.2524  -25.4695 C   0  0  0  0  0  0  0  0  0  0  0  0
   -6.7433   -5.7246  -25.2744 C   0  0  0  0  0  0  0  0  0  0  0  0
   -6.7521   -4.5694  -24.2861 C   0  0  0  0  0  0  0  0  0  0  0  0
   -8.2061   -4.1593  -24.1622 C   0  0  0  0  0  0  0  0  0  0  0  0
   -6.1028   -4.8697  -23.0560 N   0  0  0  0  0  0  0  0  0  0  0  0
   -6.0198   -4.0324  -21.9072 C   0  0  0  0  0  0  0  0  0  0  0  0
   -5.3631   -4.5604  -20.9351 O   0  0  0  0  0  0  0  0  0  0  0  0
   -5.4474   -6.1883  -22.9703 C   0  0  0  0  0  0  0  0  0  0  0  0
   -6.4352   -7.2216  -22.5725 C   0  0  0  0  0  0  0  0  0  0  0  0
   -4.6261   -6.4762  -24.1780 C   0  0  0  0  0  0  0  0  0  0  0  0
   -6.6149   -2.6859  -21.8045 C   0  0  0  0  0  0  0  0  0  0  0  0
   -5.6736   -1.5702  -21.8078 C   0  0  0  0  0  0  0  0  0  0  0  0
   -4.9903   -1.0690  -22.8880 C   0  0  0  0  0  0  0  0  0  0  0  0
   -4.1284   -0.0083  -22.7858 N   0  0  0  0  0  0  0  0  0  0  0  0
   -3.8786    0.6219  -21.6498 C   0  0  0  0  0  0  0  0  0  0  0  0
   -4.5479    0.1492  -20.5161 C   0  0  0  0  0  0  0  0  0  0  0  0
   -4.2632    0.8059  -19.3397 C   0  0  0  0  0  0  0  0  0  0  0  0
   -4.8526    0.4137  -18.1596 C   0  0  0  0  0  0  0  0  0  0  0  0
   -5.7304   -0.6547  -18.2117 C   0  0  0  0  0  0  0  0  0  0  0  0
   -6.0094   -1.3093  -19.4102 C   0  0  0  0  0  0  0  0  0  0  0  0
   -5.4262   -0.9235  -20.5903 C   0  0  0  0  0  0  0  0  0  0  0  0
  2  1  1  0  0  0
  2  3  1  0  0  0
  3  4  1  0  0  0
  4  5  1  0  0  0
  4  6  1  0  0  0
  6  7  1  0  0  0
  6  9  1  0  0  0
  7  8  2  0  0  0
  7 12  1  0  0  0
 12 13  1  0  0  0
 13 14  2  0  0  0
 14 15  1  0  0  0
 15 16  2  0  0  0
 16 17  1  0  0  0
 17 18  2  0  0  0
 18 19  1  0  0  0
 19 20  2  0  0  0
 20 21  1  0  0  0
 21 22  2  0  0  0
 22 13  1  0  0  0
 22 17  1  0  0  0
  9 10  1  0  0  0
  9 11  1  0  0  0
 11  2  1  0  0  0
M  END
> <minimizedAffinity>
-6.79862

> <CNNscore>
0.5301451683

> <CNNaffinity>
5.1669778824

> <CNN_VS>
2.7392482758

> <CNNaffinity_variance>
0.1600553244

$$$$



 22 24  0  0  0  0  0  0  0  0999 V2000
  -10.3986   -4.1616  -25.3804 C   0  0  0  0  0  0  0  0  0  0  0  0
   -9.3666   -4.0064  -24.2693 C   0  0  0  0  0  0  0  0  0  0  0  0
   -8.0474   -3.5657  -24.8092 C   0  0  0  0  0  0  0  0  0  0  0  0
   -7.1096   -3.1497  -23.6873 C   0  0  0  0  0  0  0  0  0  0  0  0
   -5.8359   -2.7010  -24.3757 C   0  0  0  0  0  0  0  0  0  0  0  0
   -7.6795   -2.1999  -22.7939 N   0  0  0  0  0  0  0  0  0  0  0  0
   -7.0295   -1.5568  -21.7022 C   0  0  0  0  0  0  0  0  0  0  0  0
   -7.7922   -0.7455  -21.0581 O   0  0  0  0  0  0  0  0  0  0  0  0
   -9.0934   -1.8515  -23.0286 C   0  0  0  0  0  0  0  0  0  0  0  0
   -9.1896   -0.7806  -24.0513 C   0  0  0  0  0  0  0  0  0  0  0  0
   -9.9318   -3.0622  -23.2455 C   0  0  0  0  0  0  0  0  0  0  0  0
   -5.6218   -1.7744  -21.3167 C   0  0  0  0  0  0  0  0  0  0  0  0
   -4.9514   -0.6429  -20.6833 C   0  0  0  0  0  0  0  0  0  0  0  0
   -5.0386   -0.2622  -19.3672 C   0  0  0  0  0  0  0  0  0  0  0  0
   -4.3606    0.8191  -18.8675 N   0  0  0  0  0  0  0  0  0  0  0  0
   -3.5698    1.5862  -19.5997 C   0  0  0  0  0  0  0  0  0  0  0  0
   -3.4471    1.2434  -20.9502 C   0  0  0  0  0  0  0  0  0  0  0  0
   -2.6336    2.0625  -21.7008 C   0  0  0  0  0  0  0  0  0  0  0  0
   -2.4539    1.8279  -23.0449 C   0  0  0  0  0  0  0  0  0  0  0  0
   -3.1193    0.7471  -23.5963 C   0  0  0  0  0  0  0  0  0  0  0  0
   -3.9391   -0.0737  -22.8237 C   0  0  0  0  0  0  0  0  0  0  0  0
   -4.1224    0.1537  -21.4833 C   0  0  0  0  0  0  0  0  0  0  0  0
  2  1  1  0  0  0
  2  3  1  0  0  0
  3  4  1  0  0  0
  4  5  1  0  0  0
  4  6  1  0  0  0
  6  7  1  0  0  0
  6  9  1  0  0  0
  7  8  2  0  0  0
  7 12  1  0  0  0
 12 13  1  0  0  0
 13 14  2  0  0  0
 14 15  1  0  0  0
 15 16  2  0  0  0
 16 17  1  0  0  0
 17 18  2  0  0  0
 18 19  1  0  0  0
 19 20  2  0  0  0
 20 21  1  0  0  0
 21 22  2  0  0  0
 22 13  1  0  0  0
 22 17  1  0  0  0
  9 10  1  0  0  0
  9 11  1  0  0  0
 11  2  1  0  0  0
M  END
> <minimizedAffinity>
-5.87384

> <CNNscore>
0.4216063619

> <CNNaffinity>
4.9177560806

> <CNN_VS>
2.0733573437

> <CNNaffinity_variance>
0.2349578142

$$$$



 22 24  0  0  0  0  0  0  0  0999 V2000
   -5.7281   -7.0937  -25.2171 C   0  0  0  0  0  0  0  0  0  0  0  0
   -6.8474   -6.4451  -24.4109 C   0  0  0  0  0  0  0  0  0  0  0  0
   -6.4366   -5.1109  -23.8846 C   0  0  0  0  0  0  0  0  0  0  0  0
   -7.6298   -4.3543  -23.3231 C   0  0  0  0  0  0  0  0  0  0  0  0
   -7.0769   -3.0213  -22.8598 C   0  0  0  0  0  0  0  0  0  0  0  0
   -8.7260   -4.2717  -24.2268 N   0  0  0  0  0  0  0  0  0  0  0  0
   -9.9442   -3.5613  -24.0294 C   0  0  0  0  0  0  0  0  0  0  0  0
  -10.7640   -3.6668  -25.0151 O   0  0  0  0  0  0  0  0  0  0  0  0
   -8.5780   -5.0034  -25.4990 C   0  0  0  0  0  0  0  0  0  0  0  0
   -7.8476   -4.1675  -26.4837 C   0  0  0  0  0  0  0  0  0  0  0  0
   -8.0687   -6.3857  -25.2850 C   0  0  0  0  0  0  0  0  0  0  0  0
  -10.2703   -2.7715  -22.8263 C   0  0  0  0  0  0  0  0  0  0  0  0
  -11.5594   -2.0866  -22.8427 C   0  0  0  0  0  0  0  0  0  0  0  0
  -12.7836   -2.6223  -22.5279 C   0  0  0  0  0  0  0  0  0  0  0  0
  -13.9405   -1.8887  -22.5697 N   0  0  0  0  0  0  0  0  0  0  0  0
  -13.9827   -0.6120  -22.9137 C   0  0  0  0  0  0  0  0  0  0  0  0
  -12.7615   -0.0168  -23.2467 C   0  0  0  0  0  0  0  0  0  0  0  0
  -12.8264    1.3075  -23.6184 C   0  0  0  0  0  0  0  0  0  0  0  0
  -11.6872    1.9882  -23.9826 C   0  0  0  0  0  0  0  0  0  0  0  0
  -10.4933    1.2890  -23.9575 C   0  0  0  0  0  0  0  0  0  0  0  0
  -10.4430   -0.0513  -23.5783 C   0  0  0  0  0  0  0  0  0  0  0  0
  -11.5744   -0.7360  -23.2135 C   0  0  0  0  0  0  0  0  0  0  0  0
  2  1  1  0  0  0
  2  3  1  0  0  0
  3  4  1  0  0  0
  4  5  1  0  0  0
  4  6  1  0  0  0
  6  7  1  0  0  0
  6  9  1  0  0  0
  7  8  2  0  0  0
  7 12  1  0  0  0
 12 13  1  0  0  0
 13 14  2  0  0  0
 14 15  1  0  0  0
 15 16  2  0  0  0
 16 17  1  0  0  0
 17 18  2  0  0  0
 18 19  1  0  0  0
 19 20  2  0  0  0
 20 21  1  0  0  0
 21 22  2  0  0  0
 22 13  1  0  0  0
 22 17  1  0  0  0
  9 10  1  0  0  0
  9 11  1  0  0  0
 11  2  1  0  0  0
M  END
> <minimizedAffinity>
-6.50438

> <CNNscore>
0.4204436839

> <CNNaffinity>
5.1117143631

> <CNN_VS>
2.1491880417

> <CNNaffinity_variance>
0.2485237569

$$$$



 22 24  0  0  0  0  0  0  0  0999 V2000
   -5.6360   -6.3137  -23.7879 C   0  0  0  0  0  0  0  0  0  0  0  0
   -6.6947   -5.2749  -23.4361 C   0  0  0  0  0  0  0  0  0  0  0  0
   -6.1331   -4.1965  -22.5714 C   0  0  0  0  0  0  0  0  0  0  0  0
   -7.1034   -3.0324  -22.4508 C   0  0  0  0  0  0  0  0  0  0  0  0
   -6.3972   -2.0106  -21.5820 C   0  0  0  0  0  0  0  0  0  0  0  0
   -7.5621   -2.5433  -23.7060 N   0  0  0  0  0  0  0  0  0  0  0  0
   -8.4033   -1.4160  -23.9279 C   0  0  0  0  0  0  0  0  0  0  0  0
   -8.6636   -1.2080  -25.1704 O   0  0  0  0  0  0  0  0  0  0  0  0
   -7.1166   -3.2893  -24.8979 C   0  0  0  0  0  0  0  0  0  0  0  0
   -5.7790   -2.8104  -25.3262 C   0  0  0  0  0  0  0  0  0  0  0  0
   -7.2774   -4.7587  -24.7218 C   0  0  0  0  0  0  0  0  0  0  0  0
   -8.9431   -0.5485  -22.8632 C   0  0  0  0  0  0  0  0  0  0  0  0
  -10.1929    0.1393  -23.1729 C   0  0  0  0  0  0  0  0  0  0  0  0
  -10.3385    1.4362  -23.5991 C   0  0  0  0  0  0  0  0  0  0  0  0
  -11.5633    1.9888  -23.8696 N   0  0  0  0  0  0  0  0  0  0  0  0
  -12.7040    1.3304  -23.7457 C   0  0  0  0  0  0  0  0  0  0  0  0
  -12.6125    0.0039  -23.3116 C   0  0  0  0  0  0  0  0  0  0  0  0
  -13.8104   -0.6608  -23.1721 C   0  0  0  0  0  0  0  0  0  0  0  0
  -13.8395   -1.9655  -22.7353 C   0  0  0  0  0  0  0  0  0  0  0  0
  -12.6269   -2.5669  -22.4478 C   0  0  0  0  0  0  0  0  0  0  0  0
  -11.4221   -1.8816  -22.5945 C   0  0  0  0  0  0  0  0  0  0  0  0
  -11.3854   -0.5813  -23.0300 C   0  0  0  0  0  0  0  0  0  0  0  0
  2  1  1  0  0  0
  2  3  1  0  0  0
  3  4  1  0  0  0
  4  5  1  0  0  0
  4  6  1  0  0  0
  6  7  1  0  0  0
  6  9  1  0  0  0
  7  8  2  0  0  0
  7 12  1  0  0  0
 12 13  1  0  0  0
 13 14  2  0  0  0
 14 15  1  0  0  0
 15 16  2  0  0  0
 16 17  1  0  0  0
 17 18  2  0  0  0
 18 19  1  0  0  0
 19 20  2  0  0  0
 20 21  1  0  0  0
 21 22  2  0  0  0
 22 13  1  0  0  0
 22 17  1  0  0  0
  9 10  1  0  0  0
  9 11  1  0  0  0
 11  2  1  0  0  0
M  END
> <minimizedAffinity>
-5.53277

> <CNNscore>
0.4155961275

> <CNNaffinity>
5.3043632507

> <CNN_VS>
2.2044727802

> <CNNaffinity_variance>
0.1581456959

$$$$



 22 24  0  0  0  0  0  0  0  0999 V2000
   -2.3781    1.4644  -21.0409 C   0  0  0  0  0  0  0  0  0  0  0  0
   -3.7409    1.4315  -21.7232 C   0  0  0  0  0  0  0  0  0  0  0  0
   -3.8727    0.2457  -22.6190 C   0  0  0  0  0  0  0  0  0  0  0  0
   -5.3107    0.0656  -23.0785 C   0  0  0  0  0  0  0  0  0  0  0  0
   -5.3018   -1.1787  -23.9440 C   0  0  0  0  0  0  0  0  0  0  0  0
   -6.2504    0.0508  -22.0099 N   0  0  0  0  0  0  0  0  0  0  0  0
   -7.6514   -0.1846  -22.1076 C   0  0  0  0  0  0  0  0  0  0  0  0
   -8.2597   -0.1322  -20.9753 O   0  0  0  0  0  0  0  0  0  0  0  0
   -5.7089    0.3093  -20.6625 C   0  0  0  0  0  0  0  0  0  0  0  0
   -5.1884   -0.9496  -20.0742 C   0  0  0  0  0  0  0  0  0  0  0  0
   -4.7931    1.4828  -20.6512 C   0  0  0  0  0  0  0  0  0  0  0  0
   -8.3703   -0.4640  -23.3657 C   0  0  0  0  0  0  0  0  0  0  0  0
   -9.7100   -1.0263  -23.2238 C   0  0  0  0  0  0  0  0  0  0  0  0
  -10.0336   -2.3368  -22.9737 C   0  0  0  0  0  0  0  0  0  0  0  0
  -11.3302   -2.7642  -22.8521 N   0  0  0  0  0  0  0  0  0  0  0  0
  -12.3762   -1.9621  -22.9637 C   0  0  0  0  0  0  0  0  0  0  0  0
  -12.1022   -0.6148  -23.2212 C   0  0  0  0  0  0  0  0  0  0  0  0
  -13.2030    0.2023  -23.3511 C   0  0  0  0  0  0  0  0  0  0  0  0
  -13.0506    1.5429  -23.6218 C   0  0  0  0  0  0  0  0  0  0  0  0
  -11.7593    2.0220  -23.7548 C   0  0  0  0  0  0  0  0  0  0  0  0
  -10.6546    1.1829  -23.6199 C   0  0  0  0  0  0  0  0  0  0  0  0
  -10.7988   -0.1542  -23.3496 C   0  0  0  0  0  0  0  0  0  0  0  0
  2  1  1  0  0  0
  2  3  1  0  0  0
  3  4  1  0  0  0
  4  5  1  0  0  0
  4  6  1  0  0  0
  6  7  1  0  0  0
  6  9  1  0  0  0
  7  8  2  0  0  0
  7 12  1  0  0  0
 12 13  1  0  0  0
 13 14  2  0  0  0
 14 15  1  0  0  0
 15 16  2  0  0  0
 16 17  1  0  0  0
 17 18  2  0  0  0
 18 19  1  0  0  0
 19 20  2  0  0  0
 20 21  1  0  0  0
 21 22  2  0  0  0
 22 13  1  0  0  0
 22 17  1  0  0  0
  9 10  1  0  0  0
  9 11  1  0  0  0
 11  2  1  0  0  0
M  END
> <minimizedAffinity>
-6.55212

> <CNNscore>
0.3930487037

> <CNNaffinity>
4.9540376663

> <CNN_VS>
1.9471781254

> <CNNaffinity_variance>
0.1393127292

$$$$



 22 24  0  0  0  0  0  0  0  0999 V2000
  -11.2431   -3.9882  -24.5213 C   0  0  0  0  0  0  0  0  0  0  0  0
  -10.1573   -3.2074  -23.7899 C   0  0  0  0  0  0  0  0  0  0  0  0
   -9.2955   -2.4498  -24.7435 C   0  0  0  0  0  0  0  0  0  0  0  0
   -8.3996   -1.4667  -24.0072 C   0  0  0  0  0  0  0  0  0  0  0  0
   -7.6134   -0.7534  -25.0892 C   0  0  0  0  0  0  0  0  0  0  0  0
   -9.1063   -0.6142  -23.1134 N   0  0  0  0  0  0  0  0  0  0  0  0
   -8.5659    0.4597  -22.3502 C   0  0  0  0  0  0  0  0  0  0  0  0
   -9.4388    1.0581  -21.6188 O   0  0  0  0  0  0  0  0  0  0  0  0
  -10.5500   -0.8783  -22.9659 C   0  0  0  0  0  0  0  0  0  0  0  0
  -11.3048   -0.1901  -24.0423 C   0  0  0  0  0  0  0  0  0  0  0  0
  -10.8293   -2.3277  -22.7732 C   0  0  0  0  0  0  0  0  0  0  0  0
   -7.1499    0.8744  -22.3695 C   0  0  0  0  0  0  0  0  0  0  0  0
   -6.3693    0.5350  -21.1836 C   0  0  0  0  0  0  0  0  0  0  0  0
   -6.6725   -0.4136  -20.2386 C   0  0  0  0  0  0  0  0  0  0  0  0
   -5.8656   -0.6606  -19.1586 N   0  0  0  0  0  0  0  0  0  0  0  0
   -4.7339   -0.0146  -18.9307 C   0  0  0  0  0  0  0  0  0  0  0  0
   -4.3785    0.9656  -19.8632 C   0  0  0  0  0  0  0  0  0  0  0  0
   -3.2066    1.6395  -19.6011 C   0  0  0  0  0  0  0  0  0  0  0  0
   -2.7696    2.6359  -20.4438 C   0  0  0  0  0  0  0  0  0  0  0  0
   -3.5518    2.9230  -21.5485 C   0  0  0  0  0  0  0  0  0  0  0  0
   -4.7355    2.2318  -21.8011 C   0  0  0  0  0  0  0  0  0  0  0  0
   -5.1770    1.2371  -20.9660 C   0  0  0  0  0  0  0  0  0  0  0  0
  2  1  1  0  0  0
  2  3  1  0  0  0
  3  4  1  0  0  0
  4  5  1  0  0  0
  4  6  1  0  0  0
  6  7  1  0  0  0
  6  9  1  0  0  0
  7  8  2  0  0  0
  7 12  1  0  0  0
 12 13  1  0  0  0
 13 14  2  0  0  0
 14 15  1  0  0  0
 15 16  2  0  0  0
 16 17  1  0  0  0
 17 18  2  0  0  0
 18 19  1  0  0  0
 19 20  2  0  0  0
 20 21  1  0  0  0
 21 22  2  0  0  0
 22 13  1  0  0  0
 22 17  1  0  0  0
  9 10  1  0  0  0
  9 11  1  0  0  0
 11  2  1  0  0  0
M  END
> <minimizedAffinity>
-5.99277

> <CNNscore>
0.3903300762

> <CNNaffinity>
4.8628907204

> <CNN_VS>
1.8981325626

> <CNNaffinity_variance>
0.0941550434

$$$$



 22 24  0  0  0  0  0  0  0  0999 V2000
   -8.9139   -6.6827  -27.3857 C   0  0  0  0  0  0  0  0  0  0  0  0
   -9.4075   -5.4803  -26.5893 C   0  0  0  0  0  0  0  0  0  0  0  0
   -8.8024   -5.4446  -25.2260 C   0  0  0  0  0  0  0  0  0  0  0  0
   -9.0762   -4.1151  -24.5416 C   0  0  0  0  0  0  0  0  0  0  0  0
   -8.3845   -4.2072  -23.1960 C   0  0  0  0  0  0  0  0  0  0  0  0
   -8.7156   -2.9861  -25.3294 N   0  0  0  0  0  0  0  0  0  0  0  0
   -8.7690   -1.6183  -24.9370 C   0  0  0  0  0  0  0  0  0  0  0  0
   -8.3872   -0.8060  -25.8584 O   0  0  0  0  0  0  0  0  0  0  0  0
   -8.2392   -3.2709  -26.6960 C   0  0  0  0  0  0  0  0  0  0  0  0
   -6.7878   -3.5790  -26.6740 C   0  0  0  0  0  0  0  0  0  0  0  0
   -9.1203   -4.2451  -27.3962 C   0  0  0  0  0  0  0  0  0  0  0  0
   -9.2133   -1.1412  -23.6131 C   0  0  0  0  0  0  0  0  0  0  0  0
  -10.6461   -0.9024  -23.4687 C   0  0  0  0  0  0  0  0  0  0  0  0
  -11.6179   -1.8378  -23.2130 C   0  0  0  0  0  0  0  0  0  0  0  0
  -12.9424   -1.5079  -23.0894 N   0  0  0  0  0  0  0  0  0  0  0  0
  -13.4002   -0.2721  -23.2042 C   0  0  0  0  0  0  0  0  0  0  0  0
  -12.4508    0.7209  -23.4675 C   0  0  0  0  0  0  0  0  0  0  0  0
  -12.9470    1.9985  -23.6006 C   0  0  0  0  0  0  0  0  0  0  0  0
  -12.1041    3.0507  -23.8769 C   0  0  0  0  0  0  0  0  0  0  0  0
  -10.7565    2.7672  -24.0122 C   0  0  0  0  0  0  0  0  0  0  0  0
  -10.2687    1.4689  -23.8740 C   0  0  0  0  0  0  0  0  0  0  0  0
  -11.1028    0.4154  -23.5980 C   0  0  0  0  0  0  0  0  0  0  0  0
  2  1  1  0  0  0
  2  3  1  0  0  0
  3  4  1  0  0  0
  4  5  1  0  0  0
  4  6  1  0  0  0
  6  7  1  0  0  0
  6  9  1  0  0  0
  7  8  2  0  0  0
  7 12  1  0  0  0
 12 13  1  0  0  0
 13 14  2  0  0  0
 14 15  1  0  0  0
 15 16  2  0  0  0
 16 17  1  0  0  0
 17 18  2  0  0  0
 18 19  1  0  0  0
 19 20  2  0  0  0
 20 21  1  0  0  0
 21 22  2  0  0  0
 22 13  1  0  0  0
 22 17  1  0  0  0
  9 10  1  0  0  0
  9 11  1  0  0  0
 11  2  1  0  0  0
M  END
> <minimizedAffinity>
-6.07563

> <CNNscore>
0.3681428432

> <CNNaffinity>
5.0011100769

> <CNN_VS>
1.8411228657

> <CNNaffinity_variance>
0.2302509248

$$$$



 25 29  0  0  0  0  0  0  0  0999 V2000
   -5.2551   -1.8085  -19.4285 C   0  0  0  0  0  0  0  0  0  0  0  0
   -5.4462   -2.7230  -20.5855 C   0  0  0  0  0  0  0  0  0  0  0  0
   -5.3873   -3.9764  -20.4935 O   0  0  0  0  0  0  0  0  0  0  0  0
   -5.7104   -2.1718  -21.8720 N   0  0  0  0  0  0  0  0  0  0  0  0
   -5.9178   -2.9520  -23.0905 C   0  0  0  0  0  0  0  0  0  0  0  0
   -6.0362   -1.9075  -24.1751 C   0  0  0  0  0  0  0  0  0  0  0  0
   -5.0701   -0.8741  -23.6047 C   0  0  0  0  0  0  0  0  0  0  0  0
   -5.8327   -0.7845  -22.2722 C   0  0  0  0  0  0  0  0  0  0  0  0
   -7.1860   -0.5505  -22.7756 C   0  0  0  0  0  0  0  0  0  0  0  0
   -8.3749    0.0905  -22.5309 C   0  0  0  0  0  0  0  0  0  0  0  0
   -8.6191    0.8902  -21.4265 O   0  0  0  0  0  0  0  0  0  0  0  0
   -9.1951   -0.2188  -23.5477 N   0  0  0  0  0  0  0  0  0  0  0  0
   -8.5496   -1.0243  -24.4024 C   0  0  0  0  0  0  0  0  0  0  0  0
   -9.0312   -1.5064  -25.4737 O   0  0  0  0  0  0  0  0  0  0  0  0
   -7.2980   -1.2367  -23.9306 N   0  0  0  0  0  0  0  0  0  0  0  0
  -10.5338    0.2823  -23.6204 C   0  0  0  0  0  0  0  0  0  0  0  0
  -10.8080    1.5693  -24.0386 C   0  0  0  0  0  0  0  0  0  0  0  0
  -12.0352    2.0847  -24.1243 N   0  0  0  0  0  0  0  0  0  0  0  0
  -13.0734    1.2875  -23.7769 C   0  0  0  0  0  0  0  0  0  0  0  0
  -12.9158   -0.0075  -23.3474 C   0  0  0  0  0  0  0  0  0  0  0  0
  -13.9752   -0.8092  -22.9969 C   0  0  0  0  0  0  0  0  0  0  0  0
  -13.8166   -2.1218  -22.5616 C   0  0  0  0  0  0  0  0  0  0  0  0
  -12.5204   -2.5951  -22.4953 C   0  0  0  0  0  0  0  0  0  0  0  0
  -11.4381   -1.8062  -22.8430 C   0  0  0  0  0  0  0  0  0  0  0  0
  -11.6146   -0.5081  -23.2722 C   0  0  0  0  0  0  0  0  0  0  0  0
  1  2  1  0  0  0
  2  3  2  0  0  0
  2  4  1  0  0  0
  4  5  1  0  0  0
  6  5  1  0  0  0
  6  7  1  0  0  0
  7  8  1  0  0  0
  8  9  1  0  0  0
  8  4  1  0  0  0
  9 10  2  0  0  0
 10 11  1  0  0  0
 10 12  1  0  0  0
 12 16  1  0  0  0
 12 13  1  0  0  0
 16 17  2  0  0  0
 17 18  1  0  0  0
 18 19  2  0  0  0
 19 20  1  0  0  0
 20 21  2  0  0  0
 21 22  1  0  0  0
 22 23  2  0  0  0
 23 24  1  0  0  0
 24 25  2  0  0  0
 25 16  1  0  0  0
 25 20  1  0  0  0
 13 14  2  0  0  0
 13 15  1  0  0  0
 15  9  1  0  0  0
 15  6  1  0  0  0
M  CHG 1  11  -1
M  END
> <minimizedAffinity>
-6.94686

> <CNNscore>
0.6475816369

> <CNNaffinity>
5.6854200363

> <CNN_VS>
3.6817736626

> <CNNaffinity_variance>
0.2773415446

$$$$



 25 29  0  0  0  0  0  0  0  0999 V2000
   -7.6286   -1.7943  -27.1034 C   0  0  0  0  0  0  0  0  0  0  0  0
   -6.7100   -2.8839  -26.6787 C   0  0  0  0  0  0  0  0  0  0  0  0
   -5.7507   -3.2934  -27.3823 O   0  0  0  0  0  0  0  0  0  0  0  0
   -6.9091   -3.5089  -25.4144 N   0  0  0  0  0  0  0  0  0  0  0  0
   -6.0840   -4.5880  -24.8747 C   0  0  0  0  0  0  0  0  0  0  0  0
   -6.7772   -4.9664  -23.5873 C   0  0  0  0  0  0  0  0  0  0  0  0
   -8.2173   -4.7056  -24.0169 C   0  0  0  0  0  0  0  0  0  0  0  0
   -7.9175   -3.2485  -24.4069 C   0  0  0  0  0  0  0  0  0  0  0  0
   -7.2614   -2.7932  -23.1814 C   0  0  0  0  0  0  0  0  0  0  0  0
   -7.0767   -1.7216  -22.3437 C   0  0  0  0  0  0  0  0  0  0  0  0
   -7.6396   -0.4709  -22.5382 O   0  0  0  0  0  0  0  0  0  0  0  0
   -6.2733   -2.1414  -21.3535 N   0  0  0  0  0  0  0  0  0  0  0  0
   -5.9622   -3.4290  -21.5572 C   0  0  0  0  0  0  0  0  0  0  0  0
   -5.2201   -4.1392  -20.8108 O   0  0  0  0  0  0  0  0  0  0  0  0
   -6.5725   -3.8440  -22.6928 N   0  0  0  0  0  0  0  0  0  0  0  0
   -5.8668   -1.2753  -20.2890 C   0  0  0  0  0  0  0  0  0  0  0  0
   -6.4564   -1.3281  -19.0416 C   0  0  0  0  0  0  0  0  0  0  0  0
   -6.1155   -0.5449  -18.0172 N   0  0  0  0  0  0  0  0  0  0  0  0
   -5.1266    0.3573  -18.2223 C   0  0  0  0  0  0  0  0  0  0  0  0
   -4.4722    0.4956  -19.4219 C   0  0  0  0  0  0  0  0  0  0  0  0
   -3.4698    1.4139  -19.6211 C   0  0  0  0  0  0  0  0  0  0  0  0
   -2.8060    1.5549  -20.8364 C   0  0  0  0  0  0  0  0  0  0  0  0
   -3.2063    0.7139  -21.8567 C   0  0  0  0  0  0  0  0  0  0  0  0
   -4.2133   -0.2184  -21.6795 C   0  0  0  0  0  0  0  0  0  0  0  0
   -4.8597   -0.3438  -20.4683 C   0  0  0  0  0  0  0  0  0  0  0  0
  1  2  1  0  0  0
  2  3  2  0  0  0
  2  4  1  0  0  0
  4  5  1  0  0  0
  6  5  1  0  0  0
  6  7  1  0  0  0
  7  8  1  0  0  0
  8  9  1  0  0  0
  8  4  1  0  0  0
  9 10  2  0  0  0
 10 11  1  0  0  0
 10 12  1  0  0  0
 12 16  1  0  0  0
 12 13  1  0  0  0
 16 17  2  0  0  0
 17 18  1  0  0  0
 18 19  2  0  0  0
 19 20  1  0  0  0
 20 21  2  0  0  0
 21 22  1  0  0  0
 22 23  2  0  0  0
 23 24  1  0  0  0
 24 25  2  0  0  0
 25 16  1  0  0  0
 25 20  1  0  0  0
 13 14  2  0  0  0
 13 15  1  0  0  0
 15  9  1  0  0  0
 15  6  1  0  0  0
M  CHG 1  11  -1
M  END
> <minimizedAffinity>
-7.71257

> <CNNscore>
0.6052540541

> <CNNaffinity>
5.4565596581

> <CNN_VS>
3.3026049137

> <CNNaffinity_variance>
0.2383950055

$$$$



 25 29  0  0  0  0  0  0  0  0999 V2000
   -4.4107    2.5296  -27.0009 C   0  0  0  0  0  0  0  0  0  0  0  0
   -4.2834    2.7465  -25.5353 C   0  0  0  0  0  0  0  0  0  0  0  0
   -3.7124    3.7480  -25.0313 O   0  0  0  0  0  0  0  0  0  0  0  0
   -4.8288    1.7830  -24.6392 N   0  0  0  0  0  0  0  0  0  0  0  0
   -4.7747    1.8709  -23.1812 C   0  0  0  0  0  0  0  0  0  0  0  0
   -5.3761    0.5658  -22.7159 C   0  0  0  0  0  0  0  0  0  0  0  0
   -4.8827   -0.3303  -23.8472 C   0  0  0  0  0  0  0  0  0  0  0  0
   -5.5312    0.5493  -24.9293 C   0  0  0  0  0  0  0  0  0  0  0  0
   -6.8905    0.6373  -24.3963 C   0  0  0  0  0  0  0  0  0  0  0  0
   -8.2197    0.7134  -24.7301 C   0  0  0  0  0  0  0  0  0  0  0  0
   -8.7001    0.7271  -26.0293 O   0  0  0  0  0  0  0  0  0  0  0  0
   -8.9037    0.7680  -23.5762 N   0  0  0  0  0  0  0  0  0  0  0  0
   -8.0399    0.7279  -22.5522 C   0  0  0  0  0  0  0  0  0  0  0  0
   -8.3483    0.7608  -21.3209 O   0  0  0  0  0  0  0  0  0  0  0  0
   -6.7841    0.6465  -23.0524 N   0  0  0  0  0  0  0  0  0  0  0  0
  -10.3320    0.8542  -23.5454 C   0  0  0  0  0  0  0  0  0  0  0  0
  -10.9957    2.0390  -23.7950 C   0  0  0  0  0  0  0  0  0  0  0  0
  -12.3226    2.1732  -23.7790 N   0  0  0  0  0  0  0  0  0  0  0  0
  -13.0588    1.0715  -23.4988 C   0  0  0  0  0  0  0  0  0  0  0  0
  -12.5033   -0.1566  -23.2354 C   0  0  0  0  0  0  0  0  0  0  0  0
  -13.2582   -1.2692  -22.9520 C   0  0  0  0  0  0  0  0  0  0  0  0
  -12.6963   -2.5144  -22.6849 C   0  0  0  0  0  0  0  0  0  0  0  0
  -11.3170   -2.5862  -22.7173 C   0  0  0  0  0  0  0  0  0  0  0  0
  -10.5364   -1.4793  -23.0002 C   0  0  0  0  0  0  0  0  0  0  0  0
  -11.1107   -0.2537  -23.2624 C   0  0  0  0  0  0  0  0  0  0  0  0
  1  2  1  0  0  0
  2  3  2  0  0  0
  2  4  1  0  0  0
  4  5  1  0  0  0
  6  5  1  0  0  0
  6  7  1  0  0  0
  7  8  1  0  0  0
  8  9  1  0  0  0
  8  4  1  0  0  0
  9 10  2  0  0  0
 10 11  1  0  0  0
 10 12  1  0  0  0
 12 16  1  0  0  0
 12 13  1  0  0  0
 16 17  2  0  0  0
 17 18  1  0  0  0
 18 19  2  0  0  0
 19 20  1  0  0  0
 20 21  2  0  0  0
 21 22  1  0  0  0
 22 23  2  0  0  0
 23 24  1  0  0  0
 24 25  2  0  0  0
 25 16  1  0  0  0
 25 20  1  0  0  0
 13 14  2  0  0  0
 13 15  1  0  0  0
 15  9  1  0  0  0
 15  6  1  0  0  0
M  CHG 1  11  -1
M  END
> <minimizedAffinity>
-5.90624

> <CNNscore>
0.4715884328

> <CNNaffinity>
5.2887945175

> <CNN_VS>
2.4941344261

> <CNNaffinity_variance>
0.3364216387

$$$$



 25 29  0  0  0  0  0  0  0  0999 V2000
   -5.3083   -1.6478  -19.4065 C   0  0  0  0  0  0  0  0  0  0  0  0
   -5.4846   -2.6459  -20.4947 C   0  0  0  0  0  0  0  0  0  0  0  0
   -5.3291   -3.8835  -20.3299 O   0  0  0  0  0  0  0  0  0  0  0  0
   -5.8480   -2.1986  -21.7972 N   0  0  0  0  0  0  0  0  0  0  0  0
   -6.0533   -3.0681  -22.9540 C   0  0  0  0  0  0  0  0  0  0  0  0
   -6.2985   -2.1064  -24.0925 C   0  0  0  0  0  0  0  0  0  0  0  0
   -5.3861   -0.9727  -23.6357 C   0  0  0  0  0  0  0  0  0  0  0  0
   -6.0908   -0.8520  -22.2741 C   0  0  0  0  0  0  0  0  0  0  0  0
   -7.4795   -0.7472  -22.7215 C   0  0  0  0  0  0  0  0  0  0  0  0
   -8.6999   -0.1777  -22.4560 C   0  0  0  0  0  0  0  0  0  0  0  0
   -8.9512    0.6720  -21.3912 O   0  0  0  0  0  0  0  0  0  0  0  0
   -9.5412   -0.6089  -23.4092 N   0  0  0  0  0  0  0  0  0  0  0  0
   -8.8781   -1.4198  -24.2452 C   0  0  0  0  0  0  0  0  0  0  0  0
   -9.3718   -2.0026  -25.2594 O   0  0  0  0  0  0  0  0  0  0  0  0
   -7.5938   -1.5124  -23.8255 N   0  0  0  0  0  0  0  0  0  0  0  0
  -10.9152   -0.2096  -23.4442 C   0  0  0  0  0  0  0  0  0  0  0  0
  -11.9397   -1.1030  -23.2021 C   0  0  0  0  0  0  0  0  0  0  0  0
  -13.2344   -0.7831  -23.2224 N   0  0  0  0  0  0  0  0  0  0  0  0
  -13.5560    0.5030  -23.4991 C   0  0  0  0  0  0  0  0  0  0  0  0
  -12.6187    1.4738  -23.7551 C   0  0  0  0  0  0  0  0  0  0  0  0
  -12.9542    2.7765  -24.0350 C   0  0  0  0  0  0  0  0  0  0  0  0
  -12.0052    3.7611  -24.2945 C   0  0  0  0  0  0  0  0  0  0  0  0
  -10.6823    3.3647  -24.2581 C   0  0  0  0  0  0  0  0  0  0  0  0
  -10.3206    2.0587  -23.9786 C   0  0  0  0  0  0  0  0  0  0  0  0
  -11.2747    1.0968  -23.7239 C   0  0  0  0  0  0  0  0  0  0  0  0
  1  2  1  0  0  0
  2  3  2  0  0  0
  2  4  1  0  0  0
  4  5  1  0  0  0
  6  5  1  0  0  0
  6  7  1  0  0  0
  7  8  1  0  0  0
  8  9  1  0  0  0
  8  4  1  0  0  0
  9 10  2  0  0  0
 10 11  1  0  0  0
 10 12  1  0  0  0
 12 16  1  0  0  0
 12 13  1  0  0  0
 16 17  2  0  0  0
 17 18  1  0  0  0
 18 19  2  0  0  0
 19 20  1  0  0  0
 20 21  2  0  0  0
 21 22  1  0  0  0
 22 23  2  0  0  0
 23 24  1  0  0  0
 24 25  2  0  0  0
 25 16  1  0  0  0
 25 20  1  0  0  0
 13 14  2  0  0  0
 13 15  1  0  0  0
 15  9  1  0  0  0
 15  6  1  0  0  0
M  CHG 1  11  -1
M  END
> <minimizedAffinity>
-7.40624

> <CNNscore>
0.4245738387

> <CNNaffinity>
5.3489618301

> <CNN_VS>
2.2710292339

> <CNNaffinity_variance>
0.2963573039

$$$$



 25 29  0  0  0  0  0  0  0  0999 V2000
   -5.7574   -6.3464  -21.3183 C   0  0  0  0  0  0  0  0  0  0  0  0
   -6.4996   -6.7933  -22.5269 C   0  0  0  0  0  0  0  0  0  0  0  0
   -7.0889   -7.9022  -22.6060 O   0  0  0  0  0  0  0  0  0  0  0  0
   -6.5582   -5.9373  -23.6638 N   0  0  0  0  0  0  0  0  0  0  0  0
   -7.2503   -6.2502  -24.9126 C   0  0  0  0  0  0  0  0  0  0  0  0
   -6.9112   -5.0890  -25.8169 C   0  0  0  0  0  0  0  0  0  0  0  0
   -5.5022   -4.8048  -25.3066 C   0  0  0  0  0  0  0  0  0  0  0  0
   -5.9819   -4.6219  -23.8569 C   0  0  0  0  0  0  0  0  0  0  0  0
   -7.0591   -3.6558  -24.0716 C   0  0  0  0  0  0  0  0  0  0  0  0
   -7.7169   -2.5770  -23.5354 C   0  0  0  0  0  0  0  0  0  0  0  0
   -7.4094   -2.0021  -22.3132 O   0  0  0  0  0  0  0  0  0  0  0  0
   -8.6686   -2.2299  -24.4164 N   0  0  0  0  0  0  0  0  0  0  0  0
   -8.6145   -3.0576  -25.4691 C   0  0  0  0  0  0  0  0  0  0  0  0
   -9.3724   -3.0127  -26.4868 O   0  0  0  0  0  0  0  0  0  0  0  0
   -7.6157   -3.9489  -25.2640 N   0  0  0  0  0  0  0  0  0  0  0  0
   -9.5555   -1.1317  -24.1801 C   0  0  0  0  0  0  0  0  0  0  0  0
   -9.1852    0.1726  -24.4408 C   0  0  0  0  0  0  0  0  0  0  0  0
   -9.9721    1.2304  -24.2389 N   0  0  0  0  0  0  0  0  0  0  0  0
  -11.2126    1.0014  -23.7461 C   0  0  0  0  0  0  0  0  0  0  0  0
  -11.6842   -0.2544  -23.4513 C   0  0  0  0  0  0  0  0  0  0  0  0
  -12.9446   -0.4774  -22.9515 C   0  0  0  0  0  0  0  0  0  0  0  0
  -13.4236   -1.7496  -22.6524 C   0  0  0  0  0  0  0  0  0  0  0  0
  -12.5593   -2.8022  -22.8843 C   0  0  0  0  0  0  0  0  0  0  0  0
  -11.2858   -2.6018  -23.3870 C   0  0  0  0  0  0  0  0  0  0  0  0
  -10.8284   -1.3342  -23.6774 C   0  0  0  0  0  0  0  0  0  0  0  0
  1  2  1  0  0  0
  2  3  2  0  0  0
  2  4  1  0  0  0
  4  5  1  0  0  0
  6  5  1  0  0  0
  6  7  1  0  0  0
  7  8  1  0  0  0
  8  9  1  0  0  0
  8  4  1  0  0  0
  9 10  2  0  0  0
 10 11  1  0  0  0
 10 12  1  0  0  0
 12 16  1  0  0  0
 12 13  1  0  0  0
 16 17  2  0  0  0
 17 18  1  0  0  0
 18 19  2  0  0  0
 19 20  1  0  0  0
 20 21  2  0  0  0
 21 22  1  0  0  0
 22 23  2  0  0  0
 23 24  1  0  0  0
 24 25  2  0  0  0
 25 16  1  0  0  0
 25 20  1  0  0  0
 13 14  2  0  0  0
 13 15  1  0  0  0
 15  9  1  0  0  0
 15  6  1  0  0  0
M  CHG 1  11  -1
M  END
> <minimizedAffinity>
-6.31467

> <CNNscore>
0.3732513785

> <CNNaffinity>
5.4256868362

> <CNN_VS>
2.0251450539

> <CNNaffinity_variance>
0.1207227260

$$$$



 25 29  0  0  0  0  0  0  0  0999 V2000
   -6.5628   -6.8224  -27.4025 C   0  0  0  0  0  0  0  0  0  0  0  0
   -5.7531   -6.3530  -26.2469 C   0  0  0  0  0  0  0  0  0  0  0  0
   -4.5073   -6.1847  -26.2981 O   0  0  0  0  0  0  0  0  0  0  0  0
   -6.4019   -6.0741  -25.0100 N   0  0  0  0  0  0  0  0  0  0  0  0
   -5.7299   -5.6081  -23.7985 C   0  0  0  0  0  0  0  0  0  0  0  0
   -6.8271   -5.5836  -22.7608 C   0  0  0  0  0  0  0  0  0  0  0  0
   -7.6383   -6.7764  -23.2565 C   0  0  0  0  0  0  0  0  0  0  0  0
   -7.8050   -6.1759  -24.6625 C   0  0  0  0  0  0  0  0  0  0  0  0
   -8.3063   -4.8483  -24.3078 C   0  0  0  0  0  0  0  0  0  0  0  0
   -9.1427   -3.8296  -24.6911 C   0  0  0  0  0  0  0  0  0  0  0  0
   -9.9221   -3.8469  -25.8362 O   0  0  0  0  0  0  0  0  0  0  0  0
   -9.0363   -2.8720  -23.7563 N   0  0  0  0  0  0  0  0  0  0  0  0
   -8.1662   -3.2701  -22.8179 C   0  0  0  0  0  0  0  0  0  0  0  0
   -7.8304   -2.6059  -21.7892 O   0  0  0  0  0  0  0  0  0  0  0  0
   -7.7061   -4.4992  -23.1522 N   0  0  0  0  0  0  0  0  0  0  0  0
   -9.7775   -1.6502  -23.8356 C   0  0  0  0  0  0  0  0  0  0  0  0
   -9.2147   -0.4874  -24.3230 C   0  0  0  0  0  0  0  0  0  0  0  0
   -9.8603    0.6759  -24.4179 N   0  0  0  0  0  0  0  0  0  0  0  0
  -11.1505    0.7098  -24.0077 C   0  0  0  0  0  0  0  0  0  0  0  0
  -11.8090   -0.3864  -23.5066 C   0  0  0  0  0  0  0  0  0  0  0  0
  -13.1184   -0.3428  -23.0926 C   0  0  0  0  0  0  0  0  0  0  0  0
  -13.7867   -1.4531  -22.5847 C   0  0  0  0  0  0  0  0  0  0  0  0
  -13.0620   -2.6271  -22.5127 C   0  0  0  0  0  0  0  0  0  0  0  0
  -11.7424   -2.6949  -22.9236 C   0  0  0  0  0  0  0  0  0  0  0  0
  -11.0967   -1.5845  -23.4242 C   0  0  0  0  0  0  0  0  0  0  0  0
  1  2  1  0  0  0
  2  3  2  0  0  0
  2  4  1  0  0  0
  4  5  1  0  0  0
  6  5  1  0  0  0
  6  7  1  0  0  0
  7  8  1  0  0  0
  8  9  1  0  0  0
  8  4  1  0  0  0
  9 10  2  0  0  0
 10 11  1  0  0  0
 10 12  1  0  0  0
 12 16  1  0  0  0
 12 13  1  0  0  0
 16 17  2  0  0  0
 17 18  1  0  0  0
 18 19  2  0  0  0
 19 20  1  0  0  0
 20 21  2  0  0  0
 21 22  1  0  0  0
 22 23  2  0  0  0
 23 24  1  0  0  0
 24 25  2  0  0  0
 25 16  1  0  0  0
 25 20  1  0  0  0
 13 14  2  0  0  0
 13 15  1  0  0  0
 15  9  1  0  0  0
 15  6  1  0  0  0
M  CHG 1  11  -1
M  END
> <minimizedAffinity>
-7.07239

> <CNNscore>
0.3651804328

> <CNNaffinity>
5.3273353577

> <CNN_VS>
1.9454386234

> <CNNaffinity_variance>
0.2032175362

$$$$



 25 29  0  0  0  0  0  0  0  0999 V2000
  -11.7761   -2.6185  -22.5521 C   0  0  0  0  0  0  0  0  0  0  0  0
  -11.0107   -2.6526  -23.8267 C   0  0  0  0  0  0  0  0  0  0  0  0
  -11.5187   -2.3837  -24.9459 O   0  0  0  0  0  0  0  0  0  0  0  0
   -9.6310   -3.0054  -23.8008 N   0  0  0  0  0  0  0  0  0  0  0  0
   -8.7633   -3.0782  -24.9747 C   0  0  0  0  0  0  0  0  0  0  0  0
   -7.4567   -3.6035  -24.4289 C   0  0  0  0  0  0  0  0  0  0  0  0
   -8.0127   -4.5088  -23.3345 C   0  0  0  0  0  0  0  0  0  0  0  0
   -8.7919   -3.3593  -22.6737 C   0  0  0  0  0  0  0  0  0  0  0  0
   -7.7198   -2.3721  -22.5484 C   0  0  0  0  0  0  0  0  0  0  0  0
   -7.2194   -1.3573  -21.7713 C   0  0  0  0  0  0  0  0  0  0  0  0
   -7.7939   -0.9222  -20.5883 O   0  0  0  0  0  0  0  0  0  0  0  0
   -6.1123   -0.9119  -22.3864 N   0  0  0  0  0  0  0  0  0  0  0  0
   -5.9201   -1.6181  -23.5091 C   0  0  0  0  0  0  0  0  0  0  0  0
   -4.9653   -1.4585  -24.3306 O   0  0  0  0  0  0  0  0  0  0  0  0
   -6.9156   -2.5297  -23.6189 N   0  0  0  0  0  0  0  0  0  0  0  0
   -5.3249    0.1560  -21.8495 C   0  0  0  0  0  0  0  0  0  0  0  0
   -4.2806   -0.0766  -20.9768 C   0  0  0  0  0  0  0  0  0  0  0  0
   -3.5170    0.8810  -20.4486 N   0  0  0  0  0  0  0  0  0  0  0  0
   -3.7907    2.1611  -20.7958 C   0  0  0  0  0  0  0  0  0  0  0  0
   -4.8050    2.5064  -21.6550 C   0  0  0  0  0  0  0  0  0  0  0  0
   -5.0755    3.8081  -22.0018 C   0  0  0  0  0  0  0  0  0  0  0  0
   -6.1032    4.1592  -22.8724 C   0  0  0  0  0  0  0  0  0  0  0  0
   -6.8566    3.1207  -23.3847 C   0  0  0  0  0  0  0  0  0  0  0  0
   -6.6028    1.8023  -23.0498 C   0  0  0  0  0  0  0  0  0  0  0  0
   -5.5804    1.4735  -22.1856 C   0  0  0  0  0  0  0  0  0  0  0  0
  1  2  1  0  0  0
  2  3  2  0  0  0
  2  4  1  0  0  0
  4  5  1  0  0  0
  6  5  1  0  0  0
  6  7  1  0  0  0
  7  8  1  0  0  0
  8  9  1  0  0  0
  8  4  1  0  0  0
  9 10  2  0  0  0
 10 11  1  0  0  0
 10 12  1  0  0  0
 12 16  1  0  0  0
 12 13  1  0  0  0
 16 17  2  0  0  0
 17 18  1  0  0  0
 18 19  2  0  0  0
 19 20  1  0  0  0
 20 21  2  0  0  0
 21 22  1  0  0  0
 22 23  2  0  0  0
 23 24  1  0  0  0
 24 25  2  0  0  0
 25 16  1  0  0  0
 25 20  1  0  0  0
 13 14  2  0  0  0
 13 15  1  0  0  0
 15  9  1  0  0  0
 15  6  1  0  0  0
M  CHG 1  11  -1
M  END
> <minimizedAffinity>
-6.26901

> <CNNscore>
0.3295411170

> <CNNaffinity>
5.2957572937

> <CNN_VS>
1.7451697588

> <CNNaffinity_variance>
0.2441242933

$$$$



 25 29  0  0  0  0  0  0  0  0999 V2000
   -5.7652   -6.1776  -21.1481 C   0  0  0  0  0  0  0  0  0  0  0  0
   -6.3644   -6.6906  -22.4087 C   0  0  0  0  0  0  0  0  0  0  0  0
   -6.6094   -7.9077  -22.6129 O   0  0  0  0  0  0  0  0  0  0  0  0
   -6.6847   -5.7738  -23.4506 N   0  0  0  0  0  0  0  0  0  0  0  0
   -7.2753   -6.1406  -24.7363 C   0  0  0  0  0  0  0  0  0  0  0  0
   -7.2996   -4.8428  -25.5086 C   0  0  0  0  0  0  0  0  0  0  0  0
   -6.0254   -4.2188  -24.9486 C   0  0  0  0  0  0  0  0  0  0  0  0
   -6.5160   -4.3353  -23.4957 C   0  0  0  0  0  0  0  0  0  0  0  0
   -7.8294   -3.7046  -23.6256 C   0  0  0  0  0  0  0  0  0  0  0  0
   -8.7628   -2.9241  -22.9902 C   0  0  0  0  0  0  0  0  0  0  0  0
   -8.6165   -2.4163  -21.7097 O   0  0  0  0  0  0  0  0  0  0  0  0
   -9.7872   -2.7765  -23.8453 N   0  0  0  0  0  0  0  0  0  0  0  0
   -9.5118   -3.4381  -24.9779 C   0  0  0  0  0  0  0  0  0  0  0  0
  -10.2654   -3.5077  -25.9974 O   0  0  0  0  0  0  0  0  0  0  0  0
   -8.2952   -4.0193  -24.8509 N   0  0  0  0  0  0  0  0  0  0  0  0
  -10.9499   -2.0123  -23.5099 C   0  0  0  0  0  0  0  0  0  0  0  0
  -12.0982   -2.6076  -23.0265 C   0  0  0  0  0  0  0  0  0  0  0  0
  -13.2071   -1.9427  -22.6994 N   0  0  0  0  0  0  0  0  0  0  0  0
  -13.1978   -0.5973  -22.8545 C   0  0  0  0  0  0  0  0  0  0  0  0
  -12.1111    0.0973  -23.3267 C   0  0  0  0  0  0  0  0  0  0  0  0
  -12.1105    1.4627  -23.4809 C   0  0  0  0  0  0  0  0  0  0  0  0
  -11.0098    2.1677  -23.9594 C   0  0  0  0  0  0  0  0  0  0  0  0
   -9.8930    1.4202  -24.2799 C   0  0  0  0  0  0  0  0  0  0  0  0
   -9.8705    0.0445  -24.1331 C   0  0  0  0  0  0  0  0  0  0  0  0
  -10.9705   -0.6369  -23.6575 C   0  0  0  0  0  0  0  0  0  0  0  0
  1  2  1  0  0  0
  2  3  2  0  0  0
  2  4  1  0  0  0
  4  5  1  0  0  0
  6  5  1  0  0  0
  6  7  1  0  0  0
  7  8  1  0  0  0
  8  9  1  0  0  0
  8  4  1  0  0  0
  9 10  2  0  0  0
 10 11  1  0  0  0
 10 12  1  0  0  0
 12 16  1  0  0  0
 12 13  1  0  0  0
 16 17  2  0  0  0
 17 18  1  0  0  0
 18 19  2  0  0  0
 19 20  1  0  0  0
 20 21  2  0  0  0
 21 22  1  0  0  0
 22 23  2  0  0  0
 23 24  1  0  0  0
 24 25  2  0  0  0
 25 16  1  0  0  0
 25 20  1  0  0  0
 13 14  2  0  0  0
 13 15  1  0  0  0
 15  9  1  0  0  0
 15  6  1  0  0  0
M  CHG 1  11  -1
M  END
> <minimizedAffinity>
-6.91914

> <CNNscore>
0.3074617386

> <CNNaffinity>
5.2693777084

> <CNN_VS>
1.6201320887

> <CNNaffinity_variance>
0.1506699026

$$$$



 25 29  0  0  0  0  0  0  0  0999 V2000
   -3.5300    1.1273  -19.4968 C   0  0  0  0  0  0  0  0  0  0  0  0
   -3.2586    1.2310  -20.9552 C   0  0  0  0  0  0  0  0  0  0  0  0
   -2.1830    0.8528  -21.4873 O   0  0  0  0  0  0  0  0  0  0  0  0
   -4.2541    1.7840  -21.8108 N   0  0  0  0  0  0  0  0  0  0  0  0
   -4.1196    1.9443  -23.2574 C   0  0  0  0  0  0  0  0  0  0  0  0
   -5.3787    2.6745  -23.6607 C   0  0  0  0  0  0  0  0  0  0  0  0
   -5.5625    3.5242  -22.4074 C   0  0  0  0  0  0  0  0  0  0  0  0
   -5.5697    2.2953  -21.4828 C   0  0  0  0  0  0  0  0  0  0  0  0
   -6.5800    1.4817  -22.1588 C   0  0  0  0  0  0  0  0  0  0  0  0
   -7.5965    0.5783  -21.9719 C   0  0  0  0  0  0  0  0  0  0  0  0
   -8.0031    0.1034  -20.7358 O   0  0  0  0  0  0  0  0  0  0  0  0
   -8.0753    0.2805  -23.1902 N   0  0  0  0  0  0  0  0  0  0  0  0
   -7.3880    0.9693  -24.1119 C   0  0  0  0  0  0  0  0  0  0  0  0
   -7.5803    0.9246  -25.3662 O   0  0  0  0  0  0  0  0  0  0  0  0
   -6.4548    1.7200  -23.4797 N   0  0  0  0  0  0  0  0  0  0  0  0
   -9.1546   -0.6410  -23.3756 C   0  0  0  0  0  0  0  0  0  0  0  0
   -8.9422   -2.0021  -23.4693 C   0  0  0  0  0  0  0  0  0  0  0  0
   -9.9112   -2.9023  -23.6419 N   0  0  0  0  0  0  0  0  0  0  0  0
  -11.1822   -2.4432  -23.7299 C   0  0  0  0  0  0  0  0  0  0  0  0
  -11.5075   -1.1112  -23.6499 C   0  0  0  0  0  0  0  0  0  0  0  0
  -12.8003   -0.6544  -23.7402 C   0  0  0  0  0  0  0  0  0  0  0  0
  -13.1311    0.6953  -23.6592 C   0  0  0  0  0  0  0  0  0  0  0  0
  -12.0816    1.5758  -23.4802 C   0  0  0  0  0  0  0  0  0  0  0  0
  -10.7721    1.1389  -23.3866 C   0  0  0  0  0  0  0  0  0  0  0  0
  -10.4634   -0.2021  -23.4690 C   0  0  0  0  0  0  0  0  0  0  0  0
  1  2  1  0  0  0
  2  3  2  0  0  0
  2  4  1  0  0  0
  4  5  1  0  0  0
  6  5  1  0  0  0
  6  7  1  0  0  0
  7  8  1  0  0  0
  8  9  1  0  0  0
  8  4  1  0  0  0
  9 10  2  0  0  0
 10 11  1  0  0  0
 10 12  1  0  0  0
 12 16  1  0  0  0
 12 13  1  0  0  0
 16 17  2  0  0  0
 17 18  1  0  0  0
 18 19  2  0  0  0
 19 20  1  0  0  0
 20 21  2  0  0  0
 21 22  1  0  0  0
 22 23  2  0  0  0
 23 24  1  0  0  0
 24 25  2  0  0  0
 25 16  1  0  0  0
 25 20  1  0  0  0
 13 14  2  0  0  0
 13 15  1  0  0  0
 15  9  1  0  0  0
 15  6  1  0  0  0
M  CHG 1  11  -1
M  END
> <minimizedAffinity>
-6.91204

> <CNNscore>
0.3025195003

> <CNNaffinity>
5.0535273552

> <CNN_VS>
1.5287905931

> <CNNaffinity_variance>
0.2468935698

$$$$



 20 22  0  0  0  0  0  0  0  0999 V2000
   -6.3627   -2.2237  -21.3232 C   0  0  0  0  0  0  0  0  0  0  0  0
   -5.8938   -1.3408  -20.2267 C   0  0  0  0  0  0  0  0  0  0  0  0
   -6.3967   -1.4157  -18.9350 C   0  0  0  0  0  0  0  0  0  0  0  0
   -5.9767   -0.6249  -17.9478 N   0  0  0  0  0  0  0  0  0  0  0  0
   -5.0278    0.3094  -18.1372 C   0  0  0  0  0  0  0  0  0  0  0  0
   -4.4877    0.4372  -19.3906 C   0  0  0  0  0  0  0  0  0  0  0  0
   -3.5168    1.3858  -19.6068 C   0  0  0  0  0  0  0  0  0  0  0  0
   -2.9602    1.5293  -20.8661 C   0  0  0  0  0  0  0  0  0  0  0  0
   -3.4028    0.7058  -21.8783 C   0  0  0  0  0  0  0  0  0  0  0  0
   -4.3701   -0.2547  -21.7069 C   0  0  0  0  0  0  0  0  0  0  0  0
   -4.9082   -0.3723  -20.4282 C   0  0  0  0  0  0  0  0  0  0  0  0
  -10.3698   -4.8864  -25.7056 C   0  0  0  0  0  0  0  0  0  0  0  0
   -9.6092   -3.8565  -24.9341 C   0  0  0  0  0  0  0  0  0  0  0  0
  -10.4225   -3.3249  -23.7594 C   0  0  0  0  0  0  0  0  0  0  0  0
   -9.6795   -2.0979  -23.2732 C   0  0  0  0  0  0  0  0  0  0  0  0
   -8.4299   -2.5799  -22.7120 N   0  0  0  0  0  0  0  0  0  0  0  0
   -7.6472   -1.7190  -21.8958 C   0  0  0  0  0  0  0  0  0  0  0  0
   -8.0483   -0.5479  -21.6696 O   0  0  0  0  0  0  0  0  0  0  0  0
   -8.0078   -3.9339  -22.9982 C   0  0  0  0  0  0  0  0  0  0  0  0
   -8.2899   -4.3533  -24.4105 C   0  0  0  0  0  0  0  0  0  0  0  0
 12 13  1  0  0  0
 13 14  1  0  0  0
 14 15  1  0  0  0
 15 16  1  0  0  0
 16 17  1  0  0  0
 16 19  1  0  0  0
 17 18  2  0  0  0
 17  1  1  0  0  0
  1  2  1  0  0  0
  2  3  2  0  0  0
  3  4  1  0  0  0
  4  5  2  0  0  0
  5  6  1  0  0  0
  6  7  2  0  0  0
  7  8  1  0  0  0
  8  9  2  0  0  0
  9 10  1  0  0  0
 10 11  2  0  0  0
 11  2  1  0  0  0
 11  6  1  0  0  0
 19 20  1  0  0  0
 20 13  1  0  0  0
M  END
> <minimizedAffinity>
-6.82989

> <CNNscore>
0.7550393939

> <CNNaffinity>
4.9838023186

> <CNN_VS>
3.7629671097

> <CNNaffinity_variance>
0.2454692870

$$$$



 20 22  0  0  0  0  0  0  0  0999 V2000
   -6.5928   -1.7588  -21.5612 C   0  0  0  0  0  0  0  0  0  0  0  0
   -6.0589   -1.0184  -20.3913 C   0  0  0  0  0  0  0  0  0  0  0  0
   -6.6155   -1.1154  -19.1234 C   0  0  0  0  0  0  0  0  0  0  0  0
   -6.1375   -0.4525  -18.0705 N   0  0  0  0  0  0  0  0  0  0  0  0
   -5.0729    0.3640  -18.1652 C   0  0  0  0  0  0  0  0  0  0  0  0
   -4.4742    0.5060  -19.3901 C   0  0  0  0  0  0  0  0  0  0  0  0
   -3.3850    1.3357  -19.5099 C   0  0  0  0  0  0  0  0  0  0  0  0
   -2.7677    1.4915  -20.7391 C   0  0  0  0  0  0  0  0  0  0  0  0
   -3.2713    0.8009  -21.8199 C   0  0  0  0  0  0  0  0  0  0  0  0
   -4.3568   -0.0380  -21.7456 C   0  0  0  0  0  0  0  0  0  0  0  0
   -4.9531   -0.1719  -20.4946 C   0  0  0  0  0  0  0  0  0  0  0  0
   -8.3090   -6.8391  -25.2486 C   0  0  0  0  0  0  0  0  0  0  0  0
   -7.8534   -6.0459  -24.0664 C   0  0  0  0  0  0  0  0  0  0  0  0
   -6.3329   -5.9494  -24.0108 C   0  0  0  0  0  0  0  0  0  0  0  0
   -6.0104   -5.4101  -22.6327 C   0  0  0  0  0  0  0  0  0  0  0  0
   -6.5012   -4.0435  -22.6101 N   0  0  0  0  0  0  0  0  0  0  0  0
   -6.0820   -3.1628  -21.5764 C   0  0  0  0  0  0  0  0  0  0  0  0
   -5.2891   -3.5796  -20.6926 O   0  0  0  0  0  0  0  0  0  0  0  0
   -7.4113   -3.6073  -23.6468 C   0  0  0  0  0  0  0  0  0  0  0  0
   -8.4180   -4.6527  -24.0258 C   0  0  0  0  0  0  0  0  0  0  0  0
 12 13  1  0  0  0
 13 14  1  0  0  0
 14 15  1  0  0  0
 15 16  1  0  0  0
 16 17  1  0  0  0
 16 19  1  0  0  0
 17 18  2  0  0  0
 17  1  1  0  0  0
  1  2  1  0  0  0
  2  3  2  0  0  0
  3  4  1  0  0  0
  4  5  2  0  0  0
  5  6  1  0  0  0
  6  7  2  0  0  0
  7  8  1  0  0  0
  8  9  2  0  0  0
  9 10  1  0  0  0
 10 11  2  0  0  0
 11  2  1  0  0  0
 11  6  1  0  0  0
 19 20  1  0  0  0
 20 13  1  0  0  0
M  END
> <minimizedAffinity>
-7.17418

> <CNNscore>
0.7001585960

> <CNNaffinity>
5.0063486099

> <CNN_VS>
3.5052380562

> <CNNaffinity_variance>
0.2601251006

$$$$



 20 22  0  0  0  0  0  0  0  0999 V2000
   -5.9447   -2.6117  -21.3563 C   0  0  0  0  0  0  0  0  0  0  0  0
   -5.6041   -1.6675  -20.2636 C   0  0  0  0  0  0  0  0  0  0  0  0
   -6.0307   -1.8478  -18.9550 C   0  0  0  0  0  0  0  0  0  0  0  0
   -5.7255   -1.0021  -17.9712 N   0  0  0  0  0  0  0  0  0  0  0  0
   -4.9762    0.0950  -18.1808 C   0  0  0  0  0  0  0  0  0  0  0  0
   -4.5214    0.3340  -19.4517 C   0  0  0  0  0  0  0  0  0  0  0  0
   -3.7542    1.4495  -19.6886 C   0  0  0  0  0  0  0  0  0  0  0  0
   -3.2863    1.7070  -20.9658 C   0  0  0  0  0  0  0  0  0  0  0  0
   -3.6087    0.8252  -21.9742 C   0  0  0  0  0  0  0  0  0  0  0  0
   -4.3719   -0.3010  -21.7824 C   0  0  0  0  0  0  0  0  0  0  0  0
   -4.8256   -0.5297  -20.4862 C   0  0  0  0  0  0  0  0  0  0  0  0
   -7.5455   -1.9283  -27.6271 C   0  0  0  0  0  0  0  0  0  0  0  0
   -7.5115   -1.7071  -26.1491 C   0  0  0  0  0  0  0  0  0  0  0  0
   -8.5843   -2.5237  -25.4373 C   0  0  0  0  0  0  0  0  0  0  0  0
   -8.6432   -1.9748  -24.0269 C   0  0  0  0  0  0  0  0  0  0  0  0
   -7.3828   -2.3347  -23.4018 N   0  0  0  0  0  0  0  0  0  0  0  0
   -7.2455   -2.2398  -21.9903 C   0  0  0  0  0  0  0  0  0  0  0  0
   -8.2201   -1.8444  -21.2994 O   0  0  0  0  0  0  0  0  0  0  0  0
   -6.2891   -2.7845  -24.2353 C   0  0  0  0  0  0  0  0  0  0  0  0
   -6.1811   -2.0274  -25.5257 C   0  0  0  0  0  0  0  0  0  0  0  0
 12 13  1  0  0  0
 13 14  1  0  0  0
 14 15  1  0  0  0
 15 16  1  0  0  0
 16 17  1  0  0  0
 16 19  1  0  0  0
 17 18  2  0  0  0
 17  1  1  0  0  0
  1  2  1  0  0  0
  2  3  2  0  0  0
  3  4  1  0  0  0
  4  5  2  0  0  0
  5  6  1  0  0  0
  6  7  2  0  0  0
  7  8  1  0  0  0
  8  9  2  0  0  0
  9 10  1  0  0  0
 10 11  2  0  0  0
 11  2  1  0  0  0
 11  6  1  0  0  0
 19 20  1  0  0  0
 20 13  1  0  0  0
M  END
> <minimizedAffinity>
-6.27057

> <CNNscore>
0.6484530568

> <CNNaffinity>
4.7180290222

> <CNN_VS>
3.0594203472

> <CNNaffinity_variance>
0.0882550478

$$$$



 20 22  0  0  0  0  0  0  0  0999 V2000
   -9.2826   -2.5907  -22.2289 C   0  0  0  0  0  0  0  0  0  0  0  0
   -9.9018   -1.3884  -22.8394 C   0  0  0  0  0  0  0  0  0  0  0  0
   -9.1545   -0.3347  -23.3475 C   0  0  0  0  0  0  0  0  0  0  0  0
   -9.7078    0.7460  -23.8975 N   0  0  0  0  0  0  0  0  0  0  0  0
  -11.0411    0.8913  -23.9987 C   0  0  0  0  0  0  0  0  0  0  0  0
  -11.8392   -0.1132  -23.5161 C   0  0  0  0  0  0  0  0  0  0  0  0
  -13.2046    0.0145  -23.6088 C   0  0  0  0  0  0  0  0  0  0  0  0
  -14.0262   -0.9898  -23.1266 C   0  0  0  0  0  0  0  0  0  0  0  0
  -13.4422   -2.1018  -22.5603 C   0  0  0  0  0  0  0  0  0  0  0  0
  -12.0835   -2.2709  -22.4471 C   0  0  0  0  0  0  0  0  0  0  0  0
  -11.2868   -1.2421  -22.9424 C   0  0  0  0  0  0  0  0  0  0  0  0
   -4.6139    0.3837  -18.8071 C   0  0  0  0  0  0  0  0  0  0  0  0
   -5.3634   -0.1896  -19.9664 C   0  0  0  0  0  0  0  0  0  0  0  0
   -4.9522   -1.6321  -20.2393 C   0  0  0  0  0  0  0  0  0  0  0  0
   -5.5364   -1.9713  -21.5949 C   0  0  0  0  0  0  0  0  0  0  0  0
   -6.9778   -1.9902  -21.4189 N   0  0  0  0  0  0  0  0  0  0  0  0
   -7.8006   -2.5763  -22.4186 C   0  0  0  0  0  0  0  0  0  0  0  0
   -7.2682   -3.0723  -23.4452 O   0  0  0  0  0  0  0  0  0  0  0  0
   -7.5465   -1.4086  -20.2225 C   0  0  0  0  0  0  0  0  0  0  0  0
   -6.8567   -0.1472  -19.7947 C   0  0  0  0  0  0  0  0  0  0  0  0
 12 13  1  0  0  0
 13 14  1  0  0  0
 14 15  1  0  0  0
 15 16  1  0  0  0
 16 17  1  0  0  0
 16 19  1  0  0  0
 17 18  2  0  0  0
 17  1  1  0  0  0
  1  2  1  0  0  0
  2  3  2  0  0  0
  3  4  1  0  0  0
  4  5  2  0  0  0
  5  6  1  0  0  0
  6  7  2  0  0  0
  7  8  1  0  0  0
  8  9  2  0  0  0
  9 10  1  0  0  0
 10 11  2  0  0  0
 11  2  1  0  0  0
 11  6  1  0  0  0
 19 20  1  0  0  0
 20 13  1  0  0  0
M  END
> <minimizedAffinity>
-5.90451

> <CNNscore>
0.5153919458

> <CNNaffinity>
4.8125123978

> <CNN_VS>
2.4803302288

> <CNNaffinity_variance>
0.1307050884

$$$$



 20 22  0  0  0  0  0  0  0  0999 V2000
   -9.1491   -1.7365  -23.6940 C   0  0  0  0  0  0  0  0  0  0  0  0
  -10.5906   -1.5342  -23.4063 C   0  0  0  0  0  0  0  0  0  0  0  0
  -11.4289   -2.5662  -23.0074 C   0  0  0  0  0  0  0  0  0  0  0  0
  -12.7238   -2.3874  -22.7472 N   0  0  0  0  0  0  0  0  0  0  0  0
  -13.3130   -1.1831  -22.8547 C   0  0  0  0  0  0  0  0  0  0  0  0
  -12.5421   -0.1189  -23.2448 C   0  0  0  0  0  0  0  0  0  0  0  0
  -13.1237    1.1210  -23.3614 C   0  0  0  0  0  0  0  0  0  0  0  0
  -12.3608    2.2072  -23.7543 C   0  0  0  0  0  0  0  0  0  0  0  0
  -11.0234    2.0094  -24.0204 C   0  0  0  0  0  0  0  0  0  0  0  0
  -10.4014    0.7887  -23.9169 C   0  0  0  0  0  0  0  0  0  0  0  0
  -11.1979   -0.2817  -23.5191 C   0  0  0  0  0  0  0  0  0  0  0  0
   -6.0140   -7.4061  -23.0780 C   0  0  0  0  0  0  0  0  0  0  0  0
   -6.5556   -6.1545  -23.6900 C   0  0  0  0  0  0  0  0  0  0  0  0
   -7.9134   -6.3931  -24.3410 C   0  0  0  0  0  0  0  0  0  0  0  0
   -8.1873   -5.1578  -25.1735 C   0  0  0  0  0  0  0  0  0  0  0  0
   -8.3791   -4.0708  -24.2299 N   0  0  0  0  0  0  0  0  0  0  0  0
   -8.9562   -2.8495  -24.6720 C   0  0  0  0  0  0  0  0  0  0  0  0
   -9.2942   -2.7260  -25.8778 O   0  0  0  0  0  0  0  0  0  0  0  0
   -7.9759   -4.2571  -22.8530 C   0  0  0  0  0  0  0  0  0  0  0  0
   -6.6920   -5.0199  -22.7125 C   0  0  0  0  0  0  0  0  0  0  0  0
 12 13  1  0  0  0
 13 14  1  0  0  0
 14 15  1  0  0  0
 15 16  1  0  0  0
 16 17  1  0  0  0
 16 19  1  0  0  0
 17 18  2  0  0  0
 17  1  1  0  0  0
  1  2  1  0  0  0
  2  3  2  0  0  0
  3  4  1  0  0  0
  4  5  2  0  0  0
  5  6  1  0  0  0
  6  7  2  0  0  0
  7  8  1  0  0  0
  8  9  2  0  0  0
  9 10  1  0  0  0
 10 11  2  0  0  0
 11  2  1  0  0  0
 11  6  1  0  0  0
 19 20  1  0  0  0
 20 13  1  0  0  0
M  END
> <minimizedAffinity>
-6.21407

> <CNNscore>
0.4771013260

> <CNNaffinity>
4.8756799698

> <CNN_VS>
2.3261933327

> <CNNaffinity_variance>
0.3101314008

$$$$



 20 22  0  0  0  0  0  0  0  0999 V2000
   -8.0485    0.0204  -23.0494 C   0  0  0  0  0  0  0  0  0  0  0  0
   -9.2480   -0.8528  -23.0319 C   0  0  0  0  0  0  0  0  0  0  0  0
   -9.1739   -2.2272  -22.8523 C   0  0  0  0  0  0  0  0  0  0  0  0
  -10.2495   -3.0140  -22.8349 N   0  0  0  0  0  0  0  0  0  0  0  0
  -11.4928   -2.5255  -22.9919 C   0  0  0  0  0  0  0  0  0  0  0  0
  -11.6384   -1.1747  -23.1740 C   0  0  0  0  0  0  0  0  0  0  0  0
  -12.8999   -0.6540  -23.3369 C   0  0  0  0  0  0  0  0  0  0  0  0
  -13.0660    0.7077  -23.5222 C   0  0  0  0  0  0  0  0  0  0  0  0
  -11.9462    1.5104  -23.5383 C   0  0  0  0  0  0  0  0  0  0  0  0
  -10.6678    1.0329  -23.3796 C   0  0  0  0  0  0  0  0  0  0  0  0
  -10.5370   -0.3409  -23.1952 C   0  0  0  0  0  0  0  0  0  0  0  0
   -1.9261    1.4353  -21.3563 C   0  0  0  0  0  0  0  0  0  0  0  0
   -3.2756    0.7925  -21.3559 C   0  0  0  0  0  0  0  0  0  0  0  0
   -4.2406    1.5196  -20.4261 C   0  0  0  0  0  0  0  0  0  0  0  0
   -5.4359    0.6007  -20.2823 C   0  0  0  0  0  0  0  0  0  0  0  0
   -6.0785    0.5692  -21.5842 N   0  0  0  0  0  0  0  0  0  0  0  0
   -7.3958    0.0493  -21.7058 C   0  0  0  0  0  0  0  0  0  0  0  0
   -7.9891   -0.3776  -20.6814 O   0  0  0  0  0  0  0  0  0  0  0  0
   -5.3588    1.0708  -22.7346 C   0  0  0  0  0  0  0  0  0  0  0  0
   -3.9021    0.7133  -22.7207 C   0  0  0  0  0  0  0  0  0  0  0  0
 12 13  1  0  0  0
 13 14  1  0  0  0
 14 15  1  0  0  0
 15 16  1  0  0  0
 16 17  1  0  0  0
 16 19  1  0  0  0
 17 18  2  0  0  0
 17  1  1  0  0  0
  1  2  1  0  0  0
  2  3  2  0  0  0
  3  4  1  0  0  0
  4  5  2  0  0  0
  5  6  1  0  0  0
  6  7  2  0  0  0
  7  8  1  0  0  0
  8  9  2  0  0  0
  9 10  1  0  0  0
 10 11  2  0  0  0
 11  2  1  0  0  0
 11  6  1  0  0  0
 19 20  1  0  0  0
 20 13  1  0  0  0
M  END
> <minimizedAffinity>
-6.09601

> <CNNscore>
0.3965447545

> <CNNaffinity>
4.6275238991

> <CNN_VS>
1.8350203037

> <CNNaffinity_variance>
0.1037631780

$$$$



 20 22  0  0  0  0  0  0  0  0999 V2000
   -8.0316   -1.0153  -20.7652 C   0  0  0  0  0  0  0  0  0  0  0  0
   -7.8120   -2.1152  -21.7366 C   0  0  0  0  0  0  0  0  0  0  0  0
   -6.5958   -2.7718  -21.8654 C   0  0  0  0  0  0  0  0  0  0  0  0
   -6.3958   -3.7608  -22.7362 N   0  0  0  0  0  0  0  0  0  0  0  0
   -7.3681   -4.1945  -23.5582 C   0  0  0  0  0  0  0  0  0  0  0  0
   -8.5955   -3.5889  -23.4836 C   0  0  0  0  0  0  0  0  0  0  0  0
   -9.6036   -4.0160  -24.3145 C   0  0  0  0  0  0  0  0  0  0  0  0
  -10.8496   -3.4160  -24.2533 C   0  0  0  0  0  0  0  0  0  0  0  0
  -11.0437   -2.3947  -23.3489 C   0  0  0  0  0  0  0  0  0  0  0  0
  -10.0654   -1.9364  -22.5002 C   0  0  0  0  0  0  0  0  0  0  0  0
   -8.8247   -2.5622  -22.5880 C   0  0  0  0  0  0  0  0  0  0  0  0
   -2.2980    1.9916  -21.4262 C   0  0  0  0  0  0  0  0  0  0  0  0
   -3.3210    0.9830  -21.0130 C   0  0  0  0  0  0  0  0  0  0  0  0
   -3.9148    1.3162  -19.6490 C   0  0  0  0  0  0  0  0  0  0  0  0
   -4.6774    0.0782  -19.2248 C   0  0  0  0  0  0  0  0  0  0  0  0
   -5.8021   -0.0341  -20.1366 N   0  0  0  0  0  0  0  0  0  0  0  0
   -6.8791   -0.9061  -19.8207 C   0  0  0  0  0  0  0  0  0  0  0  0
   -6.8438   -1.5706  -18.7527 O   0  0  0  0  0  0  0  0  0  0  0  0
   -5.8005    0.7492  -21.3530 C   0  0  0  0  0  0  0  0  0  0  0  0
   -4.4485    0.8353  -21.9970 C   0  0  0  0  0  0  0  0  0  0  0  0
 12 13  1  0  0  0
 13 14  1  0  0  0
 14 15  1  0  0  0
 15 16  1  0  0  0
 16 17  1  0  0  0
 16 19  1  0  0  0
 17 18  2  0  0  0
 17  1  1  0  0  0
  1  2  1  0  0  0
  2  3  2  0  0  0
  3  4  1  0  0  0
  4  5  2  0  0  0
  5  6  1  0  0  0
  6  7  2  0  0  0
  7  8  1  0  0  0
  8  9  2  0  0  0
  9 10  1  0  0  0
 10 11  2  0  0  0
 11  2  1  0  0  0
 11  6  1  0  0  0
 19 20  1  0  0  0
 20 13  1  0  0  0
M  END
> <minimizedAffinity>
-6.23888

> <CNNscore>
0.3951655626

> <CNNaffinity>
4.7114763260

> <CNN_VS>
1.8618131876

> <CNNaffinity_variance>
0.4208606184

$$$$



 20 22  0  0  0  0  0  0  0  0999 V2000
   -7.7521   -0.3109  -21.9469 C   0  0  0  0  0  0  0  0  0  0  0  0
   -6.9223   -0.3674  -20.7181 C   0  0  0  0  0  0  0  0  0  0  0  0
   -7.2342   -1.1817  -19.6381 C   0  0  0  0  0  0  0  0  0  0  0  0
   -6.4903   -1.2355  -18.5335 N   0  0  0  0  0  0  0  0  0  0  0  0
   -5.3755   -0.4972  -18.3880 C   0  0  0  0  0  0  0  0  0  0  0  0
   -5.0090    0.3299  -19.4178 C   0  0  0  0  0  0  0  0  0  0  0  0
   -3.8735    1.0937  -19.2904 C   0  0  0  0  0  0  0  0  0  0  0  0
   -3.4882    1.9349  -20.3201 C   0  0  0  0  0  0  0  0  0  0  0  0
   -4.2656    1.9816  -21.4567 C   0  0  0  0  0  0  0  0  0  0  0  0
   -5.4072    1.2363  -21.6265 C   0  0  0  0  0  0  0  0  0  0  0  0
   -5.7655    0.4010  -20.5718 C   0  0  0  0  0  0  0  0  0  0  0  0
   -5.9834   -5.4905  -25.4676 C   0  0  0  0  0  0  0  0  0  0  0  0
   -6.8437   -4.4523  -24.8222 C   0  0  0  0  0  0  0  0  0  0  0  0
   -7.3476   -4.9130  -23.4591 C   0  0  0  0  0  0  0  0  0  0  0  0
   -8.4322   -3.9286  -23.0733 C   0  0  0  0  0  0  0  0  0  0  0  0
   -7.7626   -2.6601  -22.8470 N   0  0  0  0  0  0  0  0  0  0  0  0
   -8.4490   -1.6127  -22.1747 C   0  0  0  0  0  0  0  0  0  0  0  0
   -9.6304   -1.7990  -21.7834 O   0  0  0  0  0  0  0  0  0  0  0  0
   -6.4037   -2.4904  -23.3138 C   0  0  0  0  0  0  0  0  0  0  0  0
   -6.1554   -3.1266  -24.6494 C   0  0  0  0  0  0  0  0  0  0  0  0
 12 13  1  0  0  0
 13 14  1  0  0  0
 14 15  1  0  0  0
 15 16  1  0  0  0
 16 17  1  0  0  0
 16 19  1  0  0  0
 17 18  2  0  0  0
 17  1  1  0  0  0
  1  2  1  0  0  0
  2  3  2  0  0  0
  3  4  1  0  0  0
  4  5  2  0  0  0
  5  6  1  0  0  0
  6  7  2  0  0  0
  7  8  1  0  0  0
  8  9  2  0  0  0
  9 10  1  0  0  0
 10 11  2  0  0  0
 11  2  1  0  0  0
 11  6  1  0  0  0
 19 20  1  0  0  0
 20 13  1  0  0  0
M  END
> <minimizedAffinity>
-6.31711

> <CNNscore>
0.3460335732

> <CNNaffinity>
4.7948098183

> <CNN_VS>
1.6591651440

> <CNNaffinity_variance>
0.1820496619

$$$$



 20 22  0  0  0  0  0  0  0  0999 V2000
   -6.7179   -1.5784  -21.9016 C   0  0  0  0  0  0  0  0  0  0  0  0
   -6.1796   -0.9746  -20.6577 C   0  0  0  0  0  0  0  0  0  0  0  0
   -6.7460   -1.1953  -19.4097 C   0  0  0  0  0  0  0  0  0  0  0  0
   -6.2641   -0.6553  -18.2905 N   0  0  0  0  0  0  0  0  0  0  0  0
   -5.1857    0.1485  -18.2934 C   0  0  0  0  0  0  0  0  0  0  0  0
   -4.5768    0.4087  -19.4937 C   0  0  0  0  0  0  0  0  0  0  0  0
   -3.4733    1.2277  -19.5200 C   0  0  0  0  0  0  0  0  0  0  0  0
   -2.8456    1.5018  -20.7230 C   0  0  0  0  0  0  0  0  0  0  0  0
   -3.3533    0.9376  -21.8730 C   0  0  0  0  0  0  0  0  0  0  0  0
   -4.4528    0.1140  -21.8928 C   0  0  0  0  0  0  0  0  0  0  0  0
   -5.0594   -0.1408  -20.6658 C   0  0  0  0  0  0  0  0  0  0  0  0
   -9.8057    3.4431  -24.6589 C   0  0  0  0  0  0  0  0  0  0  0  0
   -9.4958    2.3244  -23.7172 C   0  0  0  0  0  0  0  0  0  0  0  0
  -10.1459    1.0203  -24.1656 C   0  0  0  0  0  0  0  0  0  0  0  0
  -10.0194    0.0773  -22.9871 C   0  0  0  0  0  0  0  0  0  0  0  0
   -8.6019   -0.2065  -22.8489 N   0  0  0  0  0  0  0  0  0  0  0  0
   -8.1784   -1.2944  -22.0382 C   0  0  0  0  0  0  0  0  0  0  0  0
   -9.0391   -1.9990  -21.4498 O   0  0  0  0  0  0  0  0  0  0  0  0
   -7.6475    0.6297  -23.5439 C   0  0  0  0  0  0  0  0  0  0  0  0
   -8.0224    2.0821  -23.5386 C   0  0  0  0  0  0  0  0  0  0  0  0
 12 13  1  0  0  0
 13 14  1  0  0  0
 14 15  1  0  0  0
 15 16  1  0  0  0
 16 17  1  0  0  0
 16 19  1  0  0  0
 17 18  2  0  0  0
 17  1  1  0  0  0
  1  2  1  0  0  0
  2  3  2  0  0  0
  3  4  1  0  0  0
  4  5  2  0  0  0
  5  6  1  0  0  0
  6  7  2  0  0  0
  7  8  1  0  0  0
  8  9  2  0  0  0
  9 10  1  0  0  0
 10 11  2  0  0  0
 11  2  1  0  0  0
 11  6  1  0  0  0
 19 20  1  0  0  0
 20 13  1  0  0  0
M  END
> <minimizedAffinity>
-6.22432

> <CNNscore>
0.3125654757

> <CNNaffinity>
4.4272933006

> <CNN_VS>
1.3838189840

> <CNNaffinity_variance>
0.1392887235

$$$$



 40 44  0  0  0  0  0  0  0  0999 V2000
   -6.5385   -4.8195  -23.1327 N   0  0  0  0  0  0  0  0  0  0  0  0
   -6.1541   -3.4668  -23.4112 C   0  0  0  0  0  0  0  0  0  0  0  0
   -7.2742   -2.5123  -23.1483 C   0  0  0  0  0  0  0  0  0  0  0  0
   -7.0195   -1.1768  -23.7522 C   0  0  0  0  0  0  0  0  0  0  0  0
   -6.4159   -1.0072  -24.8280 O   0  0  0  0  0  0  0  0  0  0  0  0
   -7.5461   -0.1445  -22.9538 N   0  0  0  0  0  0  0  0  0  0  0  0
   -8.0355   -0.7665  -21.7513 C   0  0  0  0  0  0  0  0  0  0  0  0
   -7.4922   -2.1582  -21.7041 C   0  0  0  0  0  0  0  0  0  0  0  0
   -8.5191   -2.9981  -23.7999 C   0  0  0  0  0  0  0  0  0  0  0  0
   -9.5202   -2.1118  -24.2267 C   0  0  0  0  0  0  0  0  0  0  0  0
  -10.6934   -2.5586  -24.7916 C   0  0  0  0  0  0  0  0  0  0  0  0
  -11.6435   -1.6513  -25.1931 F   0  0  0  0  0  0  0  0  0  0  0  0
  -10.9470   -3.9015  -24.9688 C   0  0  0  0  0  0  0  0  0  0  0  0
   -9.9756   -4.7898  -24.5580 C   0  0  0  0  0  0  0  0  0  0  0  0
   -8.8147   -4.3283  -23.9991 C   0  0  0  0  0  0  0  0  0  0  0  0
   -7.7893   -5.2953  -23.6517 C   0  0  0  0  0  0  0  0  0  0  0  0
   -7.9843   -6.5239  -23.7993 O   0  0  0  0  0  0  0  0  0  0  0  0
   -7.6411    1.2627  -23.1947 C   0  0  0  0  0  0  0  0  0  0  0  0
   -6.5306    2.1021  -23.1175 C   0  0  0  0  0  0  0  0  0  0  0  0
   -6.6098    3.4283  -23.3367 N   0  0  0  0  0  0  0  0  0  0  0  0
   -7.7671    4.0030  -23.6410 C   0  0  0  0  0  0  0  0  0  0  0  0
   -8.9189    3.2567  -23.7403 C   0  0  0  0  0  0  0  0  0  0  0  0
  -10.1176    3.8694  -24.0559 C   0  0  0  0  0  0  0  0  0  0  0  0
  -11.2779    3.1233  -24.1543 C   0  0  0  0  0  0  0  0  0  0  0  0
  -11.2174    1.7591  -23.9320 C   0  0  0  0  0  0  0  0  0  0  0  0
  -10.0063    1.1816  -23.6196 C   0  0  0  0  0  0  0  0  0  0  0  0
   -8.8315    1.8868  -23.5125 C   0  0  0  0  0  0  0  0  0  0  0  0
   -5.7633   -5.7784  -22.3819 C   0  0  0  0  0  0  0  0  0  0  0  0
   -4.1242   -7.6503  -25.3537 C   0  0  0  0  0  0  0  0  0  0  0  0
   -5.1633   -6.9908  -24.5609 N   0  0  0  0  0  0  0  0  0  0  0  0
   -4.8126   -6.4798  -23.3070 C   0  0  0  0  0  0  0  0  0  0  0  0
   -3.6232   -6.6041  -22.9023 O   0  0  0  0  0  0  0  0  0  0  0  0
   -6.0836   -6.9092  -24.9009 H   0  0  0  0  0  0  0  0  0  0  0  0
   -6.2066   -2.1808  -20.9542 C   0  0  0  0  0  0  0  0  0  0  0  0
   -6.2073   -1.5653  -19.3197 S   0  0  0  0  0  0  0  0  0  0  0  0
   -7.5610   -1.4314  -18.7565 O   0  0  0  0  0  0  0  0  0  0  0  0
   -5.3124   -2.3265  -18.3927 O   0  0  0  0  0  0  0  0  0  0  0  0
   -5.5009    0.0438  -19.4152 N   0  0  0  0  0  0  0  0  0  0  0  0
   -4.4923    0.0352  -20.4637 C   0  0  0  0  0  0  0  0  0  0  0  0
   -4.9093    0.3726  -18.1306 C   0  0  0  0  0  0  0  0  0  0  0  0
 29 30  1  0  0  0
 30 31  1  0  0  0
 30 33  1  0  0  0
 31 32  2  0  0  0
 31 28  1  0  0  0
 28  1  1  0  0  0
  1  2  1  0  0  0
  3  2  1  0  0  0
  3  4  1  0  0  0
  3  9  1  0  0  0
  4  5  2  0  0  0
  4  6  1  0  0  0
  6 18  1  0  0  0
  6  7  1  0  0  0
 18 19  2  0  0  0
 19 20  1  0  0  0
 20 21  2  0  0  0
 21 22  1  0  0  0
 22 23  2  0  0  0
 23 24  1  0  0  0
 24 25  2  0  0  0
 25 26  1  0  0  0
 26 27  2  0  0  0
 27 18  1  0  0  0
 27 22  1  0  0  0
  7  8  1  0  0  0
  8 34  1  0  0  0
  8  3  1  0  0  0
 34 35  1  0  0  0
 35 36  2  0  0  0
 35 37  2  0  0  0
 35 38  1  0  0  0
 38 39  1  0  0  0
 38 40  1  0  0  0
  9 10  2  0  0  0
 10 11  1  0  0  0
 11 12  1  0  0  0
 11 13  2  0  0  0
 13 14  1  0  0  0
 14 15  2  0  0  0
 15 16  1  0  0  0
 15  9  1  0  0  0
 16 17  2  0  0  0
 16  1  1  0  0  0
M  END
> <minimizedAffinity>
-6.78680

> <CNNscore>
0.4851167202

> <CNNaffinity>
6.6313705444

> <CNN_VS>
3.2169888020

> <CNNaffinity_variance>
0.1416522712

$$$$



 40 44  0  0  0  0  0  0  0  0999 V2000
   -8.5819   -3.1333  -25.8045 N   0  0  0  0  0  0  0  0  0  0  0  0
   -7.9808   -3.2323  -24.5068 C   0  0  0  0  0  0  0  0  0  0  0  0
   -7.7280   -1.8834  -23.9142 C   0  0  0  0  0  0  0  0  0  0  0  0
   -6.8040   -1.9521  -22.7503 C   0  0  0  0  0  0  0  0  0  0  0  0
   -5.8592   -2.7583  -22.6631 O   0  0  0  0  0  0  0  0  0  0  0  0
   -7.1378   -0.9952  -21.7739 N   0  0  0  0  0  0  0  0  0  0  0  0
   -8.3601   -0.3733  -22.2115 C   0  0  0  0  0  0  0  0  0  0  0  0
   -8.9290   -1.2100  -23.3118 C   0  0  0  0  0  0  0  0  0  0  0  0
   -7.0367   -1.0153  -24.9035 C   0  0  0  0  0  0  0  0  0  0  0  0
   -6.1824    0.0230  -24.5012 C   0  0  0  0  0  0  0  0  0  0  0  0
   -5.5734    0.8569  -25.4117 C   0  0  0  0  0  0  0  0  0  0  0  0
   -4.7458    1.8595  -24.9680 F   0  0  0  0  0  0  0  0  0  0  0  0
   -5.7701    0.7155  -26.7682 C   0  0  0  0  0  0  0  0  0  0  0  0
   -6.6046   -0.2998  -27.1856 C   0  0  0  0  0  0  0  0  0  0  0  0
   -7.2012   -1.1202  -26.2669 C   0  0  0  0  0  0  0  0  0  0  0  0
   -8.0103   -2.2221  -26.7549 C   0  0  0  0  0  0  0  0  0  0  0  0
   -8.2107   -2.3820  -27.9811 O   0  0  0  0  0  0  0  0  0  0  0  0
   -6.4664   -0.6240  -20.5661 C   0  0  0  0  0  0  0  0  0  0  0  0
   -6.9175   -1.0366  -19.3131 C   0  0  0  0  0  0  0  0  0  0  0  0
   -6.2966   -0.6885  -18.1702 N   0  0  0  0  0  0  0  0  0  0  0  0
   -5.2105    0.0746  -18.1872 C   0  0  0  0  0  0  0  0  0  0  0  0
   -4.6897    0.5311  -19.3763 C   0  0  0  0  0  0  0  0  0  0  0  0
   -3.5589    1.3269  -19.3784 C   0  0  0  0  0  0  0  0  0  0  0  0
   -3.0337    1.7898  -20.5712 C   0  0  0  0  0  0  0  0  0  0  0  0
   -3.6577    1.4435  -21.7564 C   0  0  0  0  0  0  0  0  0  0  0  0
   -4.7824    0.6490  -21.7174 C   0  0  0  0  0  0  0  0  0  0  0  0
   -5.3353    0.1686  -20.5544 C   0  0  0  0  0  0  0  0  0  0  0  0
   -9.7192   -3.8930  -26.2668 C   0  0  0  0  0  0  0  0  0  0  0  0
   -8.3314   -6.8007  -28.4210 C   0  0  0  0  0  0  0  0  0  0  0  0
   -8.7521   -5.4444  -28.0656 N   0  0  0  0  0  0  0  0  0  0  0  0
   -9.2511   -5.2240  -26.7777 C   0  0  0  0  0  0  0  0  0  0  0  0
   -9.3237   -6.1928  -25.9714 O   0  0  0  0  0  0  0  0  0  0  0  0
   -8.6857   -4.7076  -28.7152 H   0  0  0  0  0  0  0  0  0  0  0  0
   -9.8746   -2.2151  -22.7542 C   0  0  0  0  0  0  0  0  0  0  0  0
  -11.4468   -2.3555  -23.5018 S   0  0  0  0  0  0  0  0  0  0  0  0
  -11.5330   -1.6561  -24.7945 O   0  0  0  0  0  0  0  0  0  0  0  0
  -11.9294   -3.7670  -23.6213 O   0  0  0  0  0  0  0  0  0  0  0  0
  -12.5734   -1.5815  -22.3932 N   0  0  0  0  0  0  0  0  0  0  0  0
  -13.5500   -2.5742  -21.9721 C   0  0  0  0  0  0  0  0  0  0  0  0
  -13.2206   -0.4770  -23.0785 C   0  0  0  0  0  0  0  0  0  0  0  0
 29 30  1  0  0  0
 30 31  1  0  0  0
 30 33  1  0  0  0
 31 32  2  0  0  0
 31 28  1  0  0  0
 28  1  1  0  0  0
  1  2  1  0  0  0
  3  2  1  0  0  0
  3  4  1  0  0  0
  3  9  1  0  0  0
  4  5  2  0  0  0
  4  6  1  0  0  0
  6 18  1  0  0  0
  6  7  1  0  0  0
 18 19  2  0  0  0
 19 20  1  0  0  0
 20 21  2  0  0  0
 21 22  1  0  0  0
 22 23  2  0  0  0
 23 24  1  0  0  0
 24 25  2  0  0  0
 25 26  1  0  0  0
 26 27  2  0  0  0
 27 18  1  0  0  0
 27 22  1  0  0  0
  7  8  1  0  0  0
  8 34  1  0  0  0
  8  3  1  0  0  0
 34 35  1  0  0  0
 35 36  2  0  0  0
 35 37  2  0  0  0
 35 38  1  0  0  0
 38 39  1  0  0  0
 38 40  1  0  0  0
  9 10  2  0  0  0
 10 11  1  0  0  0
 11 12  1  0  0  0
 11 13  2  0  0  0
 13 14  1  0  0  0
 14 15  2  0  0  0
 15 16  1  0  0  0
 15  9  1  0  0  0
 16 17  2  0  0  0
 16  1  1  0  0  0
M  END
> <minimizedAffinity>
-8.25597

> <CNNscore>
0.4248987138

> <CNNaffinity>
6.5635604858

> <CNN_VS>
2.7888484001

> <CNNaffinity_variance>
0.1635956019

$$$$



 40 44  0  0  0  0  0  0  0  0999 V2000
   -7.5210   -2.5155  -24.2221 N   0  0  0  0  0  0  0  0  0  0  0  0
   -7.6163   -1.1915  -24.7634 C   0  0  0  0  0  0  0  0  0  0  0  0
   -8.4973   -0.3188  -23.9285 C   0  0  0  0  0  0  0  0  0  0  0  0
   -8.8861    0.9258  -24.6447 C   0  0  0  0  0  0  0  0  0  0  0  0
   -9.0867    0.9843  -25.8722 O   0  0  0  0  0  0  0  0  0  0  0  0
   -8.9951    2.0139  -23.7590 N   0  0  0  0  0  0  0  0  0  0  0  0
   -8.5524    1.5410  -22.4735 C   0  0  0  0  0  0  0  0  0  0  0  0
   -7.8629    0.2312  -22.6821 C   0  0  0  0  0  0  0  0  0  0  0  0
   -9.7795   -1.0154  -23.6439 C   0  0  0  0  0  0  0  0  0  0  0  0
  -10.9689   -0.3049  -23.4198 C   0  0  0  0  0  0  0  0  0  0  0  0
  -12.1497   -0.9429  -23.1136 C   0  0  0  0  0  0  0  0  0  0  0  0
  -13.2876   -0.2029  -22.9023 F   0  0  0  0  0  0  0  0  0  0  0  0
  -12.2266   -2.3150  -23.0114 C   0  0  0  0  0  0  0  0  0  0  0  0
  -11.0697   -3.0329  -23.2297 C   0  0  0  0  0  0  0  0  0  0  0  0
   -9.9046   -2.3825  -23.5339 C   0  0  0  0  0  0  0  0  0  0  0  0
   -8.7301   -3.1824  -23.8303 C   0  0  0  0  0  0  0  0  0  0  0  0
   -8.7627   -4.4320  -23.7481 O   0  0  0  0  0  0  0  0  0  0  0  0
   -9.4522    3.3517  -23.9794 C   0  0  0  0  0  0  0  0  0  0  0  0
   -8.5690    4.4070  -24.2031 C   0  0  0  0  0  0  0  0  0  0  0  0
   -8.9882    5.6703  -24.4060 N   0  0  0  0  0  0  0  0  0  0  0  0
  -10.2813    5.9706  -24.4020 C   0  0  0  0  0  0  0  0  0  0  0  0
  -11.2294    4.9961  -24.1898 C   0  0  0  0  0  0  0  0  0  0  0  0
  -12.5727    5.3241  -24.1863 C   0  0  0  0  0  0  0  0  0  0  0  0
  -13.5286    4.3481  -23.9709 C   0  0  0  0  0  0  0  0  0  0  0  0
  -13.1179    3.0440  -23.7598 C   0  0  0  0  0  0  0  0  0  0  0  0
  -11.7715    2.7527  -23.7700 C   0  0  0  0  0  0  0  0  0  0  0  0
  -10.7908    3.6923  -23.9804 C   0  0  0  0  0  0  0  0  0  0  0  0
   -6.3020   -3.2691  -24.0480 C   0  0  0  0  0  0  0  0  0  0  0  0
   -5.3903   -2.7711  -20.3140 C   0  0  0  0  0  0  0  0  0  0  0  0
   -5.6029   -2.4397  -21.7240 N   0  0  0  0  0  0  0  0  0  0  0  0
   -6.0392   -3.4542  -22.5823 C   0  0  0  0  0  0  0  0  0  0  0  0
   -6.2320   -4.6125  -22.1184 O   0  0  0  0  0  0  0  0  0  0  0  0
   -5.4433   -1.5277  -22.0589 H   0  0  0  0  0  0  0  0  0  0  0  0
   -6.4039    0.4468  -22.8822 C   0  0  0  0  0  0  0  0  0  0  0  0
   -5.4682    1.0002  -21.5151 S   0  0  0  0  0  0  0  0  0  0  0  0
   -5.3531    2.4667  -21.4532 O   0  0  0  0  0  0  0  0  0  0  0  0
   -5.9320    0.4418  -20.2064 O   0  0  0  0  0  0  0  0  0  0  0  0
   -3.8525    0.3412  -21.7443 N   0  0  0  0  0  0  0  0  0  0  0  0
   -2.9140    1.1745  -21.0083 C   0  0  0  0  0  0  0  0  0  0  0  0
   -3.5432    0.3421  -23.1629 C   0  0  0  0  0  0  0  0  0  0  0  0
 29 30  1  0  0  0
 30 31  1  0  0  0
 30 33  1  0  0  0
 31 32  2  0  0  0
 31 28  1  0  0  0
 28  1  1  0  0  0
  1  2  1  0  0  0
  3  2  1  0  0  0
  3  4  1  0  0  0
  3  9  1  0  0  0
  4  5  2  0  0  0
  4  6  1  0  0  0
  6 18  1  0  0  0
  6  7  1  0  0  0
 18 19  2  0  0  0
 19 20  1  0  0  0
 20 21  2  0  0  0
 21 22  1  0  0  0
 22 23  2  0  0  0
 23 24  1  0  0  0
 24 25  2  0  0  0
 25 26  1  0  0  0
 26 27  2  0  0  0
 27 18  1  0  0  0
 27 22  1  0  0  0
  7  8  1  0  0  0
  8 34  1  0  0  0
  8  3  1  0  0  0
 34 35  1  0  0  0
 35 36  2  0  0  0
 35 37  2  0  0  0
 35 38  1  0  0  0
 38 39  1  0  0  0
 38 40  1  0  0  0
  9 10  2  0  0  0
 10 11  1  0  0  0
 11 12  1  0  0  0
 11 13  2  0  0  0
 13 14  1  0  0  0
 14 15  2  0  0  0
 15 16  1  0  0  0
 15  9  1  0  0  0
 16 17  2  0  0  0
 16  1  1  0  0  0
M  END
> <minimizedAffinity>
-7.79659

> <CNNscore>
0.2914207876

> <CNNaffinity>
6.3355336189

> <CNN_VS>
1.8463062048

> <CNNaffinity_variance>
0.2368159592

$$$$



 40 44  0  0  0  0  0  0  0  0999 V2000
   -7.0805    1.4481  -23.1296 N   0  0  0  0  0  0  0  0  0  0  0  0
   -7.0656    0.2120  -23.8557 C   0  0  0  0  0  0  0  0  0  0  0  0
   -7.3525   -0.9525  -22.9634 C   0  0  0  0  0  0  0  0  0  0  0  0
   -7.0013   -2.2464  -23.6081 C   0  0  0  0  0  0  0  0  0  0  0  0
   -6.0395   -2.3942  -24.3850 O   0  0  0  0  0  0  0  0  0  0  0  0
   -7.8914   -3.2674  -23.2265 N   0  0  0  0  0  0  0  0  0  0  0  0
   -8.9179   -2.6407  -22.4353 C   0  0  0  0  0  0  0  0  0  0  0  0
   -8.8019   -1.1627  -22.6258 C   0  0  0  0  0  0  0  0  0  0  0  0
   -6.4987   -0.8840  -21.7482 C   0  0  0  0  0  0  0  0  0  0  0  0
   -6.1112   -2.0412  -21.0550 C   0  0  0  0  0  0  0  0  0  0  0  0
   -5.3565   -1.9809  -19.9052 C   0  0  0  0  0  0  0  0  0  0  0  0
   -5.0029   -3.1422  -19.2622 F   0  0  0  0  0  0  0  0  0  0  0  0
   -4.9405   -0.7795  -19.3737 C   0  0  0  0  0  0  0  0  0  0  0  0
   -5.3086    0.3701  -20.0402 C   0  0  0  0  0  0  0  0  0  0  0  0
   -6.0584    0.2919  -21.1825 C   0  0  0  0  0  0  0  0  0  0  0  0
   -6.3577    1.5225  -21.8918 C   0  0  0  0  0  0  0  0  0  0  0  0
   -5.9953    2.6329  -21.4390 O   0  0  0  0  0  0  0  0  0  0  0  0
   -7.8693   -4.6719  -23.4989 C   0  0  0  0  0  0  0  0  0  0  0  0
   -7.2765   -5.5844  -22.6273 C   0  0  0  0  0  0  0  0  0  0  0  0
   -7.2452   -6.9072  -22.8766 N   0  0  0  0  0  0  0  0  0  0  0  0
   -7.7863   -7.4079  -23.9806 C   0  0  0  0  0  0  0  0  0  0  0  0
   -8.3946   -6.5859  -24.9014 C   0  0  0  0  0  0  0  0  0  0  0  0
   -8.9521   -7.1214  -26.0479 C   0  0  0  0  0  0  0  0  0  0  0  0
   -9.5622   -6.2985  -26.9771 C   0  0  0  0  0  0  0  0  0  0  0  0
   -9.6041   -4.9363  -26.7393 C   0  0  0  0  0  0  0  0  0  0  0  0
   -9.0388   -4.4368  -25.5866 C   0  0  0  0  0  0  0  0  0  0  0  0
   -8.4240   -5.2198  -24.6390 C   0  0  0  0  0  0  0  0  0  0  0  0
   -7.7493    2.6594  -23.5415 C   0  0  0  0  0  0  0  0  0  0  0  0
   -5.0854    4.7929  -25.3781 C   0  0  0  0  0  0  0  0  0  0  0  0
   -5.8087    4.1708  -24.2678 N   0  0  0  0  0  0  0  0  0  0  0  0
   -6.9110    3.3637  -24.5676 C   0  0  0  0  0  0  0  0  0  0  0  0
   -7.2447    3.2006  -25.7742 O   0  0  0  0  0  0  0  0  0  0  0  0
   -5.5271    4.3165  -23.3358 H   0  0  0  0  0  0  0  0  0  0  0  0
   -9.6754   -0.7208  -23.7470 C   0  0  0  0  0  0  0  0  0  0  0  0
  -11.2923   -1.3764  -23.8257 S   0  0  0  0  0  0  0  0  0  0  0  0
  -11.4690   -2.3398  -24.9250 O   0  0  0  0  0  0  0  0  0  0  0  0
  -11.7706   -1.9482  -22.5280 O   0  0  0  0  0  0  0  0  0  0  0  0
  -12.3495   -0.0039  -24.1356 N   0  0  0  0  0  0  0  0  0  0  0  0
  -11.7246    1.1854  -23.5772 C   0  0  0  0  0  0  0  0  0  0  0  0
  -13.6365   -0.2538  -23.5116 C   0  0  0  0  0  0  0  0  0  0  0  0
 29 30  1  0  0  0
 30 31  1  0  0  0
 30 33  1  0  0  0
 31 32  2  0  0  0
 31 28  1  0  0  0
 28  1  1  0  0  0
  1  2  1  0  0  0
  3  2  1  0  0  0
  3  4  1  0  0  0
  3  9  1  0  0  0
  4  5  2  0  0  0
  4  6  1  0  0  0
  6 18  1  0  0  0
  6  7  1  0  0  0
 18 19  2  0  0  0
 19 20  1  0  0  0
 20 21  2  0  0  0
 21 22  1  0  0  0
 22 23  2  0  0  0
 23 24  1  0  0  0
 24 25  2  0  0  0
 25 26  1  0  0  0
 26 27  2  0  0  0
 27 18  1  0  0  0
 27 22  1  0  0  0
  7  8  1  0  0  0
  8 34  1  0  0  0
  8  3  1  0  0  0
 34 35  1  0  0  0
 35 36  2  0  0  0
 35 37  2  0  0  0
 35 38  1  0  0  0
 38 39  1  0  0  0
 38 40  1  0  0  0
  9 10  2  0  0  0
 10 11  1  0  0  0
 11 12  1  0  0  0
 11 13  2  0  0  0
 13 14  1  0  0  0
 14 15  2  0  0  0
 15 16  1  0  0  0
 15  9  1  0  0  0
 16 17  2  0  0  0
 16  1  1  0  0  0
M  END
> <minimizedAffinity>
-7.65541

> <CNNscore>
0.2766446173

> <CNNaffinity>
6.5620574951

> <CNN_VS>
1.8153579235

> <CNNaffinity_variance>
0.0325943045

$$$$



 40 44  0  0  0  0  0  0  0  0999 V2000
   -7.5059   -2.5258  -24.1434 N   0  0  0  0  0  0  0  0  0  0  0  0
   -7.5998   -1.2067  -24.6970 C   0  0  0  0  0  0  0  0  0  0  0  0
   -8.5269   -0.3429  -23.9039 C   0  0  0  0  0  0  0  0  0  0  0  0
   -8.9057    0.8911  -24.6435 C   0  0  0  0  0  0  0  0  0  0  0  0
   -9.0578    0.9390  -25.8784 O   0  0  0  0  0  0  0  0  0  0  0  0
   -9.0669    1.9828  -23.7702 N   0  0  0  0  0  0  0  0  0  0  0  0
   -8.6690    1.5246  -22.4648 C   0  0  0  0  0  0  0  0  0  0  0  0
   -7.9516    0.2246  -22.6368 C   0  0  0  0  0  0  0  0  0  0  0  0
   -9.8086   -1.0577  -23.6662 C   0  0  0  0  0  0  0  0  0  0  0  0
  -11.0169   -0.3644  -23.4947 C   0  0  0  0  0  0  0  0  0  0  0  0
  -12.1991   -1.0190  -23.2318 C   0  0  0  0  0  0  0  0  0  0  0  0
  -13.3557   -0.2955  -23.0712 F   0  0  0  0  0  0  0  0  0  0  0  0
  -12.2589   -2.3914  -23.1235 C   0  0  0  0  0  0  0  0  0  0  0  0
  -11.0833   -3.0925  -23.2904 C   0  0  0  0  0  0  0  0  0  0  0  0
   -9.9170   -2.4259  -23.5522 C   0  0  0  0  0  0  0  0  0  0  0  0
   -8.7195   -3.2091  -23.7959 C   0  0  0  0  0  0  0  0  0  0  0  0
   -8.7361   -4.4585  -23.7067 O   0  0  0  0  0  0  0  0  0  0  0  0
   -9.5353    3.3119  -24.0176 C   0  0  0  0  0  0  0  0  0  0  0  0
   -8.6605    4.3734  -24.2446 C   0  0  0  0  0  0  0  0  0  0  0  0
   -9.0904    5.6288  -24.4729 N   0  0  0  0  0  0  0  0  0  0  0  0
  -10.3866    5.9147  -24.4924 C   0  0  0  0  0  0  0  0  0  0  0  0
  -11.3271    4.9330  -24.2789 C   0  0  0  0  0  0  0  0  0  0  0  0
  -12.6737    5.2461  -24.3001 C   0  0  0  0  0  0  0  0  0  0  0  0
  -13.6220    4.2629  -24.0835 C   0  0  0  0  0  0  0  0  0  0  0  0
  -13.2003    2.9667  -23.8466 C   0  0  0  0  0  0  0  0  0  0  0  0
  -11.8507    2.6904  -23.8327 C   0  0  0  0  0  0  0  0  0  0  0  0
  -10.8774    3.6375  -24.0433 C   0  0  0  0  0  0  0  0  0  0  0  0
   -6.2835   -3.2592  -23.9156 C   0  0  0  0  0  0  0  0  0  0  0  0
   -5.7487   -5.5336  -27.0080 C   0  0  0  0  0  0  0  0  0  0  0  0
   -6.2957   -5.0702  -25.7316 N   0  0  0  0  0  0  0  0  0  0  0  0
   -5.8201   -3.8633  -25.2086 C   0  0  0  0  0  0  0  0  0  0  0  0
   -4.9415   -3.2194  -25.8469 O   0  0  0  0  0  0  0  0  0  0  0  0
   -6.9795   -5.5936  -25.2545 H   0  0  0  0  0  0  0  0  0  0  0  0
   -6.4892    0.4618  -22.7798 C   0  0  0  0  0  0  0  0  0  0  0  0
   -5.4508   -0.0464  -21.4706 S   0  0  0  0  0  0  0  0  0  0  0  0
   -4.1967   -0.6607  -21.9370 O   0  0  0  0  0  0  0  0  0  0  0  0
   -5.1809    1.0308  -20.4674 O   0  0  0  0  0  0  0  0  0  0  0  0
   -6.3571   -1.2716  -20.5903 N   0  0  0  0  0  0  0  0  0  0  0  0
   -6.7464   -0.7120  -19.3050 C   0  0  0  0  0  0  0  0  0  0  0  0
   -5.5139   -2.4401  -20.4121 C   0  0  0  0  0  0  0  0  0  0  0  0
 29 30  1  0  0  0
 30 31  1  0  0  0
 30 33  1  0  0  0
 31 32  2  0  0  0
 31 28  1  0  0  0
 28  1  1  0  0  0
  1  2  1  0  0  0
  3  2  1  0  0  0
  3  4  1  0  0  0
  3  9  1  0  0  0
  4  5  2  0  0  0
  4  6  1  0  0  0
  6 18  1  0  0  0
  6  7  1  0  0  0
 18 19  2  0  0  0
 19 20  1  0  0  0
 20 21  2  0  0  0
 21 22  1  0  0  0
 22 23  2  0  0  0
 23 24  1  0  0  0
 24 25  2  0  0  0
 25 26  1  0  0  0
 26 27  2  0  0  0
 27 18  1  0  0  0
 27 22  1  0  0  0
  7  8  1  0  0  0
  8 34  1  0  0  0
  8  3  1  0  0  0
 34 35  1  0  0  0
 35 36  2  0  0  0
 35 37  2  0  0  0
 35 38  1  0  0  0
 38 39  1  0  0  0
 38 40  1  0  0  0
  9 10  2  0  0  0
 10 11  1  0  0  0
 11 12  1  0  0  0
 11 13  2  0  0  0
 13 14  1  0  0  0
 14 15  2  0  0  0
 15 16  1  0  0  0
 15  9  1  0  0  0
 16 17  2  0  0  0
 16  1  1  0  0  0
M  END
> <minimizedAffinity>
-7.71425

> <CNNscore>
0.2719871402

> <CNNaffinity>
6.3628473282

> <CNN_VS>
1.7306126356

> <CNNaffinity_variance>
0.2033533156

$$$$



 40 44  0  0  0  0  0  0  0  0999 V2000
   -6.8325   -3.8053  -23.0325 N   0  0  0  0  0  0  0  0  0  0  0  0
   -6.4095   -2.4870  -23.4045 C   0  0  0  0  0  0  0  0  0  0  0  0
   -7.4031   -1.4523  -22.9841 C   0  0  0  0  0  0  0  0  0  0  0  0
   -7.1631   -0.1464  -23.6551 C   0  0  0  0  0  0  0  0  0  0  0  0
   -6.7371   -0.0344  -24.8198 O   0  0  0  0  0  0  0  0  0  0  0  0
   -7.4784    0.9312  -22.8068 N   0  0  0  0  0  0  0  0  0  0  0  0
   -7.8014    0.3617  -21.5248 C   0  0  0  0  0  0  0  0  0  0  0  0
   -7.3530   -1.0642  -21.5331 C   0  0  0  0  0  0  0  0  0  0  0  0
   -8.7691   -1.8576  -23.4086 C   0  0  0  0  0  0  0  0  0  0  0  0
   -9.7653   -0.9086  -23.6862 C   0  0  0  0  0  0  0  0  0  0  0  0
  -11.0436   -1.2789  -24.0380 C   0  0  0  0  0  0  0  0  0  0  0  0
  -11.9839   -0.3122  -24.2995 F   0  0  0  0  0  0  0  0  0  0  0  0
  -11.4132   -2.6028  -24.1371 C   0  0  0  0  0  0  0  0  0  0  0  0
  -10.4491   -3.5519  -23.8703 C   0  0  0  0  0  0  0  0  0  0  0  0
   -9.1829   -3.1662  -23.5227 C   0  0  0  0  0  0  0  0  0  0  0  0
   -8.1816   -4.1984  -23.3256 C   0  0  0  0  0  0  0  0  0  0  0  0
   -8.4809   -5.4121  -23.4080 O   0  0  0  0  0  0  0  0  0  0  0  0
   -7.5170    2.3382  -23.0639 C   0  0  0  0  0  0  0  0  0  0  0  0
   -8.6658    2.9720  -23.5352 C   0  0  0  0  0  0  0  0  0  0  0  0
   -8.7114    4.2942  -23.7857 N   0  0  0  0  0  0  0  0  0  0  0  0
   -7.6474    5.0639  -23.5912 C   0  0  0  0  0  0  0  0  0  0  0  0
   -6.4672    4.5292  -23.1277 C   0  0  0  0  0  0  0  0  0  0  0  0
   -5.3665    5.3429  -22.9320 C   0  0  0  0  0  0  0  0  0  0  0  0
   -4.1778    4.8091  -22.4686 C   0  0  0  0  0  0  0  0  0  0  0  0
   -4.1107    3.4524  -22.2060 C   0  0  0  0  0  0  0  0  0  0  0  0
   -5.2266    2.6713  -22.4122 C   0  0  0  0  0  0  0  0  0  0  0  0
   -6.4255    3.1623  -22.8708 C   0  0  0  0  0  0  0  0  0  0  0  0
   -6.0096   -4.8064  -22.3964 C   0  0  0  0  0  0  0  0  0  0  0  0
   -4.5469   -6.3637  -25.6302 C   0  0  0  0  0  0  0  0  0  0  0  0
   -5.0587   -5.3395  -24.7179 N   0  0  0  0  0  0  0  0  0  0  0  0
   -5.4661   -5.7372  -23.4403 C   0  0  0  0  0  0  0  0  0  0  0  0
   -5.3819   -6.9552  -23.1187 O   0  0  0  0  0  0  0  0  0  0  0  0
   -5.1147   -4.3967  -24.9959 H   0  0  0  0  0  0  0  0  0  0  0  0
   -5.9650   -1.1675  -21.0057 C   0  0  0  0  0  0  0  0  0  0  0  0
   -5.7625   -1.6224  -19.3317 S   0  0  0  0  0  0  0  0  0  0  0  0
   -7.0284   -1.6252  -18.5797 O   0  0  0  0  0  0  0  0  0  0  0  0
   -5.0245   -2.9110  -19.1462 O   0  0  0  0  0  0  0  0  0  0  0  0
   -4.7183   -0.3940  -18.6260 N   0  0  0  0  0  0  0  0  0  0  0  0
   -5.4800    0.3225  -17.6145 C   0  0  0  0  0  0  0  0  0  0  0  0
   -4.2781    0.5063  -19.6767 C   0  0  0  0  0  0  0  0  0  0  0  0
 29 30  1  0  0  0
 30 31  1  0  0  0
 30 33  1  0  0  0
 31 32  2  0  0  0
 31 28  1  0  0  0
 28  1  1  0  0  0
  1  2  1  0  0  0
  3  2  1  0  0  0
  3  4  1  0  0  0
  3  9  1  0  0  0
  4  5  2  0  0  0
  4  6  1  0  0  0
  6 18  1  0  0  0
  6  7  1  0  0  0
 18 19  2  0  0  0
 19 20  1  0  0  0
 20 21  2  0  0  0
 21 22  1  0  0  0
 22 23  2  0  0  0
 23 24  1  0  0  0
 24 25  2  0  0  0
 25 26  1  0  0  0
 26 27  2  0  0  0
 27 18  1  0  0  0
 27 22  1  0  0  0
  7  8  1  0  0  0
  8 34  1  0  0  0
  8  3  1  0  0  0
 34 35  1  0  0  0
 35 36  2  0  0  0
 35 37  2  0  0  0
 35 38  1  0  0  0
 38 39  1  0  0  0
 38 40  1  0  0  0
  9 10  2  0  0  0
 10 11  1  0  0  0
 11 12  1  0  0  0
 11 13  2  0  0  0
 13 14  1  0  0  0
 14 15  2  0  0  0
 15 16  1  0  0  0
 15  9  1  0  0  0
 16 17  2  0  0  0
 16  1  1  0  0  0
M  END
> <minimizedAffinity>
-7.33263

> <CNNscore>
0.2312925458

> <CNNaffinity>
6.4395151138

> <CNN_VS>
1.4894118309

> <CNNaffinity_variance>
0.2135526836

$$$$



 40 44  0  0  0  0  0  0  0  0999 V2000
   -8.9947   -4.3694  -25.2648 N   0  0  0  0  0  0  0  0  0  0  0  0
   -7.8896   -3.4682  -25.4117 C   0  0  0  0  0  0  0  0  0  0  0  0
   -7.7669   -2.5533  -24.2359 C   0  0  0  0  0  0  0  0  0  0  0  0
   -6.8675   -1.4025  -24.5186 C   0  0  0  0  0  0  0  0  0  0  0  0
   -6.7739   -0.8544  -25.6327 O   0  0  0  0  0  0  0  0  0  0  0  0
   -6.1461   -1.0221  -23.3718 N   0  0  0  0  0  0  0  0  0  0  0  0
   -6.4537   -1.9928  -22.3542 C   0  0  0  0  0  0  0  0  0  0  0  0
   -7.1220   -3.1534  -23.0182 C   0  0  0  0  0  0  0  0  0  0  0  0
   -9.0870   -1.9430  -23.9272 C   0  0  0  0  0  0  0  0  0  0  0  0
   -9.1906   -0.6819  -23.3200 C   0  0  0  0  0  0  0  0  0  0  0  0
  -10.4091   -0.1308  -22.9931 C   0  0  0  0  0  0  0  0  0  0  0  0
  -10.4583    1.1069  -22.3992 F   0  0  0  0  0  0  0  0  0  0  0  0
  -11.5932   -0.7890  -23.2455 C   0  0  0  0  0  0  0  0  0  0  0  0
  -11.5143   -2.0291  -23.8434 C   0  0  0  0  0  0  0  0  0  0  0  0
  -10.2947   -2.5617  -24.1626 C   0  0  0  0  0  0  0  0  0  0  0  0
  -10.2635   -3.8347  -24.8593 C   0  0  0  0  0  0  0  0  0  0  0  0
  -11.3198   -4.4614  -25.1061 O   0  0  0  0  0  0  0  0  0  0  0  0
   -5.2712    0.0877  -23.1477 C   0  0  0  0  0  0  0  0  0  0  0  0
   -3.8842   -0.0419  -23.2032 C   0  0  0  0  0  0  0  0  0  0  0  0
   -3.0518    0.9944  -22.9885 N   0  0  0  0  0  0  0  0  0  0  0  0
   -3.5233    2.2038  -22.7104 C   0  0  0  0  0  0  0  0  0  0  0  0
   -4.8784    2.4304  -22.6339 C   0  0  0  0  0  0  0  0  0  0  0  0
   -5.3549    3.6950  -22.3413 C   0  0  0  0  0  0  0  0  0  0  0  0
   -6.7161    3.9264  -22.2611 C   0  0  0  0  0  0  0  0  0  0  0  0
   -7.5878    2.8742  -22.4779 C   0  0  0  0  0  0  0  0  0  0  0  0
   -7.0785    1.6273  -22.7674 C   0  0  0  0  0  0  0  0  0  0  0  0
   -5.7341    1.3560  -22.8565 C   0  0  0  0  0  0  0  0  0  0  0  0
   -8.9609   -5.7916  -25.5107 C   0  0  0  0  0  0  0  0  0  0  0  0
   -7.3850   -6.9597  -28.8534 C   0  0  0  0  0  0  0  0  0  0  0  0
   -7.5681   -6.8088  -27.4089 N   0  0  0  0  0  0  0  0  0  0  0  0
   -8.6431   -6.0368  -26.9566 C   0  0  0  0  0  0  0  0  0  0  0  0
   -9.4125   -5.4984  -27.8005 O   0  0  0  0  0  0  0  0  0  0  0  0
   -6.9515   -7.2390  -26.7732 H   0  0  0  0  0  0  0  0  0  0  0  0
   -6.1102   -4.1744  -23.4046 C   0  0  0  0  0  0  0  0  0  0  0  0
   -6.1216   -5.6960  -22.5474 S   0  0  0  0  0  0  0  0  0  0  0  0
   -5.3882   -5.6425  -21.2718 O   0  0  0  0  0  0  0  0  0  0  0  0
   -7.4922   -6.2654  -22.3558 O   0  0  0  0  0  0  0  0  0  0  0  0
   -5.2953   -6.8416  -23.5973 N   0  0  0  0  0  0  0  0  0  0  0  0
   -4.0014   -7.1470  -23.0064 C   0  0  0  0  0  0  0  0  0  0  0  0
   -5.1363   -6.2429  -24.9105 C   0  0  0  0  0  0  0  0  0  0  0  0
 29 30  1  0  0  0
 30 31  1  0  0  0
 30 33  1  0  0  0
 31 32  2  0  0  0
 31 28  1  0  0  0
 28  1  1  0  0  0
  1  2  1  0  0  0
  3  2  1  0  0  0
  3  4  1  0  0  0
  3  9  1  0  0  0
  4  5  2  0  0  0
  4  6  1  0  0  0
  6 18  1  0  0  0
  6  7  1  0  0  0
 18 19  2  0  0  0
 19 20  1  0  0  0
 20 21  2  0  0  0
 21 22  1  0  0  0
 22 23  2  0  0  0
 23 24  1  0  0  0
 24 25  2  0  0  0
 25 26  1  0  0  0
 26 27  2  0  0  0
 27 18  1  0  0  0
 27 22  1  0  0  0
  7  8  1  0  0  0
  8 34  1  0  0  0
  8  3  1  0  0  0
 34 35  1  0  0  0
 35 36  2  0  0  0
 35 37  2  0  0  0
 35 38  1  0  0  0
 38 39  1  0  0  0
 38 40  1  0  0  0
  9 10  2  0  0  0
 10 11  1  0  0  0
 11 12  1  0  0  0
 11 13  2  0  0  0
 13 14  1  0  0  0
 14 15  2  0  0  0
 15 16  1  0  0  0
 15  9  1  0  0  0
 16 17  2  0  0  0
 16  1  1  0  0  0
M  END
> <minimizedAffinity>
-7.11122

> <CNNscore>
0.1803060621

> <CNNaffinity>
6.1661195755

> <CNN_VS>
1.1117887497

> <CNNaffinity_variance>
0.1373899728

$$$$



 40 44  0  0  0  0  0  0  0  0999 V2000
   -7.0689   -4.9083  -23.0541 N   0  0  0  0  0  0  0  0  0  0  0  0
   -8.3745   -4.3199  -23.1200 C   0  0  0  0  0  0  0  0  0  0  0  0
   -8.3016   -2.8288  -23.1979 C   0  0  0  0  0  0  0  0  0  0  0  0
   -9.6167   -2.1927  -22.9164 C   0  0  0  0  0  0  0  0  0  0  0  0
  -10.4442   -2.6443  -22.1028 O   0  0  0  0  0  0  0  0  0  0  0  0
   -9.7968   -1.0269  -23.6837 N   0  0  0  0  0  0  0  0  0  0  0  0
   -8.6708   -0.9471  -24.5770 C   0  0  0  0  0  0  0  0  0  0  0  0
   -7.9764   -2.2706  -24.5548 C   0  0  0  0  0  0  0  0  0  0  0  0
   -7.3897   -2.3091  -22.1451 C   0  0  0  0  0  0  0  0  0  0  0  0
   -7.5546   -1.0282  -21.5955 C   0  0  0  0  0  0  0  0  0  0  0  0
   -6.6878   -0.5255  -20.6515 C   0  0  0  0  0  0  0  0  0  0  0  0
   -6.8914    0.7347  -20.1440 F   0  0  0  0  0  0  0  0  0  0  0  0
   -5.6112   -1.2546  -20.1951 C   0  0  0  0  0  0  0  0  0  0  0  0
   -5.4316   -2.5167  -20.7206 C   0  0  0  0  0  0  0  0  0  0  0  0
   -6.3033   -3.0013  -21.6578 C   0  0  0  0  0  0  0  0  0  0  0  0
   -6.1193   -4.3627  -22.1263 C   0  0  0  0  0  0  0  0  0  0  0  0
   -5.1524   -5.0554  -21.7332 O   0  0  0  0  0  0  0  0  0  0  0  0
  -10.8371   -0.0449  -23.6553 C   0  0  0  0  0  0  0  0  0  0  0  0
  -12.1803   -0.3951  -23.5255 C   0  0  0  0  0  0  0  0  0  0  0  0
  -13.1674    0.5204  -23.5032 N   0  0  0  0  0  0  0  0  0  0  0  0
  -12.9001    1.8167  -23.6052 C   0  0  0  0  0  0  0  0  0  0  0  0
  -11.6040    2.2598  -23.7369 C   0  0  0  0  0  0  0  0  0  0  0  0
  -11.3410    3.6130  -23.8443 C   0  0  0  0  0  0  0  0  0  0  0  0
  -10.0399    4.0622  -23.9793 C   0  0  0  0  0  0  0  0  0  0  0  0
   -9.0116    3.1371  -24.0049 C   0  0  0  0  0  0  0  0  0  0  0  0
   -9.3098    1.7966  -23.8954 C   0  0  0  0  0  0  0  0  0  0  0  0
  -10.5878    1.3096  -23.7596 C   0  0  0  0  0  0  0  0  0  0  0  0
   -6.6121   -6.0351  -23.8325 C   0  0  0  0  0  0  0  0  0  0  0  0
   -9.4163   -7.3032  -26.1883 C   0  0  0  0  0  0  0  0  0  0  0  0
   -8.2451   -6.5463  -25.7429 N   0  0  0  0  0  0  0  0  0  0  0  0
   -7.7960   -6.7356  -24.4319 C   0  0  0  0  0  0  0  0  0  0  0  0
   -8.4102   -7.5440  -23.6814 O   0  0  0  0  0  0  0  0  0  0  0  0
   -7.7862   -5.9212  -26.3494 H   0  0  0  0  0  0  0  0  0  0  0  0
   -8.5129   -3.1485  -25.6303 C   0  0  0  0  0  0  0  0  0  0  0  0
   -7.7120   -3.1163  -27.1821 S   0  0  0  0  0  0  0  0  0  0  0  0
   -7.4700   -4.4605  -27.7320 O   0  0  0  0  0  0  0  0  0  0  0  0
   -8.3889   -2.2383  -28.1873 O   0  0  0  0  0  0  0  0  0  0  0  0
   -6.1485   -2.3604  -26.8968 N   0  0  0  0  0  0  0  0  0  0  0  0
   -5.8459   -1.5015  -28.0314 C   0  0  0  0  0  0  0  0  0  0  0  0
   -5.1451   -3.3999  -26.7525 C   0  0  0  0  0  0  0  0  0  0  0  0
 29 30  1  0  0  0
 30 31  1  0  0  0
 30 33  1  0  0  0
 31 32  2  0  0  0
 31 28  1  0  0  0
 28  1  1  0  0  0
  1  2  1  0  0  0
  3  2  1  0  0  0
  3  4  1  0  0  0
  3  9  1  0  0  0
  4  5  2  0  0  0
  4  6  1  0  0  0
  6 18  1  0  0  0
  6  7  1  0  0  0
 18 19  2  0  0  0
 19 20  1  0  0  0
 20 21  2  0  0  0
 21 22  1  0  0  0
 22 23  2  0  0  0
 23 24  1  0  0  0
 24 25  2  0  0  0
 25 26  1  0  0  0
 26 27  2  0  0  0
 27 18  1  0  0  0
 27 22  1  0  0  0
  7  8  1  0  0  0
  8 34  1  0  0  0
  8  3  1  0  0  0
 34 35  1  0  0  0
 35 36  2  0  0  0
 35 37  2  0  0  0
 35 38  1  0  0  0
 38 39  1  0  0  0
 38 40  1  0  0  0
  9 10  2  0  0  0
 10 11  1  0  0  0
 11 12  1  0  0  0
 11 13  2  0  0  0
 13 14  1  0  0  0
 14 15  2  0  0  0
 15 16  1  0  0  0
 15  9  1  0  0  0
 16 17  2  0  0  0
 16  1  1  0  0  0
M  END
> <minimizedAffinity>
-7.89062

> <CNNscore>
0.1607388109

> <CNNaffinity>
6.1893954277

> <CNN_VS>
0.9948760867

> <CNNaffinity_variance>
0.2067578733

$$$$



 40 44  0  0  0  0  0  0  0  0999 V2000
  -12.1299    0.8094  -23.1960 N   0  0  0  0  0  0  0  0  0  0  0  0
  -10.8797    1.2850  -22.6801 C   0  0  0  0  0  0  0  0  0  0  0  0
   -9.7217    0.7137  -23.4334 C   0  0  0  0  0  0  0  0  0  0  0  0
   -8.4370    0.9092  -22.7093 C   0  0  0  0  0  0  0  0  0  0  0  0
   -8.3306    0.8844  -21.4689 O   0  0  0  0  0  0  0  0  0  0  0  0
   -7.3719    1.1230  -23.6039 N   0  0  0  0  0  0  0  0  0  0  0  0
   -7.9524    1.2062  -24.9186 C   0  0  0  0  0  0  0  0  0  0  0  0
   -9.4296    1.3657  -24.7556 C   0  0  0  0  0  0  0  0  0  0  0  0
   -9.8734   -0.7600  -23.5569 C   0  0  0  0  0  0  0  0  0  0  0  0
   -8.7600   -1.6078  -23.6652 C   0  0  0  0  0  0  0  0  0  0  0  0
   -8.8956   -2.9686  -23.8228 C   0  0  0  0  0  0  0  0  0  0  0  0
   -7.7748   -3.7563  -23.9247 F   0  0  0  0  0  0  0  0  0  0  0  0
  -10.1334   -3.5714  -23.8821 C   0  0  0  0  0  0  0  0  0  0  0  0
  -11.2410   -2.7570  -23.7759 C   0  0  0  0  0  0  0  0  0  0  0  0
  -11.0880   -1.4061  -23.6187 C   0  0  0  0  0  0  0  0  0  0  0  0
  -12.2797   -0.5980  -23.4349 C   0  0  0  0  0  0  0  0  0  0  0  0
  -13.4214   -1.1115  -23.4822 O   0  0  0  0  0  0  0  0  0  0  0  0
   -5.9653    1.2356  -23.3671 C   0  0  0  0  0  0  0  0  0  0  0  0
   -5.1232    0.1246  -23.3765 C   0  0  0  0  0  0  0  0  0  0  0  0
   -3.7994    0.2185  -23.1495 N   0  0  0  0  0  0  0  0  0  0  0  0
   -3.2295    1.3920  -22.9032 C   0  0  0  0  0  0  0  0  0  0  0  0
   -3.9788    2.5457  -22.8732 C   0  0  0  0  0  0  0  0  0  0  0  0
   -3.3718    3.7606  -22.6133 C   0  0  0  0  0  0  0  0  0  0  0  0
   -4.1217    4.9222  -22.5798 C   0  0  0  0  0  0  0  0  0  0  0  0
   -5.4838    4.8464  -22.8100 C   0  0  0  0  0  0  0  0  0  0  0  0
   -6.0556    3.6195  -23.0659 C   0  0  0  0  0  0  0  0  0  0  0  0
   -5.3464    2.4430  -23.1082 C   0  0  0  0  0  0  0  0  0  0  0  0
  -13.2865    1.6234  -23.4856 C   0  0  0  0  0  0  0  0  0  0  0  0
  -12.5472    5.4160  -23.1842 C   0  0  0  0  0  0  0  0  0  0  0  0
  -12.7559    4.1110  -23.8138 N   0  0  0  0  0  0  0  0  0  0  0  0
  -13.0467    3.0191  -22.9896 C   0  0  0  0  0  0  0  0  0  0  0  0
  -13.1174    3.1919  -21.7409 O   0  0  0  0  0  0  0  0  0  0  0  0
  -12.6932    4.0048  -24.7906 H   0  0  0  0  0  0  0  0  0  0  0  0
   -9.7884    2.8099  -24.7238 C   0  0  0  0  0  0  0  0  0  0  0  0
   -9.3009    3.7992  -26.0781 S   0  0  0  0  0  0  0  0  0  0  0  0
   -7.9760    4.4143  -25.8931 O   0  0  0  0  0  0  0  0  0  0  0  0
   -9.3873    3.0954  -27.3959 O   0  0  0  0  0  0  0  0  0  0  0  0
  -10.4884    5.0945  -26.1750 N   0  0  0  0  0  0  0  0  0  0  0  0
  -11.4726    4.7333  -27.1837 C   0  0  0  0  0  0  0  0  0  0  0  0
   -9.8090    6.3269  -26.5327 C   0  0  0  0  0  0  0  0  0  0  0  0
 29 30  1  0  0  0
 30 31  1  0  0  0
 30 33  1  0  0  0
 31 32  2  0  0  0
 31 28  1  0  0  0
 28  1  1  0  0  0
  1  2  1  0  0  0
  3  2  1  0  0  0
  3  4  1  0  0  0
  3  9  1  0  0  0
  4  5  2  0  0  0
  4  6  1  0  0  0
  6 18  1  0  0  0
  6  7  1  0  0  0
 18 19  2  0  0  0
 19 20  1  0  0  0
 20 21  2  0  0  0
 21 22  1  0  0  0
 22 23  2  0  0  0
 23 24  1  0  0  0
 24 25  2  0  0  0
 25 26  1  0  0  0
 26 27  2  0  0  0
 27 18  1  0  0  0
 27 22  1  0  0  0
  7  8  1  0  0  0
  8 34  1  0  0  0
  8  3  1  0  0  0
 34 35  1  0  0  0
 35 36  2  0  0  0
 35 37  2  0  0  0
 35 38  1  0  0  0
 38 39  1  0  0  0
 38 40  1  0  0  0
  9 10  2  0  0  0
 10 11  1  0  0  0
 11 12  1  0  0  0
 11 13  2  0  0  0
 13 14  1  0  0  0
 14 15  2  0  0  0
 15 16  1  0  0  0
 15  9  1  0  0  0
 16 17  2  0  0  0
 16  1  1  0  0  0
M  END
> <minimizedAffinity>
-6.80097

> <CNNscore>
0.1430276930

> <CNNaffinity>
5.9302425385

> <CNN_VS>
0.8481889367

> <CNNaffinity_variance>
0.3995341659

$$$$



 28 31  0  0  0  0  0  0  0  0999 V2000
  -10.0009    2.8818  -23.3091 N   0  0  0  0  0  0  0  0  0  0  0  0
   -9.6013    1.6707  -23.9799 C   0  0  0  0  0  0  0  0  0  0  0  0
   -9.6689    1.5127  -25.2069 O   0  0  0  0  0  0  0  0  0  0  0  0
   -9.9175    2.9195  -22.3289 H   0  0  0  0  0  0  0  0  0  0  0  0
   -9.0743    0.5376  -23.1504 C   0  0  0  0  0  0  0  0  0  0  0  0
   -7.7686    0.1591  -23.7998 C   0  0  0  0  0  0  0  0  0  0  0  0
   -7.0893   -0.8095  -22.9656 N   0  0  0  0  0  0  0  0  0  0  0  0
   -7.8542   -2.3323  -23.3959 S   0  0  0  0  0  0  0  0  0  0  0  0
   -7.4590   -3.4312  -22.4817 O   0  0  0  0  0  0  0  0  0  0  0  0
   -7.5091   -2.5840  -24.8332 O   0  0  0  0  0  0  0  0  0  0  0  0
   -9.5812   -1.9408  -23.2581 C   0  0  0  0  0  0  0  0  0  0  0  0
  -10.4370   -3.0093  -23.2535 C   0  0  0  0  0  0  0  0  0  0  0  0
  -11.7947   -2.8176  -23.1299 C   0  0  0  0  0  0  0  0  0  0  0  0
  -12.2382   -1.5227  -23.0135 C   0  0  0  0  0  0  0  0  0  0  0  0
  -13.9684   -1.2772  -22.8554 Cl  0  0  0  0  0  0  0  0  0  0  0  0
  -11.3689   -0.4450  -23.0189 C   0  0  0  0  0  0  0  0  0  0  0  0
   -9.9837   -0.6239  -23.1447 C   0  0  0  0  0  0  0  0  0  0  0  0
   -7.2269   -0.5992  -21.9770 H   0  0  0  0  0  0  0  0  0  0  0  0
  -12.8581    2.8171  -22.1072 C   0  0  0  0  0  0  0  0  0  0  0  0
  -12.8368    3.9577  -22.9957 N   0  0  0  0  0  0  0  0  0  0  0  0
  -13.9098    4.7303  -23.1766 N   0  0  0  0  0  0  0  0  0  0  0  0
  -13.6420    5.7075  -24.0528 C   0  0  0  0  0  0  0  0  0  0  0  0
  -12.3261    5.5065  -24.4187 C   0  0  0  0  0  0  0  0  0  0  0  0
  -11.5784    6.2471  -25.3101 C   0  0  0  0  0  0  0  0  0  0  0  0
  -10.3218    5.8618  -25.5166 N   0  0  0  0  0  0  0  0  0  0  0  0
   -9.7902    4.7788  -24.8740 C   0  0  0  0  0  0  0  0  0  0  0  0
  -10.5058    4.0183  -23.9798 C   0  0  0  0  0  0  0  0  0  0  0  0
  -11.8116    4.3974  -23.7495 C   0  0  0  0  0  0  0  0  0  0  0  0
 19 20  1  0  0  0
 20 21  1  0  0  0
 21 22  2  0  0  0
 22 23  1  0  0  0
 23 24  2  0  0  0
 24 25  1  0  0  0
 25 26  2  0  0  0
 26 27  1  0  0  0
 27  1  1  0  0  0
 27 28  2  0  0  0
  1  2  1  0  0  0
  1  4  1  0  0  0
  2  3  2  0  0  0
  5  2  1  0  0  0
  5  6  1  0  0  0
  6  7  1  0  0  0
  7  8  1  0  0  0
  7 18  1  0  0  0
  8  9  2  0  0  0
  8 10  2  0  0  0
  8 11  1  0  0  0
 11 12  2  0  0  0
 12 13  1  0  0  0
 13 14  2  0  0  0
 14 15  1  0  0  0
 14 16  1  0  0  0
 16 17  2  0  0  0
 17  5  1  0  0  0
 17 11  1  0  0  0
 28 20  1  0  0  0
 28 23  1  0  0  0
M  END
> <minimizedAffinity>
-6.84529

> <CNNscore>
0.6741913557

> <CNNaffinity>
5.9073629379

> <CNN_VS>
3.9826929569

> <CNNaffinity_variance>
0.1929811537

$$$$



 28 31  0  0  0  0  0  0  0  0999 V2000
   -6.6561    0.1481  -23.7468 N   0  0  0  0  0  0  0  0  0  0  0  0
   -5.5393   -0.7561  -23.6388 C   0  0  0  0  0  0  0  0  0  0  0  0
   -4.8510   -1.1134  -24.6049 O   0  0  0  0  0  0  0  0  0  0  0  0
   -7.1514    0.3750  -22.9269 H   0  0  0  0  0  0  0  0  0  0  0  0
   -5.1885   -1.2961  -22.2841 C   0  0  0  0  0  0  0  0  0  0  0  0
   -6.5048   -1.7171  -21.6840 C   0  0  0  0  0  0  0  0  0  0  0  0
   -6.2552   -2.4211  -20.4441 N   0  0  0  0  0  0  0  0  0  0  0  0
   -6.0272   -1.1284  -19.2751 S   0  0  0  0  0  0  0  0  0  0  0  0
   -5.5287   -1.6365  -17.9741 O   0  0  0  0  0  0  0  0  0  0  0  0
   -7.3396   -0.4089  -19.1838 O   0  0  0  0  0  0  0  0  0  0  0  0
   -4.8348   -0.0911  -20.0854 C   0  0  0  0  0  0  0  0  0  0  0  0
   -4.2354    0.8561  -19.2995 C   0  0  0  0  0  0  0  0  0  0  0  0
   -3.2810    1.6983  -19.8237 C   0  0  0  0  0  0  0  0  0  0  0  0
   -2.9666    1.5421  -21.1518 C   0  0  0  0  0  0  0  0  0  0  0  0
   -1.7499    2.6147  -21.8210 Cl  0  0  0  0  0  0  0  0  0  0  0  0
   -3.5755    0.5827  -21.9430 C   0  0  0  0  0  0  0  0  0  0  0  0
   -4.5499   -0.2819  -21.4240 C   0  0  0  0  0  0  0  0  0  0  0  0
   -5.4181   -2.9994  -20.5155 H   0  0  0  0  0  0  0  0  0  0  0  0
   -5.9840    3.0917  -23.0430 C   0  0  0  0  0  0  0  0  0  0  0  0
   -6.5303    3.1279  -24.3813 N   0  0  0  0  0  0  0  0  0  0  0  0
   -6.6729    4.2718  -25.0537 N   0  0  0  0  0  0  0  0  0  0  0  0
   -7.2106    4.0437  -26.2592 C   0  0  0  0  0  0  0  0  0  0  0  0
   -7.4014    2.6773  -26.3108 C   0  0  0  0  0  0  0  0  0  0  0  0
   -7.9384    1.9416  -27.3463 C   0  0  0  0  0  0  0  0  0  0  0  0
   -8.0348    0.6262  -27.1713 N   0  0  0  0  0  0  0  0  0  0  0  0
   -7.6196    0.0254  -26.0158 C   0  0  0  0  0  0  0  0  0  0  0  0
   -7.0798    0.7271  -24.9640 C   0  0  0  0  0  0  0  0  0  0  0  0
   -6.9703    2.0928  -25.1212 C   0  0  0  0  0  0  0  0  0  0  0  0
 19 20  1  0  0  0
 20 21  1  0  0  0
 21 22  2  0  0  0
 22 23  1  0  0  0
 23 24  2  0  0  0
 24 25  1  0  0  0
 25 26  2  0  0  0
 26 27  1  0  0  0
 27  1  1  0  0  0
 27 28  2  0  0  0
  1  2  1  0  0  0
  1  4  1  0  0  0
  2  3  2  0  0  0
  5  2  1  0  0  0
  5  6  1  0  0  0
  6  7  1  0  0  0
  7  8  1  0  0  0
  7 18  1  0  0  0
  8  9  2  0  0  0
  8 10  2  0  0  0
  8 11  1  0  0  0
 11 12  2  0  0  0
 12 13  1  0  0  0
 13 14  2  0  0  0
 14 15  1  0  0  0
 14 16  1  0  0  0
 16 17  2  0  0  0
 17  5  1  0  0  0
 17 11  1  0  0  0
 28 20  1  0  0  0
 28 23  1  0  0  0
M  END
> <minimizedAffinity>
-6.26631

> <CNNscore>
0.5471493006

> <CNNaffinity>
5.6189918518

> <CNN_VS>
3.0744273663

> <CNNaffinity_variance>
0.2316901237

$$$$



 28 31  0  0  0  0  0  0  0  0999 V2000
   -6.7099   -3.8903  -22.7028 N   0  0  0  0  0  0  0  0  0  0  0  0
   -5.9375   -2.6738  -22.6936 C   0  0  0  0  0  0  0  0  0  0  0  0
   -5.8109   -1.9351  -23.6802 O   0  0  0  0  0  0  0  0  0  0  0  0
   -6.7529   -4.4198  -21.8739 H   0  0  0  0  0  0  0  0  0  0  0  0
   -5.2478   -2.2775  -21.4220 C   0  0  0  0  0  0  0  0  0  0  0  0
   -6.1905   -2.6984  -20.3247 C   0  0  0  0  0  0  0  0  0  0  0  0
   -5.5351   -2.5236  -19.0459 N   0  0  0  0  0  0  0  0  0  0  0  0
   -5.7492   -0.8129  -18.7037 S   0  0  0  0  0  0  0  0  0  0  0  0
   -4.9458   -0.3742  -17.5369 O   0  0  0  0  0  0  0  0  0  0  0  0
   -7.2244   -0.5989  -18.5407 O   0  0  0  0  0  0  0  0  0  0  0  0
   -5.2007   -0.0534  -20.2126 C   0  0  0  0  0  0  0  0  0  0  0  0
   -4.9760    1.2958  -20.1546 C   0  0  0  0  0  0  0  0  0  0  0  0
   -4.5287    1.9789  -21.2630 C   0  0  0  0  0  0  0  0  0  0  0  0
   -4.3230    1.2502  -22.4092 C   0  0  0  0  0  0  0  0  0  0  0  0
   -3.7523    2.1196  -23.8224 Cl  0  0  0  0  0  0  0  0  0  0  0  0
   -4.5517   -0.1143  -22.4633 C   0  0  0  0  0  0  0  0  0  0  0  0
   -5.0081   -0.8240  -21.3433 C   0  0  0  0  0  0  0  0  0  0  0  0
   -4.5453   -2.7616  -19.1082 H   0  0  0  0  0  0  0  0  0  0  0  0
   -9.4223   -2.5134  -22.1031 C   0  0  0  0  0  0  0  0  0  0  0  0
   -9.6205   -3.2398  -23.3376 N   0  0  0  0  0  0  0  0  0  0  0  0
  -10.7933   -3.2406  -23.9744 N   0  0  0  0  0  0  0  0  0  0  0  0
  -10.7265   -3.9938  -25.0801 C   0  0  0  0  0  0  0  0  0  0  0  0
   -9.4322   -4.4735  -25.1061 C   0  0  0  0  0  0  0  0  0  0  0  0
   -8.8626   -5.3067  -26.0459 C   0  0  0  0  0  0  0  0  0  0  0  0
   -7.5902   -5.6495  -25.8629 N   0  0  0  0  0  0  0  0  0  0  0  0
   -6.8739   -5.1966  -24.7904 C   0  0  0  0  0  0  0  0  0  0  0  0
   -7.4090   -4.3655  -23.8349 C   0  0  0  0  0  0  0  0  0  0  0  0
   -8.7272   -3.9966  -24.0022 C   0  0  0  0  0  0  0  0  0  0  0  0
 19 20  1  0  0  0
 20 21  1  0  0  0
 21 22  2  0  0  0
 22 23  1  0  0  0
 23 24  2  0  0  0
 24 25  1  0  0  0
 25 26  2  0  0  0
 26 27  1  0  0  0
 27  1  1  0  0  0
 27 28  2  0  0  0
  1  2  1  0  0  0
  1  4  1  0  0  0
  2  3  2  0  0  0
  5  2  1  0  0  0
  5  6  1  0  0  0
  6  7  1  0  0  0
  7  8  1  0  0  0
  7 18  1  0  0  0
  8  9  2  0  0  0
  8 10  2  0  0  0
  8 11  1  0  0  0
 11 12  2  0  0  0
 12 13  1  0  0  0
 13 14  2  0  0  0
 14 15  1  0  0  0
 14 16  1  0  0  0
 16 17  2  0  0  0
 17  5  1  0  0  0
 17 11  1  0  0  0
 28 20  1  0  0  0
 28 23  1  0  0  0
M  END
> <minimizedAffinity>
-7.32968

> <CNNscore>
0.4174572825

> <CNNaffinity>
5.8986477852

> <CNN_VS>
2.4624335766

> <CNNaffinity_variance>
0.1988609135

$$$$



 28 31  0  0  0  0  0  0  0  0999 V2000
   -5.5096   -2.1849  -21.7453 N   0  0  0  0  0  0  0  0  0  0  0  0
   -6.7229   -2.2102  -22.5222 C   0  0  0  0  0  0  0  0  0  0  0  0
   -7.7557   -1.6066  -22.1999 O   0  0  0  0  0  0  0  0  0  0  0  0
   -4.7364   -2.6981  -22.0740 H   0  0  0  0  0  0  0  0  0  0  0  0
   -6.7399   -3.0102  -23.7909 C   0  0  0  0  0  0  0  0  0  0  0  0
   -7.9076   -2.4677  -24.5733 C   0  0  0  0  0  0  0  0  0  0  0  0
   -7.9011   -3.0516  -25.8978 N   0  0  0  0  0  0  0  0  0  0  0  0
   -8.6644   -4.6172  -25.6615 S   0  0  0  0  0  0  0  0  0  0  0  0
   -8.5496   -5.4790  -26.8630 O   0  0  0  0  0  0  0  0  0  0  0  0
  -10.0781   -4.3367  -25.2478 O   0  0  0  0  0  0  0  0  0  0  0  0
   -7.7598   -5.2751  -24.2819 C   0  0  0  0  0  0  0  0  0  0  0  0
   -7.9303   -6.6115  -24.0388 C   0  0  0  0  0  0  0  0  0  0  0  0
   -7.2587   -7.2260  -23.0060 C   0  0  0  0  0  0  0  0  0  0  0  0
   -6.4240   -6.4434  -22.2459 C   0  0  0  0  0  0  0  0  0  0  0  0
   -5.5671   -7.2256  -20.9295 Cl  0  0  0  0  0  0  0  0  0  0  0  0
   -6.2547   -5.0920  -22.4953 C   0  0  0  0  0  0  0  0  0  0  0  0
   -6.9322   -4.4516  -23.5429 C   0  0  0  0  0  0  0  0  0  0  0  0
   -6.9477   -3.1597  -26.2437 H   0  0  0  0  0  0  0  0  0  0  0  0
   -3.7633    0.1214  -22.8604 C   0  0  0  0  0  0  0  0  0  0  0  0
   -3.9408    0.4137  -21.4555 N   0  0  0  0  0  0  0  0  0  0  0  0
   -3.3926    1.4880  -20.8843 N   0  0  0  0  0  0  0  0  0  0  0  0
   -3.6903    1.5289  -19.5789 C   0  0  0  0  0  0  0  0  0  0  0  0
   -4.4654    0.4084  -19.3555 C   0  0  0  0  0  0  0  0  0  0  0  0
   -5.0189   -0.0073  -18.1628 C   0  0  0  0  0  0  0  0  0  0  0  0
   -5.7285   -1.1326  -18.1814 N   0  0  0  0  0  0  0  0  0  0  0  0
   -5.9044   -1.8490  -19.3322 C   0  0  0  0  0  0  0  0  0  0  0  0
   -5.3677   -1.4646  -20.5381 C   0  0  0  0  0  0  0  0  0  0  0  0
   -4.6269   -0.3014  -20.5442 C   0  0  0  0  0  0  0  0  0  0  0  0
 19 20  1  0  0  0
 20 21  1  0  0  0
 21 22  2  0  0  0
 22 23  1  0  0  0
 23 24  2  0  0  0
 24 25  1  0  0  0
 25 26  2  0  0  0
 26 27  1  0  0  0
 27  1  1  0  0  0
 27 28  2  0  0  0
  1  2  1  0  0  0
  1  4  1  0  0  0
  2  3  2  0  0  0
  5  2  1  0  0  0
  5  6  1  0  0  0
  6  7  1  0  0  0
  7  8  1  0  0  0
  7 18  1  0  0  0
  8  9  2  0  0  0
  8 10  2  0  0  0
  8 11  1  0  0  0
 11 12  2  0  0  0
 12 13  1  0  0  0
 13 14  2  0  0  0
 14 15  1  0  0  0
 14 16  1  0  0  0
 16 17  2  0  0  0
 17  5  1  0  0  0
 17 11  1  0  0  0
 28 20  1  0  0  0
 28 23  1  0  0  0
M  END
> <minimizedAffinity>
-8.51864

> <CNNscore>
0.3863370121

> <CNNaffinity>
5.6286249161

> <CNN_VS>
2.1745462418

> <CNNaffinity_variance>
0.2405460626

$$$$



 28 31  0  0  0  0  0  0  0  0999 V2000
   -5.8448   -2.4833  -21.0789 N   0  0  0  0  0  0  0  0  0  0  0  0
   -7.0226   -2.4191  -21.9066 C   0  0  0  0  0  0  0  0  0  0  0  0
   -7.8752   -1.5246  -21.8170 O   0  0  0  0  0  0  0  0  0  0  0  0
   -5.2213   -3.2329  -21.2152 H   0  0  0  0  0  0  0  0  0  0  0  0
   -7.2308   -3.4921  -22.9338 C   0  0  0  0  0  0  0  0  0  0  0  0
   -6.1538   -3.2571  -23.9607 C   0  0  0  0  0  0  0  0  0  0  0  0
   -6.1546   -4.3536  -24.9057 N   0  0  0  0  0  0  0  0  0  0  0  0
   -7.4445   -3.9333  -26.0233 S   0  0  0  0  0  0  0  0  0  0  0  0
   -7.7666   -5.0489  -26.9459 O   0  0  0  0  0  0  0  0  0  0  0  0
   -7.0064   -2.6783  -26.7171 O   0  0  0  0  0  0  0  0  0  0  0  0
   -8.7921   -3.5674  -24.9258 C   0  0  0  0  0  0  0  0  0  0  0  0
  -10.0290   -3.4831  -25.5064 C   0  0  0  0  0  0  0  0  0  0  0  0
  -11.1445   -3.2246  -24.7421 C   0  0  0  0  0  0  0  0  0  0  0  0
  -10.9560   -3.0587  -23.3916 C   0  0  0  0  0  0  0  0  0  0  0  0
  -12.3771   -2.7295  -22.4164 Cl  0  0  0  0  0  0  0  0  0  0  0  0
   -9.7030   -3.1446  -22.8086 C   0  0  0  0  0  0  0  0  0  0  0  0
   -8.5573   -3.4065  -23.5736 C   0  0  0  0  0  0  0  0  0  0  0  0
   -6.3520   -5.2380  -24.4375 H   0  0  0  0  0  0  0  0  0  0  0  0
   -4.3088   -0.4941  -22.8944 C   0  0  0  0  0  0  0  0  0  0  0  0
   -4.2806    0.0875  -21.5708 N   0  0  0  0  0  0  0  0  0  0  0  0
   -3.6668    1.2463  -21.3230 N   0  0  0  0  0  0  0  0  0  0  0  0
   -3.7693    1.5637  -20.0257 C   0  0  0  0  0  0  0  0  0  0  0  0
   -4.4899    0.5296  -19.4623 C   0  0  0  0  0  0  0  0  0  0  0  0
   -4.8569    0.3821  -18.1411 C   0  0  0  0  0  0  0  0  0  0  0  0
   -5.5484   -0.7084  -17.8204 N   0  0  0  0  0  0  0  0  0  0  0  0
   -5.8836   -1.6450  -18.7579 C   0  0  0  0  0  0  0  0  0  0  0  0
   -5.5349   -1.5305  -20.0827 C   0  0  0  0  0  0  0  0  0  0  0  0
   -4.8167   -0.4087  -20.4399 C   0  0  0  0  0  0  0  0  0  0  0  0
 19 20  1  0  0  0
 20 21  1  0  0  0
 21 22  2  0  0  0
 22 23  1  0  0  0
 23 24  2  0  0  0
 24 25  1  0  0  0
 25 26  2  0  0  0
 26 27  1  0  0  0
 27  1  1  0  0  0
 27 28  2  0  0  0
  1  2  1  0  0  0
  1  4  1  0  0  0
  2  3  2  0  0  0
  5  2  1  0  0  0
  5  6  1  0  0  0
  6  7  1  0  0  0
  7  8  1  0  0  0
  7 18  1  0  0  0
  8  9  2  0  0  0
  8 10  2  0  0  0
  8 11  1  0  0  0
 11 12  2  0  0  0
 12 13  1  0  0  0
 13 14  2  0  0  0
 14 15  1  0  0  0
 14 16  1  0  0  0
 16 17  2  0  0  0
 17  5  1  0  0  0
 17 11  1  0  0  0
 28 20  1  0  0  0
 28 23  1  0  0  0
M  END
> <minimizedAffinity>
-7.72720

> <CNNscore>
0.3722705245

> <CNNaffinity>
5.6099290848

> <CNN_VS>
2.0884113312

> <CNNaffinity_variance>
0.1140993834

$$$$



 28 31  0  0  0  0  0  0  0  0999 V2000
   -5.8316   -3.4103  -23.8748 N   0  0  0  0  0  0  0  0  0  0  0  0
   -6.3969   -2.5477  -22.8684 C   0  0  0  0  0  0  0  0  0  0  0  0
   -7.5659   -2.1381  -22.8948 O   0  0  0  0  0  0  0  0  0  0  0  0
   -4.8911   -3.6843  -23.7773 H   0  0  0  0  0  0  0  0  0  0  0  0
   -5.5251   -2.1205  -21.7250 C   0  0  0  0  0  0  0  0  0  0  0  0
   -6.2822   -2.5304  -20.4887 C   0  0  0  0  0  0  0  0  0  0  0  0
   -5.4403   -2.3249  -19.3292 N   0  0  0  0  0  0  0  0  0  0  0  0
   -5.6216   -0.6104  -18.9872 S   0  0  0  0  0  0  0  0  0  0  0  0
   -4.6541   -0.1416  -17.9656 O   0  0  0  0  0  0  0  0  0  0  0  0
   -7.0568   -0.4086  -18.6026 O   0  0  0  0  0  0  0  0  0  0  0  0
   -5.3216    0.1263  -20.5752 C   0  0  0  0  0  0  0  0  0  0  0  0
   -5.1083    1.4785  -20.5754 C   0  0  0  0  0  0  0  0  0  0  0  0
   -4.8457    2.1453  -21.7509 C   0  0  0  0  0  0  0  0  0  0  0  0
   -4.8092    1.3974  -22.9025 C   0  0  0  0  0  0  0  0  0  0  0  0
   -4.4740    2.2460  -24.4014 Cl  0  0  0  0  0  0  0  0  0  0  0  0
   -5.0256    0.0298  -22.8977 C   0  0  0  0  0  0  0  0  0  0  0  0
   -5.2951   -0.6634  -21.7088 C   0  0  0  0  0  0  0  0  0  0  0  0
   -4.4687   -2.5538  -19.5391 H   0  0  0  0  0  0  0  0  0  0  0  0
   -6.8895   -6.0252  -22.5882 C   0  0  0  0  0  0  0  0  0  0  0  0
   -7.4101   -6.0184  -23.9372 N   0  0  0  0  0  0  0  0  0  0  0  0
   -8.1681   -7.0121  -24.4052 N   0  0  0  0  0  0  0  0  0  0  0  0
   -8.5120   -6.7802  -25.6789 C   0  0  0  0  0  0  0  0  0  0  0  0
   -7.9226   -5.5717  -25.9921 C   0  0  0  0  0  0  0  0  0  0  0  0
   -7.9720   -4.8984  -27.1947 C   0  0  0  0  0  0  0  0  0  0  0  0
   -7.3164   -3.7432  -27.2720 N   0  0  0  0  0  0  0  0  0  0  0  0
   -6.6226   -3.2411  -26.2066 C   0  0  0  0  0  0  0  0  0  0  0  0
   -6.5520   -3.8847  -24.9939 C   0  0  0  0  0  0  0  0  0  0  0  0
   -7.2230   -5.0850  -24.8892 C   0  0  0  0  0  0  0  0  0  0  0  0
 19 20  1  0  0  0
 20 21  1  0  0  0
 21 22  2  0  0  0
 22 23  1  0  0  0
 23 24  2  0  0  0
 24 25  1  0  0  0
 25 26  2  0  0  0
 26 27  1  0  0  0
 27  1  1  0  0  0
 27 28  2  0  0  0
  1  2  1  0  0  0
  1  4  1  0  0  0
  2  3  2  0  0  0
  5  2  1  0  0  0
  5  6  1  0  0  0
  6  7  1  0  0  0
  7  8  1  0  0  0
  7 18  1  0  0  0
  8  9  2  0  0  0
  8 10  2  0  0  0
  8 11  1  0  0  0
 11 12  2  0  0  0
 12 13  1  0  0  0
 13 14  2  0  0  0
 14 15  1  0  0  0
 14 16  1  0  0  0
 16 17  2  0  0  0
 17  5  1  0  0  0
 17 11  1  0  0  0
 28 20  1  0  0  0
 28 23  1  0  0  0
M  END
> <minimizedAffinity>
-7.06809

> <CNNscore>
0.3454833627

> <CNNaffinity>
5.8223009109

> <CNN_VS>
2.0115079880

> <CNNaffinity_variance>
0.2555152178

$$$$



 28 31  0  0  0  0  0  0  0  0999 V2000
   -9.0411    0.0490  -23.5949 N   0  0  0  0  0  0  0  0  0  0  0  0
   -8.2014    0.3740  -22.4699 C   0  0  0  0  0  0  0  0  0  0  0  0
   -8.6408    0.7136  -21.3624 O   0  0  0  0  0  0  0  0  0  0  0  0
   -8.6068   -0.2069  -24.4405 H   0  0  0  0  0  0  0  0  0  0  0  0
   -6.7138    0.2981  -22.6460 C   0  0  0  0  0  0  0  0  0  0  0  0
   -6.2278   -0.5145  -21.4741 C   0  0  0  0  0  0  0  0  0  0  0  0
   -4.8195   -0.8003  -21.6487 N   0  0  0  0  0  0  0  0  0  0  0  0
   -4.0288    0.6641  -21.0831 S   0  0  0  0  0  0  0  0  0  0  0  0
   -2.5785    0.6682  -21.3929 O   0  0  0  0  0  0  0  0  0  0  0  0
   -4.3378    0.7694  -19.6196 O   0  0  0  0  0  0  0  0  0  0  0  0
   -4.9020    1.9321  -21.9686 C   0  0  0  0  0  0  0  0  0  0  0  0
   -4.3242    3.1731  -21.9587 C   0  0  0  0  0  0  0  0  0  0  0  0
   -4.9084    4.2222  -22.6321 C   0  0  0  0  0  0  0  0  0  0  0  0
   -6.0794    3.9642  -23.3023 C   0  0  0  0  0  0  0  0  0  0  0  0
   -6.8247    5.3005  -24.1613 Cl  0  0  0  0  0  0  0  0  0  0  0  0
   -6.6603    2.7074  -23.3095 C   0  0  0  0  0  0  0  0  0  0  0  0
   -6.0780    1.6291  -22.6279 C   0  0  0  0  0  0  0  0  0  0  0  0
   -4.6023   -0.9760  -22.6297 H   0  0  0  0  0  0  0  0  0  0  0  0
   -9.4684   -2.8619  -22.6172 C   0  0  0  0  0  0  0  0  0  0  0  0
  -10.7938   -2.3008  -22.7557 N   0  0  0  0  0  0  0  0  0  0  0  0
  -11.8917   -3.0133  -22.4950 N   0  0  0  0  0  0  0  0  0  0  0  0
  -12.9905   -2.2781  -22.7106 C   0  0  0  0  0  0  0  0  0  0  0  0
  -12.5200   -1.0485  -23.1262 C   0  0  0  0  0  0  0  0  0  0  0  0
  -13.2606    0.0594  -23.4811 C   0  0  0  0  0  0  0  0  0  0  0  0
  -12.5891    1.1433  -23.8610 N   0  0  0  0  0  0  0  0  0  0  0  0
  -11.2228    1.1624  -23.8988 C   0  0  0  0  0  0  0  0  0  0  0  0
  -10.4531    0.0773  -23.5521 C   0  0  0  0  0  0  0  0  0  0  0  0
  -11.1265   -1.0590  -23.1555 C   0  0  0  0  0  0  0  0  0  0  0  0
 19 20  1  0  0  0
 20 21  1  0  0  0
 21 22  2  0  0  0
 22 23  1  0  0  0
 23 24  2  0  0  0
 24 25  1  0  0  0
 25 26  2  0  0  0
 26 27  1  0  0  0
 27  1  1  0  0  0
 27 28  2  0  0  0
  1  2  1  0  0  0
  1  4  1  0  0  0
  2  3  2  0  0  0
  5  2  1  0  0  0
  5  6  1  0  0  0
  6  7  1  0  0  0
  7  8  1  0  0  0
  7 18  1  0  0  0
  8  9  2  0  0  0
  8 10  2  0  0  0
  8 11  1  0  0  0
 11 12  2  0  0  0
 12 13  1  0  0  0
 13 14  2  0  0  0
 14 15  1  0  0  0
 14 16  1  0  0  0
 16 17  2  0  0  0
 17  5  1  0  0  0
 17 11  1  0  0  0
 28 20  1  0  0  0
 28 23  1  0  0  0
M  END
> <minimizedAffinity>
-6.85766

> <CNNscore>
0.3082275689

> <CNNaffinity>
5.4921941757

> <CNN_VS>
1.6928457022

> <CNNaffinity_variance>
0.0460932553

$$$$



 28 31  0  0  0  0  0  0  0  0999 V2000
   -6.7983   -4.1730  -24.2632 N   0  0  0  0  0  0  0  0  0  0  0  0
   -7.1607   -3.4911  -23.0467 C   0  0  0  0  0  0  0  0  0  0  0  0
   -8.2664   -3.6067  -22.4997 O   0  0  0  0  0  0  0  0  0  0  0  0
   -5.8983   -4.0196  -24.6316 H   0  0  0  0  0  0  0  0  0  0  0  0
   -6.1465   -2.5915  -22.4050 C   0  0  0  0  0  0  0  0  0  0  0  0
   -5.9828   -3.1300  -21.0074 C   0  0  0  0  0  0  0  0  0  0  0  0
   -4.8875   -2.4395  -20.3603 N   0  0  0  0  0  0  0  0  0  0  0  0
   -5.6181   -0.9422  -19.8000 S   0  0  0  0  0  0  0  0  0  0  0  0
   -4.6041    0.0205  -19.3056 O   0  0  0  0  0  0  0  0  0  0  0  0
   -6.6379   -1.3318  -18.7721 O   0  0  0  0  0  0  0  0  0  0  0  0
   -6.4396   -0.3523  -21.2599 C   0  0  0  0  0  0  0  0  0  0  0  0
   -6.8649    0.9484  -21.2213 C   0  0  0  0  0  0  0  0  0  0  0  0
   -7.4947    1.5111  -22.3085 C   0  0  0  0  0  0  0  0  0  0  0  0
   -7.6709    0.7148  -23.4139 C   0  0  0  0  0  0  0  0  0  0  0  0
   -8.4731    1.4311  -24.8005 Cl  0  0  0  0  0  0  0  0  0  0  0  0
   -7.2393   -0.6003  -23.4485 C   0  0  0  0  0  0  0  0  0  0  0  0
   -6.5971   -1.1879  -22.3490 C   0  0  0  0  0  0  0  0  0  0  0  0
   -4.1336   -2.2520  -21.0212 H   0  0  0  0  0  0  0  0  0  0  0  0
   -7.6937   -2.1869  -26.4691 C   0  0  0  0  0  0  0  0  0  0  0  0
   -8.3901   -3.4218  -26.7531 N   0  0  0  0  0  0  0  0  0  0  0  0
   -9.2313   -3.5359  -27.7828 N   0  0  0  0  0  0  0  0  0  0  0  0
   -9.7574   -4.7670  -27.8249 C   0  0  0  0  0  0  0  0  0  0  0  0
   -9.1953   -5.4310  -26.7530 C   0  0  0  0  0  0  0  0  0  0  0  0
   -9.4215   -6.7326  -26.3572 C   0  0  0  0  0  0  0  0  0  0  0  0
   -8.7702   -7.1622  -25.2794 N   0  0  0  0  0  0  0  0  0  0  0  0
   -7.9118   -6.3511  -24.5911 C   0  0  0  0  0  0  0  0  0  0  0  0
   -7.6625   -5.0496  -24.9569 C   0  0  0  0  0  0  0  0  0  0  0  0
   -8.3267   -4.5807  -26.0708 C   0  0  0  0  0  0  0  0  0  0  0  0
 19 20  1  0  0  0
 20 21  1  0  0  0
 21 22  2  0  0  0
 22 23  1  0  0  0
 23 24  2  0  0  0
 24 25  1  0  0  0
 25 26  2  0  0  0
 26 27  1  0  0  0
 27  1  1  0  0  0
 27 28  2  0  0  0
  1  2  1  0  0  0
  1  4  1  0  0  0
  2  3  2  0  0  0
  5  2  1  0  0  0
  5  6  1  0  0  0
  6  7  1  0  0  0
  7  8  1  0  0  0
  7 18  1  0  0  0
  8  9  2  0  0  0
  8 10  2  0  0  0
  8 11  1  0  0  0
 11 12  2  0  0  0
 12 13  1  0  0  0
 13 14  2  0  0  0
 14 15  1  0  0  0
 14 16  1  0  0  0
 16 17  2  0  0  0
 17  5  1  0  0  0
 17 11  1  0  0  0
 28 20  1  0  0  0
 28 23  1  0  0  0
M  END
> <minimizedAffinity>
-6.68154

> <CNNscore>
0.2588073909

> <CNNaffinity>
5.6413936615

> <CNN_VS>
1.4600343704

> <CNNaffinity_variance>
0.2921844721

$$$$



 28 31  0  0  0  0  0  0  0  0999 V2000
   -9.9902   -2.6336  -23.1913 N   0  0  0  0  0  0  0  0  0  0  0  0
   -9.4585   -3.1515  -24.4264 C   0  0  0  0  0  0  0  0  0  0  0  0
  -10.0796   -3.1395  -25.4983 O   0  0  0  0  0  0  0  0  0  0  0  0
   -9.4287   -2.6879  -22.3845 H   0  0  0  0  0  0  0  0  0  0  0  0
   -8.0779   -3.7380  -24.4172 C   0  0  0  0  0  0  0  0  0  0  0  0
   -8.2926   -5.2289  -24.3854 C   0  0  0  0  0  0  0  0  0  0  0  0
   -7.0182   -5.8935  -24.5577 N   0  0  0  0  0  0  0  0  0  0  0  0
   -6.3171   -5.8642  -22.9462 S   0  0  0  0  0  0  0  0  0  0  0  0
   -4.8981   -6.2954  -22.9491 O   0  0  0  0  0  0  0  0  0  0  0  0
   -7.2074   -6.7099  -22.0857 O   0  0  0  0  0  0  0  0  0  0  0  0
   -6.4928   -4.1573  -22.4878 C   0  0  0  0  0  0  0  0  0  0  0  0
   -5.7768   -3.7566  -21.3919 C   0  0  0  0  0  0  0  0  0  0  0  0
   -5.8255   -2.4490  -20.9642 C   0  0  0  0  0  0  0  0  0  0  0  0
   -6.6150   -1.5827  -21.6807 C   0  0  0  0  0  0  0  0  0  0  0  0
   -6.6774    0.0844  -21.1368 Cl  0  0  0  0  0  0  0  0  0  0  0  0
   -7.3376   -1.9924  -22.7885 C   0  0  0  0  0  0  0  0  0  0  0  0
   -7.2990   -3.3209  -23.2360 C   0  0  0  0  0  0  0  0  0  0  0  0
   -6.4301   -5.3878  -25.2201 H   0  0  0  0  0  0  0  0  0  0  0  0
   -9.2196    0.2222  -24.1202 C   0  0  0  0  0  0  0  0  0  0  0  0
  -10.6353    0.2771  -23.8310 N   0  0  0  0  0  0  0  0  0  0  0  0
  -11.3393    1.4027  -23.9670 N   0  0  0  0  0  0  0  0  0  0  0  0
  -12.6189    1.1998  -23.6267 C   0  0  0  0  0  0  0  0  0  0  0  0
  -12.6842   -0.1308  -23.2647 C   0  0  0  0  0  0  0  0  0  0  0  0
  -13.7890   -0.8300  -22.8259 C   0  0  0  0  0  0  0  0  0  0  0  0
  -13.6149   -2.1137  -22.5224 N   0  0  0  0  0  0  0  0  0  0  0  0
  -12.3944   -2.7179  -22.6398 C   0  0  0  0  0  0  0  0  0  0  0  0
  -11.2726   -2.0522  -23.0736 C   0  0  0  0  0  0  0  0  0  0  0  0
  -11.4274   -0.7198  -23.3936 C   0  0  0  0  0  0  0  0  0  0  0  0
 19 20  1  0  0  0
 20 21  1  0  0  0
 21 22  2  0  0  0
 22 23  1  0  0  0
 23 24  2  0  0  0
 24 25  1  0  0  0
 25 26  2  0  0  0
 26 27  1  0  0  0
 27  1  1  0  0  0
 27 28  2  0  0  0
  1  2  1  0  0  0
  1  4  1  0  0  0
  2  3  2  0  0  0
  5  2  1  0  0  0
  5  6  1  0  0  0
  6  7  1  0  0  0
  7  8  1  0  0  0
  7 18  1  0  0  0
  8  9  2  0  0  0
  8 10  2  0  0  0
  8 11  1  0  0  0
 11 12  2  0  0  0
 12 13  1  0  0  0
 13 14  2  0  0  0
 14 15  1  0  0  0
 14 16  1  0  0  0
 16 17  2  0  0  0
 17  5  1  0  0  0
 17 11  1  0  0  0
 28 20  1  0  0  0
 28 23  1  0  0  0
M  END
> <minimizedAffinity>
-7.04373

> <CNNscore>
0.2356734574

> <CNNaffinity>
5.5635628700

> <CNN_VS>
1.3111840487

> <CNNaffinity_variance>
0.2056789696

$$$$



 42 47  0  0  0  0  0  0  0  0999 V2000
   -9.4877    2.1584  -24.4366 N   0  0  0  0  0  0  0  0  0  0  0  0
   -8.8321    0.8971  -24.7059 C   0  0  0  0  0  0  0  0  0  0  0  0
   -9.1727   -0.1336  -23.6516 C   0  0  0  0  0  0  0  0  0  0  0  0
   -8.4971    0.3759  -22.4017 C   0  0  0  0  0  0  0  0  0  0  0  0
   -8.5833    1.5367  -21.9088 O   0  0  0  0  0  0  0  0  0  0  0  0
   -7.7179   -0.6661  -21.8271 N   0  0  0  0  0  0  0  0  0  0  0  0
   -7.8533   -1.8729  -22.6061 C   0  0  0  0  0  0  0  0  0  0  0  0
   -8.5368   -1.4511  -23.8933 C   0  0  0  0  0  0  0  0  0  0  0  0
  -10.6263   -0.1690  -23.4887 C   0  0  0  0  0  0  0  0  0  0  0  0
  -11.2334   -1.3368  -23.0149 C   0  0  0  0  0  0  0  0  0  0  0  0
  -12.5994   -1.4271  -22.8371 C   0  0  0  0  0  0  0  0  0  0  0  0
  -13.3572   -2.9026  -22.2395 Cl  0  0  0  0  0  0  0  0  0  0  0  0
  -13.4271   -0.3600  -23.1219 C   0  0  0  0  0  0  0  0  0  0  0  0
  -12.8503    0.8022  -23.5904 C   0  0  0  0  0  0  0  0  0  0  0  0
  -11.4835    0.8758  -23.7627 C   0  0  0  0  0  0  0  0  0  0  0  0
  -10.9060    2.1196  -24.2653 C   0  0  0  0  0  0  0  0  0  0  0  0
  -11.5835    3.1366  -24.5484 O   0  0  0  0  0  0  0  0  0  0  0  0
   -6.9205   -0.5440  -20.6578 C   0  0  0  0  0  0  0  0  0  0  0  0
   -7.3168   -1.1749  -19.4946 C   0  0  0  0  0  0  0  0  0  0  0  0
   -6.6125   -1.1037  -18.3494 N   0  0  0  0  0  0  0  0  0  0  0  0
   -5.4666   -0.3813  -18.3428 C   0  0  0  0  0  0  0  0  0  0  0  0
   -5.0215    0.2719  -19.4797 C   0  0  0  0  0  0  0  0  0  0  0  0
   -3.8444    1.0179  -19.4844 C   0  0  0  0  0  0  0  0  0  0  0  0
   -3.4078    1.6662  -20.6235 C   0  0  0  0  0  0  0  0  0  0  0  0
   -4.1473    1.5820  -21.7963 C   0  0  0  0  0  0  0  0  0  0  0  0
   -5.3178    0.8395  -21.7893 C   0  0  0  0  0  0  0  0  0  0  0  0
   -5.7521    0.1937  -20.6540 C   0  0  0  0  0  0  0  0  0  0  0  0
   -8.7437    3.3969  -24.3489 C   0  0  0  0  0  0  0  0  0  0  0  0
   -9.3601    5.3795  -27.6461 C   0  0  0  0  0  0  0  0  0  0  0  0
   -9.5605    4.7919  -26.3323 N   0  0  0  0  0  0  0  0  0  0  0  0
   -8.5531    4.0096  -25.7029 C   0  0  0  0  0  0  0  0  0  0  0  0
   -7.4756    3.8323  -26.3067 O   0  0  0  0  0  0  0  0  0  0  0  0
  -10.4151    4.9391  -25.8661 H   0  0  0  0  0  0  0  0  0  0  0  0
   -7.4361   -1.4059  -24.9360 C   0  0  0  0  0  0  0  0  0  0  0  0
   -7.7540   -2.4398  -25.9118 N   0  0  0  0  0  0  0  0  0  0  0  0
   -7.9144   -2.1795  -26.8477 H   0  0  0  0  0  0  0  0  0  0  0  0
   -7.8388   -3.7972  -25.5586 C   0  0  0  0  0  0  0  0  0  0  0  0
   -6.3905   -4.8795  -25.2730 S   0  0  0  0  0  0  0  0  0  0  0  0
   -7.5503   -6.3565  -24.8913 C   0  0  0  0  0  0  0  0  0  0  0  0
   -8.5590   -5.8572  -25.0239 N   0  0  0  0  0  0  0  0  0  0  0  0
   -8.8926   -4.6345  -25.3432 C   0  0  0  0  0  0  0  0  0  0  0  0
  -10.3229   -4.1676  -25.4690 C   0  0  0  0  0  0  0  0  0  0  0  0
 29 30  1  0  0  0
 30 31  1  0  0  0
 30 33  1  0  0  0
 31 32  2  0  0  0
 31 28  1  0  0  0
 28  1  1  0  0  0
  1  2  1  0  0  0
  3  2  1  0  0  0
  3  4  1  0  0  0
  3  9  1  0  0  0
  4  5  2  0  0  0
  4  6  1  0  0  0
  6 18  1  0  0  0
  6  7  1  0  0  0
 18 19  2  0  0  0
 19 20  1  0  0  0
 20 21  2  0  0  0
 21 22  1  0  0  0
 22 23  2  0  0  0
 23 24  1  0  0  0
 24 25  2  0  0  0
 25 26  1  0  0  0
 26 27  2  0  0  0
 27 18  1  0  0  0
 27 22  1  0  0  0
  7  8  1  0  0  0
  8 34  1  0  0  0
  8  3  1  0  0  0
 34 35  1  0  0  0
 35 37  1  0  0  0
 35 36  1  0  0  0
 37 38  1  0  0  0
 38 39  1  0  0  0
 39 40  2  0  0  0
 40 41  1  0  0  0
 41 42  1  0  0  0
 41 37  2  0  0  0
  9 10  2  0  0  0
 10 11  1  0  0  0
 11 12  1  0  0  0
 11 13  2  0  0  0
 13 14  1  0  0  0
 14 15  2  0  0  0
 15 16  1  0  0  0
 15  9  1  0  0  0
 16 17  2  0  0  0
 16  1  1  0  0  0
M  END
> <minimizedAffinity>
-8.85887

> <CNNscore>
0.4749303162

> <CNNaffinity>
6.9849023819

> <CNN_VS>
3.3173418045

> <CNNaffinity_variance>
0.1174147576

$$$$



 42 47  0  0  0  0  0  0  0  0999 V2000
   -5.3470   -1.6039  -21.6138 N   0  0  0  0  0  0  0  0  0  0  0  0
   -5.6960   -2.2560  -22.8572 C   0  0  0  0  0  0  0  0  0  0  0  0
   -6.5477   -1.3573  -23.7271 C   0  0  0  0  0  0  0  0  0  0  0  0
   -7.8570   -1.2524  -22.9834 C   0  0  0  0  0  0  0  0  0  0  0  0
   -8.0196   -0.9496  -21.7670 O   0  0  0  0  0  0  0  0  0  0  0  0
   -8.9291   -1.5518  -23.8688 N   0  0  0  0  0  0  0  0  0  0  0  0
   -8.4184   -1.8252  -25.1902 C   0  0  0  0  0  0  0  0  0  0  0  0
   -6.9180   -1.9758  -25.0228 C   0  0  0  0  0  0  0  0  0  0  0  0
   -5.8929   -0.0528  -23.8291 C   0  0  0  0  0  0  0  0  0  0  0  0
   -6.1458    0.7543  -24.9433 C   0  0  0  0  0  0  0  0  0  0  0  0
   -5.5603    1.9958  -25.0914 C   0  0  0  0  0  0  0  0  0  0  0  0
   -5.8840    3.0072  -26.4987 Cl  0  0  0  0  0  0  0  0  0  0  0  0
   -4.6953    2.4938  -24.1383 C   0  0  0  0  0  0  0  0  0  0  0  0
   -4.4311    1.7151  -23.0307 C   0  0  0  0  0  0  0  0  0  0  0  0
   -5.0244    0.4767  -22.8982 C   0  0  0  0  0  0  0  0  0  0  0  0
   -4.7189   -0.3243  -21.7156 C   0  0  0  0  0  0  0  0  0  0  0  0
   -3.9458    0.0511  -20.8019 O   0  0  0  0  0  0  0  0  0  0  0  0
  -10.3038   -1.5796  -23.5118 C   0  0  0  0  0  0  0  0  0  0  0  0
  -10.8808   -2.7710  -23.1174 C   0  0  0  0  0  0  0  0  0  0  0  0
  -12.1762   -2.8732  -22.7653 N   0  0  0  0  0  0  0  0  0  0  0  0
  -12.9425   -1.7567  -22.8008 C   0  0  0  0  0  0  0  0  0  0  0  0
  -12.4170   -0.5356  -23.1883 C   0  0  0  0  0  0  0  0  0  0  0  0
  -13.1957    0.6193  -23.2287 C   0  0  0  0  0  0  0  0  0  0  0  0
  -12.6630    1.8335  -23.6165 C   0  0  0  0  0  0  0  0  0  0  0  0
  -11.3242    1.9203  -23.9767 C   0  0  0  0  0  0  0  0  0  0  0  0
  -10.5514    0.7704  -23.9357 C   0  0  0  0  0  0  0  0  0  0  0  0
  -11.0830   -0.4391  -23.5492 C   0  0  0  0  0  0  0  0  0  0  0  0
   -5.6177   -2.2195  -20.3321 C   0  0  0  0  0  0  0  0  0  0  0  0
   -5.4106    0.2843  -17.3538 C   0  0  0  0  0  0  0  0  0  0  0  0
   -5.0443   -0.7138  -18.3443 N   0  0  0  0  0  0  0  0  0  0  0  0
   -5.9791   -1.1908  -19.3043 C   0  0  0  0  0  0  0  0  0  0  0  0
   -7.1389   -0.7311  -19.2827 O   0  0  0  0  0  0  0  0  0  0  0  0
   -4.1261   -1.0688  -18.3511 H   0  0  0  0  0  0  0  0  0  0  0  0
   -6.6565   -3.4690  -25.0735 C   0  0  0  0  0  0  0  0  0  0  0  0
   -7.3061   -3.9576  -26.2824 N   0  0  0  0  0  0  0  0  0  0  0  0
   -7.2779   -3.4041  -27.0962 H   0  0  0  0  0  0  0  0  0  0  0  0
   -7.9718   -5.1945  -26.3229 C   0  0  0  0  0  0  0  0  0  0  0  0
   -9.7662   -5.4083  -26.0317 S   0  0  0  0  0  0  0  0  0  0  0  0
   -9.6007   -7.2979  -26.3037 C   0  0  0  0  0  0  0  0  0  0  0  0
   -8.4889   -7.3728  -26.5108 N   0  0  0  0  0  0  0  0  0  0  0  0
   -7.5476   -6.4676  -26.5617 C   0  0  0  0  0  0  0  0  0  0  0  0
   -6.1018   -6.7857  -26.8587 C   0  0  0  0  0  0  0  0  0  0  0  0
 29 30  1  0  0  0
 30 31  1  0  0  0
 30 33  1  0  0  0
 31 32  2  0  0  0
 31 28  1  0  0  0
 28  1  1  0  0  0
  1  2  1  0  0  0
  3  2  1  0  0  0
  3  4  1  0  0  0
  3  9  1  0  0  0
  4  5  2  0  0  0
  4  6  1  0  0  0
  6 18  1  0  0  0
  6  7  1  0  0  0
 18 19  2  0  0  0
 19 20  1  0  0  0
 20 21  2  0  0  0
 21 22  1  0  0  0
 22 23  2  0  0  0
 23 24  1  0  0  0
 24 25  2  0  0  0
 25 26  1  0  0  0
 26 27  2  0  0  0
 27 18  1  0  0  0
 27 22  1  0  0  0
  7  8  1  0  0  0
  8 34  1  0  0  0
  8  3  1  0  0  0
 34 35  1  0  0  0
 35 37  1  0  0  0
 35 36  1  0  0  0
 37 38  1  0  0  0
 38 39  1  0  0  0
 39 40  2  0  0  0
 40 41  1  0  0  0
 41 42  1  0  0  0
 41 37  2  0  0  0
  9 10  2  0  0  0
 10 11  1  0  0  0
 11 12  1  0  0  0
 11 13  2  0  0  0
 13 14  1  0  0  0
 14 15  2  0  0  0
 15 16  1  0  0  0
 15  9  1  0  0  0
 16 17  2  0  0  0
 16  1  1  0  0  0
M  END
> <minimizedAffinity>
-8.55349

> <CNNscore>
0.3988408446

> <CNNaffinity>
6.7691841125

> <CNN_VS>
2.6998271942

> <CNNaffinity_variance>
0.3476633132

$$$$



 42 47  0  0  0  0  0  0  0  0999 V2000
   -7.0094   -1.1375  -21.9056 N   0  0  0  0  0  0  0  0  0  0  0  0
   -6.9129    0.3060  -21.9135 C   0  0  0  0  0  0  0  0  0  0  0  0
   -5.9452    0.7847  -22.9739 C   0  0  0  0  0  0  0  0  0  0  0  0
   -4.5950    0.3257  -22.4794 C   0  0  0  0  0  0  0  0  0  0  0  0
   -4.2770   -0.8388  -22.1044 O   0  0  0  0  0  0  0  0  0  0  0  0
   -3.6890    1.4222  -22.4915 N   0  0  0  0  0  0  0  0  0  0  0  0
   -4.3459    2.6016  -23.0005 C   0  0  0  0  0  0  0  0  0  0  0  0
   -5.8241    2.2614  -23.0329 C   0  0  0  0  0  0  0  0  0  0  0  0
   -6.2894    0.1412  -24.2420 C   0  0  0  0  0  0  0  0  0  0  0  0
   -5.9421    0.7676  -25.4435 C   0  0  0  0  0  0  0  0  0  0  0  0
   -6.2370    0.2059  -26.6697 C   0  0  0  0  0  0  0  0  0  0  0  0
   -5.7961    1.0018  -28.1798 Cl  0  0  0  0  0  0  0  0  0  0  0  0
   -6.8913   -1.0059  -26.7593 C   0  0  0  0  0  0  0  0  0  0  0  0
   -7.2436   -1.6421  -25.5871 C   0  0  0  0  0  0  0  0  0  0  0  0
   -6.9416   -1.0670  -24.3700 C   0  0  0  0  0  0  0  0  0  0  0  0
   -7.3333   -1.7648  -23.1482 C   0  0  0  0  0  0  0  0  0  0  0  0
   -7.9295   -2.8684  -23.1381 O   0  0  0  0  0  0  0  0  0  0  0  0
   -2.3346    1.3713  -22.0662 C   0  0  0  0  0  0  0  0  0  0  0  0
   -2.0211    1.6712  -20.7548 C   0  0  0  0  0  0  0  0  0  0  0  0
   -0.7612    1.6439  -20.2811 N   0  0  0  0  0  0  0  0  0  0  0  0
    0.2385    1.3072  -21.1310 C   0  0  0  0  0  0  0  0  0  0  0  0
   -0.0177    0.9971  -22.4559 C   0  0  0  0  0  0  0  0  0  0  0  0
    1.0026    0.6495  -23.3392 C   0  0  0  0  0  0  0  0  0  0  0  0
    0.7378    0.3415  -24.6595 C   0  0  0  0  0  0  0  0  0  0  0  0
   -0.5683    0.3748  -25.1311 C   0  0  0  0  0  0  0  0  0  0  0  0
   -1.5817    0.7209  -24.2510 C   0  0  0  0  0  0  0  0  0  0  0  0
   -1.3170    1.0276  -22.9354 C   0  0  0  0  0  0  0  0  0  0  0  0
   -6.7920   -1.9060  -20.6985 C   0  0  0  0  0  0  0  0  0  0  0  0
   -4.8373    0.3068  -18.1559 C   0  0  0  0  0  0  0  0  0  0  0  0
   -5.1400   -0.5594  -19.2827 N   0  0  0  0  0  0  0  0  0  0  0  0
   -6.4631   -1.0128  -19.5413 C   0  0  0  0  0  0  0  0  0  0  0  0
   -7.3760   -0.6491  -18.7725 O   0  0  0  0  0  0  0  0  0  0  0  0
   -4.4110   -0.8394  -19.8822 H   0  0  0  0  0  0  0  0  0  0  0  0
   -6.4239    2.9631  -21.8293 C   0  0  0  0  0  0  0  0  0  0  0  0
   -7.4599    3.8477  -22.3454 N   0  0  0  0  0  0  0  0  0  0  0  0
   -7.7604    4.6044  -21.7918 H   0  0  0  0  0  0  0  0  0  0  0  0
   -8.0435    3.6544  -23.6089 C   0  0  0  0  0  0  0  0  0  0  0  0
   -9.3946    2.4671  -23.9486 S   0  0  0  0  0  0  0  0  0  0  0  0
   -9.4059    2.9844  -25.7936 C   0  0  0  0  0  0  0  0  0  0  0  0
   -8.5836    3.7644  -25.7870 N   0  0  0  0  0  0  0  0  0  0  0  0
   -7.8183    4.2178  -24.8295 C   0  0  0  0  0  0  0  0  0  0  0  0
   -6.7644    5.2787  -25.0378 C   0  0  0  0  0  0  0  0  0  0  0  0
 29 30  1  0  0  0
 30 31  1  0  0  0
 30 33  1  0  0  0
 31 32  2  0  0  0
 31 28  1  0  0  0
 28  1  1  0  0  0
  1  2  1  0  0  0
  3  2  1  0  0  0
  3  4  1  0  0  0
  3  9  1  0  0  0
  4  5  2  0  0  0
  4  6  1  0  0  0
  6 18  1  0  0  0
  6  7  1  0  0  0
 18 19  2  0  0  0
 19 20  1  0  0  0
 20 21  2  0  0  0
 21 22  1  0  0  0
 22 23  2  0  0  0
 23 24  1  0  0  0
 24 25  2  0  0  0
 25 26  1  0  0  0
 26 27  2  0  0  0
 27 18  1  0  0  0
 27 22  1  0  0  0
  7  8  1  0  0  0
  8 34  1  0  0  0
  8  3  1  0  0  0
 34 35  1  0  0  0
 35 37  1  0  0  0
 35 36  1  0  0  0
 37 38  1  0  0  0
 38 39  1  0  0  0
 39 40  2  0  0  0
 40 41  1  0  0  0
 41 42  1  0  0  0
 41 37  2  0  0  0
  9 10  2  0  0  0
 10 11  1  0  0  0
 11 12  1  0  0  0
 11 13  2  0  0  0
 13 14  1  0  0  0
 14 15  2  0  0  0
 15 16  1  0  0  0
 15  9  1  0  0  0
 16 17  2  0  0  0
 16  1  1  0  0  0
M  END
> <minimizedAffinity>
-6.38069

> <CNNscore>
0.2944302559

> <CNNaffinity>
6.3148622513

> <CNN_VS>
1.8592865467

> <CNNaffinity_variance>
0.0783797503

$$$$



 42 47  0  0  0  0  0  0  0  0999 V2000
   -6.7465   -2.2955  -26.6168 N   0  0  0  0  0  0  0  0  0  0  0  0
   -6.5267   -1.8376  -25.2621 C   0  0  0  0  0  0  0  0  0  0  0  0
   -7.2394   -2.7222  -24.2623 C   0  0  0  0  0  0  0  0  0  0  0  0
   -8.7046   -2.4574  -24.5099 C   0  0  0  0  0  0  0  0  0  0  0  0
   -9.3080   -2.4941  -25.6200 O   0  0  0  0  0  0  0  0  0  0  0  0
   -9.3442   -2.1483  -23.2776 N   0  0  0  0  0  0  0  0  0  0  0  0
   -8.3935   -2.2201  -22.1947 C   0  0  0  0  0  0  0  0  0  0  0  0
   -7.0303   -2.3028  -22.8555 C   0  0  0  0  0  0  0  0  0  0  0  0
   -6.8991   -4.1160  -24.5493 C   0  0  0  0  0  0  0  0  0  0  0  0
   -6.9621   -5.0614  -23.5203 C   0  0  0  0  0  0  0  0  0  0  0  0
   -6.6568   -6.3909  -23.7329 C   0  0  0  0  0  0  0  0  0  0  0  0
   -6.7384   -7.5766  -22.4307 Cl  0  0  0  0  0  0  0  0  0  0  0  0
   -6.2745   -6.8436  -24.9793 C   0  0  0  0  0  0  0  0  0  0  0  0
   -6.2054   -5.9288  -26.0096 C   0  0  0  0  0  0  0  0  0  0  0  0
   -6.5136   -4.6038  -25.7801 C   0  0  0  0  0  0  0  0  0  0  0  0
   -6.4253   -3.6606  -26.8918 C   0  0  0  0  0  0  0  0  0  0  0  0
   -6.0873   -3.9862  -28.0551 O   0  0  0  0  0  0  0  0  0  0  0  0
  -10.7172   -1.8164  -23.1272 C   0  0  0  0  0  0  0  0  0  0  0  0
  -11.6182   -2.7966  -22.7591 C   0  0  0  0  0  0  0  0  0  0  0  0
  -12.9329   -2.5559  -22.5978 N   0  0  0  0  0  0  0  0  0  0  0  0
  -13.3867   -1.2968  -22.8065 C   0  0  0  0  0  0  0  0  0  0  0  0
  -12.5288   -0.2751  -23.1770 C   0  0  0  0  0  0  0  0  0  0  0  0
  -12.9844    1.0238  -23.3944 C   0  0  0  0  0  0  0  0  0  0  0  0
  -12.1211    2.0371  -23.7637 C   0  0  0  0  0  0  0  0  0  0  0  0
  -10.7676    1.7706  -23.9257 C   0  0  0  0  0  0  0  0  0  0  0  0
  -10.3164    0.4780  -23.7089 C   0  0  0  0  0  0  0  0  0  0  0  0
  -11.1772   -0.5311  -23.3409 C   0  0  0  0  0  0  0  0  0  0  0  0
   -7.2623   -1.4132  -27.6417 C   0  0  0  0  0  0  0  0  0  0  0  0
   -6.1107    2.2322  -26.8884 C   0  0  0  0  0  0  0  0  0  0  0  0
   -6.1085    0.8504  -27.3380 N   0  0  0  0  0  0  0  0  0  0  0  0
   -7.2481    0.0134  -27.1837 C   0  0  0  0  0  0  0  0  0  0  0  0
   -8.2678    0.4921  -26.6471 O   0  0  0  0  0  0  0  0  0  0  0  0
   -5.2978    0.4843  -27.7599 H   0  0  0  0  0  0  0  0  0  0  0  0
   -6.4353   -0.9138  -22.7235 C   0  0  0  0  0  0  0  0  0  0  0  0
   -5.2118   -1.0646  -21.9473 N   0  0  0  0  0  0  0  0  0  0  0  0
   -4.4355   -1.5065  -22.3613 H   0  0  0  0  0  0  0  0  0  0  0  0
   -5.1055   -0.5989  -20.6258 C   0  0  0  0  0  0  0  0  0  0  0  0
   -6.0773   -1.2563  -19.2208 S   0  0  0  0  0  0  0  0  0  0  0  0
   -5.2175   -0.0252  -18.0303 C   0  0  0  0  0  0  0  0  0  0  0  0
   -4.5318    0.5092  -18.7574 N   0  0  0  0  0  0  0  0  0  0  0  0
   -4.3418    0.3680  -20.0427 C   0  0  0  0  0  0  0  0  0  0  0  0
   -3.3616    1.1985  -20.8358 C   0  0  0  0  0  0  0  0  0  0  0  0
 29 30  1  0  0  0
 30 31  1  0  0  0
 30 33  1  0  0  0
 31 32  2  0  0  0
 31 28  1  0  0  0
 28  1  1  0  0  0
  1  2  1  0  0  0
  3  2  1  0  0  0
  3  4  1  0  0  0
  3  9  1  0  0  0
  4  5  2  0  0  0
  4  6  1  0  0  0
  6 18  1  0  0  0
  6  7  1  0  0  0
 18 19  2  0  0  0
 19 20  1  0  0  0
 20 21  2  0  0  0
 21 22  1  0  0  0
 22 23  2  0  0  0
 23 24  1  0  0  0
 24 25  2  0  0  0
 25 26  1  0  0  0
 26 27  2  0  0  0
 27 18  1  0  0  0
 27 22  1  0  0  0
  7  8  1  0  0  0
  8 34  1  0  0  0
  8  3  1  0  0  0
 34 35  1  0  0  0
 35 37  1  0  0  0
 35 36  1  0  0  0
 37 38  1  0  0  0
 38 39  1  0  0  0
 39 40  2  0  0  0
 40 41  1  0  0  0
 41 42  1  0  0  0
 41 37  2  0  0  0
  9 10  2  0  0  0
 10 11  1  0  0  0
 11 12  1  0  0  0
 11 13  2  0  0  0
 13 14  1  0  0  0
 14 15  2  0  0  0
 15 16  1  0  0  0
 15  9  1  0  0  0
 16 17  2  0  0  0
 16  1  1  0  0  0
M  END
> <minimizedAffinity>
-8.85222

> <CNNscore>
0.2848246098

> <CNNaffinity>
6.5509233475

> <CNN_VS>
1.8658641577

> <CNNaffinity_variance>
0.5991072655

$$$$



 42 47  0  0  0  0  0  0  0  0999 V2000
   -5.6966   -2.0694  -21.5757 N   0  0  0  0  0  0  0  0  0  0  0  0
   -6.1316   -2.8542  -22.7106 C   0  0  0  0  0  0  0  0  0  0  0  0
   -6.9068   -2.0081  -23.6971 C   0  0  0  0  0  0  0  0  0  0  0  0
   -8.1850   -1.6670  -22.9704 C   0  0  0  0  0  0  0  0  0  0  0  0
   -8.2939   -1.1786  -21.8096 O   0  0  0  0  0  0  0  0  0  0  0  0
   -9.2980   -1.9807  -23.7986 N   0  0  0  0  0  0  0  0  0  0  0  0
   -8.8418   -2.4901  -25.0691 C   0  0  0  0  0  0  0  0  0  0  0  0
   -7.3607   -2.7652  -24.8885 C   0  0  0  0  0  0  0  0  0  0  0  0
   -6.1284   -0.8040  -23.9890 C   0  0  0  0  0  0  0  0  0  0  0  0
   -6.3214   -0.1432  -25.2068 C   0  0  0  0  0  0  0  0  0  0  0  0
   -5.6191    0.9992  -25.5349 C   0  0  0  0  0  0  0  0  0  0  0  0
   -5.8678    1.8264  -27.0718 Cl  0  0  0  0  0  0  0  0  0  0  0  0
   -4.6912    1.5390  -24.6674 C   0  0  0  0  0  0  0  0  0  0  0  0
   -4.4843    0.9040  -23.4603 C   0  0  0  0  0  0  0  0  0  0  0  0
   -5.1944   -0.2368  -23.1480 C   0  0  0  0  0  0  0  0  0  0  0  0
   -4.9472   -0.8870  -21.8637 C   0  0  0  0  0  0  0  0  0  0  0  0
   -4.1237   -0.4644  -21.0172 O   0  0  0  0  0  0  0  0  0  0  0  0
  -10.6617   -1.8190  -23.4352 C   0  0  0  0  0  0  0  0  0  0  0  0
  -11.3819   -2.9106  -22.9905 C   0  0  0  0  0  0  0  0  0  0  0  0
  -12.6764   -2.8328  -22.6293 N   0  0  0  0  0  0  0  0  0  0  0  0
  -13.2948   -1.6301  -22.7068 C   0  0  0  0  0  0  0  0  0  0  0  0
  -12.6219   -0.5023  -23.1456 C   0  0  0  0  0  0  0  0  0  0  0  0
  -13.2479    0.7400  -23.2295 C   0  0  0  0  0  0  0  0  0  0  0  0
  -12.5686    1.8600  -23.6682 C   0  0  0  0  0  0  0  0  0  0  0  0
  -11.2331    1.7613  -24.0371 C   0  0  0  0  0  0  0  0  0  0  0  0
  -10.6124    0.5248  -23.9528 C   0  0  0  0  0  0  0  0  0  0  0  0
  -11.2899   -0.5908  -23.5155 C   0  0  0  0  0  0  0  0  0  0  0  0
   -6.0025   -2.4650  -20.2174 C   0  0  0  0  0  0  0  0  0  0  0  0
   -5.3230    0.3083  -17.5663 C   0  0  0  0  0  0  0  0  0  0  0  0
   -5.1512   -0.8543  -18.4208 N   0  0  0  0  0  0  0  0  0  0  0  0
   -6.1637   -1.2689  -19.3296 C   0  0  0  0  0  0  0  0  0  0  0  0
   -7.2203   -0.6074  -19.3830 O   0  0  0  0  0  0  0  0  0  0  0  0
   -4.3129   -1.3680  -18.3694 H   0  0  0  0  0  0  0  0  0  0  0  0
   -7.2489   -4.2689  -24.7245 C   0  0  0  0  0  0  0  0  0  0  0  0
   -6.6061   -4.7658  -25.9337 N   0  0  0  0  0  0  0  0  0  0  0  0
   -7.1432   -4.8666  -26.7526 H   0  0  0  0  0  0  0  0  0  0  0  0
   -5.2430   -5.1058  -25.9672 C   0  0  0  0  0  0  0  0  0  0  0  0
   -4.5908   -6.7812  -25.6237 S   0  0  0  0  0  0  0  0  0  0  0  0
   -2.8017   -6.1622  -25.9210 C   0  0  0  0  0  0  0  0  0  0  0  0
   -3.0050   -5.0738  -26.1627 N   0  0  0  0  0  0  0  0  0  0  0  0
   -4.1153   -4.3877  -26.2326 C   0  0  0  0  0  0  0  0  0  0  0  0
   -4.1659   -2.9186  -26.5770 C   0  0  0  0  0  0  0  0  0  0  0  0
 29 30  1  0  0  0
 30 31  1  0  0  0
 30 33  1  0  0  0
 31 32  2  0  0  0
 31 28  1  0  0  0
 28  1  1  0  0  0
  1  2  1  0  0  0
  3  2  1  0  0  0
  3  4  1  0  0  0
  3  9  1  0  0  0
  4  5  2  0  0  0
  4  6  1  0  0  0
  6 18  1  0  0  0
  6  7  1  0  0  0
 18 19  2  0  0  0
 19 20  1  0  0  0
 20 21  2  0  0  0
 21 22  1  0  0  0
 22 23  2  0  0  0
 23 24  1  0  0  0
 24 25  2  0  0  0
 25 26  1  0  0  0
 26 27  2  0  0  0
 27 18  1  0  0  0
 27 22  1  0  0  0
  7  8  1  0  0  0
  8 34  1  0  0  0
  8  3  1  0  0  0
 34 35  1  0  0  0
 35 37  1  0  0  0
 35 36  1  0  0  0
 37 38  1  0  0  0
 38 39  1  0  0  0
 39 40  2  0  0  0
 40 41  1  0  0  0
 41 42  1  0  0  0
 41 37  2  0  0  0
  9 10  2  0  0  0
 10 11  1  0  0  0
 11 12  1  0  0  0
 11 13  2  0  0  0
 13 14  1  0  0  0
 14 15  2  0  0  0
 15 16  1  0  0  0
 15  9  1  0  0  0
 16 17  2  0  0  0
 16  1  1  0  0  0
M  END
> <minimizedAffinity>
-8.12523

> <CNNscore>
0.2683206797

> <CNNaffinity>
6.5549941063

> <CNN_VS>
1.7588404417

> <CNNaffinity_variance>
0.3373748064

$$$$



 42 47  0  0  0  0  0  0  0  0999 V2000
   -7.0967   -1.5390  -21.7876 N   0  0  0  0  0  0  0  0  0  0  0  0
   -7.0433   -0.1052  -21.9733 C   0  0  0  0  0  0  0  0  0  0  0  0
   -6.3638    0.2536  -23.2769 C   0  0  0  0  0  0  0  0  0  0  0  0
   -4.9236   -0.1470  -23.0680 C   0  0  0  0  0  0  0  0  0  0  0  0
   -4.4957   -1.2626  -22.6553 O   0  0  0  0  0  0  0  0  0  0  0  0
   -4.0752    0.9419  -23.4110 N   0  0  0  0  0  0  0  0  0  0  0  0
   -4.8643    2.0572  -23.8749 C   0  0  0  0  0  0  0  0  0  0  0  0
   -6.2994    1.7147  -23.5214 C   0  0  0  0  0  0  0  0  0  0  0  0
   -6.9779   -0.5268  -24.3514 C   0  0  0  0  0  0  0  0  0  0  0  0
   -6.9384   -0.0372  -25.6612 C   0  0  0  0  0  0  0  0  0  0  0  0
   -7.4969   -0.7316  -26.7156 C   0  0  0  0  0  0  0  0  0  0  0  0
   -7.4431   -0.1078  -28.3637 Cl  0  0  0  0  0  0  0  0  0  0  0  0
   -8.1215   -1.9463  -26.5177 C   0  0  0  0  0  0  0  0  0  0  0  0
   -8.1725   -2.4489  -25.2339 C   0  0  0  0  0  0  0  0  0  0  0  0
   -7.6095   -1.7422  -24.1914 C   0  0  0  0  0  0  0  0  0  0  0  0
   -7.6856   -2.3004  -22.8439 C   0  0  0  0  0  0  0  0  0  0  0  0
   -8.2332   -3.3965  -22.5750 O   0  0  0  0  0  0  0  0  0  0  0  0
   -2.6581    0.9393  -23.3138 C   0  0  0  0  0  0  0  0  0  0  0  0
   -1.9015    0.5560  -24.4041 C   0  0  0  0  0  0  0  0  0  0  0  0
   -0.5556    0.5289  -24.3853 N   0  0  0  0  0  0  0  0  0  0  0  0
    0.0793    0.8943  -23.2458 C   0  0  0  0  0  0  0  0  0  0  0  0
   -0.6284    1.2874  -22.1224 C   0  0  0  0  0  0  0  0  0  0  0  0
    0.0141    1.6652  -20.9449 C   0  0  0  0  0  0  0  0  0  0  0  0
   -0.7001    2.0561  -19.8289 C   0  0  0  0  0  0  0  0  0  0  0  0
   -2.0884    2.0779  -19.8662 C   0  0  0  0  0  0  0  0  0  0  0  0
   -2.7255    1.7018  -21.0384 C   0  0  0  0  0  0  0  0  0  0  0  0
   -2.0132    1.3124  -22.1501 C   0  0  0  0  0  0  0  0  0  0  0  0
   -6.5824   -2.1688  -20.5901 C   0  0  0  0  0  0  0  0  0  0  0  0
   -4.9102    0.3680  -18.1508 C   0  0  0  0  0  0  0  0  0  0  0  0
   -5.0966   -0.6057  -19.2132 N   0  0  0  0  0  0  0  0  0  0  0  0
   -6.3733   -1.1640  -19.4985 C   0  0  0  0  0  0  0  0  0  0  0  0
   -7.3480   -0.7985  -18.8106 O   0  0  0  0  0  0  0  0  0  0  0  0
   -4.3196   -0.8860  -19.7489 H   0  0  0  0  0  0  0  0  0  0  0  0
   -6.6193    2.5451  -22.2930 C   0  0  0  0  0  0  0  0  0  0  0  0
   -7.8821    3.2164  -22.5703 N   0  0  0  0  0  0  0  0  0  0  0  0
   -8.3548    3.6667  -21.8334 H   0  0  0  0  0  0  0  0  0  0  0  0
   -8.4462    3.2410  -23.8570 C   0  0  0  0  0  0  0  0  0  0  0  0
   -7.9825    4.4378  -25.1621 S   0  0  0  0  0  0  0  0  0  0  0  0
   -9.2395    3.6356  -26.3656 C   0  0  0  0  0  0  0  0  0  0  0  0
   -9.6587    2.8189  -25.7008 N   0  0  0  0  0  0  0  0  0  0  0  0
   -9.3976    2.4785  -24.4663 C   0  0  0  0  0  0  0  0  0  0  0  0
  -10.0834    1.3370  -23.7547 C   0  0  0  0  0  0  0  0  0  0  0  0
 29 30  1  0  0  0
 30 31  1  0  0  0
 30 33  1  0  0  0
 31 32  2  0  0  0
 31 28  1  0  0  0
 28  1  1  0  0  0
  1  2  1  0  0  0
  3  2  1  0  0  0
  3  4  1  0  0  0
  3  9  1  0  0  0
  4  5  2  0  0  0
  4  6  1  0  0  0
  6 18  1  0  0  0
  6  7  1  0  0  0
 18 19  2  0  0  0
 19 20  1  0  0  0
 20 21  2  0  0  0
 21 22  1  0  0  0
 22 23  2  0  0  0
 23 24  1  0  0  0
 24 25  2  0  0  0
 25 26  1  0  0  0
 26 27  2  0  0  0
 27 18  1  0  0  0
 27 22  1  0  0  0
  7  8  1  0  0  0
  8 34  1  0  0  0
  8  3  1  0  0  0
 34 35  1  0  0  0
 35 37  1  0  0  0
 35 36  1  0  0  0
 37 38  1  0  0  0
 38 39  1  0  0  0
 39 40  2  0  0  0
 40 41  1  0  0  0
 41 42  1  0  0  0
 41 37  2  0  0  0
  9 10  2  0  0  0
 10 11  1  0  0  0
 11 12  1  0  0  0
 11 13  2  0  0  0
 13 14  1  0  0  0
 14 15  2  0  0  0
 15 16  1  0  0  0
 15  9  1  0  0  0
 16 17  2  0  0  0
 16  1  1  0  0  0
M  END
> <minimizedAffinity>
-6.83501

> <CNNscore>
0.2624531984

> <CNNaffinity>
6.2135033607

> <CNN_VS>
1.6307538748

> <CNNaffinity_variance>
0.3421716392

$$$$



 42 47  0  0  0  0  0  0  0  0999 V2000
   -5.3380   -0.7097  -20.7656 N   0  0  0  0  0  0  0  0  0  0  0  0
   -5.4534   -1.1920  -22.1247 C   0  0  0  0  0  0  0  0  0  0  0  0
   -6.3377   -0.2866  -22.9542 C   0  0  0  0  0  0  0  0  0  0  0  0
   -7.7173   -0.4807  -22.3737 C   0  0  0  0  0  0  0  0  0  0  0  0
   -8.0488   -0.4041  -21.1562 O   0  0  0  0  0  0  0  0  0  0  0  0
   -8.6342   -0.7735  -23.4209 N   0  0  0  0  0  0  0  0  0  0  0  0
   -7.9542   -0.7575  -24.6932 C   0  0  0  0  0  0  0  0  0  0  0  0
   -6.4738   -0.7305  -24.3625 C   0  0  0  0  0  0  0  0  0  0  0  0
   -5.8820    1.0931  -22.7819 C   0  0  0  0  0  0  0  0  0  0  0  0
   -6.1384    2.0291  -23.7894 C   0  0  0  0  0  0  0  0  0  0  0  0
   -5.7366    3.3453  -23.6802 C   0  0  0  0  0  0  0  0  0  0  0  0
   -6.0634    4.5192  -24.9544 Cl  0  0  0  0  0  0  0  0  0  0  0  0
   -5.0605    3.7936  -22.5636 C   0  0  0  0  0  0  0  0  0  0  0  0
   -4.7966    2.8879  -21.5570 C   0  0  0  0  0  0  0  0  0  0  0  0
   -5.2050    1.5761  -21.6821 C   0  0  0  0  0  0  0  0  0  0  0  0
   -4.9049    0.6421  -20.6000 C   0  0  0  0  0  0  0  0  0  0  0  0
   -4.2964    0.9645  -19.5515 O   0  0  0  0  0  0  0  0  0  0  0  0
  -10.0181   -1.0433  -23.2473 C   0  0  0  0  0  0  0  0  0  0  0  0
  -10.4294   -2.3285  -22.9523 C   0  0  0  0  0  0  0  0  0  0  0  0
  -11.7225   -2.6582  -22.7744 N   0  0  0  0  0  0  0  0  0  0  0  0
  -12.6566   -1.6841  -22.8907 C   0  0  0  0  0  0  0  0  0  0  0  0
  -12.3015   -0.3785  -23.1850 C   0  0  0  0  0  0  0  0  0  0  0  0
  -13.2537    0.6317  -23.3071 C   0  0  0  0  0  0  0  0  0  0  0  0
  -12.8904    1.9317  -23.6009 C   0  0  0  0  0  0  0  0  0  0  0  0
  -11.5513    2.2538  -23.7813 C   0  0  0  0  0  0  0  0  0  0  0  0
  -10.6058    1.2476  -23.6594 C   0  0  0  0  0  0  0  0  0  0  0  0
  -10.9686   -0.0475  -23.3666 C   0  0  0  0  0  0  0  0  0  0  0  0
   -5.6428   -1.5560  -19.6316 C   0  0  0  0  0  0  0  0  0  0  0  0
   -5.5845   -4.9343  -21.5720 C   0  0  0  0  0  0  0  0  0  0  0  0
   -5.7696   -3.5279  -21.2572 N   0  0  0  0  0  0  0  0  0  0  0  0
   -5.4578   -3.0033  -19.9724 C   0  0  0  0  0  0  0  0  0  0  0  0
   -5.0152   -3.7828  -19.1045 O   0  0  0  0  0  0  0  0  0  0  0  0
   -6.1194   -2.9229  -21.9506 H   0  0  0  0  0  0  0  0  0  0  0  0
   -5.9842   -2.1468  -24.5970 C   0  0  0  0  0  0  0  0  0  0  0  0
   -4.6422   -2.0295  -25.1516 N   0  0  0  0  0  0  0  0  0  0  0  0
   -3.9803   -2.7303  -24.9514 H   0  0  0  0  0  0  0  0  0  0  0  0
   -4.2633   -0.9469  -25.9633 C   0  0  0  0  0  0  0  0  0  0  0  0
   -4.8371   -0.6993  -27.6838 S   0  0  0  0  0  0  0  0  0  0  0  0
   -3.8081    0.9122  -27.8112 C   0  0  0  0  0  0  0  0  0  0  0  0
   -3.3466    0.9364  -26.7763 N   0  0  0  0  0  0  0  0  0  0  0  0
   -3.4510    0.1277  -25.7549 C   0  0  0  0  0  0  0  0  0  0  0  0
   -2.7377    0.3476  -24.4425 C   0  0  0  0  0  0  0  0  0  0  0  0
 29 30  1  0  0  0
 30 31  1  0  0  0
 30 33  1  0  0  0
 31 32  2  0  0  0
 31 28  1  0  0  0
 28  1  1  0  0  0
  1  2  1  0  0  0
  3  2  1  0  0  0
  3  4  1  0  0  0
  3  9  1  0  0  0
  4  5  2  0  0  0
  4  6  1  0  0  0
  6 18  1  0  0  0
  6  7  1  0  0  0
 18 19  2  0  0  0
 19 20  1  0  0  0
 20 21  2  0  0  0
 21 22  1  0  0  0
 22 23  2  0  0  0
 23 24  1  0  0  0
 24 25  2  0  0  0
 25 26  1  0  0  0
 26 27  2  0  0  0
 27 18  1  0  0  0
 27 22  1  0  0  0
  7  8  1  0  0  0
  8 34  1  0  0  0
  8  3  1  0  0  0
 34 35  1  0  0  0
 35 37  1  0  0  0
 35 36  1  0  0  0
 37 38  1  0  0  0
 38 39  1  0  0  0
 39 40  2  0  0  0
 40 41  1  0  0  0
 41 42  1  0  0  0
 41 37  2  0  0  0
  9 10  2  0  0  0
 10 11  1  0  0  0
 11 12  1  0  0  0
 11 13  2  0  0  0
 13 14  1  0  0  0
 14 15  2  0  0  0
 15 16  1  0  0  0
 15  9  1  0  0  0
 16 17  2  0  0  0
 16  1  1  0  0  0
M  END
> <minimizedAffinity>
-8.46724

> <CNNscore>
0.1880677044

> <CNNaffinity>
6.2776556015

> <CNN_VS>
1.1806242466

> <CNNaffinity_variance>
0.4395347536

$$$$



 42 47  0  0  0  0  0  0  0  0999 V2000
   -5.3292   -0.7195  -20.7997 N   0  0  0  0  0  0  0  0  0  0  0  0
   -5.4564   -1.2145  -22.1532 C   0  0  0  0  0  0  0  0  0  0  0  0
   -6.3466   -0.3160  -22.9839 C   0  0  0  0  0  0  0  0  0  0  0  0
   -7.7216   -0.5033  -22.3901 C   0  0  0  0  0  0  0  0  0  0  0  0
   -8.0429   -0.4148  -21.1707 O   0  0  0  0  0  0  0  0  0  0  0  0
   -8.6475   -0.8050  -23.4268 N   0  0  0  0  0  0  0  0  0  0  0  0
   -7.9780   -0.8017  -24.7049 C   0  0  0  0  0  0  0  0  0  0  0  0
   -6.4949   -0.7731  -24.3867 C   0  0  0  0  0  0  0  0  0  0  0  0
   -5.8883    1.0647  -22.8284 C   0  0  0  0  0  0  0  0  0  0  0  0
   -6.1522    1.9915  -23.8425 C   0  0  0  0  0  0  0  0  0  0  0  0
   -5.7482    3.3082  -23.7491 C   0  0  0  0  0  0  0  0  0  0  0  0
   -6.0845    4.4704  -25.0315 Cl  0  0  0  0  0  0  0  0  0  0  0  0
   -5.0624    3.7663  -22.6424 C   0  0  0  0  0  0  0  0  0  0  0  0
   -4.7910    2.8699  -21.6296 C   0  0  0  0  0  0  0  0  0  0  0  0
   -5.2017    1.5575  -21.7388 C   0  0  0  0  0  0  0  0  0  0  0  0
   -4.8935    0.6334  -20.6505 C   0  0  0  0  0  0  0  0  0  0  0  0
   -4.2760    0.9650  -19.6102 O   0  0  0  0  0  0  0  0  0  0  0  0
  -10.0301   -1.0717  -23.2392 C   0  0  0  0  0  0  0  0  0  0  0  0
  -10.4399   -2.3531  -22.9260 C   0  0  0  0  0  0  0  0  0  0  0  0
  -11.7318   -2.6797  -22.7341 N   0  0  0  0  0  0  0  0  0  0  0  0
  -12.6661   -1.7063  -22.8544 C   0  0  0  0  0  0  0  0  0  0  0  0
  -12.3125   -0.4045  -23.1668 C   0  0  0  0  0  0  0  0  0  0  0  0
  -13.2650    0.6048  -23.2931 C   0  0  0  0  0  0  0  0  0  0  0  0
  -12.9031    1.9011  -23.6049 C   0  0  0  0  0  0  0  0  0  0  0  0
  -11.5653    2.2200  -23.7996 C   0  0  0  0  0  0  0  0  0  0  0  0
  -10.6195    1.2146  -23.6734 C   0  0  0  0  0  0  0  0  0  0  0  0
  -10.9809   -0.0767  -23.3627 C   0  0  0  0  0  0  0  0  0  0  0  0
   -5.6253   -1.5547  -19.6553 C   0  0  0  0  0  0  0  0  0  0  0  0
   -5.5944   -4.9468  -21.5722 C   0  0  0  0  0  0  0  0  0  0  0  0
   -5.7682   -3.5368  -21.2671 N   0  0  0  0  0  0  0  0  0  0  0  0
   -5.4519   -3.0058  -19.9861 C   0  0  0  0  0  0  0  0  0  0  0  0
   -5.0152   -3.7827  -19.1129 O   0  0  0  0  0  0  0  0  0  0  0  0
   -6.1135   -2.9339  -21.9646 H   0  0  0  0  0  0  0  0  0  0  0  0
   -6.0086   -2.1921  -24.6119 C   0  0  0  0  0  0  0  0  0  0  0  0
   -6.8641   -2.7587  -25.6460 N   0  0  0  0  0  0  0  0  0  0  0  0
   -7.2305   -2.1647  -26.3404 H   0  0  0  0  0  0  0  0  0  0  0  0
   -7.1827   -4.1268  -25.6827 C   0  0  0  0  0  0  0  0  0  0  0  0
   -5.9596   -5.4746  -25.4874 S   0  0  0  0  0  0  0  0  0  0  0  0
   -7.3463   -6.7822  -25.6854 C   0  0  0  0  0  0  0  0  0  0  0  0
   -8.2424   -6.1027  -25.8259 N   0  0  0  0  0  0  0  0  0  0  0  0
   -8.3550   -4.8009  -25.8536 C   0  0  0  0  0  0  0  0  0  0  0  0
   -9.6673   -4.0828  -26.0577 C   0  0  0  0  0  0  0  0  0  0  0  0
 29 30  1  0  0  0
 30 31  1  0  0  0
 30 33  1  0  0  0
 31 32  2  0  0  0
 31 28  1  0  0  0
 28  1  1  0  0  0
  1  2  1  0  0  0
  3  2  1  0  0  0
  3  4  1  0  0  0
  3  9  1  0  0  0
  4  5  2  0  0  0
  4  6  1  0  0  0
  6 18  1  0  0  0
  6  7  1  0  0  0
 18 19  2  0  0  0
 19 20  1  0  0  0
 20 21  2  0  0  0
 21 22  1  0  0  0
 22 23  2  0  0  0
 23 24  1  0  0  0
 24 25  2  0  0  0
 25 26  1  0  0  0
 26 27  2  0  0  0
 27 18  1  0  0  0
 27 22  1  0  0  0
  7  8  1  0  0  0
  8 34  1  0  0  0
  8  3  1  0  0  0
 34 35  1  0  0  0
 35 37  1  0  0  0
 35 36  1  0  0  0
 37 38  1  0  0  0
 38 39  1  0  0  0
 39 40  2  0  0  0
 40 41  1  0  0  0
 41 42  1  0  0  0
 41 37  2  0  0  0
  9 10  2  0  0  0
 10 11  1  0  0  0
 11 12  1  0  0  0
 11 13  2  0  0  0
 13 14  1  0  0  0
 14 15  2  0  0  0
 15 16  1  0  0  0
 15  9  1  0  0  0
 16 17  2  0  0  0
 16  1  1  0  0  0
M  END
> <minimizedAffinity>
-9.11695

> <CNNscore>
0.1805868149

> <CNNaffinity>
6.3028955460

> <CNN_VS>
1.1382198334

> <CNNaffinity_variance>
0.6250314713

$$$$



 42 47  0  0  0  0  0  0  0  0999 V2000
   -6.9458   -2.1653  -22.4423 N   0  0  0  0  0  0  0  0  0  0  0  0
   -7.0361   -1.6023  -23.7719 C   0  0  0  0  0  0  0  0  0  0  0  0
   -7.3207   -0.1170  -23.7199 C   0  0  0  0  0  0  0  0  0  0  0  0
   -8.7285   -0.0269  -23.1830 C   0  0  0  0  0  0  0  0  0  0  0  0
   -9.1850   -0.5866  -22.1456 O   0  0  0  0  0  0  0  0  0  0  0  0
   -9.5068    0.8059  -24.0337 N   0  0  0  0  0  0  0  0  0  0  0  0
   -8.6910    1.3155  -25.1091 C   0  0  0  0  0  0  0  0  0  0  0  0
   -7.4058    0.5105  -25.0607 C   0  0  0  0  0  0  0  0  0  0  0  0
   -6.3657    0.5076  -22.8042 C   0  0  0  0  0  0  0  0  0  0  0  0
   -6.0474    1.8601  -22.9656 C   0  0  0  0  0  0  0  0  0  0  0  0
   -5.1570    2.5037  -22.1296 C   0  0  0  0  0  0  0  0  0  0  0  0
   -4.7609    4.2088  -22.3394 Cl  0  0  0  0  0  0  0  0  0  0  0  0
   -4.5407    1.8327  -21.0929 C   0  0  0  0  0  0  0  0  0  0  0  0
   -4.8395    0.4978  -20.9146 C   0  0  0  0  0  0  0  0  0  0  0  0
   -5.7314   -0.1303  -21.7591 C   0  0  0  0  0  0  0  0  0  0  0  0
   -6.0215   -1.5458  -21.5455 C   0  0  0  0  0  0  0  0  0  0  0  0
   -5.5073   -2.2306  -20.6289 O   0  0  0  0  0  0  0  0  0  0  0  0
  -10.8857    1.0978  -23.8571 C   0  0  0  0  0  0  0  0  0  0  0  0
  -11.7957    0.0620  -23.7732 C   0  0  0  0  0  0  0  0  0  0  0  0
  -13.1164    0.2625  -23.6061 N   0  0  0  0  0  0  0  0  0  0  0  0
  -13.5674    1.5367  -23.5170 C   0  0  0  0  0  0  0  0  0  0  0  0
  -12.7005    2.6137  -23.5946 C   0  0  0  0  0  0  0  0  0  0  0  0
  -13.1532    3.9286  -23.5042 C   0  0  0  0  0  0  0  0  0  0  0  0
  -12.2810    4.9971  -23.5826 C   0  0  0  0  0  0  0  0  0  0  0  0
  -10.9213    4.7714  -23.7552 C   0  0  0  0  0  0  0  0  0  0  0  0
  -10.4732    3.4628  -23.8448 C   0  0  0  0  0  0  0  0  0  0  0  0
  -11.3429    2.3987  -23.7666 C   0  0  0  0  0  0  0  0  0  0  0  0
   -7.7493   -3.3011  -22.0430 C   0  0  0  0  0  0  0  0  0  0  0  0
  -10.7352   -3.7713  -24.5017 C   0  0  0  0  0  0  0  0  0  0  0  0
   -9.9195   -3.2930  -23.3984 N   0  0  0  0  0  0  0  0  0  0  0  0
   -8.6032   -3.7837  -23.1756 C   0  0  0  0  0  0  0  0  0  0  0  0
   -8.1515   -4.6464  -23.9558 O   0  0  0  0  0  0  0  0  0  0  0  0
  -10.2872   -2.6121  -22.7897 H   0  0  0  0  0  0  0  0  0  0  0  0
   -7.5197   -0.4957  -26.1900 C   0  0  0  0  0  0  0  0  0  0  0  0
   -6.3723   -0.2682  -27.0583 N   0  0  0  0  0  0  0  0  0  0  0  0
   -6.5268    0.0062  -27.9911 H   0  0  0  0  0  0  0  0  0  0  0  0
   -5.0517   -0.4283  -26.6054 C   0  0  0  0  0  0  0  0  0  0  0  0
   -3.9177    0.9577  -26.2267 S   0  0  0  0  0  0  0  0  0  0  0  0
   -2.5380   -0.2824  -25.7462 C   0  0  0  0  0  0  0  0  0  0  0  0
   -3.0795   -1.2619  -25.9248 N   0  0  0  0  0  0  0  0  0  0  0  0
   -4.2909   -1.5270  -26.3376 C   0  0  0  0  0  0  0  0  0  0  0  0
   -4.8232   -2.9292  -26.5108 C   0  0  0  0  0  0  0  0  0  0  0  0
 29 30  1  0  0  0
 30 31  1  0  0  0
 30 33  1  0  0  0
 31 32  2  0  0  0
 31 28  1  0  0  0
 28  1  1  0  0  0
  1  2  1  0  0  0
  3  2  1  0  0  0
  3  4  1  0  0  0
  3  9  1  0  0  0
  4  5  2  0  0  0
  4  6  1  0  0  0
  6 18  1  0  0  0
  6  7  1  0  0  0
 18 19  2  0  0  0
 19 20  1  0  0  0
 20 21  2  0  0  0
 21 22  1  0  0  0
 22 23  2  0  0  0
 23 24  1  0  0  0
 24 25  2  0  0  0
 25 26  1  0  0  0
 26 27  2  0  0  0
 27 18  1  0  0  0
 27 22  1  0  0  0
  7  8  1  0  0  0
  8 34  1  0  0  0
  8  3  1  0  0  0
 34 35  1  0  0  0
 35 37  1  0  0  0
 35 36  1  0  0  0
 37 38  1  0  0  0
 38 39  1  0  0  0
 39 40  2  0  0  0
 40 41  1  0  0  0
 41 42  1  0  0  0
 41 37  2  0  0  0
  9 10  2  0  0  0
 10 11  1  0  0  0
 11 12  1  0  0  0
 11 13  2  0  0  0
 13 14  1  0  0  0
 14 15  2  0  0  0
 15 16  1  0  0  0
 15  9  1  0  0  0
 16 17  2  0  0  0
 16  1  1  0  0  0
M  END
> <minimizedAffinity>
-7.29638

> <CNNscore>
0.1708804518

> <CNNaffinity>
6.2357640266

> <CNN_VS>
1.0655701160

> <CNNaffinity_variance>
0.2068130970

$$$$



 36 40  0  0  0  0  0  0  0  0999 V2000
   -7.1062   -2.1547  -22.7791 N   0  0  0  0  0  0  0  0  0  0  0  0
   -8.2208   -1.3988  -22.3111 C   0  0  0  0  0  0  0  0  0  0  0  0
   -9.0761   -0.7098  -23.3246 C   0  0  0  0  0  0  0  0  0  0  0  0
   -9.6763    0.4841  -22.6219 C   0  0  0  0  0  0  0  0  0  0  0  0
   -9.1558    1.1323  -21.6561 O   0  0  0  0  0  0  0  0  0  0  0  0
  -10.9337    0.8005  -23.1939 N   0  0  0  0  0  0  0  0  0  0  0  0
  -11.3653   -0.3913  -23.8777 C   0  0  0  0  0  0  0  0  0  0  0  0
  -10.2860   -1.4323  -23.7754 C   0  0  0  0  0  0  0  0  0  0  0  0
   -8.2240   -0.2352  -24.4598 C   0  0  0  0  0  0  0  0  0  0  0  0
   -8.7244    0.7031  -25.3711 C   0  0  0  0  0  0  0  0  0  0  0  0
   -7.9734    1.1865  -26.4165 C   0  0  0  0  0  0  0  0  0  0  0  0
   -8.7184    2.3665  -27.4958 Cl  0  0  0  0  0  0  0  0  0  0  0  0
   -6.6953    0.7728  -26.6189 C   0  0  0  0  0  0  0  0  0  0  0  0
   -6.1643   -0.1510  -25.7451 C   0  0  0  0  0  0  0  0  0  0  0  0
   -6.9325   -0.6372  -24.6869 C   0  0  0  0  0  0  0  0  0  0  0  0
   -6.2922   -1.6362  -23.8422 C   0  0  0  0  0  0  0  0  0  0  0  0
   -5.1143   -2.0101  -24.0372 O   0  0  0  0  0  0  0  0  0  0  0  0
  -11.6790    2.0170  -23.1447 C   0  0  0  0  0  0  0  0  0  0  0  0
  -12.9462    2.1069  -22.6079 C   0  0  0  0  0  0  0  0  0  0  0  0
  -13.6379    3.2844  -22.5714 N   0  0  0  0  0  0  0  0  0  0  0  0
  -13.1448    4.4359  -23.0502 C   0  0  0  0  0  0  0  0  0  0  0  0
  -11.8828    4.3979  -23.5969 C   0  0  0  0  0  0  0  0  0  0  0  0
  -11.3855    5.5931  -24.0896 C   0  0  0  0  0  0  0  0  0  0  0  0
  -10.1275    5.6309  -24.6540 C   0  0  0  0  0  0  0  0  0  0  0  0
   -9.4085    4.4546  -24.7032 C   0  0  0  0  0  0  0  0  0  0  0  0
   -9.9104    3.2922  -24.2159 C   0  0  0  0  0  0  0  0  0  0  0  0
  -11.1600    3.2166  -23.6461 C   0  0  0  0  0  0  0  0  0  0  0  0
   -6.6859   -3.4361  -22.2360 C   0  0  0  0  0  0  0  0  0  0  0  0
   -8.3123   -6.0705  -24.5086 C   0  0  0  0  0  0  0  0  0  0  0  0
   -8.2417   -4.9448  -23.6016 N   0  0  0  0  0  0  0  0  0  0  0  0
   -6.9653   -4.5413  -23.1455 C   0  0  0  0  0  0  0  0  0  0  0  0
   -5.9780   -5.2122  -23.5783 O   0  0  0  0  0  0  0  0  0  0  0  0
   -9.0566   -4.4748  -23.3112 H   0  0  0  0  0  0  0  0  0  0  0  0
  -10.7370   -2.4578  -22.7608 C   0  0  0  0  0  0  0  0  0  0  0  0
  -11.9709   -2.9383  -23.1212 O   0  0  0  0  0  0  0  0  0  0  0  0
  -12.9641   -2.6623  -22.1935 C   0  0  0  0  0  0  0  0  0  0  0  0
 29 30  1  0  0  0
 30 31  1  0  0  0
 30 33  1  0  0  0
 31 32  2  0  0  0
 31 28  1  0  0  0
 28  1  1  0  0  0
  1  2  1  0  0  0
  3  2  1  0  0  0
  3  4  1  0  0  0
  3  9  1  0  0  0
  4  5  2  0  0  0
  4  6  1  0  0  0
  6 18  1  0  0  0
  6  7  1  0  0  0
 18 19  2  0  0  0
 19 20  1  0  0  0
 20 21  2  0  0  0
 21 22  1  0  0  0
 22 23  2  0  0  0
 23 24  1  0  0  0
 24 25  2  0  0  0
 25 26  1  0  0  0
 26 27  2  0  0  0
 27 18  1  0  0  0
 27 22  1  0  0  0
  7  8  1  0  0  0
  8 34  1  0  0  0
  8  3  1  0  0  0
 34 35  1  0  0  0
 35 36  1  0  0  0
  9 10  2  0  0  0
 10 11  1  0  0  0
 11 12  1  0  0  0
 11 13  2  0  0  0
 13 14  1  0  0  0
 14 15  2  0  0  0
 15 16  1  0  0  0
 15  9  1  0  0  0
 16 17  2  0  0  0
 16  1  1  0  0  0
M  END
> <minimizedAffinity>
-7.08095

> <CNNscore>
0.6416556835

> <CNNaffinity>
6.2926573753

> <CNN_VS>
4.0377192497

> <CNNaffinity_variance>
0.0889595151

$$$$



 36 40  0  0  0  0  0  0  0  0999 V2000
   -7.2836   -2.1448  -23.2975 N   0  0  0  0  0  0  0  0  0  0  0  0
   -7.3130   -0.9058  -24.0023 C   0  0  0  0  0  0  0  0  0  0  0  0
   -8.4312    0.0414  -23.7091 C   0  0  0  0  0  0  0  0  0  0  0  0
   -8.6281    0.8563  -24.9648 C   0  0  0  0  0  0  0  0  0  0  0  0
   -8.3890    0.4757  -26.1572 O   0  0  0  0  0  0  0  0  0  0  0  0
   -9.1292    2.1401  -24.6348 N   0  0  0  0  0  0  0  0  0  0  0  0
   -8.8099    2.3411  -23.2448 C   0  0  0  0  0  0  0  0  0  0  0  0
   -8.1639    1.0956  -22.7059 C   0  0  0  0  0  0  0  0  0  0  0  0
   -9.6805   -0.7315  -23.4234 C   0  0  0  0  0  0  0  0  0  0  0  0
  -10.9241   -0.0875  -23.4319 C   0  0  0  0  0  0  0  0  0  0  0  0
  -12.1015   -0.7578  -23.1978 C   0  0  0  0  0  0  0  0  0  0  0  0
  -13.6033    0.1671  -23.2362 Cl  0  0  0  0  0  0  0  0  0  0  0  0
  -12.1163   -2.0924  -22.9440 C   0  0  0  0  0  0  0  0  0  0  0  0
  -10.9135   -2.7646  -22.9256 C   0  0  0  0  0  0  0  0  0  0  0  0
   -9.7229   -2.0776  -23.1636 C   0  0  0  0  0  0  0  0  0  0  0  0
   -8.5040   -2.8712  -23.0866 C   0  0  0  0  0  0  0  0  0  0  0  0
   -8.5288   -4.1000  -22.8524 O   0  0  0  0  0  0  0  0  0  0  0  0
   -9.8130    3.0908  -25.4510 C   0  0  0  0  0  0  0  0  0  0  0  0
   -9.2858    3.6052  -26.6170 C   0  0  0  0  0  0  0  0  0  0  0  0
   -9.9621    4.5133  -27.3815 N   0  0  0  0  0  0  0  0  0  0  0  0
  -11.1808    4.9727  -27.0623 C   0  0  0  0  0  0  0  0  0  0  0  0
  -11.7499    4.4892  -25.9068 C   0  0  0  0  0  0  0  0  0  0  0  0
  -13.0079    4.9727  -25.5871 C   0  0  0  0  0  0  0  0  0  0  0  0
  -13.6397    4.5344  -24.4420 C   0  0  0  0  0  0  0  0  0  0  0  0
  -12.9775    3.6173  -23.6524 C   0  0  0  0  0  0  0  0  0  0  0  0
  -11.7453    3.1536  -23.9800 C   0  0  0  0  0  0  0  0  0  0  0  0
  -11.0853    3.5677  -25.1135 C   0  0  0  0  0  0  0  0  0  0  0  0
   -6.0807   -2.7774  -22.7813 C   0  0  0  0  0  0  0  0  0  0  0  0
   -6.2971   -1.6916  -19.1038 C   0  0  0  0  0  0  0  0  0  0  0  0
   -6.5083   -1.6248  -20.5341 N   0  0  0  0  0  0  0  0  0  0  0  0
   -5.9740   -2.6634  -21.3313 C   0  0  0  0  0  0  0  0  0  0  0  0
   -5.3462   -3.5776  -20.7131 O   0  0  0  0  0  0  0  0  0  0  0  0
   -7.0082   -0.8797  -20.9391 H   0  0  0  0  0  0  0  0  0  0  0  0
   -6.6850    1.3738  -22.5656 C   0  0  0  0  0  0  0  0  0  0  0  0
   -6.2920    1.0936  -21.2809 O   0  0  0  0  0  0  0  0  0  0  0  0
   -5.0231    1.5632  -20.9762 C   0  0  0  0  0  0  0  0  0  0  0  0
 29 30  1  0  0  0
 30 31  1  0  0  0
 30 33  1  0  0  0
 31 32  2  0  0  0
 31 28  1  0  0  0
 28  1  1  0  0  0
  1  2  1  0  0  0
  3  2  1  0  0  0
  3  4  1  0  0  0
  3  9  1  0  0  0
  4  5  2  0  0  0
  4  6  1  0  0  0
  6 18  1  0  0  0
  6  7  1  0  0  0
 18 19  2  0  0  0
 19 20  1  0  0  0
 20 21  2  0  0  0
 21 22  1  0  0  0
 22 23  2  0  0  0
 23 24  1  0  0  0
 24 25  2  0  0  0
 25 26  1  0  0  0
 26 27  2  0  0  0
 27 18  1  0  0  0
 27 22  1  0  0  0
  7  8  1  0  0  0
  8 34  1  0  0  0
  8  3  1  0  0  0
 34 35  1  0  0  0
 35 36  1  0  0  0
  9 10  2  0  0  0
 10 11  1  0  0  0
 11 12  1  0  0  0
 11 13  2  0  0  0
 13 14  1  0  0  0
 14 15  2  0  0  0
 15 16  1  0  0  0
 15  9  1  0  0  0
 16 17  2  0  0  0
 16  1  1  0  0  0
M  END
> <minimizedAffinity>
-7.53911

> <CNNscore>
0.4522459209

> <CNNaffinity>
6.2021627426

> <CNN_VS>
2.8049027920

> <CNNaffinity_variance>
0.1574716866

$$$$



 36 40  0  0  0  0  0  0  0  0999 V2000
  -10.7428    3.5351  -24.0603 N   0  0  0  0  0  0  0  0  0  0  0  0
   -9.5161    2.9155  -23.6808 C   0  0  0  0  0  0  0  0  0  0  0  0
   -9.3586    1.4527  -23.9436 C   0  0  0  0  0  0  0  0  0  0  0  0
   -8.3874    0.9443  -22.9055 C   0  0  0  0  0  0  0  0  0  0  0  0
   -8.2131    1.4213  -21.7367 O   0  0  0  0  0  0  0  0  0  0  0  0
   -7.6720   -0.1676  -23.4156 N   0  0  0  0  0  0  0  0  0  0  0  0
   -7.7916   -0.0878  -24.8486 C   0  0  0  0  0  0  0  0  0  0  0  0
   -8.6793    1.0725  -25.2019 C   0  0  0  0  0  0  0  0  0  0  0  0
  -10.6762    0.7664  -23.7623 C   0  0  0  0  0  0  0  0  0  0  0  0
  -10.7329   -0.6276  -23.6404 C   0  0  0  0  0  0  0  0  0  0  0  0
  -11.9158   -1.3021  -23.4500 C   0  0  0  0  0  0  0  0  0  0  0  0
  -11.8544   -3.0597  -23.3110 Cl  0  0  0  0  0  0  0  0  0  0  0  0
  -13.1006   -0.6420  -23.3701 C   0  0  0  0  0  0  0  0  0  0  0  0
  -13.0895    0.7311  -23.4860 C   0  0  0  0  0  0  0  0  0  0  0  0
  -11.8853    1.4085  -23.6795 C   0  0  0  0  0  0  0  0  0  0  0  0
  -11.9850    2.8543  -23.8254 C   0  0  0  0  0  0  0  0  0  0  0  0
  -13.0813    3.4524  -23.7500 O   0  0  0  0  0  0  0  0  0  0  0  0
   -6.9577   -1.1902  -22.7214 C   0  0  0  0  0  0  0  0  0  0  0  0
   -5.9816   -0.9278  -21.7832 C   0  0  0  0  0  0  0  0  0  0  0  0
   -5.3136   -1.9253  -21.1313 N   0  0  0  0  0  0  0  0  0  0  0  0
   -5.5512   -3.2269  -21.3496 C   0  0  0  0  0  0  0  0  0  0  0  0
   -6.5170   -3.5405  -22.2779 C   0  0  0  0  0  0  0  0  0  0  0  0
   -6.7518   -4.8880  -22.4958 C   0  0  0  0  0  0  0  0  0  0  0  0
   -7.7045   -5.2778  -23.4139 C   0  0  0  0  0  0  0  0  0  0  0  0
   -8.3931   -4.2892  -24.0860 C   0  0  0  0  0  0  0  0  0  0  0  0
   -8.1509   -2.9734  -23.8606 C   0  0  0  0  0  0  0  0  0  0  0  0
   -7.2092   -2.5478  -22.9530 C   0  0  0  0  0  0  0  0  0  0  0  0
  -10.8553    4.8559  -24.6573 C   0  0  0  0  0  0  0  0  0  0  0  0
  -12.3030    4.8258  -28.2144 C   0  0  0  0  0  0  0  0  0  0  0  0
  -12.3034    4.9095  -26.7695 N   0  0  0  0  0  0  0  0  0  0  0  0
  -11.0633    4.7956  -26.0994 C   0  0  0  0  0  0  0  0  0  0  0  0
  -10.0424    4.6274  -26.8354 O   0  0  0  0  0  0  0  0  0  0  0  0
  -13.1407    5.0415  -26.2688 H   0  0  0  0  0  0  0  0  0  0  0  0
   -7.7937    2.1829  -25.7184 C   0  0  0  0  0  0  0  0  0  0  0  0
   -7.4792    1.9369  -27.0314 O   0  0  0  0  0  0  0  0  0  0  0  0
   -6.9915    3.0493  -27.7007 C   0  0  0  0  0  0  0  0  0  0  0  0
 29 30  1  0  0  0
 30 31  1  0  0  0
 30 33  1  0  0  0
 31 32  2  0  0  0
 31 28  1  0  0  0
 28  1  1  0  0  0
  1  2  1  0  0  0
  3  2  1  0  0  0
  3  4  1  0  0  0
  3  9  1  0  0  0
  4  5  2  0  0  0
  4  6  1  0  0  0
  6 18  1  0  0  0
  6  7  1  0  0  0
 18 19  2  0  0  0
 19 20  1  0  0  0
 20 21  2  0  0  0
 21 22  1  0  0  0
 22 23  2  0  0  0
 23 24  1  0  0  0
 24 25  2  0  0  0
 25 26  1  0  0  0
 26 27  2  0  0  0
 27 18  1  0  0  0
 27 22  1  0  0  0
  7  8  1  0  0  0
  8 34  1  0  0  0
  8  3  1  0  0  0
 34 35  1  0  0  0
 35 36  1  0  0  0
  9 10  2  0  0  0
 10 11  1  0  0  0
 11 12  1  0  0  0
 11 13  2  0  0  0
 13 14  1  0  0  0
 14 15  2  0  0  0
 15 16  1  0  0  0
 15  9  1  0  0  0
 16 17  2  0  0  0
 16  1  1  0  0  0
M  END
> <minimizedAffinity>
-7.03867

> <CNNscore>
0.3511370122

> <CNNaffinity>
6.0656003952

> <CNN_VS>
2.1298568249

> <CNNaffinity_variance>
0.1546903104

$$$$



 36 40  0  0  0  0  0  0  0  0999 V2000
   -7.3160   -3.1877  -24.5265 N   0  0  0  0  0  0  0  0  0  0  0  0
   -7.2865   -1.7789  -24.7439 C   0  0  0  0  0  0  0  0  0  0  0  0
   -8.2915   -0.9373  -24.0260 C   0  0  0  0  0  0  0  0  0  0  0  0
   -8.5064    0.2830  -24.8886 C   0  0  0  0  0  0  0  0  0  0  0  0
   -8.3901    0.3418  -26.1562 O   0  0  0  0  0  0  0  0  0  0  0  0
   -8.8657    1.3899  -24.0800 N   0  0  0  0  0  0  0  0  0  0  0  0
   -8.4290    1.0612  -22.7475 C   0  0  0  0  0  0  0  0  0  0  0  0
   -7.8587   -0.3294  -22.7484 C   0  0  0  0  0  0  0  0  0  0  0  0
   -9.5804   -1.6885  -23.9068 C   0  0  0  0  0  0  0  0  0  0  0  0
  -10.7590   -1.0143  -23.5638 C   0  0  0  0  0  0  0  0  0  0  0  0
  -11.9711   -1.6555  -23.4638 C   0  0  0  0  0  0  0  0  0  0  0  0
  -13.3833   -0.6941  -23.0240 Cl  0  0  0  0  0  0  0  0  0  0  0  0
  -12.0860   -2.9893  -23.6952 C   0  0  0  0  0  0  0  0  0  0  0  0
  -10.9497   -3.6911  -24.0349 C   0  0  0  0  0  0  0  0  0  0  0  0
   -9.7233   -3.0336  -24.1340 C   0  0  0  0  0  0  0  0  0  0  0  0
   -8.5775   -3.8704  -24.4634 C   0  0  0  0  0  0  0  0  0  0  0  0
   -8.6945   -5.0980  -24.6749 O   0  0  0  0  0  0  0  0  0  0  0  0
   -9.5202    2.6073  -24.4370 C   0  0  0  0  0  0  0  0  0  0  0  0
   -8.9890    3.5201  -25.3239 C   0  0  0  0  0  0  0  0  0  0  0  0
   -9.6368    4.6777  -25.6504 N   0  0  0  0  0  0  0  0  0  0  0  0
  -10.8296    5.0158  -25.1393 C   0  0  0  0  0  0  0  0  0  0  0  0
  -11.4015    4.1370  -24.2484 C   0  0  0  0  0  0  0  0  0  0  0  0
  -12.6324    4.4983  -23.7262 C   0  0  0  0  0  0  0  0  0  0  0  0
  -13.2652    3.6672  -22.8254 C   0  0  0  0  0  0  0  0  0  0  0  0
  -12.6314    2.4919  -22.4791 C   0  0  0  0  0  0  0  0  0  0  0  0
  -11.4254    2.1527  -23.0001 C   0  0  0  0  0  0  0  0  0  0  0  0
  -10.7654    2.9560  -23.9005 C   0  0  0  0  0  0  0  0  0  0  0  0
   -6.1397   -4.0307  -24.3888 C   0  0  0  0  0  0  0  0  0  0  0  0
   -6.1738   -6.7827  -21.7102 C   0  0  0  0  0  0  0  0  0  0  0  0
   -6.1683   -6.2069  -23.0380 N   0  0  0  0  0  0  0  0  0  0  0  0
   -6.1501   -4.7972  -23.1481 C   0  0  0  0  0  0  0  0  0  0  0  0
   -6.1401   -4.1501  -22.0557 O   0  0  0  0  0  0  0  0  0  0  0  0
   -6.1769   -6.7788  -23.8394 H   0  0  0  0  0  0  0  0  0  0  0  0
   -6.3546   -0.2049  -22.6681 C   0  0  0  0  0  0  0  0  0  0  0  0
   -5.9044   -0.8718  -21.5564 O   0  0  0  0  0  0  0  0  0  0  0  0
   -5.5856   -0.0323  -20.4995 C   0  0  0  0  0  0  0  0  0  0  0  0
 29 30  1  0  0  0
 30 31  1  0  0  0
 30 33  1  0  0  0
 31 32  2  0  0  0
 31 28  1  0  0  0
 28  1  1  0  0  0
  1  2  1  0  0  0
  3  2  1  0  0  0
  3  4  1  0  0  0
  3  9  1  0  0  0
  4  5  2  0  0  0
  4  6  1  0  0  0
  6 18  1  0  0  0
  6  7  1  0  0  0
 18 19  2  0  0  0
 19 20  1  0  0  0
 20 21  2  0  0  0
 21 22  1  0  0  0
 22 23  2  0  0  0
 23 24  1  0  0  0
 24 25  2  0  0  0
 25 26  1  0  0  0
 26 27  2  0  0  0
 27 18  1  0  0  0
 27 22  1  0  0  0
  7  8  1  0  0  0
  8 34  1  0  0  0
  8  3  1  0  0  0
 34 35  1  0  0  0
 35 36  1  0  0  0
  9 10  2  0  0  0
 10 11  1  0  0  0
 11 12  1  0  0  0
 11 13  2  0  0  0
 13 14  1  0  0  0
 14 15  2  0  0  0
 15 16  1  0  0  0
 15  9  1  0  0  0
 16 17  2  0  0  0
 16  1  1  0  0  0
M  END
> <minimizedAffinity>
-6.85149

> <CNNscore>
0.2932189107

> <CNNaffinity>
6.2447872162

> <CNN_VS>
1.8310897350

> <CNNaffinity_variance>
0.1673966944

$$$$



 36 40  0  0  0  0  0  0  0  0999 V2000
   -4.5503    1.7585  -22.4890 N   0  0  0  0  0  0  0  0  0  0  0  0
   -5.7749    1.0335  -22.5759 C   0  0  0  0  0  0  0  0  0  0  0  0
   -6.8920    1.6359  -23.3651 C   0  0  0  0  0  0  0  0  0  0  0  0
   -8.1669    1.0958  -22.7630 C   0  0  0  0  0  0  0  0  0  0  0  0
   -8.3389    0.7419  -21.5510 O   0  0  0  0  0  0  0  0  0  0  0  0
   -9.1797    1.0314  -23.7521 N   0  0  0  0  0  0  0  0  0  0  0  0
   -8.4937    1.0451  -25.0184 C   0  0  0  0  0  0  0  0  0  0  0  0
   -7.0191    1.2038  -24.7744 C   0  0  0  0  0  0  0  0  0  0  0  0
   -6.8678    3.1244  -23.2117 C   0  0  0  0  0  0  0  0  0  0  0  0
   -7.9801    3.8887  -23.5856 C   0  0  0  0  0  0  0  0  0  0  0  0
   -8.0151    5.2558  -23.4434 C   0  0  0  0  0  0  0  0  0  0  0  0
   -9.4756    6.1048  -23.9517 Cl  0  0  0  0  0  0  0  0  0  0  0  0
   -6.9604    5.9397  -22.9277 C   0  0  0  0  0  0  0  0  0  0  0  0
   -5.8449    5.2254  -22.5477 C   0  0  0  0  0  0  0  0  0  0  0  0
   -5.8167    3.8384  -22.6954 C   0  0  0  0  0  0  0  0  0  0  0  0
   -4.5792    3.1812  -22.2978 C   0  0  0  0  0  0  0  0  0  0  0  0
   -3.6139    3.8205  -21.8237 O   0  0  0  0  0  0  0  0  0  0  0  0
  -10.5978    0.9629  -23.6037 C   0  0  0  0  0  0  0  0  0  0  0  0
  -11.4287    2.0522  -23.7619 C   0  0  0  0  0  0  0  0  0  0  0  0
  -12.7839    1.9595  -23.6160 N   0  0  0  0  0  0  0  0  0  0  0  0
  -13.4085    0.8130  -23.3100 C   0  0  0  0  0  0  0  0  0  0  0  0
  -12.6221   -0.3034  -23.1415 C   0  0  0  0  0  0  0  0  0  0  0  0
  -13.2788   -1.4808  -22.8240 C   0  0  0  0  0  0  0  0  0  0  0  0
  -12.5551   -2.6402  -22.6382 C   0  0  0  0  0  0  0  0  0  0  0  0
  -11.1845   -2.5731  -22.7797 C   0  0  0  0  0  0  0  0  0  0  0  0
  -10.5568   -1.4114  -23.0912 C   0  0  0  0  0  0  0  0  0  0  0  0
  -11.2454   -0.2365  -23.2839 C   0  0  0  0  0  0  0  0  0  0  0  0
   -3.2263    1.1609  -22.5476 C   0  0  0  0  0  0  0  0  0  0  0  0
   -0.6879    2.0740  -19.8141 C   0  0  0  0  0  0  0  0  0  0  0  0
   -1.2653    2.0179  -21.1401 N   0  0  0  0  0  0  0  0  0  0  0  0
   -2.4885    1.3266  -21.3007 C   0  0  0  0  0  0  0  0  0  0  0  0
   -2.9806    0.8078  -20.2515 O   0  0  0  0  0  0  0  0  0  0  0  0
   -0.8205    2.4474  -21.9061 H   0  0  0  0  0  0  0  0  0  0  0  0
   -6.3711   -0.1413  -25.0089 C   0  0  0  0  0  0  0  0  0  0  0  0
   -7.2275   -0.9365  -25.7285 O   0  0  0  0  0  0  0  0  0  0  0  0
   -6.9061   -2.2846  -25.6753 C   0  0  0  0  0  0  0  0  0  0  0  0
 29 30  1  0  0  0
 30 31  1  0  0  0
 30 33  1  0  0  0
 31 32  2  0  0  0
 31 28  1  0  0  0
 28  1  1  0  0  0
  1  2  1  0  0  0
  3  2  1  0  0  0
  3  4  1  0  0  0
  3  9  1  0  0  0
  4  5  2  0  0  0
  4  6  1  0  0  0
  6 18  1  0  0  0
  6  7  1  0  0  0
 18 19  2  0  0  0
 19 20  1  0  0  0
 20 21  2  0  0  0
 21 22  1  0  0  0
 22 23  2  0  0  0
 23 24  1  0  0  0
 24 25  2  0  0  0
 25 26  1  0  0  0
 26 27  2  0  0  0
 27 18  1  0  0  0
 27 22  1  0  0  0
  7  8  1  0  0  0
  8 34  1  0  0  0
  8  3  1  0  0  0
 34 35  1  0  0  0
 35 36  1  0  0  0
  9 10  2  0  0  0
 10 11  1  0  0  0
 11 12  1  0  0  0
 11 13  2  0  0  0
 13 14  1  0  0  0
 14 15  2  0  0  0
 15 16  1  0  0  0
 15  9  1  0  0  0
 16 17  2  0  0  0
 16  1  1  0  0  0
M  END
> <minimizedAffinity>
-7.02926

> <CNNscore>
0.2500795722

> <CNNaffinity>
5.7664785385

> <CNN_VS>
1.4420784712

> <CNNaffinity_variance>
0.1422234625

$$$$



 36 40  0  0  0  0  0  0  0  0999 V2000
   -5.6076   -0.7251  -20.7506 N   0  0  0  0  0  0  0  0  0  0  0  0
   -4.4811   -0.1398  -21.3996 C   0  0  0  0  0  0  0  0  0  0  0  0
   -4.5827    1.2882  -21.8287 C   0  0  0  0  0  0  0  0  0  0  0  0
   -3.6526    1.4365  -23.0088 C   0  0  0  0  0  0  0  0  0  0  0  0
   -3.3369    0.5245  -23.8408 O   0  0  0  0  0  0  0  0  0  0  0  0
   -3.1606    2.7640  -23.0731 N   0  0  0  0  0  0  0  0  0  0  0  0
   -3.3449    3.3156  -21.7555 C   0  0  0  0  0  0  0  0  0  0  0  0
   -4.0468    2.3029  -20.8947 C   0  0  0  0  0  0  0  0  0  0  0  0
   -5.9834    1.5812  -22.2667 C   0  0  0  0  0  0  0  0  0  0  0  0
   -6.2631    2.7394  -23.0026 C   0  0  0  0  0  0  0  0  0  0  0  0
   -7.5288    3.0414  -23.4468 C   0  0  0  0  0  0  0  0  0  0  0  0
   -7.7513    4.5313  -24.3649 Cl  0  0  0  0  0  0  0  0  0  0  0  0
   -8.5817    2.2220  -23.1904 C   0  0  0  0  0  0  0  0  0  0  0  0
   -8.3501    1.0715  -22.4682 C   0  0  0  0  0  0  0  0  0  0  0  0
   -7.0632    0.7721  -22.0205 C   0  0  0  0  0  0  0  0  0  0  0  0
   -6.9302   -0.4478  -21.2358 C   0  0  0  0  0  0  0  0  0  0  0  0
   -7.9065   -1.1956  -21.0057 O   0  0  0  0  0  0  0  0  0  0  0  0
   -2.5877    3.4731  -24.1716 C   0  0  0  0  0  0  0  0  0  0  0  0
   -3.3333    4.2078  -25.0694 C   0  0  0  0  0  0  0  0  0  0  0  0
   -2.7601    4.8793  -26.1120 N   0  0  0  0  0  0  0  0  0  0  0  0
   -1.4393    4.8775  -26.3435 C   0  0  0  0  0  0  0  0  0  0  0  0
   -0.6518    4.1578  -25.4747 C   0  0  0  0  0  0  0  0  0  0  0  0
    0.7104    4.1622  -25.7255 C   0  0  0  0  0  0  0  0  0  0  0  0
    1.5618    3.4609  -24.8974 C   0  0  0  0  0  0  0  0  0  0  0  0
    1.0075    2.7741  -23.8372 C   0  0  0  0  0  0  0  0  0  0  0  0
   -0.3292    2.7801  -23.6055 C   0  0  0  0  0  0  0  0  0  0  0  0
   -1.2081    3.4680  -24.4094 C   0  0  0  0  0  0  0  0  0  0  0  0
   -5.5331   -1.6354  -19.6195 C   0  0  0  0  0  0  0  0  0  0  0  0
   -5.5435   -4.9541  -21.5522 C   0  0  0  0  0  0  0  0  0  0  0  0
   -5.6896   -3.5306  -21.3356 N   0  0  0  0  0  0  0  0  0  0  0  0
   -5.4423   -3.0299  -20.0364 C   0  0  0  0  0  0  0  0  0  0  0  0
   -5.1086   -3.8862  -19.1603 O   0  0  0  0  0  0  0  0  0  0  0  0
   -5.9529   -2.9297  -22.0697 H   0  0  0  0  0  0  0  0  0  0  0  0
   -3.0199    1.7134  -19.9555 C   0  0  0  0  0  0  0  0  0  0  0  0
   -2.0138    2.6251  -19.7556 O   0  0  0  0  0  0  0  0  0  0  0  0
   -0.7436    2.0857  -19.8942 C   0  0  0  0  0  0  0  0  0  0  0  0
 29 30  1  0  0  0
 30 31  1  0  0  0
 30 33  1  0  0  0
 31 32  2  0  0  0
 31 28  1  0  0  0
 28  1  1  0  0  0
  1  2  1  0  0  0
  3  2  1  0  0  0
  3  4  1  0  0  0
  3  9  1  0  0  0
  4  5  2  0  0  0
  4  6  1  0  0  0
  6 18  1  0  0  0
  6  7  1  0  0  0
 18 19  2  0  0  0
 19 20  1  0  0  0
 20 21  2  0  0  0
 21 22  1  0  0  0
 22 23  2  0  0  0
 23 24  1  0  0  0
 24 25  2  0  0  0
 25 26  1  0  0  0
 26 27  2  0  0  0
 27 18  1  0  0  0
 27 22  1  0  0  0
  7  8  1  0  0  0
  8 34  1  0  0  0
  8  3  1  0  0  0
 34 35  1  0  0  0
 35 36  1  0  0  0
  9 10  2  0  0  0
 10 11  1  0  0  0
 11 12  1  0  0  0
 11 13  2  0  0  0
 13 14  1  0  0  0
 14 15  2  0  0  0
 15 16  1  0  0  0
 15  9  1  0  0  0
 16 17  2  0  0  0
 16  1  1  0  0  0
M  END
> <minimizedAffinity>
-6.32494

> <CNNscore>
0.2115475833

> <CNNaffinity>
5.4781465530

> <CNN_VS>
1.1588886976

> <CNNaffinity_variance>
0.1635389477

$$$$



 36 40  0  0  0  0  0  0  0  0999 V2000
   -4.5339    1.8824  -22.6381 N   0  0  0  0  0  0  0  0  0  0  0  0
   -5.7658    1.1725  -22.7447 C   0  0  0  0  0  0  0  0  0  0  0  0
   -6.8917    1.8279  -23.4771 C   0  0  0  0  0  0  0  0  0  0  0  0
   -8.1602    1.2629  -22.8843 C   0  0  0  0  0  0  0  0  0  0  0  0
   -8.3136    0.8404  -21.6919 O   0  0  0  0  0  0  0  0  0  0  0  0
   -9.1909    1.2636  -23.8569 N   0  0  0  0  0  0  0  0  0  0  0  0
   -8.5273    1.3460  -25.1325 C   0  0  0  0  0  0  0  0  0  0  0  0
   -7.0474    1.4796  -24.9066 C   0  0  0  0  0  0  0  0  0  0  0  0
   -6.8525    3.3048  -23.2380 C   0  0  0  0  0  0  0  0  0  0  0  0
   -7.9649    4.0976  -23.5466 C   0  0  0  0  0  0  0  0  0  0  0  0
   -7.9859    5.4544  -23.3246 C   0  0  0  0  0  0  0  0  0  0  0  0
   -9.4481    6.3420  -23.7561 Cl  0  0  0  0  0  0  0  0  0  0  0  0
   -6.9167    6.0994  -22.7893 C   0  0  0  0  0  0  0  0  0  0  0  0
   -5.8006    5.3561  -22.4718 C   0  0  0  0  0  0  0  0  0  0  0  0
   -5.7865    3.9799  -22.7003 C   0  0  0  0  0  0  0  0  0  0  0  0
   -4.5476    3.2917  -22.3641 C   0  0  0  0  0  0  0  0  0  0  0  0
   -3.5688    3.8953  -21.8713 O   0  0  0  0  0  0  0  0  0  0  0  0
  -10.6066    1.1969  -23.6869 C   0  0  0  0  0  0  0  0  0  0  0  0
  -11.2615    0.0735  -23.2274 C   0  0  0  0  0  0  0  0  0  0  0  0
  -12.6182    0.0361  -23.0719 N   0  0  0  0  0  0  0  0  0  0  0  0
  -13.4141    1.0786  -23.3511 C   0  0  0  0  0  0  0  0  0  0  0  0
  -12.8076    2.2238  -23.8135 C   0  0  0  0  0  0  0  0  0  0  0  0
  -13.6404    3.2928  -24.1001 C   0  0  0  0  0  0  0  0  0  0  0  0
  -13.1031    4.4732  -24.5697 C   0  0  0  0  0  0  0  0  0  0  0  0
  -11.7351    4.5365  -24.7357 C   0  0  0  0  0  0  0  0  0  0  0  0
  -10.9333    3.4799  -24.4501 C   0  0  0  0  0  0  0  0  0  0  0  0
  -11.4334    2.2879  -23.9801 C   0  0  0  0  0  0  0  0  0  0  0  0
   -3.2162    1.2796  -22.7554 C   0  0  0  0  0  0  0  0  0  0  0  0
   -0.6613    1.9342  -19.9637 C   0  0  0  0  0  0  0  0  0  0  0  0
   -1.2460    2.0009  -21.2860 N   0  0  0  0  0  0  0  0  0  0  0  0
   -2.4714    1.3291  -21.5026 C   0  0  0  0  0  0  0  0  0  0  0  0
   -2.9589    0.7169  -20.5027 O   0  0  0  0  0  0  0  0  0  0  0  0
   -0.8044    2.4982  -22.0118 H   0  0  0  0  0  0  0  0  0  0  0  0
   -6.4149    0.1457  -25.2306 C   0  0  0  0  0  0  0  0  0  0  0  0
   -6.4498   -0.0536  -26.5879 O   0  0  0  0  0  0  0  0  0  0  0  0
   -6.5575   -1.3886  -26.9479 C   0  0  0  0  0  0  0  0  0  0  0  0
 29 30  1  0  0  0
 30 31  1  0  0  0
 30 33  1  0  0  0
 31 32  2  0  0  0
 31 28  1  0  0  0
 28  1  1  0  0  0
  1  2  1  0  0  0
  3  2  1  0  0  0
  3  4  1  0  0  0
  3  9  1  0  0  0
  4  5  2  0  0  0
  4  6  1  0  0  0
  6 18  1  0  0  0
  6  7  1  0  0  0
 18 19  2  0  0  0
 19 20  1  0  0  0
 20 21  2  0  0  0
 21 22  1  0  0  0
 22 23  2  0  0  0
 23 24  1  0  0  0
 24 25  2  0  0  0
 25 26  1  0  0  0
 26 27  2  0  0  0
 27 18  1  0  0  0
 27 22  1  0  0  0
  7  8  1  0  0  0
  8 34  1  0  0  0
  8  3  1  0  0  0
 34 35  1  0  0  0
 35 36  1  0  0  0
  9 10  2  0  0  0
 10 11  1  0  0  0
 11 12  1  0  0  0
 11 13  2  0  0  0
 13 14  1  0  0  0
 14 15  2  0  0  0
 15 16  1  0  0  0
 15  9  1  0  0  0
 16 17  2  0  0  0
 16  1  1  0  0  0
M  END
> <minimizedAffinity>
-6.76208

> <CNNscore>
0.1691819280

> <CNNaffinity>
5.3281335831

> <CNN_VS>
0.9014239311

> <CNNaffinity_variance>
0.3055442274

$$$$



 36 40  0  0  0  0  0  0  0  0999 V2000
  -10.6739   -1.2196  -23.3113 N   0  0  0  0  0  0  0  0  0  0  0  0
   -9.5687   -0.5396  -23.9018 C   0  0  0  0  0  0  0  0  0  0  0  0
   -9.4477    0.9325  -23.6733 C   0  0  0  0  0  0  0  0  0  0  0  0
   -8.7032    1.4803  -24.8671 C   0  0  0  0  0  0  0  0  0  0  0  0
   -8.7110    1.0001  -26.0474 O   0  0  0  0  0  0  0  0  0  0  0  0
   -7.9713    2.6346  -24.4928 N   0  0  0  0  0  0  0  0  0  0  0  0
   -7.8327    2.5648  -23.0609 C   0  0  0  0  0  0  0  0  0  0  0  0
   -8.5799    1.3627  -22.5550 C   0  0  0  0  0  0  0  0  0  0  0  0
  -10.8122    1.5451  -23.6212 C   0  0  0  0  0  0  0  0  0  0  0  0
  -10.9656    2.9325  -23.7337 C   0  0  0  0  0  0  0  0  0  0  0  0
  -12.1987    3.5406  -23.7141 C   0  0  0  0  0  0  0  0  0  0  0  0
  -12.2588    5.2972  -23.8648 Cl  0  0  0  0  0  0  0  0  0  0  0  0
  -13.3411    2.8171  -23.5831 C   0  0  0  0  0  0  0  0  0  0  0  0
  -13.2348    1.4480  -23.4686 C   0  0  0  0  0  0  0  0  0  0  0  0
  -11.9801    0.8382  -23.4888 C   0  0  0  0  0  0  0  0  0  0  0  0
  -11.9733   -0.6090  -23.3251 C   0  0  0  0  0  0  0  0  0  0  0  0
  -13.0315   -1.2659  -23.2054 O   0  0  0  0  0  0  0  0  0  0  0  0
   -7.4470    3.6860  -25.3036 C   0  0  0  0  0  0  0  0  0  0  0  0
   -8.1709    4.8078  -25.6492 C   0  0  0  0  0  0  0  0  0  0  0  0
   -7.6449    5.8013  -26.4256 N   0  0  0  0  0  0  0  0  0  0  0  0
   -6.3946    5.7653  -26.9090 C   0  0  0  0  0  0  0  0  0  0  0  0
   -5.6315    4.6653  -26.5919 C   0  0  0  0  0  0  0  0  0  0  0  0
   -4.3427    4.6391  -27.0987 C   0  0  0  0  0  0  0  0  0  0  0  0
   -3.5201    3.5666  -26.8238 C   0  0  0  0  0  0  0  0  0  0  0  0
   -4.0279    2.5498  -26.0419 C   0  0  0  0  0  0  0  0  0  0  0  0
   -5.2929    2.5911  -25.5532 C   0  0  0  0  0  0  0  0  0  0  0  0
   -6.1411    3.6438  -25.8063 C   0  0  0  0  0  0  0  0  0  0  0  0
  -10.6073   -2.5377  -22.7015 C   0  0  0  0  0  0  0  0  0  0  0  0
   -8.3772   -5.1725  -24.3850 C   0  0  0  0  0  0  0  0  0  0  0  0
   -8.7976   -4.2181  -23.3814 N   0  0  0  0  0  0  0  0  0  0  0  0
  -10.0150   -3.5299  -23.5912 C   0  0  0  0  0  0  0  0  0  0  0  0
  -10.6423   -3.8138  -24.6580 O   0  0  0  0  0  0  0  0  0  0  0  0
   -8.2530   -4.0533  -22.5780 H   0  0  0  0  0  0  0  0  0  0  0  0
   -7.5579    0.3072  -22.2004 C   0  0  0  0  0  0  0  0  0  0  0  0
   -7.6610    0.0084  -20.8649 O   0  0  0  0  0  0  0  0  0  0  0  0
   -7.7100   -1.3530  -20.6053 C   0  0  0  0  0  0  0  0  0  0  0  0
 29 30  1  0  0  0
 30 31  1  0  0  0
 30 33  1  0  0  0
 31 32  2  0  0  0
 31 28  1  0  0  0
 28  1  1  0  0  0
  1  2  1  0  0  0
  3  2  1  0  0  0
  3  4  1  0  0  0
  3  9  1  0  0  0
  4  5  2  0  0  0
  4  6  1  0  0  0
  6 18  1  0  0  0
  6  7  1  0  0  0
 18 19  2  0  0  0
 19 20  1  0  0  0
 20 21  2  0  0  0
 21 22  1  0  0  0
 22 23  2  0  0  0
 23 24  1  0  0  0
 24 25  2  0  0  0
 25 26  1  0  0  0
 26 27  2  0  0  0
 27 18  1  0  0  0
 27 22  1  0  0  0
  7  8  1  0  0  0
  8 34  1  0  0  0
  8  3  1  0  0  0
 34 35  1  0  0  0
 35 36  1  0  0  0
  9 10  2  0  0  0
 10 11  1  0  0  0
 11 12  1  0  0  0
 11 13  2  0  0  0
 13 14  1  0  0  0
 14 15  2  0  0  0
 15 16  1  0  0  0
 15  9  1  0  0  0
 16 17  2  0  0  0
 16  1  1  0  0  0
M  END
> <minimizedAffinity>
-7.01639

> <CNNscore>
0.1688894629

> <CNNaffinity>
5.5508084297

> <CNN_VS>
0.9374730587

> <CNNaffinity_variance>
0.5978413820

$$$$



 36 40  0  0  0  0  0  0  0  0999 V2000
   -7.6909    1.9946  -23.3401 N   0  0  0  0  0  0  0  0  0  0  0  0
   -8.0473    0.7392  -23.9144 C   0  0  0  0  0  0  0  0  0  0  0  0
   -8.0974   -0.4540  -23.0158 C   0  0  0  0  0  0  0  0  0  0  0  0
   -7.8085   -1.6489  -23.8923 C   0  0  0  0  0  0  0  0  0  0  0  0
   -7.0970   -1.6556  -24.9495 O   0  0  0  0  0  0  0  0  0  0  0  0
   -8.4517   -2.7987  -23.3702 N   0  0  0  0  0  0  0  0  0  0  0  0
   -9.4953   -2.3074  -22.5077 C   0  0  0  0  0  0  0  0  0  0  0  0
   -9.4191   -0.8074  -22.4526 C   0  0  0  0  0  0  0  0  0  0  0  0
   -7.0307   -0.3402  -21.9722 C   0  0  0  0  0  0  0  0  0  0  0  0
   -6.6644   -1.4600  -21.2151 C   0  0  0  0  0  0  0  0  0  0  0  0
   -5.6756   -1.4118  -20.2609 C   0  0  0  0  0  0  0  0  0  0  0  0
   -5.3069   -2.8916  -19.3741 Cl  0  0  0  0  0  0  0  0  0  0  0  0
   -4.9981   -0.2627  -20.0030 C   0  0  0  0  0  0  0  0  0  0  0  0
   -5.3281    0.8634  -20.7255 C   0  0  0  0  0  0  0  0  0  0  0  0
   -6.3329    0.8068  -21.6917 C   0  0  0  0  0  0  0  0  0  0  0  0
   -6.6304    2.0586  -22.3744 C   0  0  0  0  0  0  0  0  0  0  0  0
   -6.0001    3.1112  -22.1295 O   0  0  0  0  0  0  0  0  0  0  0  0
   -8.1821   -4.1808  -23.6039 C   0  0  0  0  0  0  0  0  0  0  0  0
   -7.3948   -4.9494  -22.7723 C   0  0  0  0  0  0  0  0  0  0  0  0
   -7.1536   -6.2715  -23.0176 N   0  0  0  0  0  0  0  0  0  0  0  0
   -7.6582   -6.9214  -24.0765 C   0  0  0  0  0  0  0  0  0  0  0  0
   -8.4508   -6.1972  -24.9369 C   0  0  0  0  0  0  0  0  0  0  0  0
   -8.9645   -6.8792  -26.0275 C   0  0  0  0  0  0  0  0  0  0  0  0
   -9.7661   -6.2172  -26.9340 C   0  0  0  0  0  0  0  0  0  0  0  0
  -10.0246   -4.8810  -26.7089 C   0  0  0  0  0  0  0  0  0  0  0  0
   -9.5135   -4.2277  -25.6353 C   0  0  0  0  0  0  0  0  0  0  0  0
   -8.7111   -4.8550  -24.7110 C   0  0  0  0  0  0  0  0  0  0  0  0
   -8.3065    3.2671  -23.6800 C   0  0  0  0  0  0  0  0  0  0  0  0
  -12.1329    3.0362  -23.9155 C   0  0  0  0  0  0  0  0  0  0  0  0
  -10.8384    3.2189  -23.2945 N   0  0  0  0  0  0  0  0  0  0  0  0
   -9.6904    3.1142  -24.1137 C   0  0  0  0  0  0  0  0  0  0  0  0
   -9.8991    2.8652  -25.3411 O   0  0  0  0  0  0  0  0  0  0  0  0
  -10.7595    3.4101  -22.3319 H   0  0  0  0  0  0  0  0  0  0  0  0
  -10.5505   -0.2626  -23.2936 C   0  0  0  0  0  0  0  0  0  0  0  0
  -11.5754   -1.1750  -23.3186 O   0  0  0  0  0  0  0  0  0  0  0  0
  -12.8296   -0.5944  -23.4334 C   0  0  0  0  0  0  0  0  0  0  0  0
 29 30  1  0  0  0
 30 31  1  0  0  0
 30 33  1  0  0  0
 31 32  2  0  0  0
 31 28  1  0  0  0
 28  1  1  0  0  0
  1  2  1  0  0  0
  3  2  1  0  0  0
  3  4  1  0  0  0
  3  9  1  0  0  0
  4  5  2  0  0  0
  4  6  1  0  0  0
  6 18  1  0  0  0
  6  7  1  0  0  0
 18 19  2  0  0  0
 19 20  1  0  0  0
 20 21  2  0  0  0
 21 22  1  0  0  0
 22 23  2  0  0  0
 23 24  1  0  0  0
 24 25  2  0  0  0
 25 26  1  0  0  0
 26 27  2  0  0  0
 27 18  1  0  0  0
 27 22  1  0  0  0
  7  8  1  0  0  0
  8 34  1  0  0  0
  8  3  1  0  0  0
 34 35  1  0  0  0
 35 36  1  0  0  0
  9 10  2  0  0  0
 10 11  1  0  0  0
 11 12  1  0  0  0
 11 13  2  0  0  0
 13 14  1  0  0  0
 14 15  2  0  0  0
 15 16  1  0  0  0
 15  9  1  0  0  0
 16 17  2  0  0  0
 16  1  1  0  0  0
M  END
> <minimizedAffinity>
-7.81146

> <CNNscore>
0.1670670956

> <CNNaffinity>
5.9084434509

> <CNN_VS>
0.9871065021

> <CNNaffinity_variance>
0.4045538902

$$$$



 40 45  0  0  0  0  0  0  0  0999 V2000
   -9.4189    2.0520  -24.5496 N   0  0  0  0  0  0  0  0  0  0  0  0
   -8.7925    0.7722  -24.8069 C   0  0  0  0  0  0  0  0  0  0  0  0
   -9.1300   -0.1641  -23.6920 C   0  0  0  0  0  0  0  0  0  0  0  0
   -8.5205    0.3392  -22.4050 C   0  0  0  0  0  0  0  0  0  0  0  0
   -8.9909    1.2900  -21.6923 O   0  0  0  0  0  0  0  0  0  0  0  0
   -7.3458   -0.4116  -22.1161 N   0  0  0  0  0  0  0  0  0  0  0  0
   -7.0103   -1.1093  -23.3443 C   0  0  0  0  0  0  0  0  0  0  0  0
   -8.4200   -1.4626  -23.8443 C   0  0  0  0  0  0  0  0  0  0  0  0
  -10.5865   -0.2472  -23.5095 C   0  0  0  0  0  0  0  0  0  0  0  0
  -11.2215   -1.3663  -23.0042 C   0  0  0  0  0  0  0  0  0  0  0  0
  -12.6099   -1.4107  -22.8353 C   0  0  0  0  0  0  0  0  0  0  0  0
  -13.4121   -2.8310  -22.1941 Cl  0  0  0  0  0  0  0  0  0  0  0  0
  -13.4073   -0.3366  -23.1667 C   0  0  0  0  0  0  0  0  0  0  0  0
  -12.7820    0.7837  -23.6715 C   0  0  0  0  0  0  0  0  0  0  0  0
  -11.4154    0.8199  -23.8350 C   0  0  0  0  0  0  0  0  0  0  0  0
  -10.8453    2.0455  -24.3827 C   0  0  0  0  0  0  0  0  0  0  0  0
  -11.5289    3.0517  -24.6989 O   0  0  0  0  0  0  0  0  0  0  0  0
   -6.6726   -0.4420  -20.8637 C   0  0  0  0  0  0  0  0  0  0  0  0
   -7.2127   -1.3068  -19.9056 C   0  0  0  0  0  0  0  0  0  0  0  0
   -6.6587   -1.4131  -18.6951 N   0  0  0  0  0  0  0  0  0  0  0  0
   -5.5648   -0.6854  -18.3752 C   0  0  0  0  0  0  0  0  0  0  0  0
   -5.0160    0.1777  -19.3141 C   0  0  0  0  0  0  0  0  0  0  0  0
   -3.8986    0.9148  -18.9733 C   0  0  0  0  0  0  0  0  0  0  0  0
   -3.3584    1.7719  -19.9139 C   0  0  0  0  0  0  0  0  0  0  0  0
   -3.9248    1.8969  -21.1873 C   0  0  0  0  0  0  0  0  0  0  0  0
   -5.0510    1.1567  -21.5368 C   0  0  0  0  0  0  0  0  0  0  0  0
   -5.5578    0.3205  -20.5834 C   0  0  0  0  0  0  0  0  0  0  0  0
   -8.6881    3.3004  -24.4594 C   0  0  0  0  0  0  0  0  0  0  0  0
   -4.8710    2.9208  -24.9406 C   0  0  0  0  0  0  0  0  0  0  0  0
   -6.1987    3.0027  -24.3606 N   0  0  0  0  0  0  0  0  0  0  0  0
   -7.3708    3.2325  -25.1423 C   0  0  0  0  0  0  0  0  0  0  0  0
   -7.2558    3.3720  -26.3950 O   0  0  0  0  0  0  0  0  0  0  0  0
   -6.2951    2.8951  -23.3868 H   0  0  0  0  0  0  0  0  0  0  0  0
   -8.3825   -1.8410  -25.3069 C   0  0  0  0  0  0  0  0  0  0  0  0
   -8.6711   -3.2861  -25.5070 C   0  0  0  0  0  0  0  0  0  0  0  0
   -9.9735   -3.7631  -25.6256 C   0  0  0  0  0  0  0  0  0  0  0  0
  -10.2585   -5.0973  -25.8117 C   0  0  0  0  0  0  0  0  0  0  0  0
   -9.2206   -6.0245  -25.8874 C   0  0  0  0  0  0  0  0  0  0  0  0
   -7.9145   -5.5599  -25.7703 C   0  0  0  0  0  0  0  0  0  0  0  0
   -7.6404   -4.2254  -25.5847 C   0  0  0  0  0  0  0  0  0  0  0  0
 29 30  1  0  0  0
 30 31  1  0  0  0
 30 33  1  0  0  0
 31 32  2  0  0  0
 31 28  1  0  0  0
 28  1  1  0  0  0
  1  2  1  0  0  0
  3  2  1  0  0  0
  3  4  1  0  0  0
  3  9  1  0  0  0
  4  5  2  0  0  0
  4  6  1  0  0  0
  6 18  1  0  0  0
  6  7  1  0  0  0
 18 19  2  0  0  0
 19 20  1  0  0  0
 20 21  2  0  0  0
 21 22  1  0  0  0
 22 23  2  0  0  0
 23 24  1  0  0  0
 24 25  2  0  0  0
 25 26  1  0  0  0
 26 27  2  0  0  0
 27 18  1  0  0  0
 27 22  1  0  0  0
  7  8  1  0  0  0
  8 34  1  0  0  0
  8  3  1  0  0  0
 34 35  1  0  0  0
 35 36  2  0  0  0
 36 37  1  0  0  0
 37 38  2  0  0  0
 38 39  1  0  0  0
 39 40  2  0  0  0
 40 35  1  0  0  0
  9 10  2  0  0  0
 10 11  1  0  0  0
 11 12  1  0  0  0
 11 13  2  0  0  0
 13 14  1  0  0  0
 14 15  2  0  0  0
 15 16  1  0  0  0
 15  9  1  0  0  0
 16 17  2  0  0  0
 16  1  1  0  0  0
M  END
> <minimizedAffinity>
-8.96152

> <CNNscore>
0.6735570431

> <CNNaffinity>
6.9002737999

> <CNN_VS>
4.6477279663

> <CNNaffinity_variance>
0.0843803361

$$$$



 40 45  0  0  0  0  0  0  0  0999 V2000
   -7.7849   -4.9436  -23.5257 N   0  0  0  0  0  0  0  0  0  0  0  0
   -8.7234   -3.8976  -23.1766 C   0  0  0  0  0  0  0  0  0  0  0  0
   -8.0545   -2.5718  -23.3455 C   0  0  0  0  0  0  0  0  0  0  0  0
   -6.9174   -2.4483  -22.3592 C   0  0  0  0  0  0  0  0  0  0  0  0
   -5.7700   -2.9960  -22.4888 O   0  0  0  0  0  0  0  0  0  0  0  0
   -7.3271   -1.6285  -21.2697 N   0  0  0  0  0  0  0  0  0  0  0  0
   -8.7729   -1.5369  -21.3656 C   0  0  0  0  0  0  0  0  0  0  0  0
   -8.9350   -1.4617  -22.8921 C   0  0  0  0  0  0  0  0  0  0  0  0
   -7.5031   -2.4399  -24.7020 C   0  0  0  0  0  0  0  0  0  0  0  0
   -7.3472   -1.2227  -25.3385 C   0  0  0  0  0  0  0  0  0  0  0  0
   -6.8114   -1.1304  -26.6280 C   0  0  0  0  0  0  0  0  0  0  0  0
   -6.6147    0.4142  -27.4323 Cl  0  0  0  0  0  0  0  0  0  0  0  0
   -6.4147   -2.2532  -27.3217 C   0  0  0  0  0  0  0  0  0  0  0  0
   -6.5670   -3.4715  -26.6942 C   0  0  0  0  0  0  0  0  0  0  0  0
   -7.0949   -3.5543  -25.4254 C   0  0  0  0  0  0  0  0  0  0  0  0
   -7.2240   -4.8868  -24.8466 C   0  0  0  0  0  0  0  0  0  0  0  0
   -6.8760   -5.9402  -25.4374 O   0  0  0  0  0  0  0  0  0  0  0  0
   -6.4606   -1.0399  -20.3077 C   0  0  0  0  0  0  0  0  0  0  0  0
   -6.5210   -1.5876  -19.0216 C   0  0  0  0  0  0  0  0  0  0  0  0
   -5.7499   -1.1100  -18.0415 N   0  0  0  0  0  0  0  0  0  0  0  0
   -4.8967   -0.0876  -18.2764 C   0  0  0  0  0  0  0  0  0  0  0  0
   -4.8242    0.4676  -19.5469 C   0  0  0  0  0  0  0  0  0  0  0  0
   -3.9482    1.5116  -19.7723 C   0  0  0  0  0  0  0  0  0  0  0  0
   -3.8821    2.0588  -21.0401 C   0  0  0  0  0  0  0  0  0  0  0  0
   -4.6821    1.5719  -22.0799 C   0  0  0  0  0  0  0  0  0  0  0  0
   -5.5670    0.5200  -21.8590 C   0  0  0  0  0  0  0  0  0  0  0  0
   -5.6059    0.0039  -20.5951 C   0  0  0  0  0  0  0  0  0  0  0  0
   -7.4031   -6.0134  -22.6256 C   0  0  0  0  0  0  0  0  0  0  0  0
   -3.7062   -6.9200  -23.3021 C   0  0  0  0  0  0  0  0  0  0  0  0
   -5.1480   -6.7915  -23.4037 N   0  0  0  0  0  0  0  0  0  0  0  0
   -5.9319   -6.0925  -22.4368 C   0  0  0  0  0  0  0  0  0  0  0  0
   -5.3524   -5.5595  -21.4458 O   0  0  0  0  0  0  0  0  0  0  0  0
   -5.6050   -7.2038  -24.1720 H   0  0  0  0  0  0  0  0  0  0  0  0
  -10.3617   -1.7644  -23.2876 C   0  0  0  0  0  0  0  0  0  0  0  0
  -11.1748   -0.5243  -23.3991 C   0  0  0  0  0  0  0  0  0  0  0  0
  -10.5875    0.7378  -23.4108 C   0  0  0  0  0  0  0  0  0  0  0  0
  -11.3250    1.8960  -23.5139 C   0  0  0  0  0  0  0  0  0  0  0  0
  -12.7137    1.8278  -23.6115 C   0  0  0  0  0  0  0  0  0  0  0  0
  -13.3124    0.5720  -23.6011 C   0  0  0  0  0  0  0  0  0  0  0  0
  -12.5670   -0.5786  -23.4977 C   0  0  0  0  0  0  0  0  0  0  0  0
 29 30  1  0  0  0
 30 31  1  0  0  0
 30 33  1  0  0  0
 31 32  2  0  0  0
 31 28  1  0  0  0
 28  1  1  0  0  0
  1  2  1  0  0  0
  3  2  1  0  0  0
  3  4  1  0  0  0
  3  9  1  0  0  0
  4  5  2  0  0  0
  4  6  1  0  0  0
  6 18  1  0  0  0
  6  7  1  0  0  0
 18 19  2  0  0  0
 19 20  1  0  0  0
 20 21  2  0  0  0
 21 22  1  0  0  0
 22 23  2  0  0  0
 23 24  1  0  0  0
 24 25  2  0  0  0
 25 26  1  0  0  0
 26 27  2  0  0  0
 27 18  1  0  0  0
 27 22  1  0  0  0
  7  8  1  0  0  0
  8 34  1  0  0  0
  8  3  1  0  0  0
 34 35  1  0  0  0
 35 36  2  0  0  0
 36 37  1  0  0  0
 37 38  2  0  0  0
 38 39  1  0  0  0
 39 40  2  0  0  0
 40 35  1  0  0  0
  9 10  2  0  0  0
 10 11  1  0  0  0
 11 12  1  0  0  0
 11 13  2  0  0  0
 13 14  1  0  0  0
 14 15  2  0  0  0
 15 16  1  0  0  0
 15  9  1  0  0  0
 16 17  2  0  0  0
 16  1  1  0  0  0
M  END
> <minimizedAffinity>
-9.50235

> <CNNscore>
0.5183549523

> <CNNaffinity>
6.8311066628

> <CNN_VS>
3.5409379005

> <CNNaffinity_variance>
0.3142567575

$$$$



 40 45  0  0  0  0  0  0  0  0999 V2000
   -6.5213   -3.5043  -22.3274 N   0  0  0  0  0  0  0  0  0  0  0  0
   -6.6213   -2.8077  -23.5928 C   0  0  0  0  0  0  0  0  0  0  0  0
   -7.1073   -1.4168  -23.3420 C   0  0  0  0  0  0  0  0  0  0  0  0
   -8.5112   -1.4625  -22.7871 C   0  0  0  0  0  0  0  0  0  0  0  0
   -8.8140   -1.7412  -21.5771 O   0  0  0  0  0  0  0  0  0  0  0  0
   -9.4363   -1.1470  -23.8223 N   0  0  0  0  0  0  0  0  0  0  0  0
   -8.6933   -1.2596  -25.0645 C   0  0  0  0  0  0  0  0  0  0  0  0
   -7.3384   -0.6877  -24.6180 C   0  0  0  0  0  0  0  0  0  0  0  0
   -6.2473   -0.7375  -22.3619 C   0  0  0  0  0  0  0  0  0  0  0  0
   -6.0682    0.6330  -22.3364 C   0  0  0  0  0  0  0  0  0  0  0  0
   -5.2483    1.2500  -21.3848 C   0  0  0  0  0  0  0  0  0  0  0  0
   -5.0234    2.9878  -21.3549 Cl  0  0  0  0  0  0  0  0  0  0  0  0
   -4.5816    0.5152  -20.4284 C   0  0  0  0  0  0  0  0  0  0  0  0
   -4.7546   -0.8526  -20.4468 C   0  0  0  0  0  0  0  0  0  0  0  0
   -5.5627   -1.4525  -21.3862 C   0  0  0  0  0  0  0  0  0  0  0  0
   -5.6784   -2.9053  -21.3309 C   0  0  0  0  0  0  0  0  0  0  0  0
   -5.0923   -3.6193  -20.4785 O   0  0  0  0  0  0  0  0  0  0  0  0
  -10.8017   -0.7975  -23.6313 C   0  0  0  0  0  0  0  0  0  0  0  0
  -11.6709   -1.8641  -23.3774 C   0  0  0  0  0  0  0  0  0  0  0  0
  -12.9744   -1.6485  -23.1831 N   0  0  0  0  0  0  0  0  0  0  0  0
  -13.4763   -0.3937  -23.2285 C   0  0  0  0  0  0  0  0  0  0  0  0
  -12.6277    0.6762  -23.4793 C   0  0  0  0  0  0  0  0  0  0  0  0
  -13.1543    1.9525  -23.5229 C   0  0  0  0  0  0  0  0  0  0  0  0
  -12.3027    3.0122  -23.7733 C   0  0  0  0  0  0  0  0  0  0  0  0
  -10.9340    2.8062  -23.9794 C   0  0  0  0  0  0  0  0  0  0  0  0
  -10.3972    1.5223  -23.9367 C   0  0  0  0  0  0  0  0  0  0  0  0
  -11.2673    0.4997  -23.6871 C   0  0  0  0  0  0  0  0  0  0  0  0
   -7.2132   -4.7440  -22.0360 C   0  0  0  0  0  0  0  0  0  0  0  0
   -4.3323   -7.0288  -23.2305 C   0  0  0  0  0  0  0  0  0  0  0  0
   -5.0942   -5.9209  -22.6847 N   0  0  0  0  0  0  0  0  0  0  0  0
   -6.5199   -5.9248  -22.6117 C   0  0  0  0  0  0  0  0  0  0  0  0
   -7.1538   -6.9334  -23.0392 O   0  0  0  0  0  0  0  0  0  0  0  0
   -4.6073   -5.1332  -22.3506 H   0  0  0  0  0  0  0  0  0  0  0  0
   -6.2569   -1.0583  -25.6062 C   0  0  0  0  0  0  0  0  0  0  0  0
   -5.0936   -0.1362  -25.5175 C   0  0  0  0  0  0  0  0  0  0  0  0
   -3.8400   -0.5768  -25.1022 C   0  0  0  0  0  0  0  0  0  0  0  0
   -2.7523    0.2630  -25.0148 C   0  0  0  0  0  0  0  0  0  0  0  0
   -2.8867    1.6094  -25.3493 C   0  0  0  0  0  0  0  0  0  0  0  0
   -4.1347    2.0617  -25.7658 C   0  0  0  0  0  0  0  0  0  0  0  0
   -5.2146    1.2150  -25.8499 C   0  0  0  0  0  0  0  0  0  0  0  0
 29 30  1  0  0  0
 30 31  1  0  0  0
 30 33  1  0  0  0
 31 32  2  0  0  0
 31 28  1  0  0  0
 28  1  1  0  0  0
  1  2  1  0  0  0
  3  2  1  0  0  0
  3  4  1  0  0  0
  3  9  1  0  0  0
  4  5  2  0  0  0
  4  6  1  0  0  0
  6 18  1  0  0  0
  6  7  1  0  0  0
 18 19  2  0  0  0
 19 20  1  0  0  0
 20 21  2  0  0  0
 21 22  1  0  0  0
 22 23  2  0  0  0
 23 24  1  0  0  0
 24 25  2  0  0  0
 25 26  1  0  0  0
 26 27  2  0  0  0
 27 18  1  0  0  0
 27 22  1  0  0  0
  7  8  1  0  0  0
  8 34  1  0  0  0
  8  3  1  0  0  0
 34 35  1  0  0  0
 35 36  2  0  0  0
 36 37  1  0  0  0
 37 38  2  0  0  0
 38 39  1  0  0  0
 39 40  2  0  0  0
 40 35  1  0  0  0
  9 10  2  0  0  0
 10 11  1  0  0  0
 11 12  1  0  0  0
 11 13  2  0  0  0
 13 14  1  0  0  0
 14 15  2  0  0  0
 15 16  1  0  0  0
 15  9  1  0  0  0
 16 17  2  0  0  0
 16  1  1  0  0  0
M  END
> <minimizedAffinity>
-7.70069

> <CNNscore>
0.3777661324

> <CNNaffinity>
6.4812507629

> <CNN_VS>
2.4483969212

> <CNNaffinity_variance>
0.0593927875

$$$$



 40 45  0  0  0  0  0  0  0  0999 V2000
   -6.8369   -2.0427  -22.0756 N   0  0  0  0  0  0  0  0  0  0  0  0
   -6.8208   -1.5089  -23.4215 C   0  0  0  0  0  0  0  0  0  0  0  0
   -7.0448   -0.0326  -23.3588 C   0  0  0  0  0  0  0  0  0  0  0  0
   -8.4286    0.2481  -22.8229 C   0  0  0  0  0  0  0  0  0  0  0  0
   -8.7657    0.1874  -21.5916 O   0  0  0  0  0  0  0  0  0  0  0  0
   -9.2909    0.5891  -23.9033 N   0  0  0  0  0  0  0  0  0  0  0  0
   -8.5919    0.1846  -25.1099 C   0  0  0  0  0  0  0  0  0  0  0  0
   -7.1519    0.5552  -24.7212 C   0  0  0  0  0  0  0  0  0  0  0  0
   -6.0670    0.6011  -22.4620 C   0  0  0  0  0  0  0  0  0  0  0  0
   -5.6427    1.9083  -22.6106 C   0  0  0  0  0  0  0  0  0  0  0  0
   -4.7160    2.4847  -21.7346 C   0  0  0  0  0  0  0  0  0  0  0  0
   -4.1801    4.1424  -21.9254 Cl  0  0  0  0  0  0  0  0  0  0  0  0
   -4.1844    1.7714  -20.6820 C   0  0  0  0  0  0  0  0  0  0  0  0
   -4.6022    0.4667  -20.5267 C   0  0  0  0  0  0  0  0  0  0  0  0
   -5.5142   -0.0936  -21.3926 C   0  0  0  0  0  0  0  0  0  0  0  0
   -5.8903   -1.4821  -21.1524 C   0  0  0  0  0  0  0  0  0  0  0  0
   -5.4354   -2.1740  -20.2069 O   0  0  0  0  0  0  0  0  0  0  0  0
  -10.5686    1.2012  -23.7786 C   0  0  0  0  0  0  0  0  0  0  0  0
  -11.6462    0.3256  -23.6064 C   0  0  0  0  0  0  0  0  0  0  0  0
  -12.8903    0.7940  -23.4790 N   0  0  0  0  0  0  0  0  0  0  0  0
  -13.1291    2.1245  -23.5143 C   0  0  0  0  0  0  0  0  0  0  0  0
  -12.0712    3.0074  -23.6845 C   0  0  0  0  0  0  0  0  0  0  0  0
  -12.3301    4.3638  -23.7187 C   0  0  0  0  0  0  0  0  0  0  0  0
  -11.2712    5.2362  -23.8886 C   0  0  0  0  0  0  0  0  0  0  0  0
   -9.9608    4.7643  -24.0239 C   0  0  0  0  0  0  0  0  0  0  0  0
   -9.6934    3.3984  -23.9902 C   0  0  0  0  0  0  0  0  0  0  0  0
  -10.7629    2.5661  -23.8210 C   0  0  0  0  0  0  0  0  0  0  0  0
   -7.7390   -3.0889  -21.6371 C   0  0  0  0  0  0  0  0  0  0  0  0
  -11.2608   -3.0286  -23.2306 C   0  0  0  0  0  0  0  0  0  0  0  0
  -10.1355   -2.8340  -22.3353 N   0  0  0  0  0  0  0  0  0  0  0  0
   -8.8295   -3.3384  -22.6142 C   0  0  0  0  0  0  0  0  0  0  0  0
   -8.6366   -3.9839  -23.6856 O   0  0  0  0  0  0  0  0  0  0  0  0
  -10.2788   -2.3328  -21.5001 H   0  0  0  0  0  0  0  0  0  0  0  0
   -6.1644   -0.1291  -25.6379 C   0  0  0  0  0  0  0  0  0  0  0  0
   -4.8258    0.5163  -25.5818 C   0  0  0  0  0  0  0  0  0  0  0  0
   -4.6212    1.8181  -26.0305 C   0  0  0  0  0  0  0  0  0  0  0  0
   -3.3890    2.4310  -25.9855 C   0  0  0  0  0  0  0  0  0  0  0  0
   -2.2898    1.7423  -25.4757 C   0  0  0  0  0  0  0  0  0  0  0  0
   -2.4817    0.4404  -25.0240 C   0  0  0  0  0  0  0  0  0  0  0  0
   -3.7162   -0.1627  -25.0732 C   0  0  0  0  0  0  0  0  0  0  0  0
 29 30  1  0  0  0
 30 31  1  0  0  0
 30 33  1  0  0  0
 31 32  2  0  0  0
 31 28  1  0  0  0
 28  1  1  0  0  0
  1  2  1  0  0  0
  3  2  1  0  0  0
  3  4  1  0  0  0
  3  9  1  0  0  0
  4  5  2  0  0  0
  4  6  1  0  0  0
  6 18  1  0  0  0
  6  7  1  0  0  0
 18 19  2  0  0  0
 19 20  1  0  0  0
 20 21  2  0  0  0
 21 22  1  0  0  0
 22 23  2  0  0  0
 23 24  1  0  0  0
 24 25  2  0  0  0
 25 26  1  0  0  0
 26 27  2  0  0  0
 27 18  1  0  0  0
 27 22  1  0  0  0
  7  8  1  0  0  0
  8 34  1  0  0  0
  8  3  1  0  0  0
 34 35  1  0  0  0
 35 36  2  0  0  0
 36 37  1  0  0  0
 37 38  2  0  0  0
 38 39  1  0  0  0
 39 40  2  0  0  0
 40 35  1  0  0  0
  9 10  2  0  0  0
 10 11  1  0  0  0
 11 12  1  0  0  0
 11 13  2  0  0  0
 13 14  1  0  0  0
 14 15  2  0  0  0
 15 16  1  0  0  0
 15  9  1  0  0  0
 16 17  2  0  0  0
 16  1  1  0  0  0
M  END
> <minimizedAffinity>
-7.45033

> <CNNscore>
0.2991238236

> <CNNaffinity>
6.3296194077

> <CNN_VS>
1.8933399916

> <CNNaffinity_variance>
0.0588344820

$$$$



 40 45  0  0  0  0  0  0  0  0999 V2000
   -7.2786   -1.5975  -21.9725 N   0  0  0  0  0  0  0  0  0  0  0  0
   -6.9189   -1.0424  -23.2605 C   0  0  0  0  0  0  0  0  0  0  0  0
   -6.7032    0.4287  -23.1099 C   0  0  0  0  0  0  0  0  0  0  0  0
   -8.0028    1.0950  -22.7249 C   0  0  0  0  0  0  0  0  0  0  0  0
   -8.5103    1.0922  -21.5520 O   0  0  0  0  0  0  0  0  0  0  0  0
   -8.5670    1.7225  -23.8716 N   0  0  0  0  0  0  0  0  0  0  0  0
   -7.8583    1.1718  -25.0127 C   0  0  0  0  0  0  0  0  0  0  0  0
   -6.4416    1.0732  -24.4250 C   0  0  0  0  0  0  0  0  0  0  0  0
   -5.7164    0.7013  -22.0546 C   0  0  0  0  0  0  0  0  0  0  0  0
   -4.9085    1.8230  -22.0479 C   0  0  0  0  0  0  0  0  0  0  0  0
   -3.9840    2.0573  -21.0238 C   0  0  0  0  0  0  0  0  0  0  0  0
   -2.9613    3.4805  -21.0180 Cl  0  0  0  0  0  0  0  0  0  0  0  0
   -3.8384    1.1766  -19.9739 C   0  0  0  0  0  0  0  0  0  0  0  0
   -4.6403    0.0550  -19.9729 C   0  0  0  0  0  0  0  0  0  0  0  0
   -5.5475   -0.1688  -20.9840 C   0  0  0  0  0  0  0  0  0  0  0  0
   -6.3465   -1.3861  -20.9005 C   0  0  0  0  0  0  0  0  0  0  0  0
   -6.2521   -2.2191  -19.9641 O   0  0  0  0  0  0  0  0  0  0  0  0
   -9.6113    2.6879  -23.8547 C   0  0  0  0  0  0  0  0  0  0  0  0
   -9.2066    4.0213  -23.9795 C   0  0  0  0  0  0  0  0  0  0  0  0
  -10.1056    5.0088  -23.9756 N   0  0  0  0  0  0  0  0  0  0  0  0
  -11.4240    4.7355  -23.8508 C   0  0  0  0  0  0  0  0  0  0  0  0
  -11.8429    3.4177  -23.7258 C   0  0  0  0  0  0  0  0  0  0  0  0
  -13.1928    3.1535  -23.5990 C   0  0  0  0  0  0  0  0  0  0  0  0
  -13.6016    1.8387  -23.4750 C   0  0  0  0  0  0  0  0  0  0  0  0
  -12.6744    0.7906  -23.4770 C   0  0  0  0  0  0  0  0  0  0  0  0
  -11.3126    1.0504  -23.6044 C   0  0  0  0  0  0  0  0  0  0  0  0
  -10.9449    2.3601  -23.7248 C   0  0  0  0  0  0  0  0  0  0  0  0
   -8.5012   -2.3369  -21.7295 C   0  0  0  0  0  0  0  0  0  0  0  0
  -10.4196   -3.7830  -24.7586 C   0  0  0  0  0  0  0  0  0  0  0  0
  -10.0055   -2.9570  -23.6396 N   0  0  0  0  0  0  0  0  0  0  0  0
   -8.8462   -3.2408  -22.8566 C   0  0  0  0  0  0  0  0  0  0  0  0
   -8.1443   -4.2541  -23.1438 O   0  0  0  0  0  0  0  0  0  0  0  0
  -10.5471   -2.1674  -23.4108 H   0  0  0  0  0  0  0  0  0  0  0  0
   -5.5830    0.1573  -25.2663 C   0  0  0  0  0  0  0  0  0  0  0  0
   -4.1764    0.6348  -25.3356 C   0  0  0  0  0  0  0  0  0  0  0  0
   -3.8212    1.7623  -26.0710 C   0  0  0  0  0  0  0  0  0  0  0  0
   -2.5241    2.2183  -26.1456 C   0  0  0  0  0  0  0  0  0  0  0  0
   -1.5110    1.5425  -25.4678 C   0  0  0  0  0  0  0  0  0  0  0  0
   -1.8535    0.4143  -24.7294 C   0  0  0  0  0  0  0  0  0  0  0  0
   -3.1518   -0.0331  -24.6612 C   0  0  0  0  0  0  0  0  0  0  0  0
 29 30  1  0  0  0
 30 31  1  0  0  0
 30 33  1  0  0  0
 31 32  2  0  0  0
 31 28  1  0  0  0
 28  1  1  0  0  0
  1  2  1  0  0  0
  3  2  1  0  0  0
  3  4  1  0  0  0
  3  9  1  0  0  0
  4  5  2  0  0  0
  4  6  1  0  0  0
  6 18  1  0  0  0
  6  7  1  0  0  0
 18 19  2  0  0  0
 19 20  1  0  0  0
 20 21  2  0  0  0
 21 22  1  0  0  0
 22 23  2  0  0  0
 23 24  1  0  0  0
 24 25  2  0  0  0
 25 26  1  0  0  0
 26 27  2  0  0  0
 27 18  1  0  0  0
 27 22  1  0  0  0
  7  8  1  0  0  0
  8 34  1  0  0  0
  8  3  1  0  0  0
 34 35  1  0  0  0
 35 36  2  0  0  0
 36 37  1  0  0  0
 37 38  2  0  0  0
 38 39  1  0  0  0
 39 40  2  0  0  0
 40 35  1  0  0  0
  9 10  2  0  0  0
 10 11  1  0  0  0
 11 12  1  0  0  0
 11 13  2  0  0  0
 13 14  1  0  0  0
 14 15  2  0  0  0
 15 16  1  0  0  0
 15  9  1  0  0  0
 16 17  2  0  0  0
 16  1  1  0  0  0
M  END
> <minimizedAffinity>
-7.91303

> <CNNscore>
0.2076539546

> <CNNaffinity>
6.1058778763

> <CNN_VS>
1.2679096460

> <CNNaffinity_variance>
0.1174066886

$$$$



 40 45  0  0  0  0  0  0  0  0999 V2000
   -6.9469   -1.5804  -21.5063 N   0  0  0  0  0  0  0  0  0  0  0  0
   -6.5926   -1.1482  -22.8421 C   0  0  0  0  0  0  0  0  0  0  0  0
   -6.4148    0.3357  -22.8389 C   0  0  0  0  0  0  0  0  0  0  0  0
   -7.7331    1.0038  -22.5280 C   0  0  0  0  0  0  0  0  0  0  0  0
   -8.2482    1.1056  -21.3628 O   0  0  0  0  0  0  0  0  0  0  0  0
   -8.3053    1.4986  -23.7342 N   0  0  0  0  0  0  0  0  0  0  0  0
   -7.5755    0.8545  -24.8114 C   0  0  0  0  0  0  0  0  0  0  0  0
   -6.1607    0.8515  -24.2110 C   0  0  0  0  0  0  0  0  0  0  0  0
   -5.4421    0.7377  -21.8124 C   0  0  0  0  0  0  0  0  0  0  0  0
   -4.6626    1.8747  -21.9150 C   0  0  0  0  0  0  0  0  0  0  0  0
   -3.7509    2.2340  -20.9159 C   0  0  0  0  0  0  0  0  0  0  0  0
   -2.7642    3.6763  -21.0487 Cl  0  0  0  0  0  0  0  0  0  0  0  0
   -3.5903    1.4670  -19.7822 C   0  0  0  0  0  0  0  0  0  0  0  0
   -4.3639    0.3310  -19.6719 C   0  0  0  0  0  0  0  0  0  0  0  0
   -5.2586   -0.0161  -20.6591 C   0  0  0  0  0  0  0  0  0  0  0  0
   -6.0275   -1.2389  -20.4572 C   0  0  0  0  0  0  0  0  0  0  0  0
   -5.9185   -1.9711  -19.4415 O   0  0  0  0  0  0  0  0  0  0  0  0
   -9.3735    2.4338  -23.8185 C   0  0  0  0  0  0  0  0  0  0  0  0
   -8.9971    3.7707  -23.9872 C   0  0  0  0  0  0  0  0  0  0  0  0
   -9.9202    4.7315  -24.0780 N   0  0  0  0  0  0  0  0  0  0  0  0
  -11.2359    4.4274  -24.0084 C   0  0  0  0  0  0  0  0  0  0  0  0
  -11.6268    3.1057  -23.8411 C   0  0  0  0  0  0  0  0  0  0  0  0
  -12.9742    2.8097  -23.7715 C   0  0  0  0  0  0  0  0  0  0  0  0
  -13.3551    1.4913  -23.6048 C   0  0  0  0  0  0  0  0  0  0  0  0
  -12.4026    0.4708  -23.5075 C   0  0  0  0  0  0  0  0  0  0  0  0
  -11.0430    0.7627  -23.5769 C   0  0  0  0  0  0  0  0  0  0  0  0
  -10.7032    2.0751  -23.7419 C   0  0  0  0  0  0  0  0  0  0  0  0
   -8.1522   -2.3227  -21.1953 C   0  0  0  0  0  0  0  0  0  0  0  0
  -10.5001   -3.2312  -24.1293 C   0  0  0  0  0  0  0  0  0  0  0  0
   -9.9020   -2.5884  -22.9740 N   0  0  0  0  0  0  0  0  0  0  0  0
   -8.6888   -3.0458  -22.3766 C   0  0  0  0  0  0  0  0  0  0  0  0
   -8.1040   -4.0543  -22.8694 O   0  0  0  0  0  0  0  0  0  0  0  0
  -10.3519   -1.8035  -22.5857 H   0  0  0  0  0  0  0  0  0  0  0  0
   -5.2740   -0.1218  -24.9527 C   0  0  0  0  0  0  0  0  0  0  0  0
   -5.8170   -0.4415  -26.2997 C   0  0  0  0  0  0  0  0  0  0  0  0
   -6.5927   -1.5750  -26.5263 C   0  0  0  0  0  0  0  0  0  0  0  0
   -7.1037   -1.8857  -27.7666 C   0  0  0  0  0  0  0  0  0  0  0  0
   -6.8482   -1.0492  -28.8518 C   0  0  0  0  0  0  0  0  0  0  0  0
   -6.0741    0.0869  -28.6378 C   0  0  0  0  0  0  0  0  0  0  0  0
   -5.5685    0.3884  -27.3953 C   0  0  0  0  0  0  0  0  0  0  0  0
 29 30  1  0  0  0
 30 31  1  0  0  0
 30 33  1  0  0  0
 31 32  2  0  0  0
 31 28  1  0  0  0
 28  1  1  0  0  0
  1  2  1  0  0  0
  3  2  1  0  0  0
  3  4  1  0  0  0
  3  9  1  0  0  0
  4  5  2  0  0  0
  4  6  1  0  0  0
  6 18  1  0  0  0
  6  7  1  0  0  0
 18 19  2  0  0  0
 19 20  1  0  0  0
 20 21  2  0  0  0
 21 22  1  0  0  0
 22 23  2  0  0  0
 23 24  1  0  0  0
 24 25  2  0  0  0
 25 26  1  0  0  0
 26 27  2  0  0  0
 27 18  1  0  0  0
 27 22  1  0  0  0
  7  8  1  0  0  0
  8 34  1  0  0  0
  8  3  1  0  0  0
 34 35  1  0  0  0
 35 36  2  0  0  0
 36 37  1  0  0  0
 37 38  2  0  0  0
 38 39  1  0  0  0
 39 40  2  0  0  0
 40 35  1  0  0  0
  9 10  2  0  0  0
 10 11  1  0  0  0
 11 12  1  0  0  0
 11 13  2  0  0  0
 13 14  1  0  0  0
 14 15  2  0  0  0
 15 16  1  0  0  0
 15  9  1  0  0  0
 16 17  2  0  0  0
 16  1  1  0  0  0
M  END
> <minimizedAffinity>
-7.78978

> <CNNscore>
0.1956477314

> <CNNaffinity>
6.0151200294

> <CNN_VS>
1.1768445969

> <CNNaffinity_variance>
0.2522634864

$$$$



 40 45  0  0  0  0  0  0  0  0999 V2000
   -5.0767   -0.5672  -22.2534 N   0  0  0  0  0  0  0  0  0  0  0  0
   -5.4463   -0.6984  -23.6472 C   0  0  0  0  0  0  0  0  0  0  0  0
   -6.1772    0.5341  -24.0717 C   0  0  0  0  0  0  0  0  0  0  0  0
   -7.4777    0.6398  -23.3110 C   0  0  0  0  0  0  0  0  0  0  0  0
   -7.5912    1.0399  -22.1025 O   0  0  0  0  0  0  0  0  0  0  0  0
   -8.5491    0.2250  -24.1518 N   0  0  0  0  0  0  0  0  0  0  0  0
   -7.9305   -0.4658  -25.2689 C   0  0  0  0  0  0  0  0  0  0  0  0
   -6.6821    0.4089  -25.4655 C   0  0  0  0  0  0  0  0  0  0  0  0
   -5.3777    1.7341  -23.7846 C   0  0  0  0  0  0  0  0  0  0  0  0
   -5.4801    2.9025  -24.5164 C   0  0  0  0  0  0  0  0  0  0  0  0
   -4.7099    4.0306  -24.2124 C   0  0  0  0  0  0  0  0  0  0  0  0
   -4.8422    5.5105  -25.1418 Cl  0  0  0  0  0  0  0  0  0  0  0  0
   -3.8126    4.0255  -23.1664 C   0  0  0  0  0  0  0  0  0  0  0  0
   -3.7040    2.8641  -22.4314 C   0  0  0  0  0  0  0  0  0  0  0  0
   -4.4651    1.7581  -22.7366 C   0  0  0  0  0  0  0  0  0  0  0  0
   -4.2758    0.5735  -21.9072 C   0  0  0  0  0  0  0  0  0  0  0  0
   -3.4720    0.5191  -20.9425 O   0  0  0  0  0  0  0  0  0  0  0  0
   -9.9300    0.4619  -23.9073 C   0  0  0  0  0  0  0  0  0  0  0  0
  -10.3593    1.7818  -24.0834 C   0  0  0  0  0  0  0  0  0  0  0  0
  -11.6364    2.1151  -23.8801 N   0  0  0  0  0  0  0  0  0  0  0  0
  -12.5370    1.1807  -23.5002 C   0  0  0  0  0  0  0  0  0  0  0  0
  -12.1279   -0.1339  -23.3209 C   0  0  0  0  0  0  0  0  0  0  0  0
  -13.0587   -1.0777  -22.9326 C   0  0  0  0  0  0  0  0  0  0  0  0
  -12.6431   -2.3844  -22.7562 C   0  0  0  0  0  0  0  0  0  0  0  0
  -11.3093   -2.7527  -22.9643 C   0  0  0  0  0  0  0  0  0  0  0  0
  -10.3664   -1.8061  -23.3557 C   0  0  0  0  0  0  0  0  0  0  0  0
  -10.8119   -0.5257  -23.5205 C   0  0  0  0  0  0  0  0  0  0  0  0
   -5.4676   -1.5122  -21.2263 C   0  0  0  0  0  0  0  0  0  0  0  0
   -5.4106    0.0463  -17.6887 C   0  0  0  0  0  0  0  0  0  0  0  0
   -5.0296   -0.6054  -18.9281 N   0  0  0  0  0  0  0  0  0  0  0  0
   -5.9502   -0.8373  -19.9942 C   0  0  0  0  0  0  0  0  0  0  0  0
   -7.1514   -0.4618  -19.8607 O   0  0  0  0  0  0  0  0  0  0  0  0
   -4.0967   -0.9001  -19.0383 H   0  0  0  0  0  0  0  0  0  0  0  0
   -5.6552   -0.3166  -26.3038 C   0  0  0  0  0  0  0  0  0  0  0  0
   -4.8197    0.6307  -27.0887 C   0  0  0  0  0  0  0  0  0  0  0  0
   -3.4646    0.8058  -26.8223 C   0  0  0  0  0  0  0  0  0  0  0  0
   -2.6764    1.6780  -27.5392 C   0  0  0  0  0  0  0  0  0  0  0  0
   -3.2336    2.4249  -28.5757 C   0  0  0  0  0  0  0  0  0  0  0  0
   -4.5871    2.2586  -28.8516 C   0  0  0  0  0  0  0  0  0  0  0  0
   -5.3656    1.3850  -28.1298 C   0  0  0  0  0  0  0  0  0  0  0  0
 29 30  1  0  0  0
 30 31  1  0  0  0
 30 33  1  0  0  0
 31 32  2  0  0  0
 31 28  1  0  0  0
 28  1  1  0  0  0
  1  2  1  0  0  0
  3  2  1  0  0  0
  3  4  1  0  0  0
  3  9  1  0  0  0
  4  5  2  0  0  0
  4  6  1  0  0  0
  6 18  1  0  0  0
  6  7  1  0  0  0
 18 19  2  0  0  0
 19 20  1  0  0  0
 20 21  2  0  0  0
 21 22  1  0  0  0
 22 23  2  0  0  0
 23 24  1  0  0  0
 24 25  2  0  0  0
 25 26  1  0  0  0
 26 27  2  0  0  0
 27 18  1  0  0  0
 27 22  1  0  0  0
  7  8  1  0  0  0
  8 34  1  0  0  0
  8  3  1  0  0  0
 34 35  1  0  0  0
 35 36  2  0  0  0
 36 37  1  0  0  0
 37 38  2  0  0  0
 38 39  1  0  0  0
 39 40  2  0  0  0
 40 35  1  0  0  0
  9 10  2  0  0  0
 10 11  1  0  0  0
 11 12  1  0  0  0
 11 13  2  0  0  0
 13 14  1  0  0  0
 14 15  2  0  0  0
 15 16  1  0  0  0
 15  9  1  0  0  0
 16 17  2  0  0  0
 16  1  1  0  0  0
M  END
> <minimizedAffinity>
-6.96177

> <CNNscore>
0.1946626753

> <CNNaffinity>
6.1563639641

> <CNN_VS>
1.1984143257

> <CNNaffinity_variance>
0.0978223681

$$$$



 40 45  0  0  0  0  0  0  0  0999 V2000
   -7.9627   -5.1704  -23.4309 N   0  0  0  0  0  0  0  0  0  0  0  0
   -8.7628   -3.9973  -23.1472 C   0  0  0  0  0  0  0  0  0  0  0  0
   -8.1391   -2.8140  -23.8137 C   0  0  0  0  0  0  0  0  0  0  0  0
   -6.7843   -2.5437  -23.2033 C   0  0  0  0  0  0  0  0  0  0  0  0
   -5.7179   -3.1986  -23.4629 O   0  0  0  0  0  0  0  0  0  0  0  0
   -6.8862   -1.4491  -22.2986 N   0  0  0  0  0  0  0  0  0  0  0  0
   -8.3062   -1.2659  -22.0579 C   0  0  0  0  0  0  0  0  0  0  0  0
   -8.8552   -1.5579  -23.4635 C   0  0  0  0  0  0  0  0  0  0  0  0
   -7.9541   -3.0675  -25.2501 C   0  0  0  0  0  0  0  0  0  0  0  0
   -7.9482   -2.0627  -26.1995 C   0  0  0  0  0  0  0  0  0  0  0  0
   -7.7616   -2.3367  -27.5591 C   0  0  0  0  0  0  0  0  0  0  0  0
   -7.7544   -1.0606  -28.7603 Cl  0  0  0  0  0  0  0  0  0  0  0  0
   -7.5750   -3.6248  -28.0120 C   0  0  0  0  0  0  0  0  0  0  0  0
   -7.5796   -4.6332  -27.0716 C   0  0  0  0  0  0  0  0  0  0  0  0
   -7.7639   -4.3559  -25.7356 C   0  0  0  0  0  0  0  0  0  0  0  0
   -7.7605   -5.4884  -24.8167 C   0  0  0  0  0  0  0  0  0  0  0  0
   -7.5933   -6.6801  -25.1796 O   0  0  0  0  0  0  0  0  0  0  0  0
   -5.7918   -0.7137  -21.7656 C   0  0  0  0  0  0  0  0  0  0  0  0
   -4.8324   -0.2958  -22.6942 C   0  0  0  0  0  0  0  0  0  0  0  0
   -3.7633    0.4016  -22.3014 N   0  0  0  0  0  0  0  0  0  0  0  0
   -3.5905    0.7157  -20.9976 C   0  0  0  0  0  0  0  0  0  0  0  0
   -4.5330    0.3088  -20.0629 C   0  0  0  0  0  0  0  0  0  0  0  0
   -4.3434    0.6367  -18.7345 C   0  0  0  0  0  0  0  0  0  0  0  0
   -5.2864    0.2277  -17.8102 C   0  0  0  0  0  0  0  0  0  0  0  0
   -6.4130   -0.5038  -18.2026 C   0  0  0  0  0  0  0  0  0  0  0  0
   -6.6098   -0.8374  -19.5399 C   0  0  0  0  0  0  0  0  0  0  0  0
   -5.6585   -0.4172  -20.4251 C   0  0  0  0  0  0  0  0  0  0  0  0
   -7.3787   -6.0117  -22.4054 C   0  0  0  0  0  0  0  0  0  0  0  0
   -3.8002   -6.8528  -23.6027 C   0  0  0  0  0  0  0  0  0  0  0  0
   -5.2440   -6.7868  -23.4722 N   0  0  0  0  0  0  0  0  0  0  0  0
   -5.8944   -6.0184  -22.4601 C   0  0  0  0  0  0  0  0  0  0  0  0
   -5.1891   -5.3641  -21.6376 O   0  0  0  0  0  0  0  0  0  0  0  0
   -5.7984   -7.2934  -24.1087 H   0  0  0  0  0  0  0  0  0  0  0  0
  -10.3403   -1.8312  -23.4045 C   0  0  0  0  0  0  0  0  0  0  0  0
  -11.1332   -0.5775  -23.5090 C   0  0  0  0  0  0  0  0  0  0  0  0
  -12.5252   -0.5888  -23.5025 C   0  0  0  0  0  0  0  0  0  0  0  0
  -13.2748    0.5623  -23.5979 C   0  0  0  0  0  0  0  0  0  0  0  0
  -12.6384    1.7977  -23.7061 C   0  0  0  0  0  0  0  0  0  0  0  0
  -11.2474    1.8219  -23.7137 C   0  0  0  0  0  0  0  0  0  0  0  0
  -10.5080    0.6668  -23.6178 C   0  0  0  0  0  0  0  0  0  0  0  0
 29 30  1  0  0  0
 30 31  1  0  0  0
 30 33  1  0  0  0
 31 32  2  0  0  0
 31 28  1  0  0  0
 28  1  1  0  0  0
  1  2  1  0  0  0
  3  2  1  0  0  0
  3  4  1  0  0  0
  3  9  1  0  0  0
  4  5  2  0  0  0
  4  6  1  0  0  0
  6 18  1  0  0  0
  6  7  1  0  0  0
 18 19  2  0  0  0
 19 20  1  0  0  0
 20 21  2  0  0  0
 21 22  1  0  0  0
 22 23  2  0  0  0
 23 24  1  0  0  0
 24 25  2  0  0  0
 25 26  1  0  0  0
 26 27  2  0  0  0
 27 18  1  0  0  0
 27 22  1  0  0  0
  7  8  1  0  0  0
  8 34  1  0  0  0
  8  3  1  0  0  0
 34 35  1  0  0  0
 35 36  2  0  0  0
 36 37  1  0  0  0
 37 38  2  0  0  0
 38 39  1  0  0  0
 39 40  2  0  0  0
 40 35  1  0  0  0
  9 10  2  0  0  0
 10 11  1  0  0  0
 11 12  1  0  0  0
 11 13  2  0  0  0
 13 14  1  0  0  0
 14 15  2  0  0  0
 15 16  1  0  0  0
 15  9  1  0  0  0
 16 17  2  0  0  0
 16  1  1  0  0  0
M  END
> <minimizedAffinity>
-8.32226

> <CNNscore>
0.1923881173

> <CNNaffinity>
6.5329971313

> <CNN_VS>
1.2568709850

> <CNNaffinity_variance>
0.0691763312

$$$$



 40 45  0  0  0  0  0  0  0  0999 V2000
   -7.5435   -3.6522  -24.7513 N   0  0  0  0  0  0  0  0  0  0  0  0
   -8.5606   -2.8718  -24.0782 C   0  0  0  0  0  0  0  0  0  0  0  0
   -8.0385   -1.4900  -23.8513 C   0  0  0  0  0  0  0  0  0  0  0  0
   -6.8654   -1.5408  -22.9014 C   0  0  0  0  0  0  0  0  0  0  0  0
   -5.6781   -1.8916  -23.2188 O   0  0  0  0  0  0  0  0  0  0  0  0
   -7.2927   -1.1373  -21.6046 N   0  0  0  0  0  0  0  0  0  0  0  0
   -8.7435   -1.1845  -21.6338 C   0  0  0  0  0  0  0  0  0  0  0  0
   -8.9986   -0.6736  -23.0607 C   0  0  0  0  0  0  0  0  0  0  0  0
   -7.5810   -0.8959  -25.1159 C   0  0  0  0  0  0  0  0  0  0  0  0
   -7.5840    0.4656  -25.3552 C   0  0  0  0  0  0  0  0  0  0  0  0
   -7.1343    1.0002  -26.5677 C   0  0  0  0  0  0  0  0  0  0  0  0
   -7.1391    2.7269  -26.8680 Cl  0  0  0  0  0  0  0  0  0  0  0  0
   -6.6671    0.1894  -27.5795 C   0  0  0  0  0  0  0  0  0  0  0  0
   -6.6607   -1.1700  -27.3492 C   0  0  0  0  0  0  0  0  0  0  0  0
   -7.1050   -1.6886  -26.1536 C   0  0  0  0  0  0  0  0  0  0  0  0
   -7.0669   -3.1390  -26.0050 C   0  0  0  0  0  0  0  0  0  0  0  0
   -6.6493   -3.9204  -26.8965 O   0  0  0  0  0  0  0  0  0  0  0  0
   -6.4364   -0.7708  -20.5299 C   0  0  0  0  0  0  0  0  0  0  0  0
   -6.5802   -1.5202  -19.3572 C   0  0  0  0  0  0  0  0  0  0  0  0
   -5.8258   -1.2601  -18.2864 N   0  0  0  0  0  0  0  0  0  0  0  0
   -4.9090   -0.2666  -18.3181 C   0  0  0  0  0  0  0  0  0  0  0  0
   -4.7533    0.4869  -19.4739 C   0  0  0  0  0  0  0  0  0  0  0  0
   -3.8131    1.4986  -19.4919 C   0  0  0  0  0  0  0  0  0  0  0  0
   -3.6644    2.2442  -20.6465 C   0  0  0  0  0  0  0  0  0  0  0  0
   -4.4456    1.9867  -21.7785 C   0  0  0  0  0  0  0  0  0  0  0  0
   -5.3950    0.9684  -21.7666 C   0  0  0  0  0  0  0  0  0  0  0  0
   -5.5148    0.2525  -20.6098 C   0  0  0  0  0  0  0  0  0  0  0  0
   -7.0060   -4.8927  -24.2289 C   0  0  0  0  0  0  0  0  0  0  0  0
   -9.4321   -7.1880  -26.1762 C   0  0  0  0  0  0  0  0  0  0  0  0
   -8.5636   -6.0921  -25.7880 N   0  0  0  0  0  0  0  0  0  0  0  0
   -7.8743   -6.0574  -24.5385 C   0  0  0  0  0  0  0  0  0  0  0  0
   -8.0216   -7.0192  -23.7290 O   0  0  0  0  0  0  0  0  0  0  0  0
   -8.4448   -5.3408  -26.4130 H   0  0  0  0  0  0  0  0  0  0  0  0
  -10.4080   -1.0024  -23.4957 C   0  0  0  0  0  0  0  0  0  0  0  0
  -11.2586    0.2154  -23.5656 C   0  0  0  0  0  0  0  0  0  0  0  0
  -10.7091    1.4839  -23.7305 C   0  0  0  0  0  0  0  0  0  0  0  0
  -11.4817    2.6216  -23.7977 C   0  0  0  0  0  0  0  0  0  0  0  0
  -12.8687    2.5253  -23.6993 C   0  0  0  0  0  0  0  0  0  0  0  0
  -13.4297    1.2629  -23.5343 C   0  0  0  0  0  0  0  0  0  0  0  0
  -12.6495    0.1328  -23.4685 C   0  0  0  0  0  0  0  0  0  0  0  0
 29 30  1  0  0  0
 30 31  1  0  0  0
 30 33  1  0  0  0
 31 32  2  0  0  0
 31 28  1  0  0  0
 28  1  1  0  0  0
  1  2  1  0  0  0
  3  2  1  0  0  0
  3  4  1  0  0  0
  3  9  1  0  0  0
  4  5  2  0  0  0
  4  6  1  0  0  0
  6 18  1  0  0  0
  6  7  1  0  0  0
 18 19  2  0  0  0
 19 20  1  0  0  0
 20 21  2  0  0  0
 21 22  1  0  0  0
 22 23  2  0  0  0
 23 24  1  0  0  0
 24 25  2  0  0  0
 25 26  1  0  0  0
 26 27  2  0  0  0
 27 18  1  0  0  0
 27 22  1  0  0  0
  7  8  1  0  0  0
  8 34  1  0  0  0
  8  3  1  0  0  0
 34 35  1  0  0  0
 35 36  2  0  0  0
 36 37  1  0  0  0
 37 38  2  0  0  0
 38 39  1  0  0  0
 39 40  2  0  0  0
 40 35  1  0  0  0
  9 10  2  0  0  0
 10 11  1  0  0  0
 11 12  1  0  0  0
 11 13  2  0  0  0
 13 14  1  0  0  0
 14 15  2  0  0  0
 15 16  1  0  0  0
 15  9  1  0  0  0
 16 17  2  0  0  0
 16  1  1  0  0  0
M  END
> <minimizedAffinity>
-8.98248

> <CNNscore>
0.1746937782

> <CNNaffinity>
6.4251770973

> <CNN_VS>
1.1224384308

> <CNNaffinity_variance>
0.3670542836

$$$$



 31 35  0  0  0  0  0  0  0  0999 V2000
   -7.2966   -1.4820  -24.7391 C   0  0  0  0  0  0  0  0  0  0  0  0
   -8.2775   -1.6173  -23.5666 C   0  0  0  0  0  0  0  0  0  0  0  0
   -7.5594   -1.9172  -22.3138 C   0  0  0  0  0  0  0  0  0  0  0  0
   -7.5318   -0.7066  -21.5533 N   0  0  0  0  0  0  0  0  0  0  0  0
   -8.5836    0.1027  -22.0214 C   0  0  0  0  0  0  0  0  0  0  0  0
   -9.0706    1.0483  -21.3097 O   0  0  0  0  0  0  0  0  0  0  0  0
   -8.9796   -0.3227  -23.3831 C   0  0  0  0  0  0  0  0  0  0  0  0
   -8.5527    0.7306  -24.3421 C   0  0  0  0  0  0  0  0  0  0  0  0
   -9.4286    1.8662  -24.3404 N   0  0  0  0  0  0  0  0  0  0  0  0
  -10.8431    1.7259  -24.3197 C   0  0  0  0  0  0  0  0  0  0  0  0
  -11.5663    2.6425  -24.7313 O   0  0  0  0  0  0  0  0  0  0  0  0
  -11.3591    0.4685  -23.7969 C   0  0  0  0  0  0  0  0  0  0  0  0
  -12.7271    0.2993  -23.7632 C   0  0  0  0  0  0  0  0  0  0  0  0
  -13.2484   -0.8788  -23.2741 C   0  0  0  0  0  0  0  0  0  0  0  0
  -12.3639   -1.8402  -22.8379 C   0  0  0  0  0  0  0  0  0  0  0  0
  -12.8846   -3.0026  -22.3555 F   0  0  0  0  0  0  0  0  0  0  0  0
  -10.9775   -1.6513  -22.8794 C   0  0  0  0  0  0  0  0  0  0  0  0
  -10.4555   -0.4671  -23.3713 C   0  0  0  0  0  0  0  0  0  0  0  0
   -6.6007   -0.4349  -20.5167 C   0  0  0  0  0  0  0  0  0  0  0  0
   -6.9128   -0.9287  -19.2468 C   0  0  0  0  0  0  0  0  0  0  0  0
   -6.0886   -0.7175  -18.2114 N   0  0  0  0  0  0  0  0  0  0  0  0
   -4.9440   -0.0300  -18.3580 C   0  0  0  0  0  0  0  0  0  0  0  0
   -4.5858    0.4847  -19.6068 C   0  0  0  0  0  0  0  0  0  0  0  0
   -3.4036    1.1866  -19.7270 C   0  0  0  0  0  0  0  0  0  0  0  0
   -3.0951    1.6763  -20.9909 C   0  0  0  0  0  0  0  0  0  0  0  0
   -3.9310    1.4695  -22.0706 C   0  0  0  0  0  0  0  0  0  0  0  0
   -5.1012    0.7656  -21.9148 C   0  0  0  0  0  0  0  0  0  0  0  0
   -5.4355    0.2676  -20.6765 C   0  0  0  0  0  0  0  0  0  0  0  0
   -8.9195    3.2453  -24.3794 C   0  0  0  0  0  0  0  0  0  0  0  0
   -7.8806    3.4228  -23.3836 C   0  0  0  0  0  0  0  0  0  0  0  0
   -7.0619    3.5826  -22.5971 N   0  0  0  0  0  0  0  0  0  0  0  0
  2  1  1  0  0  0
  2  3  1  0  0  0
  3  4  1  0  0  0
  4 19  1  0  0  0
  4  5  1  0  0  0
 19 20  2  0  0  0
 20 21  1  0  0  0
 21 22  2  0  0  0
 22 23  1  0  0  0
 23 24  2  0  0  0
 24 25  1  0  0  0
 25 26  2  0  0  0
 26 27  1  0  0  0
 27 28  2  0  0  0
 28 19  1  0  0  0
 28 23  1  0  0  0
  5  6  2  0  0  0
  7  5  1  0  0  0
  7  8  1  0  0  0
  7  2  1  0  0  0
  8  9  1  0  0  0
  9 29  1  0  0  0
  9 10  1  0  0  0
 29 30  1  0  0  0
 30 31  3  0  0  0
 10 11  2  0  0  0
 10 12  1  0  0  0
 12 13  2  0  0  0
 13 14  1  0  0  0
 14 15  2  0  0  0
 15 16  1  0  0  0
 15 17  1  0  0  0
 17 18  2  0  0  0
 18 12  1  0  0  0
 18  7  1  0  0  0
M  END
> <minimizedAffinity>
-8.06731

> <CNNscore>
0.8159132004

> <CNNaffinity>
6.3524284363

> <CNN_VS>
5.1830301285

> <CNNaffinity_variance>
0.0891484842

$$$$



 31 35  0  0  0  0  0  0  0  0999 V2000
   -5.6807   -1.1340  -22.2691 C   0  0  0  0  0  0  0  0  0  0  0  0
   -6.7411   -2.2405  -22.3488 C   0  0  0  0  0  0  0  0  0  0  0  0
   -8.0728   -1.7177  -21.9905 C   0  0  0  0  0  0  0  0  0  0  0  0
   -8.7999   -1.5664  -23.2125 N   0  0  0  0  0  0  0  0  0  0  0  0
   -8.1977   -2.4124  -24.1623 C   0  0  0  0  0  0  0  0  0  0  0  0
   -8.8265   -2.8049  -25.2055 O   0  0  0  0  0  0  0  0  0  0  0  0
   -6.8123   -2.7301  -23.7481 C   0  0  0  0  0  0  0  0  0  0  0  0
   -5.8789   -2.0343  -24.6735 C   0  0  0  0  0  0  0  0  0  0  0  0
   -5.7545   -2.7021  -25.9366 N   0  0  0  0  0  0  0  0  0  0  0  0
   -5.6228   -4.1143  -26.0319 C   0  0  0  0  0  0  0  0  0  0  0  0
   -5.1103   -4.6261  -27.0359 O   0  0  0  0  0  0  0  0  0  0  0  0
   -6.1182   -4.8862  -24.9008 C   0  0  0  0  0  0  0  0  0  0  0  0
   -6.0054   -6.2591  -24.9605 C   0  0  0  0  0  0  0  0  0  0  0  0
   -6.4646   -7.0193  -23.9069 C   0  0  0  0  0  0  0  0  0  0  0  0
   -7.0206   -6.3596  -22.8333 C   0  0  0  0  0  0  0  0  0  0  0  0
   -7.4729   -7.1159  -21.7949 F   0  0  0  0  0  0  0  0  0  0  0  0
   -7.1272   -4.9646  -22.7896 C   0  0  0  0  0  0  0  0  0  0  0  0
   -6.6651   -4.2023  -23.8490 C   0  0  0  0  0  0  0  0  0  0  0  0
   -9.9253   -0.7161  -23.3728 C   0  0  0  0  0  0  0  0  0  0  0  0
   -9.6702    0.5887  -23.8043 C   0  0  0  0  0  0  0  0  0  0  0  0
  -10.6753    1.4572  -23.9816 N   0  0  0  0  0  0  0  0  0  0  0  0
  -11.9514    1.1058  -23.7527 C   0  0  0  0  0  0  0  0  0  0  0  0
  -12.2599   -0.1866  -23.3201 C   0  0  0  0  0  0  0  0  0  0  0  0
  -13.5801   -0.5188  -23.0933 C   0  0  0  0  0  0  0  0  0  0  0  0
  -13.8315   -1.8171  -22.6648 C   0  0  0  0  0  0  0  0  0  0  0  0
  -12.8098   -2.7271  -22.4761 C   0  0  0  0  0  0  0  0  0  0  0  0
  -11.5058   -2.3620  -22.7115 C   0  0  0  0  0  0  0  0  0  0  0  0
  -11.2236   -1.0842  -23.1366 C   0  0  0  0  0  0  0  0  0  0  0  0
   -5.7359   -1.9669  -27.2102 C   0  0  0  0  0  0  0  0  0  0  0  0
   -7.0690   -1.9182  -27.7786 C   0  0  0  0  0  0  0  0  0  0  0  0
   -8.1289   -1.8688  -28.2126 N   0  0  0  0  0  0  0  0  0  0  0  0
  2  1  1  0  0  0
  2  3  1  0  0  0
  3  4  1  0  0  0
  4 19  1  0  0  0
  4  5  1  0  0  0
 19 20  2  0  0  0
 20 21  1  0  0  0
 21 22  2  0  0  0
 22 23  1  0  0  0
 23 24  2  0  0  0
 24 25  1  0  0  0
 25 26  2  0  0  0
 26 27  1  0  0  0
 27 28  2  0  0  0
 28 19  1  0  0  0
 28 23  1  0  0  0
  5  6  2  0  0  0
  7  5  1  0  0  0
  7  8  1  0  0  0
  7  2  1  0  0  0
  8  9  1  0  0  0
  9 29  1  0  0  0
  9 10  1  0  0  0
 29 30  1  0  0  0
 30 31  3  0  0  0
 10 11  2  0  0  0
 10 12  1  0  0  0
 12 13  2  0  0  0
 13 14  1  0  0  0
 14 15  2  0  0  0
 15 16  1  0  0  0
 15 17  1  0  0  0
 17 18  2  0  0  0
 18 12  1  0  0  0
 18  7  1  0  0  0
M  END
> <minimizedAffinity>
-7.20771

> <CNNscore>
0.3763151467

> <CNNaffinity>
5.8434600830

> <CNN_VS>
2.1989824772

> <CNNaffinity_variance>
0.2354464829

$$$$



 31 35  0  0  0  0  0  0  0  0999 V2000
   -8.0055    0.6248  -26.0970 C   0  0  0  0  0  0  0  0  0  0  0  0
   -8.4512   -0.1248  -24.8342 C   0  0  0  0  0  0  0  0  0  0  0  0
   -7.3037   -0.3813  -23.9440 C   0  0  0  0  0  0  0  0  0  0  0  0
   -7.3989    0.5545  -22.8670 N   0  0  0  0  0  0  0  0  0  0  0  0
   -8.7407    0.9728  -22.7968 C   0  0  0  0  0  0  0  0  0  0  0  0
   -9.2298    1.4820  -21.7294 O   0  0  0  0  0  0  0  0  0  0  0  0
   -9.4142    0.7264  -24.0919 C   0  0  0  0  0  0  0  0  0  0  0  0
   -9.6738    2.0400  -24.7388 C   0  0  0  0  0  0  0  0  0  0  0  0
  -10.8033    2.7196  -24.1737 N   0  0  0  0  0  0  0  0  0  0  0  0
  -12.0156    2.0418  -23.8711 C   0  0  0  0  0  0  0  0  0  0  0  0
  -13.0784    2.6716  -23.7910 O   0  0  0  0  0  0  0  0  0  0  0  0
  -11.9173    0.6030  -23.6695 C   0  0  0  0  0  0  0  0  0  0  0  0
  -13.0750   -0.0855  -23.3748 C   0  0  0  0  0  0  0  0  0  0  0  0
  -13.0169   -1.4482  -23.1778 C   0  0  0  0  0  0  0  0  0  0  0  0
  -11.7883   -2.0610  -23.2869 C   0  0  0  0  0  0  0  0  0  0  0  0
  -11.7366   -3.4078  -23.0911 F   0  0  0  0  0  0  0  0  0  0  0  0
  -10.6228   -1.3460  -23.5867 C   0  0  0  0  0  0  0  0  0  0  0  0
  -10.6831    0.0229  -23.7845 C   0  0  0  0  0  0  0  0  0  0  0  0
   -6.3082    0.9391  -22.0437 C   0  0  0  0  0  0  0  0  0  0  0  0
   -5.4611    1.9310  -22.5462 C   0  0  0  0  0  0  0  0  0  0  0  0
   -4.4074    2.3531  -21.8339 N   0  0  0  0  0  0  0  0  0  0  0  0
   -4.1321    1.8415  -20.6228 C   0  0  0  0  0  0  0  0  0  0  0  0
   -4.9478    0.8477  -20.0753 C   0  0  0  0  0  0  0  0  0  0  0  0
   -4.6402    0.3413  -18.8289 C   0  0  0  0  0  0  0  0  0  0  0  0
   -5.4842   -0.6447  -18.3310 C   0  0  0  0  0  0  0  0  0  0  0  0
   -6.5752   -1.0933  -19.0492 C   0  0  0  0  0  0  0  0  0  0  0  0
   -6.8520   -0.5665  -20.2882 C   0  0  0  0  0  0  0  0  0  0  0  0
   -6.0358    0.4109  -20.8092 C   0  0  0  0  0  0  0  0  0  0  0  0
  -10.7849    4.1625  -23.8902 C   0  0  0  0  0  0  0  0  0  0  0  0
  -10.7022    4.9139  -25.1276 C   0  0  0  0  0  0  0  0  0  0  0  0
  -10.6176    5.5035  -26.1071 N   0  0  0  0  0  0  0  0  0  0  0  0
  2  1  1  0  0  0
  2  3  1  0  0  0
  3  4  1  0  0  0
  4 19  1  0  0  0
  4  5  1  0  0  0
 19 20  2  0  0  0
 20 21  1  0  0  0
 21 22  2  0  0  0
 22 23  1  0  0  0
 23 24  2  0  0  0
 24 25  1  0  0  0
 25 26  2  0  0  0
 26 27  1  0  0  0
 27 28  2  0  0  0
 28 19  1  0  0  0
 28 23  1  0  0  0
  5  6  2  0  0  0
  7  5  1  0  0  0
  7  8  1  0  0  0
  7  2  1  0  0  0
  8  9  1  0  0  0
  9 29  1  0  0  0
  9 10  1  0  0  0
 29 30  1  0  0  0
 30 31  3  0  0  0
 10 11  2  0  0  0
 10 12  1  0  0  0
 12 13  2  0  0  0
 13 14  1  0  0  0
 14 15  2  0  0  0
 15 16  1  0  0  0
 15 17  1  0  0  0
 17 18  2  0  0  0
 18 12  1  0  0  0
 18  7  1  0  0  0
M  END
> <minimizedAffinity>
-8.07175

> <CNNscore>
0.3601639271

> <CNNaffinity>
5.8270077705

> <CNN_VS>
2.0986781120

> <CNNaffinity_variance>
0.1295975149

$$$$



 31 35  0  0  0  0  0  0  0  0999 V2000
   -5.2005   -1.1149  -24.4156 C   0  0  0  0  0  0  0  0  0  0  0  0
   -5.1615    0.1434  -23.5381 C   0  0  0  0  0  0  0  0  0  0  0  0
   -5.5204    1.3405  -24.3212 C   0  0  0  0  0  0  0  0  0  0  0  0
   -6.8597    1.6857  -23.9581 N   0  0  0  0  0  0  0  0  0  0  0  0
   -7.1102    1.1113  -22.6980 C   0  0  0  0  0  0  0  0  0  0  0  0
   -8.0392    1.5484  -21.9341 O   0  0  0  0  0  0  0  0  0  0  0  0
   -6.1653   -0.0021  -22.4545 C   0  0  0  0  0  0  0  0  0  0  0  0
   -6.9259   -1.2787  -22.5112 C   0  0  0  0  0  0  0  0  0  0  0  0
   -7.6750   -1.5281  -21.3139 N   0  0  0  0  0  0  0  0  0  0  0  0
   -7.1242   -1.3094  -20.0219 C   0  0  0  0  0  0  0  0  0  0  0  0
   -7.5894   -1.8994  -19.0380 O   0  0  0  0  0  0  0  0  0  0  0  0
   -6.0116   -0.3730  -19.9450 C   0  0  0  0  0  0  0  0  0  0  0  0
   -5.4533   -0.1382  -18.7063 C   0  0  0  0  0  0  0  0  0  0  0  0
   -4.3991    0.7427  -18.5984 C   0  0  0  0  0  0  0  0  0  0  0  0
   -3.9510    1.3519  -19.7494 C   0  0  0  0  0  0  0  0  0  0  0  0
   -2.9090    2.2217  -19.6370 F   0  0  0  0  0  0  0  0  0  0  0  0
   -4.5300    1.1018  -20.9991 C   0  0  0  0  0  0  0  0  0  0  0  0
   -5.5890    0.2163  -21.1056 C   0  0  0  0  0  0  0  0  0  0  0  0
   -7.7247    2.4797  -24.7559 C   0  0  0  0  0  0  0  0  0  0  0  0
   -8.2165    1.8922  -25.9250 C   0  0  0  0  0  0  0  0  0  0  0  0
   -9.0391    2.5716  -26.7359 N   0  0  0  0  0  0  0  0  0  0  0  0
   -9.4159    3.8299  -26.4547 C   0  0  0  0  0  0  0  0  0  0  0  0
   -8.9524    4.4627  -25.2983 C   0  0  0  0  0  0  0  0  0  0  0  0
   -9.3568    5.7558  -25.0355 C   0  0  0  0  0  0  0  0  0  0  0  0
   -8.8669    6.3380  -23.8720 C   0  0  0  0  0  0  0  0  0  0  0  0
   -8.0182    5.6547  -23.0233 C   0  0  0  0  0  0  0  0  0  0  0  0
   -7.6357    4.3675  -23.3162 C   0  0  0  0  0  0  0  0  0  0  0  0
   -8.1032    3.7629  -24.4603 C   0  0  0  0  0  0  0  0  0  0  0  0
   -9.0520   -2.0436  -21.3473 C   0  0  0  0  0  0  0  0  0  0  0  0
   -9.7722   -1.4729  -22.4690 C   0  0  0  0  0  0  0  0  0  0  0  0
  -10.3586   -1.0273  -23.3475 N   0  0  0  0  0  0  0  0  0  0  0  0
  2  1  1  0  0  0
  2  3  1  0  0  0
  3  4  1  0  0  0
  4 19  1  0  0  0
  4  5  1  0  0  0
 19 20  2  0  0  0
 20 21  1  0  0  0
 21 22  2  0  0  0
 22 23  1  0  0  0
 23 24  2  0  0  0
 24 25  1  0  0  0
 25 26  2  0  0  0
 26 27  1  0  0  0
 27 28  2  0  0  0
 28 19  1  0  0  0
 28 23  1  0  0  0
  5  6  2  0  0  0
  7  5  1  0  0  0
  7  8  1  0  0  0
  7  2  1  0  0  0
  8  9  1  0  0  0
  9 29  1  0  0  0
  9 10  1  0  0  0
 29 30  1  0  0  0
 30 31  3  0  0  0
 10 11  2  0  0  0
 10 12  1  0  0  0
 12 13  2  0  0  0
 13 14  1  0  0  0
 14 15  2  0  0  0
 15 16  1  0  0  0
 15 17  1  0  0  0
 17 18  2  0  0  0
 18 12  1  0  0  0
 18  7  1  0  0  0
M  END
> <minimizedAffinity>
-6.65653

> <CNNscore>
0.3390432596

> <CNNaffinity>
5.5577206612

> <CNN_VS>
1.8843077421

> <CNNaffinity_variance>
0.0774830431

$$$$



 31 35  0  0  0  0  0  0  0  0999 V2000
   -8.8711   -4.2738  -26.9335 C   0  0  0  0  0  0  0  0  0  0  0  0
   -9.3389   -4.3042  -25.4723 C   0  0  0  0  0  0  0  0  0  0  0  0
   -8.7652   -5.4623  -24.7618 C   0  0  0  0  0  0  0  0  0  0  0  0
   -7.7126   -4.9598  -23.9347 N   0  0  0  0  0  0  0  0  0  0  0  0
   -7.9620   -3.5899  -23.7305 C   0  0  0  0  0  0  0  0  0  0  0  0
   -7.4518   -2.9548  -22.7436 O   0  0  0  0  0  0  0  0  0  0  0  0
   -8.8556   -3.0762  -24.7932 C   0  0  0  0  0  0  0  0  0  0  0  0
   -8.0624   -2.1783  -25.6743 C   0  0  0  0  0  0  0  0  0  0  0  0
   -7.8512   -0.8832  -25.0954 N   0  0  0  0  0  0  0  0  0  0  0  0
   -8.8918   -0.1751  -24.4348 C   0  0  0  0  0  0  0  0  0  0  0  0
   -8.8322    1.0561  -24.3197 O   0  0  0  0  0  0  0  0  0  0  0  0
   -9.9936   -0.9774  -23.9220 C   0  0  0  0  0  0  0  0  0  0  0  0
  -11.0202   -0.3217  -23.2761 C   0  0  0  0  0  0  0  0  0  0  0  0
  -12.0780   -1.0513  -22.7785 C   0  0  0  0  0  0  0  0  0  0  0  0
  -12.0552   -2.4171  -22.9543 C   0  0  0  0  0  0  0  0  0  0  0  0
  -13.1031   -3.1333  -22.4605 F   0  0  0  0  0  0  0  0  0  0  0  0
  -11.0043   -3.0664  -23.6128 C   0  0  0  0  0  0  0  0  0  0  0  0
   -9.9424   -2.3317  -24.1122 C   0  0  0  0  0  0  0  0  0  0  0  0
   -6.6474   -5.7499  -23.4285 C   0  0  0  0  0  0  0  0  0  0  0  0
   -6.8489   -6.3525  -22.1834 C   0  0  0  0  0  0  0  0  0  0  0  0
   -5.8946   -7.1150  -21.6324 N   0  0  0  0  0  0  0  0  0  0  0  0
   -4.7218   -7.3245  -22.2530 C   0  0  0  0  0  0  0  0  0  0  0  0
   -4.4705   -6.7449  -23.4994 C   0  0  0  0  0  0  0  0  0  0  0  0
   -3.2566   -6.9782  -24.1131 C   0  0  0  0  0  0  0  0  0  0  0  0
   -3.0586   -6.3784  -25.3514 C   0  0  0  0  0  0  0  0  0  0  0  0
   -4.0293   -5.5890  -25.9363 C   0  0  0  0  0  0  0  0  0  0  0  0
   -5.2274   -5.3779  -25.2965 C   0  0  0  0  0  0  0  0  0  0  0  0
   -5.4545   -5.9575  -24.0695 C   0  0  0  0  0  0  0  0  0  0  0  0
   -6.5514   -0.1989  -25.1658 C   0  0  0  0  0  0  0  0  0  0  0  0
   -6.2069    0.0787  -26.5466 C   0  0  0  0  0  0  0  0  0  0  0  0
   -5.9528    0.2931  -27.6438 N   0  0  0  0  0  0  0  0  0  0  0  0
  2  1  1  0  0  0
  2  3  1  0  0  0
  3  4  1  0  0  0
  4 19  1  0  0  0
  4  5  1  0  0  0
 19 20  2  0  0  0
 20 21  1  0  0  0
 21 22  2  0  0  0
 22 23  1  0  0  0
 23 24  2  0  0  0
 24 25  1  0  0  0
 25 26  2  0  0  0
 26 27  1  0  0  0
 27 28  2  0  0  0
 28 19  1  0  0  0
 28 23  1  0  0  0
  5  6  2  0  0  0
  7  5  1  0  0  0
  7  8  1  0  0  0
  7  2  1  0  0  0
  8  9  1  0  0  0
  9 29  1  0  0  0
  9 10  1  0  0  0
 29 30  1  0  0  0
 30 31  3  0  0  0
 10 11  2  0  0  0
 10 12  1  0  0  0
 12 13  2  0  0  0
 13 14  1  0  0  0
 14 15  2  0  0  0
 15 16  1  0  0  0
 15 17  1  0  0  0
 17 18  2  0  0  0
 18 12  1  0  0  0
 18  7  1  0  0  0
M  END
> <minimizedAffinity>
-6.31046

> <CNNscore>
0.3245027661

> <CNNaffinity>
5.8419427872

> <CNN_VS>
1.8957265615

> <CNNaffinity_variance>
0.1304570138

$$$$



 31 35  0  0  0  0  0  0  0  0999 V2000
   -7.4065    0.0821  -25.9082 C   0  0  0  0  0  0  0  0  0  0  0  0
   -7.3983    1.0668  -24.7311 C   0  0  0  0  0  0  0  0  0  0  0  0
   -8.6192    1.8941  -24.7308 C   0  0  0  0  0  0  0  0  0  0  0  0
   -9.4662    1.3803  -23.6996 N   0  0  0  0  0  0  0  0  0  0  0  0
   -8.6453    0.6763  -22.7992 C   0  0  0  0  0  0  0  0  0  0  0  0
   -9.0141    0.4437  -21.5961 O   0  0  0  0  0  0  0  0  0  0  0  0
   -7.3796    0.2930  -23.4648 C   0  0  0  0  0  0  0  0  0  0  0  0
   -7.3865   -1.1807  -23.6642 C   0  0  0  0  0  0  0  0  0  0  0  0
   -7.0822   -1.9015  -22.4622 N   0  0  0  0  0  0  0  0  0  0  0  0
   -6.0343   -1.5010  -21.5891 C   0  0  0  0  0  0  0  0  0  0  0  0
   -5.5169   -2.3210  -20.8194 O   0  0  0  0  0  0  0  0  0  0  0  0
   -5.6296   -0.1042  -21.6651 C   0  0  0  0  0  0  0  0  0  0  0  0
   -4.6152    0.3175  -20.8320 C   0  0  0  0  0  0  0  0  0  0  0  0
   -4.2082    1.6333  -20.8784 C   0  0  0  0  0  0  0  0  0  0  0  0
   -4.8446    2.4713  -21.7670 C   0  0  0  0  0  0  0  0  0  0  0  0
   -4.4385    3.7706  -21.8087 F   0  0  0  0  0  0  0  0  0  0  0  0
   -5.8731    2.0259  -22.6056 C   0  0  0  0  0  0  0  0  0  0  0  0
   -6.2805    0.7036  -22.5577 C   0  0  0  0  0  0  0  0  0  0  0  0
  -10.8691    1.5894  -23.6394 C   0  0  0  0  0  0  0  0  0  0  0  0
  -11.6726    0.4469  -23.5842 C   0  0  0  0  0  0  0  0  0  0  0  0
  -13.0071    0.5539  -23.5255 N   0  0  0  0  0  0  0  0  0  0  0  0
  -13.6127    1.7529  -23.5175 C   0  0  0  0  0  0  0  0  0  0  0  0
  -12.8548    2.9257  -23.5711 C   0  0  0  0  0  0  0  0  0  0  0  0
  -13.5047    4.1432  -23.5611 C   0  0  0  0  0  0  0  0  0  0  0  0
  -12.7037    5.2780  -23.6156 C   0  0  0  0  0  0  0  0  0  0  0  0
  -11.3268    5.1891  -23.6765 C   0  0  0  0  0  0  0  0  0  0  0  0
  -10.7125    3.9596  -23.6847 C   0  0  0  0  0  0  0  0  0  0  0  0
  -11.4772    2.8171  -23.6318 C   0  0  0  0  0  0  0  0  0  0  0  0
   -7.8216   -3.1100  -22.0678 C   0  0  0  0  0  0  0  0  0  0  0  0
   -8.0105   -3.9768  -23.2147 C   0  0  0  0  0  0  0  0  0  0  0  0
   -8.1790   -4.6581  -24.1212 N   0  0  0  0  0  0  0  0  0  0  0  0
  2  1  1  0  0  0
  2  3  1  0  0  0
  3  4  1  0  0  0
  4 19  1  0  0  0
  4  5  1  0  0  0
 19 20  2  0  0  0
 20 21  1  0  0  0
 21 22  2  0  0  0
 22 23  1  0  0  0
 23 24  2  0  0  0
 24 25  1  0  0  0
 25 26  2  0  0  0
 26 27  1  0  0  0
 27 28  2  0  0  0
 28 19  1  0  0  0
 28 23  1  0  0  0
  5  6  2  0  0  0
  7  5  1  0  0  0
  7  8  1  0  0  0
  7  2  1  0  0  0
  8  9  1  0  0  0
  9 29  1  0  0  0
  9 10  1  0  0  0
 29 30  1  0  0  0
 30 31  3  0  0  0
 10 11  2  0  0  0
 10 12  1  0  0  0
 12 13  2  0  0  0
 13 14  1  0  0  0
 14 15  2  0  0  0
 15 16  1  0  0  0
 15 17  1  0  0  0
 17 18  2  0  0  0
 18 12  1  0  0  0
 18  7  1  0  0  0
M  END
> <minimizedAffinity>
-7.45441

> <CNNscore>
0.3212909102

> <CNNaffinity>
5.7679734230

> <CNN_VS>
1.8531974554

> <CNNaffinity_variance>
0.1944974661

$$$$



 31 35  0  0  0  0  0  0  0  0999 V2000
   -6.7483    0.3813  -25.7547 C   0  0  0  0  0  0  0  0  0  0  0  0
   -6.6830    1.3418  -24.5596 C   0  0  0  0  0  0  0  0  0  0  0  0
   -7.7832    2.3225  -24.6141 C   0  0  0  0  0  0  0  0  0  0  0  0
   -8.7510    1.9120  -23.6448 N   0  0  0  0  0  0  0  0  0  0  0  0
   -8.0851    1.0951  -22.7123 C   0  0  0  0  0  0  0  0  0  0  0  0
   -8.5534    0.8983  -21.5376 O   0  0  0  0  0  0  0  0  0  0  0  0
   -6.8424    0.5568  -23.3102 C   0  0  0  0  0  0  0  0  0  0  0  0
   -7.0296   -0.9006  -23.5393 C   0  0  0  0  0  0  0  0  0  0  0  0
   -6.8954   -1.6698  -22.3363 N   0  0  0  0  0  0  0  0  0  0  0  0
   -5.8591   -1.4215  -21.3955 C   0  0  0  0  0  0  0  0  0  0  0  0
   -5.5009   -2.3118  -20.6135 O   0  0  0  0  0  0  0  0  0  0  0  0
   -5.2716   -0.0892  -21.4196 C   0  0  0  0  0  0  0  0  0  0  0  0
   -4.2632    0.1851  -20.5202 C   0  0  0  0  0  0  0  0  0  0  0  0
   -3.6858    1.4364  -20.5163 C   0  0  0  0  0  0  0  0  0  0  0  0
   -4.1522    2.3616  -21.4236 C   0  0  0  0  0  0  0  0  0  0  0  0
   -3.5782    3.5967  -21.4153 F   0  0  0  0  0  0  0  0  0  0  0  0
   -5.1774    2.0658  -22.3297 C   0  0  0  0  0  0  0  0  0  0  0  0
   -5.7561    0.8081  -22.3323 C   0  0  0  0  0  0  0  0  0  0  0  0
  -10.1155    2.3031  -23.6626 C   0  0  0  0  0  0  0  0  0  0  0  0
  -10.3749    3.6758  -23.7130 C   0  0  0  0  0  0  0  0  0  0  0  0
  -11.6350    4.1315  -23.7328 N   0  0  0  0  0  0  0  0  0  0  0  0
  -12.6827    3.2914  -23.7054 C   0  0  0  0  0  0  0  0  0  0  0  0
  -12.4775    1.9101  -23.6548 C   0  0  0  0  0  0  0  0  0  0  0  0
  -13.5734    1.0715  -23.6278 C   0  0  0  0  0  0  0  0  0  0  0  0
  -13.3131   -0.2931  -23.5782 C   0  0  0  0  0  0  0  0  0  0  0  0
  -12.0219   -0.7829  -23.5570 C   0  0  0  0  0  0  0  0  0  0  0  0
  -10.9536    0.0814  -23.5850 C   0  0  0  0  0  0  0  0  0  0  0  0
  -11.1775    1.4380  -23.6342 C   0  0  0  0  0  0  0  0  0  0  0  0
   -7.8089   -2.7753  -22.0101 C   0  0  0  0  0  0  0  0  0  0  0  0
   -7.9349   -3.6704  -23.1439 C   0  0  0  0  0  0  0  0  0  0  0  0
   -8.0470   -4.3654  -24.0487 N   0  0  0  0  0  0  0  0  0  0  0  0
  2  1  1  0  0  0
  2  3  1  0  0  0
  3  4  1  0  0  0
  4 19  1  0  0  0
  4  5  1  0  0  0
 19 20  2  0  0  0
 20 21  1  0  0  0
 21 22  2  0  0  0
 22 23  1  0  0  0
 23 24  2  0  0  0
 24 25  1  0  0  0
 25 26  2  0  0  0
 26 27  1  0  0  0
 27 28  2  0  0  0
 28 19  1  0  0  0
 28 23  1  0  0  0
  5  6  2  0  0  0
  7  5  1  0  0  0
  7  8  1  0  0  0
  7  2  1  0  0  0
  8  9  1  0  0  0
  9 29  1  0  0  0
  9 10  1  0  0  0
 29 30  1  0  0  0
 30 31  3  0  0  0
 10 11  2  0  0  0
 10 12  1  0  0  0
 12 13  2  0  0  0
 13 14  1  0  0  0
 14 15  2  0  0  0
 15 16  1  0  0  0
 15 17  1  0  0  0
 17 18  2  0  0  0
 18 12  1  0  0  0
 18  7  1  0  0  0
M  END
> <minimizedAffinity>
-7.38124

> <CNNscore>
0.3116947711

> <CNNaffinity>
5.7641401291

> <CNN_VS>
1.7966523170

> <CNNaffinity_variance>
0.1352707446

$$$$



 31 35  0  0  0  0  0  0  0  0999 V2000
   -6.0507   -2.2359  -24.1159 C   0  0  0  0  0  0  0  0  0  0  0  0
   -6.5050   -0.7708  -24.0699 C   0  0  0  0  0  0  0  0  0  0  0  0
   -7.9122   -0.6444  -24.4930 C   0  0  0  0  0  0  0  0  0  0  0  0
   -8.6840   -0.4426  -23.3063 N   0  0  0  0  0  0  0  0  0  0  0  0
   -7.8099    0.0522  -22.3207 C   0  0  0  0  0  0  0  0  0  0  0  0
   -8.2422    0.6943  -21.3016 O   0  0  0  0  0  0  0  0  0  0  0  0
   -6.4120   -0.2886  -22.6693 C   0  0  0  0  0  0  0  0  0  0  0  0
   -5.9321   -1.3205  -21.7121 C   0  0  0  0  0  0  0  0  0  0  0  0
   -5.5784   -0.7680  -20.4367 N   0  0  0  0  0  0  0  0  0  0  0  0
   -4.8322    0.4361  -20.3187 C   0  0  0  0  0  0  0  0  0  0  0  0
   -4.1903    0.6729  -19.2870 O   0  0  0  0  0  0  0  0  0  0  0  0
   -4.8777    1.3379  -21.4612 C   0  0  0  0  0  0  0  0  0  0  0  0
   -4.1643    2.5150  -21.3800 C   0  0  0  0  0  0  0  0  0  0  0  0
   -4.1862    3.3909  -22.4437 C   0  0  0  0  0  0  0  0  0  0  0  0
   -4.9301    3.0407  -23.5486 C   0  0  0  0  0  0  0  0  0  0  0  0
   -4.9483    3.9100  -24.5969 F   0  0  0  0  0  0  0  0  0  0  0  0
   -5.6486    1.8411  -23.6138 C   0  0  0  0  0  0  0  0  0  0  0  0
   -5.6252    0.9622  -22.5443 C   0  0  0  0  0  0  0  0  0  0  0  0
  -10.0771   -0.6967  -23.2061 C   0  0  0  0  0  0  0  0  0  0  0  0
  -10.4563   -2.0080  -22.9049 C   0  0  0  0  0  0  0  0  0  0  0  0
  -11.7511   -2.3346  -22.7919 N   0  0  0  0  0  0  0  0  0  0  0  0
  -12.7202   -1.4203  -22.9625 C   0  0  0  0  0  0  0  0  0  0  0  0
  -12.3941   -0.0956  -23.2649 C   0  0  0  0  0  0  0  0  0  0  0  0
  -13.4113    0.8217  -23.4344 C   0  0  0  0  0  0  0  0  0  0  0  0
  -13.0318    2.1252  -23.7333 C   0  0  0  0  0  0  0  0  0  0  0  0
  -11.7031    2.4821  -23.8541 C   0  0  0  0  0  0  0  0  0  0  0  0
  -10.7156    1.5423  -23.6788 C   0  0  0  0  0  0  0  0  0  0  0  0
  -11.0582    0.2432  -23.3820 C   0  0  0  0  0  0  0  0  0  0  0  0
   -5.9485   -1.4220  -19.1725 C   0  0  0  0  0  0  0  0  0  0  0  0
   -5.5509   -2.8162  -19.1961 C   0  0  0  0  0  0  0  0  0  0  0  0
   -5.2213   -3.9142  -19.2030 N   0  0  0  0  0  0  0  0  0  0  0  0
  2  1  1  0  0  0
  2  3  1  0  0  0
  3  4  1  0  0  0
  4 19  1  0  0  0
  4  5  1  0  0  0
 19 20  2  0  0  0
 20 21  1  0  0  0
 21 22  2  0  0  0
 22 23  1  0  0  0
 23 24  2  0  0  0
 24 25  1  0  0  0
 25 26  2  0  0  0
 26 27  1  0  0  0
 27 28  2  0  0  0
 28 19  1  0  0  0
 28 23  1  0  0  0
  5  6  2  0  0  0
  7  5  1  0  0  0
  7  8  1  0  0  0
  7  2  1  0  0  0
  8  9  1  0  0  0
  9 29  1  0  0  0
  9 10  1  0  0  0
 29 30  1  0  0  0
 30 31  3  0  0  0
 10 11  2  0  0  0
 10 12  1  0  0  0
 12 13  2  0  0  0
 13 14  1  0  0  0
 14 15  2  0  0  0
 15 16  1  0  0  0
 15 17  1  0  0  0
 17 18  2  0  0  0
 18 12  1  0  0  0
 18  7  1  0  0  0
M  END
> <minimizedAffinity>
-8.62268

> <CNNscore>
0.2830722332

> <CNNaffinity>
5.5711183548

> <CNN_VS>
1.5770288706

> <CNNaffinity_variance>
0.2263616771

$$$$



 31 35  0  0  0  0  0  0  0  0999 V2000
   -6.6540   -1.0612  -22.4693 C   0  0  0  0  0  0  0  0  0  0  0  0
   -7.4047   -2.3934  -22.3394 C   0  0  0  0  0  0  0  0  0  0  0  0
   -8.7646   -2.1797  -21.8102 C   0  0  0  0  0  0  0  0  0  0  0  0
   -9.6630   -2.3073  -22.9153 N   0  0  0  0  0  0  0  0  0  0  0  0
   -9.0010   -3.0570  -23.9052 C   0  0  0  0  0  0  0  0  0  0  0  0
   -9.6452   -3.6724  -24.8239 O   0  0  0  0  0  0  0  0  0  0  0  0
   -7.5376   -2.9970  -23.6888 C   0  0  0  0  0  0  0  0  0  0  0  0
   -6.9403   -2.1739  -24.7738 C   0  0  0  0  0  0  0  0  0  0  0  0
   -6.8228   -2.8917  -26.0098 N   0  0  0  0  0  0  0  0  0  0  0  0
   -6.3560   -4.2335  -26.0597 C   0  0  0  0  0  0  0  0  0  0  0  0
   -5.8707   -4.6860  -27.1049 O   0  0  0  0  0  0  0  0  0  0  0  0
   -6.4868   -5.0080  -24.8336 C   0  0  0  0  0  0  0  0  0  0  0  0
   -6.0432   -6.3135  -24.8474 C   0  0  0  0  0  0  0  0  0  0  0  0
   -6.1527   -7.0744  -23.7037 C   0  0  0  0  0  0  0  0  0  0  0  0
   -6.7073   -6.4837  -22.5900 C   0  0  0  0  0  0  0  0  0  0  0  0
   -6.8131   -7.2402  -21.4625 F   0  0  0  0  0  0  0  0  0  0  0  0
   -7.1526   -5.1566  -22.5940 C   0  0  0  0  0  0  0  0  0  0  0  0
   -7.0417   -4.3935  -23.7439 C   0  0  0  0  0  0  0  0  0  0  0  0
  -10.9763   -1.7691  -22.9439 C   0  0  0  0  0  0  0  0  0  0  0  0
  -12.0181   -2.6365  -22.6030 C   0  0  0  0  0  0  0  0  0  0  0  0
  -13.2886   -2.2101  -22.6042 N   0  0  0  0  0  0  0  0  0  0  0  0
  -13.6012   -0.9450  -22.9302 C   0  0  0  0  0  0  0  0  0  0  0  0
  -12.5967   -0.0382  -23.2786 C   0  0  0  0  0  0  0  0  0  0  0  0
  -12.9481    1.2550  -23.6086 C   0  0  0  0  0  0  0  0  0  0  0  0
  -11.9104    2.1160  -23.9467 C   0  0  0  0  0  0  0  0  0  0  0  0
  -10.5946    1.6961  -23.9516 C   0  0  0  0  0  0  0  0  0  0  0  0
  -10.2807    0.4004  -23.6175 C   0  0  0  0  0  0  0  0  0  0  0  0
  -11.2849   -0.4767  -23.2779 C   0  0  0  0  0  0  0  0  0  0  0  0
   -7.1590   -2.2790  -27.3038 C   0  0  0  0  0  0  0  0  0  0  0  0
   -8.4423   -2.7676  -27.7696 C   0  0  0  0  0  0  0  0  0  0  0  0
   -9.4639   -3.1523  -28.1196 N   0  0  0  0  0  0  0  0  0  0  0  0
  2  1  1  0  0  0
  2  3  1  0  0  0
  3  4  1  0  0  0
  4 19  1  0  0  0
  4  5  1  0  0  0
 19 20  2  0  0  0
 20 21  1  0  0  0
 21 22  2  0  0  0
 22 23  1  0  0  0
 23 24  2  0  0  0
 24 25  1  0  0  0
 25 26  2  0  0  0
 26 27  1  0  0  0
 27 28  2  0  0  0
 28 19  1  0  0  0
 28 23  1  0  0  0
  5  6  2  0  0  0
  7  5  1  0  0  0
  7  8  1  0  0  0
  7  2  1  0  0  0
  8  9  1  0  0  0
  9 29  1  0  0  0
  9 10  1  0  0  0
 29 30  1  0  0  0
 30 31  3  0  0  0
 10 11  2  0  0  0
 10 12  1  0  0  0
 12 13  2  0  0  0
 13 14  1  0  0  0
 14 15  2  0  0  0
 15 16  1  0  0  0
 15 17  1  0  0  0
 17 18  2  0  0  0
 18 12  1  0  0  0
 18  7  1  0  0  0
M  END
> <minimizedAffinity>
-7.58770

> <CNNscore>
0.2793783844

> <CNNaffinity>
5.5574283600

> <CNN_VS>
1.5526252985

> <CNNaffinity_variance>
0.6519555449

$$$$



 32 37  0  0  0  0  0  0  0  0999 V2000
   -7.8663   -1.4707  -21.2029 O   0  0  0  0  0  0  0  0  0  0  0  0
   -7.1583   -2.2051  -21.9841 C   0  0  0  0  0  0  0  0  0  0  0  0
   -7.7472   -2.8084  -23.1481 N   0  0  0  0  0  0  0  0  0  0  0  0
   -9.1286   -2.5826  -23.3528 C   0  0  0  0  0  0  0  0  0  0  0  0
  -10.1614   -3.1333  -22.4524 C   0  0  0  0  0  0  0  0  0  0  0  0
  -11.3720   -2.7990  -23.2245 N   0  0  0  0  0  0  0  0  0  0  0  0
  -10.7956   -2.1837  -24.3827 C   0  0  0  0  0  0  0  0  0  0  0  0
   -9.6583   -3.1223  -24.7134 C   0  0  0  0  0  0  0  0  0  0  0  0
   -9.6667   -1.2870  -23.8231 C   0  0  0  0  0  0  0  0  0  0  0  0
  -11.9794   -3.5872  -23.4486 H   0  0  0  0  0  0  0  0  0  0  0  0
  -12.2249   -1.9043  -22.4753 C   0  0  0  0  0  0  0  0  0  0  0  0
  -13.5771   -2.5113  -22.1183 C   0  0  0  0  0  0  0  0  0  0  0  0
  -13.4407   -1.3308  -23.0547 C   0  0  0  0  0  0  0  0  0  0  0  0
   -5.7486   -2.3655  -21.5875 C   0  0  0  0  0  0  0  0  0  0  0  0
   -5.4313   -1.4790  -20.4049 C   0  0  0  0  0  0  0  0  0  0  0  0
   -5.9211   -1.8217  -19.1410 C   0  0  0  0  0  0  0  0  0  0  0  0
   -5.6519   -1.0398  -18.0719 N   0  0  0  0  0  0  0  0  0  0  0  0
   -4.9165    0.0716  -18.1958 C   0  0  0  0  0  0  0  0  0  0  0  0
   -4.4132    0.4409  -19.4435 C   0  0  0  0  0  0  0  0  0  0  0  0
   -3.6633    1.5974  -19.4841 C   0  0  0  0  0  0  0  0  0  0  0  0
   -3.1564    1.9702  -20.7211 C   0  0  0  0  0  0  0  0  0  0  0  0
   -3.4142    1.1939  -21.8267 C   0  0  0  0  0  0  0  0  0  0  0  0
   -4.1624    0.0380  -21.7918 C   0  0  0  0  0  0  0  0  0  0  0  0
   -4.6723   -0.3382  -20.5510 C   0  0  0  0  0  0  0  0  0  0  0  0
   -7.0150   -3.6296  -24.0811 C   0  0  0  0  0  0  0  0  0  0  0  0
   -6.7361   -5.0022  -23.6717 C   0  0  0  0  0  0  0  0  0  0  0  0
   -7.3132   -5.6579  -22.6074 C   0  0  0  0  0  0  0  0  0  0  0  0
   -6.9946   -6.9755  -22.2734 C   0  0  0  0  0  0  0  0  0  0  0  0
   -6.0753   -7.6985  -23.0005 C   0  0  0  0  0  0  0  0  0  0  0  0
   -5.4904   -7.0555  -24.0694 C   0  0  0  0  0  0  0  0  0  0  0  0
   -4.3028   -7.9338  -25.0404 Cl  0  0  0  0  0  0  0  0  0  0  0  0
   -5.8045   -5.7503  -24.4016 C   0  0  0  0  0  0  0  0  0  0  0  0
  1  2  2  0  0  0
  2 14  1  0  0  0
  2  3  1  0  0  0
 14 15  1  0  0  0
 15 16  2  0  0  0
 16 17  1  0  0  0
 17 18  2  0  0  0
 18 19  1  0  0  0
 19 20  2  0  0  0
 20 21  1  0  0  0
 21 22  2  0  0  0
 22 23  1  0  0  0
 23 24  2  0  0  0
 24 15  1  0  0  0
 24 19  1  0  0  0
  3 25  1  0  0  0
 25 26  1  0  0  0
 26 27  2  0  0  0
 27 28  1  0  0  0
 28 29  2  0  0  0
 29 30  1  0  0  0
 30 31  1  0  0  0
 30 32  2  0  0  0
 32 26  1  0  0  0
  4  3  1  0  0  0
  4  5  1  0  0  0
  5  6  1  0  0  0
  6 11  1  0  0  0
  6  7  1  0  0  0
  6 10  1  0  0  0
 11 12  1  0  0  0
 12 13  1  0  0  0
 13 11  1  0  0  0
  7  8  1  0  0  0
  7  9  1  0  0  0
  8  4  1  0  0  0
  9  4  1  0  0  0
M  CHG 1   6   1
M  END
> <minimizedAffinity>
-8.03597

> <CNNscore>
0.5492551327

> <CNNaffinity>
6.3189139366

> <CNN_VS>
3.4706959724

> <CNNaffinity_variance>
0.5101253390

$$$$



 32 37  0  0  0  0  0  0  0  0999 V2000
   -8.8411   -1.0884  -25.1438 O   0  0  0  0  0  0  0  0  0  0  0  0
   -8.4939   -1.1551  -23.9086 C   0  0  0  0  0  0  0  0  0  0  0  0
   -7.8206   -2.3200  -23.4036 N   0  0  0  0  0  0  0  0  0  0  0  0
   -7.6057   -3.3781  -24.3176 C   0  0  0  0  0  0  0  0  0  0  0  0
   -8.7163   -4.1630  -24.8931 C   0  0  0  0  0  0  0  0  0  0  0  0
   -7.9494   -5.2271  -25.5661 N   0  0  0  0  0  0  0  0  0  0  0  0
   -6.6096   -4.8624  -25.2138 C   0  0  0  0  0  0  0  0  0  0  0  0
   -6.7405   -4.5378  -23.7436 C   0  0  0  0  0  0  0  0  0  0  0  0
   -6.5721   -3.3248  -25.3749 C   0  0  0  0  0  0  0  0  0  0  0  0
   -8.1913   -6.1798  -25.2937 H   0  0  0  0  0  0  0  0  0  0  0  0
   -8.1847   -5.2026  -26.9921 C   0  0  0  0  0  0  0  0  0  0  0  0
   -8.8828   -6.4535  -27.5139 C   0  0  0  0  0  0  0  0  0  0  0  0
   -7.4678   -6.0910  -27.9083 C   0  0  0  0  0  0  0  0  0  0  0  0
   -8.8405    0.0232  -23.0951 C   0  0  0  0  0  0  0  0  0  0  0  0
  -10.2782    0.4234  -23.3354 C   0  0  0  0  0  0  0  0  0  0  0  0
  -10.5619    1.7093  -23.8053 C   0  0  0  0  0  0  0  0  0  0  0  0
  -11.8412    2.0876  -24.0224 N   0  0  0  0  0  0  0  0  0  0  0  0
  -12.8585    1.2481  -23.7949 C   0  0  0  0  0  0  0  0  0  0  0  0
  -12.6085   -0.0418  -23.3258 C   0  0  0  0  0  0  0  0  0  0  0  0
  -13.7112   -0.8438  -23.1203 C   0  0  0  0  0  0  0  0  0  0  0  0
  -13.4709   -2.1296  -22.6565 C   0  0  0  0  0  0  0  0  0  0  0  0
  -12.1792   -2.5421  -22.4265 C   0  0  0  0  0  0  0  0  0  0  0  0
  -11.0743   -1.7454  -22.6302 C   0  0  0  0  0  0  0  0  0  0  0  0
  -11.3133   -0.4541  -23.0958 C   0  0  0  0  0  0  0  0  0  0  0  0
   -7.3840   -2.4622  -22.0360 C   0  0  0  0  0  0  0  0  0  0  0  0
   -6.3179   -1.5714  -21.5895 C   0  0  0  0  0  0  0  0  0  0  0  0
   -5.3181   -1.0524  -22.3813 C   0  0  0  0  0  0  0  0  0  0  0  0
   -4.3273   -0.2048  -21.8823 C   0  0  0  0  0  0  0  0  0  0  0  0
   -4.2976    0.1624  -20.5553 C   0  0  0  0  0  0  0  0  0  0  0  0
   -5.2928   -0.3484  -19.7511 C   0  0  0  0  0  0  0  0  0  0  0  0
   -5.3066    0.0886  -18.0384 Cl  0  0  0  0  0  0  0  0  0  0  0  0
   -6.2750   -1.1884  -20.2435 C   0  0  0  0  0  0  0  0  0  0  0  0
  1  2  2  0  0  0
  2 14  1  0  0  0
  2  3  1  0  0  0
 14 15  1  0  0  0
 15 16  2  0  0  0
 16 17  1  0  0  0
 17 18  2  0  0  0
 18 19  1  0  0  0
 19 20  2  0  0  0
 20 21  1  0  0  0
 21 22  2  0  0  0
 22 23  1  0  0  0
 23 24  2  0  0  0
 24 15  1  0  0  0
 24 19  1  0  0  0
  3 25  1  0  0  0
 25 26  1  0  0  0
 26 27  2  0  0  0
 27 28  1  0  0  0
 28 29  2  0  0  0
 29 30  1  0  0  0
 30 31  1  0  0  0
 30 32  2  0  0  0
 32 26  1  0  0  0
  4  3  1  0  0  0
  4  5  1  0  0  0
  5  6  1  0  0  0
  6 11  1  0  0  0
  6  7  1  0  0  0
  6 10  1  0  0  0
 11 12  1  0  0  0
 12 13  1  0  0  0
 13 11  1  0  0  0
  7  8  1  0  0  0
  7  9  1  0  0  0
  8  4  1  0  0  0
  9  4  1  0  0  0
M  CHG 1   6   1
M  END
> <minimizedAffinity>
-7.14537

> <CNNscore>
0.4424805045

> <CNNaffinity>
6.3803281784

> <CNN_VS>
2.8231709003

> <CNNaffinity_variance>
0.2250742614

$$$$



 32 37  0  0  0  0  0  0  0  0999 V2000
   -8.5431    0.7228  -21.3569 O   0  0  0  0  0  0  0  0  0  0  0  0
   -7.8310    0.0481  -22.1867 C   0  0  0  0  0  0  0  0  0  0  0  0
   -7.8239    0.3869  -23.5834 N   0  0  0  0  0  0  0  0  0  0  0  0
   -8.6595    1.4557  -23.9840 C   0  0  0  0  0  0  0  0  0  0  0  0
   -8.5648    2.8011  -23.3828 C   0  0  0  0  0  0  0  0  0  0  0  0
   -9.7592    3.4271  -23.9785 N   0  0  0  0  0  0  0  0  0  0  0  0
  -10.2897    2.3345  -24.7380 C   0  0  0  0  0  0  0  0  0  0  0  0
  -10.1764    1.1823  -23.7667 C   0  0  0  0  0  0  0  0  0  0  0  0
   -9.0507    1.6809  -25.3931 C   0  0  0  0  0  0  0  0  0  0  0  0
  -10.4273    3.8157  -23.3129 H   0  0  0  0  0  0  0  0  0  0  0  0
   -9.3879    4.5576  -24.7991 C   0  0  0  0  0  0  0  0  0  0  0  0
  -10.0550    5.8611  -24.3747 C   0  0  0  0  0  0  0  0  0  0  0  0
  -10.3413    5.2002  -25.7051 C   0  0  0  0  0  0  0  0  0  0  0  0
   -7.0597   -1.0592  -21.5956 C   0  0  0  0  0  0  0  0  0  0  0  0
   -6.2809   -0.5746  -20.3941 C   0  0  0  0  0  0  0  0  0  0  0  0
   -6.7439   -0.8774  -19.1101 C   0  0  0  0  0  0  0  0  0  0  0  0
   -6.0640   -0.4496  -18.0231 N   0  0  0  0  0  0  0  0  0  0  0  0
   -4.9410    0.2679  -18.1481 C   0  0  0  0  0  0  0  0  0  0  0  0
   -4.4529    0.5865  -19.4157 C   0  0  0  0  0  0  0  0  0  0  0  0
   -3.2896    1.3257  -19.4566 C   0  0  0  0  0  0  0  0  0  0  0  0
   -2.7958    1.6444  -20.7139 C   0  0  0  0  0  0  0  0  0  0  0  0
   -3.4666    1.2226  -21.8379 C   0  0  0  0  0  0  0  0  0  0  0  0
   -4.6288    0.4841  -21.8028 C   0  0  0  0  0  0  0  0  0  0  0  0
   -5.1263    0.1631  -20.5417 C   0  0  0  0  0  0  0  0  0  0  0  0
   -7.0381   -0.3105  -24.5720 C   0  0  0  0  0  0  0  0  0  0  0  0
   -7.2848   -1.7412  -24.7192 C   0  0  0  0  0  0  0  0  0  0  0  0
   -6.3243   -2.7277  -24.7206 C   0  0  0  0  0  0  0  0  0  0  0  0
   -6.6359   -4.0805  -24.8685 C   0  0  0  0  0  0  0  0  0  0  0  0
   -7.9369   -4.5052  -25.0219 C   0  0  0  0  0  0  0  0  0  0  0  0
   -8.9091   -3.5291  -25.0212 C   0  0  0  0  0  0  0  0  0  0  0  0
  -10.5978   -4.0144  -25.2137 Cl  0  0  0  0  0  0  0  0  0  0  0  0
   -8.6023   -2.1885  -24.8751 C   0  0  0  0  0  0  0  0  0  0  0  0
  1  2  2  0  0  0
  2 14  1  0  0  0
  2  3  1  0  0  0
 14 15  1  0  0  0
 15 16  2  0  0  0
 16 17  1  0  0  0
 17 18  2  0  0  0
 18 19  1  0  0  0
 19 20  2  0  0  0
 20 21  1  0  0  0
 21 22  2  0  0  0
 22 23  1  0  0  0
 23 24  2  0  0  0
 24 15  1  0  0  0
 24 19  1  0  0  0
  3 25  1  0  0  0
 25 26  1  0  0  0
 26 27  2  0  0  0
 27 28  1  0  0  0
 28 29  2  0  0  0
 29 30  1  0  0  0
 30 31  1  0  0  0
 30 32  2  0  0  0
 32 26  1  0  0  0
  4  3  1  0  0  0
  4  5  1  0  0  0
  5  6  1  0  0  0
  6 11  1  0  0  0
  6  7  1  0  0  0
  6 10  1  0  0  0
 11 12  1  0  0  0
 12 13  1  0  0  0
 13 11  1  0  0  0
  7  8  1  0  0  0
  7  9  1  0  0  0
  8  4  1  0  0  0
  9  4  1  0  0  0
M  CHG 1   6   1
M  END
> <minimizedAffinity>
-6.99780

> <CNNscore>
0.4051461518

> <CNNaffinity>
5.9413447380

> <CNN_VS>
2.4071130753

> <CNNaffinity_variance>
0.1631259024

$$$$



 32 37  0  0  0  0  0  0  0  0999 V2000
   -6.7927   -1.2721  -23.7164 O   0  0  0  0  0  0  0  0  0  0  0  0
   -7.8455   -1.0702  -23.0081 C   0  0  0  0  0  0  0  0  0  0  0  0
   -8.9665   -1.9649  -23.0987 N   0  0  0  0  0  0  0  0  0  0  0  0
   -8.8579   -3.0309  -24.0223 C   0  0  0  0  0  0  0  0  0  0  0  0
  -10.0295   -3.8088  -24.4728 C   0  0  0  0  0  0  0  0  0  0  0  0
   -9.3467   -4.8845  -25.2144 N   0  0  0  0  0  0  0  0  0  0  0  0
   -7.9742   -4.5303  -25.0068 C   0  0  0  0  0  0  0  0  0  0  0  0
   -7.9477   -4.1951  -23.5335 C   0  0  0  0  0  0  0  0  0  0  0  0
   -7.9401   -2.9942  -25.1823 C   0  0  0  0  0  0  0  0  0  0  0  0
   -9.5672   -5.8331  -24.9112 H   0  0  0  0  0  0  0  0  0  0  0  0
   -9.7297   -4.8668  -26.6081 C   0  0  0  0  0  0  0  0  0  0  0  0
  -10.3882   -6.1608  -27.0733 C   0  0  0  0  0  0  0  0  0  0  0  0
   -9.0509   -5.6953  -27.6059 C   0  0  0  0  0  0  0  0  0  0  0  0
   -7.7966    0.1160  -22.1358 C   0  0  0  0  0  0  0  0  0  0  0  0
   -6.9615   -0.1683  -20.9083 C   0  0  0  0  0  0  0  0  0  0  0  0
   -7.3858   -1.1452  -20.0024 C   0  0  0  0  0  0  0  0  0  0  0  0
   -6.6552   -1.4111  -18.8967 N   0  0  0  0  0  0  0  0  0  0  0  0
   -5.5182   -0.7518  -18.6443 C   0  0  0  0  0  0  0  0  0  0  0  0
   -5.0678    0.2287  -19.5288 C   0  0  0  0  0  0  0  0  0  0  0  0
   -3.8868    0.8581  -19.1966 C   0  0  0  0  0  0  0  0  0  0  0  0
   -3.4303    1.8328  -20.0728 C   0  0  0  0  0  0  0  0  0  0  0  0
   -4.1530    2.1247  -21.2059 C   0  0  0  0  0  0  0  0  0  0  0  0
   -5.3331    1.4992  -21.5425 C   0  0  0  0  0  0  0  0  0  0  0  0
   -5.7931    0.5203  -20.6643 C   0  0  0  0  0  0  0  0  0  0  0  0
  -10.1744   -1.8155  -22.3242 C   0  0  0  0  0  0  0  0  0  0  0  0
  -11.1835   -0.9011  -22.8486 C   0  0  0  0  0  0  0  0  0  0  0  0
  -12.4798   -1.2330  -23.1731 C   0  0  0  0  0  0  0  0  0  0  0  0
  -13.3918   -0.3018  -23.6733 C   0  0  0  0  0  0  0  0  0  0  0  0
  -13.0390    1.0148  -23.8701 C   0  0  0  0  0  0  0  0  0  0  0  0
  -11.7452    1.3618  -23.5485 C   0  0  0  0  0  0  0  0  0  0  0  0
  -11.2349    3.0383  -23.7794 Cl  0  0  0  0  0  0  0  0  0  0  0  0
  -10.8402    0.4407  -23.0532 C   0  0  0  0  0  0  0  0  0  0  0  0
  1  2  2  0  0  0
  2 14  1  0  0  0
  2  3  1  0  0  0
 14 15  1  0  0  0
 15 16  2  0  0  0
 16 17  1  0  0  0
 17 18  2  0  0  0
 18 19  1  0  0  0
 19 20  2  0  0  0
 20 21  1  0  0  0
 21 22  2  0  0  0
 22 23  1  0  0  0
 23 24  2  0  0  0
 24 15  1  0  0  0
 24 19  1  0  0  0
  3 25  1  0  0  0
 25 26  1  0  0  0
 26 27  2  0  0  0
 27 28  1  0  0  0
 28 29  2  0  0  0
 29 30  1  0  0  0
 30 31  1  0  0  0
 30 32  2  0  0  0
 32 26  1  0  0  0
  4  3  1  0  0  0
  4  5  1  0  0  0
  5  6  1  0  0  0
  6 11  1  0  0  0
  6  7  1  0  0  0
  6 10  1  0  0  0
 11 12  1  0  0  0
 12 13  1  0  0  0
 13 11  1  0  0  0
  7  8  1  0  0  0
  7  9  1  0  0  0
  8  4  1  0  0  0
  9  4  1  0  0  0
M  CHG 1   6   1
M  END
> <minimizedAffinity>
-7.98565

> <CNNscore>
0.3635120690

> <CNNaffinity>
6.2250685692

> <CNN_VS>
2.2628874779

> <CNNaffinity_variance>
0.2785782218

$$$$



 32 37  0  0  0  0  0  0  0  0999 V2000
   -8.3272   -0.7622  -20.6885 O   0  0  0  0  0  0  0  0  0  0  0  0
   -7.5873   -1.4046  -21.5196 C   0  0  0  0  0  0  0  0  0  0  0  0
   -7.9114   -1.4226  -22.9197 N   0  0  0  0  0  0  0  0  0  0  0  0
   -9.0878   -0.7408  -23.3101 C   0  0  0  0  0  0  0  0  0  0  0  0
  -10.4099   -1.3981  -23.3378 C   0  0  0  0  0  0  0  0  0  0  0  0
  -11.1992   -0.3466  -24.0046 N   0  0  0  0  0  0  0  0  0  0  0  0
  -10.1899    0.6410  -24.2452 C   0  0  0  0  0  0  0  0  0  0  0  0
   -9.0419   -0.1924  -24.7662 C   0  0  0  0  0  0  0  0  0  0  0  0
   -9.3559    0.6673  -22.9432 C   0  0  0  0  0  0  0  0  0  0  0  0
  -11.6874   -0.6370  -24.8518 H   0  0  0  0  0  0  0  0  0  0  0  0
  -12.2559    0.1255  -23.1386 C   0  0  0  0  0  0  0  0  0  0  0  0
  -13.6494   -0.2845  -23.6018 C   0  0  0  0  0  0  0  0  0  0  0  0
  -13.1999    1.1596  -23.5655 C   0  0  0  0  0  0  0  0  0  0  0  0
   -6.4286   -2.0934  -20.9254 C   0  0  0  0  0  0  0  0  0  0  0  0
   -5.7312   -1.1896  -19.9345 C   0  0  0  0  0  0  0  0  0  0  0  0
   -6.0422   -1.2941  -18.5754 C   0  0  0  0  0  0  0  0  0  0  0  0
   -5.4327   -0.4920  -17.6742 N   0  0  0  0  0  0  0  0  0  0  0  0
   -4.5248    0.4137  -18.0574 C   0  0  0  0  0  0  0  0  0  0  0  0
   -4.1926    0.5426  -19.4063 C   0  0  0  0  0  0  0  0  0  0  0  0
   -3.2467    1.4968  -19.7161 C   0  0  0  0  0  0  0  0  0  0  0  0
   -2.9084    1.6294  -21.0556 C   0  0  0  0  0  0  0  0  0  0  0  0
   -3.5124    0.8268  -21.9949 C   0  0  0  0  0  0  0  0  0  0  0  0
   -4.4576   -0.1278  -21.6910 C   0  0  0  0  0  0  0  0  0  0  0  0
   -4.7988   -0.2626  -20.3469 C   0  0  0  0  0  0  0  0  0  0  0  0
   -7.1215   -2.1050  -23.9154 C   0  0  0  0  0  0  0  0  0  0  0  0
   -7.4762   -3.4916  -24.1999 C   0  0  0  0  0  0  0  0  0  0  0  0
   -8.3684   -3.9136  -25.1599 C   0  0  0  0  0  0  0  0  0  0  0  0
   -8.6602   -5.2619  -25.3747 C   0  0  0  0  0  0  0  0  0  0  0  0
   -8.0628   -6.2537  -24.6290 C   0  0  0  0  0  0  0  0  0  0  0  0
   -7.1666   -5.8463  -23.6653 C   0  0  0  0  0  0  0  0  0  0  0  0
   -6.3677   -7.0750  -22.6771 Cl  0  0  0  0  0  0  0  0  0  0  0  0
   -6.8765   -4.5112  -23.4508 C   0  0  0  0  0  0  0  0  0  0  0  0
  1  2  2  0  0  0
  2 14  1  0  0  0
  2  3  1  0  0  0
 14 15  1  0  0  0
 15 16  2  0  0  0
 16 17  1  0  0  0
 17 18  2  0  0  0
 18 19  1  0  0  0
 19 20  2  0  0  0
 20 21  1  0  0  0
 21 22  2  0  0  0
 22 23  1  0  0  0
 23 24  2  0  0  0
 24 15  1  0  0  0
 24 19  1  0  0  0
  3 25  1  0  0  0
 25 26  1  0  0  0
 26 27  2  0  0  0
 27 28  1  0  0  0
 28 29  2  0  0  0
 29 30  1  0  0  0
 30 31  1  0  0  0
 30 32  2  0  0  0
 32 26  1  0  0  0
  4  3  1  0  0  0
  4  5  1  0  0  0
  5  6  1  0  0  0
  6 11  1  0  0  0
  6  7  1  0  0  0
  6 10  1  0  0  0
 11 12  1  0  0  0
 12 13  1  0  0  0
 13 11  1  0  0  0
  7  8  1  0  0  0
  7  9  1  0  0  0
  8  4  1  0  0  0
  9  4  1  0  0  0
M  CHG 1   6   1
M  END
> <minimizedAffinity>
-7.52510

> <CNNscore>
0.3317154050

> <CNNaffinity>
6.1100010872

> <CNN_VS>
2.0267815590

> <CNNaffinity_variance>
0.4445798993

$$$$



 32 37  0  0  0  0  0  0  0  0999 V2000
   -7.1578   -2.6098  -21.7176 O   0  0  0  0  0  0  0  0  0  0  0  0
   -7.7482   -1.5905  -22.2307 C   0  0  0  0  0  0  0  0  0  0  0  0
   -8.1254   -1.5893  -23.6175 N   0  0  0  0  0  0  0  0  0  0  0  0
   -7.7788   -2.7339  -24.3730 C   0  0  0  0  0  0  0  0  0  0  0  0
   -6.3771   -3.1513  -24.5772 C   0  0  0  0  0  0  0  0  0  0  0  0
   -6.5754   -4.2165  -25.5769 N   0  0  0  0  0  0  0  0  0  0  0  0
   -7.9954   -4.1603  -25.7575 C   0  0  0  0  0  0  0  0  0  0  0  0
   -8.2487   -2.6737  -25.8557 C   0  0  0  0  0  0  0  0  0  0  0  0
   -8.5608   -3.9892  -24.3283 C   0  0  0  0  0  0  0  0  0  0  0  0
   -6.0549   -4.1025  -26.4467 H   0  0  0  0  0  0  0  0  0  0  0  0
   -6.1215   -5.4894  -25.0640 C   0  0  0  0  0  0  0  0  0  0  0  0
   -5.0861   -6.1682  -25.9537 C   0  0  0  0  0  0  0  0  0  0  0  0
   -6.4621   -6.7524  -25.7210 C   0  0  0  0  0  0  0  0  0  0  0  0
   -7.9873   -0.4713  -21.3029 C   0  0  0  0  0  0  0  0  0  0  0  0
   -6.8943   -0.4102  -20.2605 C   0  0  0  0  0  0  0  0  0  0  0  0
   -6.9913   -1.2109  -19.1185 C   0  0  0  0  0  0  0  0  0  0  0  0
   -6.0265   -1.1674  -18.1729 N   0  0  0  0  0  0  0  0  0  0  0  0
   -4.9642   -0.3641  -18.3055 C   0  0  0  0  0  0  0  0  0  0  0  0
   -4.8381    0.4472  -19.4335 C   0  0  0  0  0  0  0  0  0  0  0  0
   -3.7132    1.2424  -19.4940 C   0  0  0  0  0  0  0  0  0  0  0  0
   -3.5788    2.0504  -20.6144 C   0  0  0  0  0  0  0  0  0  0  0  0
   -4.5450    2.0271  -21.5927 C   0  0  0  0  0  0  0  0  0  0  0  0
   -5.6703    1.2349  -21.5374 C   0  0  0  0  0  0  0  0  0  0  0  0
   -5.8074    0.4230  -20.4135 C   0  0  0  0  0  0  0  0  0  0  0  0
   -8.8060   -0.4920  -24.2608 C   0  0  0  0  0  0  0  0  0  0  0  0
  -10.2150   -0.3064  -23.9296 C   0  0  0  0  0  0  0  0  0  0  0  0
  -11.1140   -1.3097  -23.6452 C   0  0  0  0  0  0  0  0  0  0  0  0
  -12.4519   -1.0557  -23.3375 C   0  0  0  0  0  0  0  0  0  0  0  0
  -12.9492    0.2280  -23.3009 C   0  0  0  0  0  0  0  0  0  0  0  0
  -12.0606    1.2425  -23.5822 C   0  0  0  0  0  0  0  0  0  0  0  0
  -12.6416    2.9116  -23.5498 Cl  0  0  0  0  0  0  0  0  0  0  0  0
  -10.7350    0.9928  -23.8875 C   0  0  0  0  0  0  0  0  0  0  0  0
  1  2  2  0  0  0
  2 14  1  0  0  0
  2  3  1  0  0  0
 14 15  1  0  0  0
 15 16  2  0  0  0
 16 17  1  0  0  0
 17 18  2  0  0  0
 18 19  1  0  0  0
 19 20  2  0  0  0
 20 21  1  0  0  0
 21 22  2  0  0  0
 22 23  1  0  0  0
 23 24  2  0  0  0
 24 15  1  0  0  0
 24 19  1  0  0  0
  3 25  1  0  0  0
 25 26  1  0  0  0
 26 27  2  0  0  0
 27 28  1  0  0  0
 28 29  2  0  0  0
 29 30  1  0  0  0
 30 31  1  0  0  0
 30 32  2  0  0  0
 32 26  1  0  0  0
  4  3  1  0  0  0
  4  5  1  0  0  0
  5  6  1  0  0  0
  6 11  1  0  0  0
  6  7  1  0  0  0
  6 10  1  0  0  0
 11 12  1  0  0  0
 12 13  1  0  0  0
 13 11  1  0  0  0
  7  8  1  0  0  0
  7  9  1  0  0  0
  8  4  1  0  0  0
  9  4  1  0  0  0
M  CHG 1   6   1
M  END
> <minimizedAffinity>
-7.77657

> <CNNscore>
0.2698679864

> <CNNaffinity>
6.0150160789

> <CNN_VS>
1.6232602596

> <CNNaffinity_variance>
0.1273645908

$$$$



 32 37  0  0  0  0  0  0  0  0999 V2000
   -8.1529   -1.5913  -20.9625 O   0  0  0  0  0  0  0  0  0  0  0  0
   -7.5122   -2.1271  -21.9388 C   0  0  0  0  0  0  0  0  0  0  0  0
   -8.1669   -2.3651  -23.1959 N   0  0  0  0  0  0  0  0  0  0  0  0
   -9.5362   -2.0194  -23.2767 C   0  0  0  0  0  0  0  0  0  0  0  0
  -10.6125   -2.9650  -22.9188 C   0  0  0  0  0  0  0  0  0  0  0  0
  -11.7837   -2.2004  -23.3844 N   0  0  0  0  0  0  0  0  0  0  0  0
  -11.1508   -1.0356  -23.9275 C   0  0  0  0  0  0  0  0  0  0  0  0
  -10.0019   -1.6288  -24.7097 C   0  0  0  0  0  0  0  0  0  0  0  0
  -10.0473   -0.6819  -22.9035 C   0  0  0  0  0  0  0  0  0  0  0  0
  -12.3822   -2.6822  -24.0553 H   0  0  0  0  0  0  0  0  0  0  0  0
  -12.6688   -1.8998  -22.2818 C   0  0  0  0  0  0  0  0  0  0  0  0
  -13.8048   -2.9041  -22.1238 C   0  0  0  0  0  0  0  0  0  0  0  0
  -14.0477   -1.4582  -22.4969 C   0  0  0  0  0  0  0  0  0  0  0  0
   -6.1056   -2.4626  -21.6571 C   0  0  0  0  0  0  0  0  0  0  0  0
   -5.2287   -1.2445  -21.8363 C   0  0  0  0  0  0  0  0  0  0  0  0
   -4.7779   -0.9073  -23.1162 C   0  0  0  0  0  0  0  0  0  0  0  0
   -3.9895    0.1756  -23.2966 N   0  0  0  0  0  0  0  0  0  0  0  0
   -3.6244    0.9448  -22.2638 C   0  0  0  0  0  0  0  0  0  0  0  0
   -4.0576    0.6350  -20.9743 C   0  0  0  0  0  0  0  0  0  0  0  0
   -3.6391    1.4793  -19.9677 C   0  0  0  0  0  0  0  0  0  0  0  0
   -4.0683    1.1798  -18.6823 C   0  0  0  0  0  0  0  0  0  0  0  0
   -4.8712    0.0840  -18.4686 C   0  0  0  0  0  0  0  0  0  0  0  0
   -5.2922   -0.7625  -19.4702 C   0  0  0  0  0  0  0  0  0  0  0  0
   -4.8626   -0.4638  -20.7615 C   0  0  0  0  0  0  0  0  0  0  0  0
   -7.5112   -2.9451  -24.3426 C   0  0  0  0  0  0  0  0  0  0  0  0
   -7.7162   -4.3725  -24.5659 C   0  0  0  0  0  0  0  0  0  0  0  0
   -8.4322   -4.9307  -25.6010 C   0  0  0  0  0  0  0  0  0  0  0  0
   -8.5876   -6.3101  -25.7499 C   0  0  0  0  0  0  0  0  0  0  0  0
   -8.0254   -7.1966  -24.8586 C   0  0  0  0  0  0  0  0  0  0  0  0
   -7.3049   -6.6524  -23.8181 C   0  0  0  0  0  0  0  0  0  0  0  0
   -6.5592   -7.7414  -22.6424 Cl  0  0  0  0  0  0  0  0  0  0  0  0
   -7.1500   -5.2862  -23.6688 C   0  0  0  0  0  0  0  0  0  0  0  0
  1  2  2  0  0  0
  2 14  1  0  0  0
  2  3  1  0  0  0
 14 15  1  0  0  0
 15 16  2  0  0  0
 16 17  1  0  0  0
 17 18  2  0  0  0
 18 19  1  0  0  0
 19 20  2  0  0  0
 20 21  1  0  0  0
 21 22  2  0  0  0
 22 23  1  0  0  0
 23 24  2  0  0  0
 24 15  1  0  0  0
 24 19  1  0  0  0
  3 25  1  0  0  0
 25 26  1  0  0  0
 26 27  2  0  0  0
 27 28  1  0  0  0
 28 29  2  0  0  0
 29 30  1  0  0  0
 30 31  1  0  0  0
 30 32  2  0  0  0
 32 26  1  0  0  0
  4  3  1  0  0  0
  4  5  1  0  0  0
  5  6  1  0  0  0
  6 11  1  0  0  0
  6  7  1  0  0  0
  6 10  1  0  0  0
 11 12  1  0  0  0
 12 13  1  0  0  0
 13 11  1  0  0  0
  7  8  1  0  0  0
  7  9  1  0  0  0
  8  4  1  0  0  0
  9  4  1  0  0  0
M  CHG 1   6   1
M  END
> <minimizedAffinity>
-6.42301

> <CNNscore>
0.2537228167

> <CNNaffinity>
6.2021942139

> <CNN_VS>
1.5736382008

> <CNNaffinity_variance>
0.1751000285

$$$$



 32 37  0  0  0  0  0  0  0  0999 V2000
   -5.7396   -2.3939  -24.1737 O   0  0  0  0  0  0  0  0  0  0  0  0
   -6.8851   -2.8894  -23.8688 C   0  0  0  0  0  0  0  0  0  0  0  0
   -7.5732   -2.4571  -22.6833 N   0  0  0  0  0  0  0  0  0  0  0  0
   -6.9097   -1.5067  -21.8724 C   0  0  0  0  0  0  0  0  0  0  0  0
   -5.5534   -1.7357  -21.3350 C   0  0  0  0  0  0  0  0  0  0  0  0
   -5.4483   -0.5849  -20.4196 N   0  0  0  0  0  0  0  0  0  0  0  0
   -6.7366    0.0180  -20.5902 C   0  0  0  0  0  0  0  0  0  0  0  0
   -7.6596   -1.1779  -20.5486 C   0  0  0  0  0  0  0  0  0  0  0  0
   -6.9967   -0.0494  -22.1132 C   0  0  0  0  0  0  0  0  0  0  0  0
   -5.2382   -0.8161  -19.4486 H   0  0  0  0  0  0  0  0  0  0  0  0
   -4.3620    0.2835  -20.8134 C   0  0  0  0  0  0  0  0  0  0  0  0
   -3.6898    0.9859  -19.6391 C   0  0  0  0  0  0  0  0  0  0  0  0
   -4.4584    1.7399  -20.7019 C   0  0  0  0  0  0  0  0  0  0  0  0
   -7.4008   -3.9012  -24.8073 C   0  0  0  0  0  0  0  0  0  0  0  0
   -6.6127   -5.1849  -24.6814 C   0  0  0  0  0  0  0  0  0  0  0  0
   -6.3321   -5.6945  -23.4100 C   0  0  0  0  0  0  0  0  0  0  0  0
   -5.6252   -6.8388  -23.2763 N   0  0  0  0  0  0  0  0  0  0  0  0
   -5.1805   -7.5060  -24.3480 C   0  0  0  0  0  0  0  0  0  0  0  0
   -5.4439   -7.0235  -25.6304 C   0  0  0  0  0  0  0  0  0  0  0  0
   -4.9531   -7.7716  -26.6795 C   0  0  0  0  0  0  0  0  0  0  0  0
   -5.2135   -7.3000  -27.9586 C   0  0  0  0  0  0  0  0  0  0  0  0
   -5.9303   -6.1382  -28.1252 C   0  0  0  0  0  0  0  0  0  0  0  0
   -6.4228   -5.3872  -27.0809 C   0  0  0  0  0  0  0  0  0  0  0  0
   -6.1627   -5.8588  -25.7960 C   0  0  0  0  0  0  0  0  0  0  0  0
   -8.8679   -2.9524  -22.2838 C   0  0  0  0  0  0  0  0  0  0  0  0
  -10.0294   -2.1830  -22.7179 C   0  0  0  0  0  0  0  0  0  0  0  0
   -9.9972   -1.0412  -23.4867 C   0  0  0  0  0  0  0  0  0  0  0  0
  -11.1534   -0.3552  -23.8631 C   0  0  0  0  0  0  0  0  0  0  0  0
  -12.4030   -0.7901  -23.4812 C   0  0  0  0  0  0  0  0  0  0  0  0
  -12.4508   -1.9323  -22.7125 C   0  0  0  0  0  0  0  0  0  0  0  0
  -14.0276   -2.5390  -22.1928 Cl  0  0  0  0  0  0  0  0  0  0  0  0
  -11.3066   -2.6132  -22.3385 C   0  0  0  0  0  0  0  0  0  0  0  0
  1  2  2  0  0  0
  2 14  1  0  0  0
  2  3  1  0  0  0
 14 15  1  0  0  0
 15 16  2  0  0  0
 16 17  1  0  0  0
 17 18  2  0  0  0
 18 19  1  0  0  0
 19 20  2  0  0  0
 20 21  1  0  0  0
 21 22  2  0  0  0
 22 23  1  0  0  0
 23 24  2  0  0  0
 24 15  1  0  0  0
 24 19  1  0  0  0
  3 25  1  0  0  0
 25 26  1  0  0  0
 26 27  2  0  0  0
 27 28  1  0  0  0
 28 29  2  0  0  0
 29 30  1  0  0  0
 30 31  1  0  0  0
 30 32  2  0  0  0
 32 26  1  0  0  0
  4  3  1  0  0  0
  4  5  1  0  0  0
  5  6  1  0  0  0
  6 11  1  0  0  0
  6  7  1  0  0  0
  6 10  1  0  0  0
 11 12  1  0  0  0
 12 13  1  0  0  0
 13 11  1  0  0  0
  7  8  1  0  0  0
  7  9  1  0  0  0
  8  4  1  0  0  0
  9  4  1  0  0  0
M  CHG 1   6   1
M  END
> <minimizedAffinity>
-6.96078

> <CNNscore>
0.2522591352

> <CNNaffinity>
6.0017619133

> <CNN_VS>
1.5139992237

> <CNNaffinity_variance>
0.3085722327

$$$$



 32 37  0  0  0  0  0  0  0  0999 V2000
   -6.1575   -4.1826  -21.7495 O   0  0  0  0  0  0  0  0  0  0  0  0
   -7.0055   -3.9022  -22.6731 C   0  0  0  0  0  0  0  0  0  0  0  0
   -7.2706   -2.5348  -23.0273 N   0  0  0  0  0  0  0  0  0  0  0  0
   -6.5879   -1.5411  -22.2873 C   0  0  0  0  0  0  0  0  0  0  0  0
   -6.8178   -1.3333  -20.8435 C   0  0  0  0  0  0  0  0  0  0  0  0
   -6.0558   -0.0871  -20.6446 N   0  0  0  0  0  0  0  0  0  0  0  0
   -5.5983    0.1687  -21.9778 C   0  0  0  0  0  0  0  0  0  0  0  0
   -6.8394   -0.0929  -22.7996 C   0  0  0  0  0  0  0  0  0  0  0  0
   -5.1616   -1.2162  -22.5095 C   0  0  0  0  0  0  0  0  0  0  0  0
   -6.5832    0.6891  -20.2448 H   0  0  0  0  0  0  0  0  0  0  0  0
   -4.9753   -0.2932  -19.7068 C   0  0  0  0  0  0  0  0  0  0  0  0
   -5.2608    0.2685  -18.3185 C   0  0  0  0  0  0  0  0  0  0  0  0
   -4.1655    0.8184  -19.2055 C   0  0  0  0  0  0  0  0  0  0  0  0
   -7.6540   -5.0652  -23.3033 C   0  0  0  0  0  0  0  0  0  0  0  0
   -6.9975   -5.3790  -24.6283 C   0  0  0  0  0  0  0  0  0  0  0  0
   -5.6029   -5.3553  -24.7244 C   0  0  0  0  0  0  0  0  0  0  0  0
   -4.9971   -5.6288  -25.9013 N   0  0  0  0  0  0  0  0  0  0  0  0
   -5.7111   -5.9263  -26.9936 C   0  0  0  0  0  0  0  0  0  0  0  0
   -7.1045   -5.9581  -26.9305 C   0  0  0  0  0  0  0  0  0  0  0  0
   -7.7639   -6.2759  -28.0990 C   0  0  0  0  0  0  0  0  0  0  0  0
   -9.1502   -6.3127  -28.0439 C   0  0  0  0  0  0  0  0  0  0  0  0
   -9.7938   -6.0387  -26.8598 C   0  0  0  0  0  0  0  0  0  0  0  0
   -9.1402   -5.7208  -25.6899 C   0  0  0  0  0  0  0  0  0  0  0  0
   -7.7485   -5.6833  -25.7429 C   0  0  0  0  0  0  0  0  0  0  0  0
   -8.1938   -2.1410  -24.0636 C   0  0  0  0  0  0  0  0  0  0  0  0
   -9.5936   -1.9959  -23.6776 C   0  0  0  0  0  0  0  0  0  0  0  0
  -10.4286   -3.0156  -23.2793 C   0  0  0  0  0  0  0  0  0  0  0  0
  -11.7619   -2.8008  -22.9251 C   0  0  0  0  0  0  0  0  0  0  0  0
  -12.3191   -1.5418  -22.9550 C   0  0  0  0  0  0  0  0  0  0  0  0
  -11.4948   -0.5113  -23.3505 C   0  0  0  0  0  0  0  0  0  0  0  0
  -12.1545    1.1277  -23.4077 Cl  0  0  0  0  0  0  0  0  0  0  0  0
  -10.1739   -0.7221  -23.7020 C   0  0  0  0  0  0  0  0  0  0  0  0
  1  2  2  0  0  0
  2 14  1  0  0  0
  2  3  1  0  0  0
 14 15  1  0  0  0
 15 16  2  0  0  0
 16 17  1  0  0  0
 17 18  2  0  0  0
 18 19  1  0  0  0
 19 20  2  0  0  0
 20 21  1  0  0  0
 21 22  2  0  0  0
 22 23  1  0  0  0
 23 24  2  0  0  0
 24 15  1  0  0  0
 24 19  1  0  0  0
  3 25  1  0  0  0
 25 26  1  0  0  0
 26 27  2  0  0  0
 27 28  1  0  0  0
 28 29  2  0  0  0
 29 30  1  0  0  0
 30 31  1  0  0  0
 30 32  2  0  0  0
 32 26  1  0  0  0
  4  3  1  0  0  0
  4  5  1  0  0  0
  5  6  1  0  0  0
  6 11  1  0  0  0
  6  7  1  0  0  0
  6 10  1  0  0  0
 11 12  1  0  0  0
 12 13  1  0  0  0
 13 11  1  0  0  0
  7  8  1  0  0  0
  7  9  1  0  0  0
  8  4  1  0  0  0
  9  4  1  0  0  0
M  CHG 1   6   1
M  END
> <minimizedAffinity>
-7.22722

> <CNNscore>
0.2041542828

> <CNNaffinity>
5.9652261734

> <CNN_VS>
1.2178264856

> <CNNaffinity_variance>
0.0879510120

$$$$



 22 24  0  0  0  0  0  0  0  0999 V2000
  -10.2482   -1.8169  -22.5478 C   0  0  0  0  0  0  0  0  0  0  0  0
   -9.2241   -2.8723  -22.6967 C   0  0  0  0  0  0  0  0  0  0  0  0
   -7.8007   -2.4658  -22.8194 C   0  0  0  0  0  0  0  0  0  0  0  0
   -7.6004   -1.1326  -23.3386 N   0  0  0  0  0  0  0  0  0  0  0  0
   -6.3590   -0.4468  -23.2474 C   0  0  0  0  0  0  0  0  0  0  0  0
   -6.2123    0.7175  -23.7099 O   0  0  0  0  0  0  0  0  0  0  0  0
   -8.7786   -0.5161  -23.9761 C   0  0  0  0  0  0  0  0  0  0  0  0
   -9.7765   -0.4395  -22.8567 C   0  0  0  0  0  0  0  0  0  0  0  0
  -11.1879   -3.4048  -24.1504 C   0  0  0  0  0  0  0  0  0  0  0  0
  -11.5201   -2.1905  -23.2731 C   0  0  0  0  0  0  0  0  0  0  0  0
  -12.6204   -2.6205  -22.3470 C   0  0  0  0  0  0  0  0  0  0  0  0
   -5.2399   -1.1632  -22.5819 C   0  0  0  0  0  0  0  0  0  0  0  0
   -5.0070   -0.5274  -21.2713 C   0  0  0  0  0  0  0  0  0  0  0  0
   -5.8386   -0.8224  -20.1911 C   0  0  0  0  0  0  0  0  0  0  0  0
   -5.6591   -0.2637  -18.9780 N   0  0  0  0  0  0  0  0  0  0  0  0
   -4.6661    0.6213  -18.7118 C   0  0  0  0  0  0  0  0  0  0  0  0
   -3.8287    0.9290  -19.7682 C   0  0  0  0  0  0  0  0  0  0  0  0
   -2.8085    1.8403  -19.4904 C   0  0  0  0  0  0  0  0  0  0  0  0
   -1.9678    2.1541  -20.5382 C   0  0  0  0  0  0  0  0  0  0  0  0
   -2.1177    1.6037  -21.7953 C   0  0  0  0  0  0  0  0  0  0  0  0
   -3.1433    0.7040  -22.0270 C   0  0  0  0  0  0  0  0  0  0  0  0
   -3.9919    0.3710  -21.0171 C   0  0  0  0  0  0  0  0  0  0  0  0
  9 10  1  0  0  0
 10 11  1  0  0  0
 10  1  1  0  0  0
  1  2  1  0  0  0
  2  3  1  0  0  0
  3  4  1  0  0  0
  4  5  1  0  0  0
  4  7  1  0  0  0
  5  6  2  0  0  0
  5 12  1  0  0  0
 12 13  1  0  0  0
 13 14  2  0  0  0
 14 15  1  0  0  0
 15 16  2  0  0  0
 16 17  1  0  0  0
 17 18  2  0  0  0
 18 19  1  0  0  0
 19 20  2  0  0  0
 20 21  1  0  0  0
 21 22  2  0  0  0
 22 13  1  0  0  0
 22 17  1  0  0  0
  7  8  1  0  0  0
  8  1  1  0  0  0
M  END
> <minimizedAffinity>
-6.09517

> <CNNscore>
0.5778807998

> <CNNaffinity>
5.1226119995

> <CNN_VS>
2.9602591991

> <CNNaffinity_variance>
0.1676016301

$$$$



 22 24  0  0  0  0  0  0  0  0999 V2000
   -8.1597   -4.6891  -25.0701 C   0  0  0  0  0  0  0  0  0  0  0  0
   -9.1227   -3.7974  -24.3902 C   0  0  0  0  0  0  0  0  0  0  0  0
   -8.6292   -2.9285  -23.2911 C   0  0  0  0  0  0  0  0  0  0  0  0
   -7.4448   -3.4188  -22.6247 N   0  0  0  0  0  0  0  0  0  0  0  0
   -6.6470   -2.6087  -21.7723 C   0  0  0  0  0  0  0  0  0  0  0  0
   -5.6175   -3.0634  -21.2028 O   0  0  0  0  0  0  0  0  0  0  0  0
   -7.1072   -4.8302  -22.8875 C   0  0  0  0  0  0  0  0  0  0  0  0
   -6.8581   -4.8558  -24.3680 C   0  0  0  0  0  0  0  0  0  0  0  0
  -10.1145   -5.6545  -26.1746 C   0  0  0  0  0  0  0  0  0  0  0  0
   -8.8090   -6.0007  -25.4462 C   0  0  0  0  0  0  0  0  0  0  0  0
   -7.9860   -6.8104  -26.4056 C   0  0  0  0  0  0  0  0  0  0  0  0
   -7.0801   -1.2000  -21.5813 C   0  0  0  0  0  0  0  0  0  0  0  0
   -6.3522   -0.6527  -20.4208 C   0  0  0  0  0  0  0  0  0  0  0  0
   -6.8294   -0.8687  -19.1282 C   0  0  0  0  0  0  0  0  0  0  0  0
   -6.1938   -0.3866  -18.0421 N   0  0  0  0  0  0  0  0  0  0  0  0
   -5.0507    0.3400  -18.1169 C   0  0  0  0  0  0  0  0  0  0  0  0
   -4.5586    0.5668  -19.3890 C   0  0  0  0  0  0  0  0  0  0  0  0
   -3.3825    1.3152  -19.4619 C   0  0  0  0  0  0  0  0  0  0  0  0
   -2.8836    1.5473  -20.7270 C   0  0  0  0  0  0  0  0  0  0  0  0
   -3.5044    1.0709  -21.8642 C   0  0  0  0  0  0  0  0  0  0  0  0
   -4.6691    0.3331  -21.7461 C   0  0  0  0  0  0  0  0  0  0  0  0
   -5.1903    0.0845  -20.5142 C   0  0  0  0  0  0  0  0  0  0  0  0
  9 10  1  0  0  0
 10 11  1  0  0  0
 10  1  1  0  0  0
  1  2  1  0  0  0
  2  3  1  0  0  0
  3  4  1  0  0  0
  4  5  1  0  0  0
  4  7  1  0  0  0
  5  6  2  0  0  0
  5 12  1  0  0  0
 12 13  1  0  0  0
 13 14  2  0  0  0
 14 15  1  0  0  0
 15 16  2  0  0  0
 16 17  1  0  0  0
 17 18  2  0  0  0
 18 19  1  0  0  0
 19 20  2  0  0  0
 20 21  1  0  0  0
 21 22  2  0  0  0
 22 13  1  0  0  0
 22 17  1  0  0  0
  7  8  1  0  0  0
  8  1  1  0  0  0
M  END
> <minimizedAffinity>
-6.86925

> <CNNscore>
0.5693127513

> <CNNaffinity>
5.2481737137

> <CNN_VS>
2.9878523350

> <CNNaffinity_variance>
0.3251336217

$$$$



 22 24  0  0  0  0  0  0  0  0999 V2000
   -8.9202   -5.3639  -25.4913 C   0  0  0  0  0  0  0  0  0  0  0  0
   -8.3337   -4.9948  -24.1857 C   0  0  0  0  0  0  0  0  0  0  0  0
   -8.2249   -3.5544  -23.8399 C   0  0  0  0  0  0  0  0  0  0  0  0
   -8.1661   -2.6671  -24.9786 N   0  0  0  0  0  0  0  0  0  0  0  0
   -8.3679   -1.2642  -24.8757 C   0  0  0  0  0  0  0  0  0  0  0  0
   -8.3106   -0.5128  -25.8872 O   0  0  0  0  0  0  0  0  0  0  0  0
   -7.8820   -3.3139  -26.2731 C   0  0  0  0  0  0  0  0  0  0  0  0
   -9.0485   -4.2408  -26.4594 C   0  0  0  0  0  0  0  0  0  0  0  0
   -8.4541   -6.5297  -27.5882 C   0  0  0  0  0  0  0  0  0  0  0  0
   -8.2309   -6.5774  -26.0707 C   0  0  0  0  0  0  0  0  0  0  0  0
   -6.7452   -6.5680  -25.8568 C   0  0  0  0  0  0  0  0  0  0  0  0
   -8.6500   -0.7209  -23.5215 C   0  0  0  0  0  0  0  0  0  0  0  0
   -9.9628   -0.0493  -23.5643 C   0  0  0  0  0  0  0  0  0  0  0  0
  -10.0512    1.2954  -23.9238 C   0  0  0  0  0  0  0  0  0  0  0  0
  -11.2308    1.9449  -23.9756 N   0  0  0  0  0  0  0  0  0  0  0  0
  -12.4151    1.3503  -23.6855 C   0  0  0  0  0  0  0  0  0  0  0  0
  -12.3520    0.0165  -23.3264 C   0  0  0  0  0  0  0  0  0  0  0  0
  -13.5725   -0.5916  -23.0282 C   0  0  0  0  0  0  0  0  0  0  0  0
  -13.5201   -1.9224  -22.6684 C   0  0  0  0  0  0  0  0  0  0  0  0
  -12.3326   -2.6233  -22.6036 C   0  0  0  0  0  0  0  0  0  0  0  0
  -11.1451   -1.9811  -22.9074 C   0  0  0  0  0  0  0  0  0  0  0  0
  -11.1585   -0.6688  -23.2662 C   0  0  0  0  0  0  0  0  0  0  0  0
  9 10  1  0  0  0
 10 11  1  0  0  0
 10  1  1  0  0  0
  1  2  1  0  0  0
  2  3  1  0  0  0
  3  4  1  0  0  0
  4  5  1  0  0  0
  4  7  1  0  0  0
  5  6  2  0  0  0
  5 12  1  0  0  0
 12 13  1  0  0  0
 13 14  2  0  0  0
 14 15  1  0  0  0
 15 16  2  0  0  0
 16 17  1  0  0  0
 17 18  2  0  0  0
 18 19  1  0  0  0
 19 20  2  0  0  0
 20 21  1  0  0  0
 21 22  2  0  0  0
 22 13  1  0  0  0
 22 17  1  0  0  0
  7  8  1  0  0  0
  8  1  1  0  0  0
M  END
> <minimizedAffinity>
-5.78130

> <CNNscore>
0.5617479682

> <CNNaffinity>
5.1030607224

> <CNN_VS>
2.8666338921

> <CNNaffinity_variance>
0.1791067570

$$$$



 22 24  0  0  0  0  0  0  0  0999 V2000
  -10.7139    0.2512  -23.5954 C   0  0  0  0  0  0  0  0  0  0  0  0
   -9.6658    0.9350  -22.8089 C   0  0  0  0  0  0  0  0  0  0  0  0
   -8.4416    0.1749  -22.4484 C   0  0  0  0  0  0  0  0  0  0  0  0
   -8.6189   -1.2579  -22.3963 N   0  0  0  0  0  0  0  0  0  0  0  0
   -7.5298   -2.1706  -22.3754 C   0  0  0  0  0  0  0  0  0  0  0  0
   -7.7139   -3.4176  -22.3296 O   0  0  0  0  0  0  0  0  0  0  0  0
  -10.0178   -1.7236  -22.3678 C   0  0  0  0  0  0  0  0  0  0  0  0
  -10.5733   -1.2285  -23.6720 C   0  0  0  0  0  0  0  0  0  0  0  0
  -12.2451    2.1558  -23.6271 C   0  0  0  0  0  0  0  0  0  0  0  0
  -12.0917    0.7000  -23.1669 C   0  0  0  0  0  0  0  0  0  0  0  0
  -13.1945   -0.0754  -23.8272 C   0  0  0  0  0  0  0  0  0  0  0  0
   -6.1623   -1.5898  -22.4101 C   0  0  0  0  0  0  0  0  0  0  0  0
   -5.8281   -1.1293  -21.0491 C   0  0  0  0  0  0  0  0  0  0  0  0
   -6.4589   -1.6968  -19.9421 C   0  0  0  0  0  0  0  0  0  0  0  0
   -6.1815   -1.3049  -18.6830 N   0  0  0  0  0  0  0  0  0  0  0  0
   -5.2759   -0.3373  -18.3929 C   0  0  0  0  0  0  0  0  0  0  0  0
   -4.6376    0.2398  -19.4752 C   0  0  0  0  0  0  0  0  0  0  0  0
   -3.7070    1.2353  -19.1727 C   0  0  0  0  0  0  0  0  0  0  0  0
   -3.0648    1.8176  -20.2459 C   0  0  0  0  0  0  0  0  0  0  0  0
   -3.3204    1.4446  -21.5502 C   0  0  0  0  0  0  0  0  0  0  0  0
   -4.2513    0.4529  -21.8050 C   0  0  0  0  0  0  0  0  0  0  0  0
   -4.9042   -0.1437  -20.7712 C   0  0  0  0  0  0  0  0  0  0  0  0
  9 10  1  0  0  0
 10 11  1  0  0  0
 10  1  1  0  0  0
  1  2  1  0  0  0
  2  3  1  0  0  0
  3  4  1  0  0  0
  4  5  1  0  0  0
  4  7  1  0  0  0
  5  6  2  0  0  0
  5 12  1  0  0  0
 12 13  1  0  0  0
 13 14  2  0  0  0
 14 15  1  0  0  0
 15 16  2  0  0  0
 16 17  1  0  0  0
 17 18  2  0  0  0
 18 19  1  0  0  0
 19 20  2  0  0  0
 20 21  1  0  0  0
 21 22  2  0  0  0
 22 13  1  0  0  0
 22 17  1  0  0  0
  7  8  1  0  0  0
  8  1  1  0  0  0
M  END
> <minimizedAffinity>
-6.92323

> <CNNscore>
0.5121849179

> <CNNaffinity>
5.1676559448

> <CNN_VS>
2.6467955112

> <CNNaffinity_variance>
0.3375903666

$$$$



 22 24  0  0  0  0  0  0  0  0999 V2000
   -8.5889   -5.1539  -24.7753 C   0  0  0  0  0  0  0  0  0  0  0  0
   -7.1209   -5.0100  -24.6814 C   0  0  0  0  0  0  0  0  0  0  0  0
   -6.5688   -3.9048  -23.8568 C   0  0  0  0  0  0  0  0  0  0  0  0
   -7.4558   -2.7758  -23.6958 N   0  0  0  0  0  0  0  0  0  0  0  0
   -7.2538   -1.7688  -22.7137 C   0  0  0  0  0  0  0  0  0  0  0  0
   -8.0447   -0.7933  -22.5956 O   0  0  0  0  0  0  0  0  0  0  0  0
   -8.6013   -2.7314  -24.6237 C   0  0  0  0  0  0  0  0  0  0  0  0
   -9.3649   -3.9804  -24.2897 C   0  0  0  0  0  0  0  0  0  0  0  0
   -8.4196   -7.0221  -26.3420 C   0  0  0  0  0  0  0  0  0  0  0  0
   -9.0006   -5.6142  -26.1544 C   0  0  0  0  0  0  0  0  0  0  0  0
  -10.4880   -5.7412  -26.3123 C   0  0  0  0  0  0  0  0  0  0  0  0
   -6.0676   -1.9162  -21.8307 C   0  0  0  0  0  0  0  0  0  0  0  0
   -5.0676   -0.9116  -22.2393 C   0  0  0  0  0  0  0  0  0  0  0  0
   -4.6900   -0.8020  -23.5775 C   0  0  0  0  0  0  0  0  0  0  0  0
   -3.7809    0.1026  -23.9914 N   0  0  0  0  0  0  0  0  0  0  0  0
   -3.1660    0.9706  -23.1496 C   0  0  0  0  0  0  0  0  0  0  0  0
   -3.5249    0.8804  -21.8173 C   0  0  0  0  0  0  0  0  0  0  0  0
   -2.8897    1.7748  -20.9543 C   0  0  0  0  0  0  0  0  0  0  0  0
   -3.2408    1.6924  -19.6227 C   0  0  0  0  0  0  0  0  0  0  0  0
   -4.1673    0.7804  -19.1585 C   0  0  0  0  0  0  0  0  0  0  0  0
   -4.7731   -0.0882  -20.0492 C   0  0  0  0  0  0  0  0  0  0  0  0
   -4.4513   -0.0358  -21.3700 C   0  0  0  0  0  0  0  0  0  0  0  0
  9 10  1  0  0  0
 10 11  1  0  0  0
 10  1  1  0  0  0
  1  2  1  0  0  0
  2  3  1  0  0  0
  3  4  1  0  0  0
  4  5  1  0  0  0
  4  7  1  0  0  0
  5  6  2  0  0  0
  5 12  1  0  0  0
 12 13  1  0  0  0
 13 14  2  0  0  0
 14 15  1  0  0  0
 15 16  2  0  0  0
 16 17  1  0  0  0
 17 18  2  0  0  0
 18 19  1  0  0  0
 19 20  2  0  0  0
 20 21  1  0  0  0
 21 22  2  0  0  0
 22 13  1  0  0  0
 22 17  1  0  0  0
  7  8  1  0  0  0
  8  1  1  0  0  0
M  END
> <minimizedAffinity>
-5.49216

> <CNNscore>
0.4068170488

> <CNNaffinity>
4.9398126602

> <CNN_VS>
2.0095999241

> <CNNaffinity_variance>
0.2542053759

$$$$



 22 24  0  0  0  0  0  0  0  0999 V2000
   -8.2514   -4.9576  -25.5095 C   0  0  0  0  0  0  0  0  0  0  0  0
   -6.7855   -4.8235  -25.6431 C   0  0  0  0  0  0  0  0  0  0  0  0
   -6.1310   -3.6131  -25.0835 C   0  0  0  0  0  0  0  0  0  0  0  0
   -6.9941   -2.4594  -24.9777 N   0  0  0  0  0  0  0  0  0  0  0  0
   -6.6636   -1.3165  -24.2005 C   0  0  0  0  0  0  0  0  0  0  0  0
   -7.4365   -0.3224  -24.1263 O   0  0  0  0  0  0  0  0  0  0  0  0
   -8.2577   -2.5407  -25.7338 C   0  0  0  0  0  0  0  0  0  0  0  0
   -8.9596   -3.7115  -25.1083 C   0  0  0  0  0  0  0  0  0  0  0  0
   -7.7497   -6.5027  -27.3354 C   0  0  0  0  0  0  0  0  0  0  0  0
   -8.8481   -5.6182  -26.7305 C   0  0  0  0  0  0  0  0  0  0  0  0
   -9.9976   -6.5269  -26.4049 C   0  0  0  0  0  0  0  0  0  0  0  0
   -5.3653   -1.3445  -23.4781 C   0  0  0  0  0  0  0  0  0  0  0  0
   -5.6372   -1.1331  -22.0437 C   0  0  0  0  0  0  0  0  0  0  0  0
   -6.6972   -1.7963  -21.4257 C   0  0  0  0  0  0  0  0  0  0  0  0
   -6.9783   -1.6310  -20.1182 N   0  0  0  0  0  0  0  0  0  0  0  0
   -6.2611   -0.8151  -19.3056 C   0  0  0  0  0  0  0  0  0  0  0  0
   -5.2048   -0.1468  -19.8968 C   0  0  0  0  0  0  0  0  0  0  0  0
   -4.4696    0.6921  -19.0576 C   0  0  0  0  0  0  0  0  0  0  0  0
   -3.4136    1.3637  -19.6381 C   0  0  0  0  0  0  0  0  0  0  0  0
   -3.0928    1.2216  -20.9733 C   0  0  0  0  0  0  0  0  0  0  0  0
   -3.8487    0.3792  -21.7694 C   0  0  0  0  0  0  0  0  0  0  0  0
   -4.8978   -0.2993  -21.2310 C   0  0  0  0  0  0  0  0  0  0  0  0
  9 10  1  0  0  0
 10 11  1  0  0  0
 10  1  1  0  0  0
  1  2  1  0  0  0
  2  3  1  0  0  0
  3  4  1  0  0  0
  4  5  1  0  0  0
  4  7  1  0  0  0
  5  6  2  0  0  0
  5 12  1  0  0  0
 12 13  1  0  0  0
 13 14  2  0  0  0
 14 15  1  0  0  0
 15 16  2  0  0  0
 16 17  1  0  0  0
 17 18  2  0  0  0
 18 19  1  0  0  0
 19 20  2  0  0  0
 20 21  1  0  0  0
 21 22  2  0  0  0
 22 13  1  0  0  0
 22 17  1  0  0  0
  7  8  1  0  0  0
  8  1  1  0  0  0
M  END
> <minimizedAffinity>
-5.66592

> <CNNscore>
0.4055810571

> <CNNaffinity>
5.0113067627

> <CNN_VS>
2.0324912071

> <CNNaffinity_variance>
0.1764787734

$$$$



 22 24  0  0  0  0  0  0  0  0999 V2000
   -3.5054    1.5091  -21.3920 C   0  0  0  0  0  0  0  0  0  0  0  0
   -3.5866    0.3236  -22.2711 C   0  0  0  0  0  0  0  0  0  0  0  0
   -4.8279   -0.4917  -22.2480 C   0  0  0  0  0  0  0  0  0  0  0  0
   -5.5802   -0.4040  -21.0177 N   0  0  0  0  0  0  0  0  0  0  0  0
   -6.9250   -0.8485  -20.9014 C   0  0  0  0  0  0  0  0  0  0  0  0
   -7.5581   -0.7598  -19.8141 O   0  0  0  0  0  0  0  0  0  0  0  0
   -4.8595    0.1850  -19.8738 C   0  0  0  0  0  0  0  0  0  0  0  0
   -4.5546    1.5798  -20.3387 C   0  0  0  0  0  0  0  0  0  0  0  0
   -1.1453    1.4114  -22.0192 C   0  0  0  0  0  0  0  0  0  0  0  0
   -2.1048    1.6895  -20.8544 C   0  0  0  0  0  0  0  0  0  0  0  0
   -1.8266    3.0919  -20.3970 C   0  0  0  0  0  0  0  0  0  0  0  0
   -7.5531   -1.4232  -22.1195 C   0  0  0  0  0  0  0  0  0  0  0  0
   -8.5865   -0.4801  -22.5875 C   0  0  0  0  0  0  0  0  0  0  0  0
   -8.2490    0.8409  -22.8814 C   0  0  0  0  0  0  0  0  0  0  0  0
   -9.1628    1.7328  -23.3119 N   0  0  0  0  0  0  0  0  0  0  0  0
  -10.4709    1.4218  -23.4925 C   0  0  0  0  0  0  0  0  0  0  0  0
  -10.8289    0.1171  -23.2073 C   0  0  0  0  0  0  0  0  0  0  0  0
  -12.1756   -0.1988  -23.3938 C   0  0  0  0  0  0  0  0  0  0  0  0
  -12.5429   -1.4983  -23.1116 C   0  0  0  0  0  0  0  0  0  0  0  0
  -11.6376   -2.4418  -22.6689 C   0  0  0  0  0  0  0  0  0  0  0  0
  -10.3116   -2.0855  -22.4975 C   0  0  0  0  0  0  0  0  0  0  0  0
   -9.9131   -0.8126  -22.7660 C   0  0  0  0  0  0  0  0  0  0  0  0
  9 10  1  0  0  0
 10 11  1  0  0  0
 10  1  1  0  0  0
  1  2  1  0  0  0
  2  3  1  0  0  0
  3  4  1  0  0  0
  4  5  1  0  0  0
  4  7  1  0  0  0
  5  6  2  0  0  0
  5 12  1  0  0  0
 12 13  1  0  0  0
 13 14  2  0  0  0
 14 15  1  0  0  0
 15 16  2  0  0  0
 16 17  1  0  0  0
 17 18  2  0  0  0
 18 19  1  0  0  0
 19 20  2  0  0  0
 20 21  1  0  0  0
 21 22  2  0  0  0
 22 13  1  0  0  0
 22 17  1  0  0  0
  7  8  1  0  0  0
  8  1  1  0  0  0
M  END
> <minimizedAffinity>
-5.98063

> <CNNscore>
0.3298867643

> <CNNaffinity>
4.8876018524

> <CNN_VS>
1.6123551130

> <CNNaffinity_variance>
0.1743041575

$$$$



 22 24  0  0  0  0  0  0  0  0999 V2000
   -6.1478   -0.1997  -20.2674 C   0  0  0  0  0  0  0  0  0  0  0  0
   -6.0969    0.2793  -21.6648 C   0  0  0  0  0  0  0  0  0  0  0  0
   -6.7876   -0.5162  -22.7118 C   0  0  0  0  0  0  0  0  0  0  0  0
   -6.9488   -1.9160  -22.3928 N   0  0  0  0  0  0  0  0  0  0  0  0
   -7.8348   -2.7724  -23.1006 C   0  0  0  0  0  0  0  0  0  0  0  0
   -7.9554   -3.9916  -22.8004 O   0  0  0  0  0  0  0  0  0  0  0  0
   -6.1285   -2.4097  -21.2710 C   0  0  0  0  0  0  0  0  0  0  0  0
   -6.6182   -1.6022  -20.1036 C   0  0  0  0  0  0  0  0  0  0  0  0
   -4.3068    1.4010  -20.1204 C   0  0  0  0  0  0  0  0  0  0  0  0
   -4.8479    0.0830  -19.5506 C   0  0  0  0  0  0  0  0  0  0  0  0
   -5.0243    0.2957  -18.0751 C   0  0  0  0  0  0  0  0  0  0  0  0
   -8.6141   -2.1670  -24.2117 C   0  0  0  0  0  0  0  0  0  0  0  0
   -9.9970   -1.9632  -23.7403 C   0  0  0  0  0  0  0  0  0  0  0  0
  -10.7588   -3.0498  -23.3109 C   0  0  0  0  0  0  0  0  0  0  0  0
  -12.0249   -2.9058  -22.8726 N   0  0  0  0  0  0  0  0  0  0  0  0
  -12.6546   -1.7057  -22.8140 C   0  0  0  0  0  0  0  0  0  0  0  0
  -11.9184   -0.6135  -23.2348 C   0  0  0  0  0  0  0  0  0  0  0  0
  -12.5698    0.6195  -23.1734 C   0  0  0  0  0  0  0  0  0  0  0  0
  -11.8437    1.7154  -23.5915 C   0  0  0  0  0  0  0  0  0  0  0  0
  -10.5448    1.6103  -24.0470 C   0  0  0  0  0  0  0  0  0  0  0  0
   -9.9371    0.3679  -24.0914 C   0  0  0  0  0  0  0  0  0  0  0  0
  -10.6228   -0.7353  -23.6870 C   0  0  0  0  0  0  0  0  0  0  0  0
  9 10  1  0  0  0
 10 11  1  0  0  0
 10  1  1  0  0  0
  1  2  1  0  0  0
  2  3  1  0  0  0
  3  4  1  0  0  0
  4  5  1  0  0  0
  4  7  1  0  0  0
  5  6  2  0  0  0
  5 12  1  0  0  0
 12 13  1  0  0  0
 13 14  2  0  0  0
 14 15  1  0  0  0
 15 16  2  0  0  0
 16 17  1  0  0  0
 17 18  2  0  0  0
 18 19  1  0  0  0
 19 20  2  0  0  0
 20 21  1  0  0  0
 21 22  2  0  0  0
 22 13  1  0  0  0
 22 17  1  0  0  0
  7  8  1  0  0  0
  8  1  1  0  0  0
M  END
> <minimizedAffinity>
-6.68481

> <CNNscore>
0.3208923042

> <CNNaffinity>
5.0539588928

> <CNN_VS>
1.6217764616

> <CNNaffinity_variance>
0.2809154391

$$$$



 22 24  0  0  0  0  0  0  0  0999 V2000
   -7.2656   -5.9302  -23.9520 C   0  0  0  0  0  0  0  0  0  0  0  0
   -7.1875   -4.8410  -22.9559 C   0  0  0  0  0  0  0  0  0  0  0  0
   -8.3166   -3.8799  -22.8673 C   0  0  0  0  0  0  0  0  0  0  0  0
   -9.0871   -3.7462  -24.0821 N   0  0  0  0  0  0  0  0  0  0  0  0
  -10.3664   -3.1288  -24.1212 C   0  0  0  0  0  0  0  0  0  0  0  0
  -11.0173   -3.0255  -25.1967 O   0  0  0  0  0  0  0  0  0  0  0  0
   -8.4584   -4.2987  -25.2964 C   0  0  0  0  0  0  0  0  0  0  0  0
   -8.3265   -5.7611  -24.9821 C   0  0  0  0  0  0  0  0  0  0  0  0
   -5.1857   -7.1464  -23.5422 C   0  0  0  0  0  0  0  0  0  0  0  0
   -5.9046   -6.2264  -24.5380 C   0  0  0  0  0  0  0  0  0  0  0  0
   -5.9740   -6.9745  -25.8375 C   0  0  0  0  0  0  0  0  0  0  0  0
  -10.9042   -2.6095  -22.8368 C   0  0  0  0  0  0  0  0  0  0  0  0
  -11.5332   -1.3016  -23.1017 C   0  0  0  0  0  0  0  0  0  0  0  0
  -12.9212   -1.1957  -23.1885 C   0  0  0  0  0  0  0  0  0  0  0  0
  -13.5343   -0.0199  -23.4283 N   0  0  0  0  0  0  0  0  0  0  0  0
  -12.8588    1.1436  -23.6029 C   0  0  0  0  0  0  0  0  0  0  0  0
  -11.4809    1.0628  -23.5210 C   0  0  0  0  0  0  0  0  0  0  0  0
  -10.7895    2.2619  -23.7016 C   0  0  0  0  0  0  0  0  0  0  0  0
   -9.4140    2.1917  -23.6221 C   0  0  0  0  0  0  0  0  0  0  0  0
   -8.7481    1.0073  -23.3780 C   0  0  0  0  0  0  0  0  0  0  0  0
   -9.4732   -0.1585  -23.2051 C   0  0  0  0  0  0  0  0  0  0  0  0
  -10.8314   -0.1272  -23.2769 C   0  0  0  0  0  0  0  0  0  0  0  0
  9 10  1  0  0  0
 10 11  1  0  0  0
 10  1  1  0  0  0
  1  2  1  0  0  0
  2  3  1  0  0  0
  3  4  1  0  0  0
  4  5  1  0  0  0
  4  7  1  0  0  0
  5  6  2  0  0  0
  5 12  1  0  0  0
 12 13  1  0  0  0
 13 14  2  0  0  0
 14 15  1  0  0  0
 15 16  2  0  0  0
 16 17  1  0  0  0
 17 18  2  0  0  0
 18 19  1  0  0  0
 19 20  2  0  0  0
 20 21  1  0  0  0
 21 22  2  0  0  0
 22 13  1  0  0  0
 22 17  1  0  0  0
  7  8  1  0  0  0
  8  1  1  0  0  0
M  END
> <minimizedAffinity>
-6.28159

> <CNNscore>
0.2949808836

> <CNNaffinity>
4.9453048706

> <CNN_VS>
1.4587703943

> <CNNaffinity_variance>
0.3592126667

$$$$



 42 47  0  0  0  0  0  0  0  0999 V2000
   -5.3368    0.6427  -21.1530 N   0  0  0  0  0  0  0  0  0  0  0  0
   -5.6635   -0.3697  -22.1439 C   0  0  0  0  0  0  0  0  0  0  0  0
   -6.7428    0.0869  -23.0948 C   0  0  0  0  0  0  0  0  0  0  0  0
   -8.0704    0.1181  -22.4401 C   0  0  0  0  0  0  0  0  0  0  0  0
   -8.3551    0.3341  -21.2153 O   0  0  0  0  0  0  0  0  0  0  0  0
   -9.0124   -0.1463  -23.4614 N   0  0  0  0  0  0  0  0  0  0  0  0
   -8.3870   -1.0646  -24.3777 C   0  0  0  0  0  0  0  0  0  0  0  0
   -6.9115   -0.9526  -24.1599 C   0  0  0  0  0  0  0  0  0  0  0  0
   -6.4442    1.4199  -23.6687 C   0  0  0  0  0  0  0  0  0  0  0  0
   -6.9296    1.8694  -24.8747 C   0  0  0  0  0  0  0  0  0  0  0  0
   -6.6406    3.1192  -25.3861 C   0  0  0  0  0  0  0  0  0  0  0  0
   -7.2942    3.6343  -26.9370 Cl  0  0  0  0  0  0  0  0  0  0  0  0
   -5.8256    3.9817  -24.6712 C   0  0  0  0  0  0  0  0  0  0  0  0
   -5.3229    3.5579  -23.4562 C   0  0  0  0  0  0  0  0  0  0  0  0
   -5.6223    2.3057  -22.9612 C   0  0  0  0  0  0  0  0  0  0  0  0
   -5.0371    1.9487  -21.6734 C   0  0  0  0  0  0  0  0  0  0  0  0
   -4.2954    2.7194  -21.0105 O   0  0  0  0  0  0  0  0  0  0  0  0
  -10.3454    0.3953  -23.5612 C   0  0  0  0  0  0  0  0  0  0  0  0
  -10.5806    1.6957  -23.9552 C   0  0  0  0  0  0  0  0  0  0  0  0
  -11.8582    2.1374  -24.0266 N   0  0  0  0  0  0  0  0  0  0  0  0
  -12.8894    1.3527  -23.7275 C   0  0  0  0  0  0  0  0  0  0  0  0
  -12.7350    0.0362  -23.3240 C   0  0  0  0  0  0  0  0  0  0  0  0
  -13.7960   -0.7672  -23.0175 C   0  0  0  0  0  0  0  0  0  0  0  0
  -13.6213   -2.0682  -22.6200 C   0  0  0  0  0  0  0  0  0  0  0  0
  -12.3259   -2.5612  -22.5336 C   0  0  0  0  0  0  0  0  0  0  0  0
  -11.2644   -1.7342  -22.8475 C   0  0  0  0  0  0  0  0  0  0  0  0
  -11.4238   -0.4338  -23.2456 C   0  0  0  0  0  0  0  0  0  0  0  0
   -5.3075    0.3794  -19.7287 C   0  0  0  0  0  0  0  0  0  0  0  0
   -5.5319   -3.4877  -19.4088 C   0  0  0  0  0  0  0  0  0  0  0  0
   -5.0484   -2.1597  -19.7715 N   0  0  0  0  0  0  0  0  0  0  0  0
   -5.7614   -0.9913  -19.3823 C   0  0  0  0  0  0  0  0  0  0  0  0
   -6.8327   -1.0925  -18.7111 O   0  0  0  0  0  0  0  0  0  0  0  0
   -4.2179   -2.0708  -20.2925 H   0  0  0  0  0  0  0  0  0  0  0  0
   -6.4153   -2.3168  -23.7051 C   0  0  0  0  0  0  0  0  0  0  0  0
   -5.7883   -3.0427  -24.7776 N   0  0  0  0  0  0  0  0  0  0  0  0
   -4.9585   -2.7175  -25.1958 H   0  0  0  0  0  0  0  0  0  0  0  0
   -6.4061   -4.2410  -25.2111 C   0  0  0  0  0  0  0  0  0  0  0  0
   -6.0182   -5.2663  -25.9797 C   0  0  0  0  0  0  0  0  0  0  0  0
   -6.9219   -6.2177  -26.1445 N   0  0  0  0  0  0  0  0  0  0  0  0
   -7.9812   -6.3019  -25.7340 C   0  0  0  0  0  0  0  0  0  0  0  0
   -9.1616   -7.2223  -25.7606 C   0  0  0  0  0  0  0  0  0  0  0  0
   -8.1110   -4.6937  -24.7361 S   0  0  0  0  0  0  0  0  0  0  0  0
 29 30  1  0  0  0
 30 31  1  0  0  0
 30 33  1  0  0  0
 31 32  2  0  0  0
 31 28  1  0  0  0
 28  1  1  0  0  0
  1  2  1  0  0  0
  3  2  1  0  0  0
  3  4  1  0  0  0
  3  9  1  0  0  0
  4  5  2  0  0  0
  4  6  1  0  0  0
  6 18  1  0  0  0
  6  7  1  0  0  0
 18 19  2  0  0  0
 19 20  1  0  0  0
 20 21  2  0  0  0
 21 22  1  0  0  0
 22 23  2  0  0  0
 23 24  1  0  0  0
 24 25  2  0  0  0
 25 26  1  0  0  0
 26 27  2  0  0  0
 27 18  1  0  0  0
 27 22  1  0  0  0
  7  8  1  0  0  0
  8 34  1  0  0  0
  8  3  1  0  0  0
 34 35  1  0  0  0
 35 37  1  0  0  0
 35 36  1  0  0  0
 37 38  2  0  0  0
 38 39  1  0  0  0
 39 40  2  0  0  0
 40 41  1  0  0  0
 40 42  1  0  0  0
 42 37  1  0  0  0
  9 10  2  0  0  0
 10 11  1  0  0  0
 11 12  1  0  0  0
 11 13  2  0  0  0
 13 14  1  0  0  0
 14 15  2  0  0  0
 15 16  1  0  0  0
 15  9  1  0  0  0
 16 17  2  0  0  0
 16  1  1  0  0  0
M  END
> <minimizedAffinity>
-8.07226

> <CNNscore>
0.3872144520

> <CNNaffinity>
6.8676366806

> <CNN_VS>
2.6592481136

> <CNNaffinity_variance>
0.0295908712

$$$$



 42 47  0  0  0  0  0  0  0  0999 V2000
  -11.6633    1.2904  -23.5213 N   0  0  0  0  0  0  0  0  0  0  0  0
  -10.4819    1.4297  -24.3570 C   0  0  0  0  0  0  0  0  0  0  0  0
   -9.4196    0.4118  -24.0211 C   0  0  0  0  0  0  0  0  0  0  0  0
   -8.7546    0.7202  -22.7347 C   0  0  0  0  0  0  0  0  0  0  0  0
   -9.2308    1.3079  -21.7072 O   0  0  0  0  0  0  0  0  0  0  0  0
   -7.4352    0.2243  -22.8518 N   0  0  0  0  0  0  0  0  0  0  0  0
   -7.0463    0.3953  -24.2279 C   0  0  0  0  0  0  0  0  0  0  0  0
   -8.3085    0.5349  -25.0181 C   0  0  0  0  0  0  0  0  0  0  0  0
   -9.9686   -0.9636  -23.9755 C   0  0  0  0  0  0  0  0  0  0  0  0
   -9.2250   -2.1010  -24.1892 C   0  0  0  0  0  0  0  0  0  0  0  0
   -9.7594   -3.3733  -24.1360 C   0  0  0  0  0  0  0  0  0  0  0  0
   -8.7526   -4.7889  -24.4192 Cl  0  0  0  0  0  0  0  0  0  0  0  0
  -11.1058   -3.5411  -23.8562 C   0  0  0  0  0  0  0  0  0  0  0  0
  -11.8783   -2.4169  -23.6372 C   0  0  0  0  0  0  0  0  0  0  0  0
  -11.3271   -1.1537  -23.6944 C   0  0  0  0  0  0  0  0  0  0  0  0
  -12.2268   -0.0304  -23.4559 C   0  0  0  0  0  0  0  0  0  0  0  0
  -13.4517   -0.1644  -23.2001 O   0  0  0  0  0  0  0  0  0  0  0  0
   -6.6325   -0.3382  -21.7939 C   0  0  0  0  0  0  0  0  0  0  0  0
   -6.8528   -1.6076  -21.3023 C   0  0  0  0  0  0  0  0  0  0  0  0
   -6.0601   -2.0714  -20.3079 N   0  0  0  0  0  0  0  0  0  0  0  0
   -5.0774   -1.3374  -19.7940 C   0  0  0  0  0  0  0  0  0  0  0  0
   -4.7937   -0.0545  -20.2338 C   0  0  0  0  0  0  0  0  0  0  0  0
   -3.7837    0.6968  -19.7040 C   0  0  0  0  0  0  0  0  0  0  0  0
   -3.5194    1.9652  -20.1539 C   0  0  0  0  0  0  0  0  0  0  0  0
   -4.3096    2.4794  -21.1736 C   0  0  0  0  0  0  0  0  0  0  0  0
   -5.3269    1.7052  -21.6977 C   0  0  0  0  0  0  0  0  0  0  0  0
   -5.6023    0.4377  -21.2585 C   0  0  0  0  0  0  0  0  0  0  0  0
  -12.2547    2.3937  -22.7920 C   0  0  0  0  0  0  0  0  0  0  0  0
  -13.2715    4.9768  -25.5125 C   0  0  0  0  0  0  0  0  0  0  0  0
  -13.1988    3.7372  -24.7464 N   0  0  0  0  0  0  0  0  0  0  0  0
  -12.3603    3.6341  -23.6013 C   0  0  0  0  0  0  0  0  0  0  0  0
  -11.6619    4.6261  -23.2316 O   0  0  0  0  0  0  0  0  0  0  0  0
  -13.7371    2.9616  -25.0256 H   0  0  0  0  0  0  0  0  0  0  0  0
   -8.2838    1.9073  -25.6736 C   0  0  0  0  0  0  0  0  0  0  0  0
   -6.9448    2.4220  -25.7866 N   0  0  0  0  0  0  0  0  0  0  0  0
   -6.3073    2.0446  -26.4349 H   0  0  0  0  0  0  0  0  0  0  0  0
   -6.5757    3.4900  -24.9330 C   0  0  0  0  0  0  0  0  0  0  0  0
   -5.4846    4.2569  -24.8155 C   0  0  0  0  0  0  0  0  0  0  0  0
   -5.5410    5.1710  -23.8614 N   0  0  0  0  0  0  0  0  0  0  0  0
   -6.3744    5.4088  -23.1222 C   0  0  0  0  0  0  0  0  0  0  0  0
   -6.6880    6.3422  -21.9945 C   0  0  0  0  0  0  0  0  0  0  0  0
   -7.6811    4.1292  -23.6265 S   0  0  0  0  0  0  0  0  0  0  0  0
 29 30  1  0  0  0
 30 31  1  0  0  0
 30 33  1  0  0  0
 31 32  2  0  0  0
 31 28  1  0  0  0
 28  1  1  0  0  0
  1  2  1  0  0  0
  3  2  1  0  0  0
  3  4  1  0  0  0
  3  9  1  0  0  0
  4  5  2  0  0  0
  4  6  1  0  0  0
  6 18  1  0  0  0
  6  7  1  0  0  0
 18 19  2  0  0  0
 19 20  1  0  0  0
 20 21  2  0  0  0
 21 22  1  0  0  0
 22 23  2  0  0  0
 23 24  1  0  0  0
 24 25  2  0  0  0
 25 26  1  0  0  0
 26 27  2  0  0  0
 27 18  1  0  0  0
 27 22  1  0  0  0
  7  8  1  0  0  0
  8 34  1  0  0  0
  8  3  1  0  0  0
 34 35  1  0  0  0
 35 37  1  0  0  0
 35 36  1  0  0  0
 37 38  2  0  0  0
 38 39  1  0  0  0
 39 40  2  0  0  0
 40 41  1  0  0  0
 40 42  1  0  0  0
 42 37  1  0  0  0
  9 10  2  0  0  0
 10 11  1  0  0  0
 11 12  1  0  0  0
 11 13  2  0  0  0
 13 14  1  0  0  0
 14 15  2  0  0  0
 15 16  1  0  0  0
 15  9  1  0  0  0
 16 17  2  0  0  0
 16  1  1  0  0  0
M  END
> <minimizedAffinity>
-7.79682

> <CNNscore>
0.2999929786

> <CNNaffinity>
6.6433057785

> <CNN_VS>
1.9929450750

> <CNNaffinity_variance>
0.1639764160

$$$$



 42 47  0  0  0  0  0  0  0  0999 V2000
   -5.2949    2.9540  -23.1505 N   0  0  0  0  0  0  0  0  0  0  0  0
   -5.5278    1.5837  -23.5766 C   0  0  0  0  0  0  0  0  0  0  0  0
   -6.8515    1.4206  -24.2826 C   0  0  0  0  0  0  0  0  0  0  0  0
   -7.9884    1.4997  -23.3373 C   0  0  0  0  0  0  0  0  0  0  0  0
   -8.0782    2.1527  -22.2449 O   0  0  0  0  0  0  0  0  0  0  0  0
   -9.0058    0.6846  -23.8858 N   0  0  0  0  0  0  0  0  0  0  0  0
   -8.3491   -0.4131  -24.5475 C   0  0  0  0  0  0  0  0  0  0  0  0
   -6.9421    0.0214  -24.8095 C   0  0  0  0  0  0  0  0  0  0  0  0
   -7.0315    2.4259  -25.3561 C   0  0  0  0  0  0  0  0  0  0  0  0
   -7.8413    2.2490  -26.4539 C   0  0  0  0  0  0  0  0  0  0  0  0
   -7.9963    3.2042  -27.4391 C   0  0  0  0  0  0  0  0  0  0  0  0
   -9.0489    2.9156  -28.8199 Cl  0  0  0  0  0  0  0  0  0  0  0  0
   -7.3157    4.4070  -27.3423 C   0  0  0  0  0  0  0  0  0  0  0  0
   -6.4946    4.6134  -26.2507 C   0  0  0  0  0  0  0  0  0  0  0  0
   -6.3519    3.6476  -25.2762 C   0  0  0  0  0  0  0  0  0  0  0  0
   -5.4564    3.9575  -24.1670 C   0  0  0  0  0  0  0  0  0  0  0  0
   -4.8309    5.0444  -24.0629 O   0  0  0  0  0  0  0  0  0  0  0  0
  -10.4277    0.9078  -23.7936 C   0  0  0  0  0  0  0  0  0  0  0  0
  -10.9984    2.1290  -24.0841 C   0  0  0  0  0  0  0  0  0  0  0  0
  -12.3407    2.2669  -23.9759 N   0  0  0  0  0  0  0  0  0  0  0  0
  -13.1212    1.2587  -23.5980 C   0  0  0  0  0  0  0  0  0  0  0  0
  -12.6237    0.0029  -23.2893 C   0  0  0  0  0  0  0  0  0  0  0  0
  -13.4279   -1.0305  -22.9014 C   0  0  0  0  0  0  0  0  0  0  0  0
  -12.9151   -2.2664  -22.6002 C   0  0  0  0  0  0  0  0  0  0  0  0
  -11.5420   -2.4505  -22.6984 C   0  0  0  0  0  0  0  0  0  0  0  0
  -10.7437   -1.3939  -23.0924 C   0  0  0  0  0  0  0  0  0  0  0  0
  -11.2417   -0.1549  -23.3960 C   0  0  0  0  0  0  0  0  0  0  0  0
   -4.9232    3.3124  -21.7969 C   0  0  0  0  0  0  0  0  0  0  0  0
   -1.8567    2.0110  -19.7944 C   0  0  0  0  0  0  0  0  0  0  0  0
   -3.2110    2.4524  -20.1102 N   0  0  0  0  0  0  0  0  0  0  0  0
   -3.5587    2.8562  -21.4297 C   0  0  0  0  0  0  0  0  0  0  0  0
   -2.6885    2.8368  -22.3522 O   0  0  0  0  0  0  0  0  0  0  0  0
   -3.8935    2.4711  -19.4010 H   0  0  0  0  0  0  0  0  0  0  0  0
   -6.0257   -0.9296  -24.0547 C   0  0  0  0  0  0  0  0  0  0  0  0
   -6.7506   -1.7264  -23.1007 N   0  0  0  0  0  0  0  0  0  0  0  0
   -7.2563   -2.5228  -23.3821 H   0  0  0  0  0  0  0  0  0  0  0  0
   -6.7117   -1.3253  -21.7430 C   0  0  0  0  0  0  0  0  0  0  0  0
   -7.6388   -1.1607  -20.7913 C   0  0  0  0  0  0  0  0  0  0  0  0
   -7.1750   -0.7618  -19.6188 N   0  0  0  0  0  0  0  0  0  0  0  0
   -6.1077   -0.5358  -19.2909 C   0  0  0  0  0  0  0  0  0  0  0  0
   -5.3382   -0.0903  -18.0865 C   0  0  0  0  0  0  0  0  0  0  0  0
   -5.1550   -0.8874  -20.8933 S   0  0  0  0  0  0  0  0  0  0  0  0
 29 30  1  0  0  0
 30 31  1  0  0  0
 30 33  1  0  0  0
 31 32  2  0  0  0
 31 28  1  0  0  0
 28  1  1  0  0  0
  1  2  1  0  0  0
  3  2  1  0  0  0
  3  4  1  0  0  0
  3  9  1  0  0  0
  4  5  2  0  0  0
  4  6  1  0  0  0
  6 18  1  0  0  0
  6  7  1  0  0  0
 18 19  2  0  0  0
 19 20  1  0  0  0
 20 21  2  0  0  0
 21 22  1  0  0  0
 22 23  2  0  0  0
 23 24  1  0  0  0
 24 25  2  0  0  0
 25 26  1  0  0  0
 26 27  2  0  0  0
 27 18  1  0  0  0
 27 22  1  0  0  0
  7  8  1  0  0  0
  8 34  1  0  0  0
  8  3  1  0  0  0
 34 35  1  0  0  0
 35 37  1  0  0  0
 35 36  1  0  0  0
 37 38  2  0  0  0
 38 39  1  0  0  0
 39 40  2  0  0  0
 40 41  1  0  0  0
 40 42  1  0  0  0
 42 37  1  0  0  0
  9 10  2  0  0  0
 10 11  1  0  0  0
 11 12  1  0  0  0
 11 13  2  0  0  0
 13 14  1  0  0  0
 14 15  2  0  0  0
 15 16  1  0  0  0
 15  9  1  0  0  0
 16 17  2  0  0  0
 16  1  1  0  0  0
M  END
> <minimizedAffinity>
-7.41400

> <CNNscore>
0.2721120715

> <CNNaffinity>
6.4734940529

> <CNN_VS>
1.7615158558

> <CNNaffinity_variance>
0.0986537933

$$$$



 42 47  0  0  0  0  0  0  0  0999 V2000
   -5.7479   -1.5292  -20.4616 N   0  0  0  0  0  0  0  0  0  0  0  0
   -6.6760   -1.0827  -21.4877 C   0  0  0  0  0  0  0  0  0  0  0  0
   -6.3635   -1.6759  -22.8397 C   0  0  0  0  0  0  0  0  0  0  0  0
   -5.1497   -1.0715  -23.4343 C   0  0  0  0  0  0  0  0  0  0  0  0
   -4.1242   -0.5904  -22.8472 O   0  0  0  0  0  0  0  0  0  0  0  0
   -5.3368   -1.1246  -24.8352 N   0  0  0  0  0  0  0  0  0  0  0  0
   -6.7455   -0.9448  -25.0746 C   0  0  0  0  0  0  0  0  0  0  0  0
   -7.4460   -1.2798  -23.7963 C   0  0  0  0  0  0  0  0  0  0  0  0
   -6.1998   -3.1469  -22.7719 C   0  0  0  0  0  0  0  0  0  0  0  0
   -6.4040   -3.9979  -23.8332 C   0  0  0  0  0  0  0  0  0  0  0  0
   -6.2397   -5.3663  -23.7459 C   0  0  0  0  0  0  0  0  0  0  0  0
   -6.5172   -6.4007  -25.1427 Cl  0  0  0  0  0  0  0  0  0  0  0  0
   -5.8512   -5.9357  -22.5442 C   0  0  0  0  0  0  0  0  0  0  0  0
   -5.6387   -5.1061  -21.4602 C   0  0  0  0  0  0  0  0  0  0  0  0
   -5.8079   -3.7412  -21.5661 C   0  0  0  0  0  0  0  0  0  0  0  0
   -5.5665   -2.9517  -20.3633 C   0  0  0  0  0  0  0  0  0  0  0  0
   -5.2129   -3.4521  -19.2641 O   0  0  0  0  0  0  0  0  0  0  0  0
   -4.3118   -1.3156  -25.8317 C   0  0  0  0  0  0  0  0  0  0  0  0
   -3.9239   -2.5699  -26.2532 C   0  0  0  0  0  0  0  0  0  0  0  0
   -2.9547   -2.6745  -27.1925 N   0  0  0  0  0  0  0  0  0  0  0  0
   -2.3685   -1.6026  -27.7177 C   0  0  0  0  0  0  0  0  0  0  0  0
   -2.7025   -0.3102  -27.3465 C   0  0  0  0  0  0  0  0  0  0  0  0
   -2.0986    0.7886  -27.8879 C   0  0  0  0  0  0  0  0  0  0  0  0
   -2.4442    2.0599  -27.5064 C   0  0  0  0  0  0  0  0  0  0  0  0
   -3.4347    2.2116  -26.5448 C   0  0  0  0  0  0  0  0  0  0  0  0
   -4.0349    1.0888  -26.0080 C   0  0  0  0  0  0  0  0  0  0  0  0
   -3.7000   -0.1860  -26.3792 C   0  0  0  0  0  0  0  0  0  0  0  0
   -5.0398   -0.6215  -19.5821 C   0  0  0  0  0  0  0  0  0  0  0  0
   -4.7751    2.6707  -21.6312 C   0  0  0  0  0  0  0  0  0  0  0  0
   -5.3432    1.5117  -20.9508 N   0  0  0  0  0  0  0  0  0  0  0  0
   -4.5063    0.5716  -20.2869 C   0  0  0  0  0  0  0  0  0  0  0  0
   -3.2483    0.7322  -20.2795 O   0  0  0  0  0  0  0  0  0  0  0  0
   -6.3186    1.3783  -20.9511 H   0  0  0  0  0  0  0  0  0  0  0  0
   -8.1776   -0.0273  -23.3382 C   0  0  0  0  0  0  0  0  0  0  0  0
   -9.5230    0.0220  -23.8461 N   0  0  0  0  0  0  0  0  0  0  0  0
   -9.7891    0.6894  -24.5191 H   0  0  0  0  0  0  0  0  0  0  0  0
  -10.4513   -0.9226  -23.3444 C   0  0  0  0  0  0  0  0  0  0  0  0
  -10.3517   -2.1764  -22.8856 C   0  0  0  0  0  0  0  0  0  0  0  0
  -11.4916   -2.7255  -22.5006 N   0  0  0  0  0  0  0  0  0  0  0  0
  -12.5475   -2.2979  -22.4982 C   0  0  0  0  0  0  0  0  0  0  0  0
  -13.9487   -2.6802  -22.1357 C   0  0  0  0  0  0  0  0  0  0  0  0
  -12.2369   -0.5639  -23.2025 S   0  0  0  0  0  0  0  0  0  0  0  0
 29 30  1  0  0  0
 30 31  1  0  0  0
 30 33  1  0  0  0
 31 32  2  0  0  0
 31 28  1  0  0  0
 28  1  1  0  0  0
  1  2  1  0  0  0
  3  2  1  0  0  0
  3  4  1  0  0  0
  3  9  1  0  0  0
  4  5  2  0  0  0
  4  6  1  0  0  0
  6 18  1  0  0  0
  6  7  1  0  0  0
 18 19  2  0  0  0
 19 20  1  0  0  0
 20 21  2  0  0  0
 21 22  1  0  0  0
 22 23  2  0  0  0
 23 24  1  0  0  0
 24 25  2  0  0  0
 25 26  1  0  0  0
 26 27  2  0  0  0
 27 18  1  0  0  0
 27 22  1  0  0  0
  7  8  1  0  0  0
  8 34  1  0  0  0
  8  3  1  0  0  0
 34 35  1  0  0  0
 35 37  1  0  0  0
 35 36  1  0  0  0
 37 38  2  0  0  0
 38 39  1  0  0  0
 39 40  2  0  0  0
 40 41  1  0  0  0
 40 42  1  0  0  0
 42 37  1  0  0  0
  9 10  2  0  0  0
 10 11  1  0  0  0
 11 12  1  0  0  0
 11 13  2  0  0  0
 13 14  1  0  0  0
 14 15  2  0  0  0
 15 16  1  0  0  0
 15  9  1  0  0  0
 16 17  2  0  0  0
 16  1  1  0  0  0
M  END
> <minimizedAffinity>
-7.06487

> <CNNscore>
0.2291416079

> <CNNaffinity>
6.2939677238

> <CNN_VS>
1.4422098398

> <CNNaffinity_variance>
0.5495771170

$$$$



 42 47  0  0  0  0  0  0  0  0999 V2000
   -8.6162   -2.1507  -24.3716 N   0  0  0  0  0  0  0  0  0  0  0  0
   -7.9697   -0.9917  -23.7781 C   0  0  0  0  0  0  0  0  0  0  0  0
   -8.6988    0.2925  -24.0890 C   0  0  0  0  0  0  0  0  0  0  0  0
   -8.5123    0.6986  -25.5006 C   0  0  0  0  0  0  0  0  0  0  0  0
   -8.3259   -0.0351  -26.5276 O   0  0  0  0  0  0  0  0  0  0  0  0
   -8.5810    2.1113  -25.5097 N   0  0  0  0  0  0  0  0  0  0  0  0
   -8.0055    2.5645  -24.2698 C   0  0  0  0  0  0  0  0  0  0  0  0
   -8.0510    1.4060  -23.3248 C   0  0  0  0  0  0  0  0  0  0  0  0
  -10.1467    0.1903  -23.7921 C   0  0  0  0  0  0  0  0  0  0  0  0
  -10.9537    1.2645  -23.4967 C   0  0  0  0  0  0  0  0  0  0  0  0
  -12.3029    1.1436  -23.2283 C   0  0  0  0  0  0  0  0  0  0  0  0
  -13.2807    2.5592  -22.8570 Cl  0  0  0  0  0  0  0  0  0  0  0  0
  -12.8980   -0.1072  -23.2509 C   0  0  0  0  0  0  0  0  0  0  0  0
  -12.1127   -1.2052  -23.5444 C   0  0  0  0  0  0  0  0  0  0  0  0
  -10.7663   -1.0653  -23.8098 C   0  0  0  0  0  0  0  0  0  0  0  0
  -10.0216   -2.2854  -24.1015 C   0  0  0  0  0  0  0  0  0  0  0  0
  -10.5458   -3.4292  -24.1266 O   0  0  0  0  0  0  0  0  0  0  0  0
   -9.1185    2.9380  -26.5623 C   0  0  0  0  0  0  0  0  0  0  0  0
   -8.7368    2.7886  -27.8789 C   0  0  0  0  0  0  0  0  0  0  0  0
   -9.2826    3.6000  -28.8150 N   0  0  0  0  0  0  0  0  0  0  0  0
  -10.1745    4.5345  -28.4993 C   0  0  0  0  0  0  0  0  0  0  0  0
  -10.6082    4.7460  -27.2004 C   0  0  0  0  0  0  0  0  0  0  0  0
  -11.5244    5.7066  -26.8794 C   0  0  0  0  0  0  0  0  0  0  0  0
  -11.9405    5.8997  -25.5869 C   0  0  0  0  0  0  0  0  0  0  0  0
  -11.4049    5.0880  -24.5953 C   0  0  0  0  0  0  0  0  0  0  0  0
  -10.4792    4.1214  -24.9383 C   0  0  0  0  0  0  0  0  0  0  0  0
  -10.0546    3.9174  -26.2241 C   0  0  0  0  0  0  0  0  0  0  0  0
   -7.9137   -3.1219  -25.1854 C   0  0  0  0  0  0  0  0  0  0  0  0
  -10.0286   -5.6536  -27.2408 C   0  0  0  0  0  0  0  0  0  0  0  0
   -9.1834   -5.0949  -26.1909 N   0  0  0  0  0  0  0  0  0  0  0  0
   -8.7728   -3.7330  -26.2309 C   0  0  0  0  0  0  0  0  0  0  0  0
   -9.1397   -2.9846  -27.1869 O   0  0  0  0  0  0  0  0  0  0  0  0
   -8.8933   -5.6678  -25.4447 H   0  0  0  0  0  0  0  0  0  0  0  0
   -6.6160    1.0739  -22.9450 C   0  0  0  0  0  0  0  0  0  0  0  0
   -6.3802    1.2538  -21.5370 N   0  0  0  0  0  0  0  0  0  0  0  0
   -6.3530    2.1525  -21.1360 H   0  0  0  0  0  0  0  0  0  0  0  0
   -6.1884    0.0935  -20.7480 C   0  0  0  0  0  0  0  0  0  0  0  0
   -6.3985   -0.2048  -19.4598 C   0  0  0  0  0  0  0  0  0  0  0  0
   -6.0775   -1.4391  -19.1098 N   0  0  0  0  0  0  0  0  0  0  0  0
   -5.6493   -2.2903  -19.7340 C   0  0  0  0  0  0  0  0  0  0  0  0
   -5.2139   -3.7164  -19.6003 C   0  0  0  0  0  0  0  0  0  0  0  0
   -5.5152   -1.4599  -21.4344 S   0  0  0  0  0  0  0  0  0  0  0  0
 29 30  1  0  0  0
 30 31  1  0  0  0
 30 33  1  0  0  0
 31 32  2  0  0  0
 31 28  1  0  0  0
 28  1  1  0  0  0
  1  2  1  0  0  0
  3  2  1  0  0  0
  3  4  1  0  0  0
  3  9  1  0  0  0
  4  5  2  0  0  0
  4  6  1  0  0  0
  6 18  1  0  0  0
  6  7  1  0  0  0
 18 19  2  0  0  0
 19 20  1  0  0  0
 20 21  2  0  0  0
 21 22  1  0  0  0
 22 23  2  0  0  0
 23 24  1  0  0  0
 24 25  2  0  0  0
 25 26  1  0  0  0
 26 27  2  0  0  0
 27 18  1  0  0  0
 27 22  1  0  0  0
  7  8  1  0  0  0
  8 34  1  0  0  0
  8  3  1  0  0  0
 34 35  1  0  0  0
 35 37  1  0  0  0
 35 36  1  0  0  0
 37 38  2  0  0  0
 38 39  1  0  0  0
 39 40  2  0  0  0
 40 41  1  0  0  0
 40 42  1  0  0  0
 42 37  1  0  0  0
  9 10  2  0  0  0
 10 11  1  0  0  0
 11 12  1  0  0  0
 11 13  2  0  0  0
 13 14  1  0  0  0
 14 15  2  0  0  0
 15 16  1  0  0  0
 15  9  1  0  0  0
 16 17  2  0  0  0
 16  1  1  0  0  0
M  END
> <minimizedAffinity>
-7.50222

> <CNNscore>
0.2018709630

> <CNNaffinity>
6.3948087692

> <CNN_VS>
1.2909262180

> <CNNaffinity_variance>
0.2350189686

$$$$



 42 47  0  0  0  0  0  0  0  0999 V2000
   -6.7420   -3.6357  -24.3789 N   0  0  0  0  0  0  0  0  0  0  0  0
   -6.6899   -3.0834  -23.0351 C   0  0  0  0  0  0  0  0  0  0  0  0
   -7.7562   -2.0412  -22.8027 C   0  0  0  0  0  0  0  0  0  0  0  0
   -7.4524   -0.7799  -23.5163 C   0  0  0  0  0  0  0  0  0  0  0  0
   -6.8131   -0.6106  -24.6074 O   0  0  0  0  0  0  0  0  0  0  0  0
   -8.0236    0.2533  -22.7374 N   0  0  0  0  0  0  0  0  0  0  0  0
   -7.9097   -0.1515  -21.3600 C   0  0  0  0  0  0  0  0  0  0  0  0
   -7.7205   -1.6352  -21.3613 C   0  0  0  0  0  0  0  0  0  0  0  0
   -9.0974   -2.5251  -23.2053 C   0  0  0  0  0  0  0  0  0  0  0  0
  -10.2794   -2.0505  -22.6859 C   0  0  0  0  0  0  0  0  0  0  0  0
  -11.5183   -2.5148  -23.0818 C   0  0  0  0  0  0  0  0  0  0  0  0
  -12.9944   -1.8647  -22.3772 Cl  0  0  0  0  0  0  0  0  0  0  0  0
  -11.6039   -3.5055  -24.0464 C   0  0  0  0  0  0  0  0  0  0  0  0
  -10.4334   -4.0021  -24.5865 C   0  0  0  0  0  0  0  0  0  0  0  0
   -9.2046   -3.5261  -24.1786 C   0  0  0  0  0  0  0  0  0  0  0  0
   -8.0274   -4.1195  -24.8032 C   0  0  0  0  0  0  0  0  0  0  0  0
   -8.0866   -5.0195  -25.6808 O   0  0  0  0  0  0  0  0  0  0  0  0
   -8.6026    1.4792  -23.2293 C   0  0  0  0  0  0  0  0  0  0  0  0
   -9.8305    1.5102  -23.8561 C   0  0  0  0  0  0  0  0  0  0  0  0
  -10.3130    2.6972  -24.2929 N   0  0  0  0  0  0  0  0  0  0  0  0
   -9.6360    3.8307  -24.1340 C   0  0  0  0  0  0  0  0  0  0  0  0
   -8.3974    3.8816  -23.5152 C   0  0  0  0  0  0  0  0  0  0  0  0
   -7.7046    5.0474  -23.3536 C   0  0  0  0  0  0  0  0  0  0  0  0
   -6.4793    5.0760  -22.7380 C   0  0  0  0  0  0  0  0  0  0  0  0
   -5.9479    3.8794  -22.2748 C   0  0  0  0  0  0  0  0  0  0  0  0
   -6.6627    2.7096  -22.4469 C   0  0  0  0  0  0  0  0  0  0  0  0
   -7.8866    2.6660  -23.0595 C   0  0  0  0  0  0  0  0  0  0  0  0
   -5.5893   -3.7064  -25.2536 C   0  0  0  0  0  0  0  0  0  0  0  0
   -4.1007   -7.1151  -24.1257 C   0  0  0  0  0  0  0  0  0  0  0  0
   -4.7374   -5.8034  -24.0733 N   0  0  0  0  0  0  0  0  0  0  0  0
   -4.9460   -5.0447  -25.2590 C   0  0  0  0  0  0  0  0  0  0  0  0
   -4.5779   -5.5040  -26.3824 O   0  0  0  0  0  0  0  0  0  0  0  0
   -5.0265   -5.4382  -23.2060 H   0  0  0  0  0  0  0  0  0  0  0  0
   -6.3688   -1.9206  -20.7247 C   0  0  0  0  0  0  0  0  0  0  0  0
   -6.0408   -0.9544  -19.7102 N   0  0  0  0  0  0  0  0  0  0  0  0
   -6.5618   -0.8939  -18.8771 H   0  0  0  0  0  0  0  0  0  0  0  0
   -4.9426   -0.0933  -19.9514 C   0  0  0  0  0  0  0  0  0  0  0  0
   -4.2391    0.7572  -19.1937 C   0  0  0  0  0  0  0  0  0  0  0  0
   -3.2608    1.3896  -19.8199 N   0  0  0  0  0  0  0  0  0  0  0  0
   -2.9221    1.3239  -20.9056 C   0  0  0  0  0  0  0  0  0  0  0  0
   -1.8969    1.8977  -21.8334 C   0  0  0  0  0  0  0  0  0  0  0  0
   -4.1489    0.0493  -21.5906 S   0  0  0  0  0  0  0  0  0  0  0  0
 29 30  1  0  0  0
 30 31  1  0  0  0
 30 33  1  0  0  0
 31 32  2  0  0  0
 31 28  1  0  0  0
 28  1  1  0  0  0
  1  2  1  0  0  0
  3  2  1  0  0  0
  3  4  1  0  0  0
  3  9  1  0  0  0
  4  5  2  0  0  0
  4  6  1  0  0  0
  6 18  1  0  0  0
  6  7  1  0  0  0
 18 19  2  0  0  0
 19 20  1  0  0  0
 20 21  2  0  0  0
 21 22  1  0  0  0
 22 23  2  0  0  0
 23 24  1  0  0  0
 24 25  2  0  0  0
 25 26  1  0  0  0
 26 27  2  0  0  0
 27 18  1  0  0  0
 27 22  1  0  0  0
  7  8  1  0  0  0
  8 34  1  0  0  0
  8  3  1  0  0  0
 34 35  1  0  0  0
 35 37  1  0  0  0
 35 36  1  0  0  0
 37 38  2  0  0  0
 38 39  1  0  0  0
 39 40  2  0  0  0
 40 41  1  0  0  0
 40 42  1  0  0  0
 42 37  1  0  0  0
  9 10  2  0  0  0
 10 11  1  0  0  0
 11 12  1  0  0  0
 11 13  2  0  0  0
 13 14  1  0  0  0
 14 15  2  0  0  0
 15 16  1  0  0  0
 15  9  1  0  0  0
 16 17  2  0  0  0
 16  1  1  0  0  0
M  END
> <minimizedAffinity>
-7.72587

> <CNNscore>
0.1783668548

> <CNNaffinity>
6.5218391418

> <CNN_VS>
1.1632798910

> <CNNaffinity_variance>
0.2903366387

$$$$



 42 47  0  0  0  0  0  0  0  0999 V2000
   -5.2847    1.9331  -22.2125 N   0  0  0  0  0  0  0  0  0  0  0  0
   -5.5899    0.8232  -23.1005 C   0  0  0  0  0  0  0  0  0  0  0  0
   -6.8691    1.0413  -23.8709 C   0  0  0  0  0  0  0  0  0  0  0  0
   -8.0606    0.8973  -23.0037 C   0  0  0  0  0  0  0  0  0  0  0  0
   -8.1776    1.1381  -21.7563 O   0  0  0  0  0  0  0  0  0  0  0  0
   -9.0956    0.4229  -23.8429 N   0  0  0  0  0  0  0  0  0  0  0  0
   -8.4788   -0.4360  -24.8206 C   0  0  0  0  0  0  0  0  0  0  0  0
   -7.0280   -0.0742  -24.8577 C   0  0  0  0  0  0  0  0  0  0  0  0
   -6.8964    2.3678  -24.5304 C   0  0  0  0  0  0  0  0  0  0  0  0
   -7.6377    2.6593  -25.6518 C   0  0  0  0  0  0  0  0  0  0  0  0
   -7.6502    3.9062  -26.2453 C   0  0  0  0  0  0  0  0  0  0  0  0
   -8.6216    4.2143  -27.6803 Cl  0  0  0  0  0  0  0  0  0  0  0  0
   -6.8890    4.9306  -25.7063 C   0  0  0  0  0  0  0  0  0  0  0  0
   -6.1337    4.6678  -24.5799 C   0  0  0  0  0  0  0  0  0  0  0  0
   -6.1336    3.4159  -24.0007 C   0  0  0  0  0  0  0  0  0  0  0  0
   -5.2977    3.2365  -22.8186 C   0  0  0  0  0  0  0  0  0  0  0  0
   -4.6006    4.1555  -22.3155 O   0  0  0  0  0  0  0  0  0  0  0  0
  -10.4995    0.7353  -23.7349 C   0  0  0  0  0  0  0  0  0  0  0  0
  -10.9917    1.9971  -23.9935 C   0  0  0  0  0  0  0  0  0  0  0  0
  -12.3216    2.2189  -23.8721 N   0  0  0  0  0  0  0  0  0  0  0  0
  -13.1633    1.2548  -23.5109 C   0  0  0  0  0  0  0  0  0  0  0  0
  -12.7462   -0.0373  -23.2343 C   0  0  0  0  0  0  0  0  0  0  0  0
  -13.6132   -1.0252  -22.8636 C   0  0  0  0  0  0  0  0  0  0  0  0
  -13.1796   -2.2982  -22.5942 C   0  0  0  0  0  0  0  0  0  0  0  0
  -11.8220   -2.5683  -22.7069 C   0  0  0  0  0  0  0  0  0  0  0  0
  -10.9594   -1.5566  -23.0831 C   0  0  0  0  0  0  0  0  0  0  0  0
  -11.3780   -0.2815  -23.3551 C   0  0  0  0  0  0  0  0  0  0  0  0
   -4.9833    1.7646  -20.8055 C   0  0  0  0  0  0  0  0  0  0  0  0
   -6.3611   -1.5667  -19.3525 C   0  0  0  0  0  0  0  0  0  0  0  0
   -6.2920   -0.1750  -19.7849 N   0  0  0  0  0  0  0  0  0  0  0  0
   -5.0994    0.3555  -20.3518 C   0  0  0  0  0  0  0  0  0  0  0  0
   -4.0761   -0.3812  -20.4881 O   0  0  0  0  0  0  0  0  0  0  0  0
   -7.0810    0.4049  -19.6832 H   0  0  0  0  0  0  0  0  0  0  0  0
   -6.2417   -1.3104  -24.4482 C   0  0  0  0  0  0  0  0  0  0  0  0
   -6.8868   -2.5219  -24.8801 N   0  0  0  0  0  0  0  0  0  0  0  0
   -7.6030   -2.5046  -25.5553 H   0  0  0  0  0  0  0  0  0  0  0  0
   -6.4560   -3.7400  -24.3003 C   0  0  0  0  0  0  0  0  0  0  0  0
   -5.8725   -4.8463  -24.7778 C   0  0  0  0  0  0  0  0  0  0  0  0
   -5.6274   -5.7846  -23.8785 N   0  0  0  0  0  0  0  0  0  0  0  0
   -5.8354   -5.7990  -22.7586 C   0  0  0  0  0  0  0  0  0  0  0  0
   -5.6701   -6.6852  -21.5634 C   0  0  0  0  0  0  0  0  0  0  0  0
   -6.6384   -4.0971  -22.5180 S   0  0  0  0  0  0  0  0  0  0  0  0
 29 30  1  0  0  0
 30 31  1  0  0  0
 30 33  1  0  0  0
 31 32  2  0  0  0
 31 28  1  0  0  0
 28  1  1  0  0  0
  1  2  1  0  0  0
  3  2  1  0  0  0
  3  4  1  0  0  0
  3  9  1  0  0  0
  4  5  2  0  0  0
  4  6  1  0  0  0
  6 18  1  0  0  0
  6  7  1  0  0  0
 18 19  2  0  0  0
 19 20  1  0  0  0
 20 21  2  0  0  0
 21 22  1  0  0  0
 22 23  2  0  0  0
 23 24  1  0  0  0
 24 25  2  0  0  0
 25 26  1  0  0  0
 26 27  2  0  0  0
 27 18  1  0  0  0
 27 22  1  0  0  0
  7  8  1  0  0  0
  8 34  1  0  0  0
  8  3  1  0  0  0
 34 35  1  0  0  0
 35 37  1  0  0  0
 35 36  1  0  0  0
 37 38  2  0  0  0
 38 39  1  0  0  0
 39 40  2  0  0  0
 40 41  1  0  0  0
 40 42  1  0  0  0
 42 37  1  0  0  0
  9 10  2  0  0  0
 10 11  1  0  0  0
 11 12  1  0  0  0
 11 13  2  0  0  0
 13 14  1  0  0  0
 14 15  2  0  0  0
 15 16  1  0  0  0
 15  9  1  0  0  0
 16 17  2  0  0  0
 16  1  1  0  0  0
M  END
> <minimizedAffinity>
-7.52449

> <CNNscore>
0.1492577046

> <CNNaffinity>
6.3740086555

> <CNN_VS>
0.9513698816

> <CNNaffinity_variance>
0.1392142922

$$$$



 42 47  0  0  0  0  0  0  0  0999 V2000
  -11.1830    1.7881  -23.8734 N   0  0  0  0  0  0  0  0  0  0  0  0
   -9.9518    1.6825  -24.6394 C   0  0  0  0  0  0  0  0  0  0  0  0
   -9.0158    0.6402  -24.0782 C   0  0  0  0  0  0  0  0  0  0  0  0
   -8.3908    1.0912  -22.8139 C   0  0  0  0  0  0  0  0  0  0  0  0
   -8.8581    1.8781  -21.9251 O   0  0  0  0  0  0  0  0  0  0  0  0
   -7.1235    0.4652  -22.7634 N   0  0  0  0  0  0  0  0  0  0  0  0
   -6.6486    0.3752  -24.1200 C   0  0  0  0  0  0  0  0  0  0  0  0
   -7.8479    0.4990  -25.0053 C   0  0  0  0  0  0  0  0  0  0  0  0
   -9.7016   -0.6541  -23.8553 C   0  0  0  0  0  0  0  0  0  0  0  0
   -9.0657   -1.8738  -23.8384 C   0  0  0  0  0  0  0  0  0  0  0  0
   -9.7271   -3.0669  -23.6232 C   0  0  0  0  0  0  0  0  0  0  0  0
   -8.8540   -4.5951  -23.6138 Cl  0  0  0  0  0  0  0  0  0  0  0  0
  -11.0962   -3.0643  -23.4117 C   0  0  0  0  0  0  0  0  0  0  0  0
  -11.7624   -1.8541  -23.4232 C   0  0  0  0  0  0  0  0  0  0  0  0
  -11.0851   -0.6722  -23.6398 C   0  0  0  0  0  0  0  0  0  0  0  0
  -11.8787    0.5519  -23.6405 C   0  0  0  0  0  0  0  0  0  0  0  0
  -13.1224    0.5728  -23.4497 O   0  0  0  0  0  0  0  0  0  0  0  0
   -6.4370    0.0108  -21.5791 C   0  0  0  0  0  0  0  0  0  0  0  0
   -6.8202   -1.1269  -20.9008 C   0  0  0  0  0  0  0  0  0  0  0  0
   -6.1298   -1.4944  -19.7959 N   0  0  0  0  0  0  0  0  0  0  0  0
   -5.0949   -0.7891  -19.3487 C   0  0  0  0  0  0  0  0  0  0  0  0
   -4.6496    0.3642  -19.9742 C   0  0  0  0  0  0  0  0  0  0  0  0
   -3.5863    1.0863  -19.5125 C   0  0  0  0  0  0  0  0  0  0  0  0
   -3.1614    2.2256  -20.1469 C   0  0  0  0  0  0  0  0  0  0  0  0
   -3.8425    2.6378  -21.2848 C   0  0  0  0  0  0  0  0  0  0  0  0
   -4.9159    1.8950  -21.7377 C   0  0  0  0  0  0  0  0  0  0  0  0
   -5.3512    0.7559  -21.1147 C   0  0  0  0  0  0  0  0  0  0  0  0
  -11.6976    3.0439  -23.3666 C   0  0  0  0  0  0  0  0  0  0  0  0
  -12.5499    6.3342  -25.2521 C   0  0  0  0  0  0  0  0  0  0  0  0
  -12.4642    5.3342  -24.1931 N   0  0  0  0  0  0  0  0  0  0  0  0
  -11.8090    4.0904  -24.4141 C   0  0  0  0  0  0  0  0  0  0  0  0
  -11.2887    3.8359  -25.5423 O   0  0  0  0  0  0  0  0  0  0  0  0
  -12.8651    5.5224  -23.3139 H   0  0  0  0  0  0  0  0  0  0  0  0
   -7.6517    1.7393  -25.8639 C   0  0  0  0  0  0  0  0  0  0  0  0
   -7.5510    1.4118  -27.2614 N   0  0  0  0  0  0  0  0  0  0  0  0
   -8.1086    1.8676  -27.9326 H   0  0  0  0  0  0  0  0  0  0  0  0
   -6.6223    0.4111  -27.6380 C   0  0  0  0  0  0  0  0  0  0  0  0
   -5.2891    0.3707  -27.7535 C   0  0  0  0  0  0  0  0  0  0  0  0
   -4.7946   -0.7915  -28.1457 N   0  0  0  0  0  0  0  0  0  0  0  0
   -5.3265   -1.7659  -28.4013 C   0  0  0  0  0  0  0  0  0  0  0  0
   -5.0280   -3.1627  -28.8497 C   0  0  0  0  0  0  0  0  0  0  0  0
   -7.1364   -1.2765  -28.1121 S   0  0  0  0  0  0  0  0  0  0  0  0
 29 30  1  0  0  0
 30 31  1  0  0  0
 30 33  1  0  0  0
 31 32  2  0  0  0
 31 28  1  0  0  0
 28  1  1  0  0  0
  1  2  1  0  0  0
  3  2  1  0  0  0
  3  4  1  0  0  0
  3  9  1  0  0  0
  4  5  2  0  0  0
  4  6  1  0  0  0
  6 18  1  0  0  0
  6  7  1  0  0  0
 18 19  2  0  0  0
 19 20  1  0  0  0
 20 21  2  0  0  0
 21 22  1  0  0  0
 22 23  2  0  0  0
 23 24  1  0  0  0
 24 25  2  0  0  0
 25 26  1  0  0  0
 26 27  2  0  0  0
 27 18  1  0  0  0
 27 22  1  0  0  0
  7  8  1  0  0  0
  8 34  1  0  0  0
  8  3  1  0  0  0
 34 35  1  0  0  0
 35 37  1  0  0  0
 35 36  1  0  0  0
 37 38  2  0  0  0
 38 39  1  0  0  0
 39 40  2  0  0  0
 40 41  1  0  0  0
 40 42  1  0  0  0
 42 37  1  0  0  0
  9 10  2  0  0  0
 10 11  1  0  0  0
 11 12  1  0  0  0
 11 13  2  0  0  0
 13 14  1  0  0  0
 14 15  2  0  0  0
 15 16  1  0  0  0
 15  9  1  0  0  0
 16 17  2  0  0  0
 16  1  1  0  0  0
M  END
> <minimizedAffinity>
-6.98637

> <CNNscore>
0.1370144486

> <CNNaffinity>
6.2368168831

> <CNN_VS>
0.8545340300

> <CNNaffinity_variance>
0.0685951114

$$$$



 42 47  0  0  0  0  0  0  0  0999 V2000
   -5.2289   -0.7428  -20.8293 N   0  0  0  0  0  0  0  0  0  0  0  0
   -5.4814   -1.0597  -22.2255 C   0  0  0  0  0  0  0  0  0  0  0  0
   -6.1555    0.0750  -22.9574 C   0  0  0  0  0  0  0  0  0  0  0  0
   -7.5738    0.2175  -22.5567 C   0  0  0  0  0  0  0  0  0  0  0  0
   -8.1212   -0.0541  -21.4368 O   0  0  0  0  0  0  0  0  0  0  0  0
   -8.2464    0.7330  -23.6891 N   0  0  0  0  0  0  0  0  0  0  0  0
   -7.6016    0.1718  -24.8481 C   0  0  0  0  0  0  0  0  0  0  0  0
   -6.2449   -0.2803  -24.4097 C   0  0  0  0  0  0  0  0  0  0  0  0
   -5.4518    1.3618  -22.7477 C   0  0  0  0  0  0  0  0  0  0  0  0
   -5.5001    2.4217  -23.6231 C   0  0  0  0  0  0  0  0  0  0  0  0
   -4.8387    3.6138  -23.4023 C   0  0  0  0  0  0  0  0  0  0  0  0
   -4.9414    4.9327  -24.5632 Cl  0  0  0  0  0  0  0  0  0  0  0  0
   -4.0835    3.7770  -22.2524 C   0  0  0  0  0  0  0  0  0  0  0  0
   -4.0160    2.7295  -21.3542 C   0  0  0  0  0  0  0  0  0  0  0  0
   -4.6833    1.5459  -21.5916 C   0  0  0  0  0  0  0  0  0  0  0  0
   -4.5437    0.4974  -20.5870 C   0  0  0  0  0  0  0  0  0  0  0  0
   -3.8624    0.6285  -19.5370 O   0  0  0  0  0  0  0  0  0  0  0  0
   -9.3669    1.6410  -23.6825 C   0  0  0  0  0  0  0  0  0  0  0  0
   -9.2015    3.0097  -23.7104 C   0  0  0  0  0  0  0  0  0  0  0  0
  -10.2989    3.8022  -23.7021 N   0  0  0  0  0  0  0  0  0  0  0  0
  -11.5286    3.2972  -23.6678 C   0  0  0  0  0  0  0  0  0  0  0  0
  -11.7768    1.9344  -23.6382 C   0  0  0  0  0  0  0  0  0  0  0  0
  -13.0410    1.4188  -23.6031 C   0  0  0  0  0  0  0  0  0  0  0  0
  -13.2649    0.0660  -23.5742 C   0  0  0  0  0  0  0  0  0  0  0  0
  -12.1658   -0.7830  -23.5815 C   0  0  0  0  0  0  0  0  0  0  0  0
  -10.8941   -0.2438  -23.6173 C   0  0  0  0  0  0  0  0  0  0  0  0
  -10.6556    1.1043  -23.6463 C   0  0  0  0  0  0  0  0  0  0  0  0
   -5.6303   -1.6028  -19.7347 C   0  0  0  0  0  0  0  0  0  0  0  0
   -5.5804   -5.0337  -21.5604 C   0  0  0  0  0  0  0  0  0  0  0  0
   -5.7658   -3.6088  -21.3075 N   0  0  0  0  0  0  0  0  0  0  0  0
   -5.4576   -3.0462  -20.0372 C   0  0  0  0  0  0  0  0  0  0  0  0
   -5.0152   -3.7828  -19.1044 O   0  0  0  0  0  0  0  0  0  0  0  0
   -6.1088   -3.0288  -22.0252 H   0  0  0  0  0  0  0  0  0  0  0  0
   -6.1742   -1.7836  -24.6316 C   0  0  0  0  0  0  0  0  0  0  0  0
   -7.1532   -2.2298  -25.5871 N   0  0  0  0  0  0  0  0  0  0  0  0
   -7.4433   -1.6496  -26.3277 H   0  0  0  0  0  0  0  0  0  0  0  0
   -7.6852   -3.5323  -25.4254 C   0  0  0  0  0  0  0  0  0  0  0  0
   -7.8432   -4.3530  -24.3795 C   0  0  0  0  0  0  0  0  0  0  0  0
   -8.3995   -5.5195  -24.6602 N   0  0  0  0  0  0  0  0  0  0  0  0
   -8.7663   -5.9364  -25.6549 C   0  0  0  0  0  0  0  0  0  0  0  0
   -9.4038   -7.1629  -26.2297 C   0  0  0  0  0  0  0  0  0  0  0  0
   -8.3634   -4.4957  -26.8215 S   0  0  0  0  0  0  0  0  0  0  0  0
 29 30  1  0  0  0
 30 31  1  0  0  0
 30 33  1  0  0  0
 31 32  2  0  0  0
 31 28  1  0  0  0
 28  1  1  0  0  0
  1  2  1  0  0  0
  3  2  1  0  0  0
  3  4  1  0  0  0
  3  9  1  0  0  0
  4  5  2  0  0  0
  4  6  1  0  0  0
  6 18  1  0  0  0
  6  7  1  0  0  0
 18 19  2  0  0  0
 19 20  1  0  0  0
 20 21  2  0  0  0
 21 22  1  0  0  0
 22 23  2  0  0  0
 23 24  1  0  0  0
 24 25  2  0  0  0
 25 26  1  0  0  0
 26 27  2  0  0  0
 27 18  1  0  0  0
 27 22  1  0  0  0
  7  8  1  0  0  0
  8 34  1  0  0  0
  8  3  1  0  0  0
 34 35  1  0  0  0
 35 37  1  0  0  0
 35 36  1  0  0  0
 37 38  2  0  0  0
 38 39  1  0  0  0
 39 40  2  0  0  0
 40 41  1  0  0  0
 40 42  1  0  0  0
 42 37  1  0  0  0
  9 10  2  0  0  0
 10 11  1  0  0  0
 11 12  1  0  0  0
 11 13  2  0  0  0
 13 14  1  0  0  0
 14 15  2  0  0  0
 15 16  1  0  0  0
 15  9  1  0  0  0
 16 17  2  0  0  0
 16  1  1  0  0  0
M  END
> <minimizedAffinity>
-8.94683

> <CNNscore>
0.1278299093

> <CNNaffinity>
6.2734055519

> <CNN_VS>
0.8019288778

> <CNNaffinity_variance>
0.3728735149

$$$$



 38 42  0  0  0  0  0  0  0  0999 V2000
   -6.6592   -3.2940  -25.8140 N   0  0  0  0  0  0  0  0  0  0  0  0
   -6.2162   -2.7058  -24.5862 C   0  0  0  0  0  0  0  0  0  0  0  0
   -7.1536   -2.7955  -23.4415 C   0  0  0  0  0  0  0  0  0  0  0  0
   -6.9334   -1.6087  -22.5713 C   0  0  0  0  0  0  0  0  0  0  0  0
   -7.4287   -0.4578  -22.7925 O   0  0  0  0  0  0  0  0  0  0  0  0
   -6.0957   -1.9805  -21.4814 N   0  0  0  0  0  0  0  0  0  0  0  0
   -5.6425   -3.3431  -21.7671 C   0  0  0  0  0  0  0  0  0  0  0  0
   -6.8535   -3.9097  -22.4594 C   0  0  0  0  0  0  0  0  0  0  0  0
   -8.5811   -2.9476  -23.8184 C   0  0  0  0  0  0  0  0  0  0  0  0
   -9.5225   -2.7741  -22.8239 C   0  0  0  0  0  0  0  0  0  0  0  0
  -10.8744   -2.8960  -23.0800 C   0  0  0  0  0  0  0  0  0  0  0  0
  -11.7251   -2.7083  -22.0409 F   0  0  0  0  0  0  0  0  0  0  0  0
  -11.2989   -3.1978  -24.3572 C   0  0  0  0  0  0  0  0  0  0  0  0
  -10.3629   -3.3745  -25.3647 C   0  0  0  0  0  0  0  0  0  0  0  0
   -9.0049   -3.2488  -25.0930 C   0  0  0  0  0  0  0  0  0  0  0  0
   -8.0335   -3.4412  -26.1797 C   0  0  0  0  0  0  0  0  0  0  0  0
   -8.3828   -3.7172  -27.3565 O   0  0  0  0  0  0  0  0  0  0  0  0
   -5.7851   -1.1637  -20.3576 C   0  0  0  0  0  0  0  0  0  0  0  0
   -6.4721   -1.2833  -19.1552 C   0  0  0  0  0  0  0  0  0  0  0  0
   -6.1956   -0.5292  -18.0959 N   0  0  0  0  0  0  0  0  0  0  0  0
   -5.2235    0.3802  -18.1791 C   0  0  0  0  0  0  0  0  0  0  0  0
   -4.4975    0.5594  -19.3339 C   0  0  0  0  0  0  0  0  0  0  0  0
   -3.4859    1.5095  -19.4120 C   0  0  0  0  0  0  0  0  0  0  0  0
   -2.7588    1.6818  -20.5847 C   0  0  0  0  0  0  0  0  0  0  0  0
   -3.0525    0.8948  -21.6794 C   0  0  0  0  0  0  0  0  0  0  0  0
   -4.0622   -0.0702  -21.6378 C   0  0  0  0  0  0  0  0  0  0  0  0
   -4.7757   -0.2246  -20.4549 C   0  0  0  0  0  0  0  0  0  0  0  0
   -5.6845   -3.7865  -26.7799 C   0  0  0  0  0  0  0  0  0  0  0  0
   -3.2794   -6.4205  -25.2505 C   0  0  0  0  0  0  0  0  0  0  0  0
   -3.8580   -5.1756  -25.7520 N   0  0  0  0  0  0  0  0  0  0  0  0
   -5.1572   -5.0859  -26.2868 C   0  0  0  0  0  0  0  0  0  0  0  0
   -5.9059   -6.1149  -26.3586 O   0  0  0  0  0  0  0  0  0  0  0  0
   -3.3111   -4.3579  -25.7140 H   0  0  0  0  0  0  0  0  0  0  0  0
   -6.6563   -5.2277  -23.0789 C   0  0  0  0  0  0  0  0  0  0  0  0
   -5.3969   -5.7420  -22.8063 O   0  0  0  0  0  0  0  0  0  0  0  0
   -5.3799   -7.0120  -22.2939 C   0  0  0  0  0  0  0  0  0  0  0  0
   -5.5614   -7.0224  -20.7785 C   0  0  0  0  0  0  0  0  0  0  0  0
   -6.5618   -7.7921  -22.8471 C   0  0  0  0  0  0  0  0  0  0  0  0
 29 30  1  0  0  0
 30 31  1  0  0  0
 30 33  1  0  0  0
 31 32  2  0  0  0
 31 28  1  0  0  0
 28  1  1  0  0  0
  1  2  1  0  0  0
  3  2  1  0  0  0
  3  4  1  0  0  0
  3  9  1  0  0  0
  4  5  2  0  0  0
  4  6  1  0  0  0
  6 18  1  0  0  0
  6  7  1  0  0  0
 18 19  2  0  0  0
 19 20  1  0  0  0
 20 21  2  0  0  0
 21 22  1  0  0  0
 22 23  2  0  0  0
 23 24  1  0  0  0
 24 25  2  0  0  0
 25 26  1  0  0  0
 26 27  2  0  0  0
 27 18  1  0  0  0
 27 22  1  0  0  0
  7  8  1  0  0  0
  8 34  1  0  0  0
  8  3  1  0  0  0
 34 35  1  0  0  0
 35 36  1  0  0  0
 36 37  1  0  0  0
 36 38  1  0  0  0
  9 10  2  0  0  0
 10 11  1  0  0  0
 11 12  1  0  0  0
 11 13  2  0  0  0
 13 14  1  0  0  0
 14 15  2  0  0  0
 15 16  1  0  0  0
 15  9  1  0  0  0
 16 17  2  0  0  0
 16  1  1  0  0  0
M  END
> <minimizedAffinity>
-8.40079

> <CNNscore>
0.5040397644

> <CNNaffinity>
6.3210101128

> <CNN_VS>
3.1860404015

> <CNNaffinity_variance>
0.2024620026

$$$$



 38 42  0  0  0  0  0  0  0  0999 V2000
   -7.2151   -3.1064  -22.4765 N   0  0  0  0  0  0  0  0  0  0  0  0
   -8.2229   -2.1567  -22.8403 C   0  0  0  0  0  0  0  0  0  0  0  0
   -7.7899   -0.7415  -22.9219 C   0  0  0  0  0  0  0  0  0  0  0  0
   -8.9549    0.1175  -22.5765 C   0  0  0  0  0  0  0  0  0  0  0  0
   -9.3257    0.3757  -21.3871 O   0  0  0  0  0  0  0  0  0  0  0  0
   -9.5608    0.5839  -23.7779 N   0  0  0  0  0  0  0  0  0  0  0  0
   -8.8934   -0.1280  -24.8694 C   0  0  0  0  0  0  0  0  0  0  0  0
   -7.4954   -0.2461  -24.3233 C   0  0  0  0  0  0  0  0  0  0  0  0
   -6.5964   -0.4092  -22.1046 C   0  0  0  0  0  0  0  0  0  0  0  0
   -6.3000    0.9273  -21.9274 C   0  0  0  0  0  0  0  0  0  0  0  0
   -5.2095    1.3326  -21.1827 C   0  0  0  0  0  0  0  0  0  0  0  0
   -4.9971    2.6665  -21.0634 F   0  0  0  0  0  0  0  0  0  0  0  0
   -4.3945    0.3841  -20.6007 C   0  0  0  0  0  0  0  0  0  0  0  0
   -4.6817   -0.9616  -20.7715 C   0  0  0  0  0  0  0  0  0  0  0  0
   -5.7829   -1.3557  -21.5236 C   0  0  0  0  0  0  0  0  0  0  0  0
   -6.0648   -2.7891  -21.6890 C   0  0  0  0  0  0  0  0  0  0  0  0
   -5.3446   -3.6827  -21.1733 O   0  0  0  0  0  0  0  0  0  0  0  0
  -10.6036    1.5496  -23.8605 C   0  0  0  0  0  0  0  0  0  0  0  0
  -11.9437    1.1822  -23.8291 C   0  0  0  0  0  0  0  0  0  0  0  0
  -12.9302    2.0701  -23.9051 N   0  0  0  0  0  0  0  0  0  0  0  0
  -12.6338    3.3658  -24.0160 C   0  0  0  0  0  0  0  0  0  0  0  0
  -11.3320    3.8094  -24.0539 C   0  0  0  0  0  0  0  0  0  0  0  0
  -11.0321    5.1617  -24.1695 C   0  0  0  0  0  0  0  0  0  0  0  0
   -9.7124    5.5983  -24.2068 C   0  0  0  0  0  0  0  0  0  0  0  0
   -8.6947    4.6699  -24.1273 C   0  0  0  0  0  0  0  0  0  0  0  0
   -8.9582    3.3028  -24.0104 C   0  0  0  0  0  0  0  0  0  0  0  0
  -10.2849    2.8896  -23.9751 C   0  0  0  0  0  0  0  0  0  0  0  0
   -7.3279   -4.4927  -22.9136 C   0  0  0  0  0  0  0  0  0  0  0  0
   -4.8761   -4.7106  -25.9141 C   0  0  0  0  0  0  0  0  0  0  0  0
   -5.4390   -4.6223  -24.5682 N   0  0  0  0  0  0  0  0  0  0  0  0
   -6.8221   -4.5829  -24.3085 C   0  0  0  0  0  0  0  0  0  0  0  0
   -7.6667   -4.6238  -25.2623 O   0  0  0  0  0  0  0  0  0  0  0  0
   -4.8192   -4.5886  -23.8040 H   0  0  0  0  0  0  0  0  0  0  0  0
   -6.5963   -1.1138  -25.0970 C   0  0  0  0  0  0  0  0  0  0  0  0
   -5.4529   -0.4407  -25.5022 O   0  0  0  0  0  0  0  0  0  0  0  0
   -4.2697   -0.9887  -25.0831 C   0  0  0  0  0  0  0  0  0  0  0  0
   -3.3490   -1.3301  -26.2516 C   0  0  0  0  0  0  0  0  0  0  0  0
   -3.5084    0.0343  -24.2551 C   0  0  0  0  0  0  0  0  0  0  0  0
 29 30  1  0  0  0
 30 31  1  0  0  0
 30 33  1  0  0  0
 31 32  2  0  0  0
 31 28  1  0  0  0
 28  1  1  0  0  0
  1  2  1  0  0  0
  3  2  1  0  0  0
  3  4  1  0  0  0
  3  9  1  0  0  0
  4  5  2  0  0  0
  4  6  1  0  0  0
  6 18  1  0  0  0
  6  7  1  0  0  0
 18 19  2  0  0  0
 19 20  1  0  0  0
 20 21  2  0  0  0
 21 22  1  0  0  0
 22 23  2  0  0  0
 23 24  1  0  0  0
 24 25  2  0  0  0
 25 26  1  0  0  0
 26 27  2  0  0  0
 27 18  1  0  0  0
 27 22  1  0  0  0
  7  8  1  0  0  0
  8 34  1  0  0  0
  8  3  1  0  0  0
 34 35  1  0  0  0
 35 36  1  0  0  0
 36 37  1  0  0  0
 36 38  1  0  0  0
  9 10  2  0  0  0
 10 11  1  0  0  0
 11 12  1  0  0  0
 11 13  2  0  0  0
 13 14  1  0  0  0
 14 15  2  0  0  0
 15 16  1  0  0  0
 15  9  1  0  0  0
 16 17  2  0  0  0
 16  1  1  0  0  0
M  END
> <minimizedAffinity>
-6.94113

> <CNNscore>
0.3287635744

> <CNNaffinity>
5.9688658714

> <CNN_VS>
1.9623457193

> <CNNaffinity_variance>
0.1371842176

$$$$



 38 42  0  0  0  0  0  0  0  0999 V2000
   -7.3784   -2.9785  -23.6767 N   0  0  0  0  0  0  0  0  0  0  0  0
   -7.1796   -1.5732  -23.8643 C   0  0  0  0  0  0  0  0  0  0  0  0
   -8.2983   -0.6928  -23.4512 C   0  0  0  0  0  0  0  0  0  0  0  0
   -8.2795    0.5149  -24.3203 C   0  0  0  0  0  0  0  0  0  0  0  0
   -8.7726    0.5606  -25.4923 O   0  0  0  0  0  0  0  0  0  0  0  0
   -7.6312    1.5764  -23.6269 N   0  0  0  0  0  0  0  0  0  0  0  0
   -7.0828    0.9850  -22.4050 C   0  0  0  0  0  0  0  0  0  0  0  0
   -8.1315   -0.0484  -22.0900 C   0  0  0  0  0  0  0  0  0  0  0  0
   -9.6311   -1.3458  -23.4409 C   0  0  0  0  0  0  0  0  0  0  0  0
  -10.7376   -0.5290  -23.3239 C   0  0  0  0  0  0  0  0  0  0  0  0
  -12.0184   -1.0462  -23.3052 C   0  0  0  0  0  0  0  0  0  0  0  0
  -13.0440   -0.1672  -23.1871 F   0  0  0  0  0  0  0  0  0  0  0  0
  -12.2014   -2.4098  -23.4053 C   0  0  0  0  0  0  0  0  0  0  0  0
  -11.0977   -3.2407  -23.5232 C   0  0  0  0  0  0  0  0  0  0  0  0
   -9.8139   -2.7066  -23.5408 C   0  0  0  0  0  0  0  0  0  0  0  0
   -8.6610   -3.6101  -23.6668 C   0  0  0  0  0  0  0  0  0  0  0  0
   -8.7885   -4.8584  -23.7604 O   0  0  0  0  0  0  0  0  0  0  0  0
   -7.5533    2.9285  -24.0657 C   0  0  0  0  0  0  0  0  0  0  0  0
   -6.3475    3.5040  -24.4490 C   0  0  0  0  0  0  0  0  0  0  0  0
   -6.2562    4.7646  -24.8612 N   0  0  0  0  0  0  0  0  0  0  0  0
   -7.3578    5.5148  -24.9128 C   0  0  0  0  0  0  0  0  0  0  0  0
   -8.5887    5.0185  -24.5504 C   0  0  0  0  0  0  0  0  0  0  0  0
   -9.7317    5.8074  -24.6074 C   0  0  0  0  0  0  0  0  0  0  0  0
  -10.9706    5.2948  -24.2384 C   0  0  0  0  0  0  0  0  0  0  0  0
  -11.0562    3.9853  -23.8118 C   0  0  0  0  0  0  0  0  0  0  0  0
   -9.9289    3.1629  -23.7416 C   0  0  0  0  0  0  0  0  0  0  0  0
   -8.7012    3.6968  -24.1154 C   0  0  0  0  0  0  0  0  0  0  0  0
   -6.2318   -3.8572  -23.4801 C   0  0  0  0  0  0  0  0  0  0  0  0
   -5.9982   -6.6527  -26.1621 C   0  0  0  0  0  0  0  0  0  0  0  0
   -6.2497   -5.9142  -24.9262 N   0  0  0  0  0  0  0  0  0  0  0  0
   -5.9498   -4.5481  -24.7658 C   0  0  0  0  0  0  0  0  0  0  0  0
   -5.4317   -3.8774  -25.7179 O   0  0  0  0  0  0  0  0  0  0  0  0
   -6.6493   -6.3969  -24.1669 H   0  0  0  0  0  0  0  0  0  0  0  0
   -7.7783   -0.9854  -21.0144 C   0  0  0  0  0  0  0  0  0  0  0  0
   -7.2571   -0.3286  -19.9091 O   0  0  0  0  0  0  0  0  0  0  0  0
   -6.3252   -1.0325  -19.1936 C   0  0  0  0  0  0  0  0  0  0  0  0
   -5.4303   -1.8802  -20.0936 C   0  0  0  0  0  0  0  0  0  0  0  0
   -5.3890   -0.0593  -18.4951 C   0  0  0  0  0  0  0  0  0  0  0  0
 29 30  1  0  0  0
 30 31  1  0  0  0
 30 33  1  0  0  0
 31 32  2  0  0  0
 31 28  1  0  0  0
 28  1  1  0  0  0
  1  2  1  0  0  0
  3  2  1  0  0  0
  3  4  1  0  0  0
  3  9  1  0  0  0
  4  5  2  0  0  0
  4  6  1  0  0  0
  6 18  1  0  0  0
  6  7  1  0  0  0
 18 19  2  0  0  0
 19 20  1  0  0  0
 20 21  2  0  0  0
 21 22  1  0  0  0
 22 23  2  0  0  0
 23 24  1  0  0  0
 24 25  2  0  0  0
 25 26  1  0  0  0
 26 27  2  0  0  0
 27 18  1  0  0  0
 27 22  1  0  0  0
  7  8  1  0  0  0
  8 34  1  0  0  0
  8  3  1  0  0  0
 34 35  1  0  0  0
 35 36  1  0  0  0
 36 37  1  0  0  0
 36 38  1  0  0  0
  9 10  2  0  0  0
 10 11  1  0  0  0
 11 12  1  0  0  0
 11 13  2  0  0  0
 13 14  1  0  0  0
 14 15  2  0  0  0
 15 16  1  0  0  0
 15  9  1  0  0  0
 16 17  2  0  0  0
 16  1  1  0  0  0
M  END
> <minimizedAffinity>
-7.16766

> <CNNscore>
0.1922498494

> <CNNaffinity>
6.1214389801

> <CNN_VS>
1.1768456697

> <CNNaffinity_variance>
0.3030672073

$$$$



 38 42  0  0  0  0  0  0  0  0999 V2000
   -6.4286    1.4549  -23.1308 N   0  0  0  0  0  0  0  0  0  0  0  0
   -6.4053    0.0252  -23.2017 C   0  0  0  0  0  0  0  0  0  0  0  0
   -7.6155   -0.6225  -23.7611 C   0  0  0  0  0  0  0  0  0  0  0  0
   -7.7581   -1.9601  -23.1250 C   0  0  0  0  0  0  0  0  0  0  0  0
   -8.2728   -2.1555  -21.9779 O   0  0  0  0  0  0  0  0  0  0  0  0
   -7.2321   -2.9505  -24.0026 N   0  0  0  0  0  0  0  0  0  0  0  0
   -6.5954   -2.2202  -25.1003 C   0  0  0  0  0  0  0  0  0  0  0  0
   -7.5054   -1.0265  -25.2173 C   0  0  0  0  0  0  0  0  0  0  0  0
   -8.8587    0.1800  -23.6457 C   0  0  0  0  0  0  0  0  0  0  0  0
  -10.0542   -0.4605  -23.9025 C   0  0  0  0  0  0  0  0  0  0  0  0
  -11.2621    0.2046  -23.8203 C   0  0  0  0  0  0  0  0  0  0  0  0
  -12.3848   -0.5063  -24.0898 F   0  0  0  0  0  0  0  0  0  0  0  0
  -11.2797    1.5398  -23.4741 C   0  0  0  0  0  0  0  0  0  0  0  0
  -10.0854    2.1943  -23.2139 C   0  0  0  0  0  0  0  0  0  0  0  0
   -8.8765    1.5125  -23.3002 C   0  0  0  0  0  0  0  0  0  0  0  0
   -7.6247    2.2303  -23.0192 C   0  0  0  0  0  0  0  0  0  0  0  0
   -7.6011    3.4473  -22.7006 O   0  0  0  0  0  0  0  0  0  0  0  0
   -7.3265   -4.3588  -23.8161 C   0  0  0  0  0  0  0  0  0  0  0  0
   -6.6313   -5.0099  -22.8038 C   0  0  0  0  0  0  0  0  0  0  0  0
   -6.7075   -6.3236  -22.6151 N   0  0  0  0  0  0  0  0  0  0  0  0
   -7.4777   -7.0544  -23.4224 C   0  0  0  0  0  0  0  0  0  0  0  0
   -8.1970   -6.4844  -24.4473 C   0  0  0  0  0  0  0  0  0  0  0  0
   -8.9974   -7.2536  -25.2839 C   0  0  0  0  0  0  0  0  0  0  0  0
   -9.7200   -6.6663  -26.3166 C   0  0  0  0  0  0  0  0  0  0  0  0
   -9.6351   -5.3021  -26.5053 C   0  0  0  0  0  0  0  0  0  0  0  0
   -8.8410   -4.4974  -25.6843 C   0  0  0  0  0  0  0  0  0  0  0  0
   -8.1276   -5.1063  -24.6584 C   0  0  0  0  0  0  0  0  0  0  0  0
   -5.1806    2.2074  -23.1714 C   0  0  0  0  0  0  0  0  0  0  0  0
   -3.7528    1.2963  -19.6796 C   0  0  0  0  0  0  0  0  0  0  0  0
   -4.5964    1.8052  -20.7591 N   0  0  0  0  0  0  0  0  0  0  0  0
   -4.2768    1.6655  -22.1230 C   0  0  0  0  0  0  0  0  0  0  0  0
   -3.2082    1.0727  -22.4855 O   0  0  0  0  0  0  0  0  0  0  0  0
   -5.4310    2.2695  -20.5202 H   0  0  0  0  0  0  0  0  0  0  0  0
   -7.0230    0.0387  -26.1076 C   0  0  0  0  0  0  0  0  0  0  0  0
   -8.0437    0.5570  -26.8912 O   0  0  0  0  0  0  0  0  0  0  0  0
   -8.1080    1.9242  -26.9422 C   0  0  0  0  0  0  0  0  0  0  0  0
   -6.7856    2.5765  -26.5483 C   0  0  0  0  0  0  0  0  0  0  0  0
   -8.3623    2.3614  -28.3759 C   0  0  0  0  0  0  0  0  0  0  0  0
 29 30  1  0  0  0
 30 31  1  0  0  0
 30 33  1  0  0  0
 31 32  2  0  0  0
 31 28  1  0  0  0
 28  1  1  0  0  0
  1  2  1  0  0  0
  3  2  1  0  0  0
  3  4  1  0  0  0
  3  9  1  0  0  0
  4  5  2  0  0  0
  4  6  1  0  0  0
  6 18  1  0  0  0
  6  7  1  0  0  0
 18 19  2  0  0  0
 19 20  1  0  0  0
 20 21  2  0  0  0
 21 22  1  0  0  0
 22 23  2  0  0  0
 23 24  1  0  0  0
 24 25  2  0  0  0
 25 26  1  0  0  0
 26 27  2  0  0  0
 27 18  1  0  0  0
 27 22  1  0  0  0
  7  8  1  0  0  0
  8 34  1  0  0  0
  8  3  1  0  0  0
 34 35  1  0  0  0
 35 36  1  0  0  0
 36 37  1  0  0  0
 36 38  1  0  0  0
  9 10  2  0  0  0
 10 11  1  0  0  0
 11 12  1  0  0  0
 11 13  2  0  0  0
 13 14  1  0  0  0
 14 15  2  0  0  0
 15 16  1  0  0  0
 15  9  1  0  0  0
 16 17  2  0  0  0
 16  1  1  0  0  0
M  END
> <minimizedAffinity>
-6.52211

> <CNNscore>
0.1829483211

> <CNNaffinity>
5.9393353462

> <CNN_VS>
1.0865914822

> <CNNaffinity_variance>
0.1667885333

$$$$



 38 42  0  0  0  0  0  0  0  0999 V2000
   -7.5431   -1.0039  -21.7731 N   0  0  0  0  0  0  0  0  0  0  0  0
   -8.3380    0.1024  -22.2134 C   0  0  0  0  0  0  0  0  0  0  0  0
   -8.5917    0.1871  -23.6713 C   0  0  0  0  0  0  0  0  0  0  0  0
   -8.7382    1.6236  -24.0309 C   0  0  0  0  0  0  0  0  0  0  0  0
   -7.7616    2.4147  -24.2288 O   0  0  0  0  0  0  0  0  0  0  0  0
  -10.1235    1.9436  -24.1113 N   0  0  0  0  0  0  0  0  0  0  0  0
  -10.8395    0.7633  -23.6235 C   0  0  0  0  0  0  0  0  0  0  0  0
   -9.9412   -0.3409  -24.1139 C   0  0  0  0  0  0  0  0  0  0  0  0
   -7.5811   -0.4945  -24.5180 C   0  0  0  0  0  0  0  0  0  0  0  0
   -7.6092   -0.2352  -25.8735 C   0  0  0  0  0  0  0  0  0  0  0  0
   -6.7085   -0.8233  -26.7401 C   0  0  0  0  0  0  0  0  0  0  0  0
   -6.8123   -0.5089  -28.0550 F   0  0  0  0  0  0  0  0  0  0  0  0
   -5.7569   -1.6904  -26.2448 C   0  0  0  0  0  0  0  0  0  0  0  0
   -5.7185   -1.9589  -24.8851 C   0  0  0  0  0  0  0  0  0  0  0  0
   -6.6314   -1.3599  -24.0239 C   0  0  0  0  0  0  0  0  0  0  0  0
   -6.5686   -1.6619  -22.5864 C   0  0  0  0  0  0  0  0  0  0  0  0
   -5.7153   -2.4471  -22.0982 O   0  0  0  0  0  0  0  0  0  0  0  0
  -10.6649    3.1748  -24.5779 C   0  0  0  0  0  0  0  0  0  0  0  0
  -10.1789    3.8005  -25.7199 C   0  0  0  0  0  0  0  0  0  0  0  0
  -10.6721    4.9501  -26.1699 N   0  0  0  0  0  0  0  0  0  0  0  0
  -11.6719    5.5340  -25.5078 C   0  0  0  0  0  0  0  0  0  0  0  0
  -12.2077    4.9779  -24.3692 C   0  0  0  0  0  0  0  0  0  0  0  0
  -13.2497    5.5932  -23.6853 C   0  0  0  0  0  0  0  0  0  0  0  0
  -13.7833    5.0216  -22.5355 C   0  0  0  0  0  0  0  0  0  0  0  0
  -13.2653    3.8283  -22.0754 C   0  0  0  0  0  0  0  0  0  0  0  0
  -12.2183    3.1812  -22.7366 C   0  0  0  0  0  0  0  0  0  0  0  0
  -11.7008    3.7712  -23.8839 C   0  0  0  0  0  0  0  0  0  0  0  0
   -7.7034   -1.5243  -20.4207 C   0  0  0  0  0  0  0  0  0  0  0  0
   -4.6338    0.4385  -19.0840 C   0  0  0  0  0  0  0  0  0  0  0  0
   -5.5435   -0.3358  -19.9260 N   0  0  0  0  0  0  0  0  0  0  0  0
   -6.8281   -0.7372  -19.5129 C   0  0  0  0  0  0  0  0  0  0  0  0
   -7.2656   -0.4343  -18.3546 O   0  0  0  0  0  0  0  0  0  0  0  0
   -5.2425   -0.5896  -20.8283 H   0  0  0  0  0  0  0  0  0  0  0  0
  -10.2658   -1.6802  -23.6032 C   0  0  0  0  0  0  0  0  0  0  0  0
  -10.8050   -2.4917  -24.5909 O   0  0  0  0  0  0  0  0  0  0  0  0
  -10.1217   -3.6536  -24.8336 C   0  0  0  0  0  0  0  0  0  0  0  0
   -9.2533   -3.5585  -26.0851 C   0  0  0  0  0  0  0  0  0  0  0  0
   -9.1543   -3.9150  -23.6902 C   0  0  0  0  0  0  0  0  0  0  0  0
 29 30  1  0  0  0
 30 31  1  0  0  0
 30 33  1  0  0  0
 31 32  2  0  0  0
 31 28  1  0  0  0
 28  1  1  0  0  0
  1  2  1  0  0  0
  3  2  1  0  0  0
  3  4  1  0  0  0
  3  9  1  0  0  0
  4  5  2  0  0  0
  4  6  1  0  0  0
  6 18  1  0  0  0
  6  7  1  0  0  0
 18 19  2  0  0  0
 19 20  1  0  0  0
 20 21  2  0  0  0
 21 22  1  0  0  0
 22 23  2  0  0  0
 23 24  1  0  0  0
 24 25  2  0  0  0
 25 26  1  0  0  0
 26 27  2  0  0  0
 27 18  1  0  0  0
 27 22  1  0  0  0
  7  8  1  0  0  0
  8 34  1  0  0  0
  8  3  1  0  0  0
 34 35  1  0  0  0
 35 36  1  0  0  0
 36 37  1  0  0  0
 36 38  1  0  0  0
  9 10  2  0  0  0
 10 11  1  0  0  0
 11 12  1  0  0  0
 11 13  2  0  0  0
 13 14  1  0  0  0
 14 15  2  0  0  0
 15 16  1  0  0  0
 15  9  1  0  0  0
 16 17  2  0  0  0
 16  1  1  0  0  0
M  END
> <minimizedAffinity>
-7.61155

> <CNNscore>
0.1686102897

> <CNNaffinity>
5.8621368408

> <CNN_VS>
0.9884166121

> <CNNaffinity_variance>
0.4387341440

$$$$



 38 42  0  0  0  0  0  0  0  0999 V2000
   -7.5330   -2.7179  -23.2399 N   0  0  0  0  0  0  0  0  0  0  0  0
   -8.2470   -1.5062  -23.5079 C   0  0  0  0  0  0  0  0  0  0  0  0
   -7.5481   -0.2449  -23.1649 C   0  0  0  0  0  0  0  0  0  0  0  0
   -8.5763    0.7678  -22.8023 C   0  0  0  0  0  0  0  0  0  0  0  0
   -9.1288    0.8486  -21.6591 O   0  0  0  0  0  0  0  0  0  0  0  0
   -8.8228    1.6037  -23.9285 N   0  0  0  0  0  0  0  0  0  0  0  0
   -8.0911    1.0027  -25.0452 C   0  0  0  0  0  0  0  0  0  0  0  0
   -6.8833    0.4523  -24.3345 C   0  0  0  0  0  0  0  0  0  0  0  0
   -6.5078   -0.3773  -22.1146 C   0  0  0  0  0  0  0  0  0  0  0  0
   -6.0082    0.7864  -21.5654 C   0  0  0  0  0  0  0  0  0  0  0  0
   -5.0381    0.7626  -20.5823 C   0  0  0  0  0  0  0  0  0  0  0  0
   -4.6078    1.9553  -20.1021 F   0  0  0  0  0  0  0  0  0  0  0  0
   -4.5539   -0.4494  -20.1356 C   0  0  0  0  0  0  0  0  0  0  0  0
   -5.0477   -1.6252  -20.6796 C   0  0  0  0  0  0  0  0  0  0  0  0
   -6.0245   -1.5866  -21.6687 C   0  0  0  0  0  0  0  0  0  0  0  0
   -6.5309   -2.8482  -22.2286 C   0  0  0  0  0  0  0  0  0  0  0  0
   -6.1136   -3.9721  -21.8465 O   0  0  0  0  0  0  0  0  0  0  0  0
   -9.6255    2.7795  -23.9292 C   0  0  0  0  0  0  0  0  0  0  0  0
   -9.0648    4.0468  -24.0375 C   0  0  0  0  0  0  0  0  0  0  0  0
   -9.7987    5.1552  -24.0398 N   0  0  0  0  0  0  0  0  0  0  0  0
  -11.1248    5.0591  -23.9346 C   0  0  0  0  0  0  0  0  0  0  0  0
  -11.7553    3.8413  -23.8235 C   0  0  0  0  0  0  0  0  0  0  0  0
  -13.1380    3.7502  -23.7144 C   0  0  0  0  0  0  0  0  0  0  0  0
  -13.7642    2.5137  -23.6027 C   0  0  0  0  0  0  0  0  0  0  0  0
  -12.9948    1.3683  -23.6012 C   0  0  0  0  0  0  0  0  0  0  0  0
  -11.6027    1.4212  -23.7091 C   0  0  0  0  0  0  0  0  0  0  0  0
  -10.9987    2.6682  -23.8196 C   0  0  0  0  0  0  0  0  0  0  0  0
   -7.8121   -3.9166  -24.0214 C   0  0  0  0  0  0  0  0  0  0  0  0
   -4.5709   -4.2772  -26.1254 C   0  0  0  0  0  0  0  0  0  0  0  0
   -5.5280   -4.2416  -25.0214 N   0  0  0  0  0  0  0  0  0  0  0  0
   -6.8919   -3.9353  -25.1887 C   0  0  0  0  0  0  0  0  0  0  0  0
   -7.3642   -3.6686  -26.3422 O   0  0  0  0  0  0  0  0  0  0  0  0
   -5.2023   -4.4419  -24.1142 H   0  0  0  0  0  0  0  0  0  0  0  0
   -6.0239   -0.4171  -25.1502 C   0  0  0  0  0  0  0  0  0  0  0  0
   -4.8836    0.2445  -25.5826 O   0  0  0  0  0  0  0  0  0  0  0  0
   -4.2824    1.0479  -24.6506 C   0  0  0  0  0  0  0  0  0  0  0  0
   -3.1562    0.3287  -23.9130 C   0  0  0  0  0  0  0  0  0  0  0  0
   -3.6192    2.2219  -25.3531 C   0  0  0  0  0  0  0  0  0  0  0  0
 29 30  1  0  0  0
 30 31  1  0  0  0
 30 33  1  0  0  0
 31 32  2  0  0  0
 31 28  1  0  0  0
 28  1  1  0  0  0
  1  2  1  0  0  0
  3  2  1  0  0  0
  3  4  1  0  0  0
  3  9  1  0  0  0
  4  5  2  0  0  0
  4  6  1  0  0  0
  6 18  1  0  0  0
  6  7  1  0  0  0
 18 19  2  0  0  0
 19 20  1  0  0  0
 20 21  2  0  0  0
 21 22  1  0  0  0
 22 23  2  0  0  0
 23 24  1  0  0  0
 24 25  2  0  0  0
 25 26  1  0  0  0
 26 27  2  0  0  0
 27 18  1  0  0  0
 27 22  1  0  0  0
  7  8  1  0  0  0
  8 34  1  0  0  0
  8  3  1  0  0  0
 34 35  1  0  0  0
 35 36  1  0  0  0
 36 37  1  0  0  0
 36 38  1  0  0  0
  9 10  2  0  0  0
 10 11  1  0  0  0
 11 12  1  0  0  0
 11 13  2  0  0  0
 13 14  1  0  0  0
 14 15  2  0  0  0
 15 16  1  0  0  0
 15  9  1  0  0  0
 16 17  2  0  0  0
 16  1  1  0  0  0
M  END
> <minimizedAffinity>
-6.93942

> <CNNscore>
0.1640519500

> <CNNaffinity>
5.7157535553

> <CNN_VS>
0.9376805425

> <CNNaffinity_variance>
0.1487542987

$$$$



 38 42  0  0  0  0  0  0  0  0999 V2000
   -6.6825   -0.6090  -22.7348 N   0  0  0  0  0  0  0  0  0  0  0  0
   -6.1884   -1.6967  -23.5237 C   0  0  0  0  0  0  0  0  0  0  0  0
   -7.1992   -2.4572  -24.2964 C   0  0  0  0  0  0  0  0  0  0  0  0
   -6.7211   -3.8605  -24.4249 C   0  0  0  0  0  0  0  0  0  0  0  0
   -6.8521   -4.7464  -23.5211 O   0  0  0  0  0  0  0  0  0  0  0  0
   -6.1102   -4.0284  -25.7002 N   0  0  0  0  0  0  0  0  0  0  0  0
   -6.0397   -2.6916  -26.2933 C   0  0  0  0  0  0  0  0  0  0  0  0
   -7.3036   -2.0728  -25.7584 C   0  0  0  0  0  0  0  0  0  0  0  0
   -8.5775   -2.3906  -23.7500 C   0  0  0  0  0  0  0  0  0  0  0  0
   -9.5060   -3.2760  -24.2592 C   0  0  0  0  0  0  0  0  0  0  0  0
  -10.8130   -3.2882  -23.8123 C   0  0  0  0  0  0  0  0  0  0  0  0
  -11.6543   -4.1933  -24.3705 F   0  0  0  0  0  0  0  0  0  0  0  0
  -11.2047   -2.3972  -22.8348 C   0  0  0  0  0  0  0  0  0  0  0  0
  -10.2812   -1.5028  -22.3155 C   0  0  0  0  0  0  0  0  0  0  0  0
   -8.9685   -1.5014  -22.7745 C   0  0  0  0  0  0  0  0  0  0  0  0
   -8.0095   -0.5425  -22.2069 C   0  0  0  0  0  0  0  0  0  0  0  0
   -8.3298    0.2847  -21.3145 O   0  0  0  0  0  0  0  0  0  0  0  0
   -5.6699   -5.2643  -26.2530 C   0  0  0  0  0  0  0  0  0  0  0  0
   -6.4897   -6.3865  -26.2787 C   0  0  0  0  0  0  0  0  0  0  0  0
   -6.0953   -7.5482  -26.7906 N   0  0  0  0  0  0  0  0  0  0  0  0
   -4.8678   -7.6519  -27.3018 C   0  0  0  0  0  0  0  0  0  0  0  0
   -3.9967   -6.5871  -27.3138 C   0  0  0  0  0  0  0  0  0  0  0  0
   -2.7191   -6.7040  -27.8487 C   0  0  0  0  0  0  0  0  0  0  0  0
   -1.8473   -5.6207  -27.8553 C   0  0  0  0  0  0  0  0  0  0  0  0
   -2.2650   -4.4186  -27.3219 C   0  0  0  0  0  0  0  0  0  0  0  0
   -3.5417   -4.2640  -26.7757 C   0  0  0  0  0  0  0  0  0  0  0  0
   -4.3959   -5.3605  -26.7801 C   0  0  0  0  0  0  0  0  0  0  0  0
   -5.8145    0.5211  -22.4262 C   0  0  0  0  0  0  0  0  0  0  0  0
   -5.0079   -0.1166  -18.6839 C   0  0  0  0  0  0  0  0  0  0  0  0
   -5.6957    0.1908  -19.9364 N   0  0  0  0  0  0  0  0  0  0  0  0
   -5.0546    0.1994  -21.1897 C   0  0  0  0  0  0  0  0  0  0  0  0
   -3.8123   -0.0680  -21.2893 O   0  0  0  0  0  0  0  0  0  0  0  0
   -6.6564    0.4026  -19.9017 H   0  0  0  0  0  0  0  0  0  0  0  0
   -7.4393   -0.6291  -25.9978 C   0  0  0  0  0  0  0  0  0  0  0  0
   -8.0023   -0.3630  -27.2375 O   0  0  0  0  0  0  0  0  0  0  0  0
   -7.5966    0.8043  -27.8279 C   0  0  0  0  0  0  0  0  0  0  0  0
   -8.2191    2.0300  -27.1650 C   0  0  0  0  0  0  0  0  0  0  0  0
   -6.0959    0.9645  -27.6438 C   0  0  0  0  0  0  0  0  0  0  0  0
 29 30  1  0  0  0
 30 31  1  0  0  0
 30 33  1  0  0  0
 31 32  2  0  0  0
 31 28  1  0  0  0
 28  1  1  0  0  0
  1  2  1  0  0  0
  3  2  1  0  0  0
  3  4  1  0  0  0
  3  9  1  0  0  0
  4  5  2  0  0  0
  4  6  1  0  0  0
  6 18  1  0  0  0
  6  7  1  0  0  0
 18 19  2  0  0  0
 19 20  1  0  0  0
 20 21  2  0  0  0
 21 22  1  0  0  0
 22 23  2  0  0  0
 23 24  1  0  0  0
 24 25  2  0  0  0
 25 26  1  0  0  0
 26 27  2  0  0  0
 27 18  1  0  0  0
 27 22  1  0  0  0
  7  8  1  0  0  0
  8 34  1  0  0  0
  8  3  1  0  0  0
 34 35  1  0  0  0
 35 36  1  0  0  0
 36 37  1  0  0  0
 36 38  1  0  0  0
  9 10  2  0  0  0
 10 11  1  0  0  0
 11 12  1  0  0  0
 11 13  2  0  0  0
 13 14  1  0  0  0
 14 15  2  0  0  0
 15 16  1  0  0  0
 15  9  1  0  0  0
 16 17  2  0  0  0
 16  1  1  0  0  0
M  END
> <minimizedAffinity>
-6.45704

> <CNNscore>
0.1573234946

> <CNNaffinity>
5.9513921738

> <CNN_VS>
0.9362938404

> <CNNaffinity_variance>
0.1585615128

$$$$



 38 42  0  0  0  0  0  0  0  0999 V2000
   -6.4006   -1.5967  -22.2619 N   0  0  0  0  0  0  0  0  0  0  0  0
   -5.9752   -2.6138  -23.1753 C   0  0  0  0  0  0  0  0  0  0  0  0
   -7.0000   -3.1135  -24.1225 C   0  0  0  0  0  0  0  0  0  0  0  0
   -6.6852   -4.5339  -24.4350 C   0  0  0  0  0  0  0  0  0  0  0  0
   -6.9992   -5.5167  -23.6906 O   0  0  0  0  0  0  0  0  0  0  0  0
   -5.9917   -4.5937  -25.6773 N   0  0  0  0  0  0  0  0  0  0  0  0
   -5.7099   -3.2060  -26.0496 C   0  0  0  0  0  0  0  0  0  0  0  0
   -6.9314   -2.5100  -25.5107 C   0  0  0  0  0  0  0  0  0  0  0  0
   -8.4021   -2.9456  -23.6656 C   0  0  0  0  0  0  0  0  0  0  0  0
   -9.3833   -3.6170  -24.3669 C   0  0  0  0  0  0  0  0  0  0  0  0
  -10.7158   -3.5214  -24.0156 C   0  0  0  0  0  0  0  0  0  0  0  0
  -11.6089   -4.2165  -24.7625 F   0  0  0  0  0  0  0  0  0  0  0  0
  -11.0798   -2.7382  -22.9400 C   0  0  0  0  0  0  0  0  0  0  0  0
  -10.1034   -2.0588  -22.2277 C   0  0  0  0  0  0  0  0  0  0  0  0
   -8.7656   -2.1640  -22.5922 C   0  0  0  0  0  0  0  0  0  0  0  0
   -7.7504   -1.4331  -21.8199 C   0  0  0  0  0  0  0  0  0  0  0  0
   -8.0441   -0.7095  -20.8333 O   0  0  0  0  0  0  0  0  0  0  0  0
   -5.6576   -5.7832  -26.3846 C   0  0  0  0  0  0  0  0  0  0  0  0
   -6.4901   -6.3076  -27.3665 C   0  0  0  0  0  0  0  0  0  0  0  0
   -6.1942   -7.4169  -28.0367 N   0  0  0  0  0  0  0  0  0  0  0  0
   -5.0575   -8.0592  -27.7644 C   0  0  0  0  0  0  0  0  0  0  0  0
   -4.1808   -7.6041  -26.8068 C   0  0  0  0  0  0  0  0  0  0  0  0
   -2.9982   -8.2798  -26.5295 C   0  0  0  0  0  0  0  0  0  0  0  0
   -2.1197   -7.8101  -25.5592 C   0  0  0  0  0  0  0  0  0  0  0  0
   -2.4347   -6.6580  -24.8684 C   0  0  0  0  0  0  0  0  0  0  0  0
   -3.6142   -5.9525  -25.1201 C   0  0  0  0  0  0  0  0  0  0  0  0
   -4.4771   -6.4407  -26.0944 C   0  0  0  0  0  0  0  0  0  0  0  0
   -5.4325   -0.6483  -21.7244 C   0  0  0  0  0  0  0  0  0  0  0  0
   -4.2437    1.6176  -24.6423 C   0  0  0  0  0  0  0  0  0  0  0  0
   -4.3850    0.5173  -23.6907 N   0  0  0  0  0  0  0  0  0  0  0  0
   -5.3427    0.5042  -22.6589 C   0  0  0  0  0  0  0  0  0  0  0  0
   -6.1505    1.4783  -22.5058 O   0  0  0  0  0  0  0  0  0  0  0  0
   -3.7794   -0.2542  -23.7757 H   0  0  0  0  0  0  0  0  0  0  0  0
   -6.8710   -1.0418  -25.5316 C   0  0  0  0  0  0  0  0  0  0  0  0
   -8.1315   -0.4759  -25.6566 O   0  0  0  0  0  0  0  0  0  0  0  0
   -8.2747    0.7669  -25.0992 C   0  0  0  0  0  0  0  0  0  0  0  0
   -8.3130    1.8688  -26.1546 C   0  0  0  0  0  0  0  0  0  0  0  0
   -9.6148    0.8453  -24.3854 C   0  0  0  0  0  0  0  0  0  0  0  0
 29 30  1  0  0  0
 30 31  1  0  0  0
 30 33  1  0  0  0
 31 32  2  0  0  0
 31 28  1  0  0  0
 28  1  1  0  0  0
  1  2  1  0  0  0
  3  2  1  0  0  0
  3  4  1  0  0  0
  3  9  1  0  0  0
  4  5  2  0  0  0
  4  6  1  0  0  0
  6 18  1  0  0  0
  6  7  1  0  0  0
 18 19  2  0  0  0
 19 20  1  0  0  0
 20 21  2  0  0  0
 21 22  1  0  0  0
 22 23  2  0  0  0
 23 24  1  0  0  0
 24 25  2  0  0  0
 25 26  1  0  0  0
 26 27  2  0  0  0
 27 18  1  0  0  0
 27 22  1  0  0  0
  7  8  1  0  0  0
  8 34  1  0  0  0
  8  3  1  0  0  0
 34 35  1  0  0  0
 35 36  1  0  0  0
 36 37  1  0  0  0
 36 38  1  0  0  0
  9 10  2  0  0  0
 10 11  1  0  0  0
 11 12  1  0  0  0
 11 13  2  0  0  0
 13 14  1  0  0  0
 14 15  2  0  0  0
 15 16  1  0  0  0
 15  9  1  0  0  0
 16 17  2  0  0  0
 16  1  1  0  0  0
M  END
> <minimizedAffinity>
-5.98700

> <CNNscore>
0.1543068141

> <CNNaffinity>
5.6407046318

> <CNN_VS>
0.8703991771

> <CNNaffinity_variance>
0.2861322165

$$$$



 38 42  0  0  0  0  0  0  0  0999 V2000
   -6.7545   -0.5908  -21.9394 N   0  0  0  0  0  0  0  0  0  0  0  0
   -7.9803    0.1310  -22.1013 C   0  0  0  0  0  0  0  0  0  0  0  0
   -8.2217    0.7191  -23.4403 C   0  0  0  0  0  0  0  0  0  0  0  0
   -9.0425    1.9476  -23.2629 C   0  0  0  0  0  0  0  0  0  0  0  0
   -8.5705    3.0814  -22.9305 O   0  0  0  0  0  0  0  0  0  0  0  0
  -10.4074    1.6363  -23.5237 N   0  0  0  0  0  0  0  0  0  0  0  0
  -10.4668    0.1820  -23.6816 C   0  0  0  0  0  0  0  0  0  0  0  0
   -9.1381   -0.0908  -24.3350 C   0  0  0  0  0  0  0  0  0  0  0  0
   -6.9950    0.9834  -24.2328 C   0  0  0  0  0  0  0  0  0  0  0  0
   -7.1256    1.7628  -25.3645 C   0  0  0  0  0  0  0  0  0  0  0  0
   -6.0400    2.0623  -26.1645 C   0  0  0  0  0  0  0  0  0  0  0  0
   -6.2642    2.8350  -27.2559 F   0  0  0  0  0  0  0  0  0  0  0  0
   -4.7944    1.5736  -25.8293 C   0  0  0  0  0  0  0  0  0  0  0  0
   -4.6503    0.7894  -24.6949 C   0  0  0  0  0  0  0  0  0  0  0  0
   -5.7518    0.4958  -23.8984 C   0  0  0  0  0  0  0  0  0  0  0  0
   -5.5713   -0.3379  -22.7010 C   0  0  0  0  0  0  0  0  0  0  0  0
   -4.4512   -0.8012  -22.3635 O   0  0  0  0  0  0  0  0  0  0  0  0
  -11.4719    2.5780  -23.6066 C   0  0  0  0  0  0  0  0  0  0  0  0
  -12.4940    2.6101  -22.6652 C   0  0  0  0  0  0  0  0  0  0  0  0
  -13.4955    3.4821  -22.7271 N   0  0  0  0  0  0  0  0  0  0  0  0
  -13.5307    4.3645  -23.7266 C   0  0  0  0  0  0  0  0  0  0  0  0
  -12.5565    4.3969  -24.6975 C   0  0  0  0  0  0  0  0  0  0  0  0
  -12.6008    5.3201  -25.7357 C   0  0  0  0  0  0  0  0  0  0  0  0
  -11.6104    5.3434  -26.7115 C   0  0  0  0  0  0  0  0  0  0  0  0
  -10.5745    4.4347  -26.6396 C   0  0  0  0  0  0  0  0  0  0  0  0
  -10.4970    3.4925  -25.6108 C   0  0  0  0  0  0  0  0  0  0  0  0
  -11.4983    3.4879  -24.6466 C   0  0  0  0  0  0  0  0  0  0  0  0
   -6.6616   -1.6570  -20.9493 C   0  0  0  0  0  0  0  0  0  0  0  0
   -5.1086    0.2638  -17.9558 C   0  0  0  0  0  0  0  0  0  0  0  0
   -5.3212   -0.3692  -19.2559 N   0  0  0  0  0  0  0  0  0  0  0  0
   -6.5112   -1.0340  -19.6080 C   0  0  0  0  0  0  0  0  0  0  0  0
   -7.4816   -1.1148  -18.7856 O   0  0  0  0  0  0  0  0  0  0  0  0
   -4.5951   -0.3287  -19.9194 H   0  0  0  0  0  0  0  0  0  0  0  0
   -8.7785   -1.5115  -24.4445 C   0  0  0  0  0  0  0  0  0  0  0  0
   -8.7898   -1.9459  -25.7621 O   0  0  0  0  0  0  0  0  0  0  0  0
   -7.6303   -2.5305  -26.1973 C   0  0  0  0  0  0  0  0  0  0  0  0
   -6.7628   -1.5612  -26.9957 C   0  0  0  0  0  0  0  0  0  0  0  0
   -6.7882   -2.9300  -24.9961 C   0  0  0  0  0  0  0  0  0  0  0  0
 29 30  1  0  0  0
 30 31  1  0  0  0
 30 33  1  0  0  0
 31 32  2  0  0  0
 31 28  1  0  0  0
 28  1  1  0  0  0
  1  2  1  0  0  0
  3  2  1  0  0  0
  3  4  1  0  0  0
  3  9  1  0  0  0
  4  5  2  0  0  0
  4  6  1  0  0  0
  6 18  1  0  0  0
  6  7  1  0  0  0
 18 19  2  0  0  0
 19 20  1  0  0  0
 20 21  2  0  0  0
 21 22  1  0  0  0
 22 23  2  0  0  0
 23 24  1  0  0  0
 24 25  2  0  0  0
 25 26  1  0  0  0
 26 27  2  0  0  0
 27 18  1  0  0  0
 27 22  1  0  0  0
  7  8  1  0  0  0
  8 34  1  0  0  0
  8  3  1  0  0  0
 34 35  1  0  0  0
 35 36  1  0  0  0
 36 37  1  0  0  0
 36 38  1  0  0  0
  9 10  2  0  0  0
 10 11  1  0  0  0
 11 12  1  0  0  0
 11 13  2  0  0  0
 13 14  1  0  0  0
 14 15  2  0  0  0
 15 16  1  0  0  0
 15  9  1  0  0  0
 16 17  2  0  0  0
 16  1  1  0  0  0
M  END
> <minimizedAffinity>
-6.74980

> <CNNscore>
0.1542650014

> <CNNaffinity>
5.8613786697

> <CNN_VS>
0.9042055607

> <CNNaffinity_variance>
0.1277028471

$$$$



 31 33  0  0  0  0  0  0  0  0999 V2000
   -8.6965   -2.2607  -23.5486 N   0  0  0  0  0  0  0  0  0  0  0  0
   -7.7540   -1.9589  -22.5050 C   0  0  0  0  0  0  0  0  0  0  0  0
   -6.5557   -2.3586  -22.5526 O   0  0  0  0  0  0  0  0  0  0  0  0
   -8.1133   -1.1940  -21.3588 N   0  0  0  0  0  0  0  0  0  0  0  0
   -9.0260   -0.8437  -21.2423 H   0  0  0  0  0  0  0  0  0  0  0  0
   -7.1050   -0.9574  -20.3936 C   0  0  0  0  0  0  0  0  0  0  0  0
   -7.0934   -1.7826  -19.2647 C   0  0  0  0  0  0  0  0  0  0  0  0
   -6.1619   -1.6132  -18.3067 N   0  0  0  0  0  0  0  0  0  0  0  0
   -5.2148   -0.6434  -18.4097 C   0  0  0  0  0  0  0  0  0  0  0  0
   -5.2154    0.1869  -19.5316 C   0  0  0  0  0  0  0  0  0  0  0  0
   -4.2381    1.1581  -19.5980 C   0  0  0  0  0  0  0  0  0  0  0  0
   -4.2370    1.9874  -20.7166 C   0  0  0  0  0  0  0  0  0  0  0  0
   -5.1865    1.8300  -21.7136 C   0  0  0  0  0  0  0  0  0  0  0  0
   -6.1692    0.8505  -21.6428 C   0  0  0  0  0  0  0  0  0  0  0  0
   -6.1506    0.0372  -20.5210 C   0  0  0  0  0  0  0  0  0  0  0  0
  -10.0054   -1.7635  -23.3907 C   0  0  0  0  0  0  0  0  0  0  0  0
  -10.2498   -0.4850  -23.8723 C   0  0  0  0  0  0  0  0  0  0  0  0
  -11.4831    0.1243  -23.7879 C   0  0  0  0  0  0  0  0  0  0  0  0
  -12.5384   -0.5330  -23.2085 C   0  0  0  0  0  0  0  0  0  0  0  0
  -12.3096   -1.8010  -22.7271 C   0  0  0  0  0  0  0  0  0  0  0  0
  -13.6428   -2.6571  -21.9838 Cl  0  0  0  0  0  0  0  0  0  0  0  0
  -11.0569   -2.4165  -22.8143 C   0  0  0  0  0  0  0  0  0  0  0  0
   -8.2553   -3.0699  -24.6270 C   0  0  0  0  0  0  0  0  0  0  0  0
  -10.0286   -4.6171  -25.4012 C   0  0  0  0  0  0  0  0  0  0  0  0
   -8.8949   -4.3966  -24.7653 C   0  0  0  0  0  0  0  0  0  0  0  0
   -8.1812   -5.5241  -24.1321 C   0  0  0  0  0  0  0  0  0  0  0  0
   -7.9030   -6.5802  -24.7739 O   0  0  0  0  0  0  0  0  0  0  0  0
   -7.7667   -5.4918  -22.7748 N   0  0  0  0  0  0  0  0  0  0  0  0
   -7.9358   -4.7161  -22.1926 H   0  0  0  0  0  0  0  0  0  0  0  0
   -7.0673   -6.6947  -22.2957 C   0  0  0  0  0  0  0  0  0  0  0  0
   -5.7180   -6.3918  -21.7326 C   0  0  0  0  0  0  0  0  0  0  0  0
 24 25  2  0  0  0
 25 23  1  0  0  0
 25 26  1  0  0  0
 23  1  1  0  0  0
  1  2  1  0  0  0
  1 16  1  0  0  0
  2  3  2  0  0  0
  2  4  1  0  0  0
  4  6  1  0  0  0
  4  5  1  0  0  0
  6  7  2  0  0  0
  7  8  1  0  0  0
  8  9  2  0  0  0
  9 10  1  0  0  0
 10 11  2  0  0  0
 11 12  1  0  0  0
 12 13  2  0  0  0
 13 14  1  0  0  0
 14 15  2  0  0  0
 15  6  1  0  0  0
 15 10  1  0  0  0
 16 17  2  0  0  0
 17 18  1  0  0  0
 18 19  2  0  0  0
 19 20  1  0  0  0
 20 21  1  0  0  0
 20 22  2  0  0  0
 22 16  1  0  0  0
 26 27  2  0  0  0
 26 28  1  0  0  0
 28 30  1  0  0  0
 28 29  1  0  0  0
 30 31  1  0  0  0
M  END
> <minimizedAffinity>
-8.14197

> <CNNscore>
0.7357832789

> <CNNaffinity>
6.5084714890

> <CNN_VS>
4.7888245583

> <CNNaffinity_variance>
0.1827998608

$$$$



 31 33  0  0  0  0  0  0  0  0999 V2000
   -7.9824   -2.4940  -23.1663 N   0  0  0  0  0  0  0  0  0  0  0  0
   -7.4268   -1.7602  -22.0611 C   0  0  0  0  0  0  0  0  0  0  0  0
   -7.9580   -0.6960  -21.6329 O   0  0  0  0  0  0  0  0  0  0  0  0
   -6.2484   -2.1873  -21.3850 N   0  0  0  0  0  0  0  0  0  0  0  0
   -5.7716   -3.0055  -21.6541 H   0  0  0  0  0  0  0  0  0  0  0  0
   -5.7903   -1.3877  -20.3103 C   0  0  0  0  0  0  0  0  0  0  0  0
   -6.3188   -1.6545  -19.0435 C   0  0  0  0  0  0  0  0  0  0  0  0
   -5.9273   -0.9322  -17.9762 N   0  0  0  0  0  0  0  0  0  0  0  0
   -5.0149    0.0680  -18.0997 C   0  0  0  0  0  0  0  0  0  0  0  0
   -4.4798    0.3444  -19.3587 C   0  0  0  0  0  0  0  0  0  0  0  0
   -3.5573    1.3666  -19.4415 C   0  0  0  0  0  0  0  0  0  0  0  0
   -3.0223    1.6438  -20.6969 C   0  0  0  0  0  0  0  0  0  0  0  0
   -3.4115    0.9127  -21.8078 C   0  0  0  0  0  0  0  0  0  0  0  0
   -4.3409   -0.1162  -21.7201 C   0  0  0  0  0  0  0  0  0  0  0  0
   -4.8597   -0.3741  -20.4612 C   0  0  0  0  0  0  0  0  0  0  0  0
   -7.3068   -3.6667  -23.5586 C   0  0  0  0  0  0  0  0  0  0  0  0
   -6.4855   -3.5707  -24.6733 C   0  0  0  0  0  0  0  0  0  0  0  0
   -5.7633   -4.6362  -25.1658 C   0  0  0  0  0  0  0  0  0  0  0  0
   -5.8357   -5.8604  -24.5518 C   0  0  0  0  0  0  0  0  0  0  0  0
   -6.6461   -5.9693  -23.4457 C   0  0  0  0  0  0  0  0  0  0  0  0
   -6.7527   -7.5230  -22.6474 Cl  0  0  0  0  0  0  0  0  0  0  0  0
   -7.3777   -4.8861  -22.9485 C   0  0  0  0  0  0  0  0  0  0  0  0
   -9.1320   -1.9620  -23.8047 C   0  0  0  0  0  0  0  0  0  0  0  0
  -11.2916   -3.0691  -23.3062 C   0  0  0  0  0  0  0  0  0  0  0  0
  -10.2356   -2.9081  -24.0791 C   0  0  0  0  0  0  0  0  0  0  0  0
  -10.1053   -3.7080  -25.3140 C   0  0  0  0  0  0  0  0  0  0  0  0
   -9.8525   -3.1692  -26.4322 O   0  0  0  0  0  0  0  0  0  0  0  0
  -10.2546   -5.1196  -25.3215 N   0  0  0  0  0  0  0  0  0  0  0  0
  -10.4520   -5.6310  -24.5036 H   0  0  0  0  0  0  0  0  0  0  0  0
  -10.0948   -5.7681  -26.6328 C   0  0  0  0  0  0  0  0  0  0  0  0
   -8.8566   -6.5981  -26.7190 C   0  0  0  0  0  0  0  0  0  0  0  0
 24 25  2  0  0  0
 25 23  1  0  0  0
 25 26  1  0  0  0
 23  1  1  0  0  0
  1  2  1  0  0  0
  1 16  1  0  0  0
  2  3  2  0  0  0
  2  4  1  0  0  0
  4  6  1  0  0  0
  4  5  1  0  0  0
  6  7  2  0  0  0
  7  8  1  0  0  0
  8  9  2  0  0  0
  9 10  1  0  0  0
 10 11  2  0  0  0
 11 12  1  0  0  0
 12 13  2  0  0  0
 13 14  1  0  0  0
 14 15  2  0  0  0
 15  6  1  0  0  0
 15 10  1  0  0  0
 16 17  2  0  0  0
 17 18  1  0  0  0
 18 19  2  0  0  0
 19 20  1  0  0  0
 20 21  1  0  0  0
 20 22  2  0  0  0
 22 16  1  0  0  0
 26 27  2  0  0  0
 26 28  1  0  0  0
 28 30  1  0  0  0
 28 29  1  0  0  0
 30 31  1  0  0  0
M  END
> <minimizedAffinity>
-7.78726

> <CNNscore>
0.7072649002

> <CNNaffinity>
6.2276077271

> <CNN_VS>
4.4045681953

> <CNNaffinity_variance>
0.2163547724

$$$$



 31 33  0  0  0  0  0  0  0  0999 V2000
   -8.6739   -1.7040  -23.1597 N   0  0  0  0  0  0  0  0  0  0  0  0
   -7.9877   -1.0857  -22.0572 C   0  0  0  0  0  0  0  0  0  0  0  0
   -8.3821    0.0045  -21.5532 O   0  0  0  0  0  0  0  0  0  0  0  0
   -6.8262   -1.6628  -21.4691 N   0  0  0  0  0  0  0  0  0  0  0  0
   -6.4519   -2.5109  -21.8005 H   0  0  0  0  0  0  0  0  0  0  0  0
   -6.2316   -0.9678  -20.3885 C   0  0  0  0  0  0  0  0  0  0  0  0
   -6.8274   -1.1089  -19.1314 C   0  0  0  0  0  0  0  0  0  0  0  0
   -6.3139   -0.4757  -18.0593 N   0  0  0  0  0  0  0  0  0  0  0  0
   -5.2110    0.3117  -18.1686 C   0  0  0  0  0  0  0  0  0  0  0  0
   -4.6069    0.4608  -19.4178 C   0  0  0  0  0  0  0  0  0  0  0  0
   -3.4904    1.2680  -19.4862 C   0  0  0  0  0  0  0  0  0  0  0  0
   -2.8861    1.4180  -20.7318 C   0  0  0  0  0  0  0  0  0  0  0  0
   -3.3985    0.7753  -21.8475 C   0  0  0  0  0  0  0  0  0  0  0  0
   -4.5233   -0.0369  -21.7742 C   0  0  0  0  0  0  0  0  0  0  0  0
   -5.1076   -0.1713  -20.5249 C   0  0  0  0  0  0  0  0  0  0  0  0
   -8.1455   -2.9183  -23.6408 C   0  0  0  0  0  0  0  0  0  0  0  0
   -7.6175   -2.9043  -24.9243 C   0  0  0  0  0  0  0  0  0  0  0  0
   -7.0654   -4.0179  -25.5195 C   0  0  0  0  0  0  0  0  0  0  0  0
   -7.0190   -5.2097  -24.8423 C   0  0  0  0  0  0  0  0  0  0  0  0
   -7.5389   -5.2374  -23.5691 C   0  0  0  0  0  0  0  0  0  0  0  0
   -7.4896   -6.7484  -22.6877 Cl  0  0  0  0  0  0  0  0  0  0  0  0
   -8.0984   -4.1055  -22.9680 C   0  0  0  0  0  0  0  0  0  0  0  0
   -9.7940   -1.0272  -23.7072 C   0  0  0  0  0  0  0  0  0  0  0  0
  -11.4095   -2.6952  -22.8436 C   0  0  0  0  0  0  0  0  0  0  0  0
  -11.1275   -1.4719  -23.2464 C   0  0  0  0  0  0  0  0  0  0  0  0
  -12.1871   -0.4429  -23.2544 C   0  0  0  0  0  0  0  0  0  0  0  0
  -13.4154   -0.7525  -23.2565 O   0  0  0  0  0  0  0  0  0  0  0  0
  -11.8941    0.9461  -23.2601 N   0  0  0  0  0  0  0  0  0  0  0  0
  -10.9708    1.2878  -23.2590 H   0  0  0  0  0  0  0  0  0  0  0  0
  -13.0620    1.8414  -23.2678 C   0  0  0  0  0  0  0  0  0  0  0  0
  -12.9633    2.9274  -22.2479 C   0  0  0  0  0  0  0  0  0  0  0  0
 24 25  2  0  0  0
 25 23  1  0  0  0
 25 26  1  0  0  0
 23  1  1  0  0  0
  1  2  1  0  0  0
  1 16  1  0  0  0
  2  3  2  0  0  0
  2  4  1  0  0  0
  4  6  1  0  0  0
  4  5  1  0  0  0
  6  7  2  0  0  0
  7  8  1  0  0  0
  8  9  2  0  0  0
  9 10  1  0  0  0
 10 11  2  0  0  0
 11 12  1  0  0  0
 12 13  2  0  0  0
 13 14  1  0  0  0
 14 15  2  0  0  0
 15  6  1  0  0  0
 15 10  1  0  0  0
 16 17  2  0  0  0
 17 18  1  0  0  0
 18 19  2  0  0  0
 19 20  1  0  0  0
 20 21  1  0  0  0
 20 22  2  0  0  0
 22 16  1  0  0  0
 26 27  2  0  0  0
 26 28  1  0  0  0
 28 30  1  0  0  0
 28 29  1  0  0  0
 30 31  1  0  0  0
M  END
> <minimizedAffinity>
-8.14852

> <CNNscore>
0.6863057017

> <CNNaffinity>
6.4261007309

> <CNN_VS>
4.4102697372

> <CNNaffinity_variance>
0.2200110257

$$$$



 31 33  0  0  0  0  0  0  0  0999 V2000
   -8.6500   -2.8115  -23.0734 N   0  0  0  0  0  0  0  0  0  0  0  0
   -7.6977   -2.3385  -22.1047 C   0  0  0  0  0  0  0  0  0  0  0  0
   -6.5410   -2.8390  -22.0075 O   0  0  0  0  0  0  0  0  0  0  0  0
   -8.0001   -1.2813  -21.1999 N   0  0  0  0  0  0  0  0  0  0  0  0
   -8.8780   -0.8358  -21.2078 H   0  0  0  0  0  0  0  0  0  0  0  0
   -6.9874   -0.8968  -20.2885 C   0  0  0  0  0  0  0  0  0  0  0  0
   -6.9367   -1.5728  -19.0655 C   0  0  0  0  0  0  0  0  0  0  0  0
   -5.9988   -1.2579  -18.1515 N   0  0  0  0  0  0  0  0  0  0  0  0
   -5.0827   -0.2822  -18.3907 C   0  0  0  0  0  0  0  0  0  0  0  0
   -5.1225    0.4001  -19.6075 C   0  0  0  0  0  0  0  0  0  0  0  0
   -4.1760    1.3826  -19.8110 C   0  0  0  0  0  0  0  0  0  0  0  0
   -4.2141    2.0644  -21.0246 C   0  0  0  0  0  0  0  0  0  0  0  0
   -5.1708    1.7560  -21.9784 C   0  0  0  0  0  0  0  0  0  0  0  0
   -6.1224    0.7656  -21.7695 C   0  0  0  0  0  0  0  0  0  0  0  0
   -6.0652    0.1006  -20.5550 C   0  0  0  0  0  0  0  0  0  0  0  0
   -9.9093   -2.1797  -23.0923 C   0  0  0  0  0  0  0  0  0  0  0  0
   -9.9655   -0.9167  -23.6651 C   0  0  0  0  0  0  0  0  0  0  0  0
  -11.1305   -0.1858  -23.7543 C   0  0  0  0  0  0  0  0  0  0  0  0
  -12.3050   -0.6985  -23.2655 C   0  0  0  0  0  0  0  0  0  0  0  0
  -12.2632   -1.9496  -22.6953 C   0  0  0  0  0  0  0  0  0  0  0  0
  -13.7509   -2.6221  -22.0654 Cl  0  0  0  0  0  0  0  0  0  0  0  0
  -11.0793   -2.6887  -22.6064 C   0  0  0  0  0  0  0  0  0  0  0  0
   -8.2710   -3.9013  -23.8986 C   0  0  0  0  0  0  0  0  0  0  0  0
   -8.7735   -4.2246  -26.3029 C   0  0  0  0  0  0  0  0  0  0  0  0
   -8.1086   -3.6156  -25.3410 C   0  0  0  0  0  0  0  0  0  0  0  0
   -7.1235   -2.5695  -25.6827 C   0  0  0  0  0  0  0  0  0  0  0  0
   -7.4749   -1.4683  -26.2009 O   0  0  0  0  0  0  0  0  0  0  0  0
   -5.7325   -2.7345  -25.4523 N   0  0  0  0  0  0  0  0  0  0  0  0
   -5.3600   -3.5541  -25.0538 H   0  0  0  0  0  0  0  0  0  0  0  0
   -4.8842   -1.5992  -25.8484 C   0  0  0  0  0  0  0  0  0  0  0  0
   -4.3843   -0.8168  -24.6790 C   0  0  0  0  0  0  0  0  0  0  0  0
 24 25  2  0  0  0
 25 23  1  0  0  0
 25 26  1  0  0  0
 23  1  1  0  0  0
  1  2  1  0  0  0
  1 16  1  0  0  0
  2  3  2  0  0  0
  2  4  1  0  0  0
  4  6  1  0  0  0
  4  5  1  0  0  0
  6  7  2  0  0  0
  7  8  1  0  0  0
  8  9  2  0  0  0
  9 10  1  0  0  0
 10 11  2  0  0  0
 11 12  1  0  0  0
 12 13  2  0  0  0
 13 14  1  0  0  0
 14 15  2  0  0  0
 15  6  1  0  0  0
 15 10  1  0  0  0
 16 17  2  0  0  0
 17 18  1  0  0  0
 18 19  2  0  0  0
 19 20  1  0  0  0
 20 21  1  0  0  0
 20 22  2  0  0  0
 22 16  1  0  0  0
 26 27  2  0  0  0
 26 28  1  0  0  0
 28 30  1  0  0  0
 28 29  1  0  0  0
 30 31  1  0  0  0
M  END
> <minimizedAffinity>
-7.11396

> <CNNscore>
0.6446492076

> <CNNaffinity>
6.2326378822

> <CNN_VS>
4.0178651810

> <CNNaffinity_variance>
0.1073635072

$$$$



 31 33  0  0  0  0  0  0  0  0999 V2000
   -7.7029   -2.5933  -23.4751 N   0  0  0  0  0  0  0  0  0  0  0  0
   -7.2246   -1.8135  -22.3652 C   0  0  0  0  0  0  0  0  0  0  0  0
   -7.7479   -0.7057  -22.0539 O   0  0  0  0  0  0  0  0  0  0  0  0
   -6.1359   -2.2414  -21.5530 N   0  0  0  0  0  0  0  0  0  0  0  0
   -5.6713   -3.0920  -21.7259 H   0  0  0  0  0  0  0  0  0  0  0  0
   -5.7487   -1.3942  -20.4869 C   0  0  0  0  0  0  0  0  0  0  0  0
   -6.3700   -1.5967  -19.2506 C   0  0  0  0  0  0  0  0  0  0  0  0
   -6.0495   -0.8267  -18.1930 N   0  0  0  0  0  0  0  0  0  0  0  0
   -5.1207    0.1606  -18.2971 C   0  0  0  0  0  0  0  0  0  0  0  0
   -4.4933    0.3730  -19.5256 C   0  0  0  0  0  0  0  0  0  0  0  0
   -3.5573    1.3842  -19.5894 C   0  0  0  0  0  0  0  0  0  0  0  0
   -2.9302    1.5975  -20.8143 C   0  0  0  0  0  0  0  0  0  0  0  0
   -3.2454    0.8165  -21.9148 C   0  0  0  0  0  0  0  0  0  0  0  0
   -4.1888   -0.2010  -21.8462 C   0  0  0  0  0  0  0  0  0  0  0  0
   -4.7997   -0.3950  -20.6176 C   0  0  0  0  0  0  0  0  0  0  0  0
   -7.0441   -3.8124  -23.7302 C   0  0  0  0  0  0  0  0  0  0  0  0
   -6.1987   -3.8468  -24.8304 C   0  0  0  0  0  0  0  0  0  0  0  0
   -5.4890   -4.9705  -25.1951 C   0  0  0  0  0  0  0  0  0  0  0  0
   -5.5992   -6.1236  -24.4608 C   0  0  0  0  0  0  0  0  0  0  0  0
   -6.4339   -6.1032  -23.3676 C   0  0  0  0  0  0  0  0  0  0  0  0
   -6.5888   -7.5644  -22.4171 Cl  0  0  0  0  0  0  0  0  0  0  0  0
   -7.1526   -4.9612  -23.0002 C   0  0  0  0  0  0  0  0  0  0  0  0
   -8.7621   -2.0595  -24.2532 C   0  0  0  0  0  0  0  0  0  0  0  0
  -10.2570   -3.9460  -24.8398 C   0  0  0  0  0  0  0  0  0  0  0  0
  -10.0430   -2.7991  -24.2257 C   0  0  0  0  0  0  0  0  0  0  0  0
  -11.1302   -2.1742  -23.4452 C   0  0  0  0  0  0  0  0  0  0  0  0
  -11.1336   -0.9349  -23.1829 O   0  0  0  0  0  0  0  0  0  0  0  0
  -12.2295   -2.9204  -22.9455 N   0  0  0  0  0  0  0  0  0  0  0  0
  -12.3181   -3.8893  -23.0961 H   0  0  0  0  0  0  0  0  0  0  0  0
  -13.2279   -2.1497  -22.1874 C   0  0  0  0  0  0  0  0  0  0  0  0
  -13.9377   -2.9737  -21.1643 C   0  0  0  0  0  0  0  0  0  0  0  0
 24 25  2  0  0  0
 25 23  1  0  0  0
 25 26  1  0  0  0
 23  1  1  0  0  0
  1  2  1  0  0  0
  1 16  1  0  0  0
  2  3  2  0  0  0
  2  4  1  0  0  0
  4  6  1  0  0  0
  4  5  1  0  0  0
  6  7  2  0  0  0
  7  8  1  0  0  0
  8  9  2  0  0  0
  9 10  1  0  0  0
 10 11  2  0  0  0
 11 12  1  0  0  0
 12 13  2  0  0  0
 13 14  1  0  0  0
 14 15  2  0  0  0
 15  6  1  0  0  0
 15 10  1  0  0  0
 16 17  2  0  0  0
 17 18  1  0  0  0
 18 19  2  0  0  0
 19 20  1  0  0  0
 20 21  1  0  0  0
 20 22  2  0  0  0
 22 16  1  0  0  0
 26 27  2  0  0  0
 26 28  1  0  0  0
 28 30  1  0  0  0
 28 29  1  0  0  0
 30 31  1  0  0  0
M  END
> <minimizedAffinity>
-7.62459

> <CNNscore>
0.5930696726

> <CNNaffinity>
6.2582674026

> <CNN_VS>
3.7115886211

> <CNNaffinity_variance>
0.2190504372

$$$$



 31 33  0  0  0  0  0  0  0  0999 V2000
   -6.9348   -0.2929  -22.5105 N   0  0  0  0  0  0  0  0  0  0  0  0
   -8.3126    0.1134  -22.5818 C   0  0  0  0  0  0  0  0  0  0  0  0
   -8.8436    0.8304  -21.6861 O   0  0  0  0  0  0  0  0  0  0  0  0
   -9.1588   -0.2665  -23.6623 N   0  0  0  0  0  0  0  0  0  0  0  0
   -8.8256   -0.8242  -24.4021 H   0  0  0  0  0  0  0  0  0  0  0  0
  -10.4984    0.1902  -23.6299 C   0  0  0  0  0  0  0  0  0  0  0  0
  -10.7297    1.5213  -23.9904 C   0  0  0  0  0  0  0  0  0  0  0  0
  -11.9800    2.0219  -23.9818 N   0  0  0  0  0  0  0  0  0  0  0  0
  -13.0433    1.2534  -23.6255 C   0  0  0  0  0  0  0  0  0  0  0  0
  -12.8260   -0.0769  -23.2636 C   0  0  0  0  0  0  0  0  0  0  0  0
  -13.9308   -0.8226  -22.9088 C   0  0  0  0  0  0  0  0  0  0  0  0
  -13.7159   -2.1502  -22.5474 C   0  0  0  0  0  0  0  0  0  0  0  0
  -12.4375   -2.6848  -22.5495 C   0  0  0  0  0  0  0  0  0  0  0  0
  -11.3273   -1.9302  -22.9075 C   0  0  0  0  0  0  0  0  0  0  0  0
  -11.5652   -0.6122  -23.2633 C   0  0  0  0  0  0  0  0  0  0  0  0
   -6.4489   -1.0913  -23.5649 C   0  0  0  0  0  0  0  0  0  0  0  0
   -6.5349   -2.4664  -23.3974 C   0  0  0  0  0  0  0  0  0  0  0  0
   -6.1017   -3.3654  -24.3479 C   0  0  0  0  0  0  0  0  0  0  0  0
   -5.5562   -2.9163  -25.5234 C   0  0  0  0  0  0  0  0  0  0  0  0
   -5.4651   -1.5554  -25.7022 C   0  0  0  0  0  0  0  0  0  0  0  0
   -4.7719   -0.9614  -27.1952 Cl  0  0  0  0  0  0  0  0  0  0  0  0
   -5.9057   -0.6458  -24.7357 C   0  0  0  0  0  0  0  0  0  0  0  0
   -6.1865    0.0968  -21.3700 C   0  0  0  0  0  0  0  0  0  0  0  0
   -3.7508    0.5390  -21.2725 C   0  0  0  0  0  0  0  0  0  0  0  0
   -4.9703    0.9016  -21.6184 C   0  0  0  0  0  0  0  0  0  0  0  0
   -5.1821    2.1931  -22.3029 C   0  0  0  0  0  0  0  0  0  0  0  0
   -4.7565    2.4012  -23.4777 O   0  0  0  0  0  0  0  0  0  0  0  0
   -5.8711    3.2718  -21.6891 N   0  0  0  0  0  0  0  0  0  0  0  0
   -6.2397    3.2089  -20.7784 H   0  0  0  0  0  0  0  0  0  0  0  0
   -5.9977    4.4904  -22.5043 C   0  0  0  0  0  0  0  0  0  0  0  0
   -7.1114    5.3753  -22.0502 C   0  0  0  0  0  0  0  0  0  0  0  0
 24 25  2  0  0  0
 25 23  1  0  0  0
 25 26  1  0  0  0
 23  1  1  0  0  0
  1  2  1  0  0  0
  1 16  1  0  0  0
  2  3  2  0  0  0
  2  4  1  0  0  0
  4  6  1  0  0  0
  4  5  1  0  0  0
  6  7  2  0  0  0
  7  8  1  0  0  0
  8  9  2  0  0  0
  9 10  1  0  0  0
 10 11  2  0  0  0
 11 12  1  0  0  0
 12 13  2  0  0  0
 13 14  1  0  0  0
 14 15  2  0  0  0
 15  6  1  0  0  0
 15 10  1  0  0  0
 16 17  2  0  0  0
 17 18  1  0  0  0
 18 19  2  0  0  0
 19 20  1  0  0  0
 20 21  1  0  0  0
 20 22  2  0  0  0
 22 16  1  0  0  0
 26 27  2  0  0  0
 26 28  1  0  0  0
 28 30  1  0  0  0
 28 29  1  0  0  0
 30 31  1  0  0  0
M  END
> <minimizedAffinity>
-5.82934

> <CNNscore>
0.4427138865

> <CNNaffinity>
6.0012121201

> <CNN_VS>
2.6568200588

> <CNNaffinity_variance>
0.1231737360

$$$$



 31 33  0  0  0  0  0  0  0  0999 V2000
   -8.9596   -2.0472  -23.4004 N   0  0  0  0  0  0  0  0  0  0  0  0
   -7.9967   -1.8380  -22.3527 C   0  0  0  0  0  0  0  0  0  0  0  0
   -6.9648   -2.5598  -22.2415 O   0  0  0  0  0  0  0  0  0  0  0  0
   -8.1476   -0.8082  -21.3808 N   0  0  0  0  0  0  0  0  0  0  0  0
   -8.9222   -0.2008  -21.3942 H   0  0  0  0  0  0  0  0  0  0  0  0
   -7.1386   -0.6932  -20.3943 C   0  0  0  0  0  0  0  0  0  0  0  0
   -7.2428   -1.5216  -19.2726 C   0  0  0  0  0  0  0  0  0  0  0  0
   -6.3177   -1.4646  -18.2955 N   0  0  0  0  0  0  0  0  0  0  0  0
   -5.2654   -0.6072  -18.3718 C   0  0  0  0  0  0  0  0  0  0  0  0
   -5.1499    0.2250  -19.4862 C   0  0  0  0  0  0  0  0  0  0  0  0
   -4.0682    1.0802  -19.5254 C   0  0  0  0  0  0  0  0  0  0  0  0
   -3.9512    1.9113  -20.6366 C   0  0  0  0  0  0  0  0  0  0  0  0
   -4.8921    1.8684  -21.6530 C   0  0  0  0  0  0  0  0  0  0  0  0
   -5.9801    1.0056  -21.6096 C   0  0  0  0  0  0  0  0  0  0  0  0
   -6.0759    0.1882  -20.4947 C   0  0  0  0  0  0  0  0  0  0  0  0
  -10.0718   -1.1826  -23.4279 C   0  0  0  0  0  0  0  0  0  0  0  0
  -11.3071   -1.7450  -23.1381 C   0  0  0  0  0  0  0  0  0  0  0  0
  -12.4772   -1.0171  -23.1252 C   0  0  0  0  0  0  0  0  0  0  0  0
  -12.4570    0.3251  -23.4066 C   0  0  0  0  0  0  0  0  0  0  0  0
  -11.2390    0.8952  -23.6954 C   0  0  0  0  0  0  0  0  0  0  0  0
  -11.1912    2.6068  -24.0573 Cl  0  0  0  0  0  0  0  0  0  0  0  0
  -10.0534    0.1537  -23.7076 C   0  0  0  0  0  0  0  0  0  0  0  0
   -8.7448   -3.1295  -24.2921 C   0  0  0  0  0  0  0  0  0  0  0  0
   -7.5422   -1.7762  -25.9833 C   0  0  0  0  0  0  0  0  0  0  0  0
   -8.3358   -2.7815  -25.6705 C   0  0  0  0  0  0  0  0  0  0  0  0
   -8.8767   -3.6454  -26.7395 C   0  0  0  0  0  0  0  0  0  0  0  0
   -9.2743   -3.1681  -27.8435 O   0  0  0  0  0  0  0  0  0  0  0  0
   -8.9828   -5.0535  -26.5946 N   0  0  0  0  0  0  0  0  0  0  0  0
   -8.7006   -5.5196  -25.7746 H   0  0  0  0  0  0  0  0  0  0  0  0
   -9.5425   -5.7705  -27.7514 C   0  0  0  0  0  0  0  0  0  0  0  0
   -8.5364   -6.6356  -28.4361 C   0  0  0  0  0  0  0  0  0  0  0  0
 24 25  2  0  0  0
 25 23  1  0  0  0
 25 26  1  0  0  0
 23  1  1  0  0  0
  1  2  1  0  0  0
  1 16  1  0  0  0
  2  3  2  0  0  0
  2  4  1  0  0  0
  4  6  1  0  0  0
  4  5  1  0  0  0
  6  7  2  0  0  0
  7  8  1  0  0  0
  8  9  2  0  0  0
  9 10  1  0  0  0
 10 11  2  0  0  0
 11 12  1  0  0  0
 12 13  2  0  0  0
 13 14  1  0  0  0
 14 15  2  0  0  0
 15  6  1  0  0  0
 15 10  1  0  0  0
 16 17  2  0  0  0
 17 18  1  0  0  0
 18 19  2  0  0  0
 19 20  1  0  0  0
 20 21  1  0  0  0
 20 22  2  0  0  0
 22 16  1  0  0  0
 26 27  2  0  0  0
 26 28  1  0  0  0
 28 30  1  0  0  0
 28 29  1  0  0  0
 30 31  1  0  0  0
M  END
> <minimizedAffinity>
-7.82935

> <CNNscore>
0.3753111362

> <CNNaffinity>
5.8700246811

> <CNN_VS>
2.2030856609

> <CNNaffinity_variance>
0.0981638506

$$$$



 31 33  0  0  0  0  0  0  0  0999 V2000
   -8.9258   -1.3037  -22.4665 N   0  0  0  0  0  0  0  0  0  0  0  0
   -9.1503    0.1017  -22.6742 C   0  0  0  0  0  0  0  0  0  0  0  0
   -8.8807    0.9586  -21.7848 O   0  0  0  0  0  0  0  0  0  0  0  0
   -9.6882    0.6105  -23.8907 N   0  0  0  0  0  0  0  0  0  0  0  0
   -9.9259    0.0121  -24.6354 H   0  0  0  0  0  0  0  0  0  0  0  0
   -9.8673    2.0116  -23.9858 C   0  0  0  0  0  0  0  0  0  0  0  0
   -8.7624    2.7727  -24.3798 C   0  0  0  0  0  0  0  0  0  0  0  0
   -8.8621    4.1113  -24.4910 N   0  0  0  0  0  0  0  0  0  0  0  0
  -10.0301    4.7544  -24.2256 C   0  0  0  0  0  0  0  0  0  0  0  0
  -11.1404    4.0062  -23.8314 C   0  0  0  0  0  0  0  0  0  0  0  0
  -12.3061    4.6964  -23.5715 C   0  0  0  0  0  0  0  0  0  0  0  0
  -13.4150    3.9515  -23.1781 C   0  0  0  0  0  0  0  0  0  0  0  0
  -13.3336    2.5734  -23.0575 C   0  0  0  0  0  0  0  0  0  0  0  0
  -12.1575    1.8822  -23.3203 C   0  0  0  0  0  0  0  0  0  0  0  0
  -11.0675    2.6439  -23.7101 C   0  0  0  0  0  0  0  0  0  0  0  0
   -9.2629   -2.1680  -23.5270 C   0  0  0  0  0  0  0  0  0  0  0  0
  -10.5002   -2.7926  -23.4540 C   0  0  0  0  0  0  0  0  0  0  0  0
  -10.9601   -3.6594  -24.4217 C   0  0  0  0  0  0  0  0  0  0  0  0
  -10.1869   -3.9402  -25.5191 C   0  0  0  0  0  0  0  0  0  0  0  0
   -8.9581   -3.3277  -25.6039 C   0  0  0  0  0  0  0  0  0  0  0  0
   -7.9557   -3.6726  -26.9963 Cl  0  0  0  0  0  0  0  0  0  0  0  0
   -8.4944   -2.4485  -24.6202 C   0  0  0  0  0  0  0  0  0  0  0  0
   -8.4308   -1.7166  -21.2028 C   0  0  0  0  0  0  0  0  0  0  0  0
   -6.1830   -2.6149  -21.7305 C   0  0  0  0  0  0  0  0  0  0  0  0
   -6.9603   -1.7889  -21.0583 C   0  0  0  0  0  0  0  0  0  0  0  0
   -6.3629   -0.8543  -20.0829 C   0  0  0  0  0  0  0  0  0  0  0  0
   -7.0514   -0.3252  -19.1606 O   0  0  0  0  0  0  0  0  0  0  0  0
   -4.9900   -0.4954  -20.1206 N   0  0  0  0  0  0  0  0  0  0  0  0
   -4.3724   -0.8530  -20.7987 H   0  0  0  0  0  0  0  0  0  0  0  0
   -4.5512    0.4466  -19.0786 C   0  0  0  0  0  0  0  0  0  0  0  0
   -3.5073    1.3978  -19.5633 C   0  0  0  0  0  0  0  0  0  0  0  0
 24 25  2  0  0  0
 25 23  1  0  0  0
 25 26  1  0  0  0
 23  1  1  0  0  0
  1  2  1  0  0  0
  1 16  1  0  0  0
  2  3  2  0  0  0
  2  4  1  0  0  0
  4  6  1  0  0  0
  4  5  1  0  0  0
  6  7  2  0  0  0
  7  8  1  0  0  0
  8  9  2  0  0  0
  9 10  1  0  0  0
 10 11  2  0  0  0
 11 12  1  0  0  0
 12 13  2  0  0  0
 13 14  1  0  0  0
 14 15  2  0  0  0
 15  6  1  0  0  0
 15 10  1  0  0  0
 16 17  2  0  0  0
 17 18  1  0  0  0
 18 19  2  0  0  0
 19 20  1  0  0  0
 20 21  1  0  0  0
 20 22  2  0  0  0
 22 16  1  0  0  0
 26 27  2  0  0  0
 26 28  1  0  0  0
 28 30  1  0  0  0
 28 29  1  0  0  0
 30 31  1  0  0  0
M  END
> <minimizedAffinity>
-7.36731

> <CNNscore>
0.3527166247

> <CNNaffinity>
5.8555164337

> <CNN_VS>
2.0653378963

> <CNNaffinity_variance>
0.2992331982

$$$$



 31 33  0  0  0  0  0  0  0  0999 V2000
   -8.7549   -2.8223  -23.2916 N   0  0  0  0  0  0  0  0  0  0  0  0
   -7.6266   -2.0311  -22.8798 C   0  0  0  0  0  0  0  0  0  0  0  0
   -6.4498   -2.4925  -22.8887 O   0  0  0  0  0  0  0  0  0  0  0  0
   -7.7673   -0.6844  -22.4385 N   0  0  0  0  0  0  0  0  0  0  0  0
   -8.6487   -0.2473  -22.4007 H   0  0  0  0  0  0  0  0  0  0  0  0
   -6.5886    0.0004  -22.0565 C   0  0  0  0  0  0  0  0  0  0  0  0
   -5.8970    0.6908  -23.0566 C   0  0  0  0  0  0  0  0  0  0  0  0
   -4.7678    1.3640  -22.7633 N   0  0  0  0  0  0  0  0  0  0  0  0
   -4.2732    1.3908  -21.4972 C   0  0  0  0  0  0  0  0  0  0  0  0
   -4.9542    0.7056  -20.4899 C   0  0  0  0  0  0  0  0  0  0  0  0
   -4.4196    0.7576  -19.2194 C   0  0  0  0  0  0  0  0  0  0  0  0
   -5.0977    0.0746  -18.2129 C   0  0  0  0  0  0  0  0  0  0  0  0
   -6.2610   -0.6241  -18.4934 C   0  0  0  0  0  0  0  0  0  0  0  0
   -6.7961   -0.6739  -19.7745 C   0  0  0  0  0  0  0  0  0  0  0  0
   -6.1046    0.0130  -20.7597 C   0  0  0  0  0  0  0  0  0  0  0  0
  -10.0205   -2.2051  -23.2410 C   0  0  0  0  0  0  0  0  0  0  0  0
  -10.1369   -0.9680  -23.8594 C   0  0  0  0  0  0  0  0  0  0  0  0
  -11.3150   -0.2536  -23.8901 C   0  0  0  0  0  0  0  0  0  0  0  0
  -12.4423   -0.7575  -23.2929 C   0  0  0  0  0  0  0  0  0  0  0  0
  -12.3407   -1.9829  -22.6763 C   0  0  0  0  0  0  0  0  0  0  0  0
  -13.7675   -2.6437  -21.9082 Cl  0  0  0  0  0  0  0  0  0  0  0  0
  -11.1436   -2.7053  -22.6471 C   0  0  0  0  0  0  0  0  0  0  0  0
   -8.5180   -4.1690  -23.6694 C   0  0  0  0  0  0  0  0  0  0  0  0
   -9.5505   -4.3517  -25.9141 C   0  0  0  0  0  0  0  0  0  0  0  0
   -8.5031   -4.4576  -25.1203 C   0  0  0  0  0  0  0  0  0  0  0  0
   -7.2056   -4.8916  -25.6766 C   0  0  0  0  0  0  0  0  0  0  0  0
   -7.1351   -5.7165  -26.6354 O   0  0  0  0  0  0  0  0  0  0  0  0
   -5.9675   -4.4134  -25.1732 N   0  0  0  0  0  0  0  0  0  0  0  0
   -5.9164   -3.7700  -24.4297 H   0  0  0  0  0  0  0  0  0  0  0  0
   -4.7652   -4.9429  -25.8363 C   0  0  0  0  0  0  0  0  0  0  0  0
   -4.0001   -3.8912  -26.5697 C   0  0  0  0  0  0  0  0  0  0  0  0
 24 25  2  0  0  0
 25 23  1  0  0  0
 25 26  1  0  0  0
 23  1  1  0  0  0
  1  2  1  0  0  0
  1 16  1  0  0  0
  2  3  2  0  0  0
  2  4  1  0  0  0
  4  6  1  0  0  0
  4  5  1  0  0  0
  6  7  2  0  0  0
  7  8  1  0  0  0
  8  9  2  0  0  0
  9 10  1  0  0  0
 10 11  2  0  0  0
 11 12  1  0  0  0
 12 13  2  0  0  0
 13 14  1  0  0  0
 14 15  2  0  0  0
 15  6  1  0  0  0
 15 10  1  0  0  0
 16 17  2  0  0  0
 17 18  1  0  0  0
 18 19  2  0  0  0
 19 20  1  0  0  0
 20 21  1  0  0  0
 20 22  2  0  0  0
 22 16  1  0  0  0
 26 27  2  0  0  0
 26 28  1  0  0  0
 28 30  1  0  0  0
 28 29  1  0  0  0
 30 31  1  0  0  0
M  END
> <minimizedAffinity>
-6.82427

> <CNNscore>
0.3280664384

> <CNNaffinity>
5.9427971840

> <CNN_VS>
1.9496322870

> <CNNaffinity_variance>
0.0422937348

$$$$



 33 36  0  0  0  0  0  0  0  0999 V2000
   -8.2349   -0.1392  -23.4869 N   0  0  0  0  0  0  0  0  0  0  0  0
   -8.0976   -0.3509  -22.1092 C   0  0  0  0  0  0  0  0  0  0  0  0
   -8.6735    0.5274  -21.3431 O   0  0  0  0  0  0  0  0  0  0  0  0
   -7.6365   -2.8803  -25.9358 C   0  0  0  0  0  0  0  0  0  0  0  0
   -6.6038   -2.4190  -26.7030 C   0  0  0  0  0  0  0  0  0  0  0  0
   -6.0887   -1.1863  -26.3927 C   0  0  0  0  0  0  0  0  0  0  0  0
   -6.6106   -0.4428  -25.3303 C   0  0  0  0  0  0  0  0  0  0  0  0
   -7.6493   -0.8787  -24.5406 C   0  0  0  0  0  0  0  0  0  0  0  0
   -8.1492   -2.1441  -24.8889 C   0  0  0  0  0  0  0  0  0  0  0  0
   -9.1125   -4.2067  -27.3224 C   0  0  0  0  0  0  0  0  0  0  0  0
   -9.4137   -3.1213  -27.9088 O   0  0  0  0  0  0  0  0  0  0  0  0
   -8.1715   -4.1671  -26.2574 N   0  0  0  0  0  0  0  0  0  0  0  0
   -7.9035   -4.9790  -25.7692 H   0  0  0  0  0  0  0  0  0  0  0  0
  -10.4055   -6.1704  -26.5452 C   0  0  0  0  0  0  0  0  0  0  0  0
   -9.7323   -5.4968  -27.7409 C   0  0  0  0  0  0  0  0  0  0  0  0
   -9.1320    0.9747  -23.8726 C   0  0  0  0  0  0  0  0  0  0  0  0
  -10.5647    0.6346  -23.7422 C   0  0  0  0  0  0  0  0  0  0  0  0
  -11.5683    1.5729  -23.6111 C   0  0  0  0  0  0  0  0  0  0  0  0
  -12.9157    1.2137  -23.4802 C   0  0  0  0  0  0  0  0  0  0  0  0
  -13.3027   -0.0987  -23.4760 C   0  0  0  0  0  0  0  0  0  0  0  0
  -12.3191   -1.0492  -23.6049 C   0  0  0  0  0  0  0  0  0  0  0  0
  -10.9907   -0.6991  -23.7340 C   0  0  0  0  0  0  0  0  0  0  0  0
   -7.4106   -1.3987  -21.3594 C   0  0  0  0  0  0  0  0  0  0  0  0
   -6.5797   -0.7910  -20.2483 C   0  0  0  0  0  0  0  0  0  0  0  0
   -6.9417   -0.8656  -18.9333 C   0  0  0  0  0  0  0  0  0  0  0  0
   -6.1952   -0.3248  -17.9758 N   0  0  0  0  0  0  0  0  0  0  0  0
   -5.0424    0.3304  -18.2032 C   0  0  0  0  0  0  0  0  0  0  0  0
   -4.6335    0.4325  -19.5206 C   0  0  0  0  0  0  0  0  0  0  0  0
   -3.4530    1.0995  -19.7940 C   0  0  0  0  0  0  0  0  0  0  0  0
   -3.0310    1.2103  -21.1056 C   0  0  0  0  0  0  0  0  0  0  0  0
   -3.7907    0.6561  -22.1182 C   0  0  0  0  0  0  0  0  0  0  0  0
   -4.9629   -0.0074  -21.8575 C   0  0  0  0  0  0  0  0  0  0  0  0
   -5.3938   -0.1243  -20.5524 C   0  0  0  0  0  0  0  0  0  0  0  0
 14 15  1  0  0  0
 15 10  1  0  0  0
 10 11  2  0  0  0
 10 12  1  0  0  0
 12  4  1  0  0  0
 12 13  1  0  0  0
  4  5  2  0  0  0
  5  6  1  0  0  0
  6  7  2  0  0  0
  7  8  1  0  0  0
  8  1  1  0  0  0
  8  9  2  0  0  0
  1 16  1  0  0  0
  1  2  1  0  0  0
 16 17  1  0  0  0
 17 18  2  0  0  0
 18 19  1  0  0  0
 19 20  2  0  0  0
 20 21  1  0  0  0
 21 22  2  0  0  0
 22 17  1  0  0  0
  2  3  2  0  0  0
  2 23  1  0  0  0
 23 24  1  0  0  0
 24 25  2  0  0  0
 25 26  1  0  0  0
 26 27  2  0  0  0
 27 28  1  0  0  0
 28 29  2  0  0  0
 29 30  1  0  0  0
 30 31  2  0  0  0
 31 32  1  0  0  0
 32 33  2  0  0  0
 33 24  1  0  0  0
 33 28  1  0  0  0
  9  4  1  0  0  0
M  END
> <minimizedAffinity>
-8.25933

> <CNNscore>
0.6651730537

> <CNNaffinity>
6.1929860115

> <CNN_VS>
4.1194076538

> <CNNaffinity_variance>
0.1158428788

$$$$



 33 36  0  0  0  0  0  0  0  0999 V2000
   -8.9632   -2.2627  -22.6480 N   0  0  0  0  0  0  0  0  0  0  0  0
   -7.8645   -1.5996  -22.0871 C   0  0  0  0  0  0  0  0  0  0  0  0
   -6.7775   -2.3038  -21.9747 O   0  0  0  0  0  0  0  0  0  0  0  0
  -11.7770   -0.0211  -23.6109 C   0  0  0  0  0  0  0  0  0  0  0  0
  -12.8954   -0.7282  -23.2685 C   0  0  0  0  0  0  0  0  0  0  0  0
  -12.7120   -1.9607  -22.6955 C   0  0  0  0  0  0  0  0  0  0  0  0
  -11.4250   -2.4605  -22.4769 C   0  0  0  0  0  0  0  0  0  0  0  0
  -10.2804   -1.7743  -22.8109 C   0  0  0  0  0  0  0  0  0  0  0  0
  -10.5090   -0.5174  -23.3944 C   0  0  0  0  0  0  0  0  0  0  0  0
  -12.1727    2.3477  -23.3064 C   0  0  0  0  0  0  0  0  0  0  0  0
  -12.1736    2.1103  -22.0589 O   0  0  0  0  0  0  0  0  0  0  0  0
  -11.9682    1.2655  -24.2055 N   0  0  0  0  0  0  0  0  0  0  0  0
  -11.9588    1.3944  -25.1815 H   0  0  0  0  0  0  0  0  0  0  0  0
  -12.6302    4.6929  -22.6564 C   0  0  0  0  0  0  0  0  0  0  0  0
  -12.3819    3.7322  -23.8192 C   0  0  0  0  0  0  0  0  0  0  0  0
   -8.6898   -3.6257  -23.1597 C   0  0  0  0  0  0  0  0  0  0  0  0
   -8.8276   -3.7304  -24.6278 C   0  0  0  0  0  0  0  0  0  0  0  0
   -8.1400   -2.9358  -25.5227 C   0  0  0  0  0  0  0  0  0  0  0  0
   -8.3027   -3.0567  -26.9085 C   0  0  0  0  0  0  0  0  0  0  0  0
   -9.1606   -3.9782  -27.4443 C   0  0  0  0  0  0  0  0  0  0  0  0
   -9.8554   -4.7792  -26.5708 C   0  0  0  0  0  0  0  0  0  0  0  0
   -9.6979   -4.6630  -25.2050 C   0  0  0  0  0  0  0  0  0  0  0  0
   -7.7128   -0.2336  -21.5939 C   0  0  0  0  0  0  0  0  0  0  0  0
   -6.7756   -0.2057  -20.4043 C   0  0  0  0  0  0  0  0  0  0  0  0
   -7.0269   -0.8961  -19.2527 C   0  0  0  0  0  0  0  0  0  0  0  0
   -6.1885   -0.8564  -18.2221 N   0  0  0  0  0  0  0  0  0  0  0  0
   -5.0427   -0.1516  -18.2140 C   0  0  0  0  0  0  0  0  0  0  0  0
   -4.7441    0.5652  -19.3587 C   0  0  0  0  0  0  0  0  0  0  0  0
   -3.5742    1.3026  -19.3878 C   0  0  0  0  0  0  0  0  0  0  0  0
   -3.2619    2.0244  -20.5244 C   0  0  0  0  0  0  0  0  0  0  0  0
   -4.1184    1.9985  -21.6085 C   0  0  0  0  0  0  0  0  0  0  0  0
   -5.2811    1.2703  -21.5897 C   0  0  0  0  0  0  0  0  0  0  0  0
   -5.6029    0.5460  -20.4608 C   0  0  0  0  0  0  0  0  0  0  0  0
 14 15  1  0  0  0
 15 10  1  0  0  0
 10 11  2  0  0  0
 10 12  1  0  0  0
 12  4  1  0  0  0
 12 13  1  0  0  0
  4  5  2  0  0  0
  5  6  1  0  0  0
  6  7  2  0  0  0
  7  8  1  0  0  0
  8  1  1  0  0  0
  8  9  2  0  0  0
  1 16  1  0  0  0
  1  2  1  0  0  0
 16 17  1  0  0  0
 17 18  2  0  0  0
 18 19  1  0  0  0
 19 20  2  0  0  0
 20 21  1  0  0  0
 21 22  2  0  0  0
 22 17  1  0  0  0
  2  3  2  0  0  0
  2 23  1  0  0  0
 23 24  1  0  0  0
 24 25  2  0  0  0
 25 26  1  0  0  0
 26 27  2  0  0  0
 27 28  1  0  0  0
 28 29  2  0  0  0
 29 30  1  0  0  0
 30 31  2  0  0  0
 31 32  1  0  0  0
 32 33  2  0  0  0
 33 24  1  0  0  0
 33 28  1  0  0  0
  9  4  1  0  0  0
M  END
> <minimizedAffinity>
-7.89547

> <CNNscore>
0.6646032333

> <CNNaffinity>
6.3601846695

> <CNN_VS>
4.2269992828

> <CNNaffinity_variance>
0.0993624851

$$$$



 33 36  0  0  0  0  0  0  0  0999 V2000
   -6.3659   -0.5885  -23.3254 N   0  0  0  0  0  0  0  0  0  0  0  0
   -7.0995   -0.1435  -22.2184 C   0  0  0  0  0  0  0  0  0  0  0  0
   -6.5407   -0.3294  -21.0594 O   0  0  0  0  0  0  0  0  0  0  0  0
   -7.4843   -1.8449  -26.6480 C   0  0  0  0  0  0  0  0  0  0  0  0
   -7.6514   -0.7104  -27.3917 C   0  0  0  0  0  0  0  0  0  0  0  0
   -7.3737    0.4881  -26.7854 C   0  0  0  0  0  0  0  0  0  0  0  0
   -6.9381    0.5312  -25.4580 C   0  0  0  0  0  0  0  0  0  0  0  0
   -6.7611   -0.5918  -24.6833 C   0  0  0  0  0  0  0  0  0  0  0  0
   -7.0549   -1.7987  -25.3387 C   0  0  0  0  0  0  0  0  0  0  0  0
   -9.0292   -3.6802  -26.9729 C   0  0  0  0  0  0  0  0  0  0  0  0
   -9.8036   -3.0709  -26.1718 O   0  0  0  0  0  0  0  0  0  0  0  0
   -7.7707   -3.0949  -27.2812 N   0  0  0  0  0  0  0  0  0  0  0  0
   -7.1330   -3.5254  -27.8954 H   0  0  0  0  0  0  0  0  0  0  0  0
  -10.1901   -5.8273  -26.5559 C   0  0  0  0  0  0  0  0  0  0  0  0
   -9.4300   -4.9826  -27.5783 C   0  0  0  0  0  0  0  0  0  0  0  0
   -5.0004   -1.0795  -23.0275 C   0  0  0  0  0  0  0  0  0  0  0  0
   -3.9445   -0.1176  -23.4081 C   0  0  0  0  0  0  0  0  0  0  0  0
   -3.5223    0.9192  -22.6008 C   0  0  0  0  0  0  0  0  0  0  0  0
   -2.5245    1.8181  -22.9984 C   0  0  0  0  0  0  0  0  0  0  0  0
   -1.9163    1.7083  -24.2191 C   0  0  0  0  0  0  0  0  0  0  0  0
   -2.3221    0.6832  -25.0387 C   0  0  0  0  0  0  0  0  0  0  0  0
   -3.3047   -0.2043  -24.6506 C   0  0  0  0  0  0  0  0  0  0  0  0
   -8.4051    0.5037  -22.1251 C   0  0  0  0  0  0  0  0  0  0  0  0
   -9.5054   -0.4830  -22.4568 C   0  0  0  0  0  0  0  0  0  0  0  0
   -9.3346   -1.8350  -22.3632 C   0  0  0  0  0  0  0  0  0  0  0  0
  -10.3160   -2.6812  -22.6592 N   0  0  0  0  0  0  0  0  0  0  0  0
  -11.5389   -2.2980  -23.0683 C   0  0  0  0  0  0  0  0  0  0  0  0
  -11.7608   -0.9372  -23.1789 C   0  0  0  0  0  0  0  0  0  0  0  0
  -13.0063   -0.5047  -23.5970 C   0  0  0  0  0  0  0  0  0  0  0  0
  -13.2436    0.8521  -23.7128 C   0  0  0  0  0  0  0  0  0  0  0  0
  -12.2384    1.7509  -23.4107 C   0  0  0  0  0  0  0  0  0  0  0  0
  -10.9997    1.3321  -22.9951 C   0  0  0  0  0  0  0  0  0  0  0  0
  -10.7516   -0.0195  -22.8758 C   0  0  0  0  0  0  0  0  0  0  0  0
 14 15  1  0  0  0
 15 10  1  0  0  0
 10 11  2  0  0  0
 10 12  1  0  0  0
 12  4  1  0  0  0
 12 13  1  0  0  0
  4  5  2  0  0  0
  5  6  1  0  0  0
  6  7  2  0  0  0
  7  8  1  0  0  0
  8  1  1  0  0  0
  8  9  2  0  0  0
  1 16  1  0  0  0
  1  2  1  0  0  0
 16 17  1  0  0  0
 17 18  2  0  0  0
 18 19  1  0  0  0
 19 20  2  0  0  0
 20 21  1  0  0  0
 21 22  2  0  0  0
 22 17  1  0  0  0
  2  3  2  0  0  0
  2 23  1  0  0  0
 23 24  1  0  0  0
 24 25  2  0  0  0
 25 26  1  0  0  0
 26 27  2  0  0  0
 27 28  1  0  0  0
 28 29  2  0  0  0
 29 30  1  0  0  0
 30 31  2  0  0  0
 31 32  1  0  0  0
 32 33  2  0  0  0
 33 24  1  0  0  0
 33 28  1  0  0  0
  9  4  1  0  0  0
M  END
> <minimizedAffinity>
-6.02882

> <CNNscore>
0.5725210905

> <CNNaffinity>
5.9993934631

> <CNN_VS>
3.4347794056

> <CNNaffinity_variance>
0.0642864257

$$$$



 33 36  0  0  0  0  0  0  0  0999 V2000
   -7.2317   -1.4086  -22.5389 N   0  0  0  0  0  0  0  0  0  0  0  0
   -8.1610   -0.3641  -22.4555 C   0  0  0  0  0  0  0  0  0  0  0  0
   -8.5013   -0.0062  -21.2529 O   0  0  0  0  0  0  0  0  0  0  0  0
   -7.0867   -3.6973  -25.4732 C   0  0  0  0  0  0  0  0  0  0  0  0
   -5.9227   -3.3550  -26.1025 C   0  0  0  0  0  0  0  0  0  0  0  0
   -5.1676   -2.3603  -25.5356 C   0  0  0  0  0  0  0  0  0  0  0  0
   -5.5857   -1.7305  -24.3599 C   0  0  0  0  0  0  0  0  0  0  0  0
   -6.7515   -2.0513  -23.7036 C   0  0  0  0  0  0  0  0  0  0  0  0
   -7.4963   -3.0735  -24.3139 C   0  0  0  0  0  0  0  0  0  0  0  0
   -8.7923   -4.3336  -27.0689 C   0  0  0  0  0  0  0  0  0  0  0  0
   -8.8583   -3.1029  -27.3750 O   0  0  0  0  0  0  0  0  0  0  0  0
   -7.8725   -4.7368  -26.0626 N   0  0  0  0  0  0  0  0  0  0  0  0
   -7.7817   -5.6776  -25.7873 H   0  0  0  0  0  0  0  0  0  0  0  0
  -10.2542   -6.3024  -26.7246 C   0  0  0  0  0  0  0  0  0  0  0  0
   -9.6610   -5.3362  -27.7499 C   0  0  0  0  0  0  0  0  0  0  0  0
   -6.6659   -1.8608  -21.2468 C   0  0  0  0  0  0  0  0  0  0  0  0
   -5.7311   -0.8828  -20.6512 C   0  0  0  0  0  0  0  0  0  0  0  0
   -4.7537   -0.2203  -21.3659 C   0  0  0  0  0  0  0  0  0  0  0  0
   -3.8785    0.6940  -20.7660 C   0  0  0  0  0  0  0  0  0  0  0  0
   -3.9532    0.9749  -19.4290 C   0  0  0  0  0  0  0  0  0  0  0  0
   -4.9191    0.3259  -18.6987 C   0  0  0  0  0  0  0  0  0  0  0  0
   -5.7830   -0.5755  -19.2861 C   0  0  0  0  0  0  0  0  0  0  0  0
   -8.8332    0.4124  -23.4934 C   0  0  0  0  0  0  0  0  0  0  0  0
  -10.3233    0.1415  -23.4702 C   0  0  0  0  0  0  0  0  0  0  0  0
  -10.8409   -1.1197  -23.3843 C   0  0  0  0  0  0  0  0  0  0  0  0
  -12.1529   -1.3321  -23.3648 N   0  0  0  0  0  0  0  0  0  0  0  0
  -13.0725   -0.3520  -23.4262 C   0  0  0  0  0  0  0  0  0  0  0  0
  -12.5968    0.9438  -23.5144 C   0  0  0  0  0  0  0  0  0  0  0  0
  -13.5123    1.9786  -23.5797 C   0  0  0  0  0  0  0  0  0  0  0  0
  -13.0527    3.2791  -23.6685 C   0  0  0  0  0  0  0  0  0  0  0  0
  -11.6930    3.5245  -23.6905 C   0  0  0  0  0  0  0  0  0  0  0  0
  -10.7768    2.5053  -23.6261 C   0  0  0  0  0  0  0  0  0  0  0  0
  -11.2239    1.2034  -23.5372 C   0  0  0  0  0  0  0  0  0  0  0  0
 14 15  1  0  0  0
 15 10  1  0  0  0
 10 11  2  0  0  0
 10 12  1  0  0  0
 12  4  1  0  0  0
 12 13  1  0  0  0
  4  5  2  0  0  0
  5  6  1  0  0  0
  6  7  2  0  0  0
  7  8  1  0  0  0
  8  1  1  0  0  0
  8  9  2  0  0  0
  1 16  1  0  0  0
  1  2  1  0  0  0
 16 17  1  0  0  0
 17 18  2  0  0  0
 18 19  1  0  0  0
 19 20  2  0  0  0
 20 21  1  0  0  0
 21 22  2  0  0  0
 22 17  1  0  0  0
  2  3  2  0  0  0
  2 23  1  0  0  0
 23 24  1  0  0  0
 24 25  2  0  0  0
 25 26  1  0  0  0
 26 27  2  0  0  0
 27 28  1  0  0  0
 28 29  2  0  0  0
 29 30  1  0  0  0
 30 31  2  0  0  0
 31 32  1  0  0  0
 32 33  2  0  0  0
 33 24  1  0  0  0
 33 28  1  0  0  0
  9  4  1  0  0  0
M  END
> <minimizedAffinity>
-7.76975

> <CNNscore>
0.4423394501

> <CNNaffinity>
5.9593553543

> <CNN_VS>
2.6360578537

> <CNNaffinity_variance>
0.1975303143

$$$$



 33 36  0  0  0  0  0  0  0  0999 V2000
   -8.4796   -0.4829  -23.2968 N   0  0  0  0  0  0  0  0  0  0  0  0
   -8.1154   -0.4195  -21.9459 C   0  0  0  0  0  0  0  0  0  0  0  0
   -8.3470    0.7132  -21.3515 O   0  0  0  0  0  0  0  0  0  0  0  0
   -8.2304   -3.9491  -24.6357 C   0  0  0  0  0  0  0  0  0  0  0  0
   -7.9525   -3.7722  -25.9621 C   0  0  0  0  0  0  0  0  0  0  0  0
   -7.8309   -2.4834  -26.4150 C   0  0  0  0  0  0  0  0  0  0  0  0
   -7.9882   -1.4034  -25.5418 C   0  0  0  0  0  0  0  0  0  0  0  0
   -8.2690   -1.5481  -24.2028 C   0  0  0  0  0  0  0  0  0  0  0  0
   -8.3854   -2.8814  -23.7772 C   0  0  0  0  0  0  0  0  0  0  0  0
   -7.2417   -5.8095  -23.4433 C   0  0  0  0  0  0  0  0  0  0  0  0
   -6.2296   -5.0625  -23.2696 O   0  0  0  0  0  0  0  0  0  0  0  0
   -8.3540   -5.2931  -24.1626 N   0  0  0  0  0  0  0  0  0  0  0  0
   -9.1630   -5.8300  -24.3258 H   0  0  0  0  0  0  0  0  0  0  0  0
   -6.1655   -7.3772  -21.8571 C   0  0  0  0  0  0  0  0  0  0  0  0
   -7.2645   -7.1998  -22.9047 C   0  0  0  0  0  0  0  0  0  0  0  0
   -9.2028    0.7009  -23.8165 C   0  0  0  0  0  0  0  0  0  0  0  0
  -10.6709    0.5822  -23.6913 C   0  0  0  0  0  0  0  0  0  0  0  0
  -11.3431   -0.6222  -23.6425 C   0  0  0  0  0  0  0  0  0  0  0  0
  -12.7374   -0.6968  -23.5328 C   0  0  0  0  0  0  0  0  0  0  0  0
  -13.5053    0.4339  -23.4687 C   0  0  0  0  0  0  0  0  0  0  0  0
  -12.8561    1.6437  -23.5161 C   0  0  0  0  0  0  0  0  0  0  0  0
  -11.4827    1.7211  -23.6242 C   0  0  0  0  0  0  0  0  0  0  0  0
   -7.5091   -1.4130  -21.0641 C   0  0  0  0  0  0  0  0  0  0  0  0
   -6.5530   -0.7443  -20.0982 C   0  0  0  0  0  0  0  0  0  0  0  0
   -6.7907   -0.6774  -18.7548 C   0  0  0  0  0  0  0  0  0  0  0  0
   -5.9357   -0.0857  -17.9268 N   0  0  0  0  0  0  0  0  0  0  0  0
   -4.7850    0.4888  -18.3214 C   0  0  0  0  0  0  0  0  0  0  0  0
   -4.4997    0.4468  -19.6742 C   0  0  0  0  0  0  0  0  0  0  0  0
   -3.3253    1.0274  -20.1180 C   0  0  0  0  0  0  0  0  0  0  0  0
   -3.0261    0.9939  -21.4671 C   0  0  0  0  0  0  0  0  0  0  0  0
   -3.9000    0.3843  -22.3470 C   0  0  0  0  0  0  0  0  0  0  0  0
   -5.0672   -0.1944  -21.9169 C   0  0  0  0  0  0  0  0  0  0  0  0
   -5.3761   -0.1671  -20.5729 C   0  0  0  0  0  0  0  0  0  0  0  0
 14 15  1  0  0  0
 15 10  1  0  0  0
 10 11  2  0  0  0
 10 12  1  0  0  0
 12  4  1  0  0  0
 12 13  1  0  0  0
  4  5  2  0  0  0
  5  6  1  0  0  0
  6  7  2  0  0  0
  7  8  1  0  0  0
  8  1  1  0  0  0
  8  9  2  0  0  0
  1 16  1  0  0  0
  1  2  1  0  0  0
 16 17  1  0  0  0
 17 18  2  0  0  0
 18 19  1  0  0  0
 19 20  2  0  0  0
 20 21  1  0  0  0
 21 22  2  0  0  0
 22 17  1  0  0  0
  2  3  2  0  0  0
  2 23  1  0  0  0
 23 24  1  0  0  0
 24 25  2  0  0  0
 25 26  1  0  0  0
 26 27  2  0  0  0
 27 28  1  0  0  0
 28 29  2  0  0  0
 29 30  1  0  0  0
 30 31  2  0  0  0
 31 32  1  0  0  0
 32 33  2  0  0  0
 33 24  1  0  0  0
 33 28  1  0  0  0
  9  4  1  0  0  0
M  END
> <minimizedAffinity>
-8.25433

> <CNNscore>
0.3726582527

> <CNNaffinity>
5.9582228661

> <CNN_VS>
2.2203810215

> <CNNaffinity_variance>
0.2524463832

$$$$



 33 36  0  0  0  0  0  0  0  0999 V2000
   -8.5964   -0.5963  -23.3496 N   0  0  0  0  0  0  0  0  0  0  0  0
   -8.3390   -0.5320  -21.9745 C   0  0  0  0  0  0  0  0  0  0  0  0
   -8.6512    0.5883  -21.3936 O   0  0  0  0  0  0  0  0  0  0  0  0
   -6.7650   -2.6059  -25.8946 C   0  0  0  0  0  0  0  0  0  0  0  0
   -7.5078   -3.7471  -26.0122 C   0  0  0  0  0  0  0  0  0  0  0  0
   -8.6415   -3.8439  -25.2465 C   0  0  0  0  0  0  0  0  0  0  0  0
   -9.0095   -2.8073  -24.3839 C   0  0  0  0  0  0  0  0  0  0  0  0
   -8.2833   -1.6475  -24.2425 C   0  0  0  0  0  0  0  0  0  0  0  0
   -7.1307   -1.5855  -25.0425 C   0  0  0  0  0  0  0  0  0  0  0  0
   -5.7278   -1.8328  -27.9409 C   0  0  0  0  0  0  0  0  0  0  0  0
   -6.8697   -1.3767  -28.2584 O   0  0  0  0  0  0  0  0  0  0  0  0
   -5.5845   -2.5036  -26.6955 N   0  0  0  0  0  0  0  0  0  0  0  0
   -4.7221   -2.8763  -26.4013 H   0  0  0  0  0  0  0  0  0  0  0  0
   -3.5016   -2.7291  -28.5513 C   0  0  0  0  0  0  0  0  0  0  0  0
   -4.5606   -1.6692  -28.8543 C   0  0  0  0  0  0  0  0  0  0  0  0
   -9.3147    0.5684  -23.9171 C   0  0  0  0  0  0  0  0  0  0  0  0
  -10.7746    0.5130  -23.6915 C   0  0  0  0  0  0  0  0  0  0  0  0
  -11.4992   -0.6601  -23.6334 C   0  0  0  0  0  0  0  0  0  0  0  0
  -12.8845   -0.6742  -23.4271 C   0  0  0  0  0  0  0  0  0  0  0  0
  -13.5904    0.4876  -23.2725 C   0  0  0  0  0  0  0  0  0  0  0  0
  -12.8883    1.6671  -23.3274 C   0  0  0  0  0  0  0  0  0  0  0  0
  -11.5236    1.6850  -23.5305 C   0  0  0  0  0  0  0  0  0  0  0  0
   -7.7710   -1.5130  -21.0539 C   0  0  0  0  0  0  0  0  0  0  0  0
   -6.7786   -0.8471  -20.1234 C   0  0  0  0  0  0  0  0  0  0  0  0
   -6.9825   -0.7515  -18.7761 C   0  0  0  0  0  0  0  0  0  0  0  0
   -6.0961   -0.1629  -17.9796 N   0  0  0  0  0  0  0  0  0  0  0  0
   -4.9439    0.3807  -18.4117 C   0  0  0  0  0  0  0  0  0  0  0  0
   -4.6922    0.3090  -19.7699 C   0  0  0  0  0  0  0  0  0  0  0  0
   -3.5174    0.8574  -20.2520 C   0  0  0  0  0  0  0  0  0  0  0  0
   -3.2515    0.7939  -21.6070 C   0  0  0  0  0  0  0  0  0  0  0  0
   -4.1584    0.1869  -22.4547 C   0  0  0  0  0  0  0  0  0  0  0  0
   -5.3264   -0.3601  -21.9865 C   0  0  0  0  0  0  0  0  0  0  0  0
   -5.6022   -0.3027  -20.6362 C   0  0  0  0  0  0  0  0  0  0  0  0
 14 15  1  0  0  0
 15 10  1  0  0  0
 10 11  2  0  0  0
 10 12  1  0  0  0
 12  4  1  0  0  0
 12 13  1  0  0  0
  4  5  2  0  0  0
  5  6  1  0  0  0
  6  7  2  0  0  0
  7  8  1  0  0  0
  8  1  1  0  0  0
  8  9  2  0  0  0
  1 16  1  0  0  0
  1  2  1  0  0  0
 16 17  1  0  0  0
 17 18  2  0  0  0
 18 19  1  0  0  0
 19 20  2  0  0  0
 20 21  1  0  0  0
 21 22  2  0  0  0
 22 17  1  0  0  0
  2  3  2  0  0  0
  2 23  1  0  0  0
 23 24  1  0  0  0
 24 25  2  0  0  0
 25 26  1  0  0  0
 26 27  2  0  0  0
 27 28  1  0  0  0
 28 29  2  0  0  0
 29 30  1  0  0  0
 30 31  2  0  0  0
 31 32  1  0  0  0
 32 33  2  0  0  0
 33 24  1  0  0  0
 33 28  1  0  0  0
  9  4  1  0  0  0
M  END
> <minimizedAffinity>
-6.97621

> <CNNscore>
0.3544141352

> <CNNaffinity>
5.8457117081

> <CNN_VS>
2.0718028545

> <CNNaffinity_variance>
0.0803270936

$$$$



 33 36  0  0  0  0  0  0  0  0999 V2000
   -7.6158   -0.9059  -22.4753 N   0  0  0  0  0  0  0  0  0  0  0  0
   -8.1893    0.3581  -22.6625 C   0  0  0  0  0  0  0  0  0  0  0  0
   -8.6105    0.9518  -21.5855 O   0  0  0  0  0  0  0  0  0  0  0  0
   -7.5174   -3.8196  -24.7926 C   0  0  0  0  0  0  0  0  0  0  0  0
   -6.3665   -3.6360  -25.5065 C   0  0  0  0  0  0  0  0  0  0  0  0
   -5.6043   -2.5368  -25.2031 C   0  0  0  0  0  0  0  0  0  0  0  0
   -6.0027   -1.6481  -24.2005 C   0  0  0  0  0  0  0  0  0  0  0  0
   -7.1550   -1.8045  -23.4654 C   0  0  0  0  0  0  0  0  0  0  0  0
   -7.9077   -2.9407  -23.8046 C   0  0  0  0  0  0  0  0  0  0  0  0
   -9.4298   -4.7436  -25.9544 C   0  0  0  0  0  0  0  0  0  0  0  0
   -9.6515   -3.5644  -26.3705 O   0  0  0  0  0  0  0  0  0  0  0  0
   -8.3106   -4.9675  -25.1067 N   0  0  0  0  0  0  0  0  0  0  0  0
   -8.0940   -5.8616  -24.7561 H   0  0  0  0  0  0  0  0  0  0  0  0
   -9.5916   -7.2034  -26.1889 C   0  0  0  0  0  0  0  0  0  0  0  0
  -10.3239   -5.8709  -26.3458 C   0  0  0  0  0  0  0  0  0  0  0  0
   -7.4454   -1.3241  -21.0645 C   0  0  0  0  0  0  0  0  0  0  0  0
   -6.3119   -0.6515  -20.3952 C   0  0  0  0  0  0  0  0  0  0  0  0
   -6.2345   -0.4495  -19.0321 C   0  0  0  0  0  0  0  0  0  0  0  0
   -5.1483    0.2007  -18.4328 C   0  0  0  0  0  0  0  0  0  0  0  0
   -4.1029    0.6710  -19.1799 C   0  0  0  0  0  0  0  0  0  0  0  0
   -4.1602    0.4807  -20.5392 C   0  0  0  0  0  0  0  0  0  0  0  0
   -5.2285   -0.1594  -21.1332 C   0  0  0  0  0  0  0  0  0  0  0  0
   -8.4065    1.1478  -23.8714 C   0  0  0  0  0  0  0  0  0  0  0  0
   -9.7342    1.8727  -23.7938 C   0  0  0  0  0  0  0  0  0  0  0  0
   -9.8295    3.2353  -23.7838 C   0  0  0  0  0  0  0  0  0  0  0  0
  -11.0067    3.8487  -23.7159 N   0  0  0  0  0  0  0  0  0  0  0  0
  -12.1858    3.2042  -23.6521 C   0  0  0  0  0  0  0  0  0  0  0  0
  -12.1412    1.8217  -23.6591 C   0  0  0  0  0  0  0  0  0  0  0  0
  -13.3337    1.1239  -23.5944 C   0  0  0  0  0  0  0  0  0  0  0  0
  -13.3059   -0.2580  -23.6002 C   0  0  0  0  0  0  0  0  0  0  0  0
  -12.0937   -0.9178  -23.6702 C   0  0  0  0  0  0  0  0  0  0  0  0
  -10.9054   -0.2350  -23.7347 C   0  0  0  0  0  0  0  0  0  0  0  0
  -10.9211    1.1443  -23.7297 C   0  0  0  0  0  0  0  0  0  0  0  0
 14 15  1  0  0  0
 15 10  1  0  0  0
 10 11  2  0  0  0
 10 12  1  0  0  0
 12  4  1  0  0  0
 12 13  1  0  0  0
  4  5  2  0  0  0
  5  6  1  0  0  0
  6  7  2  0  0  0
  7  8  1  0  0  0
  8  1  1  0  0  0
  8  9  2  0  0  0
  1 16  1  0  0  0
  1  2  1  0  0  0
 16 17  1  0  0  0
 17 18  2  0  0  0
 18 19  1  0  0  0
 19 20  2  0  0  0
 20 21  1  0  0  0
 21 22  2  0  0  0
 22 17  1  0  0  0
  2  3  2  0  0  0
  2 23  1  0  0  0
 23 24  1  0  0  0
 24 25  2  0  0  0
 25 26  1  0  0  0
 26 27  2  0  0  0
 27 28  1  0  0  0
 28 29  2  0  0  0
 29 30  1  0  0  0
 30 31  2  0  0  0
 31 32  1  0  0  0
 32 33  2  0  0  0
 33 24  1  0  0  0
 33 28  1  0  0  0
  9  4  1  0  0  0
M  END
> <minimizedAffinity>
-7.67848

> <CNNscore>
0.3277569413

> <CNNaffinity>
5.9919872284

> <CNN_VS>
1.9639153481

> <CNNaffinity_variance>
0.1952552944

$$$$



 33 36  0  0  0  0  0  0  0  0999 V2000
   -8.8418   -1.5460  -23.8012 N   0  0  0  0  0  0  0  0  0  0  0  0
   -7.8125   -0.7659  -23.2595 C   0  0  0  0  0  0  0  0  0  0  0  0
   -6.6173   -1.0226  -23.7018 O   0  0  0  0  0  0  0  0  0  0  0  0
  -12.3896   -0.4468  -23.5290 C   0  0  0  0  0  0  0  0  0  0  0  0
  -13.0032   -1.4709  -22.8637 C   0  0  0  0  0  0  0  0  0  0  0  0
  -12.2242   -2.5348  -22.4865 C   0  0  0  0  0  0  0  0  0  0  0  0
  -10.8575   -2.5563  -22.7788 C   0  0  0  0  0  0  0  0  0  0  0  0
  -10.2110   -1.5424  -23.4472 C   0  0  0  0  0  0  0  0  0  0  0  0
  -11.0413   -0.4715  -23.8161 C   0  0  0  0  0  0  0  0  0  0  0  0
  -12.9220    1.9013  -23.2770 C   0  0  0  0  0  0  0  0  0  0  0  0
  -11.9903    1.9425  -22.4150 O   0  0  0  0  0  0  0  0  0  0  0  0
  -13.2013    0.6642  -23.9194 N   0  0  0  0  0  0  0  0  0  0  0  0
  -13.9127    0.5772  -24.5944 H   0  0  0  0  0  0  0  0  0  0  0  0
  -13.3547    4.2559  -22.6442 C   0  0  0  0  0  0  0  0  0  0  0  0
  -13.7077    3.1243  -23.6094 C   0  0  0  0  0  0  0  0  0  0  0  0
   -8.4400   -2.4544  -24.9002 C   0  0  0  0  0  0  0  0  0  0  0  0
   -8.1870   -3.8374  -24.4435 C   0  0  0  0  0  0  0  0  0  0  0  0
   -7.6176   -4.1527  -23.2265 C   0  0  0  0  0  0  0  0  0  0  0  0
   -7.3838   -5.4757  -22.8304 C   0  0  0  0  0  0  0  0  0  0  0  0
   -7.7127   -6.5275  -23.6413 C   0  0  0  0  0  0  0  0  0  0  0  0
   -8.2805   -6.2357  -24.8578 C   0  0  0  0  0  0  0  0  0  0  0  0
   -8.5123   -4.9338  -25.2515 C   0  0  0  0  0  0  0  0  0  0  0  0
   -7.8357    0.3049  -22.2670 C   0  0  0  0  0  0  0  0  0  0  0  0
   -7.0929   -0.1207  -21.0175 C   0  0  0  0  0  0  0  0  0  0  0  0
   -7.5449   -1.1126  -20.1943 C   0  0  0  0  0  0  0  0  0  0  0  0
   -6.8746   -1.4689  -19.1033 N   0  0  0  0  0  0  0  0  0  0  0  0
   -5.7177   -0.9025  -18.7151 C   0  0  0  0  0  0  0  0  0  0  0  0
   -5.2191    0.1081  -19.5172 C   0  0  0  0  0  0  0  0  0  0  0  0
   -4.0315    0.7149  -19.1503 C   0  0  0  0  0  0  0  0  0  0  0  0
   -3.5203    1.7266  -19.9413 C   0  0  0  0  0  0  0  0  0  0  0  0
   -4.1998    2.1143  -21.0804 C   0  0  0  0  0  0  0  0  0  0  0  0
   -5.3783    1.5188  -21.4531 C   0  0  0  0  0  0  0  0  0  0  0  0
   -5.8978    0.5080  -20.6714 C   0  0  0  0  0  0  0  0  0  0  0  0
 14 15  1  0  0  0
 15 10  1  0  0  0
 10 11  2  0  0  0
 10 12  1  0  0  0
 12  4  1  0  0  0
 12 13  1  0  0  0
  4  5  2  0  0  0
  5  6  1  0  0  0
  6  7  2  0  0  0
  7  8  1  0  0  0
  8  1  1  0  0  0
  8  9  2  0  0  0
  1 16  1  0  0  0
  1  2  1  0  0  0
 16 17  1  0  0  0
 17 18  2  0  0  0
 18 19  1  0  0  0
 19 20  2  0  0  0
 20 21  1  0  0  0
 21 22  2  0  0  0
 22 17  1  0  0  0
  2  3  2  0  0  0
  2 23  1  0  0  0
 23 24  1  0  0  0
 24 25  2  0  0  0
 25 26  1  0  0  0
 26 27  2  0  0  0
 27 28  1  0  0  0
 28 29  2  0  0  0
 29 30  1  0  0  0
 30 31  2  0  0  0
 31 32  1  0  0  0
 32 33  2  0  0  0
 33 24  1  0  0  0
 33 28  1  0  0  0
  9  4  1  0  0  0
M  END
> <minimizedAffinity>
-8.37386

> <CNNscore>
0.3259964883

> <CNNaffinity>
6.0782022476

> <CNN_VS>
1.9814726114

> <CNNaffinity_variance>
0.2021644861

$$$$



 33 36  0  0  0  0  0  0  0  0999 V2000
   -8.2647   -0.8671  -23.2846 N   0  0  0  0  0  0  0  0  0  0  0  0
   -7.9809   -1.9153  -22.4002 C   0  0  0  0  0  0  0  0  0  0  0  0
   -8.9885   -2.6715  -22.0793 O   0  0  0  0  0  0  0  0  0  0  0  0
   -6.3200    2.3083  -23.3486 C   0  0  0  0  0  0  0  0  0  0  0  0
   -5.5857    2.2234  -24.4982 C   0  0  0  0  0  0  0  0  0  0  0  0
   -5.7503    1.1024  -25.2709 C   0  0  0  0  0  0  0  0  0  0  0  0
   -6.6382    0.0945  -24.8842 C   0  0  0  0  0  0  0  0  0  0  0  0
   -7.3903    0.1497  -23.7336 C   0  0  0  0  0  0  0  0  0  0  0  0
   -7.1946    1.3119  -22.9699 C   0  0  0  0  0  0  0  0  0  0  0  0
   -7.0405    4.5556  -22.8091 C   0  0  0  0  0  0  0  0  0  0  0  0
   -7.9108    4.4150  -23.7232 O   0  0  0  0  0  0  0  0  0  0  0  0
   -6.1507    3.4788  -22.5444 N   0  0  0  0  0  0  0  0  0  0  0  0
   -5.4577    3.5356  -21.8474 H   0  0  0  0  0  0  0  0  0  0  0  0
   -5.5133    6.3385  -22.0213 C   0  0  0  0  0  0  0  0  0  0  0  0
   -6.9524    5.8232  -22.0289 C   0  0  0  0  0  0  0  0  0  0  0  0
   -9.6399   -0.8547  -23.8353 C   0  0  0  0  0  0  0  0  0  0  0  0
  -10.2938    0.4666  -23.7272 C   0  0  0  0  0  0  0  0  0  0  0  0
  -11.2014    0.7964  -22.7411 C   0  0  0  0  0  0  0  0  0  0  0  0
  -11.8091    2.0566  -22.6750 C   0  0  0  0  0  0  0  0  0  0  0  0
  -11.5277    3.0289  -23.5955 C   0  0  0  0  0  0  0  0  0  0  0  0
  -10.6269    2.7212  -24.5862 C   0  0  0  0  0  0  0  0  0  0  0  0
  -10.0263    1.4809  -24.6546 C   0  0  0  0  0  0  0  0  0  0  0  0
   -6.7345   -2.3227  -21.7577 C   0  0  0  0  0  0  0  0  0  0  0  0
   -6.4226   -1.4098  -20.5900 C   0  0  0  0  0  0  0  0  0  0  0  0
   -7.1681   -1.3975  -19.4455 C   0  0  0  0  0  0  0  0  0  0  0  0
   -6.8738   -0.5875  -18.4337 N   0  0  0  0  0  0  0  0  0  0  0  0
   -5.8414    0.2750  -18.4390 C   0  0  0  0  0  0  0  0  0  0  0  0
   -5.0562    0.2997  -19.5774 C   0  0  0  0  0  0  0  0  0  0  0  0
   -3.9853    1.1740  -19.6202 C   0  0  0  0  0  0  0  0  0  0  0  0
   -3.1913    1.2107  -20.7510 C   0  0  0  0  0  0  0  0  0  0  0  0
   -3.4778    0.3778  -21.8158 C   0  0  0  0  0  0  0  0  0  0  0  0
   -4.5376   -0.4930  -21.7833 C   0  0  0  0  0  0  0  0  0  0  0  0
   -5.3367   -0.5383  -20.6599 C   0  0  0  0  0  0  0  0  0  0  0  0
 14 15  1  0  0  0
 15 10  1  0  0  0
 10 11  2  0  0  0
 10 12  1  0  0  0
 12  4  1  0  0  0
 12 13  1  0  0  0
  4  5  2  0  0  0
  5  6  1  0  0  0
  6  7  2  0  0  0
  7  8  1  0  0  0
  8  1  1  0  0  0
  8  9  2  0  0  0
  1 16  1  0  0  0
  1  2  1  0  0  0
 16 17  1  0  0  0
 17 18  2  0  0  0
 18 19  1  0  0  0
 19 20  2  0  0  0
 20 21  1  0  0  0
 21 22  2  0  0  0
 22 17  1  0  0  0
  2  3  2  0  0  0
  2 23  1  0  0  0
 23 24  1  0  0  0
 24 25  2  0  0  0
 25 26  1  0  0  0
 26 27  2  0  0  0
 27 28  1  0  0  0
 28 29  2  0  0  0
 29 30  1  0  0  0
 30 31  2  0  0  0
 31 32  1  0  0  0
 32 33  2  0  0  0
 33 24  1  0  0  0
 33 28  1  0  0  0
  9  4  1  0  0  0
M  END
> <minimizedAffinity>
-6.42234

> <CNNscore>
0.3142300546

> <CNNaffinity>
5.8788585663

> <CNN_VS>
1.8473140001

> <CNNaffinity_variance>
0.0896021947

$$$$



 35 39  0  0  0  0  0  0  0  0999 V2000
   -9.2416    2.3033  -23.8218 N   0  0  0  0  0  0  0  0  0  0  0  0
   -8.6760    1.3757  -22.8608 C   0  0  0  0  0  0  0  0  0  0  0  0
   -9.1472    0.0019  -23.1693 C   0  0  0  0  0  0  0  0  0  0  0  0
   -8.6823   -1.0459  -22.2203 C   0  0  0  0  0  0  0  0  0  0  0  0
   -8.7651   -0.9988  -20.9647 O   0  0  0  0  0  0  0  0  0  0  0  0
   -8.1115   -2.1455  -22.9642 N   0  0  0  0  0  0  0  0  0  0  0  0
   -8.6598   -2.0080  -24.2970 C   0  0  0  0  0  0  0  0  0  0  0  0
   -8.5498   -0.4787  -24.4564 C   0  0  0  0  0  0  0  0  0  0  0  0
   -7.0762   -0.2023  -24.5124 C   0  0  0  0  0  0  0  0  0  0  0  0
  -10.6482    0.0060  -23.2309 C   0  0  0  0  0  0  0  0  0  0  0  0
  -11.3901   -1.1173  -22.8711 C   0  0  0  0  0  0  0  0  0  0  0  0
  -12.7838   -1.1214  -22.9674 C   0  0  0  0  0  0  0  0  0  0  0  0
  -13.7013   -2.5517  -22.5082 Cl  0  0  0  0  0  0  0  0  0  0  0  0
  -13.4605   -0.0105  -23.4216 C   0  0  0  0  0  0  0  0  0  0  0  0
  -12.7451    1.1069  -23.7793 C   0  0  0  0  0  0  0  0  0  0  0  0
  -11.3742    1.0840  -23.6739 C   0  0  0  0  0  0  0  0  0  0  0  0
  -10.6544    2.3065  -23.9948 C   0  0  0  0  0  0  0  0  0  0  0  0
  -11.2846    3.3218  -24.4107 O   0  0  0  0  0  0  0  0  0  0  0  0
   -7.2013   -3.1371  -22.4800 C   0  0  0  0  0  0  0  0  0  0  0  0
   -6.2395   -2.7870  -21.5233 C   0  0  0  0  0  0  0  0  0  0  0  0
   -5.3625   -3.6964  -21.0425 N   0  0  0  0  0  0  0  0  0  0  0  0
   -5.3792   -4.9714  -21.4635 C   0  0  0  0  0  0  0  0  0  0  0  0
   -6.2998   -5.3826  -22.4036 C   0  0  0  0  0  0  0  0  0  0  0  0
   -6.3425   -6.6805  -22.8567 C   0  0  0  0  0  0  0  0  0  0  0  0
   -7.2587   -7.1050  -23.7995 C   0  0  0  0  0  0  0  0  0  0  0  0
   -8.1441   -6.1755  -24.2816 C   0  0  0  0  0  0  0  0  0  0  0  0
   -8.0985   -4.8760  -23.8254 C   0  0  0  0  0  0  0  0  0  0  0  0
   -7.1960   -4.4365  -22.8897 C   0  0  0  0  0  0  0  0  0  0  0  0
   -8.4513    3.2406  -24.5960 C   0  0  0  0  0  0  0  0  0  0  0  0
   -9.5038    4.0820  -26.7391 N   0  0  0  0  0  0  0  0  0  0  0  0
   -8.8483    3.0046  -26.0392 C   0  0  0  0  0  0  0  0  0  0  0  0
   -8.6093    1.9013  -26.5991 O   0  0  0  0  0  0  0  0  0  0  0  0
   -9.6812    4.9361  -26.2828 H   0  0  0  0  0  0  0  0  0  0  0  0
  -11.2660    4.5400  -28.2929 C   0  0  0  0  0  0  0  0  0  0  0  0
   -9.8974    3.8955  -28.1154 C   0  0  0  0  0  0  0  0  0  0  0  0
 34 35  1  0  0  0
 35 30  1  0  0  0
 30 31  1  0  0  0
 30 33  1  0  0  0
 31 32  2  0  0  0
 31 29  1  0  0  0
 29  1  1  0  0  0
  1  2  1  0  0  0
  3  2  1  0  0  0
  3  4  1  0  0  0
  3 10  1  0  0  0
  4  5  2  0  0  0
  4  6  1  0  0  0
  6 19  1  0  0  0
  6  7  1  0  0  0
 19 20  2  0  0  0
 20 21  1  0  0  0
 21 22  2  0  0  0
 22 23  1  0  0  0
 23 24  2  0  0  0
 24 25  1  0  0  0
 25 26  2  0  0  0
 26 27  1  0  0  0
 27 28  2  0  0  0
 28 19  1  0  0  0
 28 23  1  0  0  0
  7  8  1  0  0  0
  8  9  1  0  0  0
  8  3  1  0  0  0
 10 11  2  0  0  0
 11 12  1  0  0  0
 12 13  1  0  0  0
 12 14  2  0  0  0
 14 15  1  0  0  0
 15 16  2  0  0  0
 16 17  1  0  0  0
 16 10  1  0  0  0
 17 18  2  0  0  0
 17  1  1  0  0  0
M  END
> <minimizedAffinity>
-7.42454

> <CNNscore>
0.4528245330

> <CNNaffinity>
6.1736960411

> <CNN_VS>
2.7956011295

> <CNNaffinity_variance>
0.1390688419

$$$$



 35 39  0  0  0  0  0  0  0  0999 V2000
   -6.2799   -3.4459  -22.3408 N   0  0  0  0  0  0  0  0  0  0  0  0
   -6.9421   -2.3832  -23.0728 C   0  0  0  0  0  0  0  0  0  0  0  0
   -8.3566   -2.7632  -23.3164 C   0  0  0  0  0  0  0  0  0  0  0  0
   -9.1399   -1.7787  -24.1113 C   0  0  0  0  0  0  0  0  0  0  0  0
   -8.7950   -1.2708  -25.2107 O   0  0  0  0  0  0  0  0  0  0  0  0
  -10.3770   -1.4855  -23.4243 N   0  0  0  0  0  0  0  0  0  0  0  0
  -10.5705   -2.6053  -22.5274 C   0  0  0  0  0  0  0  0  0  0  0  0
   -9.1223   -2.7798  -22.0289 C   0  0  0  0  0  0  0  0  0  0  0  0
   -8.8456   -1.5522  -21.2119 C   0  0  0  0  0  0  0  0  0  0  0  0
   -8.3896   -4.1057  -23.9897 C   0  0  0  0  0  0  0  0  0  0  0  0
   -9.4050   -4.4425  -24.8826 C   0  0  0  0  0  0  0  0  0  0  0  0
   -9.4526   -5.7062  -25.4761 C   0  0  0  0  0  0  0  0  0  0  0  0
  -10.7449   -6.1108  -26.6007 Cl  0  0  0  0  0  0  0  0  0  0  0  0
   -8.4928   -6.6531  -25.1921 C   0  0  0  0  0  0  0  0  0  0  0  0
   -7.4830   -6.3377  -24.3151 C   0  0  0  0  0  0  0  0  0  0  0  0
   -7.4597   -5.0861  -23.7459 C   0  0  0  0  0  0  0  0  0  0  0  0
   -6.3390   -4.7632  -22.8768 C   0  0  0  0  0  0  0  0  0  0  0  0
   -5.4621   -5.6392  -22.6223 O   0  0  0  0  0  0  0  0  0  0  0  0
  -11.2104   -0.3357  -23.5967 C   0  0  0  0  0  0  0  0  0  0  0  0
  -12.6006   -0.4924  -23.6724 C   0  0  0  0  0  0  0  0  0  0  0  0
  -13.4200    0.5703  -23.8352 N   0  0  0  0  0  0  0  0  0  0  0  0
  -12.9331    1.8181  -23.9307 C   0  0  0  0  0  0  0  0  0  0  0  0
  -11.5746    2.0426  -23.8642 C   0  0  0  0  0  0  0  0  0  0  0  0
  -11.0437    3.3078  -23.9601 C   0  0  0  0  0  0  0  0  0  0  0  0
   -9.6844    3.5463  -23.8967 C   0  0  0  0  0  0  0  0  0  0  0  0
   -8.8610    2.4622  -23.7317 C   0  0  0  0  0  0  0  0  0  0  0  0
   -9.3964    1.1961  -23.6359 C   0  0  0  0  0  0  0  0  0  0  0  0
  -10.7432    0.9402  -23.6966 C   0  0  0  0  0  0  0  0  0  0  0  0
   -5.5434   -3.2364  -21.1094 C   0  0  0  0  0  0  0  0  0  0  0  0
   -4.6033   -1.1423  -22.1771 N   0  0  0  0  0  0  0  0  0  0  0  0
   -5.2731   -1.7465  -21.0516 C   0  0  0  0  0  0  0  0  0  0  0  0
   -5.6255   -1.0681  -20.0500 O   0  0  0  0  0  0  0  0  0  0  0  0
   -4.3365   -1.6909  -22.9498 H   0  0  0  0  0  0  0  0  0  0  0  0
   -5.3770    0.9570  -23.0276 C   0  0  0  0  0  0  0  0  0  0  0  0
   -4.3281    0.2746  -22.1593 C   0  0  0  0  0  0  0  0  0  0  0  0
 34 35  1  0  0  0
 35 30  1  0  0  0
 30 31  1  0  0  0
 30 33  1  0  0  0
 31 32  2  0  0  0
 31 29  1  0  0  0
 29  1  1  0  0  0
  1  2  1  0  0  0
  3  2  1  0  0  0
  3  4  1  0  0  0
  3 10  1  0  0  0
  4  5  2  0  0  0
  4  6  1  0  0  0
  6 19  1  0  0  0
  6  7  1  0  0  0
 19 20  2  0  0  0
 20 21  1  0  0  0
 21 22  2  0  0  0
 22 23  1  0  0  0
 23 24  2  0  0  0
 24 25  1  0  0  0
 25 26  2  0  0  0
 26 27  1  0  0  0
 27 28  2  0  0  0
 28 19  1  0  0  0
 28 23  1  0  0  0
  7  8  1  0  0  0
  8  9  1  0  0  0
  8  3  1  0  0  0
 10 11  2  0  0  0
 11 12  1  0  0  0
 12 13  1  0  0  0
 12 14  2  0  0  0
 14 15  1  0  0  0
 15 16  2  0  0  0
 16 17  1  0  0  0
 16 10  1  0  0  0
 17 18  2  0  0  0
 17  1  1  0  0  0
M  END
> <minimizedAffinity>
-8.10471

> <CNNscore>
0.3806309998

> <CNNaffinity>
6.4416542053

> <CNN_VS>
2.4518933296

> <CNNaffinity_variance>
0.1553165019

$$$$



 35 39  0  0  0  0  0  0  0  0999 V2000
   -8.6661    1.5724  -24.0504 N   0  0  0  0  0  0  0  0  0  0  0  0
   -8.0672    0.5507  -23.2130 C   0  0  0  0  0  0  0  0  0  0  0  0
   -8.6906   -0.7616  -23.5187 C   0  0  0  0  0  0  0  0  0  0  0  0
   -8.2032   -1.8941  -22.6855 C   0  0  0  0  0  0  0  0  0  0  0  0
   -8.1235   -1.9100  -21.4289 O   0  0  0  0  0  0  0  0  0  0  0  0
   -7.8275   -2.9933  -23.5452 N   0  0  0  0  0  0  0  0  0  0  0  0
   -8.5245   -2.7388  -24.7883 C   0  0  0  0  0  0  0  0  0  0  0  0
   -8.3032   -1.2169  -24.8924 C   0  0  0  0  0  0  0  0  0  0  0  0
   -6.8298   -1.0570  -25.1264 C   0  0  0  0  0  0  0  0  0  0  0  0
  -10.1815   -0.6336  -23.3852 C   0  0  0  0  0  0  0  0  0  0  0  0
  -10.9671   -1.7118  -22.9827 C   0  0  0  0  0  0  0  0  0  0  0  0
  -12.3569   -1.5987  -22.8978 C   0  0  0  0  0  0  0  0  0  0  0  0
  -13.3301   -2.9738  -22.3878 Cl  0  0  0  0  0  0  0  0  0  0  0  0
  -12.9863   -0.4137  -23.2107 C   0  0  0  0  0  0  0  0  0  0  0  0
  -12.2272    0.6607  -23.6079 C   0  0  0  0  0  0  0  0  0  0  0  0
  -10.8610    0.5221  -23.6820 C   0  0  0  0  0  0  0  0  0  0  0  0
  -10.0838    1.6986  -24.0387 C   0  0  0  0  0  0  0  0  0  0  0  0
  -10.6708    2.7827  -24.3239 O   0  0  0  0  0  0  0  0  0  0  0  0
   -6.9533   -4.0800  -23.2275 C   0  0  0  0  0  0  0  0  0  0  0  0
   -6.3728   -4.1533  -21.9545 C   0  0  0  0  0  0  0  0  0  0  0  0
   -5.5417   -5.1648  -21.6179 N   0  0  0  0  0  0  0  0  0  0  0  0
   -5.2399   -6.1392  -22.4912 C   0  0  0  0  0  0  0  0  0  0  0  0
   -5.7767   -6.1275  -23.7608 C   0  0  0  0  0  0  0  0  0  0  0  0
   -5.4868   -7.1093  -24.6793 C   0  0  0  0  0  0  0  0  0  0  0  0
   -6.0166   -7.1085  -25.9551 C   0  0  0  0  0  0  0  0  0  0  0  0
   -6.8585   -6.0783  -26.2876 C   0  0  0  0  0  0  0  0  0  0  0  0
   -7.1468   -5.0963  -25.3649 C   0  0  0  0  0  0  0  0  0  0  0  0
   -6.6302   -5.0809  -24.0937 C   0  0  0  0  0  0  0  0  0  0  0  0
   -7.9008    2.4845  -24.8779 C   0  0  0  0  0  0  0  0  0  0  0  0
   -7.8822    4.2294  -23.0439 N   0  0  0  0  0  0  0  0  0  0  0  0
   -7.1278    3.3547  -23.9077 C   0  0  0  0  0  0  0  0  0  0  0  0
   -5.8693    3.3081  -23.8652 O   0  0  0  0  0  0  0  0  0  0  0  0
   -8.8652    4.2503  -23.0935 H   0  0  0  0  0  0  0  0  0  0  0  0
   -7.1374    6.4774  -22.6960 C   0  0  0  0  0  0  0  0  0  0  0  0
   -7.1816    5.0739  -22.1059 C   0  0  0  0  0  0  0  0  0  0  0  0
 34 35  1  0  0  0
 35 30  1  0  0  0
 30 31  1  0  0  0
 30 33  1  0  0  0
 31 32  2  0  0  0
 31 29  1  0  0  0
 29  1  1  0  0  0
  1  2  1  0  0  0
  3  2  1  0  0  0
  3  4  1  0  0  0
  3 10  1  0  0  0
  4  5  2  0  0  0
  4  6  1  0  0  0
  6 19  1  0  0  0
  6  7  1  0  0  0
 19 20  2  0  0  0
 20 21  1  0  0  0
 21 22  2  0  0  0
 22 23  1  0  0  0
 23 24  2  0  0  0
 24 25  1  0  0  0
 25 26  2  0  0  0
 26 27  1  0  0  0
 27 28  2  0  0  0
 28 19  1  0  0  0
 28 23  1  0  0  0
  7  8  1  0  0  0
  8  9  1  0  0  0
  8  3  1  0  0  0
 10 11  2  0  0  0
 11 12  1  0  0  0
 12 13  1  0  0  0
 12 14  2  0  0  0
 14 15  1  0  0  0
 15 16  2  0  0  0
 16 17  1  0  0  0
 16 10  1  0  0  0
 17 18  2  0  0  0
 17  1  1  0  0  0
M  END
> <minimizedAffinity>
-7.50631

> <CNNscore>
0.3110697269

> <CNNaffinity>
6.2287454605

> <CNN_VS>
1.9375741482

> <CNNaffinity_variance>
0.1309849024

$$$$



 35 39  0  0  0  0  0  0  0  0999 V2000
   -6.6075    0.2851  -20.9884 N   0  0  0  0  0  0  0  0  0  0  0  0
   -7.5265   -0.7484  -21.4258 C   0  0  0  0  0  0  0  0  0  0  0  0
   -7.1877   -1.1501  -22.8145 C   0  0  0  0  0  0  0  0  0  0  0  0
   -8.0935   -2.1708  -23.4081 C   0  0  0  0  0  0  0  0  0  0  0  0
   -9.3515   -2.1222  -23.4316 O   0  0  0  0  0  0  0  0  0  0  0  0
   -7.3035   -3.2457  -23.9638 N   0  0  0  0  0  0  0  0  0  0  0  0
   -5.9887   -2.6708  -24.1556 C   0  0  0  0  0  0  0  0  0  0  0  0
   -5.8731   -1.8678  -22.8449 C   0  0  0  0  0  0  0  0  0  0  0  0
   -5.7908   -2.9049  -21.7638 C   0  0  0  0  0  0  0  0  0  0  0  0
   -7.1615    0.0762  -23.6818 C   0  0  0  0  0  0  0  0  0  0  0  0
   -7.5046    0.0155  -25.0310 C   0  0  0  0  0  0  0  0  0  0  0  0
   -7.4409    1.1510  -25.8424 C   0  0  0  0  0  0  0  0  0  0  0  0
   -7.8782    1.0515  -27.5446 Cl  0  0  0  0  0  0  0  0  0  0  0  0
   -7.0365    2.3626  -25.3258 C   0  0  0  0  0  0  0  0  0  0  0  0
   -6.6961    2.4413  -23.9968 C   0  0  0  0  0  0  0  0  0  0  0  0
   -6.7685    1.3084  -23.2207 C   0  0  0  0  0  0  0  0  0  0  0  0
   -6.4679    1.4432  -21.8041 C   0  0  0  0  0  0  0  0  0  0  0  0
   -6.0978    2.5601  -21.3387 O   0  0  0  0  0  0  0  0  0  0  0  0
   -7.7360   -4.5793  -24.2481 C   0  0  0  0  0  0  0  0  0  0  0  0
   -7.4712   -5.6043  -23.3304 C   0  0  0  0  0  0  0  0  0  0  0  0
   -7.8640   -6.8763  -23.5645 N   0  0  0  0  0  0  0  0  0  0  0  0
   -8.5236   -7.2071  -24.6864 C   0  0  0  0  0  0  0  0  0  0  0  0
   -8.8161   -6.2469  -25.6312 C   0  0  0  0  0  0  0  0  0  0  0  0
   -9.4887   -6.5528  -26.7913 C   0  0  0  0  0  0  0  0  0  0  0  0
   -9.7866   -5.6006  -27.7468 C   0  0  0  0  0  0  0  0  0  0  0  0
   -9.3840   -4.3130  -27.5007 C   0  0  0  0  0  0  0  0  0  0  0  0
   -8.7104   -4.0100  -26.3374 C   0  0  0  0  0  0  0  0  0  0  0  0
   -8.4060   -4.9423  -25.3775 C   0  0  0  0  0  0  0  0  0  0  0  0
   -5.8436    0.2137  -19.7580 C   0  0  0  0  0  0  0  0  0  0  0  0
   -3.7260    1.5618  -19.4305 N   0  0  0  0  0  0  0  0  0  0  0  0
   -4.4138    0.5210  -20.1545 C   0  0  0  0  0  0  0  0  0  0  0  0
   -3.8542   -0.1167  -21.0862 O   0  0  0  0  0  0  0  0  0  0  0  0
   -4.1819    2.0479  -18.7059 H   0  0  0  0  0  0  0  0  0  0  0  0
   -2.3813    3.2092  -20.5291 C   0  0  0  0  0  0  0  0  0  0  0  0
   -2.3627    1.8838  -19.7790 C   0  0  0  0  0  0  0  0  0  0  0  0
 34 35  1  0  0  0
 35 30  1  0  0  0
 30 31  1  0  0  0
 30 33  1  0  0  0
 31 32  2  0  0  0
 31 29  1  0  0  0
 29  1  1  0  0  0
  1  2  1  0  0  0
  3  2  1  0  0  0
  3  4  1  0  0  0
  3 10  1  0  0  0
  4  5  2  0  0  0
  4  6  1  0  0  0
  6 19  1  0  0  0
  6  7  1  0  0  0
 19 20  2  0  0  0
 20 21  1  0  0  0
 21 22  2  0  0  0
 22 23  1  0  0  0
 23 24  2  0  0  0
 24 25  1  0  0  0
 25 26  2  0  0  0
 26 27  1  0  0  0
 27 28  2  0  0  0
 28 19  1  0  0  0
 28 23  1  0  0  0
  7  8  1  0  0  0
  8  9  1  0  0  0
  8  3  1  0  0  0
 10 11  2  0  0  0
 11 12  1  0  0  0
 12 13  1  0  0  0
 12 14  2  0  0  0
 14 15  1  0  0  0
 15 16  2  0  0  0
 16 17  1  0  0  0
 16 10  1  0  0  0
 17 18  2  0  0  0
 17  1  1  0  0  0
M  END
> <minimizedAffinity>
-6.85279

> <CNNscore>
0.2363387048

> <CNNaffinity>
6.0391707420

> <CNN_VS>
1.4272898436

> <CNNaffinity_variance>
0.2349493206

$$$$



 35 39  0  0  0  0  0  0  0  0999 V2000
   -6.7776    1.7068  -23.0189 N   0  0  0  0  0  0  0  0  0  0  0  0
   -6.9562    0.3668  -22.4931 C   0  0  0  0  0  0  0  0  0  0  0  0
   -7.9151   -0.3731  -23.3518 C   0  0  0  0  0  0  0  0  0  0  0  0
   -8.2321   -1.7518  -22.8899 C   0  0  0  0  0  0  0  0  0  0  0  0
   -8.5877   -2.0814  -21.7278 O   0  0  0  0  0  0  0  0  0  0  0  0
   -8.0691   -2.6741  -23.9905 N   0  0  0  0  0  0  0  0  0  0  0  0
   -8.1485   -1.8459  -25.1753 C   0  0  0  0  0  0  0  0  0  0  0  0
   -7.3121   -0.6430  -24.6964 C   0  0  0  0  0  0  0  0  0  0  0  0
   -5.9133   -1.1713  -24.5725 C   0  0  0  0  0  0  0  0  0  0  0  0
   -9.1795    0.4294  -23.4706 C   0  0  0  0  0  0  0  0  0  0  0  0
  -10.4175   -0.1902  -23.6289 C   0  0  0  0  0  0  0  0  0  0  0  0
  -11.5856    0.5614  -23.7782 C   0  0  0  0  0  0  0  0  0  0  0  0
  -13.1390   -0.2421  -23.9777 Cl  0  0  0  0  0  0  0  0  0  0  0  0
  -11.5413    1.9385  -23.7717 C   0  0  0  0  0  0  0  0  0  0  0  0
  -10.3291    2.5665  -23.6148 C   0  0  0  0  0  0  0  0  0  0  0  0
   -9.1951    1.8024  -23.4692 C   0  0  0  0  0  0  0  0  0  0  0  0
   -7.9399    2.4992  -23.2360 C   0  0  0  0  0  0  0  0  0  0  0  0
   -7.9091    3.7641  -23.2313 O   0  0  0  0  0  0  0  0  0  0  0  0
   -7.8666   -4.0879  -23.9113 C   0  0  0  0  0  0  0  0  0  0  0  0
   -6.9578   -4.6068  -22.9798 C   0  0  0  0  0  0  0  0  0  0  0  0
   -6.7398   -5.9369  -22.8760 N   0  0  0  0  0  0  0  0  0  0  0  0
   -7.3863   -6.8128  -23.6621 C   0  0  0  0  0  0  0  0  0  0  0  0
   -8.2939   -6.3691  -24.6000 C   0  0  0  0  0  0  0  0  0  0  0  0
   -8.9714   -7.2398  -25.4213 C   0  0  0  0  0  0  0  0  0  0  0  0
   -9.8821   -6.8082  -26.3662 C   0  0  0  0  0  0  0  0  0  0  0  0
  -10.0965   -5.4574  -26.4645 C   0  0  0  0  0  0  0  0  0  0  0  0
   -9.4160   -4.5879  -25.6399 C   0  0  0  0  0  0  0  0  0  0  0  0
   -8.5083   -4.9983  -24.6960 C   0  0  0  0  0  0  0  0  0  0  0  0
   -5.4826    2.2896  -23.3123 C   0  0  0  0  0  0  0  0  0  0  0  0
   -4.5725    2.2266  -20.9508 N   0  0  0  0  0  0  0  0  0  0  0  0
   -4.5340    1.6951  -22.2911 C   0  0  0  0  0  0  0  0  0  0  0  0
   -3.7427    0.7686  -22.6123 O   0  0  0  0  0  0  0  0  0  0  0  0
   -5.1986    2.9507  -20.7210 H   0  0  0  0  0  0  0  0  0  0  0  0
   -4.4798    0.6862  -19.1211 C   0  0  0  0  0  0  0  0  0  0  0  0
   -3.6840    1.6862  -19.9496 C   0  0  0  0  0  0  0  0  0  0  0  0
 34 35  1  0  0  0
 35 30  1  0  0  0
 30 31  1  0  0  0
 30 33  1  0  0  0
 31 32  2  0  0  0
 31 29  1  0  0  0
 29  1  1  0  0  0
  1  2  1  0  0  0
  3  2  1  0  0  0
  3  4  1  0  0  0
  3 10  1  0  0  0
  4  5  2  0  0  0
  4  6  1  0  0  0
  6 19  1  0  0  0
  6  7  1  0  0  0
 19 20  2  0  0  0
 20 21  1  0  0  0
 21 22  2  0  0  0
 22 23  1  0  0  0
 23 24  2  0  0  0
 24 25  1  0  0  0
 25 26  2  0  0  0
 26 27  1  0  0  0
 27 28  2  0  0  0
 28 19  1  0  0  0
 28 23  1  0  0  0
  7  8  1  0  0  0
  8  9  1  0  0  0
  8  3  1  0  0  0
 10 11  2  0  0  0
 11 12  1  0  0  0
 12 13  1  0  0  0
 12 14  2  0  0  0
 14 15  1  0  0  0
 15 16  2  0  0  0
 16 17  1  0  0  0
 16 10  1  0  0  0
 17 18  2  0  0  0
 17  1  1  0  0  0
M  END
> <minimizedAffinity>
-7.74232

> <CNNscore>
0.2236344814

> <CNNaffinity>
6.1751699448

> <CNN_VS>
1.3809809685

> <CNNaffinity_variance>
0.2532717586

$$$$



 35 39  0  0  0  0  0  0  0  0999 V2000
   -5.9763   -2.6215  -20.9474 N   0  0  0  0  0  0  0  0  0  0  0  0
   -5.8970   -1.4553  -21.8062 C   0  0  0  0  0  0  0  0  0  0  0  0
   -6.8420   -1.6162  -22.9400 C   0  0  0  0  0  0  0  0  0  0  0  0
   -6.8207   -0.5080  -23.9331 C   0  0  0  0  0  0  0  0  0  0  0  0
   -5.7972   -0.0303  -24.4896 O   0  0  0  0  0  0  0  0  0  0  0  0
   -8.1714   -0.0519  -24.1696 N   0  0  0  0  0  0  0  0  0  0  0  0
   -9.0086   -1.1521  -23.7398 C   0  0  0  0  0  0  0  0  0  0  0  0
   -8.2575   -1.5505  -22.4539 C   0  0  0  0  0  0  0  0  0  0  0  0
   -8.4609   -0.3973  -21.5160 C   0  0  0  0  0  0  0  0  0  0  0  0
   -6.5593   -2.9225  -23.6259 C   0  0  0  0  0  0  0  0  0  0  0  0
   -6.7773   -3.0841  -24.9927 C   0  0  0  0  0  0  0  0  0  0  0  0
   -6.5500   -4.3123  -25.6183 C   0  0  0  0  0  0  0  0  0  0  0  0
   -6.8327   -4.4944  -27.3461 Cl  0  0  0  0  0  0  0  0  0  0  0  0
   -6.1025   -5.3971  -24.8962 C   0  0  0  0  0  0  0  0  0  0  0  0
   -5.8805   -5.2555  -23.5475 C   0  0  0  0  0  0  0  0  0  0  0  0
   -6.1116   -4.0351  -22.9572 C   0  0  0  0  0  0  0  0  0  0  0  0
   -5.8002   -3.9023  -21.5428 C   0  0  0  0  0  0  0  0  0  0  0  0
   -5.3892   -4.9040  -20.8880 O   0  0  0  0  0  0  0  0  0  0  0  0
   -8.5765    1.2122  -24.7028 C   0  0  0  0  0  0  0  0  0  0  0  0
   -9.1445    2.1721  -23.8550 C   0  0  0  0  0  0  0  0  0  0  0  0
   -9.5395    3.3774  -24.3225 N   0  0  0  0  0  0  0  0  0  0  0  0
   -9.4027    3.7015  -25.6184 C   0  0  0  0  0  0  0  0  0  0  0  0
   -8.8516    2.8030  -26.5068 C   0  0  0  0  0  0  0  0  0  0  0  0
   -8.6988    3.1032  -27.8403 C   0  0  0  0  0  0  0  0  0  0  0  0
   -8.1497    2.2114  -28.7411 C   0  0  0  0  0  0  0  0  0  0  0  0
   -7.7522    0.9912  -28.2578 C   0  0  0  0  0  0  0  0  0  0  0  0
   -7.9065    0.6938  -26.9212 C   0  0  0  0  0  0  0  0  0  0  0  0
   -8.4496    1.5667  -26.0122 C   0  0  0  0  0  0  0  0  0  0  0  0
   -6.2009   -2.5527  -19.5165 C   0  0  0  0  0  0  0  0  0  0  0  0
   -4.6606   -0.5464  -19.4109 N   0  0  0  0  0  0  0  0  0  0  0  0
   -5.9634   -1.1038  -19.1418 C   0  0  0  0  0  0  0  0  0  0  0  0
   -6.8795   -0.4183  -18.6138 O   0  0  0  0  0  0  0  0  0  0  0  0
   -3.9589   -1.0996  -19.8242 H   0  0  0  0  0  0  0  0  0  0  0  0
   -4.0802    1.5728  -20.3602 C   0  0  0  0  0  0  0  0  0  0  0  0
   -4.3958    0.8307  -19.0682 C   0  0  0  0  0  0  0  0  0  0  0  0
 34 35  1  0  0  0
 35 30  1  0  0  0
 30 31  1  0  0  0
 30 33  1  0  0  0
 31 32  2  0  0  0
 31 29  1  0  0  0
 29  1  1  0  0  0
  1  2  1  0  0  0
  3  2  1  0  0  0
  3  4  1  0  0  0
  3 10  1  0  0  0
  4  5  2  0  0  0
  4  6  1  0  0  0
  6 19  1  0  0  0
  6  7  1  0  0  0
 19 20  2  0  0  0
 20 21  1  0  0  0
 21 22  2  0  0  0
 22 23  1  0  0  0
 23 24  2  0  0  0
 24 25  1  0  0  0
 25 26  2  0  0  0
 26 27  1  0  0  0
 27 28  2  0  0  0
 28 19  1  0  0  0
 28 23  1  0  0  0
  7  8  1  0  0  0
  8  9  1  0  0  0
  8  3  1  0  0  0
 10 11  2  0  0  0
 11 12  1  0  0  0
 12 13  1  0  0  0
 12 14  2  0  0  0
 14 15  1  0  0  0
 15 16  2  0  0  0
 16 17  1  0  0  0
 16 10  1  0  0  0
 17 18  2  0  0  0
 17  1  1  0  0  0
M  END
> <minimizedAffinity>
-6.73447

> <CNNscore>
0.2041914165

> <CNNaffinity>
5.8183655739

> <CNN_VS>
1.1880602837

> <CNNaffinity_variance>
0.3211430311

$$$$



 35 39  0  0  0  0  0  0  0  0999 V2000
   -3.8310    0.4250  -24.2324 N   0  0  0  0  0  0  0  0  0  0  0  0
   -4.8592   -0.5722  -24.0041 C   0  0  0  0  0  0  0  0  0  0  0  0
   -5.7960   -0.0809  -22.9621 C   0  0  0  0  0  0  0  0  0  0  0  0
   -6.8740   -1.0371  -22.5903 C   0  0  0  0  0  0  0  0  0  0  0  0
   -6.7170   -2.2462  -22.2756 O   0  0  0  0  0  0  0  0  0  0  0  0
   -8.1509   -0.3626  -22.6444 N   0  0  0  0  0  0  0  0  0  0  0  0
   -7.8243    1.0448  -22.5529 C   0  0  0  0  0  0  0  0  0  0  0  0
   -6.5932    1.0769  -23.4801 C   0  0  0  0  0  0  0  0  0  0  0  0
   -7.1359    0.7978  -24.8507 C   0  0  0  0  0  0  0  0  0  0  0  0
   -5.0077    0.3003  -21.7415 C   0  0  0  0  0  0  0  0  0  0  0  0
   -5.5504    0.1818  -20.4635 C   0  0  0  0  0  0  0  0  0  0  0  0
   -4.8275    0.5744  -19.3345 C   0  0  0  0  0  0  0  0  0  0  0  0
   -5.5328    0.4166  -17.7294 Cl  0  0  0  0  0  0  0  0  0  0  0  0
   -3.5556    1.0896  -19.4580 C   0  0  0  0  0  0  0  0  0  0  0  0
   -3.0038    1.2121  -20.7105 C   0  0  0  0  0  0  0  0  0  0  0  0
   -3.7371    0.8172  -21.8047 C   0  0  0  0  0  0  0  0  0  0  0  0
   -3.0963    0.8961  -23.1080 C   0  0  0  0  0  0  0  0  0  0  0  0
   -1.9277    1.3701  -23.2115 O   0  0  0  0  0  0  0  0  0  0  0  0
   -9.4425   -0.9648  -22.7692 C   0  0  0  0  0  0  0  0  0  0  0  0
   -9.5838   -2.3464  -22.5846 C   0  0  0  0  0  0  0  0  0  0  0  0
  -10.7878   -2.9509  -22.6948 N   0  0  0  0  0  0  0  0  0  0  0  0
  -11.8958   -2.2501  -22.9856 C   0  0  0  0  0  0  0  0  0  0  0  0
  -11.8270   -0.8872  -23.1797 C   0  0  0  0  0  0  0  0  0  0  0  0
  -12.9425   -0.1407  -23.4802 C   0  0  0  0  0  0  0  0  0  0  0  0
  -12.8870    1.2253  -23.6788 C   0  0  0  0  0  0  0  0  0  0  0  0
  -11.6614    1.8297  -23.5652 C   0  0  0  0  0  0  0  0  0  0  0  0
  -10.5459    1.0789  -23.2639 C   0  0  0  0  0  0  0  0  0  0  0  0
  -10.5819   -0.2782  -23.0634 C   0  0  0  0  0  0  0  0  0  0  0  0
   -3.4959    0.9492  -25.5422 C   0  0  0  0  0  0  0  0  0  0  0  0
   -3.6082   -0.6347  -27.5139 N   0  0  0  0  0  0  0  0  0  0  0  0
   -2.9255   -0.2254  -26.3110 C   0  0  0  0  0  0  0  0  0  0  0  0
   -1.8899   -0.8173  -25.9048 O   0  0  0  0  0  0  0  0  0  0  0  0
   -4.4160   -0.1583  -27.8136 H   0  0  0  0  0  0  0  0  0  0  0  0
   -4.0107   -2.9397  -28.0178 C   0  0  0  0  0  0  0  0  0  0  0  0
   -3.0953   -1.7496  -28.2739 C   0  0  0  0  0  0  0  0  0  0  0  0
 34 35  1  0  0  0
 35 30  1  0  0  0
 30 31  1  0  0  0
 30 33  1  0  0  0
 31 32  2  0  0  0
 31 29  1  0  0  0
 29  1  1  0  0  0
  1  2  1  0  0  0
  3  2  1  0  0  0
  3  4  1  0  0  0
  3 10  1  0  0  0
  4  5  2  0  0  0
  4  6  1  0  0  0
  6 19  1  0  0  0
  6  7  1  0  0  0
 19 20  2  0  0  0
 20 21  1  0  0  0
 21 22  2  0  0  0
 22 23  1  0  0  0
 23 24  2  0  0  0
 24 25  1  0  0  0
 25 26  2  0  0  0
 26 27  1  0  0  0
 27 28  2  0  0  0
 28 19  1  0  0  0
 28 23  1  0  0  0
  7  8  1  0  0  0
  8  9  1  0  0  0
  8  3  1  0  0  0
 10 11  2  0  0  0
 11 12  1  0  0  0
 12 13  1  0  0  0
 12 14  2  0  0  0
 14 15  1  0  0  0
 15 16  2  0  0  0
 16 17  1  0  0  0
 16 10  1  0  0  0
 17 18  2  0  0  0
 17  1  1  0  0  0
M  END
> <minimizedAffinity>
-7.32816

> <CNNscore>
0.1725516468

> <CNNaffinity>
5.5679445267

> <CNN_VS>
0.9607579708

> <CNNaffinity_variance>
0.2236470282

$$$$



 35 39  0  0  0  0  0  0  0  0999 V2000
   -5.6876   -2.7392  -21.0291 N   0  0  0  0  0  0  0  0  0  0  0  0
   -5.6451   -1.5428  -21.8480 C   0  0  0  0  0  0  0  0  0  0  0  0
   -6.8041   -1.5422  -22.7759 C   0  0  0  0  0  0  0  0  0  0  0  0
   -6.8507   -0.3900  -23.7166 C   0  0  0  0  0  0  0  0  0  0  0  0
   -5.9073    0.0076  -24.4497 O   0  0  0  0  0  0  0  0  0  0  0  0
   -8.1612    0.2169  -23.6648 N   0  0  0  0  0  0  0  0  0  0  0  0
   -9.0180   -0.8115  -23.1133 C   0  0  0  0  0  0  0  0  0  0  0  0
   -8.0817   -1.3556  -22.0161 C   0  0  0  0  0  0  0  0  0  0  0  0
   -7.9675   -0.2401  -21.0193 C   0  0  0  0  0  0  0  0  0  0  0  0
   -6.8095   -2.8317  -23.5466 C   0  0  0  0  0  0  0  0  0  0  0  0
   -7.3054   -2.8952  -24.8473 C   0  0  0  0  0  0  0  0  0  0  0  0
   -7.3443   -4.1046  -25.5454 C   0  0  0  0  0  0  0  0  0  0  0  0
   -7.9756   -4.1620  -27.1875 Cl  0  0  0  0  0  0  0  0  0  0  0  0
   -6.8908   -5.2678  -24.9625 C   0  0  0  0  0  0  0  0  0  0  0  0
   -6.3967   -5.2236  -23.6810 C   0  0  0  0  0  0  0  0  0  0  0  0
   -6.3694   -4.0197  -23.0170 C   0  0  0  0  0  0  0  0  0  0  0  0
   -5.7764   -3.9972  -21.6892 C   0  0  0  0  0  0  0  0  0  0  0  0
   -5.3622   -5.0705  -21.1623 O   0  0  0  0  0  0  0  0  0  0  0  0
   -8.5164    1.5434  -24.0652 C   0  0  0  0  0  0  0  0  0  0  0  0
   -9.4689    1.7309  -25.0754 C   0  0  0  0  0  0  0  0  0  0  0  0
   -9.8297    2.9690  -25.4805 N   0  0  0  0  0  0  0  0  0  0  0  0
   -9.2888    4.0680  -24.9301 C   0  0  0  0  0  0  0  0  0  0  0  0
   -8.3454    3.9546  -23.9314 C   0  0  0  0  0  0  0  0  0  0  0  0
   -7.7711    5.0598  -23.3480 C   0  0  0  0  0  0  0  0  0  0  0  0
   -6.8236    4.9601  -22.3477 C   0  0  0  0  0  0  0  0  0  0  0  0
   -6.4638    3.7001  -21.9435 C   0  0  0  0  0  0  0  0  0  0  0  0
   -7.0412    2.5949  -22.5300 C   0  0  0  0  0  0  0  0  0  0  0  0
   -7.9835    2.6747  -23.5244 C   0  0  0  0  0  0  0  0  0  0  0  0
   -5.6210   -2.7252  -19.5807 C   0  0  0  0  0  0  0  0  0  0  0  0
   -4.4854   -0.4643  -19.6681 N   0  0  0  0  0  0  0  0  0  0  0  0
   -5.5909   -1.2603  -19.1941 C   0  0  0  0  0  0  0  0  0  0  0  0
   -6.5052   -0.7647  -18.4827 O   0  0  0  0  0  0  0  0  0  0  0  0
   -3.7814   -0.8716  -20.2229 H   0  0  0  0  0  0  0  0  0  0  0  0
   -3.1306    1.4947  -19.9048 C   0  0  0  0  0  0  0  0  0  0  0  0
   -4.4213    0.9354  -19.3209 C   0  0  0  0  0  0  0  0  0  0  0  0
 34 35  1  0  0  0
 35 30  1  0  0  0
 30 31  1  0  0  0
 30 33  1  0  0  0
 31 32  2  0  0  0
 31 29  1  0  0  0
 29  1  1  0  0  0
  1  2  1  0  0  0
  3  2  1  0  0  0
  3  4  1  0  0  0
  3 10  1  0  0  0
  4  5  2  0  0  0
  4  6  1  0  0  0
  6 19  1  0  0  0
  6  7  1  0  0  0
 19 20  2  0  0  0
 20 21  1  0  0  0
 21 22  2  0  0  0
 22 23  1  0  0  0
 23 24  2  0  0  0
 24 25  1  0  0  0
 25 26  2  0  0  0
 26 27  1  0  0  0
 27 28  2  0  0  0
 28 19  1  0  0  0
 28 23  1  0  0  0
  7  8  1  0  0  0
  8  9  1  0  0  0
  8  3  1  0  0  0
 10 11  2  0  0  0
 11 12  1  0  0  0
 12 13  1  0  0  0
 12 14  2  0  0  0
 14 15  1  0  0  0
 15 16  2  0  0  0
 16 17  1  0  0  0
 16 10  1  0  0  0
 17 18  2  0  0  0
 17  1  1  0  0  0
M  END
> <minimizedAffinity>
-7.67278

> <CNNscore>
0.1555758268

> <CNNaffinity>
5.7883291245

> <CNN_VS>
0.9005240798

> <CNNaffinity_variance>
0.3085084558

$$$$



 35 39  0  0  0  0  0  0  0  0999 V2000
   -6.8154   -3.6049  -23.3119 N   0  0  0  0  0  0  0  0  0  0  0  0
   -7.8154   -2.5545  -23.3279 C   0  0  0  0  0  0  0  0  0  0  0  0
   -7.2075   -1.2911  -22.8392 C   0  0  0  0  0  0  0  0  0  0  0  0
   -8.1456   -0.1392  -22.7524 C   0  0  0  0  0  0  0  0  0  0  0  0
   -9.2726   -0.1411  -22.1908 O   0  0  0  0  0  0  0  0  0  0  0  0
   -7.5632    1.0030  -23.4192 N   0  0  0  0  0  0  0  0  0  0  0  0
   -6.1447    0.7170  -23.4608 C   0  0  0  0  0  0  0  0  0  0  0  0
   -6.2017   -0.7798  -23.8247 C   0  0  0  0  0  0  0  0  0  0  0  0
   -6.7402   -0.8157  -25.2246 C   0  0  0  0  0  0  0  0  0  0  0  0
   -6.5802   -1.5416  -21.4974 C   0  0  0  0  0  0  0  0  0  0  0  0
   -6.5098   -0.5383  -20.5330 C   0  0  0  0  0  0  0  0  0  0  0  0
   -5.8905   -0.7648  -19.3015 C   0  0  0  0  0  0  0  0  0  0  0  0
   -5.8121    0.5173  -18.0979 Cl  0  0  0  0  0  0  0  0  0  0  0  0
   -5.3330   -1.9905  -19.0097 C   0  0  0  0  0  0  0  0  0  0  0  0
   -5.3947   -2.9923  -19.9483 C   0  0  0  0  0  0  0  0  0  0  0  0
   -6.0109   -2.7425  -21.1520 C   0  0  0  0  0  0  0  0  0  0  0  0
   -6.1191   -3.8454  -22.0940 C   0  0  0  0  0  0  0  0  0  0  0  0
   -5.6045   -4.9676  -21.8170 O   0  0  0  0  0  0  0  0  0  0  0  0
   -8.2497    2.1505  -23.9275 C   0  0  0  0  0  0  0  0  0  0  0  0
   -9.2000    1.9952  -24.9452 C   0  0  0  0  0  0  0  0  0  0  0  0
   -9.8684    3.0559  -25.4508 N   0  0  0  0  0  0  0  0  0  0  0  0
   -9.6474    4.3001  -24.9968 C   0  0  0  0  0  0  0  0  0  0  0  0
   -8.7254    4.5232  -23.9966 C   0  0  0  0  0  0  0  0  0  0  0  0
   -8.4745    5.7851  -23.5104 C   0  0  0  0  0  0  0  0  0  0  0  0
   -7.5522    6.0224  -22.5097 C   0  0  0  0  0  0  0  0  0  0  0  0
   -6.8789    4.9405  -22.0032 C   0  0  0  0  0  0  0  0  0  0  0  0
   -7.1328    3.6776  -22.4925 C   0  0  0  0  0  0  0  0  0  0  0  0
   -8.0449    3.4229  -23.4857 C   0  0  0  0  0  0  0  0  0  0  0  0
   -6.5038   -4.4362  -24.4585 C   0  0  0  0  0  0  0  0  0  0  0  0
   -8.5303   -5.0802  -25.8323 N   0  0  0  0  0  0  0  0  0  0  0  0
   -7.7221   -5.3143  -24.6608 C   0  0  0  0  0  0  0  0  0  0  0  0
   -8.0103   -6.2151  -23.8282 O   0  0  0  0  0  0  0  0  0  0  0  0
   -8.2873   -4.3709  -26.4704 H   0  0  0  0  0  0  0  0  0  0  0  0
   -9.9246   -5.9655  -27.5647 C   0  0  0  0  0  0  0  0  0  0  0  0
   -9.6991   -5.8962  -26.0600 C   0  0  0  0  0  0  0  0  0  0  0  0
 34 35  1  0  0  0
 35 30  1  0  0  0
 30 31  1  0  0  0
 30 33  1  0  0  0
 31 32  2  0  0  0
 31 29  1  0  0  0
 29  1  1  0  0  0
  1  2  1  0  0  0
  3  2  1  0  0  0
  3  4  1  0  0  0
  3 10  1  0  0  0
  4  5  2  0  0  0
  4  6  1  0  0  0
  6 19  1  0  0  0
  6  7  1  0  0  0
 19 20  2  0  0  0
 20 21  1  0  0  0
 21 22  2  0  0  0
 22 23  1  0  0  0
 23 24  2  0  0  0
 24 25  1  0  0  0
 25 26  2  0  0  0
 26 27  1  0  0  0
 27 28  2  0  0  0
 28 19  1  0  0  0
 28 23  1  0  0  0
  7  8  1  0  0  0
  8  9  1  0  0  0
  8  3  1  0  0  0
 10 11  2  0  0  0
 11 12  1  0  0  0
 12 13  1  0  0  0
 12 14  2  0  0  0
 14 15  1  0  0  0
 15 16  2  0  0  0
 16 17  1  0  0  0
 16 10  1  0  0  0
 17 18  2  0  0  0
 17  1  1  0  0  0
M  END
> <minimizedAffinity>
-7.20898

> <CNNscore>
0.1536765397

> <CNNaffinity>
5.8373889923

> <CNN_VS>
0.8970697522

> <CNNaffinity_variance>
0.0711278766

$$$$



 24 27  0  0  0  0  0  0  0  0999 V2000
   -6.3465   -5.6278  -22.8318 C   0  0  0  0  0  0  0  0  0  0  0  0
   -6.3652   -4.2705  -22.3197 N   0  0  0  0  0  0  0  0  0  0  0  0
   -6.9468   -3.2221  -22.9265 C   0  0  0  0  0  0  0  0  0  0  0  0
   -6.7575   -2.1319  -22.1543 N   0  0  0  0  0  0  0  0  0  0  0  0
   -6.0686   -2.4705  -21.0730 N   0  0  0  0  0  0  0  0  0  0  0  0
   -5.8358   -3.7746  -21.1854 C   0  0  0  0  0  0  0  0  0  0  0  0
   -5.1983   -4.4528  -20.3312 O   0  0  0  0  0  0  0  0  0  0  0  0
   -5.7018   -1.5465  -20.0542 C   0  0  0  0  0  0  0  0  0  0  0  0
   -6.1513   -1.6453  -18.7544 C   0  0  0  0  0  0  0  0  0  0  0  0
   -5.7720   -0.7352  -17.8130 N   0  0  0  0  0  0  0  0  0  0  0  0
   -4.9506    0.2769  -18.1379 C   0  0  0  0  0  0  0  0  0  0  0  0
   -4.4724    0.4144  -19.4404 C   0  0  0  0  0  0  0  0  0  0  0  0
   -3.6200    1.4694  -19.7660 C   0  0  0  0  0  0  0  0  0  0  0  0
   -3.1537    1.5878  -21.0742 C   0  0  0  0  0  0  0  0  0  0  0  0
   -3.5275    0.6740  -22.0442 C   0  0  0  0  0  0  0  0  0  0  0  0
   -4.3764   -0.3693  -21.7020 C   0  0  0  0  0  0  0  0  0  0  0  0
   -4.8574   -0.5141  -20.4074 C   0  0  0  0  0  0  0  0  0  0  0  0
   -7.6892   -3.1608  -24.2134 C   0  0  0  0  0  0  0  0  0  0  0  0
   -6.8885   -2.5233  -25.2746 C   0  0  0  0  0  0  0  0  0  0  0  0
   -5.6965   -3.0265  -25.7535 C   0  0  0  0  0  0  0  0  0  0  0  0
   -5.0166   -2.3435  -26.7622 C   0  0  0  0  0  0  0  0  0  0  0  0
   -5.5334   -1.1598  -27.2866 C   0  0  0  0  0  0  0  0  0  0  0  0
   -6.7285   -0.6510  -26.8098 C   0  0  0  0  0  0  0  0  0  0  0  0
   -7.3879   -1.3394  -25.8118 C   0  0  0  0  0  0  0  0  0  0  0  0
  1  2  1  0  0  0
  2  3  1  0  0  0
  3 18  1  0  0  0
  3  4  2  0  0  0
 18 19  1  0  0  0
 19 20  2  0  0  0
 20 21  1  0  0  0
 21 22  2  0  0  0
 22 23  1  0  0  0
 23 24  2  0  0  0
 24 19  1  0  0  0
  4  5  1  0  0  0
  5  8  1  0  0  0
  5  6  1  0  0  0
  8  9  2  0  0  0
  9 10  1  0  0  0
 10 11  2  0  0  0
 11 12  1  0  0  0
 12 13  2  0  0  0
 13 14  1  0  0  0
 14 15  2  0  0  0
 15 16  1  0  0  0
 16 17  2  0  0  0
 17  8  1  0  0  0
 17 12  1  0  0  0
  6  7  2  0  0  0
  6  2  1  0  0  0
M  END
> <minimizedAffinity>
-6.39553

> <CNNscore>
0.7443779707

> <CNNaffinity>
5.3412337303

> <CNN_VS>
3.9758968353

> <CNNaffinity_variance>
0.0930641890

$$$$



 24 27  0  0  0  0  0  0  0  0999 V2000
   -6.8070   -4.8220  -23.5221 C   0  0  0  0  0  0  0  0  0  0  0  0
   -6.8325   -3.5675  -22.7937 N   0  0  0  0  0  0  0  0  0  0  0  0
   -7.5749   -2.4967  -23.1221 C   0  0  0  0  0  0  0  0  0  0  0  0
   -7.3351   -1.5258  -22.2162 N   0  0  0  0  0  0  0  0  0  0  0  0
   -6.4570   -1.9616  -21.3232 N   0  0  0  0  0  0  0  0  0  0  0  0
   -6.1587   -3.2055  -21.6857 C   0  0  0  0  0  0  0  0  0  0  0  0
   -5.3456   -3.9451  -21.0630 O   0  0  0  0  0  0  0  0  0  0  0  0
   -5.9910   -1.1758  -20.2317 C   0  0  0  0  0  0  0  0  0  0  0  0
   -6.5376   -1.2478  -18.9679 C   0  0  0  0  0  0  0  0  0  0  0  0
   -6.0568   -0.4744  -17.9536 N   0  0  0  0  0  0  0  0  0  0  0  0
   -5.0380    0.3742  -18.1700 C   0  0  0  0  0  0  0  0  0  0  0  0
   -4.4557    0.4788  -19.4326 C   0  0  0  0  0  0  0  0  0  0  0  0
   -3.3985    1.3635  -19.6453 C   0  0  0  0  0  0  0  0  0  0  0  0
   -2.8311    1.4520  -20.9153 C   0  0  0  0  0  0  0  0  0  0  0  0
   -3.3054    0.6752  -21.9580 C   0  0  0  0  0  0  0  0  0  0  0  0
   -4.3581   -0.1995  -21.7278 C   0  0  0  0  0  0  0  0  0  0  0  0
   -4.9440   -0.3103  -20.4738 C   0  0  0  0  0  0  0  0  0  0  0  0
   -8.5207   -2.3069  -24.2536 C   0  0  0  0  0  0  0  0  0  0  0  0
   -9.8955   -2.0638  -23.7797 C   0  0  0  0  0  0  0  0  0  0  0  0
  -10.7092   -3.0345  -23.2329 C   0  0  0  0  0  0  0  0  0  0  0  0
  -11.9970   -2.6981  -22.8149 C   0  0  0  0  0  0  0  0  0  0  0  0
  -12.4639   -1.3912  -22.9465 C   0  0  0  0  0  0  0  0  0  0  0  0
  -11.6519   -0.4140  -23.4943 C   0  0  0  0  0  0  0  0  0  0  0  0
  -10.3808   -0.7642  -23.9025 C   0  0  0  0  0  0  0  0  0  0  0  0
  1  2  1  0  0  0
  2  3  1  0  0  0
  3 18  1  0  0  0
  3  4  2  0  0  0
 18 19  1  0  0  0
 19 20  2  0  0  0
 20 21  1  0  0  0
 21 22  2  0  0  0
 22 23  1  0  0  0
 23 24  2  0  0  0
 24 19  1  0  0  0
  4  5  1  0  0  0
  5  8  1  0  0  0
  5  6  1  0  0  0
  8  9  2  0  0  0
  9 10  1  0  0  0
 10 11  2  0  0  0
 11 12  1  0  0  0
 12 13  2  0  0  0
 13 14  1  0  0  0
 14 15  2  0  0  0
 15 16  1  0  0  0
 16 17  2  0  0  0
 17  8  1  0  0  0
 17 12  1  0  0  0
  6  7  2  0  0  0
  6  2  1  0  0  0
M  END
> <minimizedAffinity>
-7.75055

> <CNNscore>
0.6960188746

> <CNNaffinity>
5.6306366920

> <CNN_VS>
3.9190294743

> <CNNaffinity_variance>
0.1193729639

$$$$



 24 27  0  0  0  0  0  0  0  0999 V2000
   -5.0169    0.3773  -17.8940 C   0  0  0  0  0  0  0  0  0  0  0  0
   -5.3379   -0.1913  -19.1896 N   0  0  0  0  0  0  0  0  0  0  0  0
   -5.1244    0.4089  -20.3727 C   0  0  0  0  0  0  0  0  0  0  0  0
   -5.5484   -0.4219  -21.3476 N   0  0  0  0  0  0  0  0  0  0  0  0
   -6.0251   -1.5338  -20.8044 N   0  0  0  0  0  0  0  0  0  0  0  0
   -5.8914   -1.3812  -19.4905 C   0  0  0  0  0  0  0  0  0  0  0  0
   -6.2420   -2.2481  -18.6411 O   0  0  0  0  0  0  0  0  0  0  0  0
   -6.5523   -2.6158  -21.5643 C   0  0  0  0  0  0  0  0  0  0  0  0
   -5.8604   -3.7889  -21.7796 C   0  0  0  0  0  0  0  0  0  0  0  0
   -6.4077   -4.7979  -22.5150 N   0  0  0  0  0  0  0  0  0  0  0  0
   -7.6353   -4.6648  -23.0442 C   0  0  0  0  0  0  0  0  0  0  0  0
   -8.3698   -3.4954  -22.8513 C   0  0  0  0  0  0  0  0  0  0  0  0
   -9.6435   -3.3688  -23.4056 C   0  0  0  0  0  0  0  0  0  0  0  0
  -10.3603   -2.1911  -23.2002 C   0  0  0  0  0  0  0  0  0  0  0  0
   -9.8218   -1.1554  -22.4566 C   0  0  0  0  0  0  0  0  0  0  0  0
   -8.5530   -1.2992  -21.9126 C   0  0  0  0  0  0  0  0  0  0  0  0
   -7.8144   -2.4601  -22.0995 C   0  0  0  0  0  0  0  0  0  0  0  0
   -4.5356    1.7416  -20.6697 C   0  0  0  0  0  0  0  0  0  0  0  0
   -3.0801    1.6578  -20.8889 C   0  0  0  0  0  0  0  0  0  0  0  0
   -2.4971    1.2607  -22.0746 C   0  0  0  0  0  0  0  0  0  0  0  0
   -1.1065    1.2162  -22.1771 C   0  0  0  0  0  0  0  0  0  0  0  0
   -0.3062    1.5693  -21.0917 C   0  0  0  0  0  0  0  0  0  0  0  0
   -0.8859    1.9682  -19.9004 C   0  0  0  0  0  0  0  0  0  0  0  0
   -2.2630    2.0066  -19.8164 C   0  0  0  0  0  0  0  0  0  0  0  0
  1  2  1  0  0  0
  2  3  1  0  0  0
  3 18  1  0  0  0
  3  4  2  0  0  0
 18 19  1  0  0  0
 19 20  2  0  0  0
 20 21  1  0  0  0
 21 22  2  0  0  0
 22 23  1  0  0  0
 23 24  2  0  0  0
 24 19  1  0  0  0
  4  5  1  0  0  0
  5  8  1  0  0  0
  5  6  1  0  0  0
  8  9  2  0  0  0
  9 10  1  0  0  0
 10 11  2  0  0  0
 11 12  1  0  0  0
 12 13  2  0  0  0
 13 14  1  0  0  0
 14 15  2  0  0  0
 15 16  1  0  0  0
 16 17  2  0  0  0
 17  8  1  0  0  0
 17 12  1  0  0  0
  6  7  2  0  0  0
  6  2  1  0  0  0
M  END
> <minimizedAffinity>
-6.69327

> <CNNscore>
0.4339924753

> <CNNaffinity>
5.2222700119

> <CNN_VS>
2.2664258480

> <CNNaffinity_variance>
0.2801607251

$$$$



 24 27  0  0  0  0  0  0  0  0999 V2000
   -9.3546   -2.0084  -24.0927 C   0  0  0  0  0  0  0  0  0  0  0  0
   -8.2107   -2.0020  -23.2003 N   0  0  0  0  0  0  0  0  0  0  0  0
   -7.1034   -2.7472  -23.3558 C   0  0  0  0  0  0  0  0  0  0  0  0
   -6.2652   -2.4719  -22.3349 N   0  0  0  0  0  0  0  0  0  0  0  0
   -6.8205   -1.5687  -21.5384 N   0  0  0  0  0  0  0  0  0  0  0  0
   -8.0043   -1.2907  -22.0759 C   0  0  0  0  0  0  0  0  0  0  0  0
   -8.8237   -0.4632  -21.5863 O   0  0  0  0  0  0  0  0  0  0  0  0
   -6.1916   -1.0627  -20.3660 C   0  0  0  0  0  0  0  0  0  0  0  0
   -6.5052   -1.5020  -19.0972 C   0  0  0  0  0  0  0  0  0  0  0  0
   -5.8749   -0.9867  -18.0037 N   0  0  0  0  0  0  0  0  0  0  0  0
   -4.9338   -0.0386  -18.1455 C   0  0  0  0  0  0  0  0  0  0  0  0
   -4.5858    0.4344  -19.4102 C   0  0  0  0  0  0  0  0  0  0  0  0
   -3.6072    1.4191  -19.5450 C   0  0  0  0  0  0  0  0  0  0  0  0
   -3.2747    1.8773  -20.8187 C   0  0  0  0  0  0  0  0  0  0  0  0
   -3.9034    1.3667  -21.9410 C   0  0  0  0  0  0  0  0  0  0  0  0
   -4.8748    0.3873  -21.7876 C   0  0  0  0  0  0  0  0  0  0  0  0
   -5.2277   -0.0896  -20.5322 C   0  0  0  0  0  0  0  0  0  0  0  0
   -6.7592   -3.7273  -24.4197 C   0  0  0  0  0  0  0  0  0  0  0  0
   -6.5092   -5.0697  -23.8638 C   0  0  0  0  0  0  0  0  0  0  0  0
   -5.4004   -5.8359  -24.1588 C   0  0  0  0  0  0  0  0  0  0  0  0
   -5.2598   -7.0961  -23.5771 C   0  0  0  0  0  0  0  0  0  0  0  0
   -6.2302   -7.5833  -22.7029 C   0  0  0  0  0  0  0  0  0  0  0  0
   -7.3440   -6.8189  -22.4038 C   0  0  0  0  0  0  0  0  0  0  0  0
   -7.4672   -5.5745  -22.9880 C   0  0  0  0  0  0  0  0  0  0  0  0
  1  2  1  0  0  0
  2  3  1  0  0  0
  3 18  1  0  0  0
  3  4  2  0  0  0
 18 19  1  0  0  0
 19 20  2  0  0  0
 20 21  1  0  0  0
 21 22  2  0  0  0
 22 23  1  0  0  0
 23 24  2  0  0  0
 24 19  1  0  0  0
  4  5  1  0  0  0
  5  8  1  0  0  0
  5  6  1  0  0  0
  8  9  2  0  0  0
  9 10  1  0  0  0
 10 11  2  0  0  0
 11 12  1  0  0  0
 12 13  2  0  0  0
 13 14  1  0  0  0
 14 15  2  0  0  0
 15 16  1  0  0  0
 16 17  2  0  0  0
 17  8  1  0  0  0
 17 12  1  0  0  0
  6  7  2  0  0  0
  6  2  1  0  0  0
M  END
> <minimizedAffinity>
-7.35170

> <CNNscore>
0.4202445745

> <CNNaffinity>
5.2486343384

> <CNN_VS>
2.2057101727

> <CNNaffinity_variance>
0.2169328630

$$$$



 24 27  0  0  0  0  0  0  0  0999 V2000
  -10.8614   -2.4747  -23.8111 C   0  0  0  0  0  0  0  0  0  0  0  0
  -10.8463   -1.0867  -23.3891 N   0  0  0  0  0  0  0  0  0  0  0  0
   -9.9063   -0.5244  -22.6108 C   0  0  0  0  0  0  0  0  0  0  0  0
  -10.2284    0.7740  -22.4347 N   0  0  0  0  0  0  0  0  0  0  0  0
  -11.3521    1.0427  -23.0856 N   0  0  0  0  0  0  0  0  0  0  0  0
  -11.7183   -0.0978  -23.6623 C   0  0  0  0  0  0  0  0  0  0  0  0
  -12.7539   -0.2267  -24.3742 O   0  0  0  0  0  0  0  0  0  0  0  0
  -11.9627    2.3284  -23.1007 C   0  0  0  0  0  0  0  0  0  0  0  0
  -13.0263    2.6636  -22.2898 C   0  0  0  0  0  0  0  0  0  0  0  0
  -13.5780    3.9092  -22.3402 N   0  0  0  0  0  0  0  0  0  0  0  0
  -13.0921    4.8342  -23.1846 C   0  0  0  0  0  0  0  0  0  0  0  0
  -12.0176    4.5377  -24.0223 C   0  0  0  0  0  0  0  0  0  0  0  0
  -11.5216    5.5063  -24.8949 C   0  0  0  0  0  0  0  0  0  0  0  0
  -10.4467    5.1886  -25.7234 C   0  0  0  0  0  0  0  0  0  0  0  0
   -9.8731    3.9295  -25.6868 C   0  0  0  0  0  0  0  0  0  0  0  0
  -10.3798    2.9784  -24.8123 C   0  0  0  0  0  0  0  0  0  0  0  0
  -11.4495    3.2648  -23.9745 C   0  0  0  0  0  0  0  0  0  0  0  0
   -8.6921   -1.1281  -22.0006 C   0  0  0  0  0  0  0  0  0  0  0  0
   -7.5915   -1.2415  -22.9750 C   0  0  0  0  0  0  0  0  0  0  0  0
   -6.9750   -0.1635  -23.5759 C   0  0  0  0  0  0  0  0  0  0  0  0
   -5.9405   -0.3814  -24.4862 C   0  0  0  0  0  0  0  0  0  0  0  0
   -5.5282   -1.6778  -24.7905 C   0  0  0  0  0  0  0  0  0  0  0  0
   -6.1432   -2.7623  -24.1906 C   0  0  0  0  0  0  0  0  0  0  0  0
   -7.1648   -2.5286  -23.2925 C   0  0  0  0  0  0  0  0  0  0  0  0
  1  2  1  0  0  0
  2  3  1  0  0  0
  3 18  1  0  0  0
  3  4  2  0  0  0
 18 19  1  0  0  0
 19 20  2  0  0  0
 20 21  1  0  0  0
 21 22  2  0  0  0
 22 23  1  0  0  0
 23 24  2  0  0  0
 24 19  1  0  0  0
  4  5  1  0  0  0
  5  8  1  0  0  0
  5  6  1  0  0  0
  8  9  2  0  0  0
  9 10  1  0  0  0
 10 11  2  0  0  0
 11 12  1  0  0  0
 12 13  2  0  0  0
 13 14  1  0  0  0
 14 15  2  0  0  0
 15 16  1  0  0  0
 16 17  2  0  0  0
 17  8  1  0  0  0
 17 12  1  0  0  0
  6  7  2  0  0  0
  6  2  1  0  0  0
M  END
> <minimizedAffinity>
-5.92016

> <CNNscore>
0.4049161077

> <CNNaffinity>
5.1343040466

> <CNN_VS>
2.0789623260

> <CNNaffinity_variance>
0.1979053915

$$$$



 24 27  0  0  0  0  0  0  0  0999 V2000
   -5.9055   -2.3920  -24.5439 C   0  0  0  0  0  0  0  0  0  0  0  0
   -7.0106   -1.7522  -23.8553 N   0  0  0  0  0  0  0  0  0  0  0  0
   -7.1668   -1.7020  -22.5216 C   0  0  0  0  0  0  0  0  0  0  0  0
   -8.3055   -1.0283  -22.2572 N   0  0  0  0  0  0  0  0  0  0  0  0
   -8.8712   -0.6523  -23.3961 N   0  0  0  0  0  0  0  0  0  0  0  0
   -8.0735   -1.0989  -24.3615 C   0  0  0  0  0  0  0  0  0  0  0  0
   -8.2937   -0.9268  -25.5935 O   0  0  0  0  0  0  0  0  0  0  0  0
  -10.0899    0.0801  -23.4635 C   0  0  0  0  0  0  0  0  0  0  0  0
  -10.1422    1.4232  -23.7710 C   0  0  0  0  0  0  0  0  0  0  0  0
  -11.3345    2.0820  -23.8236 N   0  0  0  0  0  0  0  0  0  0  0  0
  -12.4828    1.4303  -23.5756 C   0  0  0  0  0  0  0  0  0  0  0  0
  -12.4757    0.0719  -23.2608 C   0  0  0  0  0  0  0  0  0  0  0  0
  -13.6743   -0.5941  -23.0052 C   0  0  0  0  0  0  0  0  0  0  0  0
  -13.6442   -1.9521  -22.6925 C   0  0  0  0  0  0  0  0  0  0  0  0
  -12.4436   -2.6384  -22.6341 C   0  0  0  0  0  0  0  0  0  0  0  0
  -11.2609   -1.9593  -22.8914 C   0  0  0  0  0  0  0  0  0  0  0  0
  -11.2585   -0.6068  -23.2057 C   0  0  0  0  0  0  0  0  0  0  0  0
   -6.3051   -2.2534  -21.4426 C   0  0  0  0  0  0  0  0  0  0  0  0
   -5.6248   -1.1845  -20.6887 C   0  0  0  0  0  0  0  0  0  0  0  0
   -5.7874   -0.9668  -19.3361 C   0  0  0  0  0  0  0  0  0  0  0  0
   -5.0949    0.0748  -18.7182 C   0  0  0  0  0  0  0  0  0  0  0  0
   -4.2429    0.8936  -19.4578 C   0  0  0  0  0  0  0  0  0  0  0  0
   -4.0763    0.6795  -20.8145 C   0  0  0  0  0  0  0  0  0  0  0  0
   -4.7690   -0.3554  -21.4096 C   0  0  0  0  0  0  0  0  0  0  0  0
  1  2  1  0  0  0
  2  3  1  0  0  0
  3 18  1  0  0  0
  3  4  2  0  0  0
 18 19  1  0  0  0
 19 20  2  0  0  0
 20 21  1  0  0  0
 21 22  2  0  0  0
 22 23  1  0  0  0
 23 24  2  0  0  0
 24 19  1  0  0  0
  4  5  1  0  0  0
  5  8  1  0  0  0
  5  6  1  0  0  0
  8  9  2  0  0  0
  9 10  1  0  0  0
 10 11  2  0  0  0
 11 12  1  0  0  0
 12 13  2  0  0  0
 13 14  1  0  0  0
 14 15  2  0  0  0
 15 16  1  0  0  0
 16 17  2  0  0  0
 17  8  1  0  0  0
 17 12  1  0  0  0
  6  7  2  0  0  0
  6  2  1  0  0  0
M  END
> <minimizedAffinity>
-6.78473

> <CNNscore>
0.3825100660

> <CNNaffinity>
5.2617893219

> <CNN_VS>
2.0126874447

> <CNNaffinity_variance>
0.0941893905

$$$$



 24 27  0  0  0  0  0  0  0  0999 V2000
   -5.9244   -2.2980  -25.2930 C   0  0  0  0  0  0  0  0  0  0  0  0
   -7.0384   -1.8305  -24.4896 N   0  0  0  0  0  0  0  0  0  0  0  0
   -7.2243   -2.1077  -23.1880 C   0  0  0  0  0  0  0  0  0  0  0  0
   -8.3619   -1.5024  -22.7880 N   0  0  0  0  0  0  0  0  0  0  0  0
   -8.8978   -0.8491  -23.8101 N   0  0  0  0  0  0  0  0  0  0  0  0
   -8.0830   -1.0566  -24.8399 C   0  0  0  0  0  0  0  0  0  0  0  0
   -8.2735   -0.5833  -25.9956 O   0  0  0  0  0  0  0  0  0  0  0  0
  -10.1073   -0.1042  -23.7188 C   0  0  0  0  0  0  0  0  0  0  0  0
  -10.1762    1.2491  -23.9738 C   0  0  0  0  0  0  0  0  0  0  0  0
  -11.3587    1.9198  -23.8731 N   0  0  0  0  0  0  0  0  0  0  0  0
  -12.4810    1.2700  -23.5222 C   0  0  0  0  0  0  0  0  0  0  0  0
  -12.4565   -0.0984  -23.2555 C   0  0  0  0  0  0  0  0  0  0  0  0
  -13.6281   -0.7623  -22.8920 C   0  0  0  0  0  0  0  0  0  0  0  0
  -13.5809   -2.1304  -22.6299 C   0  0  0  0  0  0  0  0  0  0  0  0
  -12.3899   -2.8289  -22.7267 C   0  0  0  0  0  0  0  0  0  0  0  0
  -11.2341   -2.1517  -23.0896 C   0  0  0  0  0  0  0  0  0  0  0  0
  -11.2491   -0.7892  -23.3571 C   0  0  0  0  0  0  0  0  0  0  0  0
   -6.3927   -2.9206  -22.2614 C   0  0  0  0  0  0  0  0  0  0  0  0
   -6.5975   -4.3656  -22.4709 C   0  0  0  0  0  0  0  0  0  0  0  0
   -7.5609   -4.8987  -23.3022 C   0  0  0  0  0  0  0  0  0  0  0  0
   -7.6706   -6.2836  -23.4296 C   0  0  0  0  0  0  0  0  0  0  0  0
   -6.8151   -7.1282  -22.7238 C   0  0  0  0  0  0  0  0  0  0  0  0
   -5.8473   -6.5986  -21.8888 C   0  0  0  0  0  0  0  0  0  0  0  0
   -5.7527   -5.2264  -21.7746 C   0  0  0  0  0  0  0  0  0  0  0  0
  1  2  1  0  0  0
  2  3  1  0  0  0
  3 18  1  0  0  0
  3  4  2  0  0  0
 18 19  1  0  0  0
 19 20  2  0  0  0
 20 21  1  0  0  0
 21 22  2  0  0  0
 22 23  1  0  0  0
 23 24  2  0  0  0
 24 19  1  0  0  0
  4  5  1  0  0  0
  5  8  1  0  0  0
  5  6  1  0  0  0
  8  9  2  0  0  0
  9 10  1  0  0  0
 10 11  2  0  0  0
 11 12  1  0  0  0
 12 13  2  0  0  0
 13 14  1  0  0  0
 14 15  2  0  0  0
 15 16  1  0  0  0
 16 17  2  0  0  0
 17  8  1  0  0  0
 17 12  1  0  0  0
  6  7  2  0  0  0
  6  2  1  0  0  0
M  END
> <minimizedAffinity>
-6.25723

> <CNNscore>
0.3210023940

> <CNNaffinity>
5.4055604935

> <CNN_VS>
1.7351979017

> <CNNaffinity_variance>
0.0920600742

$$$$



 24 27  0  0  0  0  0  0  0  0999 V2000
   -8.7631   -2.9005  -24.2714 C   0  0  0  0  0  0  0  0  0  0  0  0
   -8.5028   -2.0907  -23.0960 N   0  0  0  0  0  0  0  0  0  0  0  0
   -9.3418   -1.1727  -22.5871 C   0  0  0  0  0  0  0  0  0  0  0  0
   -8.7582   -0.6277  -21.4995 N   0  0  0  0  0  0  0  0  0  0  0  0
   -7.5685   -1.1826  -21.3115 N   0  0  0  0  0  0  0  0  0  0  0  0
   -7.4247   -2.0714  -22.2897 C   0  0  0  0  0  0  0  0  0  0  0  0
   -6.4030   -2.8000  -22.4352 O   0  0  0  0  0  0  0  0  0  0  0  0
   -6.6958   -0.8270  -20.2447 C   0  0  0  0  0  0  0  0  0  0  0  0
   -6.7891   -1.3769  -18.9837 C   0  0  0  0  0  0  0  0  0  0  0  0
   -5.9295   -1.0041  -17.9935 N   0  0  0  0  0  0  0  0  0  0  0  0
   -4.9733   -0.0910  -18.2315 C   0  0  0  0  0  0  0  0  0  0  0  0
   -4.8433    0.4904  -19.4922 C   0  0  0  0  0  0  0  0  0  0  0  0
   -3.8466    1.4374  -19.7274 C   0  0  0  0  0  0  0  0  0  0  0  0
   -3.7344    2.0058  -20.9952 C   0  0  0  0  0  0  0  0  0  0  0  0
   -4.5977    1.6404  -22.0134 C   0  0  0  0  0  0  0  0  0  0  0  0
   -5.5834    0.6965  -21.7610 C   0  0  0  0  0  0  0  0  0  0  0  0
   -5.7203    0.1124  -20.5088 C   0  0  0  0  0  0  0  0  0  0  0  0
  -10.6894   -0.7538  -23.0554 C   0  0  0  0  0  0  0  0  0  0  0  0
  -10.6873    0.6353  -23.5495 C   0  0  0  0  0  0  0  0  0  0  0  0
   -9.7088    1.1657  -24.3647 C   0  0  0  0  0  0  0  0  0  0  0  0
   -9.8021    2.4953  -24.7767 C   0  0  0  0  0  0  0  0  0  0  0  0
  -10.8747    3.2875  -24.3703 C   0  0  0  0  0  0  0  0  0  0  0  0
  -11.8586    2.7603  -23.5528 C   0  0  0  0  0  0  0  0  0  0  0  0
  -11.7506    1.4432  -23.1547 C   0  0  0  0  0  0  0  0  0  0  0  0
  1  2  1  0  0  0
  2  3  1  0  0  0
  3 18  1  0  0  0
  3  4  2  0  0  0
 18 19  1  0  0  0
 19 20  2  0  0  0
 20 21  1  0  0  0
 21 22  2  0  0  0
 22 23  1  0  0  0
 23 24  2  0  0  0
 24 19  1  0  0  0
  4  5  1  0  0  0
  5  8  1  0  0  0
  5  6  1  0  0  0
  8  9  2  0  0  0
  9 10  1  0  0  0
 10 11  2  0  0  0
 11 12  1  0  0  0
 12 13  2  0  0  0
 13 14  1  0  0  0
 14 15  2  0  0  0
 15 16  1  0  0  0
 16 17  2  0  0  0
 17  8  1  0  0  0
 17 12  1  0  0  0
  6  7  2  0  0  0
  6  2  1  0  0  0
M  END
> <minimizedAffinity>
-7.36732

> <CNNscore>
0.3022615612

> <CNNaffinity>
5.0201120377

> <CNN_VS>
1.5173869133

> <CNNaffinity_variance>
0.2594475746

$$$$



 24 27  0  0  0  0  0  0  0  0999 V2000
   -5.2543    0.2486  -18.0268 C   0  0  0  0  0  0  0  0  0  0  0  0
   -5.6753   -0.1752  -19.3489 N   0  0  0  0  0  0  0  0  0  0  0  0
   -5.0281    0.1023  -20.4935 C   0  0  0  0  0  0  0  0  0  0  0  0
   -5.7164   -0.4559  -21.5110 N   0  0  0  0  0  0  0  0  0  0  0  0
   -6.7843   -1.0797  -21.0325 N   0  0  0  0  0  0  0  0  0  0  0  0
   -6.7481   -0.9016  -19.7155 C   0  0  0  0  0  0  0  0  0  0  0  0
   -7.6145   -1.3596  -18.9184 O   0  0  0  0  0  0  0  0  0  0  0  0
   -7.7211   -1.7725  -21.8501 C   0  0  0  0  0  0  0  0  0  0  0  0
   -7.6019   -3.1111  -22.1588 C   0  0  0  0  0  0  0  0  0  0  0  0
   -8.5255   -3.7313  -22.9466 N   0  0  0  0  0  0  0  0  0  0  0  0
   -9.5713   -3.0454  -23.4370 C   0  0  0  0  0  0  0  0  0  0  0  0
   -9.7305   -1.6902  -23.1497 C   0  0  0  0  0  0  0  0  0  0  0  0
  -10.8204   -0.9884  -23.6645 C   0  0  0  0  0  0  0  0  0  0  0  0
  -10.9602    0.3657  -23.3647 C   0  0  0  0  0  0  0  0  0  0  0  0
  -10.0330    1.0132  -22.5667 C   0  0  0  0  0  0  0  0  0  0  0  0
   -8.9548    0.2987  -22.0633 C   0  0  0  0  0  0  0  0  0  0  0  0
   -8.7883   -1.0509  -22.3441 C   0  0  0  0  0  0  0  0  0  0  0  0
   -3.7762    0.8736  -20.7142 C   0  0  0  0  0  0  0  0  0  0  0  0
   -4.0417    2.1681  -21.3679 C   0  0  0  0  0  0  0  0  0  0  0  0
   -5.2938    2.5958  -21.7589 C   0  0  0  0  0  0  0  0  0  0  0  0
   -5.4358    3.8415  -22.3707 C   0  0  0  0  0  0  0  0  0  0  0  0
   -4.3234    4.6531  -22.5882 C   0  0  0  0  0  0  0  0  0  0  0  0
   -3.0657    4.2288  -22.1979 C   0  0  0  0  0  0  0  0  0  0  0  0
   -2.9433    2.9937  -21.5941 C   0  0  0  0  0  0  0  0  0  0  0  0
  1  2  1  0  0  0
  2  3  1  0  0  0
  3 18  1  0  0  0
  3  4  2  0  0  0
 18 19  1  0  0  0
 19 20  2  0  0  0
 20 21  1  0  0  0
 21 22  2  0  0  0
 22 23  1  0  0  0
 23 24  2  0  0  0
 24 19  1  0  0  0
  4  5  1  0  0  0
  5  8  1  0  0  0
  5  6  1  0  0  0
  8  9  2  0  0  0
  9 10  1  0  0  0
 10 11  2  0  0  0
 11 12  1  0  0  0
 12 13  2  0  0  0
 13 14  1  0  0  0
 14 15  2  0  0  0
 15 16  1  0  0  0
 16 17  2  0  0  0
 17  8  1  0  0  0
 17 12  1  0  0  0
  6  7  2  0  0  0
  6  2  1  0  0  0
M  END
> <minimizedAffinity>
-6.67733

> <CNNscore>
0.2852995992

> <CNNaffinity>
5.0841994286

> <CNN_VS>
1.4505200386

> <CNNaffinity_variance>
0.3991594017

$$$$



 38 43  0  0  0  0  0  0  0  0999 V2000
   -8.5650   -2.5343  -22.7622 C   0  0  0  0  0  0  0  0  0  0  0  0
   -7.3234   -2.3977  -21.9484 C   0  0  0  0  0  0  0  0  0  0  0  0
   -7.3922   -1.0915  -21.2663 N   0  0  0  0  0  0  0  0  0  0  0  0
   -8.4935   -0.4038  -21.8272 C   0  0  0  0  0  0  0  0  0  0  0  0
   -8.9157    0.6962  -21.3400 O   0  0  0  0  0  0  0  0  0  0  0  0
   -9.0451   -1.1262  -23.0037 C   0  0  0  0  0  0  0  0  0  0  0  0
   -8.3430   -0.5026  -24.2020 C   0  0  0  0  0  0  0  0  0  0  0  0
   -8.7004    0.9194  -24.2033 N   0  0  0  0  0  0  0  0  0  0  0  0
  -10.1003    1.1869  -24.3385 C   0  0  0  0  0  0  0  0  0  0  0  0
  -10.5061    2.2219  -24.9092 O   0  0  0  0  0  0  0  0  0  0  0  0
  -10.9970    0.1727  -23.7664 C   0  0  0  0  0  0  0  0  0  0  0  0
  -12.3457    0.4093  -23.9133 C   0  0  0  0  0  0  0  0  0  0  0  0
  -13.2914   -0.4744  -23.4403 C   0  0  0  0  0  0  0  0  0  0  0  0
  -12.8207   -1.6069  -22.8131 C   0  0  0  0  0  0  0  0  0  0  0  0
  -13.9956   -2.7522  -22.2000 Cl  0  0  0  0  0  0  0  0  0  0  0  0
  -11.4465   -1.8483  -22.6629 C   0  0  0  0  0  0  0  0  0  0  0  0
  -10.4974   -0.9680  -23.1335 C   0  0  0  0  0  0  0  0  0  0  0  0
   -6.4764   -0.7079  -20.2535 C   0  0  0  0  0  0  0  0  0  0  0  0
   -6.5891   -1.2514  -18.9701 C   0  0  0  0  0  0  0  0  0  0  0  0
   -5.7271   -0.8986  -17.9980 N   0  0  0  0  0  0  0  0  0  0  0  0
   -4.7233   -0.0221  -18.1873 C   0  0  0  0  0  0  0  0  0  0  0  0
   -4.5643    0.5463  -19.4364 C   0  0  0  0  0  0  0  0  0  0  0  0
   -3.5321    1.4556  -19.6651 C   0  0  0  0  0  0  0  0  0  0  0  0
   -3.3692    2.0196  -20.9048 C   0  0  0  0  0  0  0  0  0  0  0  0
   -4.2497    1.6573  -21.8932 C   0  0  0  0  0  0  0  0  0  0  0  0
   -5.2602    0.7678  -21.6718 C   0  0  0  0  0  0  0  0  0  0  0  0
   -5.4476    0.1866  -20.4376 C   0  0  0  0  0  0  0  0  0  0  0  0
   -8.3920   -3.3031  -24.0181 C   0  0  0  0  0  0  0  0  0  0  0  0
  -10.1451   -3.9295  -25.4631 C   0  0  0  0  0  0  0  0  0  0  0  0
   -9.3128   -4.1790  -24.4307 O   0  0  0  0  0  0  0  0  0  0  0  0
   -7.7595    1.9826  -24.0930 C   0  0  0  0  0  0  0  0  0  0  0  0
   -7.0368    2.2418  -25.3757 C   0  0  0  0  0  0  0  0  0  0  0  0
   -5.6680    2.3374  -25.5304 C   0  0  0  0  0  0  0  0  0  0  0  0
   -5.4724    2.5756  -26.8448 N   0  0  0  0  0  0  0  0  0  0  0  0
   -6.6567    2.6265  -27.4800 C   0  0  0  0  0  0  0  0  0  0  0  0
   -7.6404    2.4211  -26.5825 N   0  0  0  0  0  0  0  0  0  0  0  0
   -4.5944    2.6943  -27.2739 H   0  0  0  0  0  0  0  0  0  0  0  0
   -8.6078    2.4040  -26.7642 H   0  0  0  0  0  0  0  0  0  0  0  0
 29 30  1  0  0  0
 30 28  1  0  0  0
  1 28  1  0  0  0
  1  2  1  0  0  0
  2  3  1  0  0  0
  3 18  1  0  0  0
  3  4  1  0  0  0
 18 19  2  0  0  0
 19 20  1  0  0  0
 20 21  2  0  0  0
 21 22  1  0  0  0
 22 23  2  0  0  0
 23 24  1  0  0  0
 24 25  2  0  0  0
 25 26  1  0  0  0
 26 27  2  0  0  0
 27 18  1  0  0  0
 27 22  1  0  0  0
  4  5  2  0  0  0
  6  4  1  0  0  0
  6  7  1  0  0  0
  6  1  1  0  0  0
  7  8  1  0  0  0
  8 31  1  0  0  0
  8  9  1  0  0  0
 31 32  1  0  0  0
 32 33  2  0  0  0
 33 34  1  0  0  0
 34 35  2  0  0  0
 34 37  1  0  0  0
 35 36  1  0  0  0
 36 32  1  0  0  0
 36 38  1  0  0  0
  9 10  2  0  0  0
  9 11  1  0  0  0
 11 12  2  0  0  0
 12 13  1  0  0  0
 13 14  2  0  0  0
 14 15  1  0  0  0
 14 16  1  0  0  0
 16 17  2  0  0  0
 17 11  1  0  0  0
 17  6  1  0  0  0
M  CHG 1  34   1
M  END
> <minimizedAffinity>
-8.45599

> <CNNscore>
0.8361573219

> <CNNaffinity>
6.8833951950

> <CNN_VS>
5.7556014061

> <CNNaffinity_variance>
0.0293591730

$$$$



 38 43  0  0  0  0  0  0  0  0999 V2000
  -11.4751   -1.9489  -23.5625 C   0  0  0  0  0  0  0  0  0  0  0  0
  -11.6475   -0.4687  -23.5165 C   0  0  0  0  0  0  0  0  0  0  0  0
  -10.4191    0.1295  -24.0724 N   0  0  0  0  0  0  0  0  0  0  0  0
   -9.4895   -0.9264  -24.2187 C   0  0  0  0  0  0  0  0  0  0  0  0
   -8.3790   -0.7630  -24.8231 O   0  0  0  0  0  0  0  0  0  0  0  0
   -9.9861   -2.1800  -23.5923 C   0  0  0  0  0  0  0  0  0  0  0  0
   -9.3983   -2.1675  -22.1880 C   0  0  0  0  0  0  0  0  0  0  0  0
   -7.9405   -2.1621  -22.3442 N   0  0  0  0  0  0  0  0  0  0  0  0
   -7.4049   -3.3026  -23.0240 C   0  0  0  0  0  0  0  0  0  0  0  0
   -6.2648   -3.7368  -22.7536 O   0  0  0  0  0  0  0  0  0  0  0  0
   -8.2814   -3.9044  -24.0387 C   0  0  0  0  0  0  0  0  0  0  0  0
   -7.7844   -5.0168  -24.6806 C   0  0  0  0  0  0  0  0  0  0  0  0
   -8.5151   -5.6871  -25.6376 C   0  0  0  0  0  0  0  0  0  0  0  0
   -9.7679   -5.1891  -25.9206 C   0  0  0  0  0  0  0  0  0  0  0  0
  -10.7243   -6.0171  -27.1320 Cl  0  0  0  0  0  0  0  0  0  0  0  0
  -10.2745   -4.0553  -25.2669 C   0  0  0  0  0  0  0  0  0  0  0  0
   -9.5480   -3.3817  -24.3099 C   0  0  0  0  0  0  0  0  0  0  0  0
  -10.3071    1.5122  -24.3676 C   0  0  0  0  0  0  0  0  0  0  0  0
   -9.3673    1.9505  -25.3056 C   0  0  0  0  0  0  0  0  0  0  0  0
   -9.2493    3.2593  -25.5980 N   0  0  0  0  0  0  0  0  0  0  0  0
  -10.0067    4.2125  -25.0242 C   0  0  0  0  0  0  0  0  0  0  0  0
  -10.9523    3.8367  -24.0897 C   0  0  0  0  0  0  0  0  0  0  0  0
  -11.7546    4.8004  -23.4796 C   0  0  0  0  0  0  0  0  0  0  0  0
  -12.6967    4.4307  -22.5536 C   0  0  0  0  0  0  0  0  0  0  0  0
  -12.8142    3.0956  -22.2585 C   0  0  0  0  0  0  0  0  0  0  0  0
  -12.0305    2.1510  -22.8542 C   0  0  0  0  0  0  0  0  0  0  0  0
  -11.0767    2.4934  -23.7866 C   0  0  0  0  0  0  0  0  0  0  0  0
  -12.1453   -2.6776  -22.4589 C   0  0  0  0  0  0  0  0  0  0  0  0
  -13.9834   -2.9525  -21.0098 C   0  0  0  0  0  0  0  0  0  0  0  0
  -13.3662   -2.3343  -22.0382 O   0  0  0  0  0  0  0  0  0  0  0  0
   -7.0864   -1.1294  -21.8625 C   0  0  0  0  0  0  0  0  0  0  0  0
   -6.5572   -1.4171  -20.4943 C   0  0  0  0  0  0  0  0  0  0  0  0
   -5.3704   -2.0595  -20.2022 C   0  0  0  0  0  0  0  0  0  0  0  0
   -5.3056   -2.0958  -18.8543 N   0  0  0  0  0  0  0  0  0  0  0  0
   -6.3948   -1.5069  -18.3296 C   0  0  0  0  0  0  0  0  0  0  0  0
   -7.1840   -1.0789  -19.3343 N   0  0  0  0  0  0  0  0  0  0  0  0
   -4.5711   -2.4937  -18.3335 H   0  0  0  0  0  0  0  0  0  0  0  0
   -8.0464   -0.6123  -19.2465 H   0  0  0  0  0  0  0  0  0  0  0  0
 29 30  1  0  0  0
 30 28  1  0  0  0
  1 28  1  0  0  0
  1  2  1  0  0  0
  2  3  1  0  0  0
  3 18  1  0  0  0
  3  4  1  0  0  0
 18 19  2  0  0  0
 19 20  1  0  0  0
 20 21  2  0  0  0
 21 22  1  0  0  0
 22 23  2  0  0  0
 23 24  1  0  0  0
 24 25  2  0  0  0
 25 26  1  0  0  0
 26 27  2  0  0  0
 27 18  1  0  0  0
 27 22  1  0  0  0
  4  5  2  0  0  0
  6  4  1  0  0  0
  6  7  1  0  0  0
  6  1  1  0  0  0
  7  8  1  0  0  0
  8 31  1  0  0  0
  8  9  1  0  0  0
 31 32  1  0  0  0
 32 33  2  0  0  0
 33 34  1  0  0  0
 34 35  2  0  0  0
 34 37  1  0  0  0
 35 36  1  0  0  0
 36 32  1  0  0  0
 36 38  1  0  0  0
  9 10  2  0  0  0
  9 11  1  0  0  0
 11 12  2  0  0  0
 12 13  1  0  0  0
 13 14  2  0  0  0
 14 15  1  0  0  0
 14 16  1  0  0  0
 16 17  2  0  0  0
 17 11  1  0  0  0
 17  6  1  0  0  0
M  CHG 1  34   1
M  END
> <minimizedAffinity>
-9.05867

> <CNNscore>
0.3876770139

> <CNNaffinity>
6.6129517555

> <CNN_VS>
2.5636894703

> <CNNaffinity_variance>
0.1926824898

$$$$



 38 43  0  0  0  0  0  0  0  0999 V2000
   -6.3142    1.5951  -24.3534 C   0  0  0  0  0  0  0  0  0  0  0  0
   -7.6973    1.8418  -24.8523 C   0  0  0  0  0  0  0  0  0  0  0  0
   -8.6043    1.7247  -23.6948 N   0  0  0  0  0  0  0  0  0  0  0  0
   -7.8296    1.2110  -22.6287 C   0  0  0  0  0  0  0  0  0  0  0  0
   -8.2869    1.1412  -21.4407 O   0  0  0  0  0  0  0  0  0  0  0  0
   -6.4796    0.7917  -23.0890 C   0  0  0  0  0  0  0  0  0  0  0  0
   -6.6210   -0.6931  -23.3941 C   0  0  0  0  0  0  0  0  0  0  0  0
   -7.0088   -1.3435  -22.1386 N   0  0  0  0  0  0  0  0  0  0  0  0
   -6.0589   -1.2120  -21.0756 C   0  0  0  0  0  0  0  0  0  0  0  0
   -5.9323   -2.1052  -20.2109 O   0  0  0  0  0  0  0  0  0  0  0  0
   -5.2667    0.0258  -21.0837 C   0  0  0  0  0  0  0  0  0  0  0  0
   -4.3331    0.1502  -20.0789 C   0  0  0  0  0  0  0  0  0  0  0  0
   -3.5119    1.2529  -19.9863 C   0  0  0  0  0  0  0  0  0  0  0  0
   -3.6710    2.2253  -20.9489 C   0  0  0  0  0  0  0  0  0  0  0  0
   -2.6430    3.6406  -20.8615 Cl  0  0  0  0  0  0  0  0  0  0  0  0
   -4.6224    2.0991  -21.9728 C   0  0  0  0  0  0  0  0  0  0  0  0
   -5.4458    0.9991  -22.0695 C   0  0  0  0  0  0  0  0  0  0  0  0
   -9.9731    2.0908  -23.7552 C   0  0  0  0  0  0  0  0  0  0  0  0
  -10.3287    3.4323  -23.9263 C   0  0  0  0  0  0  0  0  0  0  0  0
  -11.6235    3.7961  -23.9869 N   0  0  0  0  0  0  0  0  0  0  0  0
  -12.6395    2.9186  -23.8898 C   0  0  0  0  0  0  0  0  0  0  0  0
  -12.3467    1.5792  -23.7199 C   0  0  0  0  0  0  0  0  0  0  0  0
  -13.3771    0.6450  -23.6190 C   0  0  0  0  0  0  0  0  0  0  0  0
  -13.0902   -0.6861  -23.4534 C   0  0  0  0  0  0  0  0  0  0  0  0
  -11.7692   -1.0530  -23.3925 C   0  0  0  0  0  0  0  0  0  0  0  0
  -10.7594   -0.1409  -23.4910 C   0  0  0  0  0  0  0  0  0  0  0  0
  -11.0181    1.2014  -23.6572 C   0  0  0  0  0  0  0  0  0  0  0  0
   -5.4175    0.9390  -25.3351 C   0  0  0  0  0  0  0  0  0  0  0  0
   -3.2608    0.0581  -24.9791 C   0  0  0  0  0  0  0  0  0  0  0  0
   -4.0906    1.0817  -25.2700 O   0  0  0  0  0  0  0  0  0  0  0  0
   -8.2200   -2.0688  -21.9522 C   0  0  0  0  0  0  0  0  0  0  0  0
   -8.2777   -3.3090  -22.7850 C   0  0  0  0  0  0  0  0  0  0  0  0
   -9.2453   -3.6124  -23.7221 C   0  0  0  0  0  0  0  0  0  0  0  0
   -8.8958   -4.8177  -24.2197 N   0  0  0  0  0  0  0  0  0  0  0  0
   -7.7683   -5.2467  -23.6253 C   0  0  0  0  0  0  0  0  0  0  0  0
   -7.3697   -4.3216  -22.7306 N   0  0  0  0  0  0  0  0  0  0  0  0
   -9.3921   -5.3090  -24.9136 H   0  0  0  0  0  0  0  0  0  0  0  0
   -6.5758   -4.3687  -22.1503 H   0  0  0  0  0  0  0  0  0  0  0  0
 29 30  1  0  0  0
 30 28  1  0  0  0
  1 28  1  0  0  0
  1  2  1  0  0  0
  2  3  1  0  0  0
  3 18  1  0  0  0
  3  4  1  0  0  0
 18 19  2  0  0  0
 19 20  1  0  0  0
 20 21  2  0  0  0
 21 22  1  0  0  0
 22 23  2  0  0  0
 23 24  1  0  0  0
 24 25  2  0  0  0
 25 26  1  0  0  0
 26 27  2  0  0  0
 27 18  1  0  0  0
 27 22  1  0  0  0
  4  5  2  0  0  0
  6  4  1  0  0  0
  6  7  1  0  0  0
  6  1  1  0  0  0
  7  8  1  0  0  0
  8 31  1  0  0  0
  8  9  1  0  0  0
 31 32  1  0  0  0
 32 33  2  0  0  0
 33 34  1  0  0  0
 34 35  2  0  0  0
 34 37  1  0  0  0
 35 36  1  0  0  0
 36 32  1  0  0  0
 36 38  1  0  0  0
  9 10  2  0  0  0
  9 11  1  0  0  0
 11 12  2  0  0  0
 12 13  1  0  0  0
 13 14  2  0  0  0
 14 15  1  0  0  0
 14 16  1  0  0  0
 16 17  2  0  0  0
 17 11  1  0  0  0
 17  6  1  0  0  0
M  CHG 1  34   1
M  END
> <minimizedAffinity>
-7.98564

> <CNNscore>
0.3362264037

> <CNNaffinity>
6.3640775681

> <CNN_VS>
2.1397709846

> <CNNaffinity_variance>
0.2039139718

$$$$



 38 43  0  0  0  0  0  0  0  0999 V2000
   -7.0547   -1.9909  -22.8107 C   0  0  0  0  0  0  0  0  0  0  0  0
   -8.0448   -0.8889  -22.6439 C   0  0  0  0  0  0  0  0  0  0  0  0
   -9.1140   -1.1114  -23.6355 N   0  0  0  0  0  0  0  0  0  0  0  0
   -8.6621   -2.1462  -24.4872 C   0  0  0  0  0  0  0  0  0  0  0  0
   -9.4262   -2.6808  -25.3566 O   0  0  0  0  0  0  0  0  0  0  0  0
   -7.2400   -2.4886  -24.2212 C   0  0  0  0  0  0  0  0  0  0  0  0
   -6.4493   -1.6450  -25.2115 C   0  0  0  0  0  0  0  0  0  0  0  0
   -6.8807   -2.0572  -26.5508 N   0  0  0  0  0  0  0  0  0  0  0  0
   -6.6340   -3.4321  -26.8647 C   0  0  0  0  0  0  0  0  0  0  0  0
   -6.3976   -3.7925  -28.0376 O   0  0  0  0  0  0  0  0  0  0  0  0
   -6.6808   -4.3600  -25.7259 C   0  0  0  0  0  0  0  0  0  0  0  0
   -6.4206   -5.6812  -26.0143 C   0  0  0  0  0  0  0  0  0  0  0  0
   -6.4126   -6.6484  -25.0327 C   0  0  0  0  0  0  0  0  0  0  0  0
   -6.6779   -6.2280  -23.7480 C   0  0  0  0  0  0  0  0  0  0  0  0
   -6.6754   -7.4314  -22.4753 Cl  0  0  0  0  0  0  0  0  0  0  0  0
   -6.9435   -4.8818  -23.4538 C   0  0  0  0  0  0  0  0  0  0  0  0
   -6.9529   -3.9115  -24.4313 C   0  0  0  0  0  0  0  0  0  0  0  0
  -10.3237   -0.3709  -23.6358 C   0  0  0  0  0  0  0  0  0  0  0  0
  -10.3210    0.9678  -24.0396 C   0  0  0  0  0  0  0  0  0  0  0  0
  -11.4608    1.6841  -24.0468 N   0  0  0  0  0  0  0  0  0  0  0  0
  -12.6511    1.1764  -23.6763 C   0  0  0  0  0  0  0  0  0  0  0  0
  -12.7131   -0.1419  -23.2681 C   0  0  0  0  0  0  0  0  0  0  0  0
  -13.9319   -0.6980  -22.8810 C   0  0  0  0  0  0  0  0  0  0  0  0
  -13.9978   -2.0076  -22.4781 C   0  0  0  0  0  0  0  0  0  0  0  0
  -12.8338   -2.7345  -22.4724 C   0  0  0  0  0  0  0  0  0  0  0  0
  -11.6403   -2.1926  -22.8508 C   0  0  0  0  0  0  0  0  0  0  0  0
  -11.5445   -0.8811  -23.2593 C   0  0  0  0  0  0  0  0  0  0  0  0
   -5.6533   -1.6036  -22.5200 C   0  0  0  0  0  0  0  0  0  0  0  0
   -5.0390   -0.7606  -20.4068 C   0  0  0  0  0  0  0  0  0  0  0  0
   -5.3674   -0.5852  -21.7037 O   0  0  0  0  0  0  0  0  0  0  0  0
   -7.4901   -1.1878  -27.4998 C   0  0  0  0  0  0  0  0  0  0  0  0
   -7.1122    0.2432  -27.2893 C   0  0  0  0  0  0  0  0  0  0  0  0
   -7.9206    1.2248  -26.7513 C   0  0  0  0  0  0  0  0  0  0  0  0
   -7.1703    2.3471  -26.7535 N   0  0  0  0  0  0  0  0  0  0  0  0
   -5.9555    2.0822  -27.2660 C   0  0  0  0  0  0  0  0  0  0  0  0
   -5.9014    0.7791  -27.6045 N   0  0  0  0  0  0  0  0  0  0  0  0
   -7.4678    3.2275  -26.4286 H   0  0  0  0  0  0  0  0  0  0  0  0
   -5.1349    0.3064  -28.0024 H   0  0  0  0  0  0  0  0  0  0  0  0
 29 30  1  0  0  0
 30 28  1  0  0  0
  1 28  1  0  0  0
  1  2  1  0  0  0
  2  3  1  0  0  0
  3 18  1  0  0  0
  3  4  1  0  0  0
 18 19  2  0  0  0
 19 20  1  0  0  0
 20 21  2  0  0  0
 21 22  1  0  0  0
 22 23  2  0  0  0
 23 24  1  0  0  0
 24 25  2  0  0  0
 25 26  1  0  0  0
 26 27  2  0  0  0
 27 18  1  0  0  0
 27 22  1  0  0  0
  4  5  2  0  0  0
  6  4  1  0  0  0
  6  7  1  0  0  0
  6  1  1  0  0  0
  7  8  1  0  0  0
  8 31  1  0  0  0
  8  9  1  0  0  0
 31 32  1  0  0  0
 32 33  2  0  0  0
 33 34  1  0  0  0
 34 35  2  0  0  0
 34 37  1  0  0  0
 35 36  1  0  0  0
 36 32  1  0  0  0
 36 38  1  0  0  0
  9 10  2  0  0  0
  9 11  1  0  0  0
 11 12  2  0  0  0
 12 13  1  0  0  0
 13 14  2  0  0  0
 14 15  1  0  0  0
 14 16  1  0  0  0
 16 17  2  0  0  0
 17 11  1  0  0  0
 17  6  1  0  0  0
M  CHG 1  34   1
M  END
> <minimizedAffinity>
-6.87703

> <CNNscore>
0.2269294560

> <CNNaffinity>
6.1563968658

> <CNN_VS>
1.3970677853

> <CNNaffinity_variance>
0.1241894737

$$$$



 38 43  0  0  0  0  0  0  0  0999 V2000
  -10.3889   -1.9100  -23.6892 C   0  0  0  0  0  0  0  0  0  0  0  0
  -10.1661   -0.4380  -23.7693 C   0  0  0  0  0  0  0  0  0  0  0  0
   -8.8389   -0.2318  -24.3791 N   0  0  0  0  0  0  0  0  0  0  0  0
   -8.2227   -1.5036  -24.4381 C   0  0  0  0  0  0  0  0  0  0  0  0
   -7.1245   -1.6883  -25.0587 O   0  0  0  0  0  0  0  0  0  0  0  0
   -9.0139   -2.5268  -23.7049 C   0  0  0  0  0  0  0  0  0  0  0  0
   -8.4067   -2.5551  -22.3091 C   0  0  0  0  0  0  0  0  0  0  0  0
   -7.0030   -2.9466  -22.4709 N   0  0  0  0  0  0  0  0  0  0  0  0
   -6.8032   -4.2393  -23.0526 C   0  0  0  0  0  0  0  0  0  0  0  0
   -5.8100   -4.9350  -22.7505 O   0  0  0  0  0  0  0  0  0  0  0  0
   -7.8331   -4.6697  -24.0087 C   0  0  0  0  0  0  0  0  0  0  0  0
   -7.6622   -5.9223  -24.5550 C   0  0  0  0  0  0  0  0  0  0  0  0
   -8.5679   -6.4521  -25.4483 C   0  0  0  0  0  0  0  0  0  0  0  0
   -9.6533   -5.6665  -25.7679 C   0  0  0  0  0  0  0  0  0  0  0  0
  -10.8248   -6.3092  -26.9003 Cl  0  0  0  0  0  0  0  0  0  0  0  0
   -9.8277   -4.3899  -25.2117 C   0  0  0  0  0  0  0  0  0  0  0  0
   -8.9251   -3.8558  -24.3187 C   0  0  0  0  0  0  0  0  0  0  0  0
   -8.3762    1.0437  -24.7920 C   0  0  0  0  0  0  0  0  0  0  0  0
   -8.7380    1.5435  -26.0468 C   0  0  0  0  0  0  0  0  0  0  0  0
   -8.3083    2.7529  -26.4531 N   0  0  0  0  0  0  0  0  0  0  0  0
   -7.5217    3.5450  -25.7010 C   0  0  0  0  0  0  0  0  0  0  0  0
   -7.1332    3.1018  -24.4515 C   0  0  0  0  0  0  0  0  0  0  0  0
   -6.3210    3.9005  -23.6471 C   0  0  0  0  0  0  0  0  0  0  0  0
   -5.9358    3.4652  -22.4046 C   0  0  0  0  0  0  0  0  0  0  0  0
   -6.3762    2.2320  -21.9939 C   0  0  0  0  0  0  0  0  0  0  0  0
   -7.1710    1.4489  -22.7791 C   0  0  0  0  0  0  0  0  0  0  0  0
   -7.5725    1.8602  -24.0304 C   0  0  0  0  0  0  0  0  0  0  0  0
  -11.1974   -2.3439  -22.5246 C   0  0  0  0  0  0  0  0  0  0  0  0
  -13.5025   -2.6143  -22.1153 C   0  0  0  0  0  0  0  0  0  0  0  0
  -12.3444   -3.0108  -22.6829 O   0  0  0  0  0  0  0  0  0  0  0  0
   -5.8958   -2.1396  -22.0826 C   0  0  0  0  0  0  0  0  0  0  0  0
   -5.8465   -1.9087  -20.6065 C   0  0  0  0  0  0  0  0  0  0  0  0
   -5.4205   -2.8166  -19.6573 C   0  0  0  0  0  0  0  0  0  0  0  0
   -5.5486   -2.1821  -18.4726 N   0  0  0  0  0  0  0  0  0  0  0  0
   -6.0296   -0.9418  -18.6695 C   0  0  0  0  0  0  0  0  0  0  0  0
   -6.2207   -0.7543  -19.9900 N   0  0  0  0  0  0  0  0  0  0  0  0
   -5.3236   -2.5694  -17.5959 H   0  0  0  0  0  0  0  0  0  0  0  0
   -6.5642    0.0596  -20.4246 H   0  0  0  0  0  0  0  0  0  0  0  0
 29 30  1  0  0  0
 30 28  1  0  0  0
  1 28  1  0  0  0
  1  2  1  0  0  0
  2  3  1  0  0  0
  3 18  1  0  0  0
  3  4  1  0  0  0
 18 19  2  0  0  0
 19 20  1  0  0  0
 20 21  2  0  0  0
 21 22  1  0  0  0
 22 23  2  0  0  0
 23 24  1  0  0  0
 24 25  2  0  0  0
 25 26  1  0  0  0
 26 27  2  0  0  0
 27 18  1  0  0  0
 27 22  1  0  0  0
  4  5  2  0  0  0
  6  4  1  0  0  0
  6  7  1  0  0  0
  6  1  1  0  0  0
  7  8  1  0  0  0
  8 31  1  0  0  0
  8  9  1  0  0  0
 31 32  1  0  0  0
 32 33  2  0  0  0
 33 34  1  0  0  0
 34 35  2  0  0  0
 34 37  1  0  0  0
 35 36  1  0  0  0
 36 32  1  0  0  0
 36 38  1  0  0  0
  9 10  2  0  0  0
  9 11  1  0  0  0
 11 12  2  0  0  0
 12 13  1  0  0  0
 13 14  2  0  0  0
 14 15  1  0  0  0
 14 16  1  0  0  0
 16 17  2  0  0  0
 17 11  1  0  0  0
 17  6  1  0  0  0
M  CHG 1  34   1
M  END
> <minimizedAffinity>
-7.98272

> <CNNscore>
0.2259740829

> <CNNaffinity>
6.3671035767

> <CNN_VS>
1.4388003349

> <CNNaffinity_variance>
0.0858622640

$$$$



 38 43  0  0  0  0  0  0  0  0999 V2000
   -6.9822    1.1585  -24.5104 C   0  0  0  0  0  0  0  0  0  0  0  0
   -8.4058    1.3151  -24.9245 C   0  0  0  0  0  0  0  0  0  0  0  0
   -9.2288    1.1933  -23.7064 N   0  0  0  0  0  0  0  0  0  0  0  0
   -8.3606    0.7592  -22.6776 C   0  0  0  0  0  0  0  0  0  0  0  0
   -8.7361    0.7088  -21.4603 O   0  0  0  0  0  0  0  0  0  0  0  0
   -7.0223    0.3938  -23.2123 C   0  0  0  0  0  0  0  0  0  0  0  0
   -7.1028   -1.1063  -23.4587 C   0  0  0  0  0  0  0  0  0  0  0  0
   -7.3734   -1.7302  -22.1597 N   0  0  0  0  0  0  0  0  0  0  0  0
   -6.3655   -1.5114  -21.1667 C   0  0  0  0  0  0  0  0  0  0  0  0
   -6.1356   -2.3650  -20.2835 O   0  0  0  0  0  0  0  0  0  0  0  0
   -5.6434   -0.2353  -21.2676 C   0  0  0  0  0  0  0  0  0  0  0  0
   -4.6553   -0.0267  -20.3313 C   0  0  0  0  0  0  0  0  0  0  0  0
   -3.8905    1.1197  -20.3293 C   0  0  0  0  0  0  0  0  0  0  0  0
   -4.1634    2.0471  -21.3106 C   0  0  0  0  0  0  0  0  0  0  0  0
   -3.2097    3.5160  -21.3377 Cl  0  0  0  0  0  0  0  0  0  0  0  0
   -5.1705    1.8350  -22.2646 C   0  0  0  0  0  0  0  0  0  0  0  0
   -5.9378    0.6911  -22.2707 C   0  0  0  0  0  0  0  0  0  0  0  0
  -10.6165    1.4857  -23.6880 C   0  0  0  0  0  0  0  0  0  0  0  0
  -11.5452    0.4490  -23.5543 C   0  0  0  0  0  0  0  0  0  0  0  0
  -12.8658    0.7098  -23.5337 N   0  0  0  0  0  0  0  0  0  0  0  0
  -13.3719    1.9527  -23.6374 C   0  0  0  0  0  0  0  0  0  0  0  0
  -12.5001    3.0160  -23.7715 C   0  0  0  0  0  0  0  0  0  0  0  0
  -12.9932    4.3161  -23.8782 C   0  0  0  0  0  0  0  0  0  0  0  0
  -12.1305    5.3746  -24.0083 C   0  0  0  0  0  0  0  0  0  0  0  0
  -10.7851    5.1046  -24.0285 C   0  0  0  0  0  0  0  0  0  0  0  0
  -10.3004    3.8336  -23.9242 C   0  0  0  0  0  0  0  0  0  0  0  0
  -11.1429    2.7523  -23.7930 C   0  0  0  0  0  0  0  0  0  0  0  0
   -6.1164    0.5146  -25.5272 C   0  0  0  0  0  0  0  0  0  0  0  0
   -3.8745   -0.1688  -25.2807 C   0  0  0  0  0  0  0  0  0  0  0  0
   -4.8044    0.7615  -25.5817 O   0  0  0  0  0  0  0  0  0  0  0  0
   -8.5292   -2.5099  -21.8700 C   0  0  0  0  0  0  0  0  0  0  0  0
   -9.0686   -3.2036  -23.0793 C   0  0  0  0  0  0  0  0  0  0  0  0
   -8.4812   -4.2687  -23.7329 C   0  0  0  0  0  0  0  0  0  0  0  0
   -9.3113   -4.5623  -24.7562 N   0  0  0  0  0  0  0  0  0  0  0  0
  -10.3636   -3.7250  -24.7441 C   0  0  0  0  0  0  0  0  0  0  0  0
  -10.2296   -2.8735  -23.7085 N   0  0  0  0  0  0  0  0  0  0  0  0
   -9.1678   -5.2816  -25.4129 H   0  0  0  0  0  0  0  0  0  0  0  0
  -10.8507   -2.1527  -23.4559 H   0  0  0  0  0  0  0  0  0  0  0  0
 29 30  1  0  0  0
 30 28  1  0  0  0
  1 28  1  0  0  0
  1  2  1  0  0  0
  2  3  1  0  0  0
  3 18  1  0  0  0
  3  4  1  0  0  0
 18 19  2  0  0  0
 19 20  1  0  0  0
 20 21  2  0  0  0
 21 22  1  0  0  0
 22 23  2  0  0  0
 23 24  1  0  0  0
 24 25  2  0  0  0
 25 26  1  0  0  0
 26 27  2  0  0  0
 27 18  1  0  0  0
 27 22  1  0  0  0
  4  5  2  0  0  0
  6  4  1  0  0  0
  6  7  1  0  0  0
  6  1  1  0  0  0
  7  8  1  0  0  0
  8 31  1  0  0  0
  8  9  1  0  0  0
 31 32  1  0  0  0
 32 33  2  0  0  0
 33 34  1  0  0  0
 34 35  2  0  0  0
 34 37  1  0  0  0
 35 36  1  0  0  0
 36 32  1  0  0  0
 36 38  1  0  0  0
  9 10  2  0  0  0
  9 11  1  0  0  0
 11 12  2  0  0  0
 12 13  1  0  0  0
 13 14  2  0  0  0
 14 15  1  0  0  0
 14 16  1  0  0  0
 16 17  2  0  0  0
 17 11  1  0  0  0
 17  6  1  0  0  0
M  CHG 1  34   1
M  END
> <minimizedAffinity>
-7.80618

> <CNNscore>
0.2031614780

> <CNNaffinity>
6.1974878311

> <CNN_VS>
1.2590907812

> <CNNaffinity_variance>
0.0889517143

$$$$



 38 43  0  0  0  0  0  0  0  0999 V2000
   -8.1695   -1.0985  -24.2839 C   0  0  0  0  0  0  0  0  0  0  0  0
   -6.7963   -0.7820  -23.7972 C   0  0  0  0  0  0  0  0  0  0  0  0
   -6.9283    0.2834  -22.7856 N   0  0  0  0  0  0  0  0  0  0  0  0
   -8.2698    0.7278  -22.8441 C   0  0  0  0  0  0  0  0  0  0  0  0
   -8.7454    1.5391  -21.9832 O   0  0  0  0  0  0  0  0  0  0  0  0
   -8.9909    0.1329  -24.0001 C   0  0  0  0  0  0  0  0  0  0  0  0
   -8.8463    1.1605  -25.1141 C   0  0  0  0  0  0  0  0  0  0  0  0
   -9.4825    2.3911  -24.6338 N   0  0  0  0  0  0  0  0  0  0  0  0
  -10.8783    2.2702  -24.3393 C   0  0  0  0  0  0  0  0  0  0  0  0
  -11.6531    3.2401  -24.4828 O   0  0  0  0  0  0  0  0  0  0  0  0
  -11.3138    0.9485  -23.8668 C   0  0  0  0  0  0  0  0  0  0  0  0
  -12.6592    0.8158  -23.6043 C   0  0  0  0  0  0  0  0  0  0  0  0
  -13.1988   -0.3776  -23.1757 C   0  0  0  0  0  0  0  0  0  0  0  0
  -12.3255   -1.4318  -23.0227 C   0  0  0  0  0  0  0  0  0  0  0  0
  -12.9778   -2.9639  -22.4796 Cl  0  0  0  0  0  0  0  0  0  0  0  0
  -10.9544   -1.2969  -23.2897 C   0  0  0  0  0  0  0  0  0  0  0  0
  -10.4101   -0.1062  -23.7179 C   0  0  0  0  0  0  0  0  0  0  0  0
   -5.8481    0.6980  -21.9654 C   0  0  0  0  0  0  0  0  0  0  0  0
   -4.8461    1.5173  -22.4944 C   0  0  0  0  0  0  0  0  0  0  0  0
   -3.8148    1.9207  -21.7288 N   0  0  0  0  0  0  0  0  0  0  0  0
   -3.6789    1.5736  -20.4354 C   0  0  0  0  0  0  0  0  0  0  0  0
   -4.6401    0.7652  -19.8599 C   0  0  0  0  0  0  0  0  0  0  0  0
   -4.5293    0.3906  -18.5212 C   0  0  0  0  0  0  0  0  0  0  0  0
   -5.4833   -0.4094  -17.9456 C   0  0  0  0  0  0  0  0  0  0  0  0
   -6.5332   -0.8182  -18.7293 C   0  0  0  0  0  0  0  0  0  0  0  0
   -6.6437   -0.4530  -20.0391 C   0  0  0  0  0  0  0  0  0  0  0  0
   -5.7010    0.3488  -20.6429 C   0  0  0  0  0  0  0  0  0  0  0  0
   -8.2342   -1.5144  -25.7055 C   0  0  0  0  0  0  0  0  0  0  0  0
   -8.4105   -3.5573  -26.8671 C   0  0  0  0  0  0  0  0  0  0  0  0
   -8.9318   -2.5887  -26.0856 O   0  0  0  0  0  0  0  0  0  0  0  0
   -8.8047    3.6327  -24.4699 C   0  0  0  0  0  0  0  0  0  0  0  0
   -7.6764    3.7999  -25.4362 C   0  0  0  0  0  0  0  0  0  0  0  0
   -6.3329    3.6715  -25.1445 C   0  0  0  0  0  0  0  0  0  0  0  0
   -5.6902    3.9060  -26.3083 N   0  0  0  0  0  0  0  0  0  0  0  0
   -6.5843    4.1676  -27.2781 C   0  0  0  0  0  0  0  0  0  0  0  0
   -7.8241    4.1060  -26.7543 N   0  0  0  0  0  0  0  0  0  0  0  0
   -4.7133    3.8882  -26.4289 H   0  0  0  0  0  0  0  0  0  0  0  0
   -8.6722    4.2536  -27.2320 H   0  0  0  0  0  0  0  0  0  0  0  0
 29 30  1  0  0  0
 30 28  1  0  0  0
  1 28  1  0  0  0
  1  2  1  0  0  0
  2  3  1  0  0  0
  3 18  1  0  0  0
  3  4  1  0  0  0
 18 19  2  0  0  0
 19 20  1  0  0  0
 20 21  2  0  0  0
 21 22  1  0  0  0
 22 23  2  0  0  0
 23 24  1  0  0  0
 24 25  2  0  0  0
 25 26  1  0  0  0
 26 27  2  0  0  0
 27 18  1  0  0  0
 27 22  1  0  0  0
  4  5  2  0  0  0
  6  4  1  0  0  0
  6  7  1  0  0  0
  6  1  1  0  0  0
  7  8  1  0  0  0
  8 31  1  0  0  0
  8  9  1  0  0  0
 31 32  1  0  0  0
 32 33  2  0  0  0
 33 34  1  0  0  0
 34 35  2  0  0  0
 34 37  1  0  0  0
 35 36  1  0  0  0
 36 32  1  0  0  0
 36 38  1  0  0  0
  9 10  2  0  0  0
  9 11  1  0  0  0
 11 12  2  0  0  0
 12 13  1  0  0  0
 13 14  2  0  0  0
 14 15  1  0  0  0
 14 16  1  0  0  0
 16 17  2  0  0  0
 17 11  1  0  0  0
 17  6  1  0  0  0
M  CHG 1  34   1
M  END
> <minimizedAffinity>
-7.46176

> <CNNscore>
0.1539584100

> <CNNaffinity>
5.9920954704

> <CNN_VS>
0.9225335121

> <CNNaffinity_variance>
0.1711482406

$$$$



 38 43  0  0  0  0  0  0  0  0999 V2000
   -9.0789   -0.6364  -23.1277 C   0  0  0  0  0  0  0  0  0  0  0  0
   -8.0316   -1.0723  -22.1603 C   0  0  0  0  0  0  0  0  0  0  0  0
   -7.4131    0.1486  -21.6099 N   0  0  0  0  0  0  0  0  0  0  0  0
   -7.9051    1.2290  -22.3788 C   0  0  0  0  0  0  0  0  0  0  0  0
   -7.6801    2.4409  -22.0532 O   0  0  0  0  0  0  0  0  0  0  0  0
   -8.6792    0.7524  -23.5553 C   0  0  0  0  0  0  0  0  0  0  0  0
   -7.6659    0.7091  -24.6907 C   0  0  0  0  0  0  0  0  0  0  0  0
   -7.1738    2.0792  -24.8652 N   0  0  0  0  0  0  0  0  0  0  0  0
   -8.1767    3.0370  -25.2207 C   0  0  0  0  0  0  0  0  0  0  0  0
   -7.8987    4.0274  -25.9302 O   0  0  0  0  0  0  0  0  0  0  0  0
   -9.5233    2.7681  -24.6969 C   0  0  0  0  0  0  0  0  0  0  0  0
  -10.4999    3.6710  -25.0539 C   0  0  0  0  0  0  0  0  0  0  0  0
  -11.8077    3.5217  -24.6460 C   0  0  0  0  0  0  0  0  0  0  0  0
  -12.0900    2.4240  -23.8631 C   0  0  0  0  0  0  0  0  0  0  0  0
  -13.7428    2.2031  -23.3272 Cl  0  0  0  0  0  0  0  0  0  0  0  0
  -11.0950    1.5039  -23.4987 C   0  0  0  0  0  0  0  0  0  0  0  0
   -9.7864    1.6489  -23.9035 C   0  0  0  0  0  0  0  0  0  0  0  0
   -6.5133    0.1233  -20.5140 C   0  0  0  0  0  0  0  0  0  0  0  0
   -6.8476   -0.5824  -19.3541 C   0  0  0  0  0  0  0  0  0  0  0  0
   -6.0040   -0.6174  -18.3056 N   0  0  0  0  0  0  0  0  0  0  0  0
   -4.8117    0.0072  -18.2995 C   0  0  0  0  0  0  0  0  0  0  0  0
   -4.4292    0.7197  -19.4195 C   0  0  0  0  0  0  0  0  0  0  0  0
   -3.1987    1.3753  -19.4453 C   0  0  0  0  0  0  0  0  0  0  0  0
   -2.8142    2.0812  -20.5569 C   0  0  0  0  0  0  0  0  0  0  0  0
   -3.6768    2.1141  -21.6238 C   0  0  0  0  0  0  0  0  0  0  0  0
   -4.8811    1.4735  -21.6009 C   0  0  0  0  0  0  0  0  0  0  0  0
   -5.2928    0.7581  -20.4987 C   0  0  0  0  0  0  0  0  0  0  0  0
   -9.2723   -1.5551  -24.2753 C   0  0  0  0  0  0  0  0  0  0  0  0
  -10.6563   -3.4243  -24.6553 C   0  0  0  0  0  0  0  0  0  0  0  0
  -10.4656   -2.0932  -24.5431 O   0  0  0  0  0  0  0  0  0  0  0  0
   -5.8120    2.4672  -24.7141 C   0  0  0  0  0  0  0  0  0  0  0  0
   -4.8887    1.6564  -25.5654 C   0  0  0  0  0  0  0  0  0  0  0  0
   -4.7947    1.7132  -26.9418 C   0  0  0  0  0  0  0  0  0  0  0  0
   -3.8411    0.8166  -27.2725 N   0  0  0  0  0  0  0  0  0  0  0  0
   -3.3629    0.2291  -26.1614 C   0  0  0  0  0  0  0  0  0  0  0  0
   -4.0024    0.7388  -25.0906 N   0  0  0  0  0  0  0  0  0  0  0  0
   -3.5409    0.6220  -28.1897 H   0  0  0  0  0  0  0  0  0  0  0  0
   -3.8570    0.4950  -24.1479 H   0  0  0  0  0  0  0  0  0  0  0  0
 29 30  1  0  0  0
 30 28  1  0  0  0
  1 28  1  0  0  0
  1  2  1  0  0  0
  2  3  1  0  0  0
  3 18  1  0  0  0
  3  4  1  0  0  0
 18 19  2  0  0  0
 19 20  1  0  0  0
 20 21  2  0  0  0
 21 22  1  0  0  0
 22 23  2  0  0  0
 23 24  1  0  0  0
 24 25  2  0  0  0
 25 26  1  0  0  0
 26 27  2  0  0  0
 27 18  1  0  0  0
 27 22  1  0  0  0
  4  5  2  0  0  0
  6  4  1  0  0  0
  6  7  1  0  0  0
  6  1  1  0  0  0
  7  8  1  0  0  0
  8 31  1  0  0  0
  8  9  1  0  0  0
 31 32  1  0  0  0
 32 33  2  0  0  0
 33 34  1  0  0  0
 34 35  2  0  0  0
 34 37  1  0  0  0
 35 36  1  0  0  0
 36 32  1  0  0  0
 36 38  1  0  0  0
  9 10  2  0  0  0
  9 11  1  0  0  0
 11 12  2  0  0  0
 12 13  1  0  0  0
 13 14  2  0  0  0
 14 15  1  0  0  0
 14 16  1  0  0  0
 16 17  2  0  0  0
 17 11  1  0  0  0
 17  6  1  0  0  0
M  CHG 1  34   1
M  END
> <minimizedAffinity>
-7.27222

> <CNNscore>
0.1313570440

> <CNNaffinity>
5.8946533203

> <CNN_VS>
0.7743042111

> <CNNaffinity_variance>
0.0858411789

$$$$



 38 43  0  0  0  0  0  0  0  0999 V2000
   -7.1553   -0.8004  -22.5880 C   0  0  0  0  0  0  0  0  0  0  0  0
   -5.8100   -1.0605  -23.1756 C   0  0  0  0  0  0  0  0  0  0  0  0
   -6.0222   -1.5170  -24.5622 N   0  0  0  0  0  0  0  0  0  0  0  0
   -7.4124   -1.7354  -24.7041 C   0  0  0  0  0  0  0  0  0  0  0  0
   -7.9394   -1.9862  -25.8376 O   0  0  0  0  0  0  0  0  0  0  0  0
   -8.1163   -1.6314  -23.3987 C   0  0  0  0  0  0  0  0  0  0  0  0
   -8.1803   -3.0618  -22.8811 C   0  0  0  0  0  0  0  0  0  0  0  0
   -8.9460   -3.8302  -23.8676 N   0  0  0  0  0  0  0  0  0  0  0  0
  -10.2920   -3.3835  -24.0635 C   0  0  0  0  0  0  0  0  0  0  0  0
  -11.1979   -4.1860  -24.3751 O   0  0  0  0  0  0  0  0  0  0  0  0
  -10.5154   -1.9433  -23.8741 C   0  0  0  0  0  0  0  0  0  0  0  0
  -11.8119   -1.5083  -24.0366 C   0  0  0  0  0  0  0  0  0  0  0  0
  -12.1582   -0.1854  -23.8662 C   0  0  0  0  0  0  0  0  0  0  0  0
  -11.1429    0.6808  -23.5252 C   0  0  0  0  0  0  0  0  0  0  0  0
  -11.5480    2.3700  -23.3004 Cl  0  0  0  0  0  0  0  0  0  0  0  0
   -9.8216    0.2380  -23.3599 C   0  0  0  0  0  0  0  0  0  0  0  0
   -9.4703   -1.0831  -23.5294 C   0  0  0  0  0  0  0  0  0  0  0  0
   -4.9595   -1.6683  -25.4892 C   0  0  0  0  0  0  0  0  0  0  0  0
   -4.4848   -2.9457  -25.8024 C   0  0  0  0  0  0  0  0  0  0  0  0
   -3.4777   -3.1064  -26.6812 N   0  0  0  0  0  0  0  0  0  0  0  0
   -2.8731   -2.0775  -27.3036 C   0  0  0  0  0  0  0  0  0  0  0  0
   -3.3016   -0.7925  -27.0323 C   0  0  0  0  0  0  0  0  0  0  0  0
   -2.6975    0.2946  -27.6632 C   0  0  0  0  0  0  0  0  0  0  0  0
   -3.1224    1.5717  -27.3986 C   0  0  0  0  0  0  0  0  0  0  0  0
   -4.1495    1.7314  -26.5024 C   0  0  0  0  0  0  0  0  0  0  0  0
   -4.7421    0.6695  -25.8841 C   0  0  0  0  0  0  0  0  0  0  0  0
   -4.3358   -0.6230  -26.1302 C   0  0  0  0  0  0  0  0  0  0  0  0
   -7.2505   -1.0717  -21.1335 C   0  0  0  0  0  0  0  0  0  0  0  0
   -6.2548   -0.8073  -19.0139 C   0  0  0  0  0  0  0  0  0  0  0  0
   -6.1738   -1.0208  -20.3438 O   0  0  0  0  0  0  0  0  0  0  0  0
   -8.4332   -4.9466  -24.5876 C   0  0  0  0  0  0  0  0  0  0  0  0
   -9.1452   -5.1671  -25.8834 C   0  0  0  0  0  0  0  0  0  0  0  0
   -9.7797   -6.3302  -26.2725 C   0  0  0  0  0  0  0  0  0  0  0  0
  -10.2761   -6.0729  -27.5013 N   0  0  0  0  0  0  0  0  0  0  0  0
   -9.9687   -4.8147  -27.8628 C   0  0  0  0  0  0  0  0  0  0  0  0
   -9.2659   -4.2364  -26.8693 N   0  0  0  0  0  0  0  0  0  0  0  0
  -10.7866   -6.7109  -28.0504 H   0  0  0  0  0  0  0  0  0  0  0  0
   -8.9090   -3.3189  -26.8584 H   0  0  0  0  0  0  0  0  0  0  0  0
 29 30  1  0  0  0
 30 28  1  0  0  0
  1 28  1  0  0  0
  1  2  1  0  0  0
  2  3  1  0  0  0
  3 18  1  0  0  0
  3  4  1  0  0  0
 18 19  2  0  0  0
 19 20  1  0  0  0
 20 21  2  0  0  0
 21 22  1  0  0  0
 22 23  2  0  0  0
 23 24  1  0  0  0
 24 25  2  0  0  0
 25 26  1  0  0  0
 26 27  2  0  0  0
 27 18  1  0  0  0
 27 22  1  0  0  0
  4  5  2  0  0  0
  6  4  1  0  0  0
  6  7  1  0  0  0
  6  1  1  0  0  0
  7  8  1  0  0  0
  8 31  1  0  0  0
  8  9  1  0  0  0
 31 32  1  0  0  0
 32 33  2  0  0  0
 33 34  1  0  0  0
 34 35  2  0  0  0
 34 37  1  0  0  0
 35 36  1  0  0  0
 36 32  1  0  0  0
 36 38  1  0  0  0
  9 10  2  0  0  0
  9 11  1  0  0  0
 11 12  2  0  0  0
 12 13  1  0  0  0
 13 14  2  0  0  0
 14 15  1  0  0  0
 14 16  1  0  0  0
 16 17  2  0  0  0
 17 11  1  0  0  0
 17  6  1  0  0  0
M  CHG 1  34   1
M  END
> <minimizedAffinity>
-6.23227

> <CNNscore>
0.1098446026

> <CNNaffinity>
5.8692302704

> <CNN_VS>
0.6447032690

> <CNNaffinity_variance>
0.0745378584

$$$$



 35 40  0  0  0  0  0  0  0  0999 V2000
   -5.9494   -2.7122  -22.4587 C   0  0  0  0  0  0  0  0  0  0  0  0
   -7.3009   -2.6588  -23.0779 C   0  0  0  0  0  0  0  0  0  0  0  0
   -8.1573   -1.5098  -22.6727 C   0  0  0  0  0  0  0  0  0  0  0  0
   -9.1354   -1.4194  -23.7653 N   0  0  0  0  0  0  0  0  0  0  0  0
   -8.7419   -2.3002  -24.8210 C   0  0  0  0  0  0  0  0  0  0  0  0
   -9.5001   -2.7374  -25.7148 O   0  0  0  0  0  0  0  0  0  0  0  0
   -7.2903   -2.5436  -24.5916 C   0  0  0  0  0  0  0  0  0  0  0  0
   -6.5757   -1.3105  -25.0631 C   0  0  0  0  0  0  0  0  0  0  0  0
   -5.1441   -1.4701  -25.1783 N   0  0  0  0  0  0  0  0  0  0  0  0
   -4.6675   -2.6805  -25.7505 C   0  0  0  0  0  0  0  0  0  0  0  0
   -3.5080   -2.7074  -26.2526 O   0  0  0  0  0  0  0  0  0  0  0  0
   -5.5386   -3.8583  -25.7387 C   0  0  0  0  0  0  0  0  0  0  0  0
   -5.0225   -5.0090  -26.3095 C   0  0  0  0  0  0  0  0  0  0  0  0
   -5.8239   -6.1411  -26.3135 C   0  0  0  0  0  0  0  0  0  0  0  0
   -7.0882   -6.1114  -25.7659 C   0  0  0  0  0  0  0  0  0  0  0  0
   -7.8456   -7.2429  -25.7885 F   0  0  0  0  0  0  0  0  0  0  0  0
   -7.5631   -4.9252  -25.2019 C   0  0  0  0  0  0  0  0  0  0  0  0
   -6.7998   -3.7977  -25.1830 C   0  0  0  0  0  0  0  0  0  0  0  0
  -10.2748   -0.5624  -23.7071 C   0  0  0  0  0  0  0  0  0  0  0  0
  -10.0979    0.7574  -24.0684 C   0  0  0  0  0  0  0  0  0  0  0  0
  -11.1050    1.6236  -24.0432 N   0  0  0  0  0  0  0  0  0  0  0  0
  -12.3270    1.1851  -23.6515 C   0  0  0  0  0  0  0  0  0  0  0  0
  -12.5463   -0.1178  -23.2843 C   0  0  0  0  0  0  0  0  0  0  0  0
  -13.8081   -0.5061  -22.8953 C   0  0  0  0  0  0  0  0  0  0  0  0
  -14.0147   -1.8196  -22.5285 C   0  0  0  0  0  0  0  0  0  0  0  0
  -12.9606   -2.7336  -22.5530 C   0  0  0  0  0  0  0  0  0  0  0  0
  -11.6886   -2.3400  -22.9456 C   0  0  0  0  0  0  0  0  0  0  0  0
  -11.5244   -1.0159  -23.3052 C   0  0  0  0  0  0  0  0  0  0  0  0
   -4.2236   -0.4343  -24.7271 C   0  0  0  0  0  0  0  0  0  0  0  0
   -4.6367    0.1670  -23.4553 C   0  0  0  0  0  0  0  0  0  0  0  0
   -3.9182   -0.1409  -22.3415 N   0  0  0  0  0  0  0  0  0  0  0  0
   -4.2204    0.3592  -21.1398 C   0  0  0  0  0  0  0  0  0  0  0  0
   -5.2862    1.2091  -21.0199 C   0  0  0  0  0  0  0  0  0  0  0  0
   -6.0328    1.5382  -22.1354 C   0  0  0  0  0  0  0  0  0  0  0  0
   -5.6818    1.0033  -23.3243 N   0  0  0  0  0  0  0  0  0  0  0  0
  2  1  1  0  0  0
  2  3  1  0  0  0
  3  4  1  0  0  0
  4 19  1  0  0  0
  4  5  1  0  0  0
 19 20  2  0  0  0
 20 21  1  0  0  0
 21 22  2  0  0  0
 22 23  1  0  0  0
 23 24  2  0  0  0
 24 25  1  0  0  0
 25 26  2  0  0  0
 26 27  1  0  0  0
 27 28  2  0  0  0
 28 19  1  0  0  0
 28 23  1  0  0  0
  5  6  2  0  0  0
  7  5  1  0  0  0
  7  8  1  0  0  0
  7  2  1  0  0  0
  8  9  1  0  0  0
  9 29  1  0  0  0
  9 10  1  0  0  0
 29 30  1  0  0  0
 30 31  2  0  0  0
 31 32  1  0  0  0
 32 33  2  0  0  0
 33 34  1  0  0  0
 34 35  2  0  0  0
 35 30  1  0  0  0
 10 11  2  0  0  0
 10 12  1  0  0  0
 12 13  2  0  0  0
 13 14  1  0  0  0
 14 15  2  0  0  0
 15 16  1  0  0  0
 15 17  1  0  0  0
 17 18  2  0  0  0
 18 12  1  0  0  0
 18  7  1  0  0  0
M  END
> <minimizedAffinity>
-7.17655

> <CNNscore>
0.2044230103

> <CNNaffinity>
5.9802207947

> <CNN_VS>
1.2224947214

> <CNNaffinity_variance>
0.1111888066

$$$$



 35 40  0  0  0  0  0  0  0  0999 V2000
   -6.8612   -1.5402  -24.9172 C   0  0  0  0  0  0  0  0  0  0  0  0
   -7.7508   -0.5794  -24.2112 C   0  0  0  0  0  0  0  0  0  0  0  0
   -9.1777   -0.5800  -24.6373 C   0  0  0  0  0  0  0  0  0  0  0  0
   -9.8705    0.0198  -23.4888 N   0  0  0  0  0  0  0  0  0  0  0  0
   -8.9498    0.1519  -22.4026 C   0  0  0  0  0  0  0  0  0  0  0  0
   -9.0899    0.9252  -21.4293 O   0  0  0  0  0  0  0  0  0  0  0  0
   -7.8543   -0.8083  -22.7141 C   0  0  0  0  0  0  0  0  0  0  0  0
   -8.3829   -2.1739  -22.3828 C   0  0  0  0  0  0  0  0  0  0  0  0
   -7.3700   -3.2042  -22.3560 N   0  0  0  0  0  0  0  0  0  0  0  0
   -6.1330   -2.8858  -21.7330 C   0  0  0  0  0  0  0  0  0  0  0  0
   -5.3983   -3.8239  -21.3119 O   0  0  0  0  0  0  0  0  0  0  0  0
   -5.7512   -1.4777  -21.5999 C   0  0  0  0  0  0  0  0  0  0  0  0
   -4.5364   -1.2268  -20.9853 C   0  0  0  0  0  0  0  0  0  0  0  0
   -4.1472    0.0971  -20.8445 C   0  0  0  0  0  0  0  0  0  0  0  0
   -4.9486    1.1198  -21.3039 C   0  0  0  0  0  0  0  0  0  0  0  0
   -4.5329    2.4071  -21.1479 F   0  0  0  0  0  0  0  0  0  0  0  0
   -6.1657    0.8141  -21.9172 C   0  0  0  0  0  0  0  0  0  0  0  0
   -6.5747   -0.4757  -22.0697 C   0  0  0  0  0  0  0  0  0  0  0  0
  -11.2491    0.3860  -23.5292 C   0  0  0  0  0  0  0  0  0  0  0  0
  -12.1798   -0.6183  -23.3599 C   0  0  0  0  0  0  0  0  0  0  0  0
  -13.4839   -0.3655  -23.3834 N   0  0  0  0  0  0  0  0  0  0  0  0
  -13.8926    0.9127  -23.5791 C   0  0  0  0  0  0  0  0  0  0  0  0
  -13.0013    1.9404  -23.7517 C   0  0  0  0  0  0  0  0  0  0  0  0
  -13.4741    3.2181  -23.9466 C   0  0  0  0  0  0  0  0  0  0  0  0
  -12.5665    4.2425  -24.1188 C   0  0  0  0  0  0  0  0  0  0  0  0
  -11.1958    3.9827  -24.0950 C   0  0  0  0  0  0  0  0  0  0  0  0
  -10.7208    2.6932  -23.8983 C   0  0  0  0  0  0  0  0  0  0  0  0
  -11.6629    1.6963  -23.7299 C   0  0  0  0  0  0  0  0  0  0  0  0
   -7.6039   -4.5174  -22.9430 C   0  0  0  0  0  0  0  0  0  0  0  0
   -6.4922   -4.9579  -23.7915 C   0  0  0  0  0  0  0  0  0  0  0  0
   -5.8132   -6.0777  -23.4220 N   0  0  0  0  0  0  0  0  0  0  0  0
   -4.7868   -6.5538  -24.1330 C   0  0  0  0  0  0  0  0  0  0  0  0
   -4.4021   -5.8974  -25.2704 C   0  0  0  0  0  0  0  0  0  0  0  0
   -5.0748   -4.7575  -25.6682 C   0  0  0  0  0  0  0  0  0  0  0  0
   -6.1043   -4.3219  -24.9113 N   0  0  0  0  0  0  0  0  0  0  0  0
  2  1  1  0  0  0
  2  3  1  0  0  0
  3  4  1  0  0  0
  4 19  1  0  0  0
  4  5  1  0  0  0
 19 20  2  0  0  0
 20 21  1  0  0  0
 21 22  2  0  0  0
 22 23  1  0  0  0
 23 24  2  0  0  0
 24 25  1  0  0  0
 25 26  2  0  0  0
 26 27  1  0  0  0
 27 28  2  0  0  0
 28 19  1  0  0  0
 28 23  1  0  0  0
  5  6  2  0  0  0
  7  5  1  0  0  0
  7  8  1  0  0  0
  7  2  1  0  0  0
  8  9  1  0  0  0
  9 29  1  0  0  0
  9 10  1  0  0  0
 29 30  1  0  0  0
 30 31  2  0  0  0
 31 32  1  0  0  0
 32 33  2  0  0  0
 33 34  1  0  0  0
 34 35  2  0  0  0
 35 30  1  0  0  0
 10 11  2  0  0  0
 10 12  1  0  0  0
 12 13  2  0  0  0
 13 14  1  0  0  0
 14 15  2  0  0  0
 15 16  1  0  0  0
 15 17  1  0  0  0
 17 18  2  0  0  0
 18 12  1  0  0  0
 18  7  1  0  0  0
M  END
> <minimizedAffinity>
-7.71396

> <CNNscore>
0.1761616021

> <CNNaffinity>
6.1181392670

> <CNN_VS>
1.0777812004

> <CNNaffinity_variance>
0.0864152983

$$$$



 35 40  0  0  0  0  0  0  0  0999 V2000
   -7.2371   -2.6121  -25.9711 C   0  0  0  0  0  0  0  0  0  0  0  0
   -6.5647   -2.7538  -24.6519 C   0  0  0  0  0  0  0  0  0  0  0  0
   -6.8663   -1.6936  -23.6505 C   0  0  0  0  0  0  0  0  0  0  0  0
   -6.5306   -2.3350  -22.3720 N   0  0  0  0  0  0  0  0  0  0  0  0
   -6.2679   -3.7224  -22.5983 C   0  0  0  0  0  0  0  0  0  0  0  0
   -5.6223   -4.4684  -21.8290 O   0  0  0  0  0  0  0  0  0  0  0  0
   -6.9209   -4.0251  -23.9025 C   0  0  0  0  0  0  0  0  0  0  0  0
   -8.3926   -4.1277  -23.6242 C   0  0  0  0  0  0  0  0  0  0  0  0
   -9.1577   -4.6899  -24.7136 N   0  0  0  0  0  0  0  0  0  0  0  0
   -8.6066   -5.8152  -25.3841 C   0  0  0  0  0  0  0  0  0  0  0  0
   -9.3761   -6.5839  -26.0277 O   0  0  0  0  0  0  0  0  0  0  0  0
   -7.1620   -6.0461  -25.3061 C   0  0  0  0  0  0  0  0  0  0  0  0
   -6.6810   -7.1567  -25.9780 C   0  0  0  0  0  0  0  0  0  0  0  0
   -5.3169   -7.4020  -25.9227 C   0  0  0  0  0  0  0  0  0  0  0  0
   -4.4781   -6.5635  -25.2208 C   0  0  0  0  0  0  0  0  0  0  0  0
   -3.1443   -6.8368  -25.1894 F   0  0  0  0  0  0  0  0  0  0  0  0
   -5.0129   -5.4557  -24.5594 C   0  0  0  0  0  0  0  0  0  0  0  0
   -6.3477   -5.1889  -24.5955 C   0  0  0  0  0  0  0  0  0  0  0  0
   -6.4937   -1.6175  -21.1392 C   0  0  0  0  0  0  0  0  0  0  0  0
   -7.4945   -1.8720  -20.2242 C   0  0  0  0  0  0  0  0  0  0  0  0
   -7.5363   -1.2484  -19.0518 N   0  0  0  0  0  0  0  0  0  0  0  0
   -6.5668   -0.3452  -18.7635 C   0  0  0  0  0  0  0  0  0  0  0  0
   -5.5543   -0.0625  -19.6440 C   0  0  0  0  0  0  0  0  0  0  0  0
   -4.5974    0.8639  -19.2972 C   0  0  0  0  0  0  0  0  0  0  0  0
   -3.5845    1.1387  -20.1924 C   0  0  0  0  0  0  0  0  0  0  0  0
   -3.5358    0.4868  -21.4251 C   0  0  0  0  0  0  0  0  0  0  0  0
   -4.5019   -0.4473  -21.7731 C   0  0  0  0  0  0  0  0  0  0  0  0
   -5.4988   -0.6934  -20.8483 C   0  0  0  0  0  0  0  0  0  0  0  0
  -10.4424   -4.1284  -25.1112 C   0  0  0  0  0  0  0  0  0  0  0  0
  -10.8430   -2.9958  -24.2708 C   0  0  0  0  0  0  0  0  0  0  0  0
  -11.7591   -3.2220  -23.2904 N   0  0  0  0  0  0  0  0  0  0  0  0
  -12.1838   -2.2512  -22.4765 C   0  0  0  0  0  0  0  0  0  0  0  0
  -11.6843   -0.9864  -22.6297 C   0  0  0  0  0  0  0  0  0  0  0  0
  -10.7528   -0.7293  -23.6178 C   0  0  0  0  0  0  0  0  0  0  0  0
  -10.3598   -1.7485  -24.4112 N   0  0  0  0  0  0  0  0  0  0  0  0
  2  1  1  0  0  0
  2  3  1  0  0  0
  3  4  1  0  0  0
  4 19  1  0  0  0
  4  5  1  0  0  0
 19 20  2  0  0  0
 20 21  1  0  0  0
 21 22  2  0  0  0
 22 23  1  0  0  0
 23 24  2  0  0  0
 24 25  1  0  0  0
 25 26  2  0  0  0
 26 27  1  0  0  0
 27 28  2  0  0  0
 28 19  1  0  0  0
 28 23  1  0  0  0
  5  6  2  0  0  0
  7  5  1  0  0  0
  7  8  1  0  0  0
  7  2  1  0  0  0
  8  9  1  0  0  0
  9 29  1  0  0  0
  9 10  1  0  0  0
 29 30  1  0  0  0
 30 31  2  0  0  0
 31 32  1  0  0  0
 32 33  2  0  0  0
 33 34  1  0  0  0
 34 35  2  0  0  0
 35 30  1  0  0  0
 10 11  2  0  0  0
 10 12  1  0  0  0
 12 13  2  0  0  0
 13 14  1  0  0  0
 14 15  2  0  0  0
 15 16  1  0  0  0
 15 17  1  0  0  0
 17 18  2  0  0  0
 18 12  1  0  0  0
 18  7  1  0  0  0
M  END
> <minimizedAffinity>
-8.61135

> <CNNscore>
0.1603990793

> <CNNaffinity>
6.0349407196

> <CNN_VS>
0.9679989219

> <CNNaffinity_variance>
0.0810848400

$$$$



 35 40  0  0  0  0  0  0  0  0999 V2000
   -6.4171    3.2894  -21.8707 C   0  0  0  0  0  0  0  0  0  0  0  0
   -6.5960    1.9882  -22.5691 C   0  0  0  0  0  0  0  0  0  0  0  0
   -6.6015    2.0438  -24.0573 C   0  0  0  0  0  0  0  0  0  0  0  0
   -6.2680    0.6665  -24.4451 N   0  0  0  0  0  0  0  0  0  0  0  0
   -5.8848   -0.0690  -23.2801 C   0  0  0  0  0  0  0  0  0  0  0  0
   -5.8876   -1.3161  -23.1820 O   0  0  0  0  0  0  0  0  0  0  0  0
   -5.5071    0.9702  -22.2819 C   0  0  0  0  0  0  0  0  0  0  0  0
   -4.1470    1.4646  -22.6809 C   0  0  0  0  0  0  0  0  0  0  0  0
   -3.4986    2.2740  -21.6745 N   0  0  0  0  0  0  0  0  0  0  0  0
   -3.5922    1.8355  -20.3260 C   0  0  0  0  0  0  0  0  0  0  0  0
   -2.7331    2.2349  -19.4895 O   0  0  0  0  0  0  0  0  0  0  0  0
   -4.6839    0.9334  -19.9508 C   0  0  0  0  0  0  0  0  0  0  0  0
   -4.7256    0.5391  -18.6246 C   0  0  0  0  0  0  0  0  0  0  0  0
   -5.7480   -0.3153  -18.2387 C   0  0  0  0  0  0  0  0  0  0  0  0
   -6.6847   -0.7506  -19.1511 C   0  0  0  0  0  0  0  0  0  0  0  0
   -7.6738   -1.5889  -18.7349 F   0  0  0  0  0  0  0  0  0  0  0  0
   -6.5987   -0.3237  -20.4781 C   0  0  0  0  0  0  0  0  0  0  0  0
   -5.6066    0.5148  -20.8869 C   0  0  0  0  0  0  0  0  0  0  0  0
   -6.3400    0.2101  -25.7952 C   0  0  0  0  0  0  0  0  0  0  0  0
   -7.5590   -0.2520  -26.2469 C   0  0  0  0  0  0  0  0  0  0  0  0
   -7.7145   -0.6954  -27.4897 N   0  0  0  0  0  0  0  0  0  0  0  0
   -6.6420   -0.6869  -28.3195 C   0  0  0  0  0  0  0  0  0  0  0  0
   -5.4130   -0.2364  -27.9111 C   0  0  0  0  0  0  0  0  0  0  0  0
   -4.3601   -0.2514  -28.7974 C   0  0  0  0  0  0  0  0  0  0  0  0
   -3.1292    0.2047  -28.3734 C   0  0  0  0  0  0  0  0  0  0  0  0
   -2.9602    0.6714  -27.0693 C   0  0  0  0  0  0  0  0  0  0  0  0
   -4.0233    0.6857  -26.1769 C   0  0  0  0  0  0  0  0  0  0  0  0
   -5.2389    0.2206  -26.6414 C   0  0  0  0  0  0  0  0  0  0  0  0
   -2.7773    3.4909  -22.0246 C   0  0  0  0  0  0  0  0  0  0  0  0
   -1.5937    3.2236  -22.8477 C   0  0  0  0  0  0  0  0  0  0  0  0
   -0.5188    2.6426  -22.2489 N   0  0  0  0  0  0  0  0  0  0  0  0
    0.6026    2.3618  -22.9189 C   0  0  0  0  0  0  0  0  0  0  0  0
    0.6777    2.6665  -24.2509 C   0  0  0  0  0  0  0  0  0  0  0  0
   -0.3998    3.2572  -24.8835 C   0  0  0  0  0  0  0  0  0  0  0  0
   -1.5074    3.5182  -24.1571 N   0  0  0  0  0  0  0  0  0  0  0  0
  2  1  1  0  0  0
  2  3  1  0  0  0
  3  4  1  0  0  0
  4 19  1  0  0  0
  4  5  1  0  0  0
 19 20  2  0  0  0
 20 21  1  0  0  0
 21 22  2  0  0  0
 22 23  1  0  0  0
 23 24  2  0  0  0
 24 25  1  0  0  0
 25 26  2  0  0  0
 26 27  1  0  0  0
 27 28  2  0  0  0
 28 19  1  0  0  0
 28 23  1  0  0  0
  5  6  2  0  0  0
  7  5  1  0  0  0
  7  8  1  0  0  0
  7  2  1  0  0  0
  8  9  1  0  0  0
  9 29  1  0  0  0
  9 10  1  0  0  0
 29 30  1  0  0  0
 30 31  2  0  0  0
 31 32  1  0  0  0
 32 33  2  0  0  0
 33 34  1  0  0  0
 34 35  2  0  0  0
 35 30  1  0  0  0
 10 11  2  0  0  0
 10 12  1  0  0  0
 12 13  2  0  0  0
 13 14  1  0  0  0
 14 15  2  0  0  0
 15 16  1  0  0  0
 15 17  1  0  0  0
 17 18  2  0  0  0
 18 12  1  0  0  0
 18  7  1  0  0  0
M  END
> <minimizedAffinity>
-6.48330

> <CNNscore>
0.1580321938

> <CNNaffinity>
5.6528759003

> <CNN_VS>
0.8933363557

> <CNNaffinity_variance>
0.0339986458

$$$$



 35 40  0  0  0  0  0  0  0  0999 V2000
   -6.9620   -4.0290  -22.5232 C   0  0  0  0  0  0  0  0  0  0  0  0
   -8.2845   -3.8760  -23.1868 C   0  0  0  0  0  0  0  0  0  0  0  0
   -9.2702   -3.0108  -22.4815 C   0  0  0  0  0  0  0  0  0  0  0  0
  -10.2054   -2.6298  -23.5486 N   0  0  0  0  0  0  0  0  0  0  0  0
   -9.6798   -3.0580  -24.8077 C   0  0  0  0  0  0  0  0  0  0  0  0
  -10.3509   -3.2209  -25.8508 O   0  0  0  0  0  0  0  0  0  0  0  0
   -8.2219   -3.2462  -24.5666 C   0  0  0  0  0  0  0  0  0  0  0  0
   -7.6177   -1.8722  -24.5377 C   0  0  0  0  0  0  0  0  0  0  0  0
   -6.1737   -1.8651  -24.5929 N   0  0  0  0  0  0  0  0  0  0  0  0
   -5.5522   -2.7613  -25.5041 C   0  0  0  0  0  0  0  0  0  0  0  0
   -4.3759   -2.5189  -25.8975 O   0  0  0  0  0  0  0  0  0  0  0  0
   -6.2982   -3.9379  -25.9572 C   0  0  0  0  0  0  0  0  0  0  0  0
   -5.6435   -4.7755  -26.8438 C   0  0  0  0  0  0  0  0  0  0  0  0
   -6.3241   -5.8983  -27.2911 C   0  0  0  0  0  0  0  0  0  0  0  0
   -7.6068   -6.1623  -26.8618 C   0  0  0  0  0  0  0  0  0  0  0  0
   -8.2430   -7.2745  -27.3229 F   0  0  0  0  0  0  0  0  0  0  0  0
   -8.2238   -5.2858  -25.9663 C   0  0  0  0  0  0  0  0  0  0  0  0
   -7.5812   -4.1755  -25.5096 C   0  0  0  0  0  0  0  0  0  0  0  0
  -11.4279   -1.9412  -23.2887 C   0  0  0  0  0  0  0  0  0  0  0  0
  -12.4983   -2.6897  -22.8442 C   0  0  0  0  0  0  0  0  0  0  0  0
  -13.6730   -2.1290  -22.5782 N   0  0  0  0  0  0  0  0  0  0  0  0
  -13.8064   -0.7908  -22.7527 C   0  0  0  0  0  0  0  0  0  0  0  0
  -12.7686   -0.0100  -23.1926 C   0  0  0  0  0  0  0  0  0  0  0  0
  -12.9623    1.3433  -23.3513 C   0  0  0  0  0  0  0  0  0  0  0  0
  -11.9098    2.1170  -23.7944 C   0  0  0  0  0  0  0  0  0  0  0  0
  -10.6739    1.5333  -24.0752 C   0  0  0  0  0  0  0  0  0  0  0  0
  -10.4804    0.1682  -23.9146 C   0  0  0  0  0  0  0  0  0  0  0  0
  -11.5599   -0.5705  -23.4688 C   0  0  0  0  0  0  0  0  0  0  0  0
   -5.3838   -0.9767  -23.7501 C   0  0  0  0  0  0  0  0  0  0  0  0
   -6.0579    0.3002  -23.4955 C   0  0  0  0  0  0  0  0  0  0  0  0
   -6.6410    0.4820  -22.2796 N   0  0  0  0  0  0  0  0  0  0  0  0
   -7.2774    1.6121  -21.9581 C   0  0  0  0  0  0  0  0  0  0  0  0
   -7.3478    2.6226  -22.8781 C   0  0  0  0  0  0  0  0  0  0  0  0
   -6.7641    2.4639  -24.1208 C   0  0  0  0  0  0  0  0  0  0  0  0
   -6.1341    1.3008  -24.3910 N   0  0  0  0  0  0  0  0  0  0  0  0
  2  1  1  0  0  0
  2  3  1  0  0  0
  3  4  1  0  0  0
  4 19  1  0  0  0
  4  5  1  0  0  0
 19 20  2  0  0  0
 20 21  1  0  0  0
 21 22  2  0  0  0
 22 23  1  0  0  0
 23 24  2  0  0  0
 24 25  1  0  0  0
 25 26  2  0  0  0
 26 27  1  0  0  0
 27 28  2  0  0  0
 28 19  1  0  0  0
 28 23  1  0  0  0
  5  6  2  0  0  0
  7  5  1  0  0  0
  7  8  1  0  0  0
  7  2  1  0  0  0
  8  9  1  0  0  0
  9 29  1  0  0  0
  9 10  1  0  0  0
 29 30  1  0  0  0
 30 31  2  0  0  0
 31 32  1  0  0  0
 32 33  2  0  0  0
 33 34  1  0  0  0
 34 35  2  0  0  0
 35 30  1  0  0  0
 10 11  2  0  0  0
 10 12  1  0  0  0
 12 13  2  0  0  0
 13 14  1  0  0  0
 14 15  2  0  0  0
 15 16  1  0  0  0
 15 17  1  0  0  0
 17 18  2  0  0  0
 18 12  1  0  0  0
 18  7  1  0  0  0
M  END
> <minimizedAffinity>
-7.48768

> <CNNscore>
0.1535661072

> <CNNaffinity>
6.0000901222

> <CNN_VS>
0.9214105010

> <CNNaffinity_variance>
0.2467729300

$$$$



 35 40  0  0  0  0  0  0  0  0999 V2000
   -7.8720   -0.2143  -25.6575 C   0  0  0  0  0  0  0  0  0  0  0  0
   -8.6118   -1.4308  -25.2265 C   0  0  0  0  0  0  0  0  0  0  0  0
   -7.8837   -2.7215  -25.3738 C   0  0  0  0  0  0  0  0  0  0  0  0
   -8.5845   -3.6102  -24.4370 N   0  0  0  0  0  0  0  0  0  0  0  0
   -9.4978   -2.8384  -23.6527 C   0  0  0  0  0  0  0  0  0  0  0  0
  -10.4831   -3.2981  -23.0339 O   0  0  0  0  0  0  0  0  0  0  0  0
   -9.0009   -1.4381  -23.7592 C   0  0  0  0  0  0  0  0  0  0  0  0
   -7.8072   -1.3436  -22.8538 C   0  0  0  0  0  0  0  0  0  0  0  0
   -7.3602    0.0092  -22.6119 N   0  0  0  0  0  0  0  0  0  0  0  0
   -8.3582    0.9922  -22.3730 C   0  0  0  0  0  0  0  0  0  0  0  0
   -8.0425    2.0512  -21.7597 O   0  0  0  0  0  0  0  0  0  0  0  0
   -9.7221    0.7437  -22.8467 C   0  0  0  0  0  0  0  0  0  0  0  0
  -10.6523    1.7351  -22.5862 C   0  0  0  0  0  0  0  0  0  0  0  0
  -11.9527    1.5287  -23.0226 C   0  0  0  0  0  0  0  0  0  0  0  0
  -12.2967    0.3738  -23.6913 C   0  0  0  0  0  0  0  0  0  0  0  0
  -13.5835    0.2068  -24.1044 F   0  0  0  0  0  0  0  0  0  0  0  0
  -11.3208   -0.5966  -23.9295 C   0  0  0  0  0  0  0  0  0  0  0  0
  -10.0360   -0.4225  -23.5134 C   0  0  0  0  0  0  0  0  0  0  0  0
   -8.3368   -5.0143  -24.3794 C   0  0  0  0  0  0  0  0  0  0  0  0
   -9.0387   -5.8210  -25.2513 C   0  0  0  0  0  0  0  0  0  0  0  0
   -8.8694   -7.1387  -25.2648 N   0  0  0  0  0  0  0  0  0  0  0  0
   -7.9838   -7.6870  -24.3964 C   0  0  0  0  0  0  0  0  0  0  0  0
   -7.2660   -6.9220  -23.5133 C   0  0  0  0  0  0  0  0  0  0  0  0
   -6.3811   -7.5337  -22.6549 C   0  0  0  0  0  0  0  0  0  0  0  0
   -5.6654   -6.7522  -21.7718 C   0  0  0  0  0  0  0  0  0  0  0  0
   -5.8393   -5.3678  -21.7532 C   0  0  0  0  0  0  0  0  0  0  0  0
   -6.7323   -4.7527  -22.6199 C   0  0  0  0  0  0  0  0  0  0  0  0
   -7.4290   -5.5714  -23.4883 C   0  0  0  0  0  0  0  0  0  0  0  0
   -5.9445    0.3548  -22.6123 C   0  0  0  0  0  0  0  0  0  0  0  0
   -5.3860    0.4312  -21.2588 C   0  0  0  0  0  0  0  0  0  0  0  0
   -4.3456    1.2819  -21.0455 N   0  0  0  0  0  0  0  0  0  0  0  0
   -3.7729    1.4179  -19.8459 C   0  0  0  0  0  0  0  0  0  0  0  0
   -4.2443    0.6798  -18.7944 C   0  0  0  0  0  0  0  0  0  0  0  0
   -5.3000   -0.1918  -18.9837 C   0  0  0  0  0  0  0  0  0  0  0  0
   -5.8400   -0.2886  -20.2173 N   0  0  0  0  0  0  0  0  0  0  0  0
  2  1  1  0  0  0
  2  3  1  0  0  0
  3  4  1  0  0  0
  4 19  1  0  0  0
  4  5  1  0  0  0
 19 20  2  0  0  0
 20 21  1  0  0  0
 21 22  2  0  0  0
 22 23  1  0  0  0
 23 24  2  0  0  0
 24 25  1  0  0  0
 25 26  2  0  0  0
 26 27  1  0  0  0
 27 28  2  0  0  0
 28 19  1  0  0  0
 28 23  1  0  0  0
  5  6  2  0  0  0
  7  5  1  0  0  0
  7  8  1  0  0  0
  7  2  1  0  0  0
  8  9  1  0  0  0
  9 29  1  0  0  0
  9 10  1  0  0  0
 29 30  1  0  0  0
 30 31  2  0  0  0
 31 32  1  0  0  0
 32 33  2  0  0  0
 33 34  1  0  0  0
 34 35  2  0  0  0
 35 30  1  0  0  0
 10 11  2  0  0  0
 10 12  1  0  0  0
 12 13  2  0  0  0
 13 14  1  0  0  0
 14 15  2  0  0  0
 15 16  1  0  0  0
 15 17  1  0  0  0
 17 18  2  0  0  0
 18 12  1  0  0  0
 18  7  1  0  0  0
M  END
> <minimizedAffinity>
-8.02201

> <CNNscore>
0.1375047565

> <CNNaffinity>
6.1212930679

> <CNN_VS>
0.8417069316

> <CNNaffinity_variance>
0.1370222867

$$$$



 35 40  0  0  0  0  0  0  0  0999 V2000
   -4.8473   -0.4123  -23.5857 C   0  0  0  0  0  0  0  0  0  0  0  0
   -5.5925   -1.1051  -24.6707 C   0  0  0  0  0  0  0  0  0  0  0  0
   -4.9478   -2.3278  -25.2249 C   0  0  0  0  0  0  0  0  0  0  0  0
   -6.0705   -3.0494  -25.8393 N   0  0  0  0  0  0  0  0  0  0  0  0
   -7.2954   -2.4060  -25.4777 C   0  0  0  0  0  0  0  0  0  0  0  0
   -8.3794   -2.5237  -26.0909 O   0  0  0  0  0  0  0  0  0  0  0  0
   -6.9634   -1.6128  -24.2613 C   0  0  0  0  0  0  0  0  0  0  0  0
   -6.8914   -2.5916  -23.1254 C   0  0  0  0  0  0  0  0  0  0  0  0
   -6.8553   -1.9734  -21.8198 N   0  0  0  0  0  0  0  0  0  0  0  0
   -7.7285   -0.8751  -21.5946 C   0  0  0  0  0  0  0  0  0  0  0  0
   -8.0460   -0.5763  -20.4083 O   0  0  0  0  0  0  0  0  0  0  0  0
   -8.2320   -0.1251  -22.7480 C   0  0  0  0  0  0  0  0  0  0  0  0
   -9.0786    0.9341  -22.4691 C   0  0  0  0  0  0  0  0  0  0  0  0
   -9.5719    1.6635  -23.5408 C   0  0  0  0  0  0  0  0  0  0  0  0
   -9.2255    1.3375  -24.8342 C   0  0  0  0  0  0  0  0  0  0  0  0
   -9.7299    2.0769  -25.8605 F   0  0  0  0  0  0  0  0  0  0  0  0
   -8.3677    0.2592  -25.0629 C   0  0  0  0  0  0  0  0  0  0  0  0
   -7.8674   -0.4755  -24.0314 C   0  0  0  0  0  0  0  0  0  0  0  0
   -5.8859   -4.2042  -26.6568 C   0  0  0  0  0  0  0  0  0  0  0  0
   -6.0391   -4.0509  -28.0193 C   0  0  0  0  0  0  0  0  0  0  0  0
   -5.8853   -5.0737  -28.8532 N   0  0  0  0  0  0  0  0  0  0  0  0
   -5.5710   -6.2880  -28.3380 C   0  0  0  0  0  0  0  0  0  0  0  0
   -5.4097   -6.4841  -26.9905 C   0  0  0  0  0  0  0  0  0  0  0  0
   -5.0907   -7.7393  -26.5246 C   0  0  0  0  0  0  0  0  0  0  0  0
   -4.9313   -7.9224  -25.1667 C   0  0  0  0  0  0  0  0  0  0  0  0
   -5.0917   -6.8518  -24.2863 C   0  0  0  0  0  0  0  0  0  0  0  0
   -5.4135   -5.5866  -24.7582 C   0  0  0  0  0  0  0  0  0  0  0  0
   -5.5641   -5.4459  -26.1246 C   0  0  0  0  0  0  0  0  0  0  0  0
   -5.9610   -2.4538  -20.7742 C   0  0  0  0  0  0  0  0  0  0  0  0
   -5.4881   -1.3745  -19.9018 C   0  0  0  0  0  0  0  0  0  0  0  0
   -4.6908   -0.4166  -20.4477 N   0  0  0  0  0  0  0  0  0  0  0  0
   -4.2127    0.6042  -19.7302 C   0  0  0  0  0  0  0  0  0  0  0  0
   -4.5324    0.6937  -18.4026 C   0  0  0  0  0  0  0  0  0  0  0  0
   -5.3405   -0.2661  -17.8231 C   0  0  0  0  0  0  0  0  0  0  0  0
   -5.7950   -1.2753  -18.5960 N   0  0  0  0  0  0  0  0  0  0  0  0
  2  1  1  0  0  0
  2  3  1  0  0  0
  3  4  1  0  0  0
  4 19  1  0  0  0
  4  5  1  0  0  0
 19 20  2  0  0  0
 20 21  1  0  0  0
 21 22  2  0  0  0
 22 23  1  0  0  0
 23 24  2  0  0  0
 24 25  1  0  0  0
 25 26  2  0  0  0
 26 27  1  0  0  0
 27 28  2  0  0  0
 28 19  1  0  0  0
 28 23  1  0  0  0
  5  6  2  0  0  0
  7  5  1  0  0  0
  7  8  1  0  0  0
  7  2  1  0  0  0
  8  9  1  0  0  0
  9 29  1  0  0  0
  9 10  1  0  0  0
 29 30  1  0  0  0
 30 31  2  0  0  0
 31 32  1  0  0  0
 32 33  2  0  0  0
 33 34  1  0  0  0
 34 35  2  0  0  0
 35 30  1  0  0  0
 10 11  2  0  0  0
 10 12  1  0  0  0
 12 13  2  0  0  0
 13 14  1  0  0  0
 14 15  2  0  0  0
 15 16  1  0  0  0
 15 17  1  0  0  0
 17 18  2  0  0  0
 18 12  1  0  0  0
 18  7  1  0  0  0
M  END
> <minimizedAffinity>
-7.90769

> <CNNscore>
0.1367365718

> <CNNaffinity>
5.7959213257

> <CNN_VS>
0.7925143838

> <CNNaffinity_variance>
0.1019161493

$$$$



 35 40  0  0  0  0  0  0  0  0999 V2000
   -6.3412    1.6319  -23.2060 C   0  0  0  0  0  0  0  0  0  0  0  0
   -6.6497    0.1806  -23.3123 C   0  0  0  0  0  0  0  0  0  0  0  0
   -6.7326   -0.3674  -24.6945 C   0  0  0  0  0  0  0  0  0  0  0  0
   -6.5191   -1.8076  -24.4972 N   0  0  0  0  0  0  0  0  0  0  0  0
   -6.1258   -2.0420  -23.1424 C   0  0  0  0  0  0  0  0  0  0  0  0
   -6.2115   -3.1387  -22.5467 O   0  0  0  0  0  0  0  0  0  0  0  0
   -5.6215   -0.7260  -22.6600 C   0  0  0  0  0  0  0  0  0  0  0  0
   -4.2536   -0.5543  -23.2541 C   0  0  0  0  0  0  0  0  0  0  0  0
   -3.4955    0.5321  -22.6769 N   0  0  0  0  0  0  0  0  0  0  0  0
   -3.5461    0.6837  -21.2648 C   0  0  0  0  0  0  0  0  0  0  0  0
   -2.6164    1.3098  -20.6808 O   0  0  0  0  0  0  0  0  0  0  0  0
   -4.6767    0.1075  -20.5327 C   0  0  0  0  0  0  0  0  0  0  0  0
   -4.6737    0.2858  -19.1599 C   0  0  0  0  0  0  0  0  0  0  0  0
   -5.7314   -0.2486  -18.4389 C   0  0  0  0  0  0  0  0  0  0  0  0
   -6.7450   -0.9312  -19.0760 C   0  0  0  0  0  0  0  0  0  0  0  0
   -7.7668   -1.4416  -18.3345 F   0  0  0  0  0  0  0  0  0  0  0  0
   -6.7017   -1.0840  -20.4636 C   0  0  0  0  0  0  0  0  0  0  0  0
   -5.6766   -0.5707  -21.1984 C   0  0  0  0  0  0  0  0  0  0  0  0
   -6.6969   -2.7608  -25.5440 C   0  0  0  0  0  0  0  0  0  0  0  0
   -5.6404   -2.9618  -26.4084 C   0  0  0  0  0  0  0  0  0  0  0  0
   -5.7207   -3.8304  -27.4105 N   0  0  0  0  0  0  0  0  0  0  0  0
   -6.8729   -4.5266  -27.5736 C   0  0  0  0  0  0  0  0  0  0  0  0
   -7.9466   -4.3575  -26.7377 C   0  0  0  0  0  0  0  0  0  0  0  0
   -9.0908   -5.0919  -26.9518 C   0  0  0  0  0  0  0  0  0  0  0  0
  -10.1634   -4.9119  -26.1033 C   0  0  0  0  0  0  0  0  0  0  0  0
  -10.0846   -4.0009  -25.0493 C   0  0  0  0  0  0  0  0  0  0  0  0
   -8.9297   -3.2612  -24.8350 C   0  0  0  0  0  0  0  0  0  0  0  0
   -7.8788   -3.4715  -25.7073 C   0  0  0  0  0  0  0  0  0  0  0  0
   -2.7101    1.4374  -23.5059 C   0  0  0  0  0  0  0  0  0  0  0  0
   -1.4301    0.8524  -23.9170 C   0  0  0  0  0  0  0  0  0  0  0  0
   -0.3500    1.0540  -23.1144 N   0  0  0  0  0  0  0  0  0  0  0  0
    0.8561    0.5596  -23.4080 C   0  0  0  0  0  0  0  0  0  0  0  0
    1.0156   -0.1742  -24.5521 C   0  0  0  0  0  0  0  0  0  0  0  0
   -0.0652   -0.3938  -25.3851 C   0  0  0  0  0  0  0  0  0  0  0  0
   -1.2603    0.1297  -25.0385 N   0  0  0  0  0  0  0  0  0  0  0  0
  2  1  1  0  0  0
  2  3  1  0  0  0
  3  4  1  0  0  0
  4 19  1  0  0  0
  4  5  1  0  0  0
 19 20  2  0  0  0
 20 21  1  0  0  0
 21 22  2  0  0  0
 22 23  1  0  0  0
 23 24  2  0  0  0
 24 25  1  0  0  0
 25 26  2  0  0  0
 26 27  1  0  0  0
 27 28  2  0  0  0
 28 19  1  0  0  0
 28 23  1  0  0  0
  5  6  2  0  0  0
  7  5  1  0  0  0
  7  8  1  0  0  0
  7  2  1  0  0  0
  8  9  1  0  0  0
  9 29  1  0  0  0
  9 10  1  0  0  0
 29 30  1  0  0  0
 30 31  2  0  0  0
 31 32  1  0  0  0
 32 33  2  0  0  0
 33 34  1  0  0  0
 34 35  2  0  0  0
 35 30  1  0  0  0
 10 11  2  0  0  0
 10 12  1  0  0  0
 12 13  2  0  0  0
 13 14  1  0  0  0
 14 15  2  0  0  0
 15 16  1  0  0  0
 15 17  1  0  0  0
 17 18  2  0  0  0
 18 12  1  0  0  0
 18  7  1  0  0  0
M  END
> <minimizedAffinity>
-6.89412

> <CNNscore>
0.1117173359

> <CNNaffinity>
5.6855745316

> <CNN_VS>
0.6351772547

> <CNNaffinity_variance>
0.0217795204

$$$$



 35 40  0  0  0  0  0  0  0  0999 V2000
   -8.1990    0.4465  -25.3933 C   0  0  0  0  0  0  0  0  0  0  0  0
   -7.0337   -0.3784  -25.8109 C   0  0  0  0  0  0  0  0  0  0  0  0
   -5.7164    0.3161  -25.8247 C   0  0  0  0  0  0  0  0  0  0  0  0
   -4.7533   -0.7908  -25.7480 N   0  0  0  0  0  0  0  0  0  0  0  0
   -5.4577   -2.0080  -25.4883 C   0  0  0  0  0  0  0  0  0  0  0  0
   -5.0176   -3.1572  -25.7132 O   0  0  0  0  0  0  0  0  0  0  0  0
   -6.7647   -1.5766  -24.9185 C   0  0  0  0  0  0  0  0  0  0  0  0
   -6.4943   -1.1774  -23.4967 C   0  0  0  0  0  0  0  0  0  0  0  0
   -7.6872   -0.9957  -22.7016 N   0  0  0  0  0  0  0  0  0  0  0  0
   -8.7251   -1.9542  -22.8556 C   0  0  0  0  0  0  0  0  0  0  0  0
   -9.5724   -2.0959  -21.9286 O   0  0  0  0  0  0  0  0  0  0  0  0
   -8.7773   -2.7470  -24.0865 C   0  0  0  0  0  0  0  0  0  0  0  0
   -9.8092   -3.6648  -24.1818 C   0  0  0  0  0  0  0  0  0  0  0  0
   -9.8852   -4.4307  -25.3359 C   0  0  0  0  0  0  0  0  0  0  0  0
   -8.9611   -4.2758  -26.3465 C   0  0  0  0  0  0  0  0  0  0  0  0
   -9.0683   -5.0458  -27.4645 F   0  0  0  0  0  0  0  0  0  0  0  0
   -7.9384   -3.3357  -26.2018 C   0  0  0  0  0  0  0  0  0  0  0  0
   -7.8377   -2.5694  -25.0807 C   0  0  0  0  0  0  0  0  0  0  0  0
   -3.3493   -0.6004  -25.9171 C   0  0  0  0  0  0  0  0  0  0  0  0
   -2.7849   -1.0389  -27.0972 C   0  0  0  0  0  0  0  0  0  0  0  0
   -1.4854   -0.9012  -27.3368 N   0  0  0  0  0  0  0  0  0  0  0  0
   -0.7107   -0.3148  -26.3908 C   0  0  0  0  0  0  0  0  0  0  0  0
   -1.2310    0.1351  -25.2045 C   0  0  0  0  0  0  0  0  0  0  0  0
   -0.3964    0.7224  -24.2811 C   0  0  0  0  0  0  0  0  0  0  0  0
   -0.9329    1.1704  -23.0919 C   0  0  0  0  0  0  0  0  0  0  0  0
   -2.2970    1.0283  -22.8350 C   0  0  0  0  0  0  0  0  0  0  0  0
   -3.1372    0.4356  -23.7676 C   0  0  0  0  0  0  0  0  0  0  0  0
   -2.5600    0.0007  -24.9454 C   0  0  0  0  0  0  0  0  0  0  0  0
   -7.8238    0.1236  -21.7784 C   0  0  0  0  0  0  0  0  0  0  0  0
   -6.8161    0.0980  -20.7138 C   0  0  0  0  0  0  0  0  0  0  0  0
   -5.6579    0.7831  -20.9158 N   0  0  0  0  0  0  0  0  0  0  0  0
   -4.6832    0.8166  -20.0024 C   0  0  0  0  0  0  0  0  0  0  0  0
   -4.8502    0.1416  -18.8238 C   0  0  0  0  0  0  0  0  0  0  0  0
   -6.0171   -0.5622  -18.5932 C   0  0  0  0  0  0  0  0  0  0  0  0
   -6.9681   -0.5613  -19.5514 N   0  0  0  0  0  0  0  0  0  0  0  0
  2  1  1  0  0  0
  2  3  1  0  0  0
  3  4  1  0  0  0
  4 19  1  0  0  0
  4  5  1  0  0  0
 19 20  2  0  0  0
 20 21  1  0  0  0
 21 22  2  0  0  0
 22 23  1  0  0  0
 23 24  2  0  0  0
 24 25  1  0  0  0
 25 26  2  0  0  0
 26 27  1  0  0  0
 27 28  2  0  0  0
 28 19  1  0  0  0
 28 23  1  0  0  0
  5  6  2  0  0  0
  7  5  1  0  0  0
  7  8  1  0  0  0
  7  2  1  0  0  0
  8  9  1  0  0  0
  9 29  1  0  0  0
  9 10  1  0  0  0
 29 30  1  0  0  0
 30 31  2  0  0  0
 31 32  1  0  0  0
 32 33  2  0  0  0
 33 34  1  0  0  0
 34 35  2  0  0  0
 35 30  1  0  0  0
 10 11  2  0  0  0
 10 12  1  0  0  0
 12 13  2  0  0  0
 13 14  1  0  0  0
 14 15  2  0  0  0
 15 16  1  0  0  0
 15 17  1  0  0  0
 17 18  2  0  0  0
 18 12  1  0  0  0
 18  7  1  0  0  0
M  END
> <minimizedAffinity>
-6.57285

> <CNNscore>
0.1015220508

> <CNNaffinity>
5.5912466049

> <CNN_VS>
0.5676348209

> <CNNaffinity_variance>
0.0300579276

$$$$



 35 39  0  0  0  0  0  0  0  0999 V2000
   -7.1267   -3.3461  -22.3099 N   0  0  0  0  0  0  0  0  0  0  0  0
   -8.1021   -2.3049  -22.5733 C   0  0  0  0  0  0  0  0  0  0  0  0
   -7.5329   -0.9790  -22.9415 C   0  0  0  0  0  0  0  0  0  0  0  0
   -8.5664    0.0552  -22.5913 C   0  0  0  0  0  0  0  0  0  0  0  0
   -8.5985    0.8320  -21.6108 O   0  0  0  0  0  0  0  0  0  0  0  0
   -9.5270   -0.0274  -23.6252 N   0  0  0  0  0  0  0  0  0  0  0  0
   -8.9121   -0.6206  -24.7976 C   0  0  0  0  0  0  0  0  0  0  0  0
   -7.4671   -0.8634  -24.4048 C   0  0  0  0  0  0  0  0  0  0  0  0
   -6.6881    0.3237  -24.9124 C   0  0  0  0  0  0  0  0  0  0  0  0
   -7.0700   -2.1426  -25.1287 C   0  0  0  0  0  0  0  0  0  0  0  0
   -6.3455   -0.6578  -22.1572 C   0  0  0  0  0  0  0  0  0  0  0  0
   -5.8978    0.6596  -22.0349 C   0  0  0  0  0  0  0  0  0  0  0  0
   -4.7780    0.9878  -21.2998 C   0  0  0  0  0  0  0  0  0  0  0  0
   -4.2552    2.6564  -21.1758 Cl  0  0  0  0  0  0  0  0  0  0  0  0
   -4.0373    0.0259  -20.6431 C   0  0  0  0  0  0  0  0  0  0  0  0
   -4.4646   -1.2813  -20.7527 C   0  0  0  0  0  0  0  0  0  0  0  0
   -5.5792   -1.6016  -21.4852 C   0  0  0  0  0  0  0  0  0  0  0  0
   -5.9649   -3.0090  -21.5489 C   0  0  0  0  0  0  0  0  0  0  0  0
   -5.3019   -3.8848  -20.9589 O   0  0  0  0  0  0  0  0  0  0  0  0
  -10.8885    0.3833  -23.5914 C   0  0  0  0  0  0  0  0  0  0  0  0
  -11.2041    1.6911  -23.9215 C   0  0  0  0  0  0  0  0  0  0  0  0
  -12.4722    2.1540  -23.9125 N   0  0  0  0  0  0  0  0  0  0  0  0
  -13.5165    1.3526  -23.5754 C   0  0  0  0  0  0  0  0  0  0  0  0
  -13.2225    0.0456  -23.2431 C   0  0  0  0  0  0  0  0  0  0  0  0
  -14.2876   -0.7678  -22.9005 C   0  0  0  0  0  0  0  0  0  0  0  0
  -14.0259   -2.0806  -22.5631 C   0  0  0  0  0  0  0  0  0  0  0  0
  -12.7340   -2.5720  -22.5668 C   0  0  0  0  0  0  0  0  0  0  0  0
  -11.6637   -1.7561  -22.9107 C   0  0  0  0  0  0  0  0  0  0  0  0
  -11.9264   -0.4529  -23.2452 C   0  0  0  0  0  0  0  0  0  0  0  0
   -7.2805   -4.6976  -22.7805 C   0  0  0  0  0  0  0  0  0  0  0  0
   -4.1202   -6.7829  -23.1729 C   0  0  0  0  0  0  0  0  0  0  0  0
   -5.3542   -6.2452  -22.5889 N   0  0  0  0  0  0  0  0  0  0  0  0
   -6.0218   -5.2532  -23.3652 C   0  0  0  0  0  0  0  0  0  0  0  0
   -5.5695   -4.8729  -24.4789 O   0  0  0  0  0  0  0  0  0  0  0  0
   -5.6985   -6.5495  -21.7181 H   0  0  0  0  0  0  0  0  0  0  0  0
 31 32  1  0  0  0
 32 33  1  0  0  0
 32 35  1  0  0  0
 33 34  2  0  0  0
 33 30  1  0  0  0
 30  1  1  0  0  0
  1  2  1  0  0  0
  3  2  1  0  0  0
  3  4  1  0  0  0
  3 11  1  0  0  0
  4  5  2  0  0  0
  4  6  1  0  0  0
  6 20  1  0  0  0
  6  7  1  0  0  0
 20 21  2  0  0  0
 21 22  1  0  0  0
 22 23  2  0  0  0
 23 24  1  0  0  0
 24 25  2  0  0  0
 25 26  1  0  0  0
 26 27  2  0  0  0
 27 28  1  0  0  0
 28 29  2  0  0  0
 29 20  1  0  0  0
 29 24  1  0  0  0
  7  8  1  0  0  0
  8  9  1  0  0  0
  8 10  1  0  0  0
  8  3  1  0  0  0
 11 12  2  0  0  0
 12 13  1  0  0  0
 13 14  1  0  0  0
 13 15  2  0  0  0
 15 16  1  0  0  0
 16 17  2  0  0  0
 17 18  1  0  0  0
 17 11  1  0  0  0
 18 19  2  0  0  0
 18  1  1  0  0  0
M  END
> <minimizedAffinity>
-7.27695

> <CNNscore>
0.5575881600

> <CNNaffinity>
6.4118547440

> <CNN_VS>
3.5751743317

> <CNNaffinity_variance>
0.0621077307

$$$$



 35 39  0  0  0  0  0  0  0  0999 V2000
   -7.1033   -4.0462  -23.5398 N   0  0  0  0  0  0  0  0  0  0  0  0
   -7.9887   -2.9016  -23.4344 C   0  0  0  0  0  0  0  0  0  0  0  0
   -7.4007   -1.7015  -22.7775 C   0  0  0  0  0  0  0  0  0  0  0  0
   -8.5454   -0.8965  -22.2280 C   0  0  0  0  0  0  0  0  0  0  0  0
   -8.9449   -0.8059  -21.0455 O   0  0  0  0  0  0  0  0  0  0  0  0
   -9.0993   -0.2402  -23.3509 N   0  0  0  0  0  0  0  0  0  0  0  0
   -8.0971   -0.1625  -24.3969 C   0  0  0  0  0  0  0  0  0  0  0  0
   -6.8558   -0.7999  -23.8017 C   0  0  0  0  0  0  0  0  0  0  0  0
   -6.0164    0.3330  -23.2672 C   0  0  0  0  0  0  0  0  0  0  0  0
   -6.1719   -1.4990  -24.9687 C   0  0  0  0  0  0  0  0  0  0  0  0
   -6.5627   -2.0584  -21.6380 C   0  0  0  0  0  0  0  0  0  0  0  0
   -6.2527   -1.1207  -20.6503 C   0  0  0  0  0  0  0  0  0  0  0  0
   -5.4622   -1.4341  -19.5644 C   0  0  0  0  0  0  0  0  0  0  0  0
   -5.1008   -0.2225  -18.3503 Cl  0  0  0  0  0  0  0  0  0  0  0  0
   -4.9334   -2.6981  -19.3965 C   0  0  0  0  0  0  0  0  0  0  0  0
   -5.2292   -3.6376  -20.3625 C   0  0  0  0  0  0  0  0  0  0  0  0
   -6.0160   -3.3200  -21.4402 C   0  0  0  0  0  0  0  0  0  0  0  0
   -6.2825   -4.3733  -22.4165 C   0  0  0  0  0  0  0  0  0  0  0  0
   -5.8092   -5.5178  -22.2730 O   0  0  0  0  0  0  0  0  0  0  0  0
  -10.4136    0.2831  -23.5001 C   0  0  0  0  0  0  0  0  0  0  0  0
  -10.5710    1.6029  -23.8901 C   0  0  0  0  0  0  0  0  0  0  0  0
  -11.7855    2.1697  -24.0526 N   0  0  0  0  0  0  0  0  0  0  0  0
  -12.9292    1.4675  -23.8399 C   0  0  0  0  0  0  0  0  0  0  0  0
  -12.7933    0.1503  -23.4506 C   0  0  0  0  0  0  0  0  0  0  0  0
  -13.9593   -0.5620  -23.2349 C   0  0  0  0  0  0  0  0  0  0  0  0
  -13.8565   -1.8822  -22.8445 C   0  0  0  0  0  0  0  0  0  0  0  0
  -12.6217   -2.4791  -22.6732 C   0  0  0  0  0  0  0  0  0  0  0  0
  -11.4501   -1.7649  -22.8896 C   0  0  0  0  0  0  0  0  0  0  0  0
  -11.5552   -0.4541  -23.2770 C   0  0  0  0  0  0  0  0  0  0  0  0
   -7.0187   -4.8618  -24.7227 C   0  0  0  0  0  0  0  0  0  0  0  0
  -10.3787   -5.7756  -26.2604 C   0  0  0  0  0  0  0  0  0  0  0  0
   -9.1745   -5.8615  -25.4266 N   0  0  0  0  0  0  0  0  0  0  0  0
   -8.2499   -4.7855  -25.5672 C   0  0  0  0  0  0  0  0  0  0  0  0
   -8.4664   -3.8296  -26.3602 O   0  0  0  0  0  0  0  0  0  0  0  0
   -9.0154   -6.6129  -24.8105 H   0  0  0  0  0  0  0  0  0  0  0  0
 31 32  1  0  0  0
 32 33  1  0  0  0
 32 35  1  0  0  0
 33 34  2  0  0  0
 33 30  1  0  0  0
 30  1  1  0  0  0
  1  2  1  0  0  0
  3  2  1  0  0  0
  3  4  1  0  0  0
  3 11  1  0  0  0
  4  5  2  0  0  0
  4  6  1  0  0  0
  6 20  1  0  0  0
  6  7  1  0  0  0
 20 21  2  0  0  0
 21 22  1  0  0  0
 22 23  2  0  0  0
 23 24  1  0  0  0
 24 25  2  0  0  0
 25 26  1  0  0  0
 26 27  2  0  0  0
 27 28  1  0  0  0
 28 29  2  0  0  0
 29 20  1  0  0  0
 29 24  1  0  0  0
  7  8  1  0  0  0
  8  9  1  0  0  0
  8 10  1  0  0  0
  8  3  1  0  0  0
 11 12  2  0  0  0
 12 13  1  0  0  0
 13 14  1  0  0  0
 13 15  2  0  0  0
 15 16  1  0  0  0
 16 17  2  0  0  0
 17 18  1  0  0  0
 17 11  1  0  0  0
 18 19  2  0  0  0
 18  1  1  0  0  0
M  END
> <minimizedAffinity>
-7.20516

> <CNNscore>
0.5555331111

> <CNNaffinity>
6.4878187180

> <CNN_VS>
3.6041982174

> <CNNaffinity_variance>
0.0480933078

$$$$



 35 39  0  0  0  0  0  0  0  0999 V2000
   -8.8481    4.2170  -24.1795 N   0  0  0  0  0  0  0  0  0  0  0  0
   -8.3192    3.1220  -23.3880 C   0  0  0  0  0  0  0  0  0  0  0  0
   -8.9928    1.8092  -23.5888 C   0  0  0  0  0  0  0  0  0  0  0  0
   -8.7626    1.0021  -22.3414 C   0  0  0  0  0  0  0  0  0  0  0  0
   -9.5539    0.7686  -21.4005 O   0  0  0  0  0  0  0  0  0  0  0  0
   -7.4293    0.5442  -22.4467 N   0  0  0  0  0  0  0  0  0  0  0  0
   -7.0320    0.5573  -23.8418 C   0  0  0  0  0  0  0  0  0  0  0  0
   -8.2594    1.0314  -24.5968 C   0  0  0  0  0  0  0  0  0  0  0  0
   -8.9655   -0.2121  -25.0749 C   0  0  0  0  0  0  0  0  0  0  0  0
   -7.7164    1.8478  -25.7617 C   0  0  0  0  0  0  0  0  0  0  0  0
  -10.4380    1.9526  -23.7267 C   0  0  0  0  0  0  0  0  0  0  0  0
  -11.2927    0.8684  -23.5147 C   0  0  0  0  0  0  0  0  0  0  0  0
  -12.6618    0.9791  -23.6398 C   0  0  0  0  0  0  0  0  0  0  0  0
  -13.6936   -0.4107  -23.3636 Cl  0  0  0  0  0  0  0  0  0  0  0  0
  -13.2617    2.1740  -23.9829 C   0  0  0  0  0  0  0  0  0  0  0  0
  -12.4329    3.2560  -24.1962 C   0  0  0  0  0  0  0  0  0  0  0  0
  -11.0720    3.1399  -24.0703 C   0  0  0  0  0  0  0  0  0  0  0  0
  -10.2662    4.3341  -24.3114 C   0  0  0  0  0  0  0  0  0  0  0  0
  -10.7995    5.4177  -24.6218 O   0  0  0  0  0  0  0  0  0  0  0  0
   -6.5618    0.1240  -21.4005 C   0  0  0  0  0  0  0  0  0  0  0  0
   -6.8439   -1.0522  -20.7254 C   0  0  0  0  0  0  0  0  0  0  0  0
   -6.0679   -1.5151  -19.7224 N   0  0  0  0  0  0  0  0  0  0  0  0
   -4.9576   -0.8441  -19.3183 C   0  0  0  0  0  0  0  0  0  0  0  0
   -4.6594    0.3306  -19.9788 C   0  0  0  0  0  0  0  0  0  0  0  0
   -3.5285    1.0114  -19.5653 C   0  0  0  0  0  0  0  0  0  0  0  0
   -3.2036    2.1900  -20.2066 C   0  0  0  0  0  0  0  0  0  0  0  0
   -3.9862    2.6791  -21.2355 C   0  0  0  0  0  0  0  0  0  0  0  0
   -5.1221    1.9963  -21.6516 C   0  0  0  0  0  0  0  0  0  0  0  0
   -5.4424    0.8263  -21.0130 C   0  0  0  0  0  0  0  0  0  0  0  0
   -8.0075    5.1853  -24.8332 C   0  0  0  0  0  0  0  0  0  0  0  0
   -4.6411    6.2699  -23.4258 C   0  0  0  0  0  0  0  0  0  0  0  0
   -5.6308    5.6815  -24.3352 N   0  0  0  0  0  0  0  0  0  0  0  0
   -6.9895    5.7814  -23.9149 C   0  0  0  0  0  0  0  0  0  0  0  0
   -7.3046    6.3415  -22.8302 O   0  0  0  0  0  0  0  0  0  0  0  0
   -5.3737    5.2463  -25.1800 H   0  0  0  0  0  0  0  0  0  0  0  0
 31 32  1  0  0  0
 32 33  1  0  0  0
 32 35  1  0  0  0
 33 34  2  0  0  0
 33 30  1  0  0  0
 30  1  1  0  0  0
  1  2  1  0  0  0
  3  2  1  0  0  0
  3  4  1  0  0  0
  3 11  1  0  0  0
  4  5  2  0  0  0
  4  6  1  0  0  0
  6 20  1  0  0  0
  6  7  1  0  0  0
 20 21  2  0  0  0
 21 22  1  0  0  0
 22 23  2  0  0  0
 23 24  1  0  0  0
 24 25  2  0  0  0
 25 26  1  0  0  0
 26 27  2  0  0  0
 27 28  1  0  0  0
 28 29  2  0  0  0
 29 20  1  0  0  0
 29 24  1  0  0  0
  7  8  1  0  0  0
  8  9  1  0  0  0
  8 10  1  0  0  0
  8  3  1  0  0  0
 11 12  2  0  0  0
 12 13  1  0  0  0
 13 14  1  0  0  0
 13 15  2  0  0  0
 15 16  1  0  0  0
 16 17  2  0  0  0
 17 18  1  0  0  0
 17 11  1  0  0  0
 18 19  2  0  0  0
 18  1  1  0  0  0
M  END
> <minimizedAffinity>
-7.21368

> <CNNscore>
0.3644562364

> <CNNaffinity>
5.8972597122

> <CNN_VS>
2.1492931843

> <CNNaffinity_variance>
0.0947905108

$$$$



 35 39  0  0  0  0  0  0  0  0999 V2000
   -7.1995   -3.4300  -22.2542 N   0  0  0  0  0  0  0  0  0  0  0  0
   -8.2159   -2.4305  -22.5245 C   0  0  0  0  0  0  0  0  0  0  0  0
   -7.7009   -1.0953  -22.9361 C   0  0  0  0  0  0  0  0  0  0  0  0
   -8.7639   -0.0894  -22.5917 C   0  0  0  0  0  0  0  0  0  0  0  0
   -8.8057    0.7104  -21.6302 O   0  0  0  0  0  0  0  0  0  0  0  0
   -9.7397   -0.2317  -23.6047 N   0  0  0  0  0  0  0  0  0  0  0  0
   -9.1257   -0.8324  -24.7737 C   0  0  0  0  0  0  0  0  0  0  0  0
   -7.6660   -1.0144  -24.4027 C   0  0  0  0  0  0  0  0  0  0  0  0
   -6.9390    0.1860  -24.9543 C   0  0  0  0  0  0  0  0  0  0  0  0
   -7.2370   -2.2969  -25.1024 C   0  0  0  0  0  0  0  0  0  0  0  0
   -6.5115   -0.7130  -22.1828 C   0  0  0  0  0  0  0  0  0  0  0  0
   -6.1088    0.6220  -22.1015 C   0  0  0  0  0  0  0  0  0  0  0  0
   -4.9880    1.0077  -21.3963 C   0  0  0  0  0  0  0  0  0  0  0  0
   -4.5226    2.6961  -21.3235 Cl  0  0  0  0  0  0  0  0  0  0  0  0
   -4.2018    0.0892  -20.7304 C   0  0  0  0  0  0  0  0  0  0  0  0
   -4.5844   -1.2345  -20.7996 C   0  0  0  0  0  0  0  0  0  0  0  0
   -5.7001   -1.6121  -21.5025 C   0  0  0  0  0  0  0  0  0  0  0  0
   -6.0367   -3.0333  -21.5242 C   0  0  0  0  0  0  0  0  0  0  0  0
   -5.3323   -3.8701  -20.9256 O   0  0  0  0  0  0  0  0  0  0  0  0
  -11.1141    0.1318  -23.5549 C   0  0  0  0  0  0  0  0  0  0  0  0
  -12.0599   -0.8490  -23.3058 C   0  0  0  0  0  0  0  0  0  0  0  0
  -13.3816   -0.5809  -23.2437 N   0  0  0  0  0  0  0  0  0  0  0  0
  -13.8582    0.6787  -23.4241 C   0  0  0  0  0  0  0  0  0  0  0  0
  -12.9311    1.6704  -23.6736 C   0  0  0  0  0  0  0  0  0  0  0  0
  -13.4193    2.9517  -23.8569 C   0  0  0  0  0  0  0  0  0  0  0  0
  -12.5167    3.9657  -24.1083 C   0  0  0  0  0  0  0  0  0  0  0  0
  -11.1601    3.7099  -24.1754 C   0  0  0  0  0  0  0  0  0  0  0  0
  -10.6688    2.4237  -23.9915 C   0  0  0  0  0  0  0  0  0  0  0  0
  -11.5672    1.4188  -23.7422 C   0  0  0  0  0  0  0  0  0  0  0  0
   -7.3138   -4.7975  -22.6884 C   0  0  0  0  0  0  0  0  0  0  0  0
   -4.1205   -6.8036  -23.2061 C   0  0  0  0  0  0  0  0  0  0  0  0
   -5.3508   -6.3066  -22.5799 N   0  0  0  0  0  0  0  0  0  0  0  0
   -6.0583   -5.3119  -23.3163 C   0  0  0  0  0  0  0  0  0  0  0  0
   -5.6419   -4.8962  -24.4313 O   0  0  0  0  0  0  0  0  0  0  0  0
   -5.6669   -6.6383  -21.7085 H   0  0  0  0  0  0  0  0  0  0  0  0
 31 32  1  0  0  0
 32 33  1  0  0  0
 32 35  1  0  0  0
 33 34  2  0  0  0
 33 30  1  0  0  0
 30  1  1  0  0  0
  1  2  1  0  0  0
  3  2  1  0  0  0
  3  4  1  0  0  0
  3 11  1  0  0  0
  4  5  2  0  0  0
  4  6  1  0  0  0
  6 20  1  0  0  0
  6  7  1  0  0  0
 20 21  2  0  0  0
 21 22  1  0  0  0
 22 23  2  0  0  0
 23 24  1  0  0  0
 24 25  2  0  0  0
 25 26  1  0  0  0
 26 27  2  0  0  0
 27 28  1  0  0  0
 28 29  2  0  0  0
 29 20  1  0  0  0
 29 24  1  0  0  0
  7  8  1  0  0  0
  8  9  1  0  0  0
  8 10  1  0  0  0
  8  3  1  0  0  0
 11 12  2  0  0  0
 12 13  1  0  0  0
 13 14  1  0  0  0
 13 15  2  0  0  0
 15 16  1  0  0  0
 16 17  2  0  0  0
 17 18  1  0  0  0
 17 11  1  0  0  0
 18 19  2  0  0  0
 18  1  1  0  0  0
M  END
> <minimizedAffinity>
-7.96843

> <CNNscore>
0.2732887566

> <CNNaffinity>
6.1358633041

> <CNN_VS>
1.6768624783

> <CNNaffinity_variance>
0.0664670467

$$$$



 35 39  0  0  0  0  0  0  0  0999 V2000
   -8.2493   -3.8193  -24.6084 N   0  0  0  0  0  0  0  0  0  0  0  0
   -7.2769   -2.8003  -24.2603 C   0  0  0  0  0  0  0  0  0  0  0  0
   -7.7333   -1.8038  -23.2523 C   0  0  0  0  0  0  0  0  0  0  0  0
   -6.9114   -0.5620  -23.4589 C   0  0  0  0  0  0  0  0  0  0  0  0
   -7.2350    0.5092  -24.0190 O   0  0  0  0  0  0  0  0  0  0  0  0
   -5.6579   -0.8554  -22.8747 N   0  0  0  0  0  0  0  0  0  0  0  0
   -5.8249   -1.9195  -21.9031 C   0  0  0  0  0  0  0  0  0  0  0  0
   -7.3092   -2.2327  -21.9125 C   0  0  0  0  0  0  0  0  0  0  0  0
   -7.9119   -1.4474  -20.7751 C   0  0  0  0  0  0  0  0  0  0  0  0
   -7.3986   -3.7323  -21.6645 C   0  0  0  0  0  0  0  0  0  0  0  0
   -9.1247   -1.4167  -23.4585 C   0  0  0  0  0  0  0  0  0  0  0  0
   -9.6306   -0.2327  -22.9172 C   0  0  0  0  0  0  0  0  0  0  0  0
  -10.9421    0.1540  -23.0978 C   0  0  0  0  0  0  0  0  0  0  0  0
  -11.5309    1.6496  -22.3984 Cl  0  0  0  0  0  0  0  0  0  0  0  0
  -11.8278   -0.6135  -23.8270 C   0  0  0  0  0  0  0  0  0  0  0  0
  -11.3456   -1.7868  -24.3693 C   0  0  0  0  0  0  0  0  0  0  0  0
  -10.0402   -2.1662  -24.1864 C   0  0  0  0  0  0  0  0  0  0  0  0
   -9.6092   -3.4219  -24.7956 C   0  0  0  0  0  0  0  0  0  0  0  0
  -10.4023   -4.1216  -25.4560 O   0  0  0  0  0  0  0  0  0  0  0  0
   -4.4006   -0.2480  -23.1467 C   0  0  0  0  0  0  0  0  0  0  0  0
   -3.8582   -0.3656  -24.4158 C   0  0  0  0  0  0  0  0  0  0  0  0
   -2.6705    0.1830  -24.7490 N   0  0  0  0  0  0  0  0  0  0  0  0
   -1.9373    0.8869  -23.8471 C   0  0  0  0  0  0  0  0  0  0  0  0
   -2.4611    1.0152  -22.5765 C   0  0  0  0  0  0  0  0  0  0  0  0
   -1.7124    1.7323  -21.6605 C   0  0  0  0  0  0  0  0  0  0  0  0
   -2.2096    1.8784  -20.3809 C   0  0  0  0  0  0  0  0  0  0  0  0
   -3.4236    1.3237  -20.0218 C   0  0  0  0  0  0  0  0  0  0  0  0
   -4.1762    0.6035  -20.9408 C   0  0  0  0  0  0  0  0  0  0  0  0
   -3.6801    0.4599  -22.2106 C   0  0  0  0  0  0  0  0  0  0  0  0
   -7.9023   -5.2064  -24.7724 C   0  0  0  0  0  0  0  0  0  0  0  0
   -8.4581   -6.7501  -28.2072 C   0  0  0  0  0  0  0  0  0  0  0  0
   -8.6885   -6.3884  -26.8041 N   0  0  0  0  0  0  0  0  0  0  0  0
   -7.6789   -5.5816  -26.2022 C   0  0  0  0  0  0  0  0  0  0  0  0
   -6.6604   -5.2108  -26.8461 O   0  0  0  0  0  0  0  0  0  0  0  0
   -9.4877   -6.6835  -26.3106 H   0  0  0  0  0  0  0  0  0  0  0  0
 31 32  1  0  0  0
 32 33  1  0  0  0
 32 35  1  0  0  0
 33 34  2  0  0  0
 33 30  1  0  0  0
 30  1  1  0  0  0
  1  2  1  0  0  0
  3  2  1  0  0  0
  3  4  1  0  0  0
  3 11  1  0  0  0
  4  5  2  0  0  0
  4  6  1  0  0  0
  6 20  1  0  0  0
  6  7  1  0  0  0
 20 21  2  0  0  0
 21 22  1  0  0  0
 22 23  2  0  0  0
 23 24  1  0  0  0
 24 25  2  0  0  0
 25 26  1  0  0  0
 26 27  2  0  0  0
 27 28  1  0  0  0
 28 29  2  0  0  0
 29 20  1  0  0  0
 29 24  1  0  0  0
  7  8  1  0  0  0
  8  9  1  0  0  0
  8 10  1  0  0  0
  8  3  1  0  0  0
 11 12  2  0  0  0
 12 13  1  0  0  0
 13 14  1  0  0  0
 13 15  2  0  0  0
 15 16  1  0  0  0
 16 17  2  0  0  0
 17 18  1  0  0  0
 17 11  1  0  0  0
 18 19  2  0  0  0
 18  1  1  0  0  0
M  END
> <minimizedAffinity>
-6.60095

> <CNNscore>
0.2238056809

> <CNNaffinity>
5.9504342079

> <CNN_VS>
1.3317409754

> <CNNaffinity_variance>
0.2566366792

$$$$



 35 39  0  0  0  0  0  0  0  0999 V2000
   -9.9912   -2.4749  -24.0118 N   0  0  0  0  0  0  0  0  0  0  0  0
   -8.8970   -2.0918  -23.1393 C   0  0  0  0  0  0  0  0  0  0  0  0
   -7.5433   -2.5126  -23.5951 C   0  0  0  0  0  0  0  0  0  0  0  0
   -6.6712   -2.5856  -22.3726 C   0  0  0  0  0  0  0  0  0  0  0  0
   -6.2912   -3.5955  -21.7389 O   0  0  0  0  0  0  0  0  0  0  0  0
   -6.3555   -1.2409  -22.0715 N   0  0  0  0  0  0  0  0  0  0  0  0
   -6.5125   -0.4373  -23.2690 C   0  0  0  0  0  0  0  0  0  0  0  0
   -6.9192   -1.4187  -24.3519 C   0  0  0  0  0  0  0  0  0  0  0  0
   -5.6518   -1.7927  -25.0781 C   0  0  0  0  0  0  0  0  0  0  0  0
   -7.8701   -0.6422  -25.2525 C   0  0  0  0  0  0  0  0  0  0  0  0
   -7.5541   -3.8512  -24.1749 C   0  0  0  0  0  0  0  0  0  0  0  0
   -6.3784   -4.5970  -24.2870 C   0  0  0  0  0  0  0  0  0  0  0  0
   -6.3632   -5.8639  -24.8319 C   0  0  0  0  0  0  0  0  0  0  0  0
   -4.8620   -6.7610  -24.9512 Cl  0  0  0  0  0  0  0  0  0  0  0  0
   -7.5159   -6.4639  -25.2975 C   0  0  0  0  0  0  0  0  0  0  0  0
   -8.6870   -5.7420  -25.1949 C   0  0  0  0  0  0  0  0  0  0  0  0
   -8.6958   -4.4825  -24.6519 C   0  0  0  0  0  0  0  0  0  0  0  0
   -9.9781   -3.7868  -24.5785 C   0  0  0  0  0  0  0  0  0  0  0  0
  -11.0244   -4.3210  -24.9965 O   0  0  0  0  0  0  0  0  0  0  0  0
   -5.9451   -0.6954  -20.8235 C   0  0  0  0  0  0  0  0  0  0  0  0
   -6.7083   -0.9492  -19.6957 C   0  0  0  0  0  0  0  0  0  0  0  0
   -6.3829   -0.4664  -18.4778 N   0  0  0  0  0  0  0  0  0  0  0  0
   -5.2777    0.3021  -18.2925 C   0  0  0  0  0  0  0  0  0  0  0  0
   -4.5038    0.5664  -19.4045 C   0  0  0  0  0  0  0  0  0  0  0  0
   -3.3794    1.3489  -19.2128 C   0  0  0  0  0  0  0  0  0  0  0  0
   -2.5848    1.6310  -20.3060 C   0  0  0  0  0  0  0  0  0  0  0  0
   -2.9023    1.1452  -21.5604 C   0  0  0  0  0  0  0  0  0  0  0  0
   -4.0312    0.3594  -21.7541 C   0  0  0  0  0  0  0  0  0  0  0  0
   -4.8185    0.0809  -20.6669 C   0  0  0  0  0  0  0  0  0  0  0  0
  -11.0837   -1.5928  -24.3278 C   0  0  0  0  0  0  0  0  0  0  0  0
  -13.5549   -2.6835  -21.6458 C   0  0  0  0  0  0  0  0  0  0  0  0
  -12.5551   -2.7679  -22.7164 N   0  0  0  0  0  0  0  0  0  0  0  0
  -12.1026   -1.5199  -23.2363 C   0  0  0  0  0  0  0  0  0  0  0  0
  -12.5420   -0.4236  -22.7950 O   0  0  0  0  0  0  0  0  0  0  0  0
  -12.2188   -3.6296  -23.0536 H   0  0  0  0  0  0  0  0  0  0  0  0
 31 32  1  0  0  0
 32 33  1  0  0  0
 32 35  1  0  0  0
 33 34  2  0  0  0
 33 30  1  0  0  0
 30  1  1  0  0  0
  1  2  1  0  0  0
  3  2  1  0  0  0
  3  4  1  0  0  0
  3 11  1  0  0  0
  4  5  2  0  0  0
  4  6  1  0  0  0
  6 20  1  0  0  0
  6  7  1  0  0  0
 20 21  2  0  0  0
 21 22  1  0  0  0
 22 23  2  0  0  0
 23 24  1  0  0  0
 24 25  2  0  0  0
 25 26  1  0  0  0
 26 27  2  0  0  0
 27 28  1  0  0  0
 28 29  2  0  0  0
 29 20  1  0  0  0
 29 24  1  0  0  0
  7  8  1  0  0  0
  8  9  1  0  0  0
  8 10  1  0  0  0
  8  3  1  0  0  0
 11 12  2  0  0  0
 12 13  1  0  0  0
 13 14  1  0  0  0
 13 15  2  0  0  0
 15 16  1  0  0  0
 16 17  2  0  0  0
 17 18  1  0  0  0
 17 11  1  0  0  0
 18 19  2  0  0  0
 18  1  1  0  0  0
M  END
> <minimizedAffinity>
-8.70472

> <CNNscore>
0.2187380344

> <CNNaffinity>
6.0848913193

> <CNN_VS>
1.3309971094

> <CNNaffinity_variance>
0.0250167493

$$$$



 35 39  0  0  0  0  0  0  0  0999 V2000
   -6.8839   -3.3081  -25.0243 N   0  0  0  0  0  0  0  0  0  0  0  0
   -6.8179   -1.8604  -24.9545 C   0  0  0  0  0  0  0  0  0  0  0  0
   -7.7725   -1.2255  -24.0041 C   0  0  0  0  0  0  0  0  0  0  0  0
   -7.9930    0.1838  -24.4788 C   0  0  0  0  0  0  0  0  0  0  0  0
   -8.9720    0.6601  -25.0958 O   0  0  0  0  0  0  0  0  0  0  0  0
   -6.8350    0.8876  -24.0758 N   0  0  0  0  0  0  0  0  0  0  0  0
   -6.2076    0.1785  -22.9768 C   0  0  0  0  0  0  0  0  0  0  0  0
   -7.1081   -1.0130  -22.7110 C   0  0  0  0  0  0  0  0  0  0  0  0
   -8.0257   -0.6042  -21.5865 C   0  0  0  0  0  0  0  0  0  0  0  0
   -6.1678   -2.1324  -22.2852 C   0  0  0  0  0  0  0  0  0  0  0  0
   -9.0778   -1.8769  -24.0248 C   0  0  0  0  0  0  0  0  0  0  0  0
  -10.2158   -1.2245  -23.5451 C   0  0  0  0  0  0  0  0  0  0  0  0
  -11.4600   -1.8196  -23.5535 C   0  0  0  0  0  0  0  0  0  0  0  0
  -12.8593   -0.9601  -22.9404 Cl  0  0  0  0  0  0  0  0  0  0  0  0
  -11.6460   -3.0982  -24.0392 C   0  0  0  0  0  0  0  0  0  0  0  0
  -10.5329   -3.7581  -24.5173 C   0  0  0  0  0  0  0  0  0  0  0  0
   -9.2980   -3.1611  -24.5064 C   0  0  0  0  0  0  0  0  0  0  0  0
   -8.1716   -3.9278  -25.0326 C   0  0  0  0  0  0  0  0  0  0  0  0
   -8.3302   -5.0834  -25.4734 O   0  0  0  0  0  0  0  0  0  0  0  0
   -6.3125    2.0963  -24.6138 C   0  0  0  0  0  0  0  0  0  0  0  0
   -5.7074    2.0710  -25.8596 C   0  0  0  0  0  0  0  0  0  0  0  0
   -5.1887    3.1766  -26.4349 N   0  0  0  0  0  0  0  0  0  0  0  0
   -5.2336    4.3851  -25.8153 C   0  0  0  0  0  0  0  0  0  0  0  0
   -5.8327    4.4311  -24.5727 C   0  0  0  0  0  0  0  0  0  0  0  0
   -5.8769    5.6627  -23.9444 C   0  0  0  0  0  0  0  0  0  0  0  0
   -6.4699    5.7412  -22.7002 C   0  0  0  0  0  0  0  0  0  0  0  0
   -7.0062    4.6198  -22.0958 C   0  0  0  0  0  0  0  0  0  0  0  0
   -6.9624    3.3826  -22.7257 C   0  0  0  0  0  0  0  0  0  0  0  0
   -6.3729    3.3075  -23.9611 C   0  0  0  0  0  0  0  0  0  0  0  0
   -5.7118   -4.1413  -25.0856 C   0  0  0  0  0  0  0  0  0  0  0  0
   -3.0202   -3.2377  -27.6211 C   0  0  0  0  0  0  0  0  0  0  0  0
   -3.7255   -3.3506  -26.3395 N   0  0  0  0  0  0  0  0  0  0  0  0
   -4.9834   -4.0200  -26.3855 C   0  0  0  0  0  0  0  0  0  0  0  0
   -5.4465   -4.4797  -27.4643 O   0  0  0  0  0  0  0  0  0  0  0  0
   -3.3546   -2.9879  -25.5028 H   0  0  0  0  0  0  0  0  0  0  0  0
 31 32  1  0  0  0
 32 33  1  0  0  0
 32 35  1  0  0  0
 33 34  2  0  0  0
 33 30  1  0  0  0
 30  1  1  0  0  0
  1  2  1  0  0  0
  3  2  1  0  0  0
  3  4  1  0  0  0
  3 11  1  0  0  0
  4  5  2  0  0  0
  4  6  1  0  0  0
  6 20  1  0  0  0
  6  7  1  0  0  0
 20 21  2  0  0  0
 21 22  1  0  0  0
 22 23  2  0  0  0
 23 24  1  0  0  0
 24 25  2  0  0  0
 25 26  1  0  0  0
 26 27  2  0  0  0
 27 28  1  0  0  0
 28 29  2  0  0  0
 29 20  1  0  0  0
 29 24  1  0  0  0
  7  8  1  0  0  0
  8  9  1  0  0  0
  8 10  1  0  0  0
  8  3  1  0  0  0
 11 12  2  0  0  0
 12 13  1  0  0  0
 13 14  1  0  0  0
 13 15  2  0  0  0
 15 16  1  0  0  0
 16 17  2  0  0  0
 17 18  1  0  0  0
 17 11  1  0  0  0
 18 19  2  0  0  0
 18  1  1  0  0  0
M  END
> <minimizedAffinity>
-5.75692

> <CNNscore>
0.2116360366

> <CNNaffinity>
5.8677988052

> <CNN_VS>
1.2418377399

> <CNNaffinity_variance>
0.2571023703

$$$$



 35 39  0  0  0  0  0  0  0  0999 V2000
   -6.3538   -1.9212  -21.7124 N   0  0  0  0  0  0  0  0  0  0  0  0
   -6.0410   -0.5725  -22.1465 C   0  0  0  0  0  0  0  0  0  0  0  0
   -6.7825   -0.1040  -23.3500 C   0  0  0  0  0  0  0  0  0  0  0  0
   -5.9520    0.9767  -23.9844 C   0  0  0  0  0  0  0  0  0  0  0  0
   -5.2228    0.9124  -24.9994 O   0  0  0  0  0  0  0  0  0  0  0  0
   -6.1660    2.1186  -23.1789 N   0  0  0  0  0  0  0  0  0  0  0  0
   -7.4183    1.9659  -22.4628 C   0  0  0  0  0  0  0  0  0  0  0  0
   -7.9801    0.6364  -22.9300 C   0  0  0  0  0  0  0  0  0  0  0  0
   -8.9493    0.9561  -24.0400 C   0  0  0  0  0  0  0  0  0  0  0  0
   -8.6935    0.0595  -21.7149 C   0  0  0  0  0  0  0  0  0  0  0  0
   -6.9223   -1.1574  -24.3495 C   0  0  0  0  0  0  0  0  0  0  0  0
   -7.2034   -0.8520  -25.6831 C   0  0  0  0  0  0  0  0  0  0  0  0
   -7.3407   -1.8302  -26.6457 C   0  0  0  0  0  0  0  0  0  0  0  0
   -7.6938   -1.3972  -28.3072 Cl  0  0  0  0  0  0  0  0  0  0  0  0
   -7.2066   -3.1694  -26.3392 C   0  0  0  0  0  0  0  0  0  0  0  0
   -6.9288   -3.4899  -25.0265 C   0  0  0  0  0  0  0  0  0  0  0  0
   -6.7933   -2.5127  -24.0735 C   0  0  0  0  0  0  0  0  0  0  0  0
   -6.4973   -2.9368  -22.7075 C   0  0  0  0  0  0  0  0  0  0  0  0
   -6.3744   -4.1442  -22.4214 O   0  0  0  0  0  0  0  0  0  0  0  0
   -5.3339    3.2644  -23.0439 C   0  0  0  0  0  0  0  0  0  0  0  0
   -5.6379    4.4048  -23.7689 C   0  0  0  0  0  0  0  0  0  0  0  0
   -4.8958    5.5300  -23.6932 N   0  0  0  0  0  0  0  0  0  0  0  0
   -3.7999    5.6033  -22.8931 C   0  0  0  0  0  0  0  0  0  0  0  0
   -3.4802    4.4768  -22.1624 C   0  0  0  0  0  0  0  0  0  0  0  0
   -2.3641    4.5545  -21.3489 C   0  0  0  0  0  0  0  0  0  0  0  0
   -2.0184    3.4439  -20.6052 C   0  0  0  0  0  0  0  0  0  0  0  0
   -2.7664    2.2835  -20.6700 C   0  0  0  0  0  0  0  0  0  0  0  0
   -3.8873    2.2043  -21.4865 C   0  0  0  0  0  0  0  0  0  0  0  0
   -4.2283    3.3085  -22.2239 C   0  0  0  0  0  0  0  0  0  0  0  0
   -6.5241   -2.2763  -20.3280 C   0  0  0  0  0  0  0  0  0  0  0  0
   -4.7235    0.3824  -18.2837 C   0  0  0  0  0  0  0  0  0  0  0  0
   -4.9356   -0.7492  -19.1934 N   0  0  0  0  0  0  0  0  0  0  0  0
   -6.2950   -1.1244  -19.4030 C   0  0  0  0  0  0  0  0  0  0  0  0
   -7.2421   -0.5144  -18.8370 O   0  0  0  0  0  0  0  0  0  0  0  0
   -4.1885   -1.2184  -19.6302 H   0  0  0  0  0  0  0  0  0  0  0  0
 31 32  1  0  0  0
 32 33  1  0  0  0
 32 35  1  0  0  0
 33 34  2  0  0  0
 33 30  1  0  0  0
 30  1  1  0  0  0
  1  2  1  0  0  0
  3  2  1  0  0  0
  3  4  1  0  0  0
  3 11  1  0  0  0
  4  5  2  0  0  0
  4  6  1  0  0  0
  6 20  1  0  0  0
  6  7  1  0  0  0
 20 21  2  0  0  0
 21 22  1  0  0  0
 22 23  2  0  0  0
 23 24  1  0  0  0
 24 25  2  0  0  0
 25 26  1  0  0  0
 26 27  2  0  0  0
 27 28  1  0  0  0
 28 29  2  0  0  0
 29 20  1  0  0  0
 29 24  1  0  0  0
  7  8  1  0  0  0
  8  9  1  0  0  0
  8 10  1  0  0  0
  8  3  1  0  0  0
 11 12  2  0  0  0
 12 13  1  0  0  0
 13 14  1  0  0  0
 13 15  2  0  0  0
 15 16  1  0  0  0
 16 17  2  0  0  0
 17 18  1  0  0  0
 17 11  1  0  0  0
 18 19  2  0  0  0
 18  1  1  0  0  0
M  END
> <minimizedAffinity>
-6.70058

> <CNNscore>
0.2062228620

> <CNNaffinity>
5.7448925972

> <CNN_VS>
1.1847281456

> <CNNaffinity_variance>
0.2851009369

$$$$



 35 39  0  0  0  0  0  0  0  0999 V2000
   -6.0332   -2.1211  -20.3920 N   0  0  0  0  0  0  0  0  0  0  0  0
   -6.1220   -1.3543  -21.6205 C   0  0  0  0  0  0  0  0  0  0  0  0
   -6.7619   -2.0597  -22.7653 C   0  0  0  0  0  0  0  0  0  0  0  0
   -6.2470   -1.4146  -24.0219 C   0  0  0  0  0  0  0  0  0  0  0  0
   -5.3774   -1.8321  -24.8190 O   0  0  0  0  0  0  0  0  0  0  0  0
   -6.9652   -0.2014  -24.1272 N   0  0  0  0  0  0  0  0  0  0  0  0
   -8.1960   -0.3114  -23.3673 C   0  0  0  0  0  0  0  0  0  0  0  0
   -8.1913   -1.7228  -22.8112 C   0  0  0  0  0  0  0  0  0  0  0  0
   -9.0081   -2.5545  -23.7677 C   0  0  0  0  0  0  0  0  0  0  0  0
   -8.8652   -1.6140  -21.4503 C   0  0  0  0  0  0  0  0  0  0  0  0
   -6.3683   -3.4629  -22.8308 C   0  0  0  0  0  0  0  0  0  0  0  0
   -6.5047   -4.1948  -24.0126 C   0  0  0  0  0  0  0  0  0  0  0  0
   -6.1404   -5.5222  -24.0988 C   0  0  0  0  0  0  0  0  0  0  0  0
   -6.3307   -6.3989  -25.6048 Cl  0  0  0  0  0  0  0  0  0  0  0  0
   -5.6190   -6.2001  -23.0154 C   0  0  0  0  0  0  0  0  0  0  0  0
   -5.4769   -5.4931  -21.8393 C   0  0  0  0  0  0  0  0  0  0  0  0
   -5.8410   -4.1731  -21.7596 C   0  0  0  0  0  0  0  0  0  0  0  0
   -5.6565   -3.4969  -20.4780 C   0  0  0  0  0  0  0  0  0  0  0  0
   -5.1862   -4.1013  -19.4940 O   0  0  0  0  0  0  0  0  0  0  0  0
   -6.6013    0.9732  -24.8423 C   0  0  0  0  0  0  0  0  0  0  0  0
   -5.9588    1.9984  -24.1679 C   0  0  0  0  0  0  0  0  0  0  0  0
   -5.5829    3.1423  -24.7783 N   0  0  0  0  0  0  0  0  0  0  0  0
   -5.8176    3.3500  -26.1005 C   0  0  0  0  0  0  0  0  0  0  0  0
   -6.4570    2.3398  -26.7903 C   0  0  0  0  0  0  0  0  0  0  0  0
   -6.6946    2.5540  -28.1361 C   0  0  0  0  0  0  0  0  0  0  0  0
   -7.3325    1.5620  -28.8536 C   0  0  0  0  0  0  0  0  0  0  0  0
   -7.7246    0.3844  -28.2454 C   0  0  0  0  0  0  0  0  0  0  0  0
   -7.4866    0.1682  -26.8941 C   0  0  0  0  0  0  0  0  0  0  0  0
   -6.8530    1.1549  -26.1840 C   0  0  0  0  0  0  0  0  0  0  0  0
   -6.3070   -1.5557  -19.0970 C   0  0  0  0  0  0  0  0  0  0  0  0
   -3.6580    1.1517  -19.4745 C   0  0  0  0  0  0  0  0  0  0  0  0
   -4.5020   -0.0058  -19.7917 N   0  0  0  0  0  0  0  0  0  0  0  0
   -5.4411   -0.3775  -18.7855 C   0  0  0  0  0  0  0  0  0  0  0  0
   -5.5291    0.2565  -17.6993 O   0  0  0  0  0  0  0  0  0  0  0  0
   -4.4249   -0.4938  -20.6433 H   0  0  0  0  0  0  0  0  0  0  0  0
 31 32  1  0  0  0
 32 33  1  0  0  0
 32 35  1  0  0  0
 33 34  2  0  0  0
 33 30  1  0  0  0
 30  1  1  0  0  0
  1  2  1  0  0  0
  3  2  1  0  0  0
  3  4  1  0  0  0
  3 11  1  0  0  0
  4  5  2  0  0  0
  4  6  1  0  0  0
  6 20  1  0  0  0
  6  7  1  0  0  0
 20 21  2  0  0  0
 21 22  1  0  0  0
 22 23  2  0  0  0
 23 24  1  0  0  0
 24 25  2  0  0  0
 25 26  1  0  0  0
 26 27  2  0  0  0
 27 28  1  0  0  0
 28 29  2  0  0  0
 29 20  1  0  0  0
 29 24  1  0  0  0
  7  8  1  0  0  0
  8  9  1  0  0  0
  8 10  1  0  0  0
  8  3  1  0  0  0
 11 12  2  0  0  0
 12 13  1  0  0  0
 13 14  1  0  0  0
 13 15  2  0  0  0
 15 16  1  0  0  0
 16 17  2  0  0  0
 17 18  1  0  0  0
 17 11  1  0  0  0
 18 19  2  0  0  0
 18  1  1  0  0  0
M  END
> <minimizedAffinity>
-7.14534

> <CNNscore>
0.1840101331

> <CNNaffinity>
5.9175467491

> <CNN_VS>
1.0888885260

> <CNNaffinity_variance>
0.0301184691

$$$$



 27 30  0  0  0  0  0  0  0  0999 V2000
   -6.6792   -2.3192  -22.5492 C   0  0  0  0  0  0  0  0  0  0  0  0
   -7.6473   -1.6442  -22.1056 O   0  0  0  0  0  0  0  0  0  0  0  0
   -5.4612   -2.2668  -21.8168 N   0  0  0  0  0  0  0  0  0  0  0  0
   -4.6952   -2.7861  -22.1529 H   0  0  0  0  0  0  0  0  0  0  0  0
   -8.2662   -3.0565  -27.0819 C   0  0  0  0  0  0  0  0  0  0  0  0
   -8.2441   -3.5188  -25.7021 N   0  0  0  0  0  0  0  0  0  0  0  0
   -8.0451   -2.6632  -24.5765 C   0  0  0  0  0  0  0  0  0  0  0  0
   -6.8109   -3.1506  -23.8036 C   0  0  0  0  0  0  0  0  0  0  0  0
   -6.9825   -4.5745  -23.5403 C   0  0  0  0  0  0  0  0  0  0  0  0
   -6.3216   -5.1256  -22.4393 C   0  0  0  0  0  0  0  0  0  0  0  0
   -6.4222   -6.4535  -22.1067 C   0  0  0  0  0  0  0  0  0  0  0  0
   -5.5511   -7.0531  -20.6999 Cl  0  0  0  0  0  0  0  0  0  0  0  0
   -7.2027   -7.2862  -22.8818 C   0  0  0  0  0  0  0  0  0  0  0  0
   -7.8727   -6.7920  -23.9760 C   0  0  0  0  0  0  0  0  0  0  0  0
   -7.7451   -5.4518  -24.2762 C   0  0  0  0  0  0  0  0  0  0  0  0
   -8.4364   -4.9180  -25.4436 C   0  0  0  0  0  0  0  0  0  0  0  0
   -9.1652   -5.6205  -26.1980 O   0  0  0  0  0  0  0  0  0  0  0  0
   -5.2864   -1.5101  -20.6312 C   0  0  0  0  0  0  0  0  0  0  0  0
   -5.8573   -2.0019  -19.4517 C   0  0  0  0  0  0  0  0  0  0  0  0
   -5.7449   -1.3608  -18.2882 N   0  0  0  0  0  0  0  0  0  0  0  0
   -5.0721   -0.2184  -18.2343 C   0  0  0  0  0  0  0  0  0  0  0  0
   -4.4734    0.3460  -19.3453 C   0  0  0  0  0  0  0  0  0  0  0  0
   -3.7690    1.5293  -19.3050 C   0  0  0  0  0  0  0  0  0  0  0  0
   -3.1701    2.0761  -20.4429 C   0  0  0  0  0  0  0  0  0  0  0  0
   -3.3093    1.3785  -21.6341 C   0  0  0  0  0  0  0  0  0  0  0  0
   -4.0143    0.2028  -21.6532 C   0  0  0  0  0  0  0  0  0  0  0  0
   -4.6042   -0.3354  -20.5332 C   0  0  0  0  0  0  0  0  0  0  0  0
  5  6  1  0  0  0
  6  7  1  0  0  0
  7  8  1  0  0  0
  8  1  1  0  0  0
  8  9  1  0  0  0
  1  2  2  0  0  0
  1  3  1  0  0  0
  3 18  1  0  0  0
  3  4  1  0  0  0
 18 19  2  0  0  0
 19 20  1  0  0  0
 20 21  2  0  0  0
 21 22  1  0  0  0
 22 23  2  0  0  0
 23 24  1  0  0  0
 24 25  2  0  0  0
 25 26  1  0  0  0
 26 27  2  0  0  0
 27 18  1  0  0  0
 27 22  1  0  0  0
  9 10  2  0  0  0
 10 11  1  0  0  0
 11 12  1  0  0  0
 11 13  2  0  0  0
 13 14  1  0  0  0
 14 15  2  0  0  0
 15 16  1  0  0  0
 15  9  1  0  0  0
 16 17  2  0  0  0
 16  6  1  0  0  0
M  END
> <minimizedAffinity>
-8.52515

> <CNNscore>
0.6373228431

> <CNNaffinity>
5.7019281387

> <CNN_VS>
3.6339690685

> <CNNaffinity_variance>
0.2154535353

$$$$



 27 30  0  0  0  0  0  0  0  0999 V2000
   -6.8784   -2.6954  -22.0818 C   0  0  0  0  0  0  0  0  0  0  0  0
   -7.6366   -1.6905  -22.0105 O   0  0  0  0  0  0  0  0  0  0  0  0
   -5.7701   -2.7375  -21.1915 N   0  0  0  0  0  0  0  0  0  0  0  0
   -5.1672   -3.5144  -21.2378 H   0  0  0  0  0  0  0  0  0  0  0  0
   -5.4853   -5.7701  -25.5766 C   0  0  0  0  0  0  0  0  0  0  0  0
   -6.3883   -4.7021  -25.1740 N   0  0  0  0  0  0  0  0  0  0  0  0
   -6.0791   -3.7286  -24.1765 C   0  0  0  0  0  0  0  0  0  0  0  0
   -7.1403   -3.8081  -23.0693 C   0  0  0  0  0  0  0  0  0  0  0  0
   -8.4518   -3.7260  -23.7014 C   0  0  0  0  0  0  0  0  0  0  0  0
   -9.5200   -3.2407  -22.9424 C   0  0  0  0  0  0  0  0  0  0  0  0
  -10.7908   -3.1224  -23.4473 C   0  0  0  0  0  0  0  0  0  0  0  0
  -12.0702   -2.4995  -22.4118 Cl  0  0  0  0  0  0  0  0  0  0  0  0
  -11.0354   -3.4941  -24.7532 C   0  0  0  0  0  0  0  0  0  0  0  0
  -10.0177   -3.9782  -25.5409 C   0  0  0  0  0  0  0  0  0  0  0  0
   -8.7551   -4.0815  -24.9954 C   0  0  0  0  0  0  0  0  0  0  0  0
   -7.6703   -4.6092  -25.8141 C   0  0  0  0  0  0  0  0  0  0  0  0
   -7.8211   -4.9699  -27.0144 O   0  0  0  0  0  0  0  0  0  0  0  0
   -5.4835   -1.7254  -20.2416 C   0  0  0  0  0  0  0  0  0  0  0  0
   -5.9420   -1.9093  -18.9320 C   0  0  0  0  0  0  0  0  0  0  0  0
   -5.7197   -1.0132  -17.9702 N   0  0  0  0  0  0  0  0  0  0  0  0
   -5.0429    0.0929  -18.2518 C   0  0  0  0  0  0  0  0  0  0  0  0
   -4.5502    0.3628  -19.5150 C   0  0  0  0  0  0  0  0  0  0  0  0
   -3.8431    1.5046  -19.8223 C   0  0  0  0  0  0  0  0  0  0  0  0
   -3.3528    1.7511  -21.1074 C   0  0  0  0  0  0  0  0  0  0  0  0
   -3.6045    0.7942  -22.0799 C   0  0  0  0  0  0  0  0  0  0  0  0
   -4.3101   -0.3352  -21.7539 C   0  0  0  0  0  0  0  0  0  0  0  0
   -4.7931   -0.5777  -20.4891 C   0  0  0  0  0  0  0  0  0  0  0  0
  5  6  1  0  0  0
  6  7  1  0  0  0
  7  8  1  0  0  0
  8  1  1  0  0  0
  8  9  1  0  0  0
  1  2  2  0  0  0
  1  3  1  0  0  0
  3 18  1  0  0  0
  3  4  1  0  0  0
 18 19  2  0  0  0
 19 20  1  0  0  0
 20 21  2  0  0  0
 21 22  1  0  0  0
 22 23  2  0  0  0
 23 24  1  0  0  0
 24 25  2  0  0  0
 25 26  1  0  0  0
 26 27  2  0  0  0
 27 18  1  0  0  0
 27 22  1  0  0  0
  9 10  2  0  0  0
 10 11  1  0  0  0
 11 12  1  0  0  0
 11 13  2  0  0  0
 13 14  1  0  0  0
 14 15  2  0  0  0
 15 16  1  0  0  0
 15  9  1  0  0  0
 16 17  2  0  0  0
 16  6  1  0  0  0
M  END
> <minimizedAffinity>
-8.31569

> <CNNscore>
0.5946611166

> <CNNaffinity>
5.7459688187

> <CNN_VS>
3.4169042110

> <CNNaffinity_variance>
0.3243259192

$$$$



 27 30  0  0  0  0  0  0  0  0999 V2000
   -8.6332   -1.2856  -22.9919 C   0  0  0  0  0  0  0  0  0  0  0  0
   -8.9783   -1.4255  -21.7873 O   0  0  0  0  0  0  0  0  0  0  0  0
   -7.5637   -2.0979  -23.4598 N   0  0  0  0  0  0  0  0  0  0  0  0
   -7.2808   -1.9975  -24.3974 H   0  0  0  0  0  0  0  0  0  0  0  0
   -8.8296    2.8822  -25.4817 C   0  0  0  0  0  0  0  0  0  0  0  0
   -9.4229    2.0421  -24.4519 N   0  0  0  0  0  0  0  0  0  0  0  0
   -8.6939    1.0826  -23.6862 C   0  0  0  0  0  0  0  0  0  0  0  0
   -9.3301   -0.2988  -23.8988 C   0  0  0  0  0  0  0  0  0  0  0  0
  -10.7591   -0.1775  -23.6349 C   0  0  0  0  0  0  0  0  0  0  0  0
  -11.4541   -1.3206  -23.2310 C   0  0  0  0  0  0  0  0  0  0  0  0
  -12.7988   -1.3083  -22.9560 C   0  0  0  0  0  0  0  0  0  0  0  0
  -13.5847   -2.8006  -22.4534 Cl  0  0  0  0  0  0  0  0  0  0  0  0
  -13.5022   -0.1279  -23.0799 C   0  0  0  0  0  0  0  0  0  0  0  0
  -12.8639    1.0241  -23.4747 C   0  0  0  0  0  0  0  0  0  0  0  0
  -11.5117    0.9692  -23.7417 C   0  0  0  0  0  0  0  0  0  0  0  0
  -10.8257    2.1794  -24.1776 C   0  0  0  0  0  0  0  0  0  0  0  0
  -11.4050    3.2927  -24.3143 O   0  0  0  0  0  0  0  0  0  0  0  0
   -6.8817   -3.0437  -22.6541 C   0  0  0  0  0  0  0  0  0  0  0  0
   -6.0610   -2.5585  -21.6292 C   0  0  0  0  0  0  0  0  0  0  0  0
   -5.3814   -3.3712  -20.8199 N   0  0  0  0  0  0  0  0  0  0  0  0
   -5.4782   -4.6847  -20.9816 C   0  0  0  0  0  0  0  0  0  0  0  0
   -6.2631   -5.2578  -21.9649 C   0  0  0  0  0  0  0  0  0  0  0  0
   -6.3766   -6.6191  -22.1435 C   0  0  0  0  0  0  0  0  0  0  0  0
   -7.1804   -7.1724  -23.1436 C   0  0  0  0  0  0  0  0  0  0  0  0
   -7.8719   -6.2934  -23.9646 C   0  0  0  0  0  0  0  0  0  0  0  0
   -7.7455   -4.9421  -23.7706 C   0  0  0  0  0  0  0  0  0  0  0  0
   -6.9539   -4.3973  -22.7864 C   0  0  0  0  0  0  0  0  0  0  0  0
  5  6  1  0  0  0
  6  7  1  0  0  0
  7  8  1  0  0  0
  8  1  1  0  0  0
  8  9  1  0  0  0
  1  2  2  0  0  0
  1  3  1  0  0  0
  3 18  1  0  0  0
  3  4  1  0  0  0
 18 19  2  0  0  0
 19 20  1  0  0  0
 20 21  2  0  0  0
 21 22  1  0  0  0
 22 23  2  0  0  0
 23 24  1  0  0  0
 24 25  2  0  0  0
 25 26  1  0  0  0
 26 27  2  0  0  0
 27 18  1  0  0  0
 27 22  1  0  0  0
  9 10  2  0  0  0
 10 11  1  0  0  0
 11 12  1  0  0  0
 11 13  2  0  0  0
 13 14  1  0  0  0
 14 15  2  0  0  0
 15 16  1  0  0  0
 15  9  1  0  0  0
 16 17  2  0  0  0
 16  6  1  0  0  0
M  END
> <minimizedAffinity>
-7.06493

> <CNNscore>
0.3951056898

> <CNNaffinity>
5.6568808556

> <CNN_VS>
2.2350656986

> <CNNaffinity_variance>
0.0368541740

$$$$



 27 30  0  0  0  0  0  0  0  0999 V2000
   -6.8308   -2.6217  -22.1823 C   0  0  0  0  0  0  0  0  0  0  0  0
   -7.6728   -1.7072  -21.9720 O   0  0  0  0  0  0  0  0  0  0  0  0
   -5.6651   -2.6312  -21.3675 N   0  0  0  0  0  0  0  0  0  0  0  0
   -4.9968   -3.3375  -21.5223 H   0  0  0  0  0  0  0  0  0  0  0  0
   -7.7883   -7.1541  -23.6481 C   0  0  0  0  0  0  0  0  0  0  0  0
   -6.8690   -6.0261  -23.6780 N   0  0  0  0  0  0  0  0  0  0  0  0
   -6.7739   -5.0461  -22.6441 C   0  0  0  0  0  0  0  0  0  0  0  0
   -7.0544   -3.6642  -23.2524 C   0  0  0  0  0  0  0  0  0  0  0  0
   -6.1844   -3.5016  -24.4113 C   0  0  0  0  0  0  0  0  0  0  0  0
   -5.8435   -2.2042  -24.8027 C   0  0  0  0  0  0  0  0  0  0  0  0
   -5.0290   -1.9473  -25.8772 C   0  0  0  0  0  0  0  0  0  0  0  0
   -4.6571   -0.2777  -26.2911 Cl  0  0  0  0  0  0  0  0  0  0  0  0
   -4.5214   -3.0025  -26.6068 C   0  0  0  0  0  0  0  0  0  0  0  0
   -4.8280   -4.2977  -26.2622 C   0  0  0  0  0  0  0  0  0  0  0  0
   -5.6501   -4.5130  -25.1757 C   0  0  0  0  0  0  0  0  0  0  0  0
   -5.9970   -5.8808  -24.8095 C   0  0  0  0  0  0  0  0  0  0  0  0
   -5.5713   -6.8934  -25.4317 O   0  0  0  0  0  0  0  0  0  0  0  0
   -5.4099   -1.6828  -20.3457 C   0  0  0  0  0  0  0  0  0  0  0  0
   -5.8830   -1.9649  -19.0589 C   0  0  0  0  0  0  0  0  0  0  0  0
   -5.6903   -1.1340  -18.0343 N   0  0  0  0  0  0  0  0  0  0  0  0
   -5.0299    0.0004  -18.2285 C   0  0  0  0  0  0  0  0  0  0  0  0
   -4.5248    0.3657  -19.4625 C   0  0  0  0  0  0  0  0  0  0  0  0
   -3.8344    1.5380  -19.6796 C   0  0  0  0  0  0  0  0  0  0  0  0
   -3.3310    1.8814  -20.9370 C   0  0  0  0  0  0  0  0  0  0  0  0
   -3.5518    0.9901  -21.9771 C   0  0  0  0  0  0  0  0  0  0  0  0
   -4.2412   -0.1710  -21.7405 C   0  0  0  0  0  0  0  0  0  0  0  0
   -4.7372   -0.5090  -20.5028 C   0  0  0  0  0  0  0  0  0  0  0  0
  5  6  1  0  0  0
  6  7  1  0  0  0
  7  8  1  0  0  0
  8  1  1  0  0  0
  8  9  1  0  0  0
  1  2  2  0  0  0
  1  3  1  0  0  0
  3 18  1  0  0  0
  3  4  1  0  0  0
 18 19  2  0  0  0
 19 20  1  0  0  0
 20 21  2  0  0  0
 21 22  1  0  0  0
 22 23  2  0  0  0
 23 24  1  0  0  0
 24 25  2  0  0  0
 25 26  1  0  0  0
 26 27  2  0  0  0
 27 18  1  0  0  0
 27 22  1  0  0  0
  9 10  2  0  0  0
 10 11  1  0  0  0
 11 12  1  0  0  0
 11 13  2  0  0  0
 13 14  1  0  0  0
 14 15  2  0  0  0
 15 16  1  0  0  0
 15  9  1  0  0  0
 16 17  2  0  0  0
 16  6  1  0  0  0
M  END
> <minimizedAffinity>
-7.31287

> <CNNscore>
0.3720926940

> <CNNaffinity>
5.3425421715

> <CNN_VS>
1.9879208803

> <CNNaffinity_variance>
0.0393203795

$$$$



 27 30  0  0  0  0  0  0  0  0999 V2000
   -7.3761   -2.3857  -21.8633 C   0  0  0  0  0  0  0  0  0  0  0  0
   -8.1818   -1.5194  -21.4272 O   0  0  0  0  0  0  0  0  0  0  0  0
   -6.0718   -2.4032  -21.2967 N   0  0  0  0  0  0  0  0  0  0  0  0
   -5.4304   -3.0720  -21.6295 H   0  0  0  0  0  0  0  0  0  0  0  0
   -7.6773   -6.8650  -23.7215 C   0  0  0  0  0  0  0  0  0  0  0  0
   -7.2029   -5.4994  -23.8890 N   0  0  0  0  0  0  0  0  0  0  0  0
   -6.9061   -4.6186  -22.8053 C   0  0  0  0  0  0  0  0  0  0  0  0
   -7.7825   -3.3647  -22.9395 C   0  0  0  0  0  0  0  0  0  0  0  0
   -7.6129   -2.8442  -24.2911 C   0  0  0  0  0  0  0  0  0  0  0  0
   -7.8396   -1.4822  -24.5061 C   0  0  0  0  0  0  0  0  0  0  0  0
   -7.7034   -0.8970  -25.7402 C   0  0  0  0  0  0  0  0  0  0  0  0
   -8.0110    0.8275  -25.9098 Cl  0  0  0  0  0  0  0  0  0  0  0  0
   -7.3290   -1.6732  -26.8176 C   0  0  0  0  0  0  0  0  0  0  0  0
   -7.0949   -3.0186  -26.6577 C   0  0  0  0  0  0  0  0  0  0  0  0
   -7.2430   -3.5679  -25.4012 C   0  0  0  0  0  0  0  0  0  0  0  0
   -7.0146   -4.9964  -25.2207 C   0  0  0  0  0  0  0  0  0  0  0  0
   -6.6720   -5.7669  -26.1602 O   0  0  0  0  0  0  0  0  0  0  0  0
   -5.6419   -1.5136  -20.2806 C   0  0  0  0  0  0  0  0  0  0  0  0
   -6.0782   -1.7551  -18.9727 C   0  0  0  0  0  0  0  0  0  0  0  0
   -5.7252   -0.9741  -17.9515 N   0  0  0  0  0  0  0  0  0  0  0  0
   -4.9347    0.0691  -18.1699 C   0  0  0  0  0  0  0  0  0  0  0  0
   -4.4531    0.3880  -19.4259 C   0  0  0  0  0  0  0  0  0  0  0  0
   -3.6294    1.4653  -19.6683 C   0  0  0  0  0  0  0  0  0  0  0  0
   -3.1535    1.7632  -20.9479 C   0  0  0  0  0  0  0  0  0  0  0  0
   -3.5430    0.9262  -21.9836 C   0  0  0  0  0  0  0  0  0  0  0  0
   -4.3633   -0.1406  -21.7216 C   0  0  0  0  0  0  0  0  0  0  0  0
   -4.8322   -0.4336  -20.4621 C   0  0  0  0  0  0  0  0  0  0  0  0
  5  6  1  0  0  0
  6  7  1  0  0  0
  7  8  1  0  0  0
  8  1  1  0  0  0
  8  9  1  0  0  0
  1  2  2  0  0  0
  1  3  1  0  0  0
  3 18  1  0  0  0
  3  4  1  0  0  0
 18 19  2  0  0  0
 19 20  1  0  0  0
 20 21  2  0  0  0
 21 22  1  0  0  0
 22 23  2  0  0  0
 23 24  1  0  0  0
 24 25  2  0  0  0
 25 26  1  0  0  0
 26 27  2  0  0  0
 27 18  1  0  0  0
 27 22  1  0  0  0
  9 10  2  0  0  0
 10 11  1  0  0  0
 11 12  1  0  0  0
 11 13  2  0  0  0
 13 14  1  0  0  0
 14 15  2  0  0  0
 15 16  1  0  0  0
 15  9  1  0  0  0
 16 17  2  0  0  0
 16  6  1  0  0  0
M  END
> <minimizedAffinity>
-7.60761

> <CNNscore>
0.3270945847

> <CNNaffinity>
5.3407692909

> <CNN_VS>
1.7469366789

> <CNNaffinity_variance>
0.1419882625

$$$$



 27 30  0  0  0  0  0  0  0  0999 V2000
   -8.8442    1.6957  -23.7636 C   0  0  0  0  0  0  0  0  0  0  0  0
   -8.6748    1.6318  -25.0114 O   0  0  0  0  0  0  0  0  0  0  0  0
   -9.3026    2.9330  -23.2329 N   0  0  0  0  0  0  0  0  0  0  0  0
   -9.4363    2.9992  -22.2597 H   0  0  0  0  0  0  0  0  0  0  0  0
   -5.8808   -1.5430  -21.6811 C   0  0  0  0  0  0  0  0  0  0  0  0
   -7.0335   -1.3128  -22.5394 N   0  0  0  0  0  0  0  0  0  0  0  0
   -7.2387   -0.1207  -23.2979 C   0  0  0  0  0  0  0  0  0  0  0  0
   -8.5746    0.5061  -22.8726 C   0  0  0  0  0  0  0  0  0  0  0  0
   -9.5999   -0.5272  -22.9585 C   0  0  0  0  0  0  0  0  0  0  0  0
  -10.9240   -0.1269  -23.1568 C   0  0  0  0  0  0  0  0  0  0  0  0
  -11.9593   -1.0228  -23.2542 C   0  0  0  0  0  0  0  0  0  0  0  0
  -13.5938   -0.4201  -23.5045 Cl  0  0  0  0  0  0  0  0  0  0  0  0
  -11.6950   -2.3731  -23.1536 C   0  0  0  0  0  0  0  0  0  0  0  0
  -10.4087   -2.8175  -22.9577 C   0  0  0  0  0  0  0  0  0  0  0  0
   -9.3968   -1.8847  -22.8652 C   0  0  0  0  0  0  0  0  0  0  0  0
   -8.0305   -2.3411  -22.6405 C   0  0  0  0  0  0  0  0  0  0  0  0
   -7.7156   -3.5591  -22.5370 O   0  0  0  0  0  0  0  0  0  0  0  0
   -9.5779    4.0763  -24.0240 C   0  0  0  0  0  0  0  0  0  0  0  0
   -8.5110    4.9261  -24.3383 C   0  0  0  0  0  0  0  0  0  0  0  0
   -8.6725    6.0239  -25.0774 N   0  0  0  0  0  0  0  0  0  0  0  0
   -9.8793    6.3311  -25.5356 C   0  0  0  0  0  0  0  0  0  0  0  0
  -10.9933    5.5538  -25.2783 C   0  0  0  0  0  0  0  0  0  0  0  0
  -12.2518    5.8575  -25.7493 C   0  0  0  0  0  0  0  0  0  0  0  0
  -13.3608    5.0521  -25.4774 C   0  0  0  0  0  0  0  0  0  0  0  0
  -13.1512    3.9184  -24.7055 C   0  0  0  0  0  0  0  0  0  0  0  0
  -11.8912    3.6338  -24.2462 C   0  0  0  0  0  0  0  0  0  0  0  0
  -10.7995    4.4269  -24.5135 C   0  0  0  0  0  0  0  0  0  0  0  0
  5  6  1  0  0  0
  6  7  1  0  0  0
  7  8  1  0  0  0
  8  1  1  0  0  0
  8  9  1  0  0  0
  1  2  2  0  0  0
  1  3  1  0  0  0
  3 18  1  0  0  0
  3  4  1  0  0  0
 18 19  2  0  0  0
 19 20  1  0  0  0
 20 21  2  0  0  0
 21 22  1  0  0  0
 22 23  2  0  0  0
 23 24  1  0  0  0
 24 25  2  0  0  0
 25 26  1  0  0  0
 26 27  2  0  0  0
 27 18  1  0  0  0
 27 22  1  0  0  0
  9 10  2  0  0  0
 10 11  1  0  0  0
 11 12  1  0  0  0
 11 13  2  0  0  0
 13 14  1  0  0  0
 14 15  2  0  0  0
 15 16  1  0  0  0
 15  9  1  0  0  0
 16 17  2  0  0  0
 16  6  1  0  0  0
M  END
> <minimizedAffinity>
-6.70161

> <CNNscore>
0.2874222398

> <CNNaffinity>
5.3144760132

> <CNN_VS>
1.5274986029

> <CNNaffinity_variance>
0.1428320855

$$$$



 27 30  0  0  0  0  0  0  0  0999 V2000
   -8.3827   -0.3078  -21.8348 C   0  0  0  0  0  0  0  0  0  0  0  0
   -8.4815    0.9009  -21.4900 O   0  0  0  0  0  0  0  0  0  0  0  0
   -7.3618   -1.0791  -21.2138 N   0  0  0  0  0  0  0  0  0  0  0  0
   -7.2702   -2.0238  -21.4754 H   0  0  0  0  0  0  0  0  0  0  0  0
  -12.2129   -3.0066  -23.1210 C   0  0  0  0  0  0  0  0  0  0  0  0
  -10.7797   -2.7811  -23.2369 N   0  0  0  0  0  0  0  0  0  0  0  0
   -9.9891   -2.1387  -22.2365 C   0  0  0  0  0  0  0  0  0  0  0  0
   -9.3126   -0.9100  -22.8617 C   0  0  0  0  0  0  0  0  0  0  0  0
   -8.6322   -1.3446  -24.0761 C   0  0  0  0  0  0  0  0  0  0  0  0
   -7.5376   -0.5988  -24.5213 C   0  0  0  0  0  0  0  0  0  0  0  0
   -6.8300   -0.9280  -25.6504 C   0  0  0  0  0  0  0  0  0  0  0  0
   -5.4652    0.0745  -26.1295 Cl  0  0  0  0  0  0  0  0  0  0  0  0
   -7.2046   -2.0357  -26.3825 C   0  0  0  0  0  0  0  0  0  0  0  0
   -8.2753   -2.8019  -25.9862 C   0  0  0  0  0  0  0  0  0  0  0  0
   -8.9599   -2.4369  -24.8458 C   0  0  0  0  0  0  0  0  0  0  0  0
  -10.1077   -3.2305  -24.4235 C   0  0  0  0  0  0  0  0  0  0  0  0
  -10.5078   -4.2542  -25.0445 O   0  0  0  0  0  0  0  0  0  0  0  0
   -6.4688   -0.5662  -20.2400 C   0  0  0  0  0  0  0  0  0  0  0  0
   -6.7937   -0.7541  -18.8915 C   0  0  0  0  0  0  0  0  0  0  0  0
   -6.0150   -0.3085  -17.9055 N   0  0  0  0  0  0  0  0  0  0  0  0
   -4.8927    0.3355  -18.1997 C   0  0  0  0  0  0  0  0  0  0  0  0
   -4.4877    0.5690  -19.5007 C   0  0  0  0  0  0  0  0  0  0  0  0
   -3.3243    1.2329  -19.8224 C   0  0  0  0  0  0  0  0  0  0  0  0
   -2.9364    1.4524  -21.1468 C   0  0  0  0  0  0  0  0  0  0  0  0
   -3.7734    0.9728  -22.1439 C   0  0  0  0  0  0  0  0  0  0  0  0
   -4.9268    0.3147  -21.8030 C   0  0  0  0  0  0  0  0  0  0  0  0
   -5.3090    0.0990  -20.4993 C   0  0  0  0  0  0  0  0  0  0  0  0
  5  6  1  0  0  0
  6  7  1  0  0  0
  7  8  1  0  0  0
  8  1  1  0  0  0
  8  9  1  0  0  0
  1  2  2  0  0  0
  1  3  1  0  0  0
  3 18  1  0  0  0
  3  4  1  0  0  0
 18 19  2  0  0  0
 19 20  1  0  0  0
 20 21  2  0  0  0
 21 22  1  0  0  0
 22 23  2  0  0  0
 23 24  1  0  0  0
 24 25  2  0  0  0
 25 26  1  0  0  0
 26 27  2  0  0  0
 27 18  1  0  0  0
 27 22  1  0  0  0
  9 10  2  0  0  0
 10 11  1  0  0  0
 11 12  1  0  0  0
 11 13  2  0  0  0
 13 14  1  0  0  0
 14 15  2  0  0  0
 15 16  1  0  0  0
 15  9  1  0  0  0
 16 17  2  0  0  0
 16  6  1  0  0  0
M  END
> <minimizedAffinity>
-7.60230

> <CNNscore>
0.2753009498

> <CNNaffinity>
5.3505949974

> <CNN_VS>
1.4730238914

> <CNNaffinity_variance>
0.1085719839

$$$$



 27 30  0  0  0  0  0  0  0  0999 V2000
   -7.9063   -0.7744  -23.5919 C   0  0  0  0  0  0  0  0  0  0  0  0
   -8.2268   -0.7962  -24.8111 O   0  0  0  0  0  0  0  0  0  0  0  0
   -8.6597    0.0770  -22.7373 N   0  0  0  0  0  0  0  0  0  0  0  0
   -8.4189    0.1072  -21.7831 H   0  0  0  0  0  0  0  0  0  0  0  0
   -5.9919   -5.0036  -22.1577 C   0  0  0  0  0  0  0  0  0  0  0  0
   -6.3151   -3.6268  -21.8140 N   0  0  0  0  0  0  0  0  0  0  0  0
   -7.3706   -2.8795  -22.4191 C   0  0  0  0  0  0  0  0  0  0  0  0
   -6.7721   -1.6203  -23.0629 C   0  0  0  0  0  0  0  0  0  0  0  0
   -5.9654   -0.9436  -22.0541 C   0  0  0  0  0  0  0  0  0  0  0  0
   -5.7683    0.4339  -22.1830 C   0  0  0  0  0  0  0  0  0  0  0  0
   -5.0281    1.1610  -21.2845 C   0  0  0  0  0  0  0  0  0  0  0  0
   -4.8379    2.8928  -21.5332 Cl  0  0  0  0  0  0  0  0  0  0  0  0
   -4.4511    0.5182  -20.2087 C   0  0  0  0  0  0  0  0  0  0  0  0
   -4.6152   -0.8363  -20.0380 C   0  0  0  0  0  0  0  0  0  0  0  0
   -5.3663   -1.5303  -20.9635 C   0  0  0  0  0  0  0  0  0  0  0  0
   -5.5342   -2.9697  -20.8040 C   0  0  0  0  0  0  0  0  0  0  0  0
   -5.0344   -3.6232  -19.8465 O   0  0  0  0  0  0  0  0  0  0  0  0
   -9.7371    0.8845  -23.1800 C   0  0  0  0  0  0  0  0  0  0  0  0
   -9.4544    2.2029  -23.5557 C   0  0  0  0  0  0  0  0  0  0  0  0
  -10.4018    3.0364  -23.9861 N   0  0  0  0  0  0  0  0  0  0  0  0
  -11.6571    2.6136  -24.0650 C   0  0  0  0  0  0  0  0  0  0  0  0
  -12.0334    1.3298  -23.7167 C   0  0  0  0  0  0  0  0  0  0  0  0
  -13.3314    0.8749  -23.7962 C   0  0  0  0  0  0  0  0  0  0  0  0
  -13.6842   -0.4297  -23.4410 C   0  0  0  0  0  0  0  0  0  0  0  0
  -12.6695   -1.2663  -22.9988 C   0  0  0  0  0  0  0  0  0  0  0  0
  -11.3843   -0.7945  -22.9268 C   0  0  0  0  0  0  0  0  0  0  0  0
  -11.0371    0.4899  -23.2760 C   0  0  0  0  0  0  0  0  0  0  0  0
  5  6  1  0  0  0
  6  7  1  0  0  0
  7  8  1  0  0  0
  8  1  1  0  0  0
  8  9  1  0  0  0
  1  2  2  0  0  0
  1  3  1  0  0  0
  3 18  1  0  0  0
  3  4  1  0  0  0
 18 19  2  0  0  0
 19 20  1  0  0  0
 20 21  2  0  0  0
 21 22  1  0  0  0
 22 23  2  0  0  0
 23 24  1  0  0  0
 24 25  2  0  0  0
 25 26  1  0  0  0
 26 27  2  0  0  0
 27 18  1  0  0  0
 27 22  1  0  0  0
  9 10  2  0  0  0
 10 11  1  0  0  0
 11 12  1  0  0  0
 11 13  2  0  0  0
 13 14  1  0  0  0
 14 15  2  0  0  0
 15 16  1  0  0  0
 15  9  1  0  0  0
 16 17  2  0  0  0
 16  6  1  0  0  0
M  END
> <minimizedAffinity>
-7.02986

> <CNNscore>
0.2479507923

> <CNNaffinity>
5.4000868797

> <CNN_VS>
1.3389558792

> <CNNaffinity_variance>
0.2112092078

$$$$



 27 30  0  0  0  0  0  0  0  0999 V2000
   -8.4842   -2.7801  -25.3857 C   0  0  0  0  0  0  0  0  0  0  0  0
   -9.4470   -3.0787  -26.1431 O   0  0  0  0  0  0  0  0  0  0  0  0
   -8.8041   -2.2096  -24.1228 N   0  0  0  0  0  0  0  0  0  0  0  0
   -8.0627   -1.9680  -23.5217 H   0  0  0  0  0  0  0  0  0  0  0  0
   -4.7011   -2.1521  -28.3692 C   0  0  0  0  0  0  0  0  0  0  0  0
   -5.6169   -3.0877  -27.7335 N   0  0  0  0  0  0  0  0  0  0  0  0
   -6.9374   -2.7489  -27.3093 C   0  0  0  0  0  0  0  0  0  0  0  0
   -7.0527   -3.0223  -25.8026 C   0  0  0  0  0  0  0  0  0  0  0  0
   -6.6012   -4.3876  -25.5608 C   0  0  0  0  0  0  0  0  0  0  0  0
   -7.0915   -5.0543  -24.4348 C   0  0  0  0  0  0  0  0  0  0  0  0
   -6.7295   -6.3410  -24.1228 C   0  0  0  0  0  0  0  0  0  0  0  0
   -7.4020   -7.0953  -22.6820 Cl  0  0  0  0  0  0  0  0  0  0  0  0
   -5.8479   -7.0122  -24.9448 C   0  0  0  0  0  0  0  0  0  0  0  0
   -5.3369   -6.3994  -26.0646 C   0  0  0  0  0  0  0  0  0  0  0  0
   -5.7259   -5.1056  -26.3425 C   0  0  0  0  0  0  0  0  0  0  0  0
   -5.1786   -4.4379  -27.5173 C   0  0  0  0  0  0  0  0  0  0  0  0
   -4.3673   -4.9892  -28.3120 O   0  0  0  0  0  0  0  0  0  0  0  0
  -10.1286   -1.9686  -23.6796 C   0  0  0  0  0  0  0  0  0  0  0  0
  -10.8802   -3.0644  -23.2395 C   0  0  0  0  0  0  0  0  0  0  0  0
  -12.1335   -2.9358  -22.8035 N   0  0  0  0  0  0  0  0  0  0  0  0
  -12.6973   -1.7348  -22.7813 C   0  0  0  0  0  0  0  0  0  0  0  0
  -12.0353   -0.5939  -23.1953 C   0  0  0  0  0  0  0  0  0  0  0  0
  -12.6055    0.6600  -23.1753 C   0  0  0  0  0  0  0  0  0  0  0  0
  -11.9123    1.7979  -23.5963 C   0  0  0  0  0  0  0  0  0  0  0  0
  -10.6103    1.6223  -24.0423 C   0  0  0  0  0  0  0  0  0  0  0  0
  -10.0610    0.3662  -24.0545 C   0  0  0  0  0  0  0  0  0  0  0  0
  -10.7435   -0.7540  -23.6405 C   0  0  0  0  0  0  0  0  0  0  0  0
  5  6  1  0  0  0
  6  7  1  0  0  0
  7  8  1  0  0  0
  8  1  1  0  0  0
  8  9  1  0  0  0
  1  2  2  0  0  0
  1  3  1  0  0  0
  3 18  1  0  0  0
  3  4  1  0  0  0
 18 19  2  0  0  0
 19 20  1  0  0  0
 20 21  2  0  0  0
 21 22  1  0  0  0
 22 23  2  0  0  0
 23 24  1  0  0  0
 24 25  2  0  0  0
 25 26  1  0  0  0
 26 27  2  0  0  0
 27 18  1  0  0  0
 27 22  1  0  0  0
  9 10  2  0  0  0
 10 11  1  0  0  0
 11 12  1  0  0  0
 11 13  2  0  0  0
 13 14  1  0  0  0
 14 15  2  0  0  0
 15 16  1  0  0  0
 15  9  1  0  0  0
 16 17  2  0  0  0
 16  6  1  0  0  0
M  END
> <minimizedAffinity>
-6.38509

> <CNNscore>
0.2393210679

> <CNNaffinity>
5.1533765793

> <CNN_VS>
1.2333115339

> <CNNaffinity_variance>
0.1575663537

$$$$



 39 44  0  0  0  0  0  0  0  0999 V2000
   -8.6499   -3.3638  -23.8960 N   0  0  0  0  0  0  0  0  0  0  0  0
   -7.7786   -2.6372  -23.0326 C   0  0  0  0  0  0  0  0  0  0  0  0
   -8.2118   -1.2601  -22.7579 C   0  0  0  0  0  0  0  0  0  0  0  0
   -7.3928   -0.3841  -23.7115 C   0  0  0  0  0  0  0  0  0  0  0  0
   -7.8046    0.2433  -24.7052 O   0  0  0  0  0  0  0  0  0  0  0  0
   -6.0773   -0.4866  -23.1592 N   0  0  0  0  0  0  0  0  0  0  0  0
   -6.1588   -0.8609  -21.7545 C   0  0  0  0  0  0  0  0  0  0  0  0
   -7.6681   -0.7075  -21.4572 C   0  0  0  0  0  0  0  0  0  0  0  0
   -9.5962   -0.9753  -23.0449 C   0  0  0  0  0  0  0  0  0  0  0  0
  -10.1205    0.2517  -22.6319 C   0  0  0  0  0  0  0  0  0  0  0  0
  -11.4582    0.5834  -22.8837 C   0  0  0  0  0  0  0  0  0  0  0  0
  -12.1078    2.1359  -22.3566 Cl  0  0  0  0  0  0  0  0  0  0  0  0
  -12.3159   -0.2670  -23.5411 C   0  0  0  0  0  0  0  0  0  0  0  0
  -11.8046   -1.4759  -23.9500 C   0  0  0  0  0  0  0  0  0  0  0  0
  -10.5008   -1.7877  -23.6995 C   0  0  0  0  0  0  0  0  0  0  0  0
  -10.0069   -3.0758  -24.1633 C   0  0  0  0  0  0  0  0  0  0  0  0
  -10.7299   -3.8917  -24.7656 O   0  0  0  0  0  0  0  0  0  0  0  0
   -4.8854   -0.2477  -23.9097 C   0  0  0  0  0  0  0  0  0  0  0  0
   -4.0780    0.8555  -23.6270 C   0  0  0  0  0  0  0  0  0  0  0  0
   -2.9504    1.1119  -24.3115 N   0  0  0  0  0  0  0  0  0  0  0  0
   -2.5228    0.3345  -25.3061 C   0  0  0  0  0  0  0  0  0  0  0  0
   -3.3045   -0.7767  -25.6160 C   0  0  0  0  0  0  0  0  0  0  0  0
   -2.8546   -1.5744  -26.6454 C   0  0  0  0  0  0  0  0  0  0  0  0
   -3.6239   -2.6781  -26.9590 C   0  0  0  0  0  0  0  0  0  0  0  0
   -4.7887   -2.9919  -26.2931 C   0  0  0  0  0  0  0  0  0  0  0  0
   -5.2185   -2.1771  -25.2653 C   0  0  0  0  0  0  0  0  0  0  0  0
   -4.4679   -1.0693  -24.9334 C   0  0  0  0  0  0  0  0  0  0  0  0
   -8.0946   -4.5471  -24.5660 C   0  0  0  0  0  0  0  0  0  0  0  0
   -9.5223   -5.6773  -28.0139 C   0  0  0  0  0  0  0  0  0  0  0  0
   -9.1959   -5.6483  -26.6003 N   0  0  0  0  0  0  0  0  0  0  0  0
   -8.4445   -4.6128  -25.9917 C   0  0  0  0  0  0  0  0  0  0  0  0
   -8.0473   -3.6764  -26.7397 O   0  0  0  0  0  0  0  0  0  0  0  0
   -9.5137   -6.3880  -26.0336 H   0  0  0  0  0  0  0  0  0  0  0  0
   -7.9567   -1.4931  -20.2358 C   0  0  0  0  0  0  0  0  0  0  0  0
   -6.9510   -1.0708  -19.1818 C   0  0  0  0  0  0  0  0  0  0  0  0
   -6.8099    0.1428  -18.6297 N   0  0  0  0  0  0  0  0  0  0  0  0
   -5.8039    0.0630  -17.7509 N   0  0  0  0  0  0  0  0  0  0  0  0
   -5.3117   -1.1574  -17.7348 N   0  0  0  0  0  0  0  0  0  0  0  0
   -6.0105   -1.8384  -18.6031 N   0  0  0  0  0  0  0  0  0  0  0  0
 29 30  1  0  0  0
 30 31  1  0  0  0
 30 33  1  0  0  0
 31 32  2  0  0  0
 31 28  1  0  0  0
 28  1  1  0  0  0
  1  2  1  0  0  0
  3  2  1  0  0  0
  3  4  1  0  0  0
  3  9  1  0  0  0
  4  5  2  0  0  0
  4  6  1  0  0  0
  6 18  1  0  0  0
  6  7  1  0  0  0
 18 19  2  0  0  0
 19 20  1  0  0  0
 20 21  2  0  0  0
 21 22  1  0  0  0
 22 23  2  0  0  0
 23 24  1  0  0  0
 24 25  2  0  0  0
 25 26  1  0  0  0
 26 27  2  0  0  0
 27 18  1  0  0  0
 27 22  1  0  0  0
  7  8  1  0  0  0
  8 34  1  0  0  0
  8  3  1  0  0  0
 34 35  1  0  0  0
 35 36  1  0  0  0
 36 37  2  0  0  0
 37 38  1  0  0  0
 38 39  1  0  0  0
 39 35  2  0  0  0
  9 10  2  0  0  0
 10 11  1  0  0  0
 11 12  1  0  0  0
 11 13  2  0  0  0
 13 14  1  0  0  0
 14 15  2  0  0  0
 15 16  1  0  0  0
 15  9  1  0  0  0
 16 17  2  0  0  0
 16  1  1  0  0  0
M  CHG 1  38  -1
M  END
> <minimizedAffinity>
-8.05928

> <CNNscore>
0.4783707261

> <CNNaffinity>
6.7291259766

> <CNN_VS>
3.2190167904

> <CNNaffinity_variance>
0.2484896928

$$$$



 39 44  0  0  0  0  0  0  0  0999 V2000
   -6.3031   -1.1027  -26.0874 N   0  0  0  0  0  0  0  0  0  0  0  0
   -6.7687   -0.8416  -24.7655 C   0  0  0  0  0  0  0  0  0  0  0  0
   -7.1849   -2.0403  -24.0245 C   0  0  0  0  0  0  0  0  0  0  0  0
   -8.7109   -2.0831  -24.1550 C   0  0  0  0  0  0  0  0  0  0  0  0
   -9.3923   -2.8935  -24.8106 O   0  0  0  0  0  0  0  0  0  0  0  0
   -9.1133   -0.9756  -23.3441 N   0  0  0  0  0  0  0  0  0  0  0  0
   -8.0682   -0.6637  -22.3797 C   0  0  0  0  0  0  0  0  0  0  0  0
   -7.1145   -1.8721  -22.5213 C   0  0  0  0  0  0  0  0  0  0  0  0
   -6.7046   -3.2942  -24.5510 C   0  0  0  0  0  0  0  0  0  0  0  0
   -6.9020   -4.4509  -23.7934 C   0  0  0  0  0  0  0  0  0  0  0  0
   -6.4574   -5.6971  -24.2545 C   0  0  0  0  0  0  0  0  0  0  0  0
   -6.7127   -7.1499  -23.2880 Cl  0  0  0  0  0  0  0  0  0  0  0  0
   -5.8124   -5.8482  -25.4596 C   0  0  0  0  0  0  0  0  0  0  0  0
   -5.6160   -4.7127  -26.2092 C   0  0  0  0  0  0  0  0  0  0  0  0
   -6.0533   -3.5052  -25.7501 C   0  0  0  0  0  0  0  0  0  0  0  0
   -5.8298   -2.3362  -26.5878 C   0  0  0  0  0  0  0  0  0  0  0  0
   -5.2536   -2.4035  -27.6899 O   0  0  0  0  0  0  0  0  0  0  0  0
  -10.3654   -0.3035  -23.4912 C   0  0  0  0  0  0  0  0  0  0  0  0
  -10.4177    0.9969  -23.9964 C   0  0  0  0  0  0  0  0  0  0  0  0
  -11.5766    1.6599  -24.1487 N   0  0  0  0  0  0  0  0  0  0  0  0
  -12.7554    1.1262  -23.8295 C   0  0  0  0  0  0  0  0  0  0  0  0
  -12.7411   -0.1714  -23.3217 C   0  0  0  0  0  0  0  0  0  0  0  0
  -13.9643   -0.7148  -22.9947 C   0  0  0  0  0  0  0  0  0  0  0  0
  -13.9589   -2.0009  -22.4905 C   0  0  0  0  0  0  0  0  0  0  0  0
  -12.8034   -2.7298  -22.3122 C   0  0  0  0  0  0  0  0  0  0  0  0
  -11.5901   -2.1634  -22.6475 C   0  0  0  0  0  0  0  0  0  0  0  0
  -11.5693   -0.8807  -23.1526 C   0  0  0  0  0  0  0  0  0  0  0  0
   -6.2916    0.0253  -27.0282 C   0  0  0  0  0  0  0  0  0  0  0  0
   -4.8607    3.4435  -25.8148 C   0  0  0  0  0  0  0  0  0  0  0  0
   -5.7886    2.4032  -26.2179 N   0  0  0  0  0  0  0  0  0  0  0  0
   -5.3843    1.1046  -26.6147 C   0  0  0  0  0  0  0  0  0  0  0  0
   -4.1449    0.8633  -26.6105 O   0  0  0  0  0  0  0  0  0  0  0  0
   -6.7510    2.6110  -26.2156 H   0  0  0  0  0  0  0  0  0  0  0  0
   -5.8044   -1.4646  -21.9646 C   0  0  0  0  0  0  0  0  0  0  0  0
   -5.6680   -2.1257  -20.6064 C   0  0  0  0  0  0  0  0  0  0  0  0
   -5.1746   -3.3431  -20.3383 N   0  0  0  0  0  0  0  0  0  0  0  0
   -5.2443   -3.5152  -19.0131 N   0  0  0  0  0  0  0  0  0  0  0  0
   -5.7639   -2.4483  -18.4440 N   0  0  0  0  0  0  0  0  0  0  0  0
   -6.0181   -1.6113  -19.4141 N   0  0  0  0  0  0  0  0  0  0  0  0
 29 30  1  0  0  0
 30 31  1  0  0  0
 30 33  1  0  0  0
 31 32  2  0  0  0
 31 28  1  0  0  0
 28  1  1  0  0  0
  1  2  1  0  0  0
  3  2  1  0  0  0
  3  4  1  0  0  0
  3  9  1  0  0  0
  4  5  2  0  0  0
  4  6  1  0  0  0
  6 18  1  0  0  0
  6  7  1  0  0  0
 18 19  2  0  0  0
 19 20  1  0  0  0
 20 21  2  0  0  0
 21 22  1  0  0  0
 22 23  2  0  0  0
 23 24  1  0  0  0
 24 25  2  0  0  0
 25 26  1  0  0  0
 26 27  2  0  0  0
 27 18  1  0  0  0
 27 22  1  0  0  0
  7  8  1  0  0  0
  8 34  1  0  0  0
  8  3  1  0  0  0
 34 35  1  0  0  0
 35 36  1  0  0  0
 36 37  2  0  0  0
 37 38  1  0  0  0
 38 39  1  0  0  0
 39 35  2  0  0  0
  9 10  2  0  0  0
 10 11  1  0  0  0
 11 12  1  0  0  0
 11 13  2  0  0  0
 13 14  1  0  0  0
 14 15  2  0  0  0
 15 16  1  0  0  0
 15  9  1  0  0  0
 16 17  2  0  0  0
 16  1  1  0  0  0
M  CHG 1  38  -1
M  END
> <minimizedAffinity>
-8.03200

> <CNNscore>
0.4377488792

> <CNNaffinity>
6.7570929527

> <CNN_VS>
2.9579098225

> <CNNaffinity_variance>
0.0403249636

$$$$



 39 44  0  0  0  0  0  0  0  0999 V2000
   -7.9789   -2.5215  -23.5984 N   0  0  0  0  0  0  0  0  0  0  0  0
   -7.9632   -1.1914  -24.1111 C   0  0  0  0  0  0  0  0  0  0  0  0
   -7.4128   -0.1935  -23.1833 C   0  0  0  0  0  0  0  0  0  0  0  0
   -8.6335    0.4672  -22.5343 C   0  0  0  0  0  0  0  0  0  0  0  0
   -9.0181    0.3541  -21.3553 O   0  0  0  0  0  0  0  0  0  0  0  0
   -9.1817    1.2191  -23.6206 N   0  0  0  0  0  0  0  0  0  0  0  0
   -8.1487    1.4781  -24.6135 C   0  0  0  0  0  0  0  0  0  0  0  0
   -6.8632    1.0344  -23.8784 C   0  0  0  0  0  0  0  0  0  0  0  0
   -6.6225   -0.7224  -22.0991 C   0  0  0  0  0  0  0  0  0  0  0  0
   -5.9156    0.1742  -21.2945 C   0  0  0  0  0  0  0  0  0  0  0  0
   -5.1318   -0.2819  -20.2265 C   0  0  0  0  0  0  0  0  0  0  0  0
   -4.2440    0.8607  -19.2185 Cl  0  0  0  0  0  0  0  0  0  0  0  0
   -5.0167   -1.6166  -19.9158 C   0  0  0  0  0  0  0  0  0  0  0  0
   -5.7108   -2.5031  -20.7045 C   0  0  0  0  0  0  0  0  0  0  0  0
   -6.4707   -2.0474  -21.7413 C   0  0  0  0  0  0  0  0  0  0  0  0
   -7.1940   -3.0272  -22.5382 C   0  0  0  0  0  0  0  0  0  0  0  0
   -7.1344   -4.2502  -22.3100 O   0  0  0  0  0  0  0  0  0  0  0  0
  -10.5469    1.6354  -23.6827 C   0  0  0  0  0  0  0  0  0  0  0  0
  -11.5792    0.7028  -23.5660 C   0  0  0  0  0  0  0  0  0  0  0  0
  -12.8742    1.0575  -23.6196 N   0  0  0  0  0  0  0  0  0  0  0  0
  -13.2654    2.3205  -23.7875 C   0  0  0  0  0  0  0  0  0  0  0  0
  -12.2611    3.2789  -23.9079 C   0  0  0  0  0  0  0  0  0  0  0  0
  -12.6751    4.5816  -24.0811 C   0  0  0  0  0  0  0  0  0  0  0  0
  -11.6856    5.5380  -24.2014 C   0  0  0  0  0  0  0  0  0  0  0  0
  -10.3423    5.2349  -24.1542 C   0  0  0  0  0  0  0  0  0  0  0  0
   -9.9528    3.9223  -23.9797 C   0  0  0  0  0  0  0  0  0  0  0  0
  -10.9218    2.9493  -23.8573 C   0  0  0  0  0  0  0  0  0  0  0  0
   -8.8872   -3.4776  -24.2453 C   0  0  0  0  0  0  0  0  0  0  0  0
  -12.3463   -2.6585  -22.6429 C   0  0  0  0  0  0  0  0  0  0  0  0
  -10.9425   -2.9935  -22.7944 N   0  0  0  0  0  0  0  0  0  0  0  0
  -10.3042   -3.1406  -24.0506 C   0  0  0  0  0  0  0  0  0  0  0  0
  -11.0154   -2.9675  -25.0794 O   0  0  0  0  0  0  0  0  0  0  0  0
  -10.4047   -3.1255  -21.9803 H   0  0  0  0  0  0  0  0  0  0  0  0
   -5.8271    0.7992  -24.9096 C   0  0  0  0  0  0  0  0  0  0  0  0
   -4.4787    1.0127  -24.2488 C   0  0  0  0  0  0  0  0  0  0  0  0
   -3.5234    0.0974  -24.0317 N   0  0  0  0  0  0  0  0  0  0  0  0
   -2.5075    0.7223  -23.4248 N   0  0  0  0  0  0  0  0  0  0  0  0
   -2.7947    1.9954  -23.2552 N   0  0  0  0  0  0  0  0  0  0  0  0
   -3.9891    2.1644  -23.7561 N   0  0  0  0  0  0  0  0  0  0  0  0
 29 30  1  0  0  0
 30 31  1  0  0  0
 30 33  1  0  0  0
 31 32  2  0  0  0
 31 28  1  0  0  0
 28  1  1  0  0  0
  1  2  1  0  0  0
  3  2  1  0  0  0
  3  4  1  0  0  0
  3  9  1  0  0  0
  4  5  2  0  0  0
  4  6  1  0  0  0
  6 18  1  0  0  0
  6  7  1  0  0  0
 18 19  2  0  0  0
 19 20  1  0  0  0
 20 21  2  0  0  0
 21 22  1  0  0  0
 22 23  2  0  0  0
 23 24  1  0  0  0
 24 25  2  0  0  0
 25 26  1  0  0  0
 26 27  2  0  0  0
 27 18  1  0  0  0
 27 22  1  0  0  0
  7  8  1  0  0  0
  8 34  1  0  0  0
  8  3  1  0  0  0
 34 35  1  0  0  0
 35 36  1  0  0  0
 36 37  2  0  0  0
 37 38  1  0  0  0
 38 39  1  0  0  0
 39 35  2  0  0  0
  9 10  2  0  0  0
 10 11  1  0  0  0
 11 12  1  0  0  0
 11 13  2  0  0  0
 13 14  1  0  0  0
 14 15  2  0  0  0
 15 16  1  0  0  0
 15  9  1  0  0  0
 16 17  2  0  0  0
 16  1  1  0  0  0
M  CHG 1  38  -1
M  END
> <minimizedAffinity>
-8.43081

> <CNNscore>
0.3990784883

> <CNNaffinity>
6.5182752609

> <CNN_VS>
2.6013033390

> <CNNaffinity_variance>
0.1108403578

$$$$



 39 44  0  0  0  0  0  0  0  0999 V2000
   -7.4112   -2.0052  -26.1332 N   0  0  0  0  0  0  0  0  0  0  0  0
   -7.7198   -1.6743  -24.7813 C   0  0  0  0  0  0  0  0  0  0  0  0
   -7.8714   -2.8366  -23.8950 C   0  0  0  0  0  0  0  0  0  0  0  0
   -9.3823   -3.0694  -23.7934 C   0  0  0  0  0  0  0  0  0  0  0  0
  -10.0371   -4.0130  -24.2748 O   0  0  0  0  0  0  0  0  0  0  0  0
   -9.8088   -1.9436  -23.0209 N   0  0  0  0  0  0  0  0  0  0  0  0
   -8.6898   -1.4207  -22.2500 C   0  0  0  0  0  0  0  0  0  0  0  0
   -7.6167   -2.5176  -22.4369 C   0  0  0  0  0  0  0  0  0  0  0  0
   -7.3103   -4.0707  -24.3873 C   0  0  0  0  0  0  0  0  0  0  0  0
   -7.2501   -5.1643  -23.5206 C   0  0  0  0  0  0  0  0  0  0  0  0
   -6.7160   -6.3886  -23.9437 C   0  0  0  0  0  0  0  0  0  0  0  0
   -6.6456   -7.7616  -22.8392 Cl  0  0  0  0  0  0  0  0  0  0  0  0
   -6.2293   -6.5786  -25.2157 C   0  0  0  0  0  0  0  0  0  0  0  0
   -6.2866   -5.5053  -26.0728 C   0  0  0  0  0  0  0  0  0  0  0  0
   -6.8088   -4.3186  -25.6498 C   0  0  0  0  0  0  0  0  0  0  0  0
   -6.8560   -3.2174  -26.6003 C   0  0  0  0  0  0  0  0  0  0  0  0
   -6.4335   -3.3226  -27.7672 O   0  0  0  0  0  0  0  0  0  0  0  0
  -11.1455   -1.4394  -23.0322 C   0  0  0  0  0  0  0  0  0  0  0  0
  -12.2206   -2.2718  -22.7154 C   0  0  0  0  0  0  0  0  0  0  0  0
  -13.4906   -1.8326  -22.7156 N   0  0  0  0  0  0  0  0  0  0  0  0
  -13.8146   -0.5755  -23.0172 C   0  0  0  0  0  0  0  0  0  0  0  0
  -12.7660    0.2840  -23.3389 C   0  0  0  0  0  0  0  0  0  0  0  0
  -13.1106    1.5815  -23.6492 C   0  0  0  0  0  0  0  0  0  0  0  0
  -12.0768    2.4401  -23.9693 C   0  0  0  0  0  0  0  0  0  0  0  0
  -10.7561    2.0477  -23.9859 C   0  0  0  0  0  0  0  0  0  0  0  0
  -10.4364    0.7423  -23.6712 C   0  0  0  0  0  0  0  0  0  0  0  0
  -11.4506   -0.1340  -23.3483 C   0  0  0  0  0  0  0  0  0  0  0  0
   -7.6755   -0.9792  -27.1506 C   0  0  0  0  0  0  0  0  0  0  0  0
   -7.6110    2.7454  -25.9988 C   0  0  0  0  0  0  0  0  0  0  0  0
   -8.0887    1.4355  -26.4010 N   0  0  0  0  0  0  0  0  0  0  0  0
   -7.2313    0.3599  -26.7401 C   0  0  0  0  0  0  0  0  0  0  0  0
   -5.9887    0.5768  -26.6833 O   0  0  0  0  0  0  0  0  0  0  0  0
   -9.0611    1.2862  -26.4402 H   0  0  0  0  0  0  0  0  0  0  0  0
   -6.3061   -1.9084  -22.1150 C   0  0  0  0  0  0  0  0  0  0  0  0
   -5.9265   -2.3698  -20.7209 C   0  0  0  0  0  0  0  0  0  0  0  0
   -5.2606   -3.4837  -20.3840 N   0  0  0  0  0  0  0  0  0  0  0  0
   -5.1471   -3.4887  -19.0507 N   0  0  0  0  0  0  0  0  0  0  0  0
   -5.7186   -2.4175  -18.5429 N   0  0  0  0  0  0  0  0  0  0  0  0
   -6.1883   -1.7447  -19.5592 N   0  0  0  0  0  0  0  0  0  0  0  0
 29 30  1  0  0  0
 30 31  1  0  0  0
 30 33  1  0  0  0
 31 32  2  0  0  0
 31 28  1  0  0  0
 28  1  1  0  0  0
  1  2  1  0  0  0
  3  2  1  0  0  0
  3  4  1  0  0  0
  3  9  1  0  0  0
  4  5  2  0  0  0
  4  6  1  0  0  0
  6 18  1  0  0  0
  6  7  1  0  0  0
 18 19  2  0  0  0
 19 20  1  0  0  0
 20 21  2  0  0  0
 21 22  1  0  0  0
 22 23  2  0  0  0
 23 24  1  0  0  0
 24 25  2  0  0  0
 25 26  1  0  0  0
 26 27  2  0  0  0
 27 18  1  0  0  0
 27 22  1  0  0  0
  7  8  1  0  0  0
  8 34  1  0  0  0
  8  3  1  0  0  0
 34 35  1  0  0  0
 35 36  1  0  0  0
 36 37  2  0  0  0
 37 38  1  0  0  0
 38 39  1  0  0  0
 39 35  2  0  0  0
  9 10  2  0  0  0
 10 11  1  0  0  0
 11 12  1  0  0  0
 11 13  2  0  0  0
 13 14  1  0  0  0
 14 15  2  0  0  0
 15 16  1  0  0  0
 15  9  1  0  0  0
 16 17  2  0  0  0
 16  1  1  0  0  0
M  CHG 1  38  -1
M  END
> <minimizedAffinity>
-9.13475

> <CNNscore>
0.3443831205

> <CNNaffinity>
6.6892151833

> <CNN_VS>
2.3036527634

> <CNNaffinity_variance>
0.1236446351

$$$$



 39 44  0  0  0  0  0  0  0  0999 V2000
   -7.3414    0.5028  -25.1841 N   0  0  0  0  0  0  0  0  0  0  0  0
   -7.8602   -0.3019  -24.1279 C   0  0  0  0  0  0  0  0  0  0  0  0
   -8.9525    0.3260  -23.3715 C   0  0  0  0  0  0  0  0  0  0  0  0
   -8.2921    0.8977  -22.1128 C   0  0  0  0  0  0  0  0  0  0  0  0
   -8.1117    2.0972  -21.8307 O   0  0  0  0  0  0  0  0  0  0  0  0
   -7.9567   -0.2868  -21.3846 N   0  0  0  0  0  0  0  0  0  0  0  0
   -8.8036   -1.3893  -21.8170 C   0  0  0  0  0  0  0  0  0  0  0  0
   -9.8616   -0.6733  -22.6876 C   0  0  0  0  0  0  0  0  0  0  0  0
   -9.5996    1.4385  -24.0224 C   0  0  0  0  0  0  0  0  0  0  0  0
  -10.7622    1.9581  -23.4484 C   0  0  0  0  0  0  0  0  0  0  0  0
  -11.4333    3.0386  -24.0359 C   0  0  0  0  0  0  0  0  0  0  0  0
  -12.9004    3.6849  -23.3012 Cl  0  0  0  0  0  0  0  0  0  0  0  0
  -10.9916    3.6383  -25.1919 C   0  0  0  0  0  0  0  0  0  0  0  0
   -9.8476    3.1308  -25.7606 C   0  0  0  0  0  0  0  0  0  0  0  0
   -9.2028    2.0788  -25.1796 C   0  0  0  0  0  0  0  0  0  0  0  0
   -7.9899    1.5871  -25.8164 C   0  0  0  0  0  0  0  0  0  0  0  0
   -7.5351    2.0854  -26.8633 O   0  0  0  0  0  0  0  0  0  0  0  0
   -6.9349   -0.3375  -20.3872 C   0  0  0  0  0  0  0  0  0  0  0  0
   -7.0617   -1.1833  -19.2839 C   0  0  0  0  0  0  0  0  0  0  0  0
   -6.1215   -1.2575  -18.3266 N   0  0  0  0  0  0  0  0  0  0  0  0
   -5.0042   -0.5316  -18.3611 C   0  0  0  0  0  0  0  0  0  0  0  0
   -4.8441    0.3245  -19.4489 C   0  0  0  0  0  0  0  0  0  0  0  0
   -3.6862    1.0708  -19.4759 C   0  0  0  0  0  0  0  0  0  0  0  0
   -3.5198    1.9221  -20.5510 C   0  0  0  0  0  0  0  0  0  0  0  0
   -4.4482    2.0409  -21.5622 C   0  0  0  0  0  0  0  0  0  0  0  0
   -5.6004    1.2824  -21.5124 C   0  0  0  0  0  0  0  0  0  0  0  0
   -5.7897    0.4252  -20.4493 C   0  0  0  0  0  0  0  0  0  0  0  0
   -6.0034    0.1655  -25.6876 C   0  0  0  0  0  0  0  0  0  0  0  0
   -3.9091    3.3432  -24.8390 C   0  0  0  0  0  0  0  0  0  0  0  0
   -4.9589    2.4801  -25.3476 N   0  0  0  0  0  0  0  0  0  0  0  0
   -4.9602    1.0722  -25.1888 C   0  0  0  0  0  0  0  0  0  0  0  0
   -3.9846    0.5639  -24.5692 O   0  0  0  0  0  0  0  0  0  0  0  0
   -5.7108    2.8952  -25.8289 H   0  0  0  0  0  0  0  0  0  0  0  0
  -10.4834   -1.6996  -23.5550 C   0  0  0  0  0  0  0  0  0  0  0  0
  -11.8914   -1.9300  -23.0402 C   0  0  0  0  0  0  0  0  0  0  0  0
  -12.9183   -1.0684  -23.0618 N   0  0  0  0  0  0  0  0  0  0  0  0
  -13.9662   -1.6879  -22.5061 N   0  0  0  0  0  0  0  0  0  0  0  0
  -13.6300   -2.9059  -22.1381 N   0  0  0  0  0  0  0  0  0  0  0  0
  -12.3729   -3.0459  -22.4642 N   0  0  0  0  0  0  0  0  0  0  0  0
 29 30  1  0  0  0
 30 31  1  0  0  0
 30 33  1  0  0  0
 31 32  2  0  0  0
 31 28  1  0  0  0
 28  1  1  0  0  0
  1  2  1  0  0  0
  3  2  1  0  0  0
  3  4  1  0  0  0
  3  9  1  0  0  0
  4  5  2  0  0  0
  4  6  1  0  0  0
  6 18  1  0  0  0
  6  7  1  0  0  0
 18 19  2  0  0  0
 19 20  1  0  0  0
 20 21  2  0  0  0
 21 22  1  0  0  0
 22 23  2  0  0  0
 23 24  1  0  0  0
 24 25  2  0  0  0
 25 26  1  0  0  0
 26 27  2  0  0  0
 27 18  1  0  0  0
 27 22  1  0  0  0
  7  8  1  0  0  0
  8 34  1  0  0  0
  8  3  1  0  0  0
 34 35  1  0  0  0
 35 36  1  0  0  0
 36 37  2  0  0  0
 37 38  1  0  0  0
 38 39  1  0  0  0
 39 35  2  0  0  0
  9 10  2  0  0  0
 10 11  1  0  0  0
 11 12  1  0  0  0
 11 13  2  0  0  0
 13 14  1  0  0  0
 14 15  2  0  0  0
 15 16  1  0  0  0
 15  9  1  0  0  0
 16 17  2  0  0  0
 16  1  1  0  0  0
M  CHG 1  38  -1
M  END
> <minimizedAffinity>
-8.56177

> <CNNscore>
0.3266411424

> <CNNaffinity>
6.4856834412

> <CNN_VS>
2.1184909344

> <CNNaffinity_variance>
0.1546507180

$$$$



 39 44  0  0  0  0  0  0  0  0999 V2000
  -10.1270   -0.3762  -23.5499 N   0  0  0  0  0  0  0  0  0  0  0  0
   -9.3400   -1.3577  -22.8793 C   0  0  0  0  0  0  0  0  0  0  0  0
   -7.9470   -0.9548  -22.6416 C   0  0  0  0  0  0  0  0  0  0  0  0
   -7.1412   -1.6137  -23.7659 C   0  0  0  0  0  0  0  0  0  0  0  0
   -6.5869   -1.0522  -24.7294 O   0  0  0  0  0  0  0  0  0  0  0  0
   -7.2033   -2.9975  -23.4094 N   0  0  0  0  0  0  0  0  0  0  0  0
   -7.4759   -3.1292  -21.9852 C   0  0  0  0  0  0  0  0  0  0  0  0
   -7.3022   -1.6791  -21.4786 C   0  0  0  0  0  0  0  0  0  0  0  0
   -7.6840    0.4599  -22.7391 C   0  0  0  0  0  0  0  0  0  0  0  0
   -6.4308    0.9308  -22.3409 C   0  0  0  0  0  0  0  0  0  0  0  0
   -6.1186    2.2947  -22.4139 C   0  0  0  0  0  0  0  0  0  0  0  0
   -4.5325    2.8761  -21.9076 Cl  0  0  0  0  0  0  0  0  0  0  0  0
   -7.0143    3.2308  -22.8747 C   0  0  0  0  0  0  0  0  0  0  0  0
   -8.2492    2.7724  -23.2683 C   0  0  0  0  0  0  0  0  0  0  0  0
   -8.5417    1.4424  -23.1928 C   0  0  0  0  0  0  0  0  0  0  0  0
   -9.8595    1.0086  -23.6324 C   0  0  0  0  0  0  0  0  0  0  0  0
  -10.7168    1.8037  -24.0612 O   0  0  0  0  0  0  0  0  0  0  0  0
   -7.0184   -4.0624  -24.3437 C   0  0  0  0  0  0  0  0  0  0  0  0
   -5.7448   -4.5802  -24.5864 C   0  0  0  0  0  0  0  0  0  0  0  0
   -5.5328   -5.5811  -25.4577 N   0  0  0  0  0  0  0  0  0  0  0  0
   -6.5193   -6.1496  -26.1506 C   0  0  0  0  0  0  0  0  0  0  0  0
   -7.8047   -5.6575  -25.9335 C   0  0  0  0  0  0  0  0  0  0  0  0
   -8.8179   -6.2514  -26.6541 C   0  0  0  0  0  0  0  0  0  0  0  0
  -10.0954   -5.7693  -26.4447 C   0  0  0  0  0  0  0  0  0  0  0  0
  -10.3742   -4.7461  -25.5650 C   0  0  0  0  0  0  0  0  0  0  0  0
   -9.3420   -4.1674  -24.8546 C   0  0  0  0  0  0  0  0  0  0  0  0
   -8.0578   -4.6310  -25.0462 C   0  0  0  0  0  0  0  0  0  0  0  0
  -11.3551   -0.8392  -24.2095 C   0  0  0  0  0  0  0  0  0  0  0  0
  -13.6734   -2.6875  -21.6771 C   0  0  0  0  0  0  0  0  0  0  0  0
  -12.5996   -2.4092  -22.6127 N   0  0  0  0  0  0  0  0  0  0  0  0
  -12.4281   -1.1598  -23.2582 C   0  0  0  0  0  0  0  0  0  0  0  0
  -13.2677   -0.2556  -22.9904 O   0  0  0  0  0  0  0  0  0  0  0  0
  -11.9555   -3.1274  -22.8094 H   0  0  0  0  0  0  0  0  0  0  0  0
   -7.9983   -1.5834  -20.1753 C   0  0  0  0  0  0  0  0  0  0  0  0
   -6.9613   -1.1932  -19.1395 C   0  0  0  0  0  0  0  0  0  0  0  0
   -5.8978   -1.9063  -18.7421 N   0  0  0  0  0  0  0  0  0  0  0  0
   -5.2595   -1.1818  -17.8156 N   0  0  0  0  0  0  0  0  0  0  0  0
   -5.8868   -0.0414  -17.6204 N   0  0  0  0  0  0  0  0  0  0  0  0
   -6.9158   -0.0548  -18.4248 N   0  0  0  0  0  0  0  0  0  0  0  0
 29 30  1  0  0  0
 30 31  1  0  0  0
 30 33  1  0  0  0
 31 32  2  0  0  0
 31 28  1  0  0  0
 28  1  1  0  0  0
  1  2  1  0  0  0
  3  2  1  0  0  0
  3  4  1  0  0  0
  3  9  1  0  0  0
  4  5  2  0  0  0
  4  6  1  0  0  0
  6 18  1  0  0  0
  6  7  1  0  0  0
 18 19  2  0  0  0
 19 20  1  0  0  0
 20 21  2  0  0  0
 21 22  1  0  0  0
 22 23  2  0  0  0
 23 24  1  0  0  0
 24 25  2  0  0  0
 25 26  1  0  0  0
 26 27  2  0  0  0
 27 18  1  0  0  0
 27 22  1  0  0  0
  7  8  1  0  0  0
  8 34  1  0  0  0
  8  3  1  0  0  0
 34 35  1  0  0  0
 35 36  1  0  0  0
 36 37  2  0  0  0
 37 38  1  0  0  0
 38 39  1  0  0  0
 39 35  2  0  0  0
  9 10  2  0  0  0
 10 11  1  0  0  0
 11 12  1  0  0  0
 11 13  2  0  0  0
 13 14  1  0  0  0
 14 15  2  0  0  0
 15 16  1  0  0  0
 15  9  1  0  0  0
 16 17  2  0  0  0
 16  1  1  0  0  0
M  CHG 1  38  -1
M  END
> <minimizedAffinity>
-8.65200

> <CNNscore>
0.3013849556

> <CNNaffinity>
6.7728042603

> <CNN_VS>
2.0412213802

> <CNNaffinity_variance>
0.1008854359

$$$$



 39 44  0  0  0  0  0  0  0  0999 V2000
   -6.8410   -2.2262  -22.3535 N   0  0  0  0  0  0  0  0  0  0  0  0
   -7.3068   -1.4618  -23.4630 C   0  0  0  0  0  0  0  0  0  0  0  0
   -6.9119   -0.0468  -23.4292 C   0  0  0  0  0  0  0  0  0  0  0  0
   -8.1328    0.6975  -22.8787 C   0  0  0  0  0  0  0  0  0  0  0  0
   -8.2469    1.2465  -21.7667 O   0  0  0  0  0  0  0  0  0  0  0  0
   -9.0642    0.5879  -23.9588 N   0  0  0  0  0  0  0  0  0  0  0  0
   -8.3499    0.3517  -25.2053 C   0  0  0  0  0  0  0  0  0  0  0  0
   -6.8796    0.6008  -24.7976 C   0  0  0  0  0  0  0  0  0  0  0  0
   -5.8185    0.2723  -22.5446 C   0  0  0  0  0  0  0  0  0  0  0  0
   -5.2695    1.5552  -22.6043 C   0  0  0  0  0  0  0  0  0  0  0  0
   -4.2063    1.9220  -21.7687 C   0  0  0  0  0  0  0  0  0  0  0  0
   -3.5221    3.5452  -21.8544 Cl  0  0  0  0  0  0  0  0  0  0  0  0
   -3.6531    1.0532  -20.8576 C   0  0  0  0  0  0  0  0  0  0  0  0
   -4.1901   -0.2107  -20.7947 C   0  0  0  0  0  0  0  0  0  0  0  0
   -5.2250   -0.5563  -21.6130 C   0  0  0  0  0  0  0  0  0  0  0  0
   -5.7637   -1.9035  -21.4983 C   0  0  0  0  0  0  0  0  0  0  0  0
   -5.3101   -2.7389  -20.6936 O   0  0  0  0  0  0  0  0  0  0  0  0
  -10.4790    0.7007  -23.7955 C   0  0  0  0  0  0  0  0  0  0  0  0
  -11.1256    1.9158  -24.0289 C   0  0  0  0  0  0  0  0  0  0  0  0
  -12.4540    2.0592  -23.8856 N   0  0  0  0  0  0  0  0  0  0  0  0
  -13.2474    1.0557  -23.5115 C   0  0  0  0  0  0  0  0  0  0  0  0
  -12.6356   -0.1728  -23.2697 C   0  0  0  0  0  0  0  0  0  0  0  0
  -13.4637   -1.2041  -22.8836 C   0  0  0  0  0  0  0  0  0  0  0  0
  -12.8650   -2.4253  -22.6418 C   0  0  0  0  0  0  0  0  0  0  0  0
  -11.5091   -2.6328  -22.7721 C   0  0  0  0  0  0  0  0  0  0  0  0
  -10.7005   -1.5837  -23.1603 C   0  0  0  0  0  0  0  0  0  0  0  0
  -11.2743   -0.3547  -23.4074 C   0  0  0  0  0  0  0  0  0  0  0  0
   -7.5331   -3.4914  -22.0743 C   0  0  0  0  0  0  0  0  0  0  0  0
   -8.1679   -6.1766  -24.8294 C   0  0  0  0  0  0  0  0  0  0  0  0
   -8.3916   -5.1968  -23.7827 N   0  0  0  0  0  0  0  0  0  0  0  0
   -7.3477   -4.4901  -23.1361 C   0  0  0  0  0  0  0  0  0  0  0  0
   -6.1676   -4.7442  -23.5064 O   0  0  0  0  0  0  0  0  0  0  0  0
   -9.3188   -5.0131  -23.5070 H   0  0  0  0  0  0  0  0  0  0  0  0
   -6.0255   -0.0523  -25.8155 C   0  0  0  0  0  0  0  0  0  0  0  0
   -6.9330   -0.4920  -26.9485 C   0  0  0  0  0  0  0  0  0  0  0  0
   -7.4951   -1.6968  -27.1220 N   0  0  0  0  0  0  0  0  0  0  0  0
   -8.2140   -1.6393  -28.2492 N   0  0  0  0  0  0  0  0  0  0  0  0
   -8.1207   -0.4412  -28.7858 N   0  0  0  0  0  0  0  0  0  0  0  0
   -7.3439    0.2481  -27.9936 N   0  0  0  0  0  0  0  0  0  0  0  0
 29 30  1  0  0  0
 30 31  1  0  0  0
 30 33  1  0  0  0
 31 32  2  0  0  0
 31 28  1  0  0  0
 28  1  1  0  0  0
  1  2  1  0  0  0
  3  2  1  0  0  0
  3  4  1  0  0  0
  3  9  1  0  0  0
  4  5  2  0  0  0
  4  6  1  0  0  0
  6 18  1  0  0  0
  6  7  1  0  0  0
 18 19  2  0  0  0
 19 20  1  0  0  0
 20 21  2  0  0  0
 21 22  1  0  0  0
 22 23  2  0  0  0
 23 24  1  0  0  0
 24 25  2  0  0  0
 25 26  1  0  0  0
 26 27  2  0  0  0
 27 18  1  0  0  0
 27 22  1  0  0  0
  7  8  1  0  0  0
  8 34  1  0  0  0
  8  3  1  0  0  0
 34 35  1  0  0  0
 35 36  1  0  0  0
 36 37  2  0  0  0
 37 38  1  0  0  0
 38 39  1  0  0  0
 39 35  2  0  0  0
  9 10  2  0  0  0
 10 11  1  0  0  0
 11 12  1  0  0  0
 11 13  2  0  0  0
 13 14  1  0  0  0
 14 15  2  0  0  0
 15 16  1  0  0  0
 15  9  1  0  0  0
 16 17  2  0  0  0
 16  1  1  0  0  0
M  CHG 1  38  -1
M  END
> <minimizedAffinity>
-7.94623

> <CNNscore>
0.2617830336

> <CNNaffinity>
6.3216381073

> <CNN_VS>
1.6548975706

> <CNNaffinity_variance>
0.1568540931

$$$$



 39 44  0  0  0  0  0  0  0  0999 V2000
   -6.0928   -1.9946  -23.6004 N   0  0  0  0  0  0  0  0  0  0  0  0
   -5.6405   -0.6548  -23.7812 C   0  0  0  0  0  0  0  0  0  0  0  0
   -5.6710    0.1623  -22.5601 C   0  0  0  0  0  0  0  0  0  0  0  0
   -6.9638    0.9790  -22.6560 C   0  0  0  0  0  0  0  0  0  0  0  0
   -7.9927    0.8515  -21.9662 O   0  0  0  0  0  0  0  0  0  0  0  0
   -6.6656    1.8909  -23.7169 N   0  0  0  0  0  0  0  0  0  0  0  0
   -5.2232    2.0347  -23.8543 C   0  0  0  0  0  0  0  0  0  0  0  0
   -4.6965    1.3210  -22.5882 C   0  0  0  0  0  0  0  0  0  0  0  0
   -5.7550   -0.5730  -21.3223 C   0  0  0  0  0  0  0  0  0  0  0  0
   -5.5971    0.1259  -20.1234 C   0  0  0  0  0  0  0  0  0  0  0  0
   -5.6694   -0.5356  -18.8905 C   0  0  0  0  0  0  0  0  0  0  0  0
   -5.4679    0.3587  -17.3839 Cl  0  0  0  0  0  0  0  0  0  0  0  0
   -5.8965   -1.8884  -18.7936 C   0  0  0  0  0  0  0  0  0  0  0  0
   -6.0530   -2.5809  -19.9708 C   0  0  0  0  0  0  0  0  0  0  0  0
   -5.9807   -1.9262  -21.1650 C   0  0  0  0  0  0  0  0  0  0  0  0
   -6.1644   -2.7045  -22.3810 C   0  0  0  0  0  0  0  0  0  0  0  0
   -6.3744   -3.9320  -22.3641 O   0  0  0  0  0  0  0  0  0  0  0  0
   -7.6656    2.5438  -24.5010 C   0  0  0  0  0  0  0  0  0  0  0  0
   -8.2458    1.8961  -25.5931 C   0  0  0  0  0  0  0  0  0  0  0  0
   -9.1888    2.4785  -26.3530 N   0  0  0  0  0  0  0  0  0  0  0  0
   -9.6365    3.7120  -26.1200 C   0  0  0  0  0  0  0  0  0  0  0  0
   -9.0791    4.3890  -25.0370 C   0  0  0  0  0  0  0  0  0  0  0  0
   -9.5482    5.6634  -24.8039 C   0  0  0  0  0  0  0  0  0  0  0  0
   -9.0007    6.3414  -23.7321 C   0  0  0  0  0  0  0  0  0  0  0  0
   -8.0318    5.7965  -22.9179 C   0  0  0  0  0  0  0  0  0  0  0  0
   -7.5783    4.5179  -23.1720 C   0  0  0  0  0  0  0  0  0  0  0  0
   -8.1092    3.8206  -24.2362 C   0  0  0  0  0  0  0  0  0  0  0  0
   -6.5111   -2.7279  -24.8025 C   0  0  0  0  0  0  0  0  0  0  0  0
   -3.8935   -5.4373  -25.8079 C   0  0  0  0  0  0  0  0  0  0  0  0
   -4.9947   -4.7644  -25.1443 N   0  0  0  0  0  0  0  0  0  0  0  0
   -5.4025   -3.4425  -25.4501 C   0  0  0  0  0  0  0  0  0  0  0  0
   -4.7575   -2.8370  -26.3510 O   0  0  0  0  0  0  0  0  0  0  0  0
   -5.4848   -5.2527  -24.4438 H   0  0  0  0  0  0  0  0  0  0  0  0
   -3.2765    0.9817  -22.8345 C   0  0  0  0  0  0  0  0  0  0  0  0
   -2.4896    1.4307  -21.6181 C   0  0  0  0  0  0  0  0  0  0  0  0
   -1.2810    1.0031  -21.2258 N   0  0  0  0  0  0  0  0  0  0  0  0
   -0.9714    1.6659  -20.1053 N   0  0  0  0  0  0  0  0  0  0  0  0
   -1.9440    2.4923  -19.7839 N   0  0  0  0  0  0  0  0  0  0  0  0
   -2.8597    2.3448  -20.7037 N   0  0  0  0  0  0  0  0  0  0  0  0
 29 30  1  0  0  0
 30 31  1  0  0  0
 30 33  1  0  0  0
 31 32  2  0  0  0
 31 28  1  0  0  0
 28  1  1  0  0  0
  1  2  1  0  0  0
  3  2  1  0  0  0
  3  4  1  0  0  0
  3  9  1  0  0  0
  4  5  2  0  0  0
  4  6  1  0  0  0
  6 18  1  0  0  0
  6  7  1  0  0  0
 18 19  2  0  0  0
 19 20  1  0  0  0
 20 21  2  0  0  0
 21 22  1  0  0  0
 22 23  2  0  0  0
 23 24  1  0  0  0
 24 25  2  0  0  0
 25 26  1  0  0  0
 26 27  2  0  0  0
 27 18  1  0  0  0
 27 22  1  0  0  0
  7  8  1  0  0  0
  8 34  1  0  0  0
  8  3  1  0  0  0
 34 35  1  0  0  0
 35 36  1  0  0  0
 36 37  2  0  0  0
 37 38  1  0  0  0
 38 39  1  0  0  0
 39 35  2  0  0  0
  9 10  2  0  0  0
 10 11  1  0  0  0
 11 12  1  0  0  0
 11 13  2  0  0  0
 13 14  1  0  0  0
 14 15  2  0  0  0
 15 16  1  0  0  0
 15  9  1  0  0  0
 16 17  2  0  0  0
 16  1  1  0  0  0
M  CHG 1  38  -1
M  END
> <minimizedAffinity>
-7.19532

> <CNNscore>
0.2606956959

> <CNNaffinity>
6.0731229782

> <CNN_VS>
1.5832370520

> <CNNaffinity_variance>
0.1552119553

$$$$



 39 44  0  0  0  0  0  0  0  0999 V2000
   -5.0141   -0.7322  -24.2022 N   0  0  0  0  0  0  0  0  0  0  0  0
   -6.3320   -1.1724  -23.8835 C   0  0  0  0  0  0  0  0  0  0  0  0
   -6.5986   -1.2856  -22.4428 C   0  0  0  0  0  0  0  0  0  0  0  0
   -6.4230   -2.7726  -22.1179 C   0  0  0  0  0  0  0  0  0  0  0  0
   -5.5094   -3.3002  -21.4563 O   0  0  0  0  0  0  0  0  0  0  0  0
   -7.5584   -3.3573  -22.7621 N   0  0  0  0  0  0  0  0  0  0  0  0
   -8.5971   -2.3528  -22.9407 C   0  0  0  0  0  0  0  0  0  0  0  0
   -8.0676   -1.1735  -22.0930 C   0  0  0  0  0  0  0  0  0  0  0  0
   -5.6807   -0.5789  -21.5837 C   0  0  0  0  0  0  0  0  0  0  0  0
   -5.9828   -0.4865  -20.2232 C   0  0  0  0  0  0  0  0  0  0  0  0
   -5.1280    0.1871  -19.3408 C   0  0  0  0  0  0  0  0  0  0  0  0
   -5.5214    0.2967  -17.6252 Cl  0  0  0  0  0  0  0  0  0  0  0  0
   -3.9624    0.7852  -19.7586 C   0  0  0  0  0  0  0  0  0  0  0  0
   -3.6602    0.6969  -21.0968 C   0  0  0  0  0  0  0  0  0  0  0  0
   -4.4999    0.0384  -21.9461 C   0  0  0  0  0  0  0  0  0  0  0  0
   -4.1276   -0.0352  -23.3512 C   0  0  0  0  0  0  0  0  0  0  0  0
   -3.0859    0.4834  -23.7951 O   0  0  0  0  0  0  0  0  0  0  0  0
   -7.6232   -4.7294  -23.1550 C   0  0  0  0  0  0  0  0  0  0  0  0
   -7.2543   -5.7403  -22.2657 C   0  0  0  0  0  0  0  0  0  0  0  0
   -7.3023   -7.0410  -22.6002 N   0  0  0  0  0  0  0  0  0  0  0  0
   -7.7039   -7.4584  -23.8005 C   0  0  0  0  0  0  0  0  0  0  0  0
   -8.0799   -6.4758  -24.7144 C   0  0  0  0  0  0  0  0  0  0  0  0
   -8.4936   -6.9168  -25.9524 C   0  0  0  0  0  0  0  0  0  0  0  0
   -8.8680   -5.9490  -26.8643 C   0  0  0  0  0  0  0  0  0  0  0  0
   -8.8400   -4.6013  -26.5790 C   0  0  0  0  0  0  0  0  0  0  0  0
   -8.4217   -4.1845  -25.3314 C   0  0  0  0  0  0  0  0  0  0  0  0
   -8.0427   -5.1315  -24.4038 C   0  0  0  0  0  0  0  0  0  0  0  0
   -4.5256   -1.0095  -25.5595 C   0  0  0  0  0  0  0  0  0  0  0  0
   -4.8758   -4.8469  -26.1553 C   0  0  0  0  0  0  0  0  0  0  0  0
   -4.4283   -3.5685  -25.6346 N   0  0  0  0  0  0  0  0  0  0  0  0
   -4.9509   -2.3230  -26.0622 C   0  0  0  0  0  0  0  0  0  0  0  0
   -5.8526   -2.3520  -26.9456 O   0  0  0  0  0  0  0  0  0  0  0  0
   -3.7236   -3.5666  -24.9470 H   0  0  0  0  0  0  0  0  0  0  0  0
   -8.7640    0.0479  -22.5571 C   0  0  0  0  0  0  0  0  0  0  0  0
  -10.1440   -0.3723  -23.0256 C   0  0  0  0  0  0  0  0  0  0  0  0
  -11.0316   -1.1324  -22.3684 N   0  0  0  0  0  0  0  0  0  0  0  0
  -12.1105   -1.2476  -23.1516 N   0  0  0  0  0  0  0  0  0  0  0  0
  -11.9280   -0.5864  -24.2748 N   0  0  0  0  0  0  0  0  0  0  0  0
  -10.7358   -0.0591  -24.1920 N   0  0  0  0  0  0  0  0  0  0  0  0
 29 30  1  0  0  0
 30 31  1  0  0  0
 30 33  1  0  0  0
 31 32  2  0  0  0
 31 28  1  0  0  0
 28  1  1  0  0  0
  1  2  1  0  0  0
  3  2  1  0  0  0
  3  4  1  0  0  0
  3  9  1  0  0  0
  4  5  2  0  0  0
  4  6  1  0  0  0
  6 18  1  0  0  0
  6  7  1  0  0  0
 18 19  2  0  0  0
 19 20  1  0  0  0
 20 21  2  0  0  0
 21 22  1  0  0  0
 22 23  2  0  0  0
 23 24  1  0  0  0
 24 25  2  0  0  0
 25 26  1  0  0  0
 26 27  2  0  0  0
 27 18  1  0  0  0
 27 22  1  0  0  0
  7  8  1  0  0  0
  8 34  1  0  0  0
  8  3  1  0  0  0
 34 35  1  0  0  0
 35 36  1  0  0  0
 36 37  2  0  0  0
 37 38  1  0  0  0
 38 39  1  0  0  0
 39 35  2  0  0  0
  9 10  2  0  0  0
 10 11  1  0  0  0
 11 12  1  0  0  0
 11 13  2  0  0  0
 13 14  1  0  0  0
 14 15  2  0  0  0
 15 16  1  0  0  0
 15  9  1  0  0  0
 16 17  2  0  0  0
 16  1  1  0  0  0
M  CHG 1  38  -1
M  END
> <minimizedAffinity>
-8.05789

> <CNNscore>
0.2379566282

> <CNNaffinity>
6.3312311172

> <CNN_VS>
1.5065584183

> <CNNaffinity_variance>
0.3320707679

$$$$



 36 41  0  0  0  0  0  0  0  0999 V2000
   -9.5437    2.6658  -23.8652 N   0  0  0  0  0  0  0  0  0  0  0  0
   -8.6194    1.7637  -23.2196 C   0  0  0  0  0  0  0  0  0  0  0  0
   -8.8908    0.3172  -23.4728 C   0  0  0  0  0  0  0  0  0  0  0  0
   -8.2279   -0.5158  -22.4316 C   0  0  0  0  0  0  0  0  0  0  0  0
   -8.5028   -0.4583  -21.2057 O   0  0  0  0  0  0  0  0  0  0  0  0
   -7.2634   -1.3573  -23.0472 N   0  0  0  0  0  0  0  0  0  0  0  0
   -6.9029   -0.7180  -24.2980 C   0  0  0  0  0  0  0  0  0  0  0  0
   -8.2792   -0.2094  -24.7361 C   0  0  0  0  0  0  0  0  0  0  0  0
   -8.0215    0.8321  -25.7811 C   0  0  0  0  0  0  0  0  0  0  0  0
  -10.3323   -0.0359  -23.3933 C   0  0  0  0  0  0  0  0  0  0  0  0
  -10.6953   -1.3568  -23.1625 C   0  0  0  0  0  0  0  0  0  0  0  0
  -12.0219   -1.7469  -23.0784 C   0  0  0  0  0  0  0  0  0  0  0  0
  -12.3987   -3.0189  -22.8559 F   0  0  0  0  0  0  0  0  0  0  0  0
  -13.0291   -0.7878  -23.2294 C   0  0  0  0  0  0  0  0  0  0  0  0
  -12.6647    0.5287  -23.4593 C   0  0  0  0  0  0  0  0  0  0  0  0
  -11.3337    0.9010  -23.5404 C   0  0  0  0  0  0  0  0  0  0  0  0
  -10.9380    2.3032  -23.7852 C   0  0  0  0  0  0  0  0  0  0  0  0
  -11.8383    3.1723  -23.9223 O   0  0  0  0  0  0  0  0  0  0  0  0
   -6.7693   -2.5851  -22.5103 C   0  0  0  0  0  0  0  0  0  0  0  0
   -5.8850   -2.5389  -21.4332 C   0  0  0  0  0  0  0  0  0  0  0  0
   -5.3901   -3.6824  -20.8908 N   0  0  0  0  0  0  0  0  0  0  0  0
   -5.7715   -4.8601  -21.4151 C   0  0  0  0  0  0  0  0  0  0  0  0
   -6.6439   -4.9361  -22.4793 C   0  0  0  0  0  0  0  0  0  0  0  0
   -6.9928   -6.1785  -22.9674 C   0  0  0  0  0  0  0  0  0  0  0  0
   -7.8682   -6.2198  -24.0334 C   0  0  0  0  0  0  0  0  0  0  0  0
   -8.3895   -5.0739  -24.6077 C   0  0  0  0  0  0  0  0  0  0  0  0
   -8.0405   -3.8251  -24.1191 C   0  0  0  0  0  0  0  0  0  0  0  0
   -7.1629   -3.7862  -23.0505 C   0  0  0  0  0  0  0  0  0  0  0  0
   -9.1564    3.8667  -24.5620 C   0  0  0  0  0  0  0  0  0  0  0  0
   -6.7987    4.7174  -24.0543 N   0  0  0  0  0  0  0  0  0  0  0  0
   -6.2458    5.5879  -23.2212 N   0  0  0  0  0  0  0  0  0  0  0  0
   -7.1966    6.1561  -22.4548 C   0  0  0  0  0  0  0  0  0  0  0  0
   -8.3902    5.5780  -22.8679 C   0  0  0  0  0  0  0  0  0  0  0  0
   -8.1224    4.6620  -23.8889 C   0  0  0  0  0  0  0  0  0  0  0  0
   -5.2710    2.8758  -24.2604 C   0  0  0  0  0  0  0  0  0  0  0  0
   -6.0440    3.9362  -25.0136 C   0  0  0  0  0  0  0  0  0  0  0  0
 35 36  1  0  0  0
 36 30  1  0  0  0
 30 31  1  0  0  0
 31 32  2  0  0  0
 32 33  1  0  0  0
 33 34  2  0  0  0
 34 29  1  0  0  0
 34 30  1  0  0  0
 29  1  1  0  0  0
  1  2  1  0  0  0
  3  2  1  0  0  0
  3  4  1  0  0  0
  3 10  1  0  0  0
  4  5  2  0  0  0
  4  6  1  0  0  0
  6 19  1  0  0  0
  6  7  1  0  0  0
 19 20  2  0  0  0
 20 21  1  0  0  0
 21 22  2  0  0  0
 22 23  1  0  0  0
 23 24  2  0  0  0
 24 25  1  0  0  0
 25 26  2  0  0  0
 26 27  1  0  0  0
 27 28  2  0  0  0
 28 19  1  0  0  0
 28 23  1  0  0  0
  7  8  1  0  0  0
  8  9  1  0  0  0
  8  3  1  0  0  0
 10 11  2  0  0  0
 11 12  1  0  0  0
 12 13  1  0  0  0
 12 14  2  0  0  0
 14 15  1  0  0  0
 15 16  2  0  0  0
 16 17  1  0  0  0
 16 10  1  0  0  0
 17 18  2  0  0  0
 17  1  1  0  0  0
M  END
> <minimizedAffinity>
-8.15587

> <CNNscore>
0.1737151593

> <CNNaffinity>
6.2415933609

> <CNN_VS>
1.0842593908

> <CNNaffinity_variance>
0.1151556522

$$$$



 36 41  0  0  0  0  0  0  0  0999 V2000
   -8.1287   -1.3985  -21.3724 N   0  0  0  0  0  0  0  0  0  0  0  0
   -7.6943   -0.4908  -22.4078 C   0  0  0  0  0  0  0  0  0  0  0  0
   -6.2291   -0.2020  -22.4000 C   0  0  0  0  0  0  0  0  0  0  0  0
   -5.9534    1.0555  -23.1485 C   0  0  0  0  0  0  0  0  0  0  0  0
   -6.3953    2.1841  -22.8132 O   0  0  0  0  0  0  0  0  0  0  0  0
   -5.1314    0.7640  -24.2696 N   0  0  0  0  0  0  0  0  0  0  0  0
   -5.3349   -0.6400  -24.5708 C   0  0  0  0  0  0  0  0  0  0  0  0
   -5.4027   -1.2038  -23.1488 C   0  0  0  0  0  0  0  0  0  0  0  0
   -6.0305   -2.5581  -23.2706 C   0  0  0  0  0  0  0  0  0  0  0  0
   -5.6798    0.0280  -21.0383 C   0  0  0  0  0  0  0  0  0  0  0  0
   -4.4865    0.7251  -20.8971 C   0  0  0  0  0  0  0  0  0  0  0  0
   -3.9251    0.9704  -19.6546 C   0  0  0  0  0  0  0  0  0  0  0  0
   -2.7714    1.6425  -19.4918 F   0  0  0  0  0  0  0  0  0  0  0  0
   -4.5738    0.5053  -18.5057 C   0  0  0  0  0  0  0  0  0  0  0  0
   -5.7636   -0.1895  -18.6489 C   0  0  0  0  0  0  0  0  0  0  0  0
   -6.3105   -0.4257  -19.8987 C   0  0  0  0  0  0  0  0  0  0  0  0
   -7.5792   -1.1657  -20.0587 C   0  0  0  0  0  0  0  0  0  0  0  0
   -8.1690   -1.5877  -19.0298 O   0  0  0  0  0  0  0  0  0  0  0  0
   -4.2836    1.6960  -24.9423 C   0  0  0  0  0  0  0  0  0  0  0  0
   -4.8256    2.4863  -25.9552 C   0  0  0  0  0  0  0  0  0  0  0  0
   -4.0558    3.3863  -26.6216 N   0  0  0  0  0  0  0  0  0  0  0  0
   -2.7595    3.4985  -26.2834 C   0  0  0  0  0  0  0  0  0  0  0  0
   -2.1969    2.7307  -25.2868 C   0  0  0  0  0  0  0  0  0  0  0  0
   -0.8596    2.8980  -24.9915 C   0  0  0  0  0  0  0  0  0  0  0  0
   -0.3271    2.1139  -23.9886 C   0  0  0  0  0  0  0  0  0  0  0  0
   -1.0843    1.1890  -23.2916 C   0  0  0  0  0  0  0  0  0  0  0  0
   -2.4275    1.0193  -23.5864 C   0  0  0  0  0  0  0  0  0  0  0  0
   -2.9590    1.8064  -24.5922 C   0  0  0  0  0  0  0  0  0  0  0  0
   -9.0499   -2.4878  -21.5790 C   0  0  0  0  0  0  0  0  0  0  0  0
  -10.5636   -1.8558  -23.5409 N   0  0  0  0  0  0  0  0  0  0  0  0
  -10.7580   -2.2752  -24.7834 N   0  0  0  0  0  0  0  0  0  0  0  0
   -9.9298   -3.3021  -25.0552 C   0  0  0  0  0  0  0  0  0  0  0  0
   -9.1990   -3.4981  -23.8903 C   0  0  0  0  0  0  0  0  0  0  0  0
   -9.6130   -2.5688  -22.9321 C   0  0  0  0  0  0  0  0  0  0  0  0
  -11.0146    0.4952  -23.7325 C   0  0  0  0  0  0  0  0  0  0  0  0
  -11.3000   -0.7617  -22.9402 C   0  0  0  0  0  0  0  0  0  0  0  0
 35 36  1  0  0  0
 36 30  1  0  0  0
 30 31  1  0  0  0
 31 32  2  0  0  0
 32 33  1  0  0  0
 33 34  2  0  0  0
 34 29  1  0  0  0
 34 30  1  0  0  0
 29  1  1  0  0  0
  1  2  1  0  0  0
  3  2  1  0  0  0
  3  4  1  0  0  0
  3 10  1  0  0  0
  4  5  2  0  0  0
  4  6  1  0  0  0
  6 19  1  0  0  0
  6  7  1  0  0  0
 19 20  2  0  0  0
 20 21  1  0  0  0
 21 22  2  0  0  0
 22 23  1  0  0  0
 23 24  2  0  0  0
 24 25  1  0  0  0
 25 26  2  0  0  0
 26 27  1  0  0  0
 27 28  2  0  0  0
 28 19  1  0  0  0
 28 23  1  0  0  0
  7  8  1  0  0  0
  8  9  1  0  0  0
  8  3  1  0  0  0
 10 11  2  0  0  0
 11 12  1  0  0  0
 12 13  1  0  0  0
 12 14  2  0  0  0
 14 15  1  0  0  0
 15 16  2  0  0  0
 16 17  1  0  0  0
 16 10  1  0  0  0
 17 18  2  0  0  0
 17  1  1  0  0  0
M  END
> <minimizedAffinity>
-6.57822

> <CNNscore>
0.1588090211

> <CNNaffinity>
5.8403735161

> <CNN_VS>
0.9275040030

> <CNNaffinity_variance>
0.1354090273

$$$$



 36 41  0  0  0  0  0  0  0  0999 V2000
   -7.6190    2.0050  -24.1477 N   0  0  0  0  0  0  0  0  0  0  0  0
   -7.1087    0.7025  -23.7901 C   0  0  0  0  0  0  0  0  0  0  0  0
   -7.9949   -0.4351  -24.1782 C   0  0  0  0  0  0  0  0  0  0  0  0
   -7.6507   -1.6446  -23.3807 C   0  0  0  0  0  0  0  0  0  0  0  0
   -7.7513   -1.7130  -22.1290 O   0  0  0  0  0  0  0  0  0  0  0  0
   -7.2039   -2.6716  -24.2543 N   0  0  0  0  0  0  0  0  0  0  0  0
   -6.7316   -2.0093  -25.4549 C   0  0  0  0  0  0  0  0  0  0  0  0
   -7.7955   -0.9157  -25.5842 C   0  0  0  0  0  0  0  0  0  0  0  0
   -7.2236    0.1094  -26.5143 C   0  0  0  0  0  0  0  0  0  0  0  0
   -9.4335   -0.1839  -23.9019 C   0  0  0  0  0  0  0  0  0  0  0  0
  -10.3003   -1.2632  -23.7854 C   0  0  0  0  0  0  0  0  0  0  0  0
  -11.6509   -1.0924  -23.5288 C   0  0  0  0  0  0  0  0  0  0  0  0
  -12.5100   -2.1208  -23.4118 F   0  0  0  0  0  0  0  0  0  0  0  0
  -12.1622    0.2014  -23.3818 C   0  0  0  0  0  0  0  0  0  0  0  0
  -11.2960    1.2761  -23.4983 C   0  0  0  0  0  0  0  0  0  0  0  0
   -9.9486    1.0870  -23.7550 C   0  0  0  0  0  0  0  0  0  0  0  0
   -9.0192    2.2285  -23.8801 C   0  0  0  0  0  0  0  0  0  0  0  0
   -9.4715    3.3960  -23.7493 O   0  0  0  0  0  0  0  0  0  0  0  0
   -7.2300   -4.0715  -23.9720 C   0  0  0  0  0  0  0  0  0  0  0  0
   -6.4246   -4.5643  -22.9460 C   0  0  0  0  0  0  0  0  0  0  0  0
   -6.4180   -5.8889  -22.6430 N   0  0  0  0  0  0  0  0  0  0  0  0
   -7.2051   -6.7150  -23.3541 C   0  0  0  0  0  0  0  0  0  0  0  0
   -8.0112   -6.2560  -24.3733 C   0  0  0  0  0  0  0  0  0  0  0  0
   -8.7940   -7.1597  -25.0620 C   0  0  0  0  0  0  0  0  0  0  0  0
   -9.5896   -6.6679  -26.0766 C   0  0  0  0  0  0  0  0  0  0  0  0
   -9.6187   -5.3250  -26.4093 C   0  0  0  0  0  0  0  0  0  0  0  0
   -8.8335   -4.4157  -25.7190 C   0  0  0  0  0  0  0  0  0  0  0  0
   -8.0369   -4.9111  -24.7023 C   0  0  0  0  0  0  0  0  0  0  0  0
   -6.8279    3.0548  -24.7391 C   0  0  0  0  0  0  0  0  0  0  0  0
   -4.2932    3.0447  -24.3997 N   0  0  0  0  0  0  0  0  0  0  0  0
   -3.4414    3.4745  -23.4792 N   0  0  0  0  0  0  0  0  0  0  0  0
   -4.1141    4.0652  -22.4728 C   0  0  0  0  0  0  0  0  0  0  0  0
   -5.4538    3.9751  -22.8286 C   0  0  0  0  0  0  0  0  0  0  0  0
   -5.5543    3.3220  -24.0601 C   0  0  0  0  0  0  0  0  0  0  0  0
   -3.7661    0.8855  -25.3095 C   0  0  0  0  0  0  0  0  0  0  0  0
   -3.8859    2.3631  -25.6120 C   0  0  0  0  0  0  0  0  0  0  0  0
 35 36  1  0  0  0
 36 30  1  0  0  0
 30 31  1  0  0  0
 31 32  2  0  0  0
 32 33  1  0  0  0
 33 34  2  0  0  0
 34 29  1  0  0  0
 34 30  1  0  0  0
 29  1  1  0  0  0
  1  2  1  0  0  0
  3  2  1  0  0  0
  3  4  1  0  0  0
  3 10  1  0  0  0
  4  5  2  0  0  0
  4  6  1  0  0  0
  6 19  1  0  0  0
  6  7  1  0  0  0
 19 20  2  0  0  0
 20 21  1  0  0  0
 21 22  2  0  0  0
 22 23  1  0  0  0
 23 24  2  0  0  0
 24 25  1  0  0  0
 25 26  2  0  0  0
 26 27  1  0  0  0
 27 28  2  0  0  0
 28 19  1  0  0  0
 28 23  1  0  0  0
  7  8  1  0  0  0
  8  9  1  0  0  0
  8  3  1  0  0  0
 10 11  2  0  0  0
 11 12  1  0  0  0
 12 13  1  0  0  0
 12 14  2  0  0  0
 14 15  1  0  0  0
 15 16  2  0  0  0
 16 17  1  0  0  0
 16 10  1  0  0  0
 17 18  2  0  0  0
 17  1  1  0  0  0
M  END
> <minimizedAffinity>
-6.45710

> <CNNscore>
0.1480382979

> <CNNaffinity>
6.1998853683

> <CNN_VS>
0.9178204536

> <CNNaffinity_variance>
0.1220768839

$$$$



 36 41  0  0  0  0  0  0  0  0999 V2000
   -6.2975   -1.1260  -22.8817 N   0  0  0  0  0  0  0  0  0  0  0  0
   -6.7025   -0.0851  -23.7967 C   0  0  0  0  0  0  0  0  0  0  0  0
   -8.0869    0.4285  -23.5730 C   0  0  0  0  0  0  0  0  0  0  0  0
   -8.5801    1.1153  -24.7988 C   0  0  0  0  0  0  0  0  0  0  0  0
   -8.7407    0.5444  -25.9077 O   0  0  0  0  0  0  0  0  0  0  0  0
   -8.8281    2.4823  -24.5035 N   0  0  0  0  0  0  0  0  0  0  0  0
   -8.0119    2.8051  -23.3490 C   0  0  0  0  0  0  0  0  0  0  0  0
   -8.1793    1.5139  -22.5431 C   0  0  0  0  0  0  0  0  0  0  0  0
   -7.0709    1.5086  -21.5360 C   0  0  0  0  0  0  0  0  0  0  0  0
   -9.0786   -0.6452  -23.3036 C   0  0  0  0  0  0  0  0  0  0  0  0
  -10.4278   -0.3911  -23.5157 C   0  0  0  0  0  0  0  0  0  0  0  0
  -11.3986   -1.3513  -23.2823 C   0  0  0  0  0  0  0  0  0  0  0  0
  -12.7106   -1.1297  -23.4798 F   0  0  0  0  0  0  0  0  0  0  0  0
  -11.0155   -2.6148  -22.8198 C   0  0  0  0  0  0  0  0  0  0  0  0
   -9.6696   -2.8659  -22.6090 C   0  0  0  0  0  0  0  0  0  0  0  0
   -8.7126   -1.8943  -22.8476 C   0  0  0  0  0  0  0  0  0  0  0  0
   -7.2756   -2.1554  -22.6253 C   0  0  0  0  0  0  0  0  0  0  0  0
   -6.9226   -3.2898  -22.2090 O   0  0  0  0  0  0  0  0  0  0  0  0
   -9.7143    3.3399  -25.2241 C   0  0  0  0  0  0  0  0  0  0  0  0
   -9.2228    4.0405  -26.3249 C   0  0  0  0  0  0  0  0  0  0  0  0
  -10.0304    4.8673  -27.0395 N   0  0  0  0  0  0  0  0  0  0  0  0
  -11.3145    4.9956  -26.6623 C   0  0  0  0  0  0  0  0  0  0  0  0
  -11.8274    4.3157  -25.5789 C   0  0  0  0  0  0  0  0  0  0  0  0
  -13.1549    4.4945  -25.2477 C   0  0  0  0  0  0  0  0  0  0  0  0
  -13.6373    3.7993  -24.1576 C   0  0  0  0  0  0  0  0  0  0  0  0
  -12.8407    2.9501  -23.4099 C   0  0  0  0  0  0  0  0  0  0  0  0
  -11.5074    2.7691  -23.7406 C   0  0  0  0  0  0  0  0  0  0  0  0
  -11.0261    3.4670  -24.8337 C   0  0  0  0  0  0  0  0  0  0  0  0
   -5.0113   -1.1849  -22.2336 C   0  0  0  0  0  0  0  0  0  0  0  0
   -4.3437    0.2688  -20.2384 N   0  0  0  0  0  0  0  0  0  0  0  0
   -4.6398    0.3302  -18.9476 N   0  0  0  0  0  0  0  0  0  0  0  0
   -5.5237   -0.6366  -18.6338 C   0  0  0  0  0  0  0  0  0  0  0  0
   -5.7621   -1.3117  -19.8242 C   0  0  0  0  0  0  0  0  0  0  0  0
   -5.0032   -0.7240  -20.8400 C   0  0  0  0  0  0  0  0  0  0  0  0
   -2.5510    1.8142  -19.8316 C   0  0  0  0  0  0  0  0  0  0  0  0
   -3.4194    1.1734  -20.8920 C   0  0  0  0  0  0  0  0  0  0  0  0
 35 36  1  0  0  0
 36 30  1  0  0  0
 30 31  1  0  0  0
 31 32  2  0  0  0
 32 33  1  0  0  0
 33 34  2  0  0  0
 34 29  1  0  0  0
 34 30  1  0  0  0
 29  1  1  0  0  0
  1  2  1  0  0  0
  3  2  1  0  0  0
  3  4  1  0  0  0
  3 10  1  0  0  0
  4  5  2  0  0  0
  4  6  1  0  0  0
  6 19  1  0  0  0
  6  7  1  0  0  0
 19 20  2  0  0  0
 20 21  1  0  0  0
 21 22  2  0  0  0
 22 23  1  0  0  0
 23 24  2  0  0  0
 24 25  1  0  0  0
 25 26  2  0  0  0
 26 27  1  0  0  0
 27 28  2  0  0  0
 28 19  1  0  0  0
 28 23  1  0  0  0
  7  8  1  0  0  0
  8  9  1  0  0  0
  8  3  1  0  0  0
 10 11  2  0  0  0
 11 12  1  0  0  0
 12 13  1  0  0  0
 12 14  2  0  0  0
 14 15  1  0  0  0
 15 16  2  0  0  0
 16 17  1  0  0  0
 16 10  1  0  0  0
 17 18  2  0  0  0
 17  1  1  0  0  0
M  END
> <minimizedAffinity>
-8.65549

> <CNNscore>
0.1430063695

> <CNNaffinity>
6.0337290764

> <CNN_VS>
0.8628616929

> <CNNaffinity_variance>
0.1134087816

$$$$



 36 41  0  0  0  0  0  0  0  0999 V2000
   -4.7065   -0.3508  -24.6457 N   0  0  0  0  0  0  0  0  0  0  0  0
   -5.9416    0.3908  -24.5489 C   0  0  0  0  0  0  0  0  0  0  0  0
   -7.1467   -0.4502  -24.2830 C   0  0  0  0  0  0  0  0  0  0  0  0
   -8.3802    0.2912  -24.6654 C   0  0  0  0  0  0  0  0  0  0  0  0
   -8.6380    0.6694  -25.8368 O   0  0  0  0  0  0  0  0  0  0  0  0
   -9.1859    0.4888  -23.5125 N   0  0  0  0  0  0  0  0  0  0  0  0
   -8.2932    0.4096  -22.3723 C   0  0  0  0  0  0  0  0  0  0  0  0
   -7.3866   -0.7360  -22.8310 C   0  0  0  0  0  0  0  0  0  0  0  0
   -6.1608   -0.6616  -21.9739 C   0  0  0  0  0  0  0  0  0  0  0  0
   -7.1817   -1.7018  -25.0836 C   0  0  0  0  0  0  0  0  0  0  0  0
   -8.3968   -2.3441  -25.2854 C   0  0  0  0  0  0  0  0  0  0  0  0
   -8.4927   -3.5134  -26.0220 C   0  0  0  0  0  0  0  0  0  0  0  0
   -9.6570   -4.1538  -26.2315 F   0  0  0  0  0  0  0  0  0  0  0  0
   -7.3364   -4.0680  -26.5810 C   0  0  0  0  0  0  0  0  0  0  0  0
   -6.1259   -3.4258  -26.3784 C   0  0  0  0  0  0  0  0  0  0  0  0
   -6.0484   -2.2576  -25.6394 C   0  0  0  0  0  0  0  0  0  0  0  0
   -4.7608   -1.5674  -25.4197 C   0  0  0  0  0  0  0  0  0  0  0  0
   -3.7156   -2.0601  -25.9192 O   0  0  0  0  0  0  0  0  0  0  0  0
  -10.5957    0.7177  -23.5140 C   0  0  0  0  0  0  0  0  0  0  0  0
  -11.0673    1.9984  -23.7998 C   0  0  0  0  0  0  0  0  0  0  0  0
  -12.4004    2.2613  -23.8124 N   0  0  0  0  0  0  0  0  0  0  0  0
  -13.2558    1.2596  -23.5432 C   0  0  0  0  0  0  0  0  0  0  0  0
  -12.8183   -0.0156  -23.2574 C   0  0  0  0  0  0  0  0  0  0  0  0
  -13.7517   -0.9960  -22.9903 C   0  0  0  0  0  0  0  0  0  0  0  0
  -13.2808   -2.2620  -22.7080 C   0  0  0  0  0  0  0  0  0  0  0  0
  -11.9300   -2.5616  -22.6874 C   0  0  0  0  0  0  0  0  0  0  0  0
  -10.9909   -1.5786  -22.9553 C   0  0  0  0  0  0  0  0  0  0  0  0
  -11.4653   -0.3104  -23.2381 C   0  0  0  0  0  0  0  0  0  0  0  0
   -3.4667    0.0488  -24.0283 C   0  0  0  0  0  0  0  0  0  0  0  0
   -3.1391    2.5586  -24.3938 N   0  0  0  0  0  0  0  0  0  0  0  0
   -3.1705    3.6543  -23.6481 N   0  0  0  0  0  0  0  0  0  0  0  0
   -3.4491    3.3310  -22.3705 C   0  0  0  0  0  0  0  0  0  0  0  0
   -3.5907    1.9492  -22.3675 C   0  0  0  0  0  0  0  0  0  0  0  0
   -3.3905    1.4688  -23.6646 C   0  0  0  0  0  0  0  0  0  0  0  0
   -4.1114    3.0261  -26.5394 C   0  0  0  0  0  0  0  0  0  0  0  0
   -2.8645    2.5657  -25.8167 C   0  0  0  0  0  0  0  0  0  0  0  0
 35 36  1  0  0  0
 36 30  1  0  0  0
 30 31  1  0  0  0
 31 32  2  0  0  0
 32 33  1  0  0  0
 33 34  2  0  0  0
 34 29  1  0  0  0
 34 30  1  0  0  0
 29  1  1  0  0  0
  1  2  1  0  0  0
  3  2  1  0  0  0
  3  4  1  0  0  0
  3 10  1  0  0  0
  4  5  2  0  0  0
  4  6  1  0  0  0
  6 19  1  0  0  0
  6  7  1  0  0  0
 19 20  2  0  0  0
 20 21  1  0  0  0
 21 22  2  0  0  0
 22 23  1  0  0  0
 23 24  2  0  0  0
 24 25  1  0  0  0
 25 26  2  0  0  0
 26 27  1  0  0  0
 27 28  2  0  0  0
 28 19  1  0  0  0
 28 23  1  0  0  0
  7  8  1  0  0  0
  8  9  1  0  0  0
  8  3  1  0  0  0
 10 11  2  0  0  0
 11 12  1  0  0  0
 12 13  1  0  0  0
 12 14  2  0  0  0
 14 15  1  0  0  0
 15 16  2  0  0  0
 16 17  1  0  0  0
 16 10  1  0  0  0
 17 18  2  0  0  0
 17  1  1  0  0  0
M  END
> <minimizedAffinity>
-6.38007

> <CNNscore>
0.1305221617

> <CNNaffinity>
5.8768043518

> <CNN_VS>
0.7670531869

> <CNNaffinity_variance>
0.2643518746

$$$$



 36 41  0  0  0  0  0  0  0  0999 V2000
   -6.5764   -1.1659  -23.2145 N   0  0  0  0  0  0  0  0  0  0  0  0
   -6.9545   -0.0376  -24.0323 C   0  0  0  0  0  0  0  0  0  0  0  0
   -8.3014    0.5267  -23.7201 C   0  0  0  0  0  0  0  0  0  0  0  0
   -8.7965    1.3311  -24.8713 C   0  0  0  0  0  0  0  0  0  0  0  0
   -9.0231    0.8572  -26.0139 O   0  0  0  0  0  0  0  0  0  0  0  0
   -8.9614    2.6818  -24.4640 N   0  0  0  0  0  0  0  0  0  0  0  0
   -8.0923    2.8717  -23.3186 C   0  0  0  0  0  0  0  0  0  0  0  0
   -8.3024    1.5318  -22.6078 C   0  0  0  0  0  0  0  0  0  0  0  0
   -7.1639    1.3917  -21.6449 C   0  0  0  0  0  0  0  0  0  0  0  0
   -9.3400   -0.5129  -23.4973 C   0  0  0  0  0  0  0  0  0  0  0  0
  -10.6797   -0.1748  -23.6404 C   0  0  0  0  0  0  0  0  0  0  0  0
  -11.6925   -1.0998  -23.4457 C   0  0  0  0  0  0  0  0  0  0  0  0
  -12.9964   -0.7970  -23.5780 F   0  0  0  0  0  0  0  0  0  0  0  0
  -11.3628   -2.4132  -23.0949 C   0  0  0  0  0  0  0  0  0  0  0  0
  -10.0262   -2.7481  -22.9529 C   0  0  0  0  0  0  0  0  0  0  0  0
   -9.0267   -1.8108  -23.1514 C   0  0  0  0  0  0  0  0  0  0  0  0
   -7.5993   -2.1611  -23.0019 C   0  0  0  0  0  0  0  0  0  0  0  0
   -7.2943   -3.3410  -22.6863 O   0  0  0  0  0  0  0  0  0  0  0  0
   -9.8232    3.6369  -25.0845 C   0  0  0  0  0  0  0  0  0  0  0  0
   -9.2807    4.5308  -26.0068 C   0  0  0  0  0  0  0  0  0  0  0  0
  -10.0637    5.4559  -26.6213 N   0  0  0  0  0  0  0  0  0  0  0  0
  -11.3736    5.4912  -26.3208 C   0  0  0  0  0  0  0  0  0  0  0  0
  -11.9370    4.6203  -25.4134 C   0  0  0  0  0  0  0  0  0  0  0  0
  -13.2888    4.7125  -25.1524 C   0  0  0  0  0  0  0  0  0  0  0  0
  -13.8217    3.8260  -24.2390 C   0  0  0  0  0  0  0  0  0  0  0  0
  -13.0513    2.8727  -23.5968 C   0  0  0  0  0  0  0  0  0  0  0  0
  -11.6937    2.7783  -23.8573 C   0  0  0  0  0  0  0  0  0  0  0  0
  -11.1617    3.6680  -24.7733 C   0  0  0  0  0  0  0  0  0  0  0  0
   -5.2749   -1.3404  -22.6199 C   0  0  0  0  0  0  0  0  0  0  0  0
   -3.6342   -0.2366  -24.2416 N   0  0  0  0  0  0  0  0  0  0  0  0
   -2.7803    0.7770  -24.2091 N   0  0  0  0  0  0  0  0  0  0  0  0
   -2.8038    1.3570  -22.9937 C   0  0  0  0  0  0  0  0  0  0  0  0
   -3.7369    0.6325  -22.2629 C   0  0  0  0  0  0  0  0  0  0  0  0
   -4.2593   -0.3813  -23.0707 C   0  0  0  0  0  0  0  0  0  0  0  0
   -4.2753   -0.1787  -26.5553 C   0  0  0  0  0  0  0  0  0  0  0  0
   -3.8461   -1.0684  -25.4093 C   0  0  0  0  0  0  0  0  0  0  0  0
 35 36  1  0  0  0
 36 30  1  0  0  0
 30 31  1  0  0  0
 31 32  2  0  0  0
 32 33  1  0  0  0
 33 34  2  0  0  0
 34 29  1  0  0  0
 34 30  1  0  0  0
 29  1  1  0  0  0
  1  2  1  0  0  0
  3  2  1  0  0  0
  3  4  1  0  0  0
  3 10  1  0  0  0
  4  5  2  0  0  0
  4  6  1  0  0  0
  6 19  1  0  0  0
  6  7  1  0  0  0
 19 20  2  0  0  0
 20 21  1  0  0  0
 21 22  2  0  0  0
 22 23  1  0  0  0
 23 24  2  0  0  0
 24 25  1  0  0  0
 25 26  2  0  0  0
 26 27  1  0  0  0
 27 28  2  0  0  0
 28 19  1  0  0  0
 28 23  1  0  0  0
  7  8  1  0  0  0
  8  9  1  0  0  0
  8  3  1  0  0  0
 10 11  2  0  0  0
 11 12  1  0  0  0
 12 13  1  0  0  0
 12 14  2  0  0  0
 14 15  1  0  0  0
 15 16  2  0  0  0
 16 17  1  0  0  0
 16 10  1  0  0  0
 17 18  2  0  0  0
 17  1  1  0  0  0
M  END
> <minimizedAffinity>
-7.18140

> <CNNscore>
0.1177904680

> <CNNaffinity>
5.9891805649

> <CNN_VS>
0.7054683566

> <CNNaffinity_variance>
0.1376543939

$$$$



 36 41  0  0  0  0  0  0  0  0999 V2000
   -7.3416   -2.8431  -22.6959 N   0  0  0  0  0  0  0  0  0  0  0  0
   -8.2671   -1.7463  -22.8547 C   0  0  0  0  0  0  0  0  0  0  0  0
   -7.6188   -0.4114  -23.0218 C   0  0  0  0  0  0  0  0  0  0  0  0
   -8.5910    0.6708  -22.7038 C   0  0  0  0  0  0  0  0  0  0  0  0
   -9.1203    0.8303  -21.5742 O   0  0  0  0  0  0  0  0  0  0  0  0
   -8.8072    1.4633  -23.8625 N   0  0  0  0  0  0  0  0  0  0  0  0
   -8.4674    0.6275  -24.9978 C   0  0  0  0  0  0  0  0  0  0  0  0
   -7.2363   -0.0881  -24.4348 C   0  0  0  0  0  0  0  0  0  0  0  0
   -7.0190   -1.2856  -25.3075 C   0  0  0  0  0  0  0  0  0  0  0  0
   -6.4756   -0.1905  -22.0982 C   0  0  0  0  0  0  0  0  0  0  0  0
   -6.0698    1.1087  -21.8199 C   0  0  0  0  0  0  0  0  0  0  0  0
   -5.0112    1.3777  -20.9677 C   0  0  0  0  0  0  0  0  0  0  0  0
   -4.5995    2.6262  -20.6826 F   0  0  0  0  0  0  0  0  0  0  0  0
   -4.3277    0.3150  -20.3673 C   0  0  0  0  0  0  0  0  0  0  0  0
   -4.7342   -0.9795  -20.6462 C   0  0  0  0  0  0  0  0  0  0  0  0
   -5.7944   -1.2302  -21.5006 C   0  0  0  0  0  0  0  0  0  0  0  0
   -6.2333   -2.6082  -21.8022 C   0  0  0  0  0  0  0  0  0  0  0  0
   -5.6233   -3.5700  -21.2661 O   0  0  0  0  0  0  0  0  0  0  0  0
   -9.2690    2.8149  -23.8697 C   0  0  0  0  0  0  0  0  0  0  0  0
  -10.6392    3.0554  -23.9638 C   0  0  0  0  0  0  0  0  0  0  0  0
  -11.1227    4.3253  -23.9740 N   0  0  0  0  0  0  0  0  0  0  0  0
  -10.2513    5.3457  -23.8916 C   0  0  0  0  0  0  0  0  0  0  0  0
   -8.8922    5.1379  -23.7977 C   0  0  0  0  0  0  0  0  0  0  0  0
   -8.0550    6.2317  -23.7162 C   0  0  0  0  0  0  0  0  0  0  0  0
   -6.6997    5.9893  -23.6233 C   0  0  0  0  0  0  0  0  0  0  0  0
   -6.1762    4.7084  -23.6103 C   0  0  0  0  0  0  0  0  0  0  0  0
   -7.0150    3.6086  -23.6920 C   0  0  0  0  0  0  0  0  0  0  0  0
   -8.3732    3.8541  -23.7851 C   0  0  0  0  0  0  0  0  0  0  0  0
   -7.4644   -4.1148  -23.3633 C   0  0  0  0  0  0  0  0  0  0  0  0
   -8.5904   -4.6260  -25.6018 N   0  0  0  0  0  0  0  0  0  0  0  0
   -9.8073   -4.5175  -26.1165 N   0  0  0  0  0  0  0  0  0  0  0  0
  -10.6480   -4.0001  -25.2000 C   0  0  0  0  0  0  0  0  0  0  0  0
   -9.8690   -3.7909  -24.0691 C   0  0  0  0  0  0  0  0  0  0  0  0
   -8.5584   -4.1944  -24.3387 C   0  0  0  0  0  0  0  0  0  0  0  0
   -7.3814   -6.6411  -26.0968 C   0  0  0  0  0  0  0  0  0  0  0  0
   -7.4545   -5.1486  -26.3343 C   0  0  0  0  0  0  0  0  0  0  0  0
 35 36  1  0  0  0
 36 30  1  0  0  0
 30 31  1  0  0  0
 31 32  2  0  0  0
 32 33  1  0  0  0
 33 34  2  0  0  0
 34 29  1  0  0  0
 34 30  1  0  0  0
 29  1  1  0  0  0
  1  2  1  0  0  0
  3  2  1  0  0  0
  3  4  1  0  0  0
  3 10  1  0  0  0
  4  5  2  0  0  0
  4  6  1  0  0  0
  6 19  1  0  0  0
  6  7  1  0  0  0
 19 20  2  0  0  0
 20 21  1  0  0  0
 21 22  2  0  0  0
 22 23  1  0  0  0
 23 24  2  0  0  0
 24 25  1  0  0  0
 25 26  2  0  0  0
 26 27  1  0  0  0
 27 28  2  0  0  0
 28 19  1  0  0  0
 28 23  1  0  0  0
  7  8  1  0  0  0
  8  9  1  0  0  0
  8  3  1  0  0  0
 10 11  2  0  0  0
 11 12  1  0  0  0
 12 13  1  0  0  0
 12 14  2  0  0  0
 14 15  1  0  0  0
 15 16  2  0  0  0
 16 17  1  0  0  0
 16 10  1  0  0  0
 17 18  2  0  0  0
 17  1  1  0  0  0
M  END
> <minimizedAffinity>
-7.56029

> <CNNscore>
0.1177681684

> <CNNaffinity>
5.7660312653

> <CNN_VS>
0.6790549159

> <CNNaffinity_variance>
0.2656137347

$$$$



 36 41  0  0  0  0  0  0  0  0999 V2000
   -9.0865    2.3667  -23.6450 N   0  0  0  0  0  0  0  0  0  0  0  0
   -8.2262    1.3825  -23.0319 C   0  0  0  0  0  0  0  0  0  0  0  0
   -8.5684   -0.0316  -23.3691 C   0  0  0  0  0  0  0  0  0  0  0  0
   -7.9742   -0.9539  -22.3623 C   0  0  0  0  0  0  0  0  0  0  0  0
   -8.2730   -0.9473  -21.1407 O   0  0  0  0  0  0  0  0  0  0  0  0
   -7.0423   -1.8124  -23.0041 N   0  0  0  0  0  0  0  0  0  0  0  0
   -6.6205   -1.1275  -24.2108 C   0  0  0  0  0  0  0  0  0  0  0  0
   -7.9576   -0.5222  -24.6472 C   0  0  0  0  0  0  0  0  0  0  0  0
   -7.6217    0.5583  -25.6284 C   0  0  0  0  0  0  0  0  0  0  0  0
  -10.0281   -0.3095  -23.3370 C   0  0  0  0  0  0  0  0  0  0  0  0
  -10.4659   -1.6192  -23.1859 C   0  0  0  0  0  0  0  0  0  0  0  0
  -11.8129   -1.9406  -23.1491 C   0  0  0  0  0  0  0  0  0  0  0  0
  -12.2617   -3.2004  -23.0038 F   0  0  0  0  0  0  0  0  0  0  0  0
  -12.7640   -0.9215  -23.2668 C   0  0  0  0  0  0  0  0  0  0  0  0
  -12.3251    0.3837  -23.4174 C   0  0  0  0  0  0  0  0  0  0  0  0
  -10.9747    0.6869  -23.4521 C   0  0  0  0  0  0  0  0  0  0  0  0
  -10.4996    2.0767  -23.6121 C   0  0  0  0  0  0  0  0  0  0  0  0
  -11.3491    2.9994  -23.7189 O   0  0  0  0  0  0  0  0  0  0  0  0
   -6.6264   -3.0922  -22.5257 C   0  0  0  0  0  0  0  0  0  0  0  0
   -5.7311   -3.1512  -21.4584 C   0  0  0  0  0  0  0  0  0  0  0  0
   -5.3087   -4.3472  -20.9709 N   0  0  0  0  0  0  0  0  0  0  0  0
   -5.7726   -5.4734  -21.5400 C   0  0  0  0  0  0  0  0  0  0  0  0
   -6.6579   -5.4455  -22.5958 C   0  0  0  0  0  0  0  0  0  0  0  0
   -7.0934   -6.6399  -23.1319 C   0  0  0  0  0  0  0  0  0  0  0  0
   -7.9794   -6.5771  -24.1880 C   0  0  0  0  0  0  0  0  0  0  0  0
   -8.4283   -5.3755  -24.7069 C   0  0  0  0  0  0  0  0  0  0  0  0
   -7.9922   -4.1748  -24.1702 C   0  0  0  0  0  0  0  0  0  0  0  0
   -7.1042   -4.2402  -23.1115 C   0  0  0  0  0  0  0  0  0  0  0  0
   -8.6204    3.5804  -24.2674 C   0  0  0  0  0  0  0  0  0  0  0  0
  -10.0281    4.8961  -25.9489 N   0  0  0  0  0  0  0  0  0  0  0  0
  -10.3677    4.7771  -27.2248 N   0  0  0  0  0  0  0  0  0  0  0  0
   -9.8136    3.6648  -27.7446 C   0  0  0  0  0  0  0  0  0  0  0  0
   -9.0993    3.0921  -26.7000 C   0  0  0  0  0  0  0  0  0  0  0  0
   -9.2443    3.8876  -25.5601 C   0  0  0  0  0  0  0  0  0  0  0  0
  -11.8863    6.3422  -25.4763 C   0  0  0  0  0  0  0  0  0  0  0  0
  -10.4634    5.9890  -25.1026 C   0  0  0  0  0  0  0  0  0  0  0  0
 35 36  1  0  0  0
 36 30  1  0  0  0
 30 31  1  0  0  0
 31 32  2  0  0  0
 32 33  1  0  0  0
 33 34  2  0  0  0
 34 29  1  0  0  0
 34 30  1  0  0  0
 29  1  1  0  0  0
  1  2  1  0  0  0
  3  2  1  0  0  0
  3  4  1  0  0  0
  3 10  1  0  0  0
  4  5  2  0  0  0
  4  6  1  0  0  0
  6 19  1  0  0  0
  6  7  1  0  0  0
 19 20  2  0  0  0
 20 21  1  0  0  0
 21 22  2  0  0  0
 22 23  1  0  0  0
 23 24  2  0  0  0
 24 25  1  0  0  0
 25 26  2  0  0  0
 26 27  1  0  0  0
 27 28  2  0  0  0
 28 19  1  0  0  0
 28 23  1  0  0  0
  7  8  1  0  0  0
  8  9  1  0  0  0
  8  3  1  0  0  0
 10 11  2  0  0  0
 11 12  1  0  0  0
 12 13  1  0  0  0
 12 14  2  0  0  0
 14 15  1  0  0  0
 15 16  2  0  0  0
 16 17  1  0  0  0
 16 10  1  0  0  0
 17 18  2  0  0  0
 17  1  1  0  0  0
M  END
> <minimizedAffinity>
-7.94889

> <CNNscore>
0.1128517240

> <CNNaffinity>
6.0550699234

> <CNN_VS>
0.6833250523

> <CNNaffinity_variance>
0.2317901552

$$$$



 36 41  0  0  0  0  0  0  0  0999 V2000
   -5.1184    3.4403  -22.6887 N   0  0  0  0  0  0  0  0  0  0  0  0
   -5.8390    2.2116  -22.4523 C   0  0  0  0  0  0  0  0  0  0  0  0
   -7.0875    2.0640  -23.2583 C   0  0  0  0  0  0  0  0  0  0  0  0
   -7.9822    1.0520  -22.6316 C   0  0  0  0  0  0  0  0  0  0  0  0
   -8.4819    1.1708  -21.4837 O   0  0  0  0  0  0  0  0  0  0  0  0
   -8.1646   -0.0337  -23.5291 N   0  0  0  0  0  0  0  0  0  0  0  0
   -7.0233   -0.0198  -24.4237 C   0  0  0  0  0  0  0  0  0  0  0  0
   -6.8700    1.4902  -24.6262 C   0  0  0  0  0  0  0  0  0  0  0  0
   -5.4908    1.6961  -25.1725 C   0  0  0  0  0  0  0  0  0  0  0  0
   -7.8967    3.3087  -23.3270 C   0  0  0  0  0  0  0  0  0  0  0  0
   -9.2477    3.2230  -23.6390 C   0  0  0  0  0  0  0  0  0  0  0  0
  -10.0530    4.3475  -23.7180 C   0  0  0  0  0  0  0  0  0  0  0  0
  -11.3630    4.2907  -24.0182 F   0  0  0  0  0  0  0  0  0  0  0  0
   -9.4955    5.6078  -23.4777 C   0  0  0  0  0  0  0  0  0  0  0  0
   -8.1482    5.6908  -23.1668 C   0  0  0  0  0  0  0  0  0  0  0  0
   -7.3580    4.5564  -23.0921 C   0  0  0  0  0  0  0  0  0  0  0  0
   -5.9205    4.6376  -22.7607 C   0  0  0  0  0  0  0  0  0  0  0  0
   -5.4112    5.7680  -22.5433 O   0  0  0  0  0  0  0  0  0  0  0  0
   -9.2682   -0.9403  -23.5221 C   0  0  0  0  0  0  0  0  0  0  0  0
   -9.0116   -2.3093  -23.4573 C   0  0  0  0  0  0  0  0  0  0  0  0
  -10.0310   -3.2078  -23.4481 N   0  0  0  0  0  0  0  0  0  0  0  0
  -11.2933   -2.7484  -23.5029 C   0  0  0  0  0  0  0  0  0  0  0  0
  -11.5767   -1.4012  -23.5675 C   0  0  0  0  0  0  0  0  0  0  0  0
  -12.8956   -0.9996  -23.6215 C   0  0  0  0  0  0  0  0  0  0  0  0
  -13.1452    0.3560  -23.6855 C   0  0  0  0  0  0  0  0  0  0  0  0
  -12.1296    1.2957  -23.6964 C   0  0  0  0  0  0  0  0  0  0  0  0
  -10.8043    0.8947  -23.6423 C   0  0  0  0  0  0  0  0  0  0  0  0
  -10.5566   -0.4647  -23.5782 C   0  0  0  0  0  0  0  0  0  0  0  0
   -3.6889    3.5269  -22.8521 C   0  0  0  0  0  0  0  0  0  0  0  0
   -2.3022    1.5054  -22.1235 N   0  0  0  0  0  0  0  0  0  0  0  0
   -1.7097    1.0921  -21.0119 N   0  0  0  0  0  0  0  0  0  0  0  0
   -1.9065    1.9896  -20.0269 C   0  0  0  0  0  0  0  0  0  0  0  0
   -2.6676    2.9994  -20.6018 C   0  0  0  0  0  0  0  0  0  0  0  0
   -2.9130    2.6783  -21.9396 C   0  0  0  0  0  0  0  0  0  0  0  0
   -0.9680    1.0517  -24.0681 C   0  0  0  0  0  0  0  0  0  0  0  0
   -2.2777    0.7631  -23.3679 C   0  0  0  0  0  0  0  0  0  0  0  0
 35 36  1  0  0  0
 36 30  1  0  0  0
 30 31  1  0  0  0
 31 32  2  0  0  0
 32 33  1  0  0  0
 33 34  2  0  0  0
 34 29  1  0  0  0
 34 30  1  0  0  0
 29  1  1  0  0  0
  1  2  1  0  0  0
  3  2  1  0  0  0
  3  4  1  0  0  0
  3 10  1  0  0  0
  4  5  2  0  0  0
  4  6  1  0  0  0
  6 19  1  0  0  0
  6  7  1  0  0  0
 19 20  2  0  0  0
 20 21  1  0  0  0
 21 22  2  0  0  0
 22 23  1  0  0  0
 23 24  2  0  0  0
 24 25  1  0  0  0
 25 26  2  0  0  0
 26 27  1  0  0  0
 27 28  2  0  0  0
 28 19  1  0  0  0
 28 23  1  0  0  0
  7  8  1  0  0  0
  8  9  1  0  0  0
  8  3  1  0  0  0
 10 11  2  0  0  0
 11 12  1  0  0  0
 12 13  1  0  0  0
 12 14  2  0  0  0
 14 15  1  0  0  0
 15 16  2  0  0  0
 16 17  1  0  0  0
 16 10  1  0  0  0
 17 18  2  0  0  0
 17  1  1  0  0  0
M  END
> <minimizedAffinity>
-7.30953

> <CNNscore>
0.1083220243

> <CNNaffinity>
5.7606520653

> <CNN_VS>
0.6240054965

> <CNNaffinity_variance>
0.1574201882

$$$$



 22 25  0  0  0  0  0  0  0  0999 V2000
   -8.1857   -1.3815  -21.1994 O   0  0  0  0  0  0  0  0  0  0  0  0
   -7.5745   -2.2829  -21.8380 C   0  0  0  0  0  0  0  0  0  0  0  0
   -8.1825   -2.9866  -22.9308 N   0  0  0  0  0  0  0  0  0  0  0  0
   -7.4074   -3.9863  -23.5855 C   0  0  0  0  0  0  0  0  0  0  0  0
   -7.9951   -4.6378  -24.7713 C   0  0  0  0  0  0  0  0  0  0  0  0
   -9.2533   -4.1198  -25.3268 C   0  0  0  0  0  0  0  0  0  0  0  0
  -10.1547   -5.2544  -25.8549 C   0  0  0  0  0  0  0  0  0  0  0  0
   -9.2397   -5.2571  -27.0813 C   0  0  0  0  0  0  0  0  0  0  0  0
   -9.0789   -3.7555  -26.8138 C   0  0  0  0  0  0  0  0  0  0  0  0
   -9.9653   -3.0332  -24.6370 C   0  0  0  0  0  0  0  0  0  0  0  0
   -9.5163   -2.6398  -23.2834 C   0  0  0  0  0  0  0  0  0  0  0  0
   -6.1893   -2.5839  -21.4031 C   0  0  0  0  0  0  0  0  0  0  0  0
   -5.7473   -1.6666  -20.3475 C   0  0  0  0  0  0  0  0  0  0  0  0
   -6.1606   -1.8907  -19.0382 C   0  0  0  0  0  0  0  0  0  0  0  0
   -5.7844   -1.0783  -18.0226 N   0  0  0  0  0  0  0  0  0  0  0  0
   -4.9931   -0.0080  -18.2027 C   0  0  0  0  0  0  0  0  0  0  0  0
   -4.5576    0.2520  -19.4955 C   0  0  0  0  0  0  0  0  0  0  0  0
   -3.7488    1.3514  -19.6712 C   0  0  0  0  0  0  0  0  0  0  0  0
   -3.3078    1.6276  -20.9463 C   0  0  0  0  0  0  0  0  0  0  0  0
   -3.6843    0.8057  -21.9960 C   0  0  0  0  0  0  0  0  0  0  0  0
   -4.4947   -0.2988  -21.8285 C   0  0  0  0  0  0  0  0  0  0  0  0
   -4.9355   -0.5735  -20.5502 C   0  0  0  0  0  0  0  0  0  0  0  0
  1  2  2  0  0  0
  2 12  1  0  0  0
  2  3  1  0  0  0
 12 13  1  0  0  0
 13 14  2  0  0  0
 14 15  1  0  0  0
 15 16  2  0  0  0
 16 17  1  0  0  0
 17 18  2  0  0  0
 18 19  1  0  0  0
 19 20  2  0  0  0
 20 21  1  0  0  0
 21 22  2  0  0  0
 22 13  1  0  0  0
 22 17  1  0  0  0
  3  4  1  0  0  0
  4  5  1  0  0  0
  5  6  1  0  0  0
  6  7  1  0  0  0
  6 10  1  0  0  0
  7  8  1  0  0  0
  8  9  1  0  0  0
  9  6  1  0  0  0
 10 11  1  0  0  0
 11  3  1  0  0  0
M  END
> <minimizedAffinity>
-7.26991

> <CNNscore>
0.7267566919

> <CNNaffinity>
5.3036384583

> <CNN_VS>
3.8544547558

> <CNNaffinity_variance>
0.1820093989

$$$$



 22 25  0  0  0  0  0  0  0  0999 V2000
   -5.3188   -3.6012  -20.5229 O   0  0  0  0  0  0  0  0  0  0  0  0
   -5.9972   -3.2579  -21.5307 C   0  0  0  0  0  0  0  0  0  0  0  0
   -6.2604   -4.1611  -22.6143 N   0  0  0  0  0  0  0  0  0  0  0  0
   -7.0365   -3.6753  -23.7053 C   0  0  0  0  0  0  0  0  0  0  0  0
   -7.3918   -4.6327  -24.7698 C   0  0  0  0  0  0  0  0  0  0  0  0
   -7.0916   -6.0592  -24.5835 C   0  0  0  0  0  0  0  0  0  0  0  0
   -6.6617   -6.7299  -25.9041 C   0  0  0  0  0  0  0  0  0  0  0  0
   -8.1534   -6.7578  -26.2438 C   0  0  0  0  0  0  0  0  0  0  0  0
   -8.3707   -6.9053  -24.7328 C   0  0  0  0  0  0  0  0  0  0  0  0
   -6.3485   -6.5013  -23.3937 C   0  0  0  0  0  0  0  0  0  0  0  0
   -5.7270   -5.4769  -22.5258 C   0  0  0  0  0  0  0  0  0  0  0  0
   -6.5129   -1.8678  -21.5438 C   0  0  0  0  0  0  0  0  0  0  0  0
   -5.9562   -1.0789  -20.4398 C   0  0  0  0  0  0  0  0  0  0  0  0
   -6.5166   -1.1980  -19.1720 C   0  0  0  0  0  0  0  0  0  0  0  0
   -6.0449   -0.4956  -18.1150 N   0  0  0  0  0  0  0  0  0  0  0  0
   -5.0128    0.3585  -18.2118 C   0  0  0  0  0  0  0  0  0  0  0  0
   -4.4240    0.5072  -19.4607 C   0  0  0  0  0  0  0  0  0  0  0  0
   -3.3685    1.3855  -19.5512 C   0  0  0  0  0  0  0  0  0  0  0  0
   -2.7720    1.5488  -20.7817 C   0  0  0  0  0  0  0  0  0  0  0  0
   -3.2432    0.8372  -21.8729 C   0  0  0  0  0  0  0  0  0  0  0  0
   -4.3008   -0.0456  -21.7908 C   0  0  0  0  0  0  0  0  0  0  0  0
   -4.8970   -0.2075  -20.5571 C   0  0  0  0  0  0  0  0  0  0  0  0
  1  2  2  0  0  0
  2 12  1  0  0  0
  2  3  1  0  0  0
 12 13  1  0  0  0
 13 14  2  0  0  0
 14 15  1  0  0  0
 15 16  2  0  0  0
 16 17  1  0  0  0
 17 18  2  0  0  0
 18 19  1  0  0  0
 19 20  2  0  0  0
 20 21  1  0  0  0
 21 22  2  0  0  0
 22 13  1  0  0  0
 22 17  1  0  0  0
  3  4  1  0  0  0
  4  5  1  0  0  0
  5  6  1  0  0  0
  6  7  1  0  0  0
  6 10  1  0  0  0
  7  8  1  0  0  0
  8  9  1  0  0  0
  9  6  1  0  0  0
 10 11  1  0  0  0
 11  3  1  0  0  0
M  END
> <minimizedAffinity>
-7.62768

> <CNNscore>
0.7172486186

> <CNNaffinity>
5.2907748222

> <CNN_VS>
3.7948009968

> <CNNaffinity_variance>
0.3425630629

$$$$



 22 25  0  0  0  0  0  0  0  0999 V2000
  -10.0892   -3.0229  -25.7882 O   0  0  0  0  0  0  0  0  0  0  0  0
   -9.4073   -2.9516  -24.7281 C   0  0  0  0  0  0  0  0  0  0  0  0
   -8.6380   -4.0613  -24.2423 N   0  0  0  0  0  0  0  0  0  0  0  0
   -7.9031   -3.8777  -23.0361 C   0  0  0  0  0  0  0  0  0  0  0  0
   -7.0335   -4.9834  -22.5917 C   0  0  0  0  0  0  0  0  0  0  0  0
   -6.8245   -6.1353  -23.4801 C   0  0  0  0  0  0  0  0  0  0  0  0
   -6.7284   -7.4563  -22.6899 C   0  0  0  0  0  0  0  0  0  0  0  0
   -5.2931   -7.0308  -22.3732 C   0  0  0  0  0  0  0  0  0  0  0  0
   -5.3216   -6.3478  -23.7461 C   0  0  0  0  0  0  0  0  0  0  0  0
   -7.5633   -6.2247  -24.7487 C   0  0  0  0  0  0  0  0  0  0  0  0
   -8.6638   -5.2674  -24.9962 C   0  0  0  0  0  0  0  0  0  0  0  0
   -9.4385   -1.6592  -24.0022 C   0  0  0  0  0  0  0  0  0  0  0  0
  -10.8076   -1.2850  -23.6321 C   0  0  0  0  0  0  0  0  0  0  0  0
  -11.6864   -2.2726  -23.1989 C   0  0  0  0  0  0  0  0  0  0  0  0
  -12.9613   -1.9869  -22.8439 N   0  0  0  0  0  0  0  0  0  0  0  0
  -13.4656   -0.7427  -22.8833 C   0  0  0  0  0  0  0  0  0  0  0  0
  -12.6211    0.2738  -23.3102 C   0  0  0  0  0  0  0  0  0  0  0  0
  -13.1465    1.5451  -23.3493 C   0  0  0  0  0  0  0  0  0  0  0  0
  -12.3256    2.5669  -23.7718 C   0  0  0  0  0  0  0  0  0  0  0  0
  -11.0186    2.2906  -24.1386 C   0  0  0  0  0  0  0  0  0  0  0  0
  -10.4838    1.0189  -24.1022 C   0  0  0  0  0  0  0  0  0  0  0  0
  -11.3081   -0.0034  -23.6787 C   0  0  0  0  0  0  0  0  0  0  0  0
  1  2  2  0  0  0
  2 12  1  0  0  0
  2  3  1  0  0  0
 12 13  1  0  0  0
 13 14  2  0  0  0
 14 15  1  0  0  0
 15 16  2  0  0  0
 16 17  1  0  0  0
 17 18  2  0  0  0
 18 19  1  0  0  0
 19 20  2  0  0  0
 20 21  1  0  0  0
 21 22  2  0  0  0
 22 13  1  0  0  0
 22 17  1  0  0  0
  3  4  1  0  0  0
  4  5  1  0  0  0
  5  6  1  0  0  0
  6  7  1  0  0  0
  6 10  1  0  0  0
  7  8  1  0  0  0
  8  9  1  0  0  0
  9  6  1  0  0  0
 10 11  1  0  0  0
 11  3  1  0  0  0
M  END
> <minimizedAffinity>
-6.83004

> <CNNscore>
0.4302260280

> <CNNaffinity>
5.1579923630

> <CNN_VS>
2.2191026211

> <CNNaffinity_variance>
0.3421844840

$$$$



 22 25  0  0  0  0  0  0  0  0999 V2000
   -5.7081   -1.2457  -24.9899 O   0  0  0  0  0  0  0  0  0  0  0  0
   -6.8759   -1.5887  -24.6546 C   0  0  0  0  0  0  0  0  0  0  0  0
   -7.6016   -2.6067  -25.3590 N   0  0  0  0  0  0  0  0  0  0  0  0
   -8.9133   -2.9197  -24.9005 C   0  0  0  0  0  0  0  0  0  0  0  0
   -9.6190   -4.0346  -25.5602 C   0  0  0  0  0  0  0  0  0  0  0  0
   -8.8933   -4.8761  -26.5220 C   0  0  0  0  0  0  0  0  0  0  0  0
   -9.7951   -5.3111  -27.6951 C   0  0  0  0  0  0  0  0  0  0  0  0
  -10.3632   -6.3493  -26.7251 C   0  0  0  0  0  0  0  0  0  0  0  0
   -8.9612   -6.3576  -26.1037 C   0  0  0  0  0  0  0  0  0  0  0  0
   -7.5120   -4.5360  -26.8957 C   0  0  0  0  0  0  0  0  0  0  0  0
   -6.9633   -3.2308  -26.4666 C   0  0  0  0  0  0  0  0  0  0  0  0
   -7.4679   -0.8857  -23.4911 C   0  0  0  0  0  0  0  0  0  0  0  0
   -6.6672   -1.0867  -22.2788 C   0  0  0  0  0  0  0  0  0  0  0  0
   -6.6667   -2.3359  -21.6665 C   0  0  0  0  0  0  0  0  0  0  0  0
   -5.9470   -2.5806  -20.5461 N   0  0  0  0  0  0  0  0  0  0  0  0
   -5.1890   -1.6456  -19.9501 C   0  0  0  0  0  0  0  0  0  0  0  0
   -5.1613   -0.3837  -20.5294 C   0  0  0  0  0  0  0  0  0  0  0  0
   -4.3837    0.5686  -19.9113 C   0  0  0  0  0  0  0  0  0  0  0  0
   -4.3443    1.8271  -20.4691 C   0  0  0  0  0  0  0  0  0  0  0  0
   -5.0752    2.0931  -21.6154 C   0  0  0  0  0  0  0  0  0  0  0  0
   -5.8573    1.1440  -22.2417 C   0  0  0  0  0  0  0  0  0  0  0  0
   -5.8954   -0.1162  -21.6809 C   0  0  0  0  0  0  0  0  0  0  0  0
  1  2  2  0  0  0
  2 12  1  0  0  0
  2  3  1  0  0  0
 12 13  1  0  0  0
 13 14  2  0  0  0
 14 15  1  0  0  0
 15 16  2  0  0  0
 16 17  1  0  0  0
 17 18  2  0  0  0
 18 19  1  0  0  0
 19 20  2  0  0  0
 20 21  1  0  0  0
 21 22  2  0  0  0
 22 13  1  0  0  0
 22 17  1  0  0  0
  3  4  1  0  0  0
  4  5  1  0  0  0
  5  6  1  0  0  0
  6  7  1  0  0  0
  6 10  1  0  0  0
  7  8  1  0  0  0
  8  9  1  0  0  0
  9  6  1  0  0  0
 10 11  1  0  0  0
 11  3  1  0  0  0
M  END
> <minimizedAffinity>
-5.62181

> <CNNscore>
0.3629371822

> <CNNaffinity>
4.8409376144

> <CNN_VS>
1.7569562197

> <CNNaffinity_variance>
0.2581919730

$$$$



 22 25  0  0  0  0  0  0  0  0999 V2000
   -8.7106   -1.8156  -21.8242 O   0  0  0  0  0  0  0  0  0  0  0  0
   -8.0678   -2.7392  -22.3966 C   0  0  0  0  0  0  0  0  0  0  0  0
   -8.6364   -3.5148  -23.4617 N   0  0  0  0  0  0  0  0  0  0  0  0
   -7.8276   -4.5342  -24.0409 C   0  0  0  0  0  0  0  0  0  0  0  0
   -8.3746   -5.2625  -25.2013 C   0  0  0  0  0  0  0  0  0  0  0  0
   -9.6284   -4.8012  -25.8138 C   0  0  0  0  0  0  0  0  0  0  0  0
  -10.4959   -5.9810  -26.2977 C   0  0  0  0  0  0  0  0  0  0  0  0
   -9.5517   -6.0345  -27.5006 C   0  0  0  0  0  0  0  0  0  0  0  0
   -9.4248   -4.5174  -27.3147 C   0  0  0  0  0  0  0  0  0  0  0  0
  -10.3764   -3.6918  -25.2031 C   0  0  0  0  0  0  0  0  0  0  0  0
   -9.9675   -3.2145  -23.8638 C   0  0  0  0  0  0  0  0  0  0  0  0
   -6.6883   -2.9882  -21.9137 C   0  0  0  0  0  0  0  0  0  0  0  0
   -5.8731   -1.7701  -21.9678 C   0  0  0  0  0  0  0  0  0  0  0  0
   -5.4514   -1.2913  -23.2041 C   0  0  0  0  0  0  0  0  0  0  0  0
   -4.6977   -0.1722  -23.3161 N   0  0  0  0  0  0  0  0  0  0  0  0
   -4.3061    0.5500  -22.2535 C   0  0  0  0  0  0  0  0  0  0  0  0
   -4.7058    0.1066  -20.9996 C   0  0  0  0  0  0  0  0  0  0  0  0
   -4.2987    0.8515  -19.9165 C   0  0  0  0  0  0  0  0  0  0  0  0
   -4.6830    0.4273  -18.6639 C   0  0  0  0  0  0  0  0  0  0  0  0
   -5.4542   -0.7160  -18.5328 C   0  0  0  0  0  0  0  0  0  0  0  0
   -5.8669   -1.4686  -19.6136 C   0  0  0  0  0  0  0  0  0  0  0  0
   -5.4806   -1.0418  -20.8676 C   0  0  0  0  0  0  0  0  0  0  0  0
  1  2  2  0  0  0
  2 12  1  0  0  0
  2  3  1  0  0  0
 12 13  1  0  0  0
 13 14  2  0  0  0
 14 15  1  0  0  0
 15 16  2  0  0  0
 16 17  1  0  0  0
 17 18  2  0  0  0
 18 19  1  0  0  0
 19 20  2  0  0  0
 20 21  1  0  0  0
 21 22  2  0  0  0
 22 13  1  0  0  0
 22 17  1  0  0  0
  3  4  1  0  0  0
  4  5  1  0  0  0
  5  6  1  0  0  0
  6  7  1  0  0  0
  6 10  1  0  0  0
  7  8  1  0  0  0
  8  9  1  0  0  0
  9  6  1  0  0  0
 10 11  1  0  0  0
 11  3  1  0  0  0
M  END
> <minimizedAffinity>
-6.79220

> <CNNscore>
0.3613291085

> <CNNaffinity>
4.7853593826

> <CNN_VS>
1.7290896177

> <CNNaffinity_variance>
0.2901164889

$$$$



 22 25  0  0  0  0  0  0  0  0999 V2000
   -6.9597   -1.3662  -18.8552 O   0  0  0  0  0  0  0  0  0  0  0  0
   -6.9073   -0.6711  -19.9078 C   0  0  0  0  0  0  0  0  0  0  0  0
   -5.8274    0.2379  -20.1663 N   0  0  0  0  0  0  0  0  0  0  0  0
   -5.8626    0.9760  -21.3840 C   0  0  0  0  0  0  0  0  0  0  0  0
   -4.7035    1.8335  -21.6960 C   0  0  0  0  0  0  0  0  0  0  0  0
   -3.5058    1.7603  -20.8475 C   0  0  0  0  0  0  0  0  0  0  0  0
   -2.8458    3.1429  -20.6701 C   0  0  0  0  0  0  0  0  0  0  0  0
   -2.2634    2.9183  -22.0671 C   0  0  0  0  0  0  0  0  0  0  0  0
   -2.2618    1.4305  -21.6948 C   0  0  0  0  0  0  0  0  0  0  0  0
   -3.5137    0.9184  -19.6415 C   0  0  0  0  0  0  0  0  0  0  0  0
   -4.7986    0.3411  -19.1892 C   0  0  0  0  0  0  0  0  0  0  0  0
   -8.0216   -0.8376  -20.8716 C   0  0  0  0  0  0  0  0  0  0  0  0
   -7.8090   -1.9991  -21.7417 C   0  0  0  0  0  0  0  0  0  0  0  0
   -6.5783   -2.6474  -21.7179 C   0  0  0  0  0  0  0  0  0  0  0  0
   -6.3244   -3.7243  -22.4981 N   0  0  0  0  0  0  0  0  0  0  0  0
   -7.2320   -4.2402  -23.3432 C   0  0  0  0  0  0  0  0  0  0  0  0
   -8.4747   -3.6226  -23.3980 C   0  0  0  0  0  0  0  0  0  0  0  0
   -9.3978   -4.1565  -24.2677 C   0  0  0  0  0  0  0  0  0  0  0  0
  -10.6358   -3.5572  -24.3384 C   0  0  0  0  0  0  0  0  0  0  0  0
  -10.9108   -2.4544  -23.5464 C   0  0  0  0  0  0  0  0  0  0  0  0
   -9.9910   -1.9128  -22.6716 C   0  0  0  0  0  0  0  0  0  0  0  0
   -8.7513   -2.5148  -22.6025 C   0  0  0  0  0  0  0  0  0  0  0  0
  1  2  2  0  0  0
  2 12  1  0  0  0
  2  3  1  0  0  0
 12 13  1  0  0  0
 13 14  2  0  0  0
 14 15  1  0  0  0
 15 16  2  0  0  0
 16 17  1  0  0  0
 17 18  2  0  0  0
 18 19  1  0  0  0
 19 20  2  0  0  0
 20 21  1  0  0  0
 21 22  2  0  0  0
 22 13  1  0  0  0
 22 17  1  0  0  0
  3  4  1  0  0  0
  4  5  1  0  0  0
  5  6  1  0  0  0
  6  7  1  0  0  0
  6 10  1  0  0  0
  7  8  1  0  0  0
  8  9  1  0  0  0
  9  6  1  0  0  0
 10 11  1  0  0  0
 11  3  1  0  0  0
M  END
> <minimizedAffinity>
-6.42056

> <CNNscore>
0.3591257632

> <CNNaffinity>
5.0599174500

> <CNN_VS>
1.8171466589

> <CNNaffinity_variance>
0.2828696370

$$$$



 22 25  0  0  0  0  0  0  0  0999 V2000
   -8.4283   -1.0472  -25.7547 O   0  0  0  0  0  0  0  0  0  0  0  0
   -8.3323   -1.5334  -24.5935 C   0  0  0  0  0  0  0  0  0  0  0  0
   -8.0445   -2.9215  -24.3713 N   0  0  0  0  0  0  0  0  0  0  0  0
   -7.9573   -3.3701  -23.0222 C   0  0  0  0  0  0  0  0  0  0  0  0
   -7.5621   -4.7729  -22.7937 C   0  0  0  0  0  0  0  0  0  0  0  0
   -7.1109   -5.5872  -23.9308 C   0  0  0  0  0  0  0  0  0  0  0  0
   -7.5814   -7.0508  -23.8080 C   0  0  0  0  0  0  0  0  0  0  0  0
   -6.4290   -7.2191  -22.8155 C   0  0  0  0  0  0  0  0  0  0  0  0
   -5.7071   -6.1626  -23.6610 C   0  0  0  0  0  0  0  0  0  0  0  0
   -7.1592   -5.0332  -25.2925 C   0  0  0  0  0  0  0  0  0  0  0  0
   -7.8686   -3.7536  -25.5116 C   0  0  0  0  0  0  0  0  0  0  0  0
   -8.5328   -0.5972  -23.4614 C   0  0  0  0  0  0  0  0  0  0  0  0
   -9.8036    0.1253  -23.5816 C   0  0  0  0  0  0  0  0  0  0  0  0
   -9.7897    1.4597  -23.9749 C   0  0  0  0  0  0  0  0  0  0  0  0
  -10.9308    2.1771  -24.1034 N   0  0  0  0  0  0  0  0  0  0  0  0
  -12.1464    1.6589  -23.8632 C   0  0  0  0  0  0  0  0  0  0  0  0
  -12.2052    0.3288  -23.4679 C   0  0  0  0  0  0  0  0  0  0  0  0
  -13.4544   -0.1933  -23.2221 C   0  0  0  0  0  0  0  0  0  0  0  0
  -13.5341   -1.5102  -22.8270 C   0  0  0  0  0  0  0  0  0  0  0  0
  -12.3755   -2.2574  -22.6909 C   0  0  0  0  0  0  0  0  0  0  0  0
  -11.1190   -1.7417  -22.9355 C   0  0  0  0  0  0  0  0  0  0  0  0
  -11.0416   -0.4220  -23.3311 C   0  0  0  0  0  0  0  0  0  0  0  0
  1  2  2  0  0  0
  2 12  1  0  0  0
  2  3  1  0  0  0
 12 13  1  0  0  0
 13 14  2  0  0  0
 14 15  1  0  0  0
 15 16  2  0  0  0
 16 17  1  0  0  0
 17 18  2  0  0  0
 18 19  1  0  0  0
 19 20  2  0  0  0
 20 21  1  0  0  0
 21 22  2  0  0  0
 22 13  1  0  0  0
 22 17  1  0  0  0
  3  4  1  0  0  0
  4  5  1  0  0  0
  5  6  1  0  0  0
  6  7  1  0  0  0
  6 10  1  0  0  0
  7  8  1  0  0  0
  8  9  1  0  0  0
  9  6  1  0  0  0
 10 11  1  0  0  0
 11  3  1  0  0  0
M  END
> <minimizedAffinity>
-6.02233

> <CNNscore>
0.3469453156

> <CNNaffinity>
5.1896553040

> <CNN_VS>
1.8005266190

> <CNNaffinity_variance>
0.0959565490

$$$$



 22 25  0  0  0  0  0  0  0  0999 V2000
   -6.1842   -1.3084  -18.7719 O   0  0  0  0  0  0  0  0  0  0  0  0
   -5.6928   -1.1825  -19.9280 C   0  0  0  0  0  0  0  0  0  0  0  0
   -4.7624   -0.1383  -20.2496 N   0  0  0  0  0  0  0  0  0  0  0  0
   -4.2666   -0.0835  -21.5838 C   0  0  0  0  0  0  0  0  0  0  0  0
   -3.2349    0.9261  -21.8875 C   0  0  0  0  0  0  0  0  0  0  0  0
   -2.6415    1.7009  -20.7886 C   0  0  0  0  0  0  0  0  0  0  0  0
   -2.3526    3.1569  -21.2069 C   0  0  0  0  0  0  0  0  0  0  0  0
   -1.1144    2.5911  -21.9056 C   0  0  0  0  0  0  0  0  0  0  0  0
   -1.1085    1.5457  -20.7834 C   0  0  0  0  0  0  0  0  0  0  0  0
   -3.1543    1.5399  -19.4195 C   0  0  0  0  0  0  0  0  0  0  0  0
   -4.4013    0.7702  -19.2163 C   0  0  0  0  0  0  0  0  0  0  0  0
   -6.1250   -2.1699  -20.9461 C   0  0  0  0  0  0  0  0  0  0  0  0
   -7.3798   -1.7641  -21.5880 C   0  0  0  0  0  0  0  0  0  0  0  0
   -7.9388   -0.5320  -21.2645 C   0  0  0  0  0  0  0  0  0  0  0  0
   -9.0947   -0.1041  -21.8249 N   0  0  0  0  0  0  0  0  0  0  0  0
   -9.7789   -0.8299  -22.7244 C   0  0  0  0  0  0  0  0  0  0  0  0
   -9.2552   -2.0673  -23.0756 C   0  0  0  0  0  0  0  0  0  0  0  0
   -9.9636   -2.8049  -23.9964 C   0  0  0  0  0  0  0  0  0  0  0  0
   -9.4619   -4.0358  -24.3566 C   0  0  0  0  0  0  0  0  0  0  0  0
   -8.2803   -4.4876  -23.7919 C   0  0  0  0  0  0  0  0  0  0  0  0
   -7.5637   -3.7543  -22.8681 C   0  0  0  0  0  0  0  0  0  0  0  0
   -8.0683   -2.5214  -22.5086 C   0  0  0  0  0  0  0  0  0  0  0  0
  1  2  2  0  0  0
  2 12  1  0  0  0
  2  3  1  0  0  0
 12 13  1  0  0  0
 13 14  2  0  0  0
 14 15  1  0  0  0
 15 16  2  0  0  0
 16 17  1  0  0  0
 17 18  2  0  0  0
 18 19  1  0  0  0
 19 20  2  0  0  0
 20 21  1  0  0  0
 21 22  2  0  0  0
 22 13  1  0  0  0
 22 17  1  0  0  0
  3  4  1  0  0  0
  4  5  1  0  0  0
  5  6  1  0  0  0
  6  7  1  0  0  0
  6 10  1  0  0  0
  7  8  1  0  0  0
  8  9  1  0  0  0
  9  6  1  0  0  0
 10 11  1  0  0  0
 11  3  1  0  0  0
M  END
> <minimizedAffinity>
-6.31310

> <CNNscore>
0.3426987231

> <CNNaffinity>
4.9308195114

> <CNN_VS>
1.6897855997

> <CNNaffinity_variance>
0.2911923826

$$$$



 22 25  0  0  0  0  0  0  0  0999 V2000
   -7.5135   -0.3768  -20.4068 O   0  0  0  0  0  0  0  0  0  0  0  0
   -6.9718    0.2896  -21.3322 C   0  0  0  0  0  0  0  0  0  0  0  0
   -5.7140    0.9569  -21.1532 N   0  0  0  0  0  0  0  0  0  0  0  0
   -5.1882    1.6828  -22.2602 C   0  0  0  0  0  0  0  0  0  0  0  0
   -3.8493    2.2832  -22.1086 C   0  0  0  0  0  0  0  0  0  0  0  0
   -3.0510    1.9684  -20.9155 C   0  0  0  0  0  0  0  0  0  0  0  0
   -2.2362    3.1867  -20.4354 C   0  0  0  0  0  0  0  0  0  0  0  0
   -1.2678    2.8431  -21.5692 C   0  0  0  0  0  0  0  0  0  0  0  0
   -1.6817    1.3878  -21.3185 C   0  0  0  0  0  0  0  0  0  0  0  0
   -3.6325    1.1496  -19.8409 C   0  0  0  0  0  0  0  0  0  0  0  0
   -5.0806    0.8497  -19.8839 C   0  0  0  0  0  0  0  0  0  0  0  0
   -7.7006    0.3523  -22.6218 C   0  0  0  0  0  0  0  0  0  0  0  0
   -8.7274   -0.6914  -22.7089 C   0  0  0  0  0  0  0  0  0  0  0  0
   -8.3545   -2.0231  -22.5572 C   0  0  0  0  0  0  0  0  0  0  0  0
   -9.2580   -3.0290  -22.6273 N   0  0  0  0  0  0  0  0  0  0  0  0
  -10.5663   -2.8174  -22.8460 C   0  0  0  0  0  0  0  0  0  0  0  0
  -10.9812   -1.5013  -23.0030 C   0  0  0  0  0  0  0  0  0  0  0  0
  -12.3228   -1.2939  -23.2284 C   0  0  0  0  0  0  0  0  0  0  0  0
  -12.7542    0.0041  -23.3888 C   0  0  0  0  0  0  0  0  0  0  0  0
  -11.8418    1.0443  -23.3199 C   0  0  0  0  0  0  0  0  0  0  0  0
  -10.4950    0.8450  -23.0941 C   0  0  0  0  0  0  0  0  0  0  0  0
  -10.0650   -0.4562  -22.9338 C   0  0  0  0  0  0  0  0  0  0  0  0
  1  2  2  0  0  0
  2 12  1  0  0  0
  2  3  1  0  0  0
 12 13  1  0  0  0
 13 14  2  0  0  0
 14 15  1  0  0  0
 15 16  2  0  0  0
 16 17  1  0  0  0
 17 18  2  0  0  0
 18 19  1  0  0  0
 19 20  2  0  0  0
 20 21  1  0  0  0
 21 22  2  0  0  0
 22 13  1  0  0  0
 22 17  1  0  0  0
  3  4  1  0  0  0
  4  5  1  0  0  0
  5  6  1  0  0  0
  6  7  1  0  0  0
  6 10  1  0  0  0
  7  8  1  0  0  0
  8  9  1  0  0  0
  9  6  1  0  0  0
 10 11  1  0  0  0
 11  3  1  0  0  0
M  END
> <minimizedAffinity>
-6.31692

> <CNNscore>
0.3367012739

> <CNNaffinity>
4.8283591270

> <CNN_VS>
1.6257146597

> <CNNaffinity_variance>
0.0439950749

$$$$



 22 25  0  0  0  0  0  0  0  0999 V2000
   -8.0860   -1.4607  -21.4980 O   0  0  0  0  0  0  0  0  0  0  0  0
   -7.3270   -2.3493  -21.9438 C   0  0  0  0  0  0  0  0  0  0  0  0
   -7.8057   -3.1443  -23.0177 N   0  0  0  0  0  0  0  0  0  0  0  0
   -9.1447   -2.9160  -23.5636 C   0  0  0  0  0  0  0  0  0  0  0  0
   -9.5148   -4.1055  -24.4253 C   0  0  0  0  0  0  0  0  0  0  0  0
   -8.6137   -4.2604  -25.6142 C   0  0  0  0  0  0  0  0  0  0  0  0
   -7.1878   -4.1995  -25.1443 C   0  0  0  0  0  0  0  0  0  0  0  0
   -7.0387   -4.2048  -23.6378 C   0  0  0  0  0  0  0  0  0  0  0  0
   -8.9500   -5.6013  -26.2435 C   0  0  0  0  0  0  0  0  0  0  0  0
   -9.4991   -5.5971  -27.6513 C   0  0  0  0  0  0  0  0  0  0  0  0
  -10.3749   -5.9684  -26.5037 C   0  0  0  0  0  0  0  0  0  0  0  0
   -5.9733   -2.5923  -21.3977 C   0  0  0  0  0  0  0  0  0  0  0  0
   -5.6576   -1.7035  -20.2552 C   0  0  0  0  0  0  0  0  0  0  0  0
   -6.0877   -1.9398  -18.9660 C   0  0  0  0  0  0  0  0  0  0  0  0
   -5.7462   -1.0633  -17.9803 N   0  0  0  0  0  0  0  0  0  0  0  0
   -5.0001    0.0192  -18.2550 C   0  0  0  0  0  0  0  0  0  0  0  0
   -4.5382    0.3130  -19.5239 C   0  0  0  0  0  0  0  0  0  0  0  0
   -3.7750    1.4255  -19.7948 C   0  0  0  0  0  0  0  0  0  0  0  0
   -3.3271    1.6905  -21.0858 C   0  0  0  0  0  0  0  0  0  0  0  0
   -3.6759    0.7992  -22.0792 C   0  0  0  0  0  0  0  0  0  0  0  0
   -4.4393   -0.3157  -21.8159 C   0  0  0  0  0  0  0  0  0  0  0  0
   -4.8914   -0.5862  -20.5220 C   0  0  0  0  0  0  0  0  0  0  0  0
  1  2  2  0  0  0
  2 12  1  0  0  0
  2  3  1  0  0  0
 12 13  1  0  0  0
 13 14  2  0  0  0
 14 15  1  0  0  0
 15 16  2  0  0  0
 16 17  1  0  0  0
 17 18  2  0  0  0
 18 19  1  0  0  0
 19 20  2  0  0  0
 20 21  1  0  0  0
 21 22  2  0  0  0
 22 13  1  0  0  0
 22 17  1  0  0  0
  3  4  1  0  0  0
  4  5  1  0  0  0
  5  6  1  0  0  0
  6  9  1  0  0  0
  6  7  1  0  0  0
  9 10  1  0  0  0
 10 11  1  0  0  0
 11  9  1  0  0  0
  7  8  1  0  0  0
  8  3  1  0  0  0
M  END
> <minimizedAffinity>
-7.00573

> <CNNscore>
0.6990254521

> <CNNaffinity>
5.2472610474

> <CNN_VS>
3.6679689884

> <CNNaffinity_variance>
0.2294280976

$$$$



 22 25  0  0  0  0  0  0  0  0999 V2000
   -5.3669   -3.4170  -20.9119 O   0  0  0  0  0  0  0  0  0  0  0  0
   -6.1684   -2.8705  -21.7014 C   0  0  0  0  0  0  0  0  0  0  0  0
   -6.7221   -3.6709  -22.7344 N   0  0  0  0  0  0  0  0  0  0  0  0
   -6.3493   -5.0816  -22.8535 C   0  0  0  0  0  0  0  0  0  0  0  0
   -6.7941   -5.5766  -24.2142 C   0  0  0  0  0  0  0  0  0  0  0  0
   -8.2836   -5.5355  -24.3854 C   0  0  0  0  0  0  0  0  0  0  0  0
   -8.7736   -4.1735  -23.9820 C   0  0  0  0  0  0  0  0  0  0  0  0
   -7.6648   -3.1774  -23.7169 C   0  0  0  0  0  0  0  0  0  0  0  0
   -8.5618   -5.8312  -25.8490 C   0  0  0  0  0  0  0  0  0  0  0  0
   -9.1626   -7.1749  -26.1909 C   0  0  0  0  0  0  0  0  0  0  0  0
   -7.7552   -6.8623  -26.5695 C   0  0  0  0  0  0  0  0  0  0  0  0
   -6.5498   -1.4447  -21.5939 C   0  0  0  0  0  0  0  0  0  0  0  0
   -6.0573   -0.8214  -20.3432 C   0  0  0  0  0  0  0  0  0  0  0  0
   -6.6581   -1.0033  -19.1148 C   0  0  0  0  0  0  0  0  0  0  0  0
   -6.1313   -0.3871  -18.0197 N   0  0  0  0  0  0  0  0  0  0  0  0
   -5.0407    0.3890  -18.1292 C   0  0  0  0  0  0  0  0  0  0  0  0
   -4.3925    0.6118  -19.3292 C   0  0  0  0  0  0  0  0  0  0  0  0
   -3.2760    1.4097  -19.4306 C   0  0  0  0  0  0  0  0  0  0  0  0
   -2.6487    1.6123  -20.6565 C   0  0  0  0  0  0  0  0  0  0  0  0
   -3.1866    0.9855  -21.7614 C   0  0  0  0  0  0  0  0  0  0  0  0
   -4.3034    0.1861  -21.6678 C   0  0  0  0  0  0  0  0  0  0  0  0
   -4.9368   -0.0205  -20.4399 C   0  0  0  0  0  0  0  0  0  0  0  0
  1  2  2  0  0  0
  2 12  1  0  0  0
  2  3  1  0  0  0
 12 13  1  0  0  0
 13 14  2  0  0  0
 14 15  1  0  0  0
 15 16  2  0  0  0
 16 17  1  0  0  0
 17 18  2  0  0  0
 18 19  1  0  0  0
 19 20  2  0  0  0
 20 21  1  0  0  0
 21 22  2  0  0  0
 22 13  1  0  0  0
 22 17  1  0  0  0
  3  4  1  0  0  0
  4  5  1  0  0  0
  5  6  1  0  0  0
  6  9  1  0  0  0
  6  7  1  0  0  0
  9 10  1  0  0  0
 10 11  1  0  0  0
 11  9  1  0  0  0
  7  8  1  0  0  0
  8  3  1  0  0  0
M  END
> <minimizedAffinity>
-7.18195

> <CNNscore>
0.6478114724

> <CNNaffinity>
5.2218799591

> <CNN_VS>
3.3827936649

> <CNNaffinity_variance>
0.2841300368

$$$$



 22 25  0  0  0  0  0  0  0  0999 V2000
   -7.3896   -0.3649  -19.6888 O   0  0  0  0  0  0  0  0  0  0  0  0
   -6.7336   -1.1412  -20.4178 C   0  0  0  0  0  0  0  0  0  0  0  0
   -7.4341   -1.8302  -21.4420 N   0  0  0  0  0  0  0  0  0  0  0  0
   -8.8733   -1.6262  -21.6159 C   0  0  0  0  0  0  0  0  0  0  0  0
   -9.4029   -2.7245  -22.5145 C   0  0  0  0  0  0  0  0  0  0  0  0
   -8.8172   -2.6748  -23.8944 C   0  0  0  0  0  0  0  0  0  0  0  0
   -7.3225   -2.5775  -23.7758 C   0  0  0  0  0  0  0  0  0  0  0  0
   -6.8073   -2.7551  -22.3634 C   0  0  0  0  0  0  0  0  0  0  0  0
   -9.2517   -3.9489  -24.5979 C   0  0  0  0  0  0  0  0  0  0  0  0
   -9.6338   -3.8491  -26.0564 C   0  0  0  0  0  0  0  0  0  0  0  0
  -10.6739   -4.1197  -25.0236 C   0  0  0  0  0  0  0  0  0  0  0  0
   -5.2796   -1.3589  -20.2493 C   0  0  0  0  0  0  0  0  0  0  0  0
   -4.5155   -0.0896  -20.2454 C   0  0  0  0  0  0  0  0  0  0  0  0
   -4.2761    0.6508  -19.1063 C   0  0  0  0  0  0  0  0  0  0  0  0
   -3.5622    1.8072  -19.2033 N   0  0  0  0  0  0  0  0  0  0  0  0
   -3.0949    2.2259  -20.3908 C   0  0  0  0  0  0  0  0  0  0  0  0
   -3.3000    1.5315  -21.5678 C   0  0  0  0  0  0  0  0  0  0  0  0
   -2.8176    1.9697  -22.7797 C   0  0  0  0  0  0  0  0  0  0  0  0
   -3.0437    1.2444  -23.9460 C   0  0  0  0  0  0  0  0  0  0  0  0
   -3.7669    0.0743  -23.8412 C   0  0  0  0  0  0  0  0  0  0  0  0
   -4.2529   -0.3703  -22.6325 C   0  0  0  0  0  0  0  0  0  0  0  0
   -4.0288    0.3539  -21.4591 C   0  0  0  0  0  0  0  0  0  0  0  0
  1  2  2  0  0  0
  2 12  1  0  0  0
  2  3  1  0  0  0
 12 13  1  0  0  0
 13 14  2  0  0  0
 14 15  1  0  0  0
 15 16  2  0  0  0
 16 17  1  0  0  0
 17 18  2  0  0  0
 18 19  1  0  0  0
 19 20  2  0  0  0
 20 21  1  0  0  0
 21 22  2  0  0  0
 22 13  1  0  0  0
 22 17  1  0  0  0
  3  4  1  0  0  0
  4  5  1  0  0  0
  5  6  1  0  0  0
  6  9  1  0  0  0
  6  7  1  0  0  0
  9 10  1  0  0  0
 10 11  1  0  0  0
 11  9  1  0  0  0
  7  8  1  0  0  0
  8  3  1  0  0  0
M  END
> <minimizedAffinity>
-6.27930

> <CNNscore>
0.6440489292

> <CNNaffinity>
5.1318521500

> <CNN_VS>
3.3051638603

> <CNNaffinity_variance>
0.2017409056

$$$$



 22 25  0  0  0  0  0  0  0  0999 V2000
   -6.9570   -3.6976  -22.1480 O   0  0  0  0  0  0  0  0  0  0  0  0
   -6.9612   -2.4679  -22.3763 C   0  0  0  0  0  0  0  0  0  0  0  0
   -8.1934   -1.8741  -22.7553 N   0  0  0  0  0  0  0  0  0  0  0  0
   -9.4009   -2.6934  -22.8722 C   0  0  0  0  0  0  0  0  0  0  0  0
  -10.4474   -1.8920  -23.6185 C   0  0  0  0  0  0  0  0  0  0  0  0
  -10.8661   -0.6569  -22.8777 C   0  0  0  0  0  0  0  0  0  0  0  0
   -9.6319    0.0907  -22.4590 C   0  0  0  0  0  0  0  0  0  0  0  0
   -8.3512   -0.4641  -23.0456 C   0  0  0  0  0  0  0  0  0  0  0  0
  -11.7267    0.1526  -23.8324 C   0  0  0  0  0  0  0  0  0  0  0  0
  -12.7648    1.0722  -23.2324 C   0  0  0  0  0  0  0  0  0  0  0  0
  -13.1827   -0.1544  -23.9691 C   0  0  0  0  0  0  0  0  0  0  0  0
   -5.7464   -1.6301  -22.2656 C   0  0  0  0  0  0  0  0  0  0  0  0
   -5.5664   -1.0740  -20.9042 C   0  0  0  0  0  0  0  0  0  0  0  0
   -6.3101   -1.4755  -19.8139 C   0  0  0  0  0  0  0  0  0  0  0  0
   -6.0715   -0.9046  -18.6001 N   0  0  0  0  0  0  0  0  0  0  0  0
   -5.1249    0.0380  -18.4611 C   0  0  0  0  0  0  0  0  0  0  0  0
   -4.3464    0.4840  -19.5121 C   0  0  0  0  0  0  0  0  0  0  0  0
   -3.3796    1.4512  -19.3590 C   0  0  0  0  0  0  0  0  0  0  0  0
   -2.6139    1.8769  -20.4406 C   0  0  0  0  0  0  0  0  0  0  0  0
   -2.8602    1.2949  -21.6669 C   0  0  0  0  0  0  0  0  0  0  0  0
   -3.8257    0.3271  -21.8278 C   0  0  0  0  0  0  0  0  0  0  0  0
   -4.5970   -0.1037  -20.7455 C   0  0  0  0  0  0  0  0  0  0  0  0
  1  2  2  0  0  0
  2 12  1  0  0  0
  2  3  1  0  0  0
 12 13  1  0  0  0
 13 14  2  0  0  0
 14 15  1  0  0  0
 15 16  2  0  0  0
 16 17  1  0  0  0
 17 18  2  0  0  0
 18 19  1  0  0  0
 19 20  2  0  0  0
 20 21  1  0  0  0
 21 22  2  0  0  0
 22 13  1  0  0  0
 22 17  1  0  0  0
  3  4  1  0  0  0
  4  5  1  0  0  0
  5  6  1  0  0  0
  6  9  1  0  0  0
  6  7  1  0  0  0
  9 10  1  0  0  0
 10 11  1  0  0  0
 11  9  1  0  0  0
  7  8  1  0  0  0
  8  3  1  0  0  0
M  END
> <minimizedAffinity>
-6.86166

> <CNNscore>
0.5068736076

> <CNNaffinity>
5.1819391251

> <CNN_VS>
2.6265881062

> <CNNaffinity_variance>
0.3290997744

$$$$



 22 25  0  0  0  0  0  0  0  0999 V2000
  -11.2083   -3.2567  -23.6385 O   0  0  0  0  0  0  0  0  0  0  0  0
  -10.4565   -2.2982  -23.9222 C   0  0  0  0  0  0  0  0  0  0  0  0
  -10.9795   -0.9870  -23.7751 N   0  0  0  0  0  0  0  0  0  0  0  0
  -12.3537   -0.7897  -23.3106 C   0  0  0  0  0  0  0  0  0  0  0  0
  -12.7464    0.6468  -23.5876 C   0  0  0  0  0  0  0  0  0  0  0  0
  -11.9145    1.6313  -22.8207 C   0  0  0  0  0  0  0  0  0  0  0  0
  -10.4649    1.2895  -23.0199 C   0  0  0  0  0  0  0  0  0  0  0  0
  -10.2261    0.2164  -24.0607 C   0  0  0  0  0  0  0  0  0  0  0  0
  -12.2560    3.0074  -23.3656 C   0  0  0  0  0  0  0  0  0  0  0  0
  -13.1178    3.9063  -22.5096 C   0  0  0  0  0  0  0  0  0  0  0  0
  -13.6592    3.3237  -23.7703 C   0  0  0  0  0  0  0  0  0  0  0  0
   -9.0673   -2.4849  -24.3965 C   0  0  0  0  0  0  0  0  0  0  0  0
   -8.6110   -3.8887  -24.2687 C   0  0  0  0  0  0  0  0  0  0  0  0
   -8.0341   -4.3999  -23.1248 C   0  0  0  0  0  0  0  0  0  0  0  0
   -7.6455   -5.7057  -23.1029 N   0  0  0  0  0  0  0  0  0  0  0  0
   -7.8199   -6.4899  -24.1792 C   0  0  0  0  0  0  0  0  0  0  0  0
   -8.3906   -6.0397  -25.3544 C   0  0  0  0  0  0  0  0  0  0  0  0
   -8.5639   -6.8515  -26.4519 C   0  0  0  0  0  0  0  0  0  0  0  0
   -9.1426   -6.3637  -27.6201 C   0  0  0  0  0  0  0  0  0  0  0  0
   -9.5340   -5.0410  -27.6359 C   0  0  0  0  0  0  0  0  0  0  0  0
   -9.3637   -4.2228  -26.5420 C   0  0  0  0  0  0  0  0  0  0  0  0
   -8.7835   -4.7073  -25.3672 C   0  0  0  0  0  0  0  0  0  0  0  0
  1  2  2  0  0  0
  2 12  1  0  0  0
  2  3  1  0  0  0
 12 13  1  0  0  0
 13 14  2  0  0  0
 14 15  1  0  0  0
 15 16  2  0  0  0
 16 17  1  0  0  0
 17 18  2  0  0  0
 18 19  1  0  0  0
 19 20  2  0  0  0
 20 21  1  0  0  0
 21 22  2  0  0  0
 22 13  1  0  0  0
 22 17  1  0  0  0
  3  4  1  0  0  0
  4  5  1  0  0  0
  5  6  1  0  0  0
  6  9  1  0  0  0
  6  7  1  0  0  0
  9 10  1  0  0  0
 10 11  1  0  0  0
 11  9  1  0  0  0
  7  8  1  0  0  0
  8  3  1  0  0  0
M  END
> <minimizedAffinity>
-6.61795

> <CNNscore>
0.4337911606

> <CNNaffinity>
5.0686044693

> <CNN_VS>
2.1987159252

> <CNNaffinity_variance>
0.1604605168

$$$$



 22 25  0  0  0  0  0  0  0  0999 V2000
   -6.9872   -1.0402  -18.7920 O   0  0  0  0  0  0  0  0  0  0  0  0
   -6.8330   -0.5451  -19.9301 C   0  0  0  0  0  0  0  0  0  0  0  0
   -5.6297    0.1648  -20.1804 N   0  0  0  0  0  0  0  0  0  0  0  0
   -4.6227    0.3024  -19.1268 C   0  0  0  0  0  0  0  0  0  0  0  0
   -3.6426    1.3788  -19.5451 C   0  0  0  0  0  0  0  0  0  0  0  0
   -2.8829    1.0177  -20.7867 C   0  0  0  0  0  0  0  0  0  0  0  0
   -3.8633    0.5699  -21.8336 C   0  0  0  0  0  0  0  0  0  0  0  0
   -5.3114    0.7865  -21.4491 C   0  0  0  0  0  0  0  0  0  0  0  0
   -2.1248    2.2636  -21.2111 C   0  0  0  0  0  0  0  0  0  0  0  0
   -0.6557    2.1151  -21.5322 C   0  0  0  0  0  0  0  0  0  0  0  0
   -1.0876    2.8505  -20.3097 C   0  0  0  0  0  0  0  0  0  0  0  0
   -7.8453   -0.6738  -21.0018 C   0  0  0  0  0  0  0  0  0  0  0  0
   -7.6802   -1.9190  -21.7876 C   0  0  0  0  0  0  0  0  0  0  0  0
   -6.5290   -2.6788  -21.7760 C   0  0  0  0  0  0  0  0  0  0  0  0
   -6.4716   -3.8098  -22.5336 N   0  0  0  0  0  0  0  0  0  0  0  0
   -7.5202   -4.1850  -23.2841 C   0  0  0  0  0  0  0  0  0  0  0  0
   -8.7008   -3.4690  -23.3399 C   0  0  0  0  0  0  0  0  0  0  0  0
   -9.7692   -3.8618  -24.1131 C   0  0  0  0  0  0  0  0  0  0  0  0
  -10.9436   -3.1153  -24.1454 C   0  0  0  0  0  0  0  0  0  0  0  0
  -10.9955   -1.9714  -23.3761 C   0  0  0  0  0  0  0  0  0  0  0  0
   -9.9308   -1.5720  -22.6003 C   0  0  0  0  0  0  0  0  0  0  0  0
   -8.7499   -2.3175  -22.5644 C   0  0  0  0  0  0  0  0  0  0  0  0
  1  2  2  0  0  0
  2 12  1  0  0  0
  2  3  1  0  0  0
 12 13  1  0  0  0
 13 14  2  0  0  0
 14 15  1  0  0  0
 15 16  2  0  0  0
 16 17  1  0  0  0
 17 18  2  0  0  0
 18 19  1  0  0  0
 19 20  2  0  0  0
 20 21  1  0  0  0
 21 22  2  0  0  0
 22 13  1  0  0  0
 22 17  1  0  0  0
  3  4  1  0  0  0
  4  5  1  0  0  0
  5  6  1  0  0  0
  6  9  1  0  0  0
  6  7  1  0  0  0
  9 10  1  0  0  0
 10 11  1  0  0  0
 11  9  1  0  0  0
  7  8  1  0  0  0
  8  3  1  0  0  0
M  END
> <minimizedAffinity>
-6.29466

> <CNNscore>
0.3833164275

> <CNNaffinity>
5.0360174179

> <CNN_VS>
1.9303882122

> <CNNaffinity_variance>
0.2123385966

$$$$



 22 25  0  0  0  0  0  0  0  0999 V2000
   -8.0181   -0.7337  -20.4983 O   0  0  0  0  0  0  0  0  0  0  0  0
   -7.4913   -0.1577  -21.4756 C   0  0  0  0  0  0  0  0  0  0  0  0
   -6.1756    0.3481  -21.3093 N   0  0  0  0  0  0  0  0  0  0  0  0
   -5.4829    0.1927  -20.0290 C   0  0  0  0  0  0  0  0  0  0  0  0
   -4.2811    1.1147  -20.0250 C   0  0  0  0  0  0  0  0  0  0  0  0
   -3.2739    0.7556  -21.0767 C   0  0  0  0  0  0  0  0  0  0  0  0
   -3.9880    0.6021  -22.3898 C   0  0  0  0  0  0  0  0  0  0  0  0
   -5.4390    1.0323  -22.3517 C   0  0  0  0  0  0  0  0  0  0  0  0
   -2.2572    1.8836  -21.1090 C   0  0  0  0  0  0  0  0  0  0  0  0
   -0.8021    1.5114  -21.2751 C   0  0  0  0  0  0  0  0  0  0  0  0
   -1.2957    2.0556  -19.9781 C   0  0  0  0  0  0  0  0  0  0  0  0
   -8.1829    0.0092  -22.7732 C   0  0  0  0  0  0  0  0  0  0  0  0
   -9.3436   -0.9005  -22.9153 C   0  0  0  0  0  0  0  0  0  0  0  0
   -9.2442   -2.2752  -22.8585 C   0  0  0  0  0  0  0  0  0  0  0  0
  -10.3701   -3.0292  -23.0008 N   0  0  0  0  0  0  0  0  0  0  0  0
  -11.5645   -2.4464  -23.1940 C   0  0  0  0  0  0  0  0  0  0  0  0
  -11.7319   -1.0764  -23.2607 C   0  0  0  0  0  0  0  0  0  0  0  0
  -12.9603   -0.4893  -23.4600 C   0  0  0  0  0  0  0  0  0  0  0  0
  -13.0917    0.8950  -23.5223 C   0  0  0  0  0  0  0  0  0  0  0  0
  -11.9482    1.6530  -23.3774 C   0  0  0  0  0  0  0  0  0  0  0  0
  -10.7158    1.0729  -23.1780 C   0  0  0  0  0  0  0  0  0  0  0  0
  -10.5785   -0.3159  -23.1147 C   0  0  0  0  0  0  0  0  0  0  0  0
  1  2  2  0  0  0
  2 12  1  0  0  0
  2  3  1  0  0  0
 12 13  1  0  0  0
 13 14  2  0  0  0
 14 15  1  0  0  0
 15 16  2  0  0  0
 16 17  1  0  0  0
 17 18  2  0  0  0
 18 19  1  0  0  0
 19 20  2  0  0  0
 20 21  1  0  0  0
 21 22  2  0  0  0
 22 13  1  0  0  0
 22 17  1  0  0  0
  3  4  1  0  0  0
  4  5  1  0  0  0
  5  6  1  0  0  0
  6  9  1  0  0  0
  6  7  1  0  0  0
  9 10  1  0  0  0
 10 11  1  0  0  0
 11  9  1  0  0  0
  7  8  1  0  0  0
  8  3  1  0  0  0
M  END
> <minimizedAffinity>
-6.51636

> <CNNscore>
0.3577505648

> <CNNaffinity>
4.7826337814

> <CNN_VS>
1.7109899521

> <CNNaffinity_variance>
0.0941927955

$$$$



 22 25  0  0  0  0  0  0  0  0999 V2000
   -7.9294   -0.8785  -20.2514 O   0  0  0  0  0  0  0  0  0  0  0  0
   -7.3849   -0.6023  -21.3430 C   0  0  0  0  0  0  0  0  0  0  0  0
   -6.1247    0.0495  -21.3024 N   0  0  0  0  0  0  0  0  0  0  0  0
   -5.5072    0.3800  -20.0169 C   0  0  0  0  0  0  0  0  0  0  0  0
   -4.3811    1.3610  -20.2699 C   0  0  0  0  0  0  0  0  0  0  0  0
   -3.2833    0.7767  -21.1082 C   0  0  0  0  0  0  0  0  0  0  0  0
   -3.8967    0.1427  -22.3245 C   0  0  0  0  0  0  0  0  0  0  0  0
   -5.3753    0.4260  -22.4831 C   0  0  0  0  0  0  0  0  0  0  0  0
   -2.3545    1.9230  -21.4696 C   0  0  0  0  0  0  0  0  0  0  0  0
   -0.9074    1.8120  -21.0492 C   0  0  0  0  0  0  0  0  0  0  0  0
   -1.8057    2.8067  -20.3970 C   0  0  0  0  0  0  0  0  0  0  0  0
   -8.0010   -0.9274  -22.6486 C   0  0  0  0  0  0  0  0  0  0  0  0
   -9.0786    0.0207  -23.0159 C   0  0  0  0  0  0  0  0  0  0  0  0
   -8.8508    1.3402  -23.3471 C   0  0  0  0  0  0  0  0  0  0  0  0
   -9.9081    2.1362  -23.6709 N   0  0  0  0  0  0  0  0  0  0  0  0
  -11.1589    1.6472  -23.6694 C   0  0  0  0  0  0  0  0  0  0  0  0
  -11.4544    0.3362  -23.3474 C   0  0  0  0  0  0  0  0  0  0  0  0
  -12.7400   -0.1546  -23.3481 C   0  0  0  0  0  0  0  0  0  0  0  0
  -13.0008   -1.4814  -23.0179 C   0  0  0  0  0  0  0  0  0  0  0  0
  -11.9262   -2.2823  -22.6912 C   0  0  0  0  0  0  0  0  0  0  0  0
  -10.6375   -1.7983  -22.6881 C   0  0  0  0  0  0  0  0  0  0  0  0
  -10.3702   -0.4675  -23.0186 C   0  0  0  0  0  0  0  0  0  0  0  0
  1  2  2  0  0  0
  2 12  1  0  0  0
  2  3  1  0  0  0
 12 13  1  0  0  0
 13 14  2  0  0  0
 14 15  1  0  0  0
 15 16  2  0  0  0
 16 17  1  0  0  0
 17 18  2  0  0  0
 18 19  1  0  0  0
 19 20  2  0  0  0
 20 21  1  0  0  0
 21 22  2  0  0  0
 22 13  1  0  0  0
 22 17  1  0  0  0
  3  4  1  0  0  0
  4  5  1  0  0  0
  5  6  1  0  0  0
  6  9  1  0  0  0
  6  7  1  0  0  0
  9 10  1  0  0  0
 10 11  1  0  0  0
 11  9  1  0  0  0
  7  8  1  0  0  0
  8  3  1  0  0  0
M  END
> <minimizedAffinity>
-5.83507

> <CNNscore>
0.3191287816

> <CNNaffinity>
4.7772674561

> <CNN_VS>
1.5245635509

> <CNNaffinity_variance>
0.0482432470

$$$$



 22 25  0  0  0  0  0  0  0  0999 V2000
   -8.7127   -3.2685  -22.5137 O   0  0  0  0  0  0  0  0  0  0  0  0
   -8.5652   -2.0815  -22.8794 C   0  0  0  0  0  0  0  0  0  0  0  0
   -7.5823   -1.3054  -22.2114 N   0  0  0  0  0  0  0  0  0  0  0  0
   -6.7859   -1.8943  -21.1335 C   0  0  0  0  0  0  0  0  0  0  0  0
   -6.0967   -0.7719  -20.3854 C   0  0  0  0  0  0  0  0  0  0  0  0
   -5.1237   -0.0183  -21.2426 C   0  0  0  0  0  0  0  0  0  0  0  0
   -5.8103    0.3619  -22.5239 C   0  0  0  0  0  0  0  0  0  0  0  0
   -7.2975    0.0785  -22.5292 C   0  0  0  0  0  0  0  0  0  0  0  0
   -4.6921    1.1994  -20.4438 C   0  0  0  0  0  0  0  0  0  0  0  0
   -3.2095    1.4514  -20.2958 C   0  0  0  0  0  0  0  0  0  0  0  0
   -4.0208    1.0253  -19.1202 C   0  0  0  0  0  0  0  0  0  0  0  0
   -9.3669   -1.4738  -23.9646 C   0  0  0  0  0  0  0  0  0  0  0  0
  -10.7907   -1.3083  -23.5898 C   0  0  0  0  0  0  0  0  0  0  0  0
  -11.5992   -2.3530  -23.1926 C   0  0  0  0  0  0  0  0  0  0  0  0
  -12.8982   -2.1015  -22.8673 N   0  0  0  0  0  0  0  0  0  0  0  0
  -13.3905   -0.8535  -22.9307 C   0  0  0  0  0  0  0  0  0  0  0  0
  -12.6342    0.2354  -23.3205 C   0  0  0  0  0  0  0  0  0  0  0  0
  -13.1488    1.5101  -23.3830 C   0  0  0  0  0  0  0  0  0  0  0  0
  -12.3574    2.5839  -23.7806 C   0  0  0  0  0  0  0  0  0  0  0  0
  -11.0431    2.3228  -24.1084 C   0  0  0  0  0  0  0  0  0  0  0  0
  -10.5214    1.0503  -24.0486 C   0  0  0  0  0  0  0  0  0  0  0  0
  -11.3113   -0.0309  -23.6503 C   0  0  0  0  0  0  0  0  0  0  0  0
  1  2  2  0  0  0
  2 12  1  0  0  0
  2  3  1  0  0  0
 12 13  1  0  0  0
 13 14  2  0  0  0
 14 15  1  0  0  0
 15 16  2  0  0  0
 16 17  1  0  0  0
 17 18  2  0  0  0
 18 19  1  0  0  0
 19 20  2  0  0  0
 20 21  1  0  0  0
 21 22  2  0  0  0
 22 13  1  0  0  0
 22 17  1  0  0  0
  3  4  1  0  0  0
  4  5  1  0  0  0
  5  6  1  0  0  0
  6  9  1  0  0  0
  6  7  1  0  0  0
  9 10  1  0  0  0
 10 11  1  0  0  0
 11  9  1  0  0  0
  7  8  1  0  0  0
  8  3  1  0  0  0
M  END
> <minimizedAffinity>
-6.28860

> <CNNscore>
0.3179156780

> <CNNaffinity>
4.9568357468

> <CNN_VS>
1.5758558512

> <CNNaffinity_variance>
0.2052258551

$$$$



 36 40  0  0  0  0  0  0  0  0999 V2000
   -9.1918    2.1937  -24.0368 N   0  0  0  0  0  0  0  0  0  0  0  0
   -8.4596    1.1557  -23.3805 C   0  0  0  0  0  0  0  0  0  0  0  0
   -9.0113   -0.2059  -23.5742 C   0  0  0  0  0  0  0  0  0  0  0  0
   -8.4789   -1.1755  -22.5601 C   0  0  0  0  0  0  0  0  0  0  0  0
   -8.5131   -0.9987  -21.3080 O   0  0  0  0  0  0  0  0  0  0  0  0
   -7.9350   -2.3121  -23.2015 N   0  0  0  0  0  0  0  0  0  0  0  0
   -8.4407   -2.2964  -24.5407 C   0  0  0  0  0  0  0  0  0  0  0  0
   -8.6296   -0.8423  -24.8652 C   0  0  0  0  0  0  0  0  0  0  0  0
  -10.4982   -0.1589  -23.4693 C   0  0  0  0  0  0  0  0  0  0  0  0
  -11.2192   -1.3114  -23.1150 C   0  0  0  0  0  0  0  0  0  0  0  0
  -12.6009   -1.3070  -23.0265 C   0  0  0  0  0  0  0  0  0  0  0  0
  -13.4656   -2.7857  -22.5774 Cl  0  0  0  0  0  0  0  0  0  0  0  0
  -13.3465   -0.1791  -23.2780 C   0  0  0  0  0  0  0  0  0  0  0  0
  -12.6568    0.9584  -23.6239 C   0  0  0  0  0  0  0  0  0  0  0  0
  -11.2730    0.9452  -23.7096 C   0  0  0  0  0  0  0  0  0  0  0  0
  -10.6358    2.2109  -24.0155 C   0  0  0  0  0  0  0  0  0  0  0  0
  -11.2902    3.2498  -24.2457 O   0  0  0  0  0  0  0  0  0  0  0  0
   -7.0761   -3.2562  -22.5422 C   0  0  0  0  0  0  0  0  0  0  0  0
   -6.1370   -2.8947  -21.6026 C   0  0  0  0  0  0  0  0  0  0  0  0
   -5.3190   -3.7893  -20.9919 N   0  0  0  0  0  0  0  0  0  0  0  0
   -5.3784   -5.0924  -21.2714 C   0  0  0  0  0  0  0  0  0  0  0  0
   -6.2914   -5.5316  -22.2005 C   0  0  0  0  0  0  0  0  0  0  0  0
   -6.3238   -6.8768  -22.4720 C   0  0  0  0  0  0  0  0  0  0  0  0
   -7.2147   -7.3719  -23.4015 C   0  0  0  0  0  0  0  0  0  0  0  0
   -8.0503   -6.4821  -24.0314 C   0  0  0  0  0  0  0  0  0  0  0  0
   -8.0067   -5.1369  -23.7490 C   0  0  0  0  0  0  0  0  0  0  0  0
   -7.1355   -4.6198  -22.8330 C   0  0  0  0  0  0  0  0  0  0  0  0
   -7.2972   -0.2701  -25.3729 C   0  0  0  0  0  0  0  0  0  0  0  0
   -7.4674    0.2266  -26.6469 O   0  0  0  0  0  0  0  0  0  0  0  0
   -7.7589   -0.4868  -27.2358 H   0  0  0  0  0  0  0  0  0  0  0  0
   -8.5991    3.3566  -24.6763 C   0  0  0  0  0  0  0  0  0  0  0  0
   -7.1234    5.7679  -22.0033 C   0  0  0  0  0  0  0  0  0  0  0  0
   -8.0846    4.9827  -22.7512 N   0  0  0  0  0  0  0  0  0  0  0  0
   -7.7283    4.1873  -23.8531 C   0  0  0  0  0  0  0  0  0  0  0  0
   -6.4811    4.1950  -24.1645 O   0  0  0  0  0  0  0  0  0  0  0  0
   -9.0293    5.0077  -22.4750 H   0  0  0  0  0  0  0  0  0  0  0  0
 32 33  1  0  0  0
 33 34  1  0  0  0
 33 36  1  0  0  0
 34 35  2  0  0  0
 34 31  1  0  0  0
 31  1  1  0  0  0
  1  2  1  0  0  0
  3  2  1  0  0  0
  3  4  1  0  0  0
  3  9  1  0  0  0
  4  5  2  0  0  0
  4  6  1  0  0  0
  6 18  1  0  0  0
  6  7  1  0  0  0
 18 19  2  0  0  0
 19 20  1  0  0  0
 20 21  2  0  0  0
 21 22  1  0  0  0
 22 23  2  0  0  0
 23 24  1  0  0  0
 24 25  2  0  0  0
 25 26  1  0  0  0
 26 27  2  0  0  0
 27 18  1  0  0  0
 27 22  1  0  0  0
  7  8  1  0  0  0
  8 28  1  0  0  0
  8  3  1  0  0  0
 28 29  1  0  0  0
 29 30  1  0  0  0
  9 10  2  0  0  0
 10 11  1  0  0  0
 11 12  1  0  0  0
 11 13  2  0  0  0
 13 14  1  0  0  0
 14 15  2  0  0  0
 15 16  1  0  0  0
 15  9  1  0  0  0
 16 17  2  0  0  0
 16  1  1  0  0  0
M  END
> <minimizedAffinity>
-7.61417

> <CNNscore>
0.5291752219

> <CNNaffinity>
6.1781320572

> <CNN_VS>
3.2693142891

> <CNNaffinity_variance>
0.1418363750

$$$$



 36 40  0  0  0  0  0  0  0  0999 V2000
  -12.4443    0.9937  -23.1196 N   0  0  0  0  0  0  0  0  0  0  0  0
  -11.1568    1.4895  -22.7444 C   0  0  0  0  0  0  0  0  0  0  0  0
  -10.0202    0.8490  -23.4471 C   0  0  0  0  0  0  0  0  0  0  0  0
   -8.7176    1.0918  -22.7426 C   0  0  0  0  0  0  0  0  0  0  0  0
   -8.5053    0.8512  -21.5191 O   0  0  0  0  0  0  0  0  0  0  0  0
   -7.7636    1.6263  -23.6389 N   0  0  0  0  0  0  0  0  0  0  0  0
   -8.2653    1.3732  -24.9556 C   0  0  0  0  0  0  0  0  0  0  0  0
   -9.7599    1.3910  -24.8094 C   0  0  0  0  0  0  0  0  0  0  0  0
  -10.2576   -0.6204  -23.5391 C   0  0  0  0  0  0  0  0  0  0  0  0
   -9.1753   -1.5041  -23.6845 C   0  0  0  0  0  0  0  0  0  0  0  0
   -9.3616   -2.8720  -23.7912 C   0  0  0  0  0  0  0  0  0  0  0  0
   -7.9654   -3.9458  -23.9746 Cl  0  0  0  0  0  0  0  0  0  0  0  0
  -10.6116   -3.4445  -23.7604 C   0  0  0  0  0  0  0  0  0  0  0  0
  -11.6821   -2.5944  -23.6164 C   0  0  0  0  0  0  0  0  0  0  0  0
  -11.4862   -1.2259  -23.5097 C   0  0  0  0  0  0  0  0  0  0  0  0
  -12.6728   -0.4217  -23.2936 C   0  0  0  0  0  0  0  0  0  0  0  0
  -13.8189   -0.9177  -23.2594 O   0  0  0  0  0  0  0  0  0  0  0  0
   -6.5442    2.2549  -23.2127 C   0  0  0  0  0  0  0  0  0  0  0  0
   -5.3536    1.5775  -23.0747 C   0  0  0  0  0  0  0  0  0  0  0  0
   -4.2071    2.1735  -22.6592 N   0  0  0  0  0  0  0  0  0  0  0  0
   -4.1666    3.4718  -22.3554 C   0  0  0  0  0  0  0  0  0  0  0  0
   -5.3165    4.2166  -22.4679 C   0  0  0  0  0  0  0  0  0  0  0  0
   -5.2451    5.5480  -22.1415 C   0  0  0  0  0  0  0  0  0  0  0  0
   -6.3704    6.3411  -22.2282 C   0  0  0  0  0  0  0  0  0  0  0  0
   -7.5410    5.7561  -22.6456 C   0  0  0  0  0  0  0  0  0  0  0  0
   -7.5975    4.4207  -22.9696 C   0  0  0  0  0  0  0  0  0  0  0  0
   -6.4989    3.6127  -22.8936 C   0  0  0  0  0  0  0  0  0  0  0  0
  -10.2512    2.8430  -24.9128 C   0  0  0  0  0  0  0  0  0  0  0  0
   -9.6918    3.4384  -26.0225 O   0  0  0  0  0  0  0  0  0  0  0  0
   -8.7253    3.4285  -25.9419 H   0  0  0  0  0  0  0  0  0  0  0  0
  -13.6433    1.8041  -23.2551 C   0  0  0  0  0  0  0  0  0  0  0  0
  -13.0936    5.5865  -23.9818 C   0  0  0  0  0  0  0  0  0  0  0  0
  -13.2418    4.1618  -24.2011 N   0  0  0  0  0  0  0  0  0  0  0  0
  -13.4746    3.2492  -23.1586 C   0  0  0  0  0  0  0  0  0  0  0  0
  -13.5508    3.7580  -21.9806 O   0  0  0  0  0  0  0  0  0  0  0  0
  -13.1764    3.8181  -25.1214 H   0  0  0  0  0  0  0  0  0  0  0  0
 32 33  1  0  0  0
 33 34  1  0  0  0
 33 36  1  0  0  0
 34 35  2  0  0  0
 34 31  1  0  0  0
 31  1  1  0  0  0
  1  2  1  0  0  0
  3  2  1  0  0  0
  3  4  1  0  0  0
  3  9  1  0  0  0
  4  5  2  0  0  0
  4  6  1  0  0  0
  6 18  1  0  0  0
  6  7  1  0  0  0
 18 19  2  0  0  0
 19 20  1  0  0  0
 20 21  2  0  0  0
 21 22  1  0  0  0
 22 23  2  0  0  0
 23 24  1  0  0  0
 24 25  2  0  0  0
 25 26  1  0  0  0
 26 27  2  0  0  0
 27 18  1  0  0  0
 27 22  1  0  0  0
  7  8  1  0  0  0
  8 28  1  0  0  0
  8  3  1  0  0  0
 28 29  1  0  0  0
 29 30  1  0  0  0
  9 10  2  0  0  0
 10 11  1  0  0  0
 11 12  1  0  0  0
 11 13  2  0  0  0
 13 14  1  0  0  0
 14 15  2  0  0  0
 15 16  1  0  0  0
 15  9  1  0  0  0
 16 17  2  0  0  0
 16  1  1  0  0  0
M  END
> <minimizedAffinity>
-7.37714

> <CNNscore>
0.3256861567

> <CNNaffinity>
5.8292779922

> <CNN_VS>
1.8985151052

> <CNNaffinity_variance>
0.1220777035

$$$$



 36 40  0  0  0  0  0  0  0  0999 V2000
   -5.4234   -1.9388  -26.2449 N   0  0  0  0  0  0  0  0  0  0  0  0
   -6.8051   -1.7290  -25.9430 C   0  0  0  0  0  0  0  0  0  0  0  0
   -7.2931   -2.4576  -24.7485 C   0  0  0  0  0  0  0  0  0  0  0  0
   -8.7911   -2.5413  -24.7167 C   0  0  0  0  0  0  0  0  0  0  0  0
   -9.5079   -2.9764  -25.6638 O   0  0  0  0  0  0  0  0  0  0  0  0
   -9.2862   -2.0658  -23.4805 N   0  0  0  0  0  0  0  0  0  0  0  0
   -8.1715   -2.0496  -22.5823 C   0  0  0  0  0  0  0  0  0  0  0  0
   -6.9764   -1.7920  -23.4546 C   0  0  0  0  0  0  0  0  0  0  0  0
   -6.7281   -3.8377  -24.7433 C   0  0  0  0  0  0  0  0  0  0  0  0
   -7.3853   -4.8686  -24.0514 C   0  0  0  0  0  0  0  0  0  0  0  0
   -6.8786   -6.1565  -24.0110 C   0  0  0  0  0  0  0  0  0  0  0  0
   -7.7429   -7.4224  -23.1242 Cl  0  0  0  0  0  0  0  0  0  0  0  0
   -5.7074   -6.5020  -24.6438 C   0  0  0  0  0  0  0  0  0  0  0  0
   -5.0523   -5.5057  -25.3275 C   0  0  0  0  0  0  0  0  0  0  0  0
   -5.5672   -4.2188  -25.3632 C   0  0  0  0  0  0  0  0  0  0  0  0
   -4.8381   -3.2568  -26.1659 C   0  0  0  0  0  0  0  0  0  0  0  0
   -3.7735   -3.5460  -26.7521 O   0  0  0  0  0  0  0  0  0  0  0  0
  -10.6634   -1.7215  -23.2607 C   0  0  0  0  0  0  0  0  0  0  0  0
  -11.6172   -2.6346  -22.8711 C   0  0  0  0  0  0  0  0  0  0  0  0
  -12.9200   -2.3067  -22.6772 N   0  0  0  0  0  0  0  0  0  0  0  0
  -13.3591   -1.0597  -22.8557 C   0  0  0  0  0  0  0  0  0  0  0  0
  -12.4658   -0.0902  -23.2454 C   0  0  0  0  0  0  0  0  0  0  0  0
  -12.9489    1.1816  -23.4279 C   0  0  0  0  0  0  0  0  0  0  0  0
  -12.0986    2.1922  -23.8264 C   0  0  0  0  0  0  0  0  0  0  0  0
  -10.7765    1.8799  -24.0291 C   0  0  0  0  0  0  0  0  0  0  0  0
  -10.3067    0.6010  -23.8421 C   0  0  0  0  0  0  0  0  0  0  0  0
  -11.1258   -0.4181  -23.4473 C   0  0  0  0  0  0  0  0  0  0  0  0
   -6.8248   -0.2761  -23.6533 C   0  0  0  0  0  0  0  0  0  0  0  0
   -6.7162    0.3386  -22.4248 O   0  0  0  0  0  0  0  0  0  0  0  0
   -7.5129    0.1587  -21.9017 H   0  0  0  0  0  0  0  0  0  0  0  0
   -4.5160   -0.9216  -26.7494 C   0  0  0  0  0  0  0  0  0  0  0  0
   -1.0755    0.1258  -25.2652 C   0  0  0  0  0  0  0  0  0  0  0  0
   -2.0843   -0.2649  -26.2293 N   0  0  0  0  0  0  0  0  0  0  0  0
   -3.4181   -0.5273  -25.8746 C   0  0  0  0  0  0  0  0  0  0  0  0
   -3.6975   -0.3983  -24.6265 O   0  0  0  0  0  0  0  0  0  0  0  0
   -1.8235   -0.3501  -27.1748 H   0  0  0  0  0  0  0  0  0  0  0  0
 32 33  1  0  0  0
 33 34  1  0  0  0
 33 36  1  0  0  0
 34 35  2  0  0  0
 34 31  1  0  0  0
 31  1  1  0  0  0
  1  2  1  0  0  0
  3  2  1  0  0  0
  3  4  1  0  0  0
  3  9  1  0  0  0
  4  5  2  0  0  0
  4  6  1  0  0  0
  6 18  1  0  0  0
  6  7  1  0  0  0
 18 19  2  0  0  0
 19 20  1  0  0  0
 20 21  2  0  0  0
 21 22  1  0  0  0
 22 23  2  0  0  0
 23 24  1  0  0  0
 24 25  2  0  0  0
 25 26  1  0  0  0
 26 27  2  0  0  0
 27 18  1  0  0  0
 27 22  1  0  0  0
  7  8  1  0  0  0
  8 28  1  0  0  0
  8  3  1  0  0  0
 28 29  1  0  0  0
 29 30  1  0  0  0
  9 10  2  0  0  0
 10 11  1  0  0  0
 11 12  1  0  0  0
 11 13  2  0  0  0
 13 14  1  0  0  0
 14 15  2  0  0  0
 15 16  1  0  0  0
 15  9  1  0  0  0
 16 17  2  0  0  0
 16  1  1  0  0  0
M  END
> <minimizedAffinity>
-6.59675

> <CNNscore>
0.3234782815

> <CNNaffinity>
5.6467466354

> <CNN_VS>
1.8265999556

> <CNNaffinity_variance>
0.2054235935

$$$$



 36 40  0  0  0  0  0  0  0  0999 V2000
   -5.5907   -0.8172  -20.9062 N   0  0  0  0  0  0  0  0  0  0  0  0
   -4.5169   -0.3321  -21.7162 C   0  0  0  0  0  0  0  0  0  0  0  0
   -4.6271    1.0960  -22.0960 C   0  0  0  0  0  0  0  0  0  0  0  0
   -3.7338    1.4386  -23.2521 C   0  0  0  0  0  0  0  0  0  0  0  0
   -3.7164    0.8212  -24.3560 O   0  0  0  0  0  0  0  0  0  0  0  0
   -2.9162    2.5472  -22.9329 N   0  0  0  0  0  0  0  0  0  0  0  0
   -3.5119    3.1677  -21.7885 C   0  0  0  0  0  0  0  0  0  0  0  0
   -4.1747    2.0456  -21.0420 C   0  0  0  0  0  0  0  0  0  0  0  0
   -6.0390    1.4047  -22.4635 C   0  0  0  0  0  0  0  0  0  0  0  0
   -6.3289    2.4859  -23.3124 C   0  0  0  0  0  0  0  0  0  0  0  0
   -7.6295    2.8111  -23.6587 C   0  0  0  0  0  0  0  0  0  0  0  0
   -7.9447    4.1845  -24.7312 Cl  0  0  0  0  0  0  0  0  0  0  0  0
   -8.7101    2.0978  -23.1952 C   0  0  0  0  0  0  0  0  0  0  0  0
   -8.4443    1.0350  -22.3650 C   0  0  0  0  0  0  0  0  0  0  0  0
   -7.1389    0.7161  -22.0238 C   0  0  0  0  0  0  0  0  0  0  0  0
   -6.9598   -0.4619  -21.1982 C   0  0  0  0  0  0  0  0  0  0  0  0
   -7.9244   -1.1280  -20.7663 O   0  0  0  0  0  0  0  0  0  0  0  0
   -1.7519    2.9145  -23.6900 C   0  0  0  0  0  0  0  0  0  0  0  0
   -0.4941    2.4194  -23.4288 C   0  0  0  0  0  0  0  0  0  0  0  0
    0.6050    2.7796  -24.1391 N   0  0  0  0  0  0  0  0  0  0  0  0
    0.5291    3.6487  -25.1483 C   0  0  0  0  0  0  0  0  0  0  0  0
   -0.6938    4.1879  -25.4701 C   0  0  0  0  0  0  0  0  0  0  0  0
   -0.7388    5.0845  -26.5085 C   0  0  0  0  0  0  0  0  0  0  0  0
   -1.9380    5.6627  -26.8695 C   0  0  0  0  0  0  0  0  0  0  0  0
   -3.0618    5.3119  -26.1618 C   0  0  0  0  0  0  0  0  0  0  0  0
   -3.0015    4.4119  -25.1237 C   0  0  0  0  0  0  0  0  0  0  0  0
   -1.8281    3.8239  -24.7457 C   0  0  0  0  0  0  0  0  0  0  0  0
   -3.1372    1.3778  -20.1266 C   0  0  0  0  0  0  0  0  0  0  0  0
   -2.8471    2.2176  -19.0734 O   0  0  0  0  0  0  0  0  0  0  0  0
   -2.4887    3.0519  -19.4144 H   0  0  0  0  0  0  0  0  0  0  0  0
   -5.4493   -1.7672  -19.8152 C   0  0  0  0  0  0  0  0  0  0  0  0
   -5.5595   -5.1826  -21.6751 C   0  0  0  0  0  0  0  0  0  0  0  0
   -5.6272   -3.7547  -21.4378 N   0  0  0  0  0  0  0  0  0  0  0  0
   -5.4117   -3.1799  -20.1741 C   0  0  0  0  0  0  0  0  0  0  0  0
   -5.1459   -4.0056  -19.2254 O   0  0  0  0  0  0  0  0  0  0  0  0
   -5.8334   -3.1611  -22.1957 H   0  0  0  0  0  0  0  0  0  0  0  0
 32 33  1  0  0  0
 33 34  1  0  0  0
 33 36  1  0  0  0
 34 35  2  0  0  0
 34 31  1  0  0  0
 31  1  1  0  0  0
  1  2  1  0  0  0
  3  2  1  0  0  0
  3  4  1  0  0  0
  3  9  1  0  0  0
  4  5  2  0  0  0
  4  6  1  0  0  0
  6 18  1  0  0  0
  6  7  1  0  0  0
 18 19  2  0  0  0
 19 20  1  0  0  0
 20 21  2  0  0  0
 21 22  1  0  0  0
 22 23  2  0  0  0
 23 24  1  0  0  0
 24 25  2  0  0  0
 25 26  1  0  0  0
 26 27  2  0  0  0
 27 18  1  0  0  0
 27 22  1  0  0  0
  7  8  1  0  0  0
  8 28  1  0  0  0
  8  3  1  0  0  0
 28 29  1  0  0  0
 29 30  1  0  0  0
  9 10  2  0  0  0
 10 11  1  0  0  0
 11 12  1  0  0  0
 11 13  2  0  0  0
 13 14  1  0  0  0
 14 15  2  0  0  0
 15 16  1  0  0  0
 15  9  1  0  0  0
 16 17  2  0  0  0
 16  1  1  0  0  0
M  END
> <minimizedAffinity>
-6.76444

> <CNNscore>
0.3220424354

> <CNNaffinity>
5.6814208031

> <CNN_VS>
1.8296586275

> <CNNaffinity_variance>
0.2276974916

$$$$



 36 40  0  0  0  0  0  0  0  0999 V2000
   -7.6909    0.7330  -24.9172 N   0  0  0  0  0  0  0  0  0  0  0  0
   -7.2046   -0.5219  -24.4346 C   0  0  0  0  0  0  0  0  0  0  0  0
   -8.2030   -1.6169  -24.4481 C   0  0  0  0  0  0  0  0  0  0  0  0
   -7.7896   -2.7626  -23.5713 C   0  0  0  0  0  0  0  0  0  0  0  0
   -7.4584   -2.6553  -22.3552 O   0  0  0  0  0  0  0  0  0  0  0  0
   -7.8229   -3.9761  -24.2962 N   0  0  0  0  0  0  0  0  0  0  0  0
   -8.6046   -3.7212  -25.4681 C   0  0  0  0  0  0  0  0  0  0  0  0
   -8.3776   -2.2688  -25.7754 C   0  0  0  0  0  0  0  0  0  0  0  0
   -9.5189   -1.0950  -23.9790 C   0  0  0  0  0  0  0  0  0  0  0  0
  -10.4698   -1.9685  -23.4256 C   0  0  0  0  0  0  0  0  0  0  0  0
  -11.7078   -1.5201  -22.9974 C   0  0  0  0  0  0  0  0  0  0  0  0
  -12.8741   -2.6602  -22.3075 Cl  0  0  0  0  0  0  0  0  0  0  0  0
  -12.0784   -0.1987  -23.0870 C   0  0  0  0  0  0  0  0  0  0  0  0
  -11.1589    0.6703  -23.6242 C   0  0  0  0  0  0  0  0  0  0  0  0
   -9.9213    0.2128  -24.0500 C   0  0  0  0  0  0  0  0  0  0  0  0
   -8.9979    1.2177  -24.5389 C   0  0  0  0  0  0  0  0  0  0  0  0
   -9.3093    2.4241  -24.6281 O   0  0  0  0  0  0  0  0  0  0  0  0
   -7.1894   -5.1838  -23.8448 C   0  0  0  0  0  0  0  0  0  0  0  0
   -7.7007   -5.9751  -22.8409 C   0  0  0  0  0  0  0  0  0  0  0  0
   -7.0914   -7.1086  -22.4092 N   0  0  0  0  0  0  0  0  0  0  0  0
   -5.9426   -7.5287  -22.9415 C   0  0  0  0  0  0  0  0  0  0  0  0
   -5.3686   -6.7913  -23.9497 C   0  0  0  0  0  0  0  0  0  0  0  0
   -4.1833   -7.2451  -24.4724 C   0  0  0  0  0  0  0  0  0  0  0  0
   -3.5588   -6.5404  -25.4806 C   0  0  0  0  0  0  0  0  0  0  0  0
   -4.1593   -5.3897  -25.9303 C   0  0  0  0  0  0  0  0  0  0  0  0
   -5.3472   -4.9472  -25.3972 C   0  0  0  0  0  0  0  0  0  0  0  0
   -5.9873   -5.6255  -24.3993 C   0  0  0  0  0  0  0  0  0  0  0  0
   -7.0969   -2.1333  -26.6132 C   0  0  0  0  0  0  0  0  0  0  0  0
   -7.1954   -2.9298  -27.7333 O   0  0  0  0  0  0  0  0  0  0  0  0
   -7.3095   -3.8544  -27.4634 H   0  0  0  0  0  0  0  0  0  0  0  0
   -6.9229    1.6742  -25.7152 C   0  0  0  0  0  0  0  0  0  0  0  0
   -5.3770    4.5654  -23.6207 C   0  0  0  0  0  0  0  0  0  0  0  0
   -6.3594    3.7526  -24.3090 N   0  0  0  0  0  0  0  0  0  0  0  0
   -6.0282    2.5715  -24.9938 C   0  0  0  0  0  0  0  0  0  0  0  0
   -4.7845    2.2471  -24.9741 O   0  0  0  0  0  0  0  0  0  0  0  0
   -7.3008    4.0407  -24.2961 H   0  0  0  0  0  0  0  0  0  0  0  0
 32 33  1  0  0  0
 33 34  1  0  0  0
 33 36  1  0  0  0
 34 35  2  0  0  0
 34 31  1  0  0  0
 31  1  1  0  0  0
  1  2  1  0  0  0
  3  2  1  0  0  0
  3  4  1  0  0  0
  3  9  1  0  0  0
  4  5  2  0  0  0
  4  6  1  0  0  0
  6 18  1  0  0  0
  6  7  1  0  0  0
 18 19  2  0  0  0
 19 20  1  0  0  0
 20 21  2  0  0  0
 21 22  1  0  0  0
 22 23  2  0  0  0
 23 24  1  0  0  0
 24 25  2  0  0  0
 25 26  1  0  0  0
 26 27  2  0  0  0
 27 18  1  0  0  0
 27 22  1  0  0  0
  7  8  1  0  0  0
  8 28  1  0  0  0
  8  3  1  0  0  0
 28 29  1  0  0  0
 29 30  1  0  0  0
  9 10  2  0  0  0
 10 11  1  0  0  0
 11 12  1  0  0  0
 11 13  2  0  0  0
 13 14  1  0  0  0
 14 15  2  0  0  0
 15 16  1  0  0  0
 15  9  1  0  0  0
 16 17  2  0  0  0
 16  1  1  0  0  0
M  END
> <minimizedAffinity>
-6.30188

> <CNNscore>
0.2910052836

> <CNNaffinity>
5.8702816963

> <CNN_VS>
1.7082829475

> <CNNaffinity_variance>
0.1567505300

$$$$



 36 40  0  0  0  0  0  0  0  0999 V2000
   -5.7438   -0.9502  -20.9094 N   0  0  0  0  0  0  0  0  0  0  0  0
   -4.6982   -0.3837  -21.7031 C   0  0  0  0  0  0  0  0  0  0  0  0
   -4.8908    1.0442  -22.0491 C   0  0  0  0  0  0  0  0  0  0  0  0
   -4.0159    1.4663  -23.1930 C   0  0  0  0  0  0  0  0  0  0  0  0
   -3.9594    0.8777  -24.3113 O   0  0  0  0  0  0  0  0  0  0  0  0
   -3.2655    2.6128  -22.8440 N   0  0  0  0  0  0  0  0  0  0  0  0
   -3.8997    3.1696  -21.6875 C   0  0  0  0  0  0  0  0  0  0  0  0
   -4.4977    1.9930  -20.9709 C   0  0  0  0  0  0  0  0  0  0  0  0
   -6.3174    1.2785  -22.4150 C   0  0  0  0  0  0  0  0  0  0  0  0
   -6.6678    2.3611  -23.2389 C   0  0  0  0  0  0  0  0  0  0  0  0
   -7.9842    2.6179  -23.5827 C   0  0  0  0  0  0  0  0  0  0  0  0
   -8.3765    3.9960  -24.6234 Cl  0  0  0  0  0  0  0  0  0  0  0  0
   -9.0224    1.8316  -23.1409 C   0  0  0  0  0  0  0  0  0  0  0  0
   -8.6972    0.7665  -22.3353 C   0  0  0  0  0  0  0  0  0  0  0  0
   -7.3762    0.5163  -21.9964 C   0  0  0  0  0  0  0  0  0  0  0  0
   -7.1306   -0.6687  -21.1984 C   0  0  0  0  0  0  0  0  0  0  0  0
   -8.0557   -1.4003  -20.7866 O   0  0  0  0  0  0  0  0  0  0  0  0
   -2.1228    3.0657  -23.5873 C   0  0  0  0  0  0  0  0  0  0  0  0
   -2.1970    4.0123  -24.5841 C   0  0  0  0  0  0  0  0  0  0  0  0
   -1.1161    4.4275  -25.2924 N   0  0  0  0  0  0  0  0  0  0  0  0
    0.1014    3.9342  -25.0597 C   0  0  0  0  0  0  0  0  0  0  0  0
    0.2567    2.9836  -24.0788 C   0  0  0  0  0  0  0  0  0  0  0  0
    1.5200    2.4900  -23.8676 C   0  0  0  0  0  0  0  0  0  0  0  0
    1.7326    1.5286  -22.9015 C   0  0  0  0  0  0  0  0  0  0  0  0
    0.6508    1.0945  -22.1748 C   0  0  0  0  0  0  0  0  0  0  0  0
   -0.6092    1.5984  -22.3974 C   0  0  0  0  0  0  0  0  0  0  0  0
   -0.8481    2.5510  -23.3466 C   0  0  0  0  0  0  0  0  0  0  0  0
   -3.4254    1.3651  -20.0674 C   0  0  0  0  0  0  0  0  0  0  0  0
   -3.8573    1.3882  -18.7591 O   0  0  0  0  0  0  0  0  0  0  0  0
   -4.0138    2.3058  -18.4864 H   0  0  0  0  0  0  0  0  0  0  0  0
   -5.5500   -1.9163  -19.8409 C   0  0  0  0  0  0  0  0  0  0  0  0
   -5.6128   -5.2996  -21.7608 C   0  0  0  0  0  0  0  0  0  0  0  0
   -5.7264   -3.8801  -21.4923 N   0  0  0  0  0  0  0  0  0  0  0  0
   -5.4731   -3.3197  -20.2291 C   0  0  0  0  0  0  0  0  0  0  0  0
   -5.1286   -4.1505  -19.3108 O   0  0  0  0  0  0  0  0  0  0  0  0
   -5.9928   -3.2820  -22.2275 H   0  0  0  0  0  0  0  0  0  0  0  0
 32 33  1  0  0  0
 33 34  1  0  0  0
 33 36  1  0  0  0
 34 35  2  0  0  0
 34 31  1  0  0  0
 31  1  1  0  0  0
  1  2  1  0  0  0
  3  2  1  0  0  0
  3  4  1  0  0  0
  3  9  1  0  0  0
  4  5  2  0  0  0
  4  6  1  0  0  0
  6 18  1  0  0  0
  6  7  1  0  0  0
 18 19  2  0  0  0
 19 20  1  0  0  0
 20 21  2  0  0  0
 21 22  1  0  0  0
 22 23  2  0  0  0
 23 24  1  0  0  0
 24 25  2  0  0  0
 25 26  1  0  0  0
 26 27  2  0  0  0
 27 18  1  0  0  0
 27 22  1  0  0  0
  7  8  1  0  0  0
  8 28  1  0  0  0
  8  3  1  0  0  0
 28 29  1  0  0  0
 29 30  1  0  0  0
  9 10  2  0  0  0
 10 11  1  0  0  0
 11 12  1  0  0  0
 11 13  2  0  0  0
 13 14  1  0  0  0
 14 15  2  0  0  0
 15 16  1  0  0  0
 15  9  1  0  0  0
 16 17  2  0  0  0
 16  1  1  0  0  0
M  END
> <minimizedAffinity>
-7.09428

> <CNNscore>
0.2527009547

> <CNNaffinity>
5.5158834457

> <CNN_VS>
1.3938690424

> <CNNaffinity_variance>
0.2533506453

$$$$



 36 40  0  0  0  0  0  0  0  0999 V2000
  -12.2303    0.8777  -23.1926 N   0  0  0  0  0  0  0  0  0  0  0  0
  -10.9976    1.4879  -22.8023 C   0  0  0  0  0  0  0  0  0  0  0  0
   -9.7959    0.9308  -23.4667 C   0  0  0  0  0  0  0  0  0  0  0  0
   -8.5343    1.2970  -22.7413 C   0  0  0  0  0  0  0  0  0  0  0  0
   -8.3301    1.1008  -21.5084 O   0  0  0  0  0  0  0  0  0  0  0  0
   -7.6085    1.8911  -23.6296 N   0  0  0  0  0  0  0  0  0  0  0  0
   -8.0576    1.5692  -24.9503 C   0  0  0  0  0  0  0  0  0  0  0  0
   -9.5514    1.4642  -24.8353 C   0  0  0  0  0  0  0  0  0  0  0  0
   -9.9073   -0.5550  -23.5301 C   0  0  0  0  0  0  0  0  0  0  0  0
   -8.7518   -1.3473  -23.6331 C   0  0  0  0  0  0  0  0  0  0  0  0
   -8.8205   -2.7279  -23.7125 C   0  0  0  0  0  0  0  0  0  0  0  0
   -7.3356   -3.6839  -23.8426 Cl  0  0  0  0  0  0  0  0  0  0  0  0
  -10.0186   -3.4029  -23.6945 C   0  0  0  0  0  0  0  0  0  0  0  0
  -11.1594   -2.6431  -23.5919 C   0  0  0  0  0  0  0  0  0  0  0  0
  -11.0813   -1.2611  -23.5123 C   0  0  0  0  0  0  0  0  0  0  0  0
  -12.3356   -0.5553  -23.3390 C   0  0  0  0  0  0  0  0  0  0  0  0
  -13.4366   -1.1451  -23.3171 O   0  0  0  0  0  0  0  0  0  0  0  0
   -6.4559    2.6289  -23.1928 C   0  0  0  0  0  0  0  0  0  0  0  0
   -6.4463    3.9978  -23.0466 C   0  0  0  0  0  0  0  0  0  0  0  0
   -5.3506    4.6915  -22.6459 N   0  0  0  0  0  0  0  0  0  0  0  0
   -4.2002    4.0770  -22.3657 C   0  0  0  0  0  0  0  0  0  0  0  0
   -4.1305    2.7095  -22.4884 C   0  0  0  0  0  0  0  0  0  0  0  0
   -2.9315    2.1066  -22.2000 C   0  0  0  0  0  0  0  0  0  0  0  0
   -2.8023    0.7379  -22.3137 C   0  0  0  0  0  0  0  0  0  0  0  0
   -3.8998    0.0182  -22.7192 C   0  0  0  0  0  0  0  0  0  0  0  0
   -5.0949    0.6360  -23.0045 C   0  0  0  0  0  0  0  0  0  0  0  0
   -5.2509    1.9888  -22.8997 C   0  0  0  0  0  0  0  0  0  0  0  0
  -10.1601    2.8672  -24.9818 C   0  0  0  0  0  0  0  0  0  0  0  0
   -9.7480    3.4236  -26.1731 O   0  0  0  0  0  0  0  0  0  0  0  0
   -8.7802    3.4879  -26.1822 H   0  0  0  0  0  0  0  0  0  0  0  0
  -13.4896    1.5813  -23.3711 C   0  0  0  0  0  0  0  0  0  0  0  0
  -13.3915    5.4637  -23.6031 C   0  0  0  0  0  0  0  0  0  0  0  0
  -13.3751    4.0714  -24.0044 N   0  0  0  0  0  0  0  0  0  0  0  0
  -13.4893    3.0118  -23.0889 C   0  0  0  0  0  0  0  0  0  0  0  0
  -13.6122    3.3530  -21.8557 O   0  0  0  0  0  0  0  0  0  0  0  0
  -13.2796    3.8585  -24.9609 H   0  0  0  0  0  0  0  0  0  0  0  0
 32 33  1  0  0  0
 33 34  1  0  0  0
 33 36  1  0  0  0
 34 35  2  0  0  0
 34 31  1  0  0  0
 31  1  1  0  0  0
  1  2  1  0  0  0
  3  2  1  0  0  0
  3  4  1  0  0  0
  3  9  1  0  0  0
  4  5  2  0  0  0
  4  6  1  0  0  0
  6 18  1  0  0  0
  6  7  1  0  0  0
 18 19  2  0  0  0
 19 20  1  0  0  0
 20 21  2  0  0  0
 21 22  1  0  0  0
 22 23  2  0  0  0
 23 24  1  0  0  0
 24 25  2  0  0  0
 25 26  1  0  0  0
 26 27  2  0  0  0
 27 18  1  0  0  0
 27 22  1  0  0  0
  7  8  1  0  0  0
  8 28  1  0  0  0
  8  3  1  0  0  0
 28 29  1  0  0  0
 29 30  1  0  0  0
  9 10  2  0  0  0
 10 11  1  0  0  0
 11 12  1  0  0  0
 11 13  2  0  0  0
 13 14  1  0  0  0
 14 15  2  0  0  0
 15 16  1  0  0  0
 15  9  1  0  0  0
 16 17  2  0  0  0
 16  1  1  0  0  0
M  END
> <minimizedAffinity>
-7.32492

> <CNNscore>
0.2471201569

> <CNNaffinity>
5.8603157997

> <CNN_VS>
1.4482021332

> <CNNaffinity_variance>
0.0816047415

$$$$



 36 40  0  0  0  0  0  0  0  0999 V2000
   -6.4389    1.7463  -23.0550 N   0  0  0  0  0  0  0  0  0  0  0  0
   -6.4773    0.3256  -22.8993 C   0  0  0  0  0  0  0  0  0  0  0  0
   -7.5273   -0.3540  -23.6940 C   0  0  0  0  0  0  0  0  0  0  0  0
   -7.7968   -1.7432  -23.1945 C   0  0  0  0  0  0  0  0  0  0  0  0
   -8.0727   -2.0360  -21.9952 O   0  0  0  0  0  0  0  0  0  0  0  0
   -7.6987   -2.6762  -24.2524 N   0  0  0  0  0  0  0  0  0  0  0  0
   -7.7661   -1.9163  -25.4639 C   0  0  0  0  0  0  0  0  0  0  0  0
   -7.1620   -0.5853  -25.1189 C   0  0  0  0  0  0  0  0  0  0  0  0
   -8.7887    0.4391  -23.6317 C   0  0  0  0  0  0  0  0  0  0  0  0
  -10.0283   -0.1852  -23.8488 C   0  0  0  0  0  0  0  0  0  0  0  0
  -11.2165    0.5249  -23.8164 C   0  0  0  0  0  0  0  0  0  0  0  0
  -12.7547   -0.3065  -24.0976 Cl  0  0  0  0  0  0  0  0  0  0  0  0
  -11.2540    1.8773  -23.5698 C   0  0  0  0  0  0  0  0  0  0  0  0
  -10.0500    2.5039  -23.3530 C   0  0  0  0  0  0  0  0  0  0  0  0
   -8.8649    1.7849  -23.3868 C   0  0  0  0  0  0  0  0  0  0  0  0
   -7.6560    2.5235  -23.0792 C   0  0  0  0  0  0  0  0  0  0  0  0
   -7.6635    3.7515  -22.8498 O   0  0  0  0  0  0  0  0  0  0  0  0
   -7.5872   -4.0937  -24.0481 C   0  0  0  0  0  0  0  0  0  0  0  0
   -6.7405   -4.6588  -23.1212 C   0  0  0  0  0  0  0  0  0  0  0  0
   -6.6294   -5.9995  -22.9410 N   0  0  0  0  0  0  0  0  0  0  0  0
   -7.3460   -6.8619  -23.6637 C   0  0  0  0  0  0  0  0  0  0  0  0
   -8.2146   -6.3740  -24.6110 C   0  0  0  0  0  0  0  0  0  0  0  0
   -8.9328   -7.2860  -25.3435 C   0  0  0  0  0  0  0  0  0  0  0  0
   -9.8132   -6.8526  -26.3130 C   0  0  0  0  0  0  0  0  0  0  0  0
   -9.9389   -5.4993  -26.5113 C   0  0  0  0  0  0  0  0  0  0  0  0
   -9.2129   -4.5971  -25.7695 C   0  0  0  0  0  0  0  0  0  0  0  0
   -8.3351   -4.9983  -24.8031 C   0  0  0  0  0  0  0  0  0  0  0  0
   -5.6363   -0.6777  -25.2742 C   0  0  0  0  0  0  0  0  0  0  0  0
   -5.2104    0.2641  -26.1855 O   0  0  0  0  0  0  0  0  0  0  0  0
   -5.6337    0.0993  -27.0425 H   0  0  0  0  0  0  0  0  0  0  0  0
   -5.2277    2.5488  -23.0934 C   0  0  0  0  0  0  0  0  0  0  0  0
   -3.1269    1.8666  -19.8907 C   0  0  0  0  0  0  0  0  0  0  0  0
   -4.2411    2.2403  -20.7384 N   0  0  0  0  0  0  0  0  0  0  0  0
   -4.1789    2.2026  -22.1414 C   0  0  0  0  0  0  0  0  0  0  0  0
   -3.0601    1.8107  -22.6383 O   0  0  0  0  0  0  0  0  0  0  0  0
   -5.0788    2.5336  -20.3123 H   0  0  0  0  0  0  0  0  0  0  0  0
 32 33  1  0  0  0
 33 34  1  0  0  0
 33 36  1  0  0  0
 34 35  2  0  0  0
 34 31  1  0  0  0
 31  1  1  0  0  0
  1  2  1  0  0  0
  3  2  1  0  0  0
  3  4  1  0  0  0
  3  9  1  0  0  0
  4  5  2  0  0  0
  4  6  1  0  0  0
  6 18  1  0  0  0
  6  7  1  0  0  0
 18 19  2  0  0  0
 19 20  1  0  0  0
 20 21  2  0  0  0
 21 22  1  0  0  0
 22 23  2  0  0  0
 23 24  1  0  0  0
 24 25  2  0  0  0
 25 26  1  0  0  0
 26 27  2  0  0  0
 27 18  1  0  0  0
 27 22  1  0  0  0
  7  8  1  0  0  0
  8 28  1  0  0  0
  8  3  1  0  0  0
 28 29  1  0  0  0
 29 30  1  0  0  0
  9 10  2  0  0  0
 10 11  1  0  0  0
 11 12  1  0  0  0
 11 13  2  0  0  0
 13 14  1  0  0  0
 14 15  2  0  0  0
 15 16  1  0  0  0
 15  9  1  0  0  0
 16 17  2  0  0  0
 16  1  1  0  0  0
M  END
> <minimizedAffinity>
-6.71600

> <CNNscore>
0.2094936669

> <CNNaffinity>
5.8649535179

> <CNN_VS>
1.2286705971

> <CNNaffinity_variance>
0.2889137268

$$$$



 36 40  0  0  0  0  0  0  0  0999 V2000
  -11.1280    1.1365  -23.2508 N   0  0  0  0  0  0  0  0  0  0  0  0
   -9.9423    1.2797  -22.4647 C   0  0  0  0  0  0  0  0  0  0  0  0
   -8.8199    0.4039  -22.8760 C   0  0  0  0  0  0  0  0  0  0  0  0
   -7.7790    0.2857  -21.8014 C   0  0  0  0  0  0  0  0  0  0  0  0
   -8.0149   -0.0484  -20.6044 O   0  0  0  0  0  0  0  0  0  0  0  0
   -6.5000    0.6000  -22.3159 N   0  0  0  0  0  0  0  0  0  0  0  0
   -6.6143    0.5324  -23.7414 C   0  0  0  0  0  0  0  0  0  0  0  0
   -8.0363    0.9172  -24.0335 C   0  0  0  0  0  0  0  0  0  0  0  0
   -9.3427   -0.9548  -23.1990 C   0  0  0  0  0  0  0  0  0  0  0  0
   -8.4975   -2.0744  -23.1240 C   0  0  0  0  0  0  0  0  0  0  0  0
   -8.9457   -3.3470  -23.4348 C   0  0  0  0  0  0  0  0  0  0  0  0
   -7.8417   -4.7274  -23.3264 Cl  0  0  0  0  0  0  0  0  0  0  0  0
  -10.2395   -3.5900  -23.8328 C   0  0  0  0  0  0  0  0  0  0  0  0
  -11.0809   -2.5058  -23.9096 C   0  0  0  0  0  0  0  0  0  0  0  0
  -10.6238   -1.2349  -23.5960 C   0  0  0  0  0  0  0  0  0  0  0  0
  -11.6051   -0.1690  -23.6431 C   0  0  0  0  0  0  0  0  0  0  0  0
  -12.7866   -0.3640  -23.9991 O   0  0  0  0  0  0  0  0  0  0  0  0
   -5.3630    0.8867  -21.4861 C   0  0  0  0  0  0  0  0  0  0  0  0
   -4.9434    0.0602  -20.4682 C   0  0  0  0  0  0  0  0  0  0  0  0
   -3.8759    0.3422  -19.6786 N   0  0  0  0  0  0  0  0  0  0  0  0
   -3.1595    1.4550  -19.8458 C   0  0  0  0  0  0  0  0  0  0  0  0
   -3.5169    2.3317  -20.8426 C   0  0  0  0  0  0  0  0  0  0  0  0
   -2.7651    3.4712  -20.9854 C   0  0  0  0  0  0  0  0  0  0  0  0
   -3.0834    4.3898  -21.9640 C   0  0  0  0  0  0  0  0  0  0  0  0
   -4.1612    4.1231  -22.7727 C   0  0  0  0  0  0  0  0  0  0  0  0
   -4.9053    2.9769  -22.6180 C   0  0  0  0  0  0  0  0  0  0  0  0
   -4.6121    2.0504  -21.6583 C   0  0  0  0  0  0  0  0  0  0  0  0
   -8.1303    2.4487  -24.1092 C   0  0  0  0  0  0  0  0  0  0  0  0
   -8.3052    2.8330  -25.4209 O   0  0  0  0  0  0  0  0  0  0  0  0
   -7.5518    2.5283  -25.9503 H   0  0  0  0  0  0  0  0  0  0  0  0
  -12.0108    2.2253  -23.6349 C   0  0  0  0  0  0  0  0  0  0  0  0
  -10.2985    5.7167  -23.7578 C   0  0  0  0  0  0  0  0  0  0  0  0
  -10.9206    4.5192  -23.2297 N   0  0  0  0  0  0  0  0  0  0  0  0
  -11.3767    3.4718  -24.0474 C   0  0  0  0  0  0  0  0  0  0  0  0
  -11.2072    3.6382  -25.3107 O   0  0  0  0  0  0  0  0  0  0  0  0
  -11.0285    4.4360  -22.2546 H   0  0  0  0  0  0  0  0  0  0  0  0
 32 33  1  0  0  0
 33 34  1  0  0  0
 33 36  1  0  0  0
 34 35  2  0  0  0
 34 31  1  0  0  0
 31  1  1  0  0  0
  1  2  1  0  0  0
  3  2  1  0  0  0
  3  4  1  0  0  0
  3  9  1  0  0  0
  4  5  2  0  0  0
  4  6  1  0  0  0
  6 18  1  0  0  0
  6  7  1  0  0  0
 18 19  2  0  0  0
 19 20  1  0  0  0
 20 21  2  0  0  0
 21 22  1  0  0  0
 22 23  2  0  0  0
 23 24  1  0  0  0
 24 25  2  0  0  0
 25 26  1  0  0  0
 26 27  2  0  0  0
 27 18  1  0  0  0
 27 22  1  0  0  0
  7  8  1  0  0  0
  8 28  1  0  0  0
  8  3  1  0  0  0
 28 29  1  0  0  0
 29 30  1  0  0  0
  9 10  2  0  0  0
 10 11  1  0  0  0
 11 12  1  0  0  0
 11 13  2  0  0  0
 13 14  1  0  0  0
 14 15  2  0  0  0
 15 16  1  0  0  0
 15  9  1  0  0  0
 16 17  2  0  0  0
 16  1  1  0  0  0
M  END
> <minimizedAffinity>
-7.55974

> <CNNscore>
0.1973861009

> <CNNaffinity>
5.5705418587

> <CNN_VS>
1.0995475054

> <CNNaffinity_variance>
0.2043977231

$$$$



 35 40  0  0  0  0  0  0  0  0999 V2000
   -8.0046    0.3080  -25.9289 C   0  0  0  0  0  0  0  0  0  0  0  0
   -8.5693   -0.3551  -24.6844 C   0  0  0  0  0  0  0  0  0  0  0  0
   -7.4023   -0.7442  -23.8347 C   0  0  0  0  0  0  0  0  0  0  0  0
   -7.3132    0.3244  -22.8495 N   0  0  0  0  0  0  0  0  0  0  0  0
   -8.6484    0.7644  -22.6342 C   0  0  0  0  0  0  0  0  0  0  0  0
   -9.1279    1.2333  -21.5459 O   0  0  0  0  0  0  0  0  0  0  0  0
   -9.4404    0.5974  -23.8985 C   0  0  0  0  0  0  0  0  0  0  0  0
   -9.4879    1.9640  -24.5198 C   0  0  0  0  0  0  0  0  0  0  0  0
  -10.6670    2.7294  -24.1701 N   0  0  0  0  0  0  0  0  0  0  0  0
  -11.9382    2.1341  -23.9307 C   0  0  0  0  0  0  0  0  0  0  0  0
  -12.9598    2.8338  -23.9582 O   0  0  0  0  0  0  0  0  0  0  0  0
  -11.9497    0.7000  -23.6619 C   0  0  0  0  0  0  0  0  0  0  0  0
  -13.1711    0.1093  -23.4269 C   0  0  0  0  0  0  0  0  0  0  0  0
  -13.2504   -1.2418  -23.1651 C   0  0  0  0  0  0  0  0  0  0  0  0
  -12.0778   -1.9605  -23.1493 C   0  0  0  0  0  0  0  0  0  0  0  0
  -12.1622   -3.2994  -22.8894 F   0  0  0  0  0  0  0  0  0  0  0  0
  -10.8402   -1.3516  -23.3894 C   0  0  0  0  0  0  0  0  0  0  0  0
  -10.7549    0.0017  -23.6523 C   0  0  0  0  0  0  0  0  0  0  0  0
   -6.1633    0.8571  -22.2052 C   0  0  0  0  0  0  0  0  0  0  0  0
   -5.3563    1.7483  -22.8845 C   0  0  0  0  0  0  0  0  0  0  0  0
   -4.2570    2.3043  -22.3712 N   0  0  0  0  0  0  0  0  0  0  0  0
   -3.9154    1.9743  -21.1125 C   0  0  0  0  0  0  0  0  0  0  0  0
   -4.6660    1.0928  -20.3661 C   0  0  0  0  0  0  0  0  0  0  0  0
   -4.2383    0.8154  -19.0871 C   0  0  0  0  0  0  0  0  0  0  0  0
   -5.0053   -0.0719  -18.3531 C   0  0  0  0  0  0  0  0  0  0  0  0
   -6.1461   -0.6409  -18.9029 C   0  0  0  0  0  0  0  0  0  0  0  0
   -6.5587   -0.3466  -20.1953 C   0  0  0  0  0  0  0  0  0  0  0  0
   -5.8008    0.5276  -20.9149 C   0  0  0  0  0  0  0  0  0  0  0  0
  -10.5868    4.1832  -24.0481 C   0  0  0  0  0  0  0  0  0  0  0  0
  -11.0289    4.8868  -25.2602 C   0  0  0  0  0  0  0  0  0  0  0  0
  -12.0090    5.8124  -25.2740 N   0  0  0  0  0  0  0  0  0  0  0  0
  -12.1517    6.2467  -26.5371 C   0  0  0  0  0  0  0  0  0  0  0  0
  -11.2499    5.5722  -27.2717 N   0  0  0  0  0  0  0  0  0  0  0  0
  -10.5613    4.7446  -26.5150 N   0  0  0  0  0  0  0  0  0  0  0  0
  -11.1224    5.6823  -28.2417 H   0  0  0  0  0  0  0  0  0  0  0  0
  2  1  1  0  0  0
  2  3  1  0  0  0
  3  4  1  0  0  0
  4 19  1  0  0  0
  4  5  1  0  0  0
 19 20  2  0  0  0
 20 21  1  0  0  0
 21 22  2  0  0  0
 22 23  1  0  0  0
 23 24  2  0  0  0
 24 25  1  0  0  0
 25 26  2  0  0  0
 26 27  1  0  0  0
 27 28  2  0  0  0
 28 19  1  0  0  0
 28 23  1  0  0  0
  5  6  2  0  0  0
  7  5  1  0  0  0
  7  8  1  0  0  0
  7  2  1  0  0  0
  8  9  1  0  0  0
  9 29  1  0  0  0
  9 10  1  0  0  0
 29 30  1  0  0  0
 30 31  1  0  0  0
 31 32  2  0  0  0
 32 33  1  0  0  0
 33 34  1  0  0  0
 33 35  1  0  0  0
 34 30  2  0  0  0
 10 11  2  0  0  0
 10 12  1  0  0  0
 12 13  2  0  0  0
 13 14  1  0  0  0
 14 15  2  0  0  0
 15 16  1  0  0  0
 15 17  1  0  0  0
 17 18  2  0  0  0
 18 12  1  0  0  0
 18  7  1  0  0  0
M  END
> <minimizedAffinity>
-8.61176

> <CNNscore>
0.2852635682

> <CNNaffinity>
6.1093263626

> <CNN_VS>
1.7427682877

> <CNNaffinity_variance>
0.1445353925

$$$$



 35 40  0  0  0  0  0  0  0  0999 V2000
   -7.3793    0.4462  -25.7973 C   0  0  0  0  0  0  0  0  0  0  0  0
   -7.2283    1.2593  -24.5231 C   0  0  0  0  0  0  0  0  0  0  0  0
   -8.3680    2.2264  -24.4899 C   0  0  0  0  0  0  0  0  0  0  0  0
   -9.3382    1.5958  -23.6058 N   0  0  0  0  0  0  0  0  0  0  0  0
   -8.5760    0.8624  -22.6552 C   0  0  0  0  0  0  0  0  0  0  0  0
   -8.8959    0.6324  -21.4391 O   0  0  0  0  0  0  0  0  0  0  0  0
   -7.3063    0.3812  -23.2956 C   0  0  0  0  0  0  0  0  0  0  0  0
   -7.5590   -1.0576  -23.6445 C   0  0  0  0  0  0  0  0  0  0  0  0
   -7.1173   -1.9955  -22.6326 N   0  0  0  0  0  0  0  0  0  0  0  0
   -5.9810   -1.7689  -21.8049 C   0  0  0  0  0  0  0  0  0  0  0  0
   -5.4624   -2.7169  -21.1997 O   0  0  0  0  0  0  0  0  0  0  0  0
   -5.4923   -0.3964  -21.7247 C   0  0  0  0  0  0  0  0  0  0  0  0
   -4.3950   -0.1603  -20.9271 C   0  0  0  0  0  0  0  0  0  0  0  0
   -3.8848    1.1147  -20.8072 C   0  0  0  0  0  0  0  0  0  0  0  0
   -4.5084    2.1219  -21.5062 C   0  0  0  0  0  0  0  0  0  0  0  0
   -3.9985    3.3838  -21.3838 F   0  0  0  0  0  0  0  0  0  0  0  0
   -5.6238    1.8727  -22.3149 C   0  0  0  0  0  0  0  0  0  0  0  0
   -6.1391    0.5972  -22.4387 C   0  0  0  0  0  0  0  0  0  0  0  0
  -10.7579    1.6632  -23.6381 C   0  0  0  0  0  0  0  0  0  0  0  0
  -11.4936    0.4947  -23.6175 C   0  0  0  0  0  0  0  0  0  0  0  0
  -12.8270    0.4489  -23.6445 N   0  0  0  0  0  0  0  0  0  0  0  0
  -13.4946    1.6159  -23.6950 C   0  0  0  0  0  0  0  0  0  0  0  0
  -12.8366    2.8258  -23.7187 C   0  0  0  0  0  0  0  0  0  0  0  0
  -13.6041    3.9679  -23.7705 C   0  0  0  0  0  0  0  0  0  0  0  0
  -12.9253    5.1733  -23.7934 C   0  0  0  0  0  0  0  0  0  0  0  0
  -11.5375    5.2023  -23.7646 C   0  0  0  0  0  0  0  0  0  0  0  0
  -10.7837    4.0378  -23.7123 C   0  0  0  0  0  0  0  0  0  0  0  0
  -11.4558    2.8527  -23.6900 C   0  0  0  0  0  0  0  0  0  0  0  0
   -7.8471   -3.2436  -22.4227 C   0  0  0  0  0  0  0  0  0  0  0  0
   -9.1646   -3.2556  -23.0735 C   0  0  0  0  0  0  0  0  0  0  0  0
   -9.3915   -3.7748  -24.2968 N   0  0  0  0  0  0  0  0  0  0  0  0
  -10.6954   -3.6181  -24.5787 C   0  0  0  0  0  0  0  0  0  0  0  0
  -11.2398   -3.0025  -23.5145 N   0  0  0  0  0  0  0  0  0  0  0  0
  -10.3276   -2.7754  -22.5936 N   0  0  0  0  0  0  0  0  0  0  0  0
  -12.1896   -2.7558  -23.4351 H   0  0  0  0  0  0  0  0  0  0  0  0
  2  1  1  0  0  0
  2  3  1  0  0  0
  3  4  1  0  0  0
  4 19  1  0  0  0
  4  5  1  0  0  0
 19 20  2  0  0  0
 20 21  1  0  0  0
 21 22  2  0  0  0
 22 23  1  0  0  0
 23 24  2  0  0  0
 24 25  1  0  0  0
 25 26  2  0  0  0
 26 27  1  0  0  0
 27 28  2  0  0  0
 28 19  1  0  0  0
 28 23  1  0  0  0
  5  6  2  0  0  0
  7  5  1  0  0  0
  7  8  1  0  0  0
  7  2  1  0  0  0
  8  9  1  0  0  0
  9 29  1  0  0  0
  9 10  1  0  0  0
 29 30  1  0  0  0
 30 31  1  0  0  0
 31 32  2  0  0  0
 32 33  1  0  0  0
 33 34  1  0  0  0
 33 35  1  0  0  0
 34 30  2  0  0  0
 10 11  2  0  0  0
 10 12  1  0  0  0
 12 13  2  0  0  0
 13 14  1  0  0  0
 14 15  2  0  0  0
 15 16  1  0  0  0
 15 17  1  0  0  0
 17 18  2  0  0  0
 18 12  1  0  0  0
 18  7  1  0  0  0
M  END
> <minimizedAffinity>
-8.71394

> <CNNscore>
0.2528931201

> <CNNaffinity>
6.0771827698

> <CNN_VS>
1.5368777514

> <CNNaffinity_variance>
0.1048615575

$$$$



 35 40  0  0  0  0  0  0  0  0999 V2000
  -11.2684   -2.7431  -22.0277 C   0  0  0  0  0  0  0  0  0  0  0  0
  -10.9509   -2.8795  -23.5069 C   0  0  0  0  0  0  0  0  0  0  0  0
  -11.4059   -1.6164  -24.1647 C   0  0  0  0  0  0  0  0  0  0  0  0
  -10.1881   -0.8281  -24.2919 N   0  0  0  0  0  0  0  0  0  0  0  0
   -9.1361   -1.7678  -24.4731 C   0  0  0  0  0  0  0  0  0  0  0  0
   -8.0653   -1.5893  -25.1482 O   0  0  0  0  0  0  0  0  0  0  0  0
   -9.4661   -3.0360  -23.7405 C   0  0  0  0  0  0  0  0  0  0  0  0
   -8.6821   -2.9700  -22.4611 C   0  0  0  0  0  0  0  0  0  0  0  0
   -7.3938   -3.6292  -22.5250 N   0  0  0  0  0  0  0  0  0  0  0  0
   -7.1501   -4.7854  -23.3197 C   0  0  0  0  0  0  0  0  0  0  0  0
   -6.1550   -5.4876  -23.0946 O   0  0  0  0  0  0  0  0  0  0  0  0
   -8.1171   -5.0710  -24.3744 C   0  0  0  0  0  0  0  0  0  0  0  0
   -7.8949   -6.1849  -25.1528 C   0  0  0  0  0  0  0  0  0  0  0  0
   -8.7703   -6.5094  -26.1670 C   0  0  0  0  0  0  0  0  0  0  0  0
   -9.8553   -5.6871  -26.3635 C   0  0  0  0  0  0  0  0  0  0  0  0
  -10.7199   -6.0135  -27.3701 F   0  0  0  0  0  0  0  0  0  0  0  0
  -10.0734   -4.5565  -25.5671 C   0  0  0  0  0  0  0  0  0  0  0  0
   -9.1995   -4.2267  -24.5496 C   0  0  0  0  0  0  0  0  0  0  0  0
  -10.0248    0.5836  -24.2513 C   0  0  0  0  0  0  0  0  0  0  0  0
   -8.8060    1.1360  -24.5923 C   0  0  0  0  0  0  0  0  0  0  0  0
   -8.5498    2.4457  -24.5868 N   0  0  0  0  0  0  0  0  0  0  0  0
   -9.5430    3.2785  -24.2261 C   0  0  0  0  0  0  0  0  0  0  0  0
  -10.7884    2.8089  -23.8714 C   0  0  0  0  0  0  0  0  0  0  0  0
  -11.7422    3.7365  -23.5168 C   0  0  0  0  0  0  0  0  0  0  0  0
  -12.9867    3.2458  -23.1640 C   0  0  0  0  0  0  0  0  0  0  0  0
  -13.2359    1.8800  -23.1753 C   0  0  0  0  0  0  0  0  0  0  0  0
  -12.2588    0.9624  -23.5365 C   0  0  0  0  0  0  0  0  0  0  0  0
  -11.0344    1.4496  -23.8833 C   0  0  0  0  0  0  0  0  0  0  0  0
   -6.2675   -3.1122  -21.7512 C   0  0  0  0  0  0  0  0  0  0  0  0
   -6.2226   -1.6439  -21.7125 C   0  0  0  0  0  0  0  0  0  0  0  0
   -5.8055   -0.8794  -22.7415 N   0  0  0  0  0  0  0  0  0  0  0  0
   -5.8946    0.4071  -22.3655 C   0  0  0  0  0  0  0  0  0  0  0  0
   -6.3672    0.4000  -21.1068 N   0  0  0  0  0  0  0  0  0  0  0  0
   -6.5714   -0.8332  -20.6953 N   0  0  0  0  0  0  0  0  0  0  0  0
   -6.5368    1.2059  -20.5674 H   0  0  0  0  0  0  0  0  0  0  0  0
  2  1  1  0  0  0
  2  3  1  0  0  0
  3  4  1  0  0  0
  4 19  1  0  0  0
  4  5  1  0  0  0
 19 20  2  0  0  0
 20 21  1  0  0  0
 21 22  2  0  0  0
 22 23  1  0  0  0
 23 24  2  0  0  0
 24 25  1  0  0  0
 25 26  2  0  0  0
 26 27  1  0  0  0
 27 28  2  0  0  0
 28 19  1  0  0  0
 28 23  1  0  0  0
  5  6  2  0  0  0
  7  5  1  0  0  0
  7  8  1  0  0  0
  7  2  1  0  0  0
  8  9  1  0  0  0
  9 29  1  0  0  0
  9 10  1  0  0  0
 29 30  1  0  0  0
 30 31  1  0  0  0
 31 32  2  0  0  0
 32 33  1  0  0  0
 33 34  1  0  0  0
 33 35  1  0  0  0
 34 30  2  0  0  0
 10 11  2  0  0  0
 10 12  1  0  0  0
 12 13  2  0  0  0
 13 14  1  0  0  0
 14 15  2  0  0  0
 15 16  1  0  0  0
 15 17  1  0  0  0
 17 18  2  0  0  0
 18 12  1  0  0  0
 18  7  1  0  0  0
M  END
> <minimizedAffinity>
-7.64594

> <CNNscore>
0.2338117063

> <CNNaffinity>
6.1934466362

> <CNN_VS>
1.4481003284

> <CNNaffinity_variance>
0.3309189081

$$$$



 35 40  0  0  0  0  0  0  0  0999 V2000
   -7.1934   -0.5586  -25.4815 C   0  0  0  0  0  0  0  0  0  0  0  0
   -8.0174   -0.9572  -24.2692 C   0  0  0  0  0  0  0  0  0  0  0  0
   -7.0576   -1.4686  -23.2434 C   0  0  0  0  0  0  0  0  0  0  0  0
   -6.8600   -0.3349  -22.3510 N   0  0  0  0  0  0  0  0  0  0  0  0
   -8.0912    0.3769  -22.3515 C   0  0  0  0  0  0  0  0  0  0  0  0
   -8.5817    1.0479  -21.3802 O   0  0  0  0  0  0  0  0  0  0  0  0
   -8.7552    0.2276  -23.6896 C   0  0  0  0  0  0  0  0  0  0  0  0
   -8.4505    1.4998  -24.4274 C   0  0  0  0  0  0  0  0  0  0  0  0
   -9.4778    2.5135  -24.3029 N   0  0  0  0  0  0  0  0  0  0  0  0
  -10.8630    2.2066  -24.1819 C   0  0  0  0  0  0  0  0  0  0  0  0
  -11.7088    3.0838  -24.4034 O   0  0  0  0  0  0  0  0  0  0  0  0
  -11.1998    0.8408  -23.7941 C   0  0  0  0  0  0  0  0  0  0  0  0
  -12.5352    0.5283  -23.6712 C   0  0  0  0  0  0  0  0  0  0  0  0
  -12.9200   -0.7442  -23.3064 C   0  0  0  0  0  0  0  0  0  0  0  0
  -11.9300   -1.6706  -23.0749 C   0  0  0  0  0  0  0  0  0  0  0  0
  -12.3171   -2.9303  -22.7137 F   0  0  0  0  0  0  0  0  0  0  0  0
  -10.5745   -1.3439  -23.2022 C   0  0  0  0  0  0  0  0  0  0  0  0
  -10.1833   -0.0707  -23.5675 C   0  0  0  0  0  0  0  0  0  0  0  0
   -5.7039    0.0326  -21.6098 C   0  0  0  0  0  0  0  0  0  0  0  0
   -5.6240   -0.2943  -20.2704 C   0  0  0  0  0  0  0  0  0  0  0  0
   -4.5852    0.0041  -19.4876 N   0  0  0  0  0  0  0  0  0  0  0  0
   -3.5518    0.6651  -20.0402 C   0  0  0  0  0  0  0  0  0  0  0  0
   -3.5522    1.0284  -21.3689 C   0  0  0  0  0  0  0  0  0  0  0  0
   -2.4503    1.7024  -21.8459 C   0  0  0  0  0  0  0  0  0  0  0  0
   -2.4691    2.0586  -23.1826 C   0  0  0  0  0  0  0  0  0  0  0  0
   -3.5582    1.7399  -23.9826 C   0  0  0  0  0  0  0  0  0  0  0  0
   -4.6590    1.0595  -23.4803 C   0  0  0  0  0  0  0  0  0  0  0  0
   -4.6368    0.7104  -22.1633 C   0  0  0  0  0  0  0  0  0  0  0  0
   -9.1135    3.9284  -24.2975 C   0  0  0  0  0  0  0  0  0  0  0  0
   -7.8151    4.1852  -23.6591 C   0  0  0  0  0  0  0  0  0  0  0  0
   -6.7054    4.5443  -24.3352 N   0  0  0  0  0  0  0  0  0  0  0  0
   -5.7092    4.6958  -23.4470 C   0  0  0  0  0  0  0  0  0  0  0  0
   -6.2356    4.4240  -22.2401 N   0  0  0  0  0  0  0  0  0  0  0  0
   -7.5096    4.1130  -22.3495 N   0  0  0  0  0  0  0  0  0  0  0  0
   -5.7370    4.4535  -21.3918 H   0  0  0  0  0  0  0  0  0  0  0  0
  2  1  1  0  0  0
  2  3  1  0  0  0
  3  4  1  0  0  0
  4 19  1  0  0  0
  4  5  1  0  0  0
 19 20  2  0  0  0
 20 21  1  0  0  0
 21 22  2  0  0  0
 22 23  1  0  0  0
 23 24  2  0  0  0
 24 25  1  0  0  0
 25 26  2  0  0  0
 26 27  1  0  0  0
 27 28  2  0  0  0
 28 19  1  0  0  0
 28 23  1  0  0  0
  5  6  2  0  0  0
  7  5  1  0  0  0
  7  8  1  0  0  0
  7  2  1  0  0  0
  8  9  1  0  0  0
  9 29  1  0  0  0
  9 10  1  0  0  0
 29 30  1  0  0  0
 30 31  1  0  0  0
 31 32  2  0  0  0
 32 33  1  0  0  0
 33 34  1  0  0  0
 33 35  1  0  0  0
 34 30  2  0  0  0
 10 11  2  0  0  0
 10 12  1  0  0  0
 12 13  2  0  0  0
 13 14  1  0  0  0
 14 15  2  0  0  0
 15 16  1  0  0  0
 15 17  1  0  0  0
 17 18  2  0  0  0
 18 12  1  0  0  0
 18  7  1  0  0  0
M  END
> <minimizedAffinity>
-7.14194

> <CNNscore>
0.1976121813

> <CNNaffinity>
5.8478727341

> <CNN_VS>
1.1556109190

> <CNNaffinity_variance>
0.1269033998

$$$$



 35 40  0  0  0  0  0  0  0  0999 V2000
   -5.8131   -4.5018  -21.8661 C   0  0  0  0  0  0  0  0  0  0  0  0
   -6.8556   -3.4148  -22.0641 C   0  0  0  0  0  0  0  0  0  0  0  0
   -6.2883   -2.1607  -21.4804 C   0  0  0  0  0  0  0  0  0  0  0  0
   -5.7669   -1.4408  -22.6339 N   0  0  0  0  0  0  0  0  0  0  0  0
   -6.6180   -1.7832  -23.7207 C   0  0  0  0  0  0  0  0  0  0  0  0
   -6.9141   -1.0398  -24.7175 O   0  0  0  0  0  0  0  0  0  0  0  0
   -7.1358   -3.1794  -23.5303 C   0  0  0  0  0  0  0  0  0  0  0  0
   -6.2827   -4.0426  -24.4150 C   0  0  0  0  0  0  0  0  0  0  0  0
   -6.8439   -4.2744  -25.7302 N   0  0  0  0  0  0  0  0  0  0  0  0
   -8.2440   -4.3639  -25.9737 C   0  0  0  0  0  0  0  0  0  0  0  0
   -8.6539   -4.8758  -27.0243 O   0  0  0  0  0  0  0  0  0  0  0  0
   -9.1242   -3.8309  -24.9391 C   0  0  0  0  0  0  0  0  0  0  0  0
  -10.4811   -3.9085  -25.1601 C   0  0  0  0  0  0  0  0  0  0  0  0
  -11.3665   -3.4217  -24.2224 C   0  0  0  0  0  0  0  0  0  0  0  0
  -10.8449   -2.8656  -23.0776 C   0  0  0  0  0  0  0  0  0  0  0  0
  -11.7270   -2.3847  -22.1514 F   0  0  0  0  0  0  0  0  0  0  0  0
   -9.4636   -2.7909  -22.8613 C   0  0  0  0  0  0  0  0  0  0  0  0
   -8.5720   -3.2770  -23.7974 C   0  0  0  0  0  0  0  0  0  0  0  0
   -4.6481   -0.5674  -22.7157 C   0  0  0  0  0  0  0  0  0  0  0  0
   -3.9916   -0.4165  -23.9212 C   0  0  0  0  0  0  0  0  0  0  0  0
   -2.9337    0.3764  -24.1034 N   0  0  0  0  0  0  0  0  0  0  0  0
   -2.4800    1.0715  -23.0446 C   0  0  0  0  0  0  0  0  0  0  0  0
   -3.0776    0.9777  -21.8071 C   0  0  0  0  0  0  0  0  0  0  0  0
   -2.5433    1.7268  -20.7827 C   0  0  0  0  0  0  0  0  0  0  0  0
   -3.1573    1.6194  -19.5475 C   0  0  0  0  0  0  0  0  0  0  0  0
   -4.2571    0.7897  -19.3759 C   0  0  0  0  0  0  0  0  0  0  0  0
   -4.7792    0.0431  -20.4233 C   0  0  0  0  0  0  0  0  0  0  0  0
   -4.1719    0.1515  -21.6383 C   0  0  0  0  0  0  0  0  0  0  0  0
   -5.9630   -4.4289  -26.8855 C   0  0  0  0  0  0  0  0  0  0  0  0
   -4.8288   -5.3269  -26.6274 C   0  0  0  0  0  0  0  0  0  0  0  0
   -4.9478   -6.6619  -26.4823 N   0  0  0  0  0  0  0  0  0  0  0  0
   -3.7227   -7.1659  -26.2597 C   0  0  0  0  0  0  0  0  0  0  0  0
   -2.8769   -6.1208  -26.2739 N   0  0  0  0  0  0  0  0  0  0  0  0
   -3.5293   -4.9995  -26.4952 N   0  0  0  0  0  0  0  0  0  0  0  0
   -1.9041   -6.1854  -26.1374 H   0  0  0  0  0  0  0  0  0  0  0  0
  2  1  1  0  0  0
  2  3  1  0  0  0
  3  4  1  0  0  0
  4 19  1  0  0  0
  4  5  1  0  0  0
 19 20  2  0  0  0
 20 21  1  0  0  0
 21 22  2  0  0  0
 22 23  1  0  0  0
 23 24  2  0  0  0
 24 25  1  0  0  0
 25 26  2  0  0  0
 26 27  1  0  0  0
 27 28  2  0  0  0
 28 19  1  0  0  0
 28 23  1  0  0  0
  5  6  2  0  0  0
  7  5  1  0  0  0
  7  8  1  0  0  0
  7  2  1  0  0  0
  8  9  1  0  0  0
  9 29  1  0  0  0
  9 10  1  0  0  0
 29 30  1  0  0  0
 30 31  1  0  0  0
 31 32  2  0  0  0
 32 33  1  0  0  0
 33 34  1  0  0  0
 33 35  1  0  0  0
 34 30  2  0  0  0
 10 11  2  0  0  0
 10 12  1  0  0  0
 12 13  2  0  0  0
 13 14  1  0  0  0
 14 15  2  0  0  0
 15 16  1  0  0  0
 15 17  1  0  0  0
 17 18  2  0  0  0
 18 12  1  0  0  0
 18  7  1  0  0  0
M  END
> <minimizedAffinity>
-7.38657

> <CNNscore>
0.1283226758

> <CNNaffinity>
5.6938343048

> <CNN_VS>
0.7306480408

> <CNNaffinity_variance>
0.2073923349

$$$$



 35 40  0  0  0  0  0  0  0  0999 V2000
   -7.2420   -1.2280  -22.7483 C   0  0  0  0  0  0  0  0  0  0  0  0
   -7.7963   -2.6302  -22.5634 C   0  0  0  0  0  0  0  0  0  0  0  0
   -9.0717   -2.4929  -21.7955 C   0  0  0  0  0  0  0  0  0  0  0  0
  -10.1061   -2.5521  -22.8189 N   0  0  0  0  0  0  0  0  0  0  0  0
   -9.5971   -3.4079  -23.8343 C   0  0  0  0  0  0  0  0  0  0  0  0
  -10.2806   -4.1752  -24.5947 O   0  0  0  0  0  0  0  0  0  0  0  0
   -8.1022   -3.2822  -23.8920 C   0  0  0  0  0  0  0  0  0  0  0  0
   -7.8259   -2.3653  -25.0490 C   0  0  0  0  0  0  0  0  0  0  0  0
   -7.5728   -3.0533  -26.2985 N   0  0  0  0  0  0  0  0  0  0  0  0
   -6.9313   -4.3225  -26.3715 C   0  0  0  0  0  0  0  0  0  0  0  0
   -6.4539   -4.7091  -27.4470 O   0  0  0  0  0  0  0  0  0  0  0  0
   -6.8793   -5.1021  -25.1392 C   0  0  0  0  0  0  0  0  0  0  0  0
   -6.2636   -6.3325  -25.1935 C   0  0  0  0  0  0  0  0  0  0  0  0
   -6.1824   -7.1190  -24.0643 C   0  0  0  0  0  0  0  0  0  0  0  0
   -6.7331   -6.6299  -22.9027 C   0  0  0  0  0  0  0  0  0  0  0  0
   -6.6497   -7.4136  -21.7864 F   0  0  0  0  0  0  0  0  0  0  0  0
   -7.3573   -5.3775  -22.8567 C   0  0  0  0  0  0  0  0  0  0  0  0
   -7.4415   -4.5854  -23.9849 C   0  0  0  0  0  0  0  0  0  0  0  0
  -11.3749   -1.9115  -22.8501 C   0  0  0  0  0  0  0  0  0  0  0  0
  -12.5022   -2.6203  -22.4845 C   0  0  0  0  0  0  0  0  0  0  0  0
  -13.7366   -2.1130  -22.4794 N   0  0  0  0  0  0  0  0  0  0  0  0
  -13.8899   -0.8301  -22.8545 C   0  0  0  0  0  0  0  0  0  0  0  0
  -12.8172   -0.0537  -23.2339 C   0  0  0  0  0  0  0  0  0  0  0  0
  -13.0714    1.2486  -23.6018 C   0  0  0  0  0  0  0  0  0  0  0  0
  -11.9815    2.0126  -23.9795 C   0  0  0  0  0  0  0  0  0  0  0  0
  -10.7041    1.4686  -23.9788 C   0  0  0  0  0  0  0  0  0  0  0  0
  -10.4711    0.1525  -23.6039 C   0  0  0  0  0  0  0  0  0  0  0  0
  -11.5470   -0.5968  -23.2326 C   0  0  0  0  0  0  0  0  0  0  0  0
   -7.9806   -2.4474  -27.5638 C   0  0  0  0  0  0  0  0  0  0  0  0
   -7.3398   -1.1483  -27.8118 C   0  0  0  0  0  0  0  0  0  0  0  0
   -8.0152    0.0147  -27.9057 N   0  0  0  0  0  0  0  0  0  0  0  0
   -7.1248    0.9942  -28.1343 C   0  0  0  0  0  0  0  0  0  0  0  0
   -5.9174    0.4040  -28.1754 N   0  0  0  0  0  0  0  0  0  0  0  0
   -6.0286   -0.8929  -27.9820 N   0  0  0  0  0  0  0  0  0  0  0  0
   -5.0677    0.8768  -28.3289 H   0  0  0  0  0  0  0  0  0  0  0  0
  2  1  1  0  0  0
  2  3  1  0  0  0
  3  4  1  0  0  0
  4 19  1  0  0  0
  4  5  1  0  0  0
 19 20  2  0  0  0
 20 21  1  0  0  0
 21 22  2  0  0  0
 22 23  1  0  0  0
 23 24  2  0  0  0
 24 25  1  0  0  0
 25 26  2  0  0  0
 26 27  1  0  0  0
 27 28  2  0  0  0
 28 19  1  0  0  0
 28 23  1  0  0  0
  5  6  2  0  0  0
  7  5  1  0  0  0
  7  8  1  0  0  0
  7  2  1  0  0  0
  8  9  1  0  0  0
  9 29  1  0  0  0
  9 10  1  0  0  0
 29 30  1  0  0  0
 30 31  1  0  0  0
 31 32  2  0  0  0
 32 33  1  0  0  0
 33 34  1  0  0  0
 33 35  1  0  0  0
 34 30  2  0  0  0
 10 11  2  0  0  0
 10 12  1  0  0  0
 12 13  2  0  0  0
 13 14  1  0  0  0
 14 15  2  0  0  0
 15 16  1  0  0  0
 15 17  1  0  0  0
 17 18  2  0  0  0
 18 12  1  0  0  0
 18  7  1  0  0  0
M  END
> <minimizedAffinity>
-7.78320

> <CNNscore>
0.1272913516

> <CNNaffinity>
5.7858772278

> <CNN_VS>
0.7364921570

> <CNNaffinity_variance>
0.4773822427

$$$$



 35 40  0  0  0  0  0  0  0  0999 V2000
   -7.1433   -1.2267  -22.7757 C   0  0  0  0  0  0  0  0  0  0  0  0
   -7.9922   -2.4742  -22.9512 C   0  0  0  0  0  0  0  0  0  0  0  0
   -9.3023   -2.2027  -22.2840 C   0  0  0  0  0  0  0  0  0  0  0  0
  -10.1829   -1.8237  -23.3800 N   0  0  0  0  0  0  0  0  0  0  0  0
   -9.7307   -2.5576  -24.5111 C   0  0  0  0  0  0  0  0  0  0  0  0
  -10.4507   -2.9853  -25.4770 O   0  0  0  0  0  0  0  0  0  0  0  0
   -8.2475   -2.7670  -24.4117 C   0  0  0  0  0  0  0  0  0  0  0  0
   -7.6396   -1.7292  -25.3113 C   0  0  0  0  0  0  0  0  0  0  0  0
   -7.3705   -2.1991  -26.6549 N   0  0  0  0  0  0  0  0  0  0  0  0
   -6.9984   -3.5416  -26.9496 C   0  0  0  0  0  0  0  0  0  0  0  0
   -6.4729   -3.8091  -28.0387 O   0  0  0  0  0  0  0  0  0  0  0  0
   -7.2697   -4.5379  -25.9185 C   0  0  0  0  0  0  0  0  0  0  0  0
   -6.9171   -5.8413  -26.1887 C   0  0  0  0  0  0  0  0  0  0  0  0
   -7.1479   -6.8306  -25.2569 C   0  0  0  0  0  0  0  0  0  0  0  0
   -7.7348   -6.4655  -24.0677 C   0  0  0  0  0  0  0  0  0  0  0  0
   -7.9612   -7.4501  -23.1477 F   0  0  0  0  0  0  0  0  0  0  0  0
   -8.0900   -5.1376  -23.8016 C   0  0  0  0  0  0  0  0  0  0  0  0
   -7.8611   -4.1424  -24.7315 C   0  0  0  0  0  0  0  0  0  0  0  0
  -11.2784   -0.9175  -23.3784 C   0  0  0  0  0  0  0  0  0  0  0  0
  -12.5502   -1.3906  -23.1220 C   0  0  0  0  0  0  0  0  0  0  0  0
  -13.6430   -0.6249  -23.0975 N   0  0  0  0  0  0  0  0  0  0  0  0
  -13.4938    0.6904  -23.3379 C   0  0  0  0  0  0  0  0  0  0  0  0
  -12.2599    1.2425  -23.6023 C   0  0  0  0  0  0  0  0  0  0  0  0
  -12.2051    2.5983  -23.8363 C   0  0  0  0  0  0  0  0  0  0  0  0
  -10.9572    3.1345  -24.0998 C   0  0  0  0  0  0  0  0  0  0  0  0
   -9.8308    2.3231  -24.1213 C   0  0  0  0  0  0  0  0  0  0  0  0
   -9.9095    0.9579  -23.8824 C   0  0  0  0  0  0  0  0  0  0  0  0
  -11.1403    0.4336  -23.6233 C   0  0  0  0  0  0  0  0  0  0  0  0
   -7.4754   -1.2810  -27.7866 C   0  0  0  0  0  0  0  0  0  0  0  0
   -7.2162    0.1177  -27.4179 C   0  0  0  0  0  0  0  0  0  0  0  0
   -5.9815    0.6314  -27.2477 N   0  0  0  0  0  0  0  0  0  0  0  0
   -6.1129    1.9268  -26.9176 C   0  0  0  0  0  0  0  0  0  0  0  0
   -7.4337    2.1774  -26.8932 N   0  0  0  0  0  0  0  0  0  0  0  0
   -8.1168    1.0935  -27.1936 N   0  0  0  0  0  0  0  0  0  0  0  0
   -7.8343    3.0510  -26.6800 H   0  0  0  0  0  0  0  0  0  0  0  0
  2  1  1  0  0  0
  2  3  1  0  0  0
  3  4  1  0  0  0
  4 19  1  0  0  0
  4  5  1  0  0  0
 19 20  2  0  0  0
 20 21  1  0  0  0
 21 22  2  0  0  0
 22 23  1  0  0  0
 23 24  2  0  0  0
 24 25  1  0  0  0
 25 26  2  0  0  0
 26 27  1  0  0  0
 27 28  2  0  0  0
 28 19  1  0  0  0
 28 23  1  0  0  0
  5  6  2  0  0  0
  7  5  1  0  0  0
  7  8  1  0  0  0
  7  2  1  0  0  0
  8  9  1  0  0  0
  9 29  1  0  0  0
  9 10  1  0  0  0
 29 30  1  0  0  0
 30 31  1  0  0  0
 31 32  2  0  0  0
 32 33  1  0  0  0
 33 34  1  0  0  0
 33 35  1  0  0  0
 34 30  2  0  0  0
 10 11  2  0  0  0
 10 12  1  0  0  0
 12 13  2  0  0  0
 13 14  1  0  0  0
 14 15  2  0  0  0
 15 16  1  0  0  0
 15 17  1  0  0  0
 17 18  2  0  0  0
 18 12  1  0  0  0
 18  7  1  0  0  0
M  END
> <minimizedAffinity>
-7.76110

> <CNNscore>
0.1158324704

> <CNNaffinity>
5.5839090347

> <CNN_VS>
0.6467979550

> <CNNaffinity_variance>
0.5845428705

$$$$



 35 40  0  0  0  0  0  0  0  0999 V2000
   -9.2973    0.5402  -22.1344 C   0  0  0  0  0  0  0  0  0  0  0  0
   -8.1996   -0.2747  -21.4723 C   0  0  0  0  0  0  0  0  0  0  0  0
   -8.5289   -1.7141  -21.7066 C   0  0  0  0  0  0  0  0  0  0  0  0
   -7.6946   -2.0853  -22.8410 N   0  0  0  0  0  0  0  0  0  0  0  0
   -6.5148   -1.2994  -22.7270 C   0  0  0  0  0  0  0  0  0  0  0  0
   -5.3395   -1.6341  -23.1024 O   0  0  0  0  0  0  0  0  0  0  0  0
   -6.8496    0.0162  -22.0861 C   0  0  0  0  0  0  0  0  0  0  0  0
   -6.9433    0.9968  -23.2199 C   0  0  0  0  0  0  0  0  0  0  0  0
   -5.7122    1.7142  -23.4814 N   0  0  0  0  0  0  0  0  0  0  0  0
   -4.7836    2.0639  -22.4602 C   0  0  0  0  0  0  0  0  0  0  0  0
   -3.9330    2.9379  -22.6756 O   0  0  0  0  0  0  0  0  0  0  0  0
   -4.9018    1.3479  -21.1943 C   0  0  0  0  0  0  0  0  0  0  0  0
   -4.0101    1.6734  -20.1968 C   0  0  0  0  0  0  0  0  0  0  0  0
   -4.0674    1.0326  -18.9776 C   0  0  0  0  0  0  0  0  0  0  0  0
   -5.0363    0.0718  -18.8045 C   0  0  0  0  0  0  0  0  0  0  0  0
   -5.0887   -0.5602  -17.5941 F   0  0  0  0  0  0  0  0  0  0  0  0
   -5.9389   -0.2528  -19.8244 C   0  0  0  0  0  0  0  0  0  0  0  0
   -5.8860    0.3860  -21.0478 C   0  0  0  0  0  0  0  0  0  0  0  0
   -7.9529   -3.0267  -23.8746 C   0  0  0  0  0  0  0  0  0  0  0  0
   -8.2502   -4.3339  -23.5434 C   0  0  0  0  0  0  0  0  0  0  0  0
   -8.5074   -5.2924  -24.4356 N   0  0  0  0  0  0  0  0  0  0  0  0
   -8.4744   -4.9620  -25.7394 C   0  0  0  0  0  0  0  0  0  0  0  0
   -8.1860   -3.6806  -26.1544 C   0  0  0  0  0  0  0  0  0  0  0  0
   -8.1751   -3.4366  -27.5095 C   0  0  0  0  0  0  0  0  0  0  0  0
   -7.8836   -2.1438  -27.9067 C   0  0  0  0  0  0  0  0  0  0  0  0
   -7.6185   -1.1589  -26.9647 C   0  0  0  0  0  0  0  0  0  0  0  0
   -7.6349   -1.4276  -25.6029 C   0  0  0  0  0  0  0  0  0  0  0  0
   -7.9225   -2.7020  -25.2156 C   0  0  0  0  0  0  0  0  0  0  0  0
   -5.3736    2.1146  -24.8451 C   0  0  0  0  0  0  0  0  0  0  0  0
   -6.1933    3.2309  -25.3367 C   0  0  0  0  0  0  0  0  0  0  0  0
   -7.2490    3.0792  -26.1612 N   0  0  0  0  0  0  0  0  0  0  0  0
   -7.7622    4.2961  -26.4063 C   0  0  0  0  0  0  0  0  0  0  0  0
   -7.0035    5.1700  -25.7218 N   0  0  0  0  0  0  0  0  0  0  0  0
   -6.0490    4.5426  -25.0684 N   0  0  0  0  0  0  0  0  0  0  0  0
   -7.1429    6.1445  -25.7109 H   0  0  0  0  0  0  0  0  0  0  0  0
  2  1  1  0  0  0
  2  3  1  0  0  0
  3  4  1  0  0  0
  4 19  1  0  0  0
  4  5  1  0  0  0
 19 20  2  0  0  0
 20 21  1  0  0  0
 21 22  2  0  0  0
 22 23  1  0  0  0
 23 24  2  0  0  0
 24 25  1  0  0  0
 25 26  2  0  0  0
 26 27  1  0  0  0
 27 28  2  0  0  0
 28 19  1  0  0  0
 28 23  1  0  0  0
  5  6  2  0  0  0
  7  5  1  0  0  0
  7  8  1  0  0  0
  7  2  1  0  0  0
  8  9  1  0  0  0
  9 29  1  0  0  0
  9 10  1  0  0  0
 29 30  1  0  0  0
 30 31  1  0  0  0
 31 32  2  0  0  0
 32 33  1  0  0  0
 33 34  1  0  0  0
 33 35  1  0  0  0
 34 30  2  0  0  0
 10 11  2  0  0  0
 10 12  1  0  0  0
 12 13  2  0  0  0
 13 14  1  0  0  0
 14 15  2  0  0  0
 15 16  1  0  0  0
 15 17  1  0  0  0
 17 18  2  0  0  0
 18 12  1  0  0  0
 18  7  1  0  0  0
M  END
> <minimizedAffinity>
-6.63966

> <CNNscore>
0.1111074835

> <CNNaffinity>
5.7723393440

> <CNN_VS>
0.6413500905

> <CNNaffinity_variance>
0.3139238656

$$$$



 35 40  0  0  0  0  0  0  0  0999 V2000
   -7.7659   -0.5738  -25.8276 C   0  0  0  0  0  0  0  0  0  0  0  0
   -8.4979   -0.8705  -24.5301 C   0  0  0  0  0  0  0  0  0  0  0  0
   -7.4690   -1.3352  -23.5499 C   0  0  0  0  0  0  0  0  0  0  0  0
   -7.1797   -0.1496  -22.7555 N   0  0  0  0  0  0  0  0  0  0  0  0
   -8.3934    0.5902  -22.7084 C   0  0  0  0  0  0  0  0  0  0  0  0
   -8.7921    1.3362  -21.7499 O   0  0  0  0  0  0  0  0  0  0  0  0
   -9.1647    0.3678  -23.9770 C   0  0  0  0  0  0  0  0  0  0  0  0
   -8.8960    1.5801  -24.8219 C   0  0  0  0  0  0  0  0  0  0  0  0
   -9.8909    2.6244  -24.6870 N   0  0  0  0  0  0  0  0  0  0  0  0
  -11.2675    2.3598  -24.4371 C   0  0  0  0  0  0  0  0  0  0  0  0
  -12.1117    3.2403  -24.6514 O   0  0  0  0  0  0  0  0  0  0  0  0
  -11.5979    1.0315  -23.9314 C   0  0  0  0  0  0  0  0  0  0  0  0
  -12.9249    0.7602  -23.6832 C   0  0  0  0  0  0  0  0  0  0  0  0
  -13.3032   -0.4753  -23.2030 C   0  0  0  0  0  0  0  0  0  0  0  0
  -12.3154   -1.4078  -22.9868 C   0  0  0  0  0  0  0  0  0  0  0  0
  -12.6960   -2.6309  -22.5110 F   0  0  0  0  0  0  0  0  0  0  0  0
  -10.9686   -1.1232  -23.2421 C   0  0  0  0  0  0  0  0  0  0  0  0
  -10.5839    0.1130  -23.7232 C   0  0  0  0  0  0  0  0  0  0  0  0
   -5.9614    0.2387  -22.1341 C   0  0  0  0  0  0  0  0  0  0  0  0
   -4.9473    0.7737  -22.9037 C   0  0  0  0  0  0  0  0  0  0  0  0
   -3.7682    1.1684  -22.4190 N   0  0  0  0  0  0  0  0  0  0  0  0
   -3.5564    1.0359  -21.0971 C   0  0  0  0  0  0  0  0  0  0  0  0
   -4.5158    0.5115  -20.2592 C   0  0  0  0  0  0  0  0  0  0  0  0
   -4.2089    0.4145  -18.9204 C   0  0  0  0  0  0  0  0  0  0  0  0
   -5.1852   -0.1143  -18.0949 C   0  0  0  0  0  0  0  0  0  0  0  0
   -6.4063   -0.5199  -18.6162 C   0  0  0  0  0  0  0  0  0  0  0  0
   -6.6943   -0.4128  -19.9700 C   0  0  0  0  0  0  0  0  0  0  0  0
   -5.7303    0.1085  -20.7798 C   0  0  0  0  0  0  0  0  0  0  0  0
   -9.5009    4.0273  -24.8071 C   0  0  0  0  0  0  0  0  0  0  0  0
   -8.6460    4.4828  -23.7021 C   0  0  0  0  0  0  0  0  0  0  0  0
   -7.4604    3.9214  -23.3912 N   0  0  0  0  0  0  0  0  0  0  0  0
   -6.9528    4.5809  -22.3369 C   0  0  0  0  0  0  0  0  0  0  0  0
   -7.8453    5.5368  -22.0248 N   0  0  0  0  0  0  0  0  0  0  0  0
   -8.8767    5.4922  -22.8410 N   0  0  0  0  0  0  0  0  0  0  0  0
   -7.7417    6.1810  -21.2877 H   0  0  0  0  0  0  0  0  0  0  0  0
  2  1  1  0  0  0
  2  3  1  0  0  0
  3  4  1  0  0  0
  4 19  1  0  0  0
  4  5  1  0  0  0
 19 20  2  0  0  0
 20 21  1  0  0  0
 21 22  2  0  0  0
 22 23  1  0  0  0
 23 24  2  0  0  0
 24 25  1  0  0  0
 25 26  2  0  0  0
 26 27  1  0  0  0
 27 28  2  0  0  0
 28 19  1  0  0  0
 28 23  1  0  0  0
  5  6  2  0  0  0
  7  5  1  0  0  0
  7  8  1  0  0  0
  7  2  1  0  0  0
  8  9  1  0  0  0
  9 29  1  0  0  0
  9 10  1  0  0  0
 29 30  1  0  0  0
 30 31  1  0  0  0
 31 32  2  0  0  0
 32 33  1  0  0  0
 33 34  1  0  0  0
 33 35  1  0  0  0
 34 30  2  0  0  0
 10 11  2  0  0  0
 10 12  1  0  0  0
 12 13  2  0  0  0
 13 14  1  0  0  0
 14 15  2  0  0  0
 15 16  1  0  0  0
 15 17  1  0  0  0
 17 18  2  0  0  0
 18 12  1  0  0  0
 18  7  1  0  0  0
M  END
> <minimizedAffinity>
-8.77269

> <CNNscore>
0.0945830643

> <CNNaffinity>
5.5915913582

> <CNN_VS>
0.5288698673

> <CNNaffinity_variance>
0.2712791264

$$$$



 34 39  0  0  0  0  0  0  0  0999 V2000
   -7.3224   -1.7613  -24.1501 C   0  0  0  0  0  0  0  0  0  0  0  0
   -8.6002   -1.9159  -23.3210 C   0  0  0  0  0  0  0  0  0  0  0  0
   -8.1805   -2.2496  -21.9364 C   0  0  0  0  0  0  0  0  0  0  0  0
   -7.8225   -0.9645  -21.3673 N   0  0  0  0  0  0  0  0  0  0  0  0
   -8.7569   -0.0562  -21.9406 C   0  0  0  0  0  0  0  0  0  0  0  0
   -9.1407    1.0565  -21.4385 O   0  0  0  0  0  0  0  0  0  0  0  0
   -9.2394   -0.5908  -23.2376 C   0  0  0  0  0  0  0  0  0  0  0  0
   -8.7997    0.3292  -24.3839 C   0  0  0  0  0  0  0  0  0  0  0  0
   -9.3940    1.6495  -24.1689 N   0  0  0  0  0  0  0  0  0  0  0  0
  -10.8331    1.6720  -24.1701 C   0  0  0  0  0  0  0  0  0  0  0  0
  -11.4383    2.6946  -24.5599 O   0  0  0  0  0  0  0  0  0  0  0  0
  -11.4902    0.4571  -23.6987 C   0  0  0  0  0  0  0  0  0  0  0  0
  -12.8609    0.4382  -23.7195 C   0  0  0  0  0  0  0  0  0  0  0  0
  -13.5596   -0.6745  -23.3219 C   0  0  0  0  0  0  0  0  0  0  0  0
  -12.8358   -1.7672  -22.9031 C   0  0  0  0  0  0  0  0  0  0  0  0
  -13.5134   -2.8677  -22.5103 F   0  0  0  0  0  0  0  0  0  0  0  0
  -11.4505   -1.7431  -22.8836 C   0  0  0  0  0  0  0  0  0  0  0  0
  -10.7245   -0.6322  -23.2791 C   0  0  0  0  0  0  0  0  0  0  0  0
   -6.7909   -0.6360  -20.4449 C   0  0  0  0  0  0  0  0  0  0  0  0
   -6.7681   -1.0802  -19.1395 C   0  0  0  0  0  0  0  0  0  0  0  0
   -5.7471   -0.7165  -18.3352 N   0  0  0  0  0  0  0  0  0  0  0  0
   -4.7264    0.0766  -18.7534 C   0  0  0  0  0  0  0  0  0  0  0  0
   -4.7073    0.5390  -20.0354 C   0  0  0  0  0  0  0  0  0  0  0  0
   -3.6783    1.3377  -20.4547 C   0  0  0  0  0  0  0  0  0  0  0  0
   -3.6364    1.8209  -21.7547 C   0  0  0  0  0  0  0  0  0  0  0  0
   -4.6675    1.4652  -22.6002 C   0  0  0  0  0  0  0  0  0  0  0  0
   -5.6886    0.6666  -22.1666 C   0  0  0  0  0  0  0  0  0  0  0  0
   -5.7476    0.1750  -20.8737 C   0  0  0  0  0  0  0  0  0  0  0  0
   -8.6166    2.8318  -23.9804 C   0  0  0  0  0  0  0  0  0  0  0  0
   -7.8923    3.2408  -25.2287 C   0  0  0  0  0  0  0  0  0  0  0  0
   -6.5432    3.4363  -25.4117 C   0  0  0  0  0  0  0  0  0  0  0  0
   -6.3025    3.7909  -26.6537 O   0  0  0  0  0  0  0  0  0  0  0  0
   -7.4695    3.8275  -27.2737 C   0  0  0  0  0  0  0  0  0  0  0  0
   -8.4586    3.4950  -26.4239 N   0  0  0  0  0  0  0  0  0  0  0  0
  2  1  1  0  0  0
  2  3  1  0  0  0
  3  4  1  0  0  0
  4 19  1  0  0  0
  4  5  1  0  0  0
 19 20  2  0  0  0
 20 21  1  0  0  0
 21 22  2  0  0  0
 22 23  1  0  0  0
 23 24  2  0  0  0
 24 25  1  0  0  0
 25 26  2  0  0  0
 26 27  1  0  0  0
 27 28  2  0  0  0
 28 19  1  0  0  0
 28 23  1  0  0  0
  5  6  2  0  0  0
  7  5  1  0  0  0
  7  8  1  0  0  0
  7  2  1  0  0  0
  8  9  1  0  0  0
  9 29  1  0  0  0
  9 10  1  0  0  0
 29 30  1  0  0  0
 30 31  2  0  0  0
 31 32  1  0  0  0
 32 33  1  0  0  0
 33 34  2  0  0  0
 34 30  1  0  0  0
 10 11  2  0  0  0
 10 12  1  0  0  0
 12 13  2  0  0  0
 13 14  1  0  0  0
 14 15  2  0  0  0
 15 16  1  0  0  0
 15 17  1  0  0  0
 17 18  2  0  0  0
 18 12  1  0  0  0
 18  7  1  0  0  0
M  END
> <minimizedAffinity>
-8.18213

> <CNNscore>
0.5973269343

> <CNNaffinity>
6.3318724632

> <CNN_VS>
3.7821979523

> <CNNaffinity_variance>
0.0768729821

$$$$



 34 39  0  0  0  0  0  0  0  0999 V2000
   -7.5727    0.7024  -25.6645 C   0  0  0  0  0  0  0  0  0  0  0  0
   -7.0544    1.6087  -24.5447 C   0  0  0  0  0  0  0  0  0  0  0  0
   -8.0580    2.6873  -24.3609 C   0  0  0  0  0  0  0  0  0  0  0  0
   -9.0847    2.0655  -23.5468 N   0  0  0  0  0  0  0  0  0  0  0  0
   -8.3628    1.2072  -22.6698 C   0  0  0  0  0  0  0  0  0  0  0  0
   -8.7425    0.8080  -21.5149 O   0  0  0  0  0  0  0  0  0  0  0  0
   -7.0725    0.8273  -23.2956 C   0  0  0  0  0  0  0  0  0  0  0  0
   -7.0413   -0.6827  -23.5653 C   0  0  0  0  0  0  0  0  0  0  0  0
   -7.1676   -1.3821  -22.2857 N   0  0  0  0  0  0  0  0  0  0  0  0
   -6.1066   -1.1231  -21.3481 C   0  0  0  0  0  0  0  0  0  0  0  0
   -5.7738   -2.0058  -20.5270 O   0  0  0  0  0  0  0  0  0  0  0  0
   -5.4859    0.1947  -21.4357 C   0  0  0  0  0  0  0  0  0  0  0  0
   -4.4504    0.4575  -20.5763 C   0  0  0  0  0  0  0  0  0  0  0  0
   -3.7901    1.6604  -20.6104 C   0  0  0  0  0  0  0  0  0  0  0  0
   -4.2043    2.5903  -21.5363 C   0  0  0  0  0  0  0  0  0  0  0  0
   -3.5609    3.7772  -21.5789 F   0  0  0  0  0  0  0  0  0  0  0  0
   -5.2515    2.3201  -22.4025 C   0  0  0  0  0  0  0  0  0  0  0  0
   -5.9327    1.1146  -22.3861 C   0  0  0  0  0  0  0  0  0  0  0  0
  -10.4958    2.2411  -23.5753 C   0  0  0  0  0  0  0  0  0  0  0  0
  -11.1080    3.4766  -23.6027 C   0  0  0  0  0  0  0  0  0  0  0  0
  -12.4557    3.5461  -23.6282 N   0  0  0  0  0  0  0  0  0  0  0  0
  -13.2503    2.4441  -23.6283 C   0  0  0  0  0  0  0  0  0  0  0  0
  -12.6890    1.2023  -23.6017 C   0  0  0  0  0  0  0  0  0  0  0  0
  -13.4911    0.0937  -23.6018 C   0  0  0  0  0  0  0  0  0  0  0  0
  -12.9436   -1.1810  -23.5751 C   0  0  0  0  0  0  0  0  0  0  0  0
  -11.5676   -1.2831  -23.5486 C   0  0  0  0  0  0  0  0  0  0  0  0
  -10.7796   -0.1662  -23.5489 C   0  0  0  0  0  0  0  0  0  0  0  0
  -11.3074    1.1135  -23.5753 C   0  0  0  0  0  0  0  0  0  0  0  0
   -8.2499   -2.2621  -21.9830 C   0  0  0  0  0  0  0  0  0  0  0  0
   -8.2331   -3.4973  -22.8339 C   0  0  0  0  0  0  0  0  0  0  0  0
   -9.0795   -3.8415  -23.8619 C   0  0  0  0  0  0  0  0  0  0  0  0
   -8.7351   -5.0075  -24.3597 O   0  0  0  0  0  0  0  0  0  0  0  0
   -7.6838   -5.4208  -23.6729 C   0  0  0  0  0  0  0  0  0  0  0  0
   -7.3564   -4.5148  -22.7331 N   0  0  0  0  0  0  0  0  0  0  0  0
  2  1  1  0  0  0
  2  3  1  0  0  0
  3  4  1  0  0  0
  4 19  1  0  0  0
  4  5  1  0  0  0
 19 20  2  0  0  0
 20 21  1  0  0  0
 21 22  2  0  0  0
 22 23  1  0  0  0
 23 24  2  0  0  0
 24 25  1  0  0  0
 25 26  2  0  0  0
 26 27  1  0  0  0
 27 28  2  0  0  0
 28 19  1  0  0  0
 28 23  1  0  0  0
  5  6  2  0  0  0
  7  5  1  0  0  0
  7  8  1  0  0  0
  7  2  1  0  0  0
  8  9  1  0  0  0
  9 29  1  0  0  0
  9 10  1  0  0  0
 29 30  1  0  0  0
 30 31  2  0  0  0
 31 32  1  0  0  0
 32 33  1  0  0  0
 33 34  2  0  0  0
 34 30  1  0  0  0
 10 11  2  0  0  0
 10 12  1  0  0  0
 12 13  2  0  0  0
 13 14  1  0  0  0
 14 15  2  0  0  0
 15 16  1  0  0  0
 15 17  1  0  0  0
 17 18  2  0  0  0
 18 12  1  0  0  0
 18  7  1  0  0  0
M  END
> <minimizedAffinity>
-8.48002

> <CNNscore>
0.4208671749

> <CNNaffinity>
6.2722020149

> <CNN_VS>
2.6397638321

> <CNNaffinity_variance>
0.2172668427

$$$$



 34 39  0  0  0  0  0  0  0  0999 V2000
   -7.8154    0.1343  -25.6069 C   0  0  0  0  0  0  0  0  0  0  0  0
   -7.3613    1.1786  -24.5835 C   0  0  0  0  0  0  0  0  0  0  0  0
   -8.4510    2.1813  -24.4751 C   0  0  0  0  0  0  0  0  0  0  0  0
   -9.4095    1.5516  -23.5872 N   0  0  0  0  0  0  0  0  0  0  0  0
   -8.6049    0.8399  -22.6529 C   0  0  0  0  0  0  0  0  0  0  0  0
   -8.9332    0.5164  -21.4592 O   0  0  0  0  0  0  0  0  0  0  0  0
   -7.2955    0.5147  -23.2697 C   0  0  0  0  0  0  0  0  0  0  0  0
   -7.1388   -1.0055  -23.4045 C   0  0  0  0  0  0  0  0  0  0  0  0
   -7.1872   -1.5944  -22.0653 N   0  0  0  0  0  0  0  0  0  0  0  0
   -6.1397   -1.1634  -21.1773 C   0  0  0  0  0  0  0  0  0  0  0  0
   -5.7214   -1.9370  -20.2882 O   0  0  0  0  0  0  0  0  0  0  0  0
   -5.6352    0.1886  -21.3951 C   0  0  0  0  0  0  0  0  0  0  0  0
   -4.6145    0.6142  -20.5847 C   0  0  0  0  0  0  0  0  0  0  0  0
   -4.0601    1.8603  -20.7399 C   0  0  0  0  0  0  0  0  0  0  0  0
   -4.5650    2.6644  -21.7358 C   0  0  0  0  0  0  0  0  0  0  0  0
   -4.0262    3.8924  -21.8976 F   0  0  0  0  0  0  0  0  0  0  0  0
   -5.5969    2.2299  -22.5520 C   0  0  0  0  0  0  0  0  0  0  0  0
   -6.1721    0.9779  -22.4138 C   0  0  0  0  0  0  0  0  0  0  0  0
  -10.8308    1.6047  -23.6012 C   0  0  0  0  0  0  0  0  0  0  0  0
  -11.6342    0.4852  -23.5450 C   0  0  0  0  0  0  0  0  0  0  0  0
  -12.9757    0.6326  -23.5640 N   0  0  0  0  0  0  0  0  0  0  0  0
  -13.5824    1.8460  -23.6368 C   0  0  0  0  0  0  0  0  0  0  0  0
  -12.8282    2.9799  -23.6942 C   0  0  0  0  0  0  0  0  0  0  0  0
  -13.4413    4.2010  -23.7675 C   0  0  0  0  0  0  0  0  0  0  0  0
  -12.6955    5.3696  -23.8270 C   0  0  0  0  0  0  0  0  0  0  0  0
  -11.3207    5.2496  -23.8093 C   0  0  0  0  0  0  0  0  0  0  0  0
  -10.7229    4.0226  -23.7357 C   0  0  0  0  0  0  0  0  0  0  0  0
  -11.4501    2.8460  -23.6757 C   0  0  0  0  0  0  0  0  0  0  0  0
   -8.1861   -2.5312  -21.6625 C   0  0  0  0  0  0  0  0  0  0  0  0
   -8.8848   -3.1559  -22.8338 C   0  0  0  0  0  0  0  0  0  0  0  0
   -8.4544   -4.1837  -23.6399 C   0  0  0  0  0  0  0  0  0  0  0  0
   -9.3552   -4.4436  -24.5604 O   0  0  0  0  0  0  0  0  0  0  0  0
  -10.3567   -3.6037  -24.3628 C   0  0  0  0  0  0  0  0  0  0  0  0
  -10.0938   -2.8048  -23.3122 N   0  0  0  0  0  0  0  0  0  0  0  0
  2  1  1  0  0  0
  2  3  1  0  0  0
  3  4  1  0  0  0
  4 19  1  0  0  0
  4  5  1  0  0  0
 19 20  2  0  0  0
 20 21  1  0  0  0
 21 22  2  0  0  0
 22 23  1  0  0  0
 23 24  2  0  0  0
 24 25  1  0  0  0
 25 26  2  0  0  0
 26 27  1  0  0  0
 27 28  2  0  0  0
 28 19  1  0  0  0
 28 23  1  0  0  0
  5  6  2  0  0  0
  7  5  1  0  0  0
  7  8  1  0  0  0
  7  2  1  0  0  0
  8  9  1  0  0  0
  9 29  1  0  0  0
  9 10  1  0  0  0
 29 30  1  0  0  0
 30 31  2  0  0  0
 31 32  1  0  0  0
 32 33  1  0  0  0
 33 34  2  0  0  0
 34 30  1  0  0  0
 10 11  2  0  0  0
 10 12  1  0  0  0
 12 13  2  0  0  0
 13 14  1  0  0  0
 14 15  2  0  0  0
 15 16  1  0  0  0
 15 17  1  0  0  0
 17 18  2  0  0  0
 18 12  1  0  0  0
 18  7  1  0  0  0
M  END
> <minimizedAffinity>
-8.40857

> <CNNscore>
0.3915691972

> <CNNaffinity>
6.2060852051

> <CNN_VS>
2.4301118851

> <CNNaffinity_variance>
0.1649803519

$$$$



 34 39  0  0  0  0  0  0  0  0999 V2000
   -7.6370    0.5317  -25.6190 C   0  0  0  0  0  0  0  0  0  0  0  0
   -8.4022   -0.3701  -24.6467 C   0  0  0  0  0  0  0  0  0  0  0  0
   -7.4346   -0.8081  -23.6092 C   0  0  0  0  0  0  0  0  0  0  0  0
   -7.3706    0.3209  -22.7012 N   0  0  0  0  0  0  0  0  0  0  0  0
   -8.7003    0.8292  -22.6816 C   0  0  0  0  0  0  0  0  0  0  0  0
   -9.2446    1.4966  -21.7352 O   0  0  0  0  0  0  0  0  0  0  0  0
   -9.3896    0.4691  -23.9449 C   0  0  0  0  0  0  0  0  0  0  0  0
   -9.7306    1.7363  -24.7396 C   0  0  0  0  0  0  0  0  0  0  0  0
  -10.6310    2.5592  -23.9305 N   0  0  0  0  0  0  0  0  0  0  0  0
  -11.8900    1.9403  -23.6086 C   0  0  0  0  0  0  0  0  0  0  0  0
  -12.9089    2.6486  -23.4532 O   0  0  0  0  0  0  0  0  0  0  0  0
  -11.8725    0.4863  -23.4848 C   0  0  0  0  0  0  0  0  0  0  0  0
  -13.0644   -0.1332  -23.2107 C   0  0  0  0  0  0  0  0  0  0  0  0
  -13.1446   -1.4996  -23.1071 C   0  0  0  0  0  0  0  0  0  0  0  0
  -11.9881   -2.2228  -23.2879 C   0  0  0  0  0  0  0  0  0  0  0  0
  -12.0559   -3.5682  -23.1887 F   0  0  0  0  0  0  0  0  0  0  0  0
  -10.7857   -1.5920  -23.5644 C   0  0  0  0  0  0  0  0  0  0  0  0
  -10.6804   -0.2156  -23.6729 C   0  0  0  0  0  0  0  0  0  0  0  0
   -6.2641    0.8379  -21.9723 C   0  0  0  0  0  0  0  0  0  0  0  0
   -5.7584    0.2442  -20.8349 C   0  0  0  0  0  0  0  0  0  0  0  0
   -4.7041    0.8074  -20.2081 N   0  0  0  0  0  0  0  0  0  0  0  0
   -4.1078    1.9461  -20.6481 C   0  0  0  0  0  0  0  0  0  0  0  0
   -4.5738    2.5674  -21.7681 C   0  0  0  0  0  0  0  0  0  0  0  0
   -3.9719    3.7142  -22.2096 C   0  0  0  0  0  0  0  0  0  0  0  0
   -4.4278    4.3651  -23.3470 C   0  0  0  0  0  0  0  0  0  0  0  0
   -5.5051    3.8119  -24.0090 C   0  0  0  0  0  0  0  0  0  0  0  0
   -6.0958    2.6657  -23.5556 C   0  0  0  0  0  0  0  0  0  0  0  0
   -5.6551    2.0024  -22.4231 C   0  0  0  0  0  0  0  0  0  0  0  0
  -10.3006    3.8782  -23.4960 C   0  0  0  0  0  0  0  0  0  0  0  0
  -10.5623    4.9077  -24.5551 C   0  0  0  0  0  0  0  0  0  0  0  0
   -9.6739    5.4699  -25.4419 C   0  0  0  0  0  0  0  0  0  0  0  0
  -10.2920    6.3355  -26.2132 O   0  0  0  0  0  0  0  0  0  0  0  0
  -11.5604    6.3417  -25.8406 C   0  0  0  0  0  0  0  0  0  0  0  0
  -11.7522    5.4767  -24.8276 N   0  0  0  0  0  0  0  0  0  0  0  0
  2  1  1  0  0  0
  2  3  1  0  0  0
  3  4  1  0  0  0
  4 19  1  0  0  0
  4  5  1  0  0  0
 19 20  2  0  0  0
 20 21  1  0  0  0
 21 22  2  0  0  0
 22 23  1  0  0  0
 23 24  2  0  0  0
 24 25  1  0  0  0
 25 26  2  0  0  0
 26 27  1  0  0  0
 27 28  2  0  0  0
 28 19  1  0  0  0
 28 23  1  0  0  0
  5  6  2  0  0  0
  7  5  1  0  0  0
  7  8  1  0  0  0
  7  2  1  0  0  0
  8  9  1  0  0  0
  9 29  1  0  0  0
  9 10  1  0  0  0
 29 30  1  0  0  0
 30 31  2  0  0  0
 31 32  1  0  0  0
 32 33  1  0  0  0
 33 34  2  0  0  0
 34 30  1  0  0  0
 10 11  2  0  0  0
 10 12  1  0  0  0
 12 13  2  0  0  0
 13 14  1  0  0  0
 14 15  2  0  0  0
 15 16  1  0  0  0
 15 17  1  0  0  0
 17 18  2  0  0  0
 18 12  1  0  0  0
 18  7  1  0  0  0
M  END
> <minimizedAffinity>
-6.90246

> <CNNscore>
0.3493774533

> <CNNaffinity>
6.0410976410

> <CNN_VS>
2.1106233597

> <CNNaffinity_variance>
0.1728050262

$$$$



 34 39  0  0  0  0  0  0  0  0999 V2000
   -7.5944    0.3962  -26.0800 C   0  0  0  0  0  0  0  0  0  0  0  0
   -7.3832    1.6892  -25.2879 C   0  0  0  0  0  0  0  0  0  0  0  0
   -8.7230    2.2956  -25.0832 C   0  0  0  0  0  0  0  0  0  0  0  0
   -9.2671    1.5547  -23.9613 N   0  0  0  0  0  0  0  0  0  0  0  0
   -8.1404    1.3068  -23.1271 C   0  0  0  0  0  0  0  0  0  0  0  0
   -8.1605    1.1043  -21.8637 O   0  0  0  0  0  0  0  0  0  0  0  0
   -6.9033    1.3153  -23.9457 C   0  0  0  0  0  0  0  0  0  0  0  0
   -6.2553   -0.0753  -23.9371 C   0  0  0  0  0  0  0  0  0  0  0  0
   -5.9035   -0.4112  -22.5566 N   0  0  0  0  0  0  0  0  0  0  0  0
   -4.9506    0.4758  -21.9427 C   0  0  0  0  0  0  0  0  0  0  0  0
   -4.1677    0.0394  -21.0706 O   0  0  0  0  0  0  0  0  0  0  0  0
   -4.9786    1.8599  -22.4043 C   0  0  0  0  0  0  0  0  0  0  0  0
   -4.0600    2.7202  -21.8603 C   0  0  0  0  0  0  0  0  0  0  0  0
   -3.9962    4.0322  -22.2588 C   0  0  0  0  0  0  0  0  0  0  0  0
   -4.8854    4.4512  -23.2216 C   0  0  0  0  0  0  0  0  0  0  0  0
   -4.8308    5.7403  -23.6214 F   0  0  0  0  0  0  0  0  0  0  0  0
   -5.8122    3.5781  -23.7682 C   0  0  0  0  0  0  0  0  0  0  0  0
   -5.8958    2.2511  -23.3815 C   0  0  0  0  0  0  0  0  0  0  0  0
  -10.6061    1.1492  -23.7052 C   0  0  0  0  0  0  0  0  0  0  0  0
  -11.6627    2.0304  -23.6111 C   0  0  0  0  0  0  0  0  0  0  0  0
  -12.9011    1.5536  -23.3646 N   0  0  0  0  0  0  0  0  0  0  0  0
  -13.1622    0.2303  -23.2023 C   0  0  0  0  0  0  0  0  0  0  0  0
  -12.1486   -0.6771  -23.2869 C   0  0  0  0  0  0  0  0  0  0  0  0
  -12.4137   -2.0095  -23.1231 C   0  0  0  0  0  0  0  0  0  0  0  0
  -11.3990   -2.9524  -23.2047 C   0  0  0  0  0  0  0  0  0  0  0  0
  -10.1218   -2.4939  -23.4558 C   0  0  0  0  0  0  0  0  0  0  0  0
   -9.8728   -1.1596  -23.6172 C   0  0  0  0  0  0  0  0  0  0  0  0
  -10.8719   -0.2043  -23.5393 C   0  0  0  0  0  0  0  0  0  0  0  0
   -6.4500   -1.5342  -21.8652 C   0  0  0  0  0  0  0  0  0  0  0  0
   -6.3716   -1.3774  -20.3754 C   0  0  0  0  0  0  0  0  0  0  0  0
   -5.6379   -2.1124  -19.4737 C   0  0  0  0  0  0  0  0  0  0  0  0
   -5.8388   -1.6639  -18.2553 O   0  0  0  0  0  0  0  0  0  0  0  0
   -6.6872   -0.6549  -18.3547 C   0  0  0  0  0  0  0  0  0  0  0  0
   -7.0288   -0.4591  -19.6415 N   0  0  0  0  0  0  0  0  0  0  0  0
  2  1  1  0  0  0
  2  3  1  0  0  0
  3  4  1  0  0  0
  4 19  1  0  0  0
  4  5  1  0  0  0
 19 20  2  0  0  0
 20 21  1  0  0  0
 21 22  2  0  0  0
 22 23  1  0  0  0
 23 24  2  0  0  0
 24 25  1  0  0  0
 25 26  2  0  0  0
 26 27  1  0  0  0
 27 28  2  0  0  0
 28 19  1  0  0  0
 28 23  1  0  0  0
  5  6  2  0  0  0
  7  5  1  0  0  0
  7  8  1  0  0  0
  7  2  1  0  0  0
  8  9  1  0  0  0
  9 29  1  0  0  0
  9 10  1  0  0  0
 29 30  1  0  0  0
 30 31  2  0  0  0
 31 32  1  0  0  0
 32 33  1  0  0  0
 33 34  2  0  0  0
 34 30  1  0  0  0
 10 11  2  0  0  0
 10 12  1  0  0  0
 12 13  2  0  0  0
 13 14  1  0  0  0
 14 15  2  0  0  0
 15 16  1  0  0  0
 15 17  1  0  0  0
 17 18  2  0  0  0
 18 12  1  0  0  0
 18  7  1  0  0  0
M  END
> <minimizedAffinity>
-8.00492

> <CNNscore>
0.3474061787

> <CNNaffinity>
5.9546198845

> <CNN_VS>
2.0686717033

> <CNNaffinity_variance>
0.1065130830

$$$$



 34 39  0  0  0  0  0  0  0  0999 V2000
   -6.1476    0.2177  -24.3426 C   0  0  0  0  0  0  0  0  0  0  0  0
   -6.5420   -1.2418  -24.1010 C   0  0  0  0  0  0  0  0  0  0  0  0
   -5.7708   -1.7094  -22.9215 C   0  0  0  0  0  0  0  0  0  0  0  0
   -6.5225   -1.1934  -21.7936 N   0  0  0  0  0  0  0  0  0  0  0  0
   -7.8817   -1.2905  -22.2059 C   0  0  0  0  0  0  0  0  0  0  0  0
   -8.9022   -1.3915  -21.4406 O   0  0  0  0  0  0  0  0  0  0  0  0
   -7.9561   -1.2578  -23.6872 C   0  0  0  0  0  0  0  0  0  0  0  0
   -8.7017    0.0006  -24.1503 C   0  0  0  0  0  0  0  0  0  0  0  0
  -10.0619   -0.0452  -23.6118 N   0  0  0  0  0  0  0  0  0  0  0  0
  -10.8515   -1.1627  -24.0584 C   0  0  0  0  0  0  0  0  0  0  0  0
  -12.0921   -1.0448  -24.1628 O   0  0  0  0  0  0  0  0  0  0  0  0
  -10.1130   -2.3843  -24.3623 C   0  0  0  0  0  0  0  0  0  0  0  0
  -10.8358   -3.4552  -24.8211 C   0  0  0  0  0  0  0  0  0  0  0  0
  -10.2181   -4.6334  -25.1593 C   0  0  0  0  0  0  0  0  0  0  0  0
   -8.8506   -4.7001  -25.0214 C   0  0  0  0  0  0  0  0  0  0  0  0
   -8.2325   -5.8548  -25.3520 F   0  0  0  0  0  0  0  0  0  0  0  0
   -8.1246   -3.6152  -24.5570 C   0  0  0  0  0  0  0  0  0  0  0  0
   -8.7258   -2.4172  -24.2091 C   0  0  0  0  0  0  0  0  0  0  0  0
   -6.0582   -0.6980  -20.5438 C   0  0  0  0  0  0  0  0  0  0  0  0
   -6.6734   -0.9736  -19.3407 C   0  0  0  0  0  0  0  0  0  0  0  0
   -6.1612   -0.4586  -18.2031 N   0  0  0  0  0  0  0  0  0  0  0  0
   -5.0541    0.3287  -18.1840 C   0  0  0  0  0  0  0  0  0  0  0  0
   -4.4133    0.6276  -19.3493 C   0  0  0  0  0  0  0  0  0  0  0  0
   -3.2985    1.4207  -19.3279 C   0  0  0  0  0  0  0  0  0  0  0  0
   -2.6288    1.7391  -20.5007 C   0  0  0  0  0  0  0  0  0  0  0  0
   -3.1300    1.2264  -21.6799 C   0  0  0  0  0  0  0  0  0  0  0  0
   -4.2447    0.4355  -21.6851 C   0  0  0  0  0  0  0  0  0  0  0  0
   -4.9262    0.1070  -20.5255 C   0  0  0  0  0  0  0  0  0  0  0  0
  -10.5794    0.9410  -22.7189 C   0  0  0  0  0  0  0  0  0  0  0  0
  -11.2486    2.0700  -23.4454 C   0  0  0  0  0  0  0  0  0  0  0  0
  -10.6686    3.1008  -24.1475 C   0  0  0  0  0  0  0  0  0  0  0  0
  -11.5962    3.8900  -24.6402 O   0  0  0  0  0  0  0  0  0  0  0  0
  -12.7616    3.3880  -24.2694 C   0  0  0  0  0  0  0  0  0  0  0  0
  -12.5767    2.2741  -23.5372 N   0  0  0  0  0  0  0  0  0  0  0  0
  2  1  1  0  0  0
  2  3  1  0  0  0
  3  4  1  0  0  0
  4 19  1  0  0  0
  4  5  1  0  0  0
 19 20  2  0  0  0
 20 21  1  0  0  0
 21 22  2  0  0  0
 22 23  1  0  0  0
 23 24  2  0  0  0
 24 25  1  0  0  0
 25 26  2  0  0  0
 26 27  1  0  0  0
 27 28  2  0  0  0
 28 19  1  0  0  0
 28 23  1  0  0  0
  5  6  2  0  0  0
  7  5  1  0  0  0
  7  8  1  0  0  0
  7  2  1  0  0  0
  8  9  1  0  0  0
  9 29  1  0  0  0
  9 10  1  0  0  0
 29 30  1  0  0  0
 30 31  2  0  0  0
 31 32  1  0  0  0
 32 33  1  0  0  0
 33 34  2  0  0  0
 34 30  1  0  0  0
 10 11  2  0  0  0
 10 12  1  0  0  0
 12 13  2  0  0  0
 13 14  1  0  0  0
 14 15  2  0  0  0
 15 16  1  0  0  0
 15 17  1  0  0  0
 17 18  2  0  0  0
 18 12  1  0  0  0
 18  7  1  0  0  0
M  END
> <minimizedAffinity>
-8.99395

> <CNNscore>
0.2891510129

> <CNNaffinity>
6.0339150429

> <CNN_VS>
1.7447125912

> <CNNaffinity_variance>
0.1307955384

$$$$



 34 39  0  0  0  0  0  0  0  0999 V2000
   -7.7273    1.0278  -26.0813 C   0  0  0  0  0  0  0  0  0  0  0  0
   -8.2585   -0.0027  -25.0813 C   0  0  0  0  0  0  0  0  0  0  0  0
   -7.1362   -0.3402  -24.1696 C   0  0  0  0  0  0  0  0  0  0  0  0
   -7.1250    0.7551  -23.2191 N   0  0  0  0  0  0  0  0  0  0  0  0
   -8.5004    1.0764  -23.0404 C   0  0  0  0  0  0  0  0  0  0  0  0
   -9.0236    1.6306  -22.0125 O   0  0  0  0  0  0  0  0  0  0  0  0
   -9.2671    0.6694  -24.2433 C   0  0  0  0  0  0  0  0  0  0  0  0
   -9.8554    1.9049  -24.9370 C   0  0  0  0  0  0  0  0  0  0  0  0
  -10.7648    2.5691  -24.0020 N   0  0  0  0  0  0  0  0  0  0  0  0
  -11.8894    1.7737  -23.5846 C   0  0  0  0  0  0  0  0  0  0  0  0
  -12.9704    2.3308  -23.2926 O   0  0  0  0  0  0  0  0  0  0  0  0
  -11.6671    0.3323  -23.5337 C   0  0  0  0  0  0  0  0  0  0  0  0
  -12.7307   -0.4529  -23.1706 C   0  0  0  0  0  0  0  0  0  0  0  0
  -12.6184   -1.8202  -23.1257 C   0  0  0  0  0  0  0  0  0  0  0  0
  -11.4025   -2.3724  -23.4576 C   0  0  0  0  0  0  0  0  0  0  0  0
  -11.2812   -3.7171  -23.4173 F   0  0  0  0  0  0  0  0  0  0  0  0
  -10.3304   -1.5746  -23.8236 C   0  0  0  0  0  0  0  0  0  0  0  0
  -10.4198   -0.1937  -23.8754 C   0  0  0  0  0  0  0  0  0  0  0  0
   -6.0248    1.3928  -22.5819 C   0  0  0  0  0  0  0  0  0  0  0  0
   -5.3210    2.4369  -23.1444 C   0  0  0  0  0  0  0  0  0  0  0  0
   -4.2893    2.9805  -22.4650 N   0  0  0  0  0  0  0  0  0  0  0  0
   -3.9041    2.5443  -21.2373 C   0  0  0  0  0  0  0  0  0  0  0  0
   -4.5707    1.5147  -20.6427 C   0  0  0  0  0  0  0  0  0  0  0  0
   -4.1813    1.0768  -19.4062 C   0  0  0  0  0  0  0  0  0  0  0  0
   -4.8438    0.0306  -18.7803 C   0  0  0  0  0  0  0  0  0  0  0  0
   -5.9033   -0.5451  -19.4516 C   0  0  0  0  0  0  0  0  0  0  0  0
   -6.2805   -0.0965  -20.6864 C   0  0  0  0  0  0  0  0  0  0  0  0
   -5.6319    0.9458  -21.3266 C   0  0  0  0  0  0  0  0  0  0  0  0
  -10.5668    3.9051  -23.5398 C   0  0  0  0  0  0  0  0  0  0  0  0
  -11.1896    4.9202  -24.4519 C   0  0  0  0  0  0  0  0  0  0  0  0
  -10.6719    5.4725  -25.6003 C   0  0  0  0  0  0  0  0  0  0  0  0
  -11.5266    6.3267  -26.1159 O   0  0  0  0  0  0  0  0  0  0  0  0
  -12.5840    6.3353  -25.3225 C   0  0  0  0  0  0  0  0  0  0  0  0
  -12.4031    5.4833  -24.2967 N   0  0  0  0  0  0  0  0  0  0  0  0
  2  1  1  0  0  0
  2  3  1  0  0  0
  3  4  1  0  0  0
  4 19  1  0  0  0
  4  5  1  0  0  0
 19 20  2  0  0  0
 20 21  1  0  0  0
 21 22  2  0  0  0
 22 23  1  0  0  0
 23 24  2  0  0  0
 24 25  1  0  0  0
 25 26  2  0  0  0
 26 27  1  0  0  0
 27 28  2  0  0  0
 28 19  1  0  0  0
 28 23  1  0  0  0
  5  6  2  0  0  0
  7  5  1  0  0  0
  7  8  1  0  0  0
  7  2  1  0  0  0
  8  9  1  0  0  0
  9 29  1  0  0  0
  9 10  1  0  0  0
 29 30  1  0  0  0
 30 31  2  0  0  0
 31 32  1  0  0  0
 32 33  1  0  0  0
 33 34  2  0  0  0
 34 30  1  0  0  0
 10 11  2  0  0  0
 10 12  1  0  0  0
 12 13  2  0  0  0
 13 14  1  0  0  0
 14 15  2  0  0  0
 15 16  1  0  0  0
 15 17  1  0  0  0
 17 18  2  0  0  0
 18 12  1  0  0  0
 18  7  1  0  0  0
M  END
> <minimizedAffinity>
-7.93127

> <CNNscore>
0.2480683774

> <CNNaffinity>
6.0179300308

> <CNN_VS>
1.4928581715

> <CNNaffinity_variance>
0.1390565783

$$$$



 34 39  0  0  0  0  0  0  0  0999 V2000
   -7.1542   -1.6390  -25.9087 C   0  0  0  0  0  0  0  0  0  0  0  0
   -6.9511   -0.1638  -25.5531 C   0  0  0  0  0  0  0  0  0  0  0  0
   -8.2913    0.4751  -25.5729 C   0  0  0  0  0  0  0  0  0  0  0  0
   -8.8603    0.1186  -24.2874 N   0  0  0  0  0  0  0  0  0  0  0  0
   -7.7508    0.1429  -23.3955 C   0  0  0  0  0  0  0  0  0  0  0  0
   -7.7958    0.3426  -22.1324 O   0  0  0  0  0  0  0  0  0  0  0  0
   -6.4985   -0.1021  -24.1521 C   0  0  0  0  0  0  0  0  0  0  0  0
   -5.8581   -1.4208  -23.6996 C   0  0  0  0  0  0  0  0  0  0  0  0
   -5.5342   -1.3113  -22.2764 N   0  0  0  0  0  0  0  0  0  0  0  0
   -4.5883   -0.2767  -21.9497 C   0  0  0  0  0  0  0  0  0  0  0  0
   -3.8242   -0.4201  -20.9701 O   0  0  0  0  0  0  0  0  0  0  0  0
   -4.6003    0.8957  -22.8186 C   0  0  0  0  0  0  0  0  0  0  0  0
   -3.6876    1.8831  -22.5507 C   0  0  0  0  0  0  0  0  0  0  0  0
   -3.6094    3.0066  -23.3354 C   0  0  0  0  0  0  0  0  0  0  0  0
   -4.4781    3.1053  -24.3979 C   0  0  0  0  0  0  0  0  0  0  0  0
   -4.4092    4.2066  -25.1770 F   0  0  0  0  0  0  0  0  0  0  0  0
   -5.3990    2.1049  -24.6644 C   0  0  0  0  0  0  0  0  0  0  0  0
   -5.4968    0.9634  -23.8867 C   0  0  0  0  0  0  0  0  0  0  0  0
  -10.2060   -0.1884  -23.9441 C   0  0  0  0  0  0  0  0  0  0  0  0
  -10.6638   -1.4727  -23.7370 C   0  0  0  0  0  0  0  0  0  0  0  0
  -11.9598   -1.6685  -23.4145 N   0  0  0  0  0  0  0  0  0  0  0  0
  -12.8481   -0.6491  -23.2821 C   0  0  0  0  0  0  0  0  0  0  0  0
  -12.4401    0.6367  -23.4775 C   0  0  0  0  0  0  0  0  0  0  0  0
  -13.3363    1.6619  -23.3436 C   0  0  0  0  0  0  0  0  0  0  0  0
  -12.9453    2.9791  -23.5374 C   0  0  0  0  0  0  0  0  0  0  0  0
  -11.6255    3.2098  -23.8683 C   0  0  0  0  0  0  0  0  0  0  0  0
  -10.7420    2.1750  -23.9984 C   0  0  0  0  0  0  0  0  0  0  0  0
  -11.1134    0.8547  -23.8090 C   0  0  0  0  0  0  0  0  0  0  0  0
   -6.0995   -2.1645  -21.2814 C   0  0  0  0  0  0  0  0  0  0  0  0
   -6.1200   -1.5214  -19.9263 C   0  0  0  0  0  0  0  0  0  0  0  0
   -5.4594   -1.9087  -18.7838 C   0  0  0  0  0  0  0  0  0  0  0  0
   -5.7361   -1.0830  -17.8000 O   0  0  0  0  0  0  0  0  0  0  0  0
   -6.5615   -0.1720  -18.2864 C   0  0  0  0  0  0  0  0  0  0  0  0
   -6.8124   -0.4176  -19.5856 N   0  0  0  0  0  0  0  0  0  0  0  0
  2  1  1  0  0  0
  2  3  1  0  0  0
  3  4  1  0  0  0
  4 19  1  0  0  0
  4  5  1  0  0  0
 19 20  2  0  0  0
 20 21  1  0  0  0
 21 22  2  0  0  0
 22 23  1  0  0  0
 23 24  2  0  0  0
 24 25  1  0  0  0
 25 26  2  0  0  0
 26 27  1  0  0  0
 27 28  2  0  0  0
 28 19  1  0  0  0
 28 23  1  0  0  0
  5  6  2  0  0  0
  7  5  1  0  0  0
  7  8  1  0  0  0
  7  2  1  0  0  0
  8  9  1  0  0  0
  9 29  1  0  0  0
  9 10  1  0  0  0
 29 30  1  0  0  0
 30 31  2  0  0  0
 31 32  1  0  0  0
 32 33  1  0  0  0
 33 34  2  0  0  0
 34 30  1  0  0  0
 10 11  2  0  0  0
 10 12  1  0  0  0
 12 13  2  0  0  0
 13 14  1  0  0  0
 14 15  2  0  0  0
 15 16  1  0  0  0
 15 17  1  0  0  0
 17 18  2  0  0  0
 18 12  1  0  0  0
 18  7  1  0  0  0
M  END
> <minimizedAffinity>
-7.49103

> <CNNscore>
0.1815865636

> <CNNaffinity>
5.6398382187

> <CNN_VS>
1.0241189003

> <CNNaffinity_variance>
0.2582519650

$$$$



 34 39  0  0  0  0  0  0  0  0999 V2000
   -7.2144   -0.7537  -22.9041 C   0  0  0  0  0  0  0  0  0  0  0  0
   -7.7165   -2.1896  -22.7302 C   0  0  0  0  0  0  0  0  0  0  0  0
   -9.0717   -2.1049  -22.1294 C   0  0  0  0  0  0  0  0  0  0  0  0
   -9.9309   -1.8131  -23.2607 N   0  0  0  0  0  0  0  0  0  0  0  0
   -9.3546   -2.5475  -24.3356 C   0  0  0  0  0  0  0  0  0  0  0  0
   -9.9634   -2.9725  -25.3778 O   0  0  0  0  0  0  0  0  0  0  0  0
   -7.9096   -2.7593  -24.0754 C   0  0  0  0  0  0  0  0  0  0  0  0
   -7.0706   -2.0284  -25.1316 C   0  0  0  0  0  0  0  0  0  0  0  0
   -7.3983   -2.5837  -26.4456 N   0  0  0  0  0  0  0  0  0  0  0  0
   -7.1023   -3.9837  -26.6011 C   0  0  0  0  0  0  0  0  0  0  0  0
   -6.7917   -4.4319  -27.7265 O   0  0  0  0  0  0  0  0  0  0  0  0
   -7.1933   -4.7929  -25.3900 C   0  0  0  0  0  0  0  0  0  0  0  0
   -6.8850   -6.1241  -25.5018 C   0  0  0  0  0  0  0  0  0  0  0  0
   -6.9153   -6.9521  -24.4074 C   0  0  0  0  0  0  0  0  0  0  0  0
   -7.2653   -6.3985  -23.1973 C   0  0  0  0  0  0  0  0  0  0  0  0
   -7.2977   -7.2042  -22.1136 F   0  0  0  0  0  0  0  0  0  0  0  0
   -7.5764   -5.0526  -23.0894 C   0  0  0  0  0  0  0  0  0  0  0  0
   -7.5534   -4.1985  -24.1792 C   0  0  0  0  0  0  0  0  0  0  0  0
  -11.0921   -0.9947  -23.3313 C   0  0  0  0  0  0  0  0  0  0  0  0
  -12.3720   -1.4728  -23.1431 C   0  0  0  0  0  0  0  0  0  0  0  0
  -13.4152   -0.6208  -23.2294 N   0  0  0  0  0  0  0  0  0  0  0  0
  -13.2652    0.7028  -23.4963 C   0  0  0  0  0  0  0  0  0  0  0  0
  -12.0187    1.2195  -23.6894 C   0  0  0  0  0  0  0  0  0  0  0  0
  -11.8698    2.5529  -23.9581 C   0  0  0  0  0  0  0  0  0  0  0  0
  -10.6116    3.1025  -24.1585 C   0  0  0  0  0  0  0  0  0  0  0  0
   -9.5256    2.2549  -24.0763 C   0  0  0  0  0  0  0  0  0  0  0  0
   -9.6905    0.9250  -23.8071 C   0  0  0  0  0  0  0  0  0  0  0  0
  -10.9375    0.3586  -23.6043 C   0  0  0  0  0  0  0  0  0  0  0  0
   -7.9602   -1.8050  -27.5018 C   0  0  0  0  0  0  0  0  0  0  0  0
   -7.4014   -0.4134  -27.5411 C   0  0  0  0  0  0  0  0  0  0  0  0
   -6.1860    0.0087  -28.0274 C   0  0  0  0  0  0  0  0  0  0  0  0
   -6.0676    1.3089  -27.8809 O   0  0  0  0  0  0  0  0  0  0  0  0
   -7.1824    1.7322  -27.3101 C   0  0  0  0  0  0  0  0  0  0  0  0
   -8.0152    0.6979  -27.0916 N   0  0  0  0  0  0  0  0  0  0  0  0
  2  1  1  0  0  0
  2  3  1  0  0  0
  3  4  1  0  0  0
  4 19  1  0  0  0
  4  5  1  0  0  0
 19 20  2  0  0  0
 20 21  1  0  0  0
 21 22  2  0  0  0
 22 23  1  0  0  0
 23 24  2  0  0  0
 24 25  1  0  0  0
 25 26  2  0  0  0
 26 27  1  0  0  0
 27 28  2  0  0  0
 28 19  1  0  0  0
 28 23  1  0  0  0
  5  6  2  0  0  0
  7  5  1  0  0  0
  7  8  1  0  0  0
  7  2  1  0  0  0
  8  9  1  0  0  0
  9 29  1  0  0  0
  9 10  1  0  0  0
 29 30  1  0  0  0
 30 31  2  0  0  0
 31 32  1  0  0  0
 32 33  1  0  0  0
 33 34  2  0  0  0
 34 30  1  0  0  0
 10 11  2  0  0  0
 10 12  1  0  0  0
 12 13  2  0  0  0
 13 14  1  0  0  0
 14 15  2  0  0  0
 15 16  1  0  0  0
 15 17  1  0  0  0
 17 18  2  0  0  0
 18 12  1  0  0  0
 18  7  1  0  0  0
M  END
> <minimizedAffinity>
-7.66540

> <CNNscore>
0.1649585515

> <CNNaffinity>
5.5051507950

> <CNN_VS>
0.9081217051

> <CNNaffinity_variance>
0.8132665753

$$$$



 24 27  0  0  0  0  0  0  0  0999 V2000
   -7.1773   -4.2623  -23.4256 C   0  0  0  0  0  0  0  0  0  0  0  0
   -7.4688   -4.2282  -24.9120 C   0  0  0  0  0  0  0  0  0  0  0  0
   -6.6131   -4.4082  -25.9282 C   0  0  0  0  0  0  0  0  0  0  0  0
   -7.1003   -4.3344  -27.1998 C   0  0  0  0  0  0  0  0  0  0  0  0
   -8.9178   -3.9827  -27.0219 S   0  0  0  0  0  0  0  0  0  0  0  0
   -8.7904   -3.9795  -25.2284 C   0  0  0  0  0  0  0  0  0  0  0  0
   -9.8547   -3.7613  -24.2229 C   0  0  0  0  0  0  0  0  0  0  0  0
   -9.2980   -2.8719  -23.1396 C   0  0  0  0  0  0  0  0  0  0  0  0
   -7.9323   -3.1962  -22.8174 N   0  0  0  0  0  0  0  0  0  0  0  0
   -7.3042   -2.3811  -21.8123 C   0  0  0  0  0  0  0  0  0  0  0  0
   -8.0262   -1.4538  -21.3120 O   0  0  0  0  0  0  0  0  0  0  0  0
   -6.2332   -6.2682  -22.2732 C   0  0  0  0  0  0  0  0  0  0  0  0
   -7.4632   -5.6252  -22.8578 C   0  0  0  0  0  0  0  0  0  0  0  0
   -5.9070   -2.6011  -21.3815 C   0  0  0  0  0  0  0  0  0  0  0  0
   -5.5726   -1.6601  -20.2788 C   0  0  0  0  0  0  0  0  0  0  0  0
   -6.0018   -1.8713  -18.9837 C   0  0  0  0  0  0  0  0  0  0  0  0
   -5.7139   -1.0384  -17.9754 N   0  0  0  0  0  0  0  0  0  0  0  0
   -4.9856    0.0587  -18.1669 C   0  0  0  0  0  0  0  0  0  0  0  0
   -4.5229    0.3267  -19.4536 C   0  0  0  0  0  0  0  0  0  0  0  0
   -3.7627    1.4704  -19.6568 C   0  0  0  0  0  0  0  0  0  0  0  0
   -3.3122    1.7269  -20.9205 C   0  0  0  0  0  0  0  0  0  0  0  0
   -3.6012    0.8724  -21.9831 C   0  0  0  0  0  0  0  0  0  0  0  0
   -4.3496   -0.2594  -21.7984 C   0  0  0  0  0  0  0  0  0  0  0  0
   -4.8119   -0.5276  -20.5149 C   0  0  0  0  0  0  0  0  0  0  0  0
 12 13  1  0  0  0
  1 13  1  0  0  0
  1  2  1  0  0  0
  2  3  1  0  0  0
  3  4  2  0  0  0
  4  5  1  0  0  0
  5  6  1  0  0  0
  6  7  1  0  0  0
  6  2  2  0  0  0
  7  8  1  0  0  0
  8  9  1  0  0  0
  9 10  1  0  0  0
  9  1  1  0  0  0
 10 11  2  0  0  0
 10 14  1  0  0  0
 14 15  1  0  0  0
 15 16  2  0  0  0
 16 17  1  0  0  0
 17 18  2  0  0  0
 18 19  1  0  0  0
 19 20  2  0  0  0
 20 21  1  0  0  0
 21 22  2  0  0  0
 22 23  1  0  0  0
 23 24  2  0  0  0
 24 15  1  0  0  0
 24 19  1  0  0  0
M  END
> <minimizedAffinity>
-7.39675

> <CNNscore>
0.4494538307

> <CNNaffinity>
5.3798933029

> <CNN_VS>
2.4180135727

> <CNNaffinity_variance>
0.2619653940

$$$$



 24 27  0  0  0  0  0  0  0  0999 V2000
   -7.2985   -3.2566  -24.4235 C   0  0  0  0  0  0  0  0  0  0  0  0
   -8.2360   -4.3180  -24.9624 C   0  0  0  0  0  0  0  0  0  0  0  0
   -9.5005   -4.1703  -25.3823 C   0  0  0  0  0  0  0  0  0  0  0  0
  -10.1617   -5.2748  -25.8327 C   0  0  0  0  0  0  0  0  0  0  0  0
   -8.9541   -6.6807  -25.6787 S   0  0  0  0  0  0  0  0  0  0  0  0
   -7.6907   -5.5862  -25.0166 C   0  0  0  0  0  0  0  0  0  0  0  0
   -6.3103   -5.9118  -24.5923 C   0  0  0  0  0  0  0  0  0  0  0  0
   -6.0291   -5.1698  -23.3097 C   0  0  0  0  0  0  0  0  0  0  0  0
   -6.5827   -3.8403  -23.3176 N   0  0  0  0  0  0  0  0  0  0  0  0
   -6.3900   -3.0631  -22.1226 C   0  0  0  0  0  0  0  0  0  0  0  0
   -5.7477   -3.6367  -21.1792 O   0  0  0  0  0  0  0  0  0  0  0  0
   -6.9578   -1.4457  -26.1110 C   0  0  0  0  0  0  0  0  0  0  0  0
   -6.4169   -2.7196  -25.5172 C   0  0  0  0  0  0  0  0  0  0  0  0
   -6.9030   -1.6827  -21.9909 C   0  0  0  0  0  0  0  0  0  0  0  0
   -6.3848   -1.0772  -20.7347 C   0  0  0  0  0  0  0  0  0  0  0  0
   -7.0047   -1.2783  -19.5176 C   0  0  0  0  0  0  0  0  0  0  0  0
   -6.5573   -0.7435  -18.3744 N   0  0  0  0  0  0  0  0  0  0  0  0
   -5.4715    0.0252  -18.3453 C   0  0  0  0  0  0  0  0  0  0  0  0
   -4.8012    0.2654  -19.5430 C   0  0  0  0  0  0  0  0  0  0  0  0
   -3.6680    1.0668  -19.5162 C   0  0  0  0  0  0  0  0  0  0  0  0
   -3.0159    1.2979  -20.6939 C   0  0  0  0  0  0  0  0  0  0  0  0
   -3.4658    0.7504  -21.8941 C   0  0  0  0  0  0  0  0  0  0  0  0
   -4.5818   -0.0420  -21.9366 C   0  0  0  0  0  0  0  0  0  0  0  0
   -5.2514   -0.2821  -20.7420 C   0  0  0  0  0  0  0  0  0  0  0  0
 12 13  1  0  0  0
  1 13  1  0  0  0
  1  2  1  0  0  0
  2  3  1  0  0  0
  3  4  2  0  0  0
  4  5  1  0  0  0
  5  6  1  0  0  0
  6  7  1  0  0  0
  6  2  2  0  0  0
  7  8  1  0  0  0
  8  9  1  0  0  0
  9 10  1  0  0  0
  9  1  1  0  0  0
 10 11  2  0  0  0
 10 14  1  0  0  0
 14 15  1  0  0  0
 15 16  2  0  0  0
 16 17  1  0  0  0
 17 18  2  0  0  0
 18 19  1  0  0  0
 19 20  2  0  0  0
 20 21  1  0  0  0
 21 22  2  0  0  0
 22 23  1  0  0  0
 23 24  2  0  0  0
 24 15  1  0  0  0
 24 19  1  0  0  0
M  END
> <minimizedAffinity>
-6.75446

> <CNNscore>
0.4342097938

> <CNNaffinity>
5.3603043556

> <CNN_VS>
2.3274967670

> <CNNaffinity_variance>
0.1161739603

$$$$



 24 27  0  0  0  0  0  0  0  0999 V2000
   -7.9094   -5.8237  -25.4127 C   0  0  0  0  0  0  0  0  0  0  0  0
   -7.0702   -6.2565  -24.2277 C   0  0  0  0  0  0  0  0  0  0  0  0
   -7.3174   -6.0660  -22.9240 C   0  0  0  0  0  0  0  0  0  0  0  0
   -6.4152   -6.5468  -22.0214 C   0  0  0  0  0  0  0  0  0  0  0  0
   -5.0750   -7.3501  -23.0299 S   0  0  0  0  0  0  0  0  0  0  0  0
   -5.9123   -6.9304  -24.5647 C   0  0  0  0  0  0  0  0  0  0  0  0
   -5.4995   -7.2208  -25.9564 C   0  0  0  0  0  0  0  0  0  0  0  0
   -5.7667   -5.9917  -26.7885 C   0  0  0  0  0  0  0  0  0  0  0  0
   -7.0033   -5.3480  -26.4271 N   0  0  0  0  0  0  0  0  0  0  0  0
   -7.3309   -4.1474  -27.1484 C   0  0  0  0  0  0  0  0  0  0  0  0
   -6.4877   -3.7788  -28.0342 O   0  0  0  0  0  0  0  0  0  0  0  0
  -10.1434   -6.4339  -26.3507 C   0  0  0  0  0  0  0  0  0  0  0  0
   -8.8115   -6.9397  -25.8626 C   0  0  0  0  0  0  0  0  0  0  0  0
   -8.5687   -3.3836  -26.8832 C   0  0  0  0  0  0  0  0  0  0  0  0
   -8.3690   -2.5094  -25.6961 C   0  0  0  0  0  0  0  0  0  0  0  0
   -7.2712   -1.6809  -25.5762 C   0  0  0  0  0  0  0  0  0  0  0  0
   -7.0699   -0.8862  -24.5174 N   0  0  0  0  0  0  0  0  0  0  0  0
   -7.9306   -0.8486  -23.5033 C   0  0  0  0  0  0  0  0  0  0  0  0
   -9.0595   -1.6630  -23.5661 C   0  0  0  0  0  0  0  0  0  0  0  0
   -9.9597   -1.6261  -22.5098 C   0  0  0  0  0  0  0  0  0  0  0  0
  -11.0642   -2.4268  -22.5781 C   0  0  0  0  0  0  0  0  0  0  0  0
  -11.2915   -3.2609  -23.6714 C   0  0  0  0  0  0  0  0  0  0  0  0
  -10.4130   -3.3083  -24.7207 C   0  0  0  0  0  0  0  0  0  0  0  0
   -9.2861   -2.4962  -24.6589 C   0  0  0  0  0  0  0  0  0  0  0  0
 12 13  1  0  0  0
  1 13  1  0  0  0
  1  2  1  0  0  0
  2  3  1  0  0  0
  3  4  2  0  0  0
  4  5  1  0  0  0
  5  6  1  0  0  0
  6  7  1  0  0  0
  6  2  2  0  0  0
  7  8  1  0  0  0
  8  9  1  0  0  0
  9 10  1  0  0  0
  9  1  1  0  0  0
 10 11  2  0  0  0
 10 14  1  0  0  0
 14 15  1  0  0  0
 15 16  2  0  0  0
 16 17  1  0  0  0
 17 18  2  0  0  0
 18 19  1  0  0  0
 19 20  2  0  0  0
 20 21  1  0  0  0
 21 22  2  0  0  0
 22 23  1  0  0  0
 23 24  2  0  0  0
 24 15  1  0  0  0
 24 19  1  0  0  0
M  END
> <minimizedAffinity>
-5.81696

> <CNNscore>
0.3979372680

> <CNNaffinity>
5.3758563995

> <CNN_VS>
2.1392536163

> <CNNaffinity_variance>
0.1351039410

$$$$



 24 27  0  0  0  0  0  0  0  0999 V2000
   -6.5652   -1.4066  -24.2125 C   0  0  0  0  0  0  0  0  0  0  0  0
   -5.8993   -0.4891  -25.2177 C   0  0  0  0  0  0  0  0  0  0  0  0
   -4.5986   -0.4099  -25.5323 C   0  0  0  0  0  0  0  0  0  0  0  0
   -4.2195    0.4976  -26.4770 C   0  0  0  0  0  0  0  0  0  0  0  0
   -5.7839    1.3492  -27.0117 S   0  0  0  0  0  0  0  0  0  0  0  0
   -6.7671    0.3596  -25.8774 C   0  0  0  0  0  0  0  0  0  0  0  0
   -8.2286    0.3929  -25.6442 C   0  0  0  0  0  0  0  0  0  0  0  0
   -8.4664    0.2948  -24.1581 C   0  0  0  0  0  0  0  0  0  0  0  0
   -7.5648   -0.6312  -23.5227 N   0  0  0  0  0  0  0  0  0  0  0  0
   -7.6964   -0.7715  -22.0972 C   0  0  0  0  0  0  0  0  0  0  0  0
   -8.6005   -0.0576  -21.5454 O   0  0  0  0  0  0  0  0  0  0  0  0
   -6.4035   -3.8917  -24.4157 C   0  0  0  0  0  0  0  0  0  0  0  0
   -7.0965   -2.6408  -24.8879 C   0  0  0  0  0  0  0  0  0  0  0  0
   -6.8384   -1.6866  -21.3145 C   0  0  0  0  0  0  0  0  0  0  0  0
   -6.1945   -0.9360  -20.2032 C   0  0  0  0  0  0  0  0  0  0  0  0
   -6.6829   -0.9810  -18.9127 C   0  0  0  0  0  0  0  0  0  0  0  0
   -6.1208   -0.3136  -17.8968 N   0  0  0  0  0  0  0  0  0  0  0  0
   -5.0414    0.4436  -18.0757 C   0  0  0  0  0  0  0  0  0  0  0  0
   -4.5010    0.5293  -19.3572 C   0  0  0  0  0  0  0  0  0  0  0  0
   -3.3747    1.3184  -19.5474 C   0  0  0  0  0  0  0  0  0  0  0  0
   -2.8503    1.3977  -20.8060 C   0  0  0  0  0  0  0  0  0  0  0  0
   -3.4208    0.7108  -21.8764 C   0  0  0  0  0  0  0  0  0  0  0  0
   -4.5315   -0.0713  -21.7046 C   0  0  0  0  0  0  0  0  0  0  0  0
   -5.0715   -0.1574  -20.4263 C   0  0  0  0  0  0  0  0  0  0  0  0
 12 13  1  0  0  0
  1 13  1  0  0  0
  1  2  1  0  0  0
  2  3  1  0  0  0
  3  4  2  0  0  0
  4  5  1  0  0  0
  5  6  1  0  0  0
  6  7  1  0  0  0
  6  2  2  0  0  0
  7  8  1  0  0  0
  8  9  1  0  0  0
  9 10  1  0  0  0
  9  1  1  0  0  0
 10 11  2  0  0  0
 10 14  1  0  0  0
 14 15  1  0  0  0
 15 16  2  0  0  0
 16 17  1  0  0  0
 17 18  2  0  0  0
 18 19  1  0  0  0
 19 20  2  0  0  0
 20 21  1  0  0  0
 21 22  2  0  0  0
 22 23  1  0  0  0
 23 24  2  0  0  0
 24 15  1  0  0  0
 24 19  1  0  0  0
M  END
> <minimizedAffinity>
-5.90571

> <CNNscore>
0.3773102760

> <CNNaffinity>
5.1849808693

> <CNN_VS>
1.9563465118

> <CNNaffinity_variance>
0.0343491845

$$$$



 24 27  0  0  0  0  0  0  0  0999 V2000
  -10.1296    4.4915  -23.9056 C   0  0  0  0  0  0  0  0  0  0  0  0
  -11.4975    5.1076  -24.1182 C   0  0  0  0  0  0  0  0  0  0  0  0
  -12.5235    5.1636  -23.2572 C   0  0  0  0  0  0  0  0  0  0  0  0
  -13.6728    5.7738  -23.6652 C   0  0  0  0  0  0  0  0  0  0  0  0
  -13.3490    6.3422  -25.4061 S   0  0  0  0  0  0  0  0  0  0  0  0
  -11.6797    5.6756  -25.3642 C   0  0  0  0  0  0  0  0  0  0  0  0
  -10.6450    5.6971  -26.4227 C   0  0  0  0  0  0  0  0  0  0  0  0
   -9.9759    4.3457  -26.4487 C   0  0  0  0  0  0  0  0  0  0  0  0
   -9.7718    3.8140  -25.1260 N   0  0  0  0  0  0  0  0  0  0  0  0
   -9.1640    2.5125  -25.0496 C   0  0  0  0  0  0  0  0  0  0  0  0
   -8.8702    1.9654  -26.1657 O   0  0  0  0  0  0  0  0  0  0  0  0
   -7.7248    5.0164  -23.4765 C   0  0  0  0  0  0  0  0  0  0  0  0
   -9.1393    5.5330  -23.4626 C   0  0  0  0  0  0  0  0  0  0  0  0
   -8.8938    1.8454  -23.7581 C   0  0  0  0  0  0  0  0  0  0  0  0
   -9.4208    0.4547  -23.7968 C   0  0  0  0  0  0  0  0  0  0  0  0
   -8.5922   -0.6352  -23.9741 C   0  0  0  0  0  0  0  0  0  0  0  0
   -9.0435   -1.8954  -24.0129 N   0  0  0  0  0  0  0  0  0  0  0  0
  -10.3379   -2.1742  -23.8808 C   0  0  0  0  0  0  0  0  0  0  0  0
  -11.2252   -1.1153  -23.6989 C   0  0  0  0  0  0  0  0  0  0  0  0
  -12.5763   -1.4026  -23.5605 C   0  0  0  0  0  0  0  0  0  0  0  0
  -13.4405   -0.3599  -23.3824 C   0  0  0  0  0  0  0  0  0  0  0  0
  -12.9903    0.9586  -23.3392 C   0  0  0  0  0  0  0  0  0  0  0  0
  -11.6609    1.2578  -23.4740 C   0  0  0  0  0  0  0  0  0  0  0  0
  -10.7748    0.2019  -23.6557 C   0  0  0  0  0  0  0  0  0  0  0  0
 12 13  1  0  0  0
  1 13  1  0  0  0
  1  2  1  0  0  0
  2  3  1  0  0  0
  3  4  2  0  0  0
  4  5  1  0  0  0
  5  6  1  0  0  0
  6  7  1  0  0  0
  6  2  2  0  0  0
  7  8  1  0  0  0
  8  9  1  0  0  0
  9 10  1  0  0  0
  9  1  1  0  0  0
 10 11  2  0  0  0
 10 14  1  0  0  0
 14 15  1  0  0  0
 15 16  2  0  0  0
 16 17  1  0  0  0
 17 18  2  0  0  0
 18 19  1  0  0  0
 19 20  2  0  0  0
 20 21  1  0  0  0
 21 22  2  0  0  0
 22 23  1  0  0  0
 23 24  2  0  0  0
 24 15  1  0  0  0
 24 19  1  0  0  0
M  END
> <minimizedAffinity>
-5.87592

> <CNNscore>
0.3514927328

> <CNNaffinity>
5.1914405823

> <CNN_VS>
1.8247536421

> <CNNaffinity_variance>
0.1131124273

$$$$



 24 27  0  0  0  0  0  0  0  0999 V2000
   -8.3139   -1.1112  -24.0176 C   0  0  0  0  0  0  0  0  0  0  0  0
   -9.7170   -0.6275  -23.7125 C   0  0  0  0  0  0  0  0  0  0  0  0
  -10.1091    0.6030  -23.3532 C   0  0  0  0  0  0  0  0  0  0  0  0
  -11.4373    0.8144  -23.1272 C   0  0  0  0  0  0  0  0  0  0  0  0
  -12.2651   -0.8233  -23.4294 S   0  0  0  0  0  0  0  0  0  0  0  0
  -10.6927   -1.5986  -23.8286 C   0  0  0  0  0  0  0  0  0  0  0  0
  -10.4218   -3.0011  -24.2170 C   0  0  0  0  0  0  0  0  0  0  0  0
   -9.1787   -3.4540  -23.4930 C   0  0  0  0  0  0  0  0  0  0  0  0
   -8.1768   -2.4211  -23.4334 N   0  0  0  0  0  0  0  0  0  0  0  0
   -6.9631   -2.7508  -22.7353 C   0  0  0  0  0  0  0  0  0  0  0  0
   -6.9034   -3.9269  -22.2408 O   0  0  0  0  0  0  0  0  0  0  0  0
   -6.9317   -0.1050  -25.8398 C   0  0  0  0  0  0  0  0  0  0  0  0
   -8.0430   -1.0614  -25.4961 C   0  0  0  0  0  0  0  0  0  0  0  0
   -5.8493   -1.7883  -22.5969 C   0  0  0  0  0  0  0  0  0  0  0  0
   -5.8140   -1.2653  -21.2047 C   0  0  0  0  0  0  0  0  0  0  0  0
   -6.7012   -1.6982  -20.2396 C   0  0  0  0  0  0  0  0  0  0  0  0
   -6.6891   -1.2417  -18.9808 N   0  0  0  0  0  0  0  0  0  0  0  0
   -5.8066   -0.3295  -18.5810 C   0  0  0  0  0  0  0  0  0  0  0  0
   -4.8840    0.1469  -19.5102 C   0  0  0  0  0  0  0  0  0  0  0  0
   -3.9617    1.0985  -19.0965 C   0  0  0  0  0  0  0  0  0  0  0  0
   -3.0602    1.5611  -20.0124 C   0  0  0  0  0  0  0  0  0  0  0  0
   -3.0567    1.0985  -21.3273 C   0  0  0  0  0  0  0  0  0  0  0  0
   -3.9599    0.1601  -21.7503 C   0  0  0  0  0  0  0  0  0  0  0  0
   -4.8810   -0.3158  -20.8239 C   0  0  0  0  0  0  0  0  0  0  0  0
 12 13  1  0  0  0
  1 13  1  0  0  0
  1  2  1  0  0  0
  2  3  1  0  0  0
  3  4  2  0  0  0
  4  5  1  0  0  0
  5  6  1  0  0  0
  6  7  1  0  0  0
  6  2  2  0  0  0
  7  8  1  0  0  0
  8  9  1  0  0  0
  9 10  1  0  0  0
  9  1  1  0  0  0
 10 11  2  0  0  0
 10 14  1  0  0  0
 14 15  1  0  0  0
 15 16  2  0  0  0
 16 17  1  0  0  0
 17 18  2  0  0  0
 18 19  1  0  0  0
 19 20  2  0  0  0
 20 21  1  0  0  0
 21 22  2  0  0  0
 22 23  1  0  0  0
 23 24  2  0  0  0
 24 15  1  0  0  0
 24 19  1  0  0  0
M  END
> <minimizedAffinity>
-6.50728

> <CNNscore>
0.3391745985

> <CNNaffinity>
5.2617616653

> <CNN_VS>
1.7846559286

> <CNNaffinity_variance>
0.1667904109

$$$$



 24 27  0  0  0  0  0  0  0  0999 V2000
   -7.1445   -1.4702  -24.1247 C   0  0  0  0  0  0  0  0  0  0  0  0
   -7.1016   -2.9519  -23.8111 C   0  0  0  0  0  0  0  0  0  0  0  0
   -7.5880   -3.9670  -24.5391 C   0  0  0  0  0  0  0  0  0  0  0  0
   -7.4341   -5.2342  -24.0592 C   0  0  0  0  0  0  0  0  0  0  0  0
   -6.5327   -5.0531  -22.4426 S   0  0  0  0  0  0  0  0  0  0  0  0
   -6.4757   -3.2648  -22.6199 C   0  0  0  0  0  0  0  0  0  0  0  0
   -5.8865   -2.2599  -21.7063 C   0  0  0  0  0  0  0  0  0  0  0  0
   -6.8383   -1.0933  -21.6194 C   0  0  0  0  0  0  0  0  0  0  0  0
   -7.4339   -0.7808  -22.8929 N   0  0  0  0  0  0  0  0  0  0  0  0
   -8.3802    0.3024  -22.9048 C   0  0  0  0  0  0  0  0  0  0  0  0
   -8.5926    0.8725  -21.7817 O   0  0  0  0  0  0  0  0  0  0  0  0
   -6.0037   -0.9921  -26.2957 C   0  0  0  0  0  0  0  0  0  0  0  0
   -5.8725   -1.0307  -24.7959 C   0  0  0  0  0  0  0  0  0  0  0  0
   -9.0674    0.7329  -24.1411 C   0  0  0  0  0  0  0  0  0  0  0  0
  -10.5154    0.9298  -23.8625 C   0  0  0  0  0  0  0  0  0  0  0  0
  -11.1122    2.1720  -23.9447 C   0  0  0  0  0  0  0  0  0  0  0  0
  -12.4128    2.3736  -23.6980 N   0  0  0  0  0  0  0  0  0  0  0  0
  -13.2182    1.3718  -23.3538 C   0  0  0  0  0  0  0  0  0  0  0  0
  -12.6741    0.0929  -23.2541 C   0  0  0  0  0  0  0  0  0  0  0  0
  -13.5115   -0.9546  -22.8954 C   0  0  0  0  0  0  0  0  0  0  0  0
  -12.9716   -2.2056  -22.7996 C   0  0  0  0  0  0  0  0  0  0  0  0
  -11.6203   -2.4359  -23.0523 C   0  0  0  0  0  0  0  0  0  0  0  0
  -10.7818   -1.4130  -23.4071 C   0  0  0  0  0  0  0  0  0  0  0  0
  -11.3238   -0.1365  -23.5068 C   0  0  0  0  0  0  0  0  0  0  0  0
 12 13  1  0  0  0
  1 13  1  0  0  0
  1  2  1  0  0  0
  2  3  1  0  0  0
  3  4  2  0  0  0
  4  5  1  0  0  0
  5  6  1  0  0  0
  6  7  1  0  0  0
  6  2  2  0  0  0
  7  8  1  0  0  0
  8  9  1  0  0  0
  9 10  1  0  0  0
  9  1  1  0  0  0
 10 11  2  0  0  0
 10 14  1  0  0  0
 14 15  1  0  0  0
 15 16  2  0  0  0
 16 17  1  0  0  0
 17 18  2  0  0  0
 18 19  1  0  0  0
 19 20  2  0  0  0
 20 21  1  0  0  0
 21 22  2  0  0  0
 22 23  1  0  0  0
 23 24  2  0  0  0
 24 15  1  0  0  0
 24 19  1  0  0  0
M  END
> <minimizedAffinity>
-5.85295

> <CNNscore>
0.2752678096

> <CNNaffinity>
5.4048585892

> <CNN_VS>
1.4877835512

> <CNNaffinity_variance>
0.1364456564

$$$$



 24 27  0  0  0  0  0  0  0  0999 V2000
   -5.8896   -1.3955  -23.0480 C   0  0  0  0  0  0  0  0  0  0  0  0
   -5.9753   -1.5132  -21.5398 C   0  0  0  0  0  0  0  0  0  0  0  0
   -5.3739   -2.4083  -20.7434 C   0  0  0  0  0  0  0  0  0  0  0  0
   -5.5949   -2.3248  -19.4002 C   0  0  0  0  0  0  0  0  0  0  0  0
   -6.7424   -0.8797  -19.1688 S   0  0  0  0  0  0  0  0  0  0  0  0
   -6.7803   -0.5650  -20.9386 C   0  0  0  0  0  0  0  0  0  0  0  0
   -7.5098    0.4897  -21.6782 C   0  0  0  0  0  0  0  0  0  0  0  0
   -8.1042   -0.1344  -22.9159 C   0  0  0  0  0  0  0  0  0  0  0  0
   -7.2122   -1.0849  -23.5282 N   0  0  0  0  0  0  0  0  0  0  0  0
   -7.7040   -1.7552  -24.7021 C   0  0  0  0  0  0  0  0  0  0  0  0
   -8.8826   -1.4358  -25.0767 O   0  0  0  0  0  0  0  0  0  0  0  0
   -5.0882    0.1815  -24.8126 C   0  0  0  0  0  0  0  0  0  0  0  0
   -4.8367   -0.3980  -23.4455 C   0  0  0  0  0  0  0  0  0  0  0  0
   -6.8962   -2.7543  -25.4337 C   0  0  0  0  0  0  0  0  0  0  0  0
   -7.2968   -4.1233  -25.0116 C   0  0  0  0  0  0  0  0  0  0  0  0
   -6.8198   -4.6981  -23.8505 C   0  0  0  0  0  0  0  0  0  0  0  0
   -7.1656   -5.9285  -23.4507 N   0  0  0  0  0  0  0  0  0  0  0  0
   -8.0027   -6.6802  -24.1611 C   0  0  0  0  0  0  0  0  0  0  0  0
   -8.5185   -6.1549  -25.3442 C   0  0  0  0  0  0  0  0  0  0  0  0
   -9.3923   -6.9365  -26.0878 C   0  0  0  0  0  0  0  0  0  0  0  0
   -9.8942   -6.4153  -27.2462 C   0  0  0  0  0  0  0  0  0  0  0  0
   -9.5465   -5.1369  -27.6794 C   0  0  0  0  0  0  0  0  0  0  0  0
   -8.6860   -4.3541  -26.9569 C   0  0  0  0  0  0  0  0  0  0  0  0
   -8.1707   -4.8774  -25.7764 C   0  0  0  0  0  0  0  0  0  0  0  0
 12 13  1  0  0  0
  1 13  1  0  0  0
  1  2  1  0  0  0
  2  3  1  0  0  0
  3  4  2  0  0  0
  4  5  1  0  0  0
  5  6  1  0  0  0
  6  7  1  0  0  0
  6  2  2  0  0  0
  7  8  1  0  0  0
  8  9  1  0  0  0
  9 10  1  0  0  0
  9  1  1  0  0  0
 10 11  2  0  0  0
 10 14  1  0  0  0
 14 15  1  0  0  0
 15 16  2  0  0  0
 16 17  1  0  0  0
 17 18  2  0  0  0
 18 19  1  0  0  0
 19 20  2  0  0  0
 20 21  1  0  0  0
 21 22  2  0  0  0
 22 23  1  0  0  0
 23 24  2  0  0  0
 24 15  1  0  0  0
 24 19  1  0  0  0
M  END
> <minimizedAffinity>
-6.02023

> <CNNscore>
0.2676224113

> <CNNaffinity>
5.2865729332

> <CNN_VS>
1.4148054123

> <CNNaffinity_variance>
0.0911845714

$$$$



 24 27  0  0  0  0  0  0  0  0999 V2000
   -6.9743    0.0822  -23.6613 C   0  0  0  0  0  0  0  0  0  0  0  0
   -7.2269    1.5698  -23.7994 C   0  0  0  0  0  0  0  0  0  0  0  0
   -6.3454    2.5735  -23.6866 C   0  0  0  0  0  0  0  0  0  0  0  0
   -6.7986    3.8490  -23.8526 C   0  0  0  0  0  0  0  0  0  0  0  0
   -8.6188    3.6939  -24.2011 S   0  0  0  0  0  0  0  0  0  0  0  0
   -8.5386    1.9020  -24.0775 C   0  0  0  0  0  0  0  0  0  0  0  0
   -9.6275    0.9114  -24.2338 C   0  0  0  0  0  0  0  0  0  0  0  0
   -9.4667   -0.1326  -23.1572 C   0  0  0  0  0  0  0  0  0  0  0  0
   -8.0858   -0.4742  -22.9324 N   0  0  0  0  0  0  0  0  0  0  0  0
   -7.8293   -1.4437  -21.9011 C   0  0  0  0  0  0  0  0  0  0  0  0
   -8.8560   -1.8987  -21.2927 O   0  0  0  0  0  0  0  0  0  0  0  0
   -5.3040   -0.9526  -25.2049 C   0  0  0  0  0  0  0  0  0  0  0  0
   -6.7405   -0.5457  -25.0077 C   0  0  0  0  0  0  0  0  0  0  0  0
   -6.4605   -1.8892  -21.5634 C   0  0  0  0  0  0  0  0  0  0  0  0
   -5.9556   -1.1081  -20.4024 C   0  0  0  0  0  0  0  0  0  0  0  0
   -6.5192   -1.2196  -19.1470 C   0  0  0  0  0  0  0  0  0  0  0  0
   -6.0824   -0.5266  -18.0876 N   0  0  0  0  0  0  0  0  0  0  0  0
   -5.0631    0.3232  -18.1855 C   0  0  0  0  0  0  0  0  0  0  0  0
   -4.4520    0.4795  -19.4280 C   0  0  0  0  0  0  0  0  0  0  0  0
   -3.3883    1.3652  -19.5337 C   0  0  0  0  0  0  0  0  0  0  0  0
   -2.7938    1.5134  -20.7545 C   0  0  0  0  0  0  0  0  0  0  0  0
   -3.2338    0.8013  -21.8690 C   0  0  0  0  0  0  0  0  0  0  0  0
   -4.2816   -0.0759  -21.7805 C   0  0  0  0  0  0  0  0  0  0  0  0
   -4.8922   -0.2324  -20.5413 C   0  0  0  0  0  0  0  0  0  0  0  0
 12 13  1  0  0  0
  1 13  1  0  0  0
  1  2  1  0  0  0
  2  3  1  0  0  0
  3  4  2  0  0  0
  4  5  1  0  0  0
  5  6  1  0  0  0
  6  7  1  0  0  0
  6  2  2  0  0  0
  7  8  1  0  0  0
  8  9  1  0  0  0
  9 10  1  0  0  0
  9  1  1  0  0  0
 10 11  2  0  0  0
 10 14  1  0  0  0
 14 15  1  0  0  0
 15 16  2  0  0  0
 16 17  1  0  0  0
 17 18  2  0  0  0
 18 19  1  0  0  0
 19 20  2  0  0  0
 20 21  1  0  0  0
 21 22  2  0  0  0
 22 23  1  0  0  0
 23 24  2  0  0  0
 24 15  1  0  0  0
 24 19  1  0  0  0
M  END
> <minimizedAffinity>
-6.28918

> <CNNscore>
0.2527267337

> <CNNaffinity>
5.0895853043

> <CNN_VS>
1.2862743139

> <CNNaffinity_variance>
0.0608259365

$$$$



 35 40  0  0  0  0  0  0  0  0999 V2000
   -6.8352   -5.2851  -22.5990 N   0  0  0  0  0  0  0  0  0  0  0  0
   -7.6912   -4.1065  -22.6164 C   0  0  0  0  0  0  0  0  0  0  0  0
   -8.1203   -3.7063  -24.0028 C   0  0  0  0  0  0  0  0  0  0  0  0
   -6.9868   -2.9893  -24.6357 C   0  0  0  0  0  0  0  0  0  0  0  0
   -6.0503   -3.5866  -25.2189 O   0  0  0  0  0  0  0  0  0  0  0  0
   -7.1562   -1.5565  -24.4618 N   0  0  0  0  0  0  0  0  0  0  0  0
   -8.2099   -1.4377  -23.4958 C   0  0  0  0  0  0  0  0  0  0  0  0
   -9.1218   -2.6141  -23.8894 C   0  0  0  0  0  0  0  0  0  0  0  0
  -10.1946   -2.8746  -22.8815 C   0  0  0  0  0  0  0  0  0  0  0  0
   -8.5717   -4.8677  -24.7914 C   0  0  0  0  0  0  0  0  0  0  0  0
   -9.4252   -4.7376  -25.8828 C   0  0  0  0  0  0  0  0  0  0  0  0
   -9.8439   -5.8399  -26.6183 C   0  0  0  0  0  0  0  0  0  0  0  0
  -10.6752   -5.7054  -27.6798 F   0  0  0  0  0  0  0  0  0  0  0  0
   -9.4267   -7.1066  -26.2915 C   0  0  0  0  0  0  0  0  0  0  0  0
   -8.5910   -7.2578  -25.2269 C   0  0  0  0  0  0  0  0  0  0  0  0
   -8.1797   -6.1743  -24.5043 C   0  0  0  0  0  0  0  0  0  0  0  0
   -7.2878   -6.4005  -23.3802 C   0  0  0  0  0  0  0  0  0  0  0  0
   -6.8999   -7.5602  -23.0733 O   0  0  0  0  0  0  0  0  0  0  0  0
   -6.3893   -0.6488  -25.2174 C   0  0  0  0  0  0  0  0  0  0  0  0
   -6.8139   -0.3081  -26.5120 C   0  0  0  0  0  0  0  0  0  0  0  0
   -6.1271    0.5352  -27.2953 N   0  0  0  0  0  0  0  0  0  0  0  0
   -4.9816    1.1269  -26.9195 C   0  0  0  0  0  0  0  0  0  0  0  0
   -4.5223    0.8207  -25.6505 C   0  0  0  0  0  0  0  0  0  0  0  0
   -3.3404    1.4124  -25.2658 C   0  0  0  0  0  0  0  0  0  0  0  0
   -2.7918    1.1578  -24.0254 C   0  0  0  0  0  0  0  0  0  0  0  0
   -3.4904    0.2888  -23.2120 C   0  0  0  0  0  0  0  0  0  0  0  0
   -4.6727   -0.3028  -23.5967 C   0  0  0  0  0  0  0  0  0  0  0  0
   -5.2203   -0.0579  -24.8118 C   0  0  0  0  0  0  0  0  0  0  0  0
   -5.6002   -5.3502  -21.8465 C   0  0  0  0  0  0  0  0  0  0  0  0
   -5.4238   -0.8227  -19.7125 C   0  0  0  0  0  0  0  0  0  0  0  0
   -5.4126   -2.2895  -19.9173 C   0  0  0  0  0  0  0  0  0  0  0  0
   -5.5674   -2.9084  -21.1396 C   0  0  0  0  0  0  0  0  0  0  0  0
   -5.4898   -4.2714  -20.8516 C   0  0  0  0  0  0  0  0  0  0  0  0
   -5.3053   -4.4160  -19.5666 O   0  0  0  0  0  0  0  0  0  0  0  0
   -5.2566   -3.2606  -18.9953 N   0  0  0  0  0  0  0  0  0  0  0  0
 30 31  1  0  0  0
 31 32  1  0  0  0
 32 33  2  0  0  0
 33 29  1  0  0  0
 33 34  1  0  0  0
 29  1  1  0  0  0
  1  2  1  0  0  0
  3  2  1  0  0  0
  3  4  1  0  0  0
  3 10  1  0  0  0
  4  5  2  0  0  0
  4  6  1  0  0  0
  6 19  1  0  0  0
  6  7  1  0  0  0
 19 20  2  0  0  0
 20 21  1  0  0  0
 21 22  2  0  0  0
 22 23  1  0  0  0
 23 24  2  0  0  0
 24 25  1  0  0  0
 25 26  2  0  0  0
 26 27  1  0  0  0
 27 28  2  0  0  0
 28 19  1  0  0  0
 28 23  1  0  0  0
  7  8  1  0  0  0
  8  9  1  0  0  0
  8  3  1  0  0  0
 10 11  2  0  0  0
 11 12  1  0  0  0
 12 13  1  0  0  0
 12 14  2  0  0  0
 14 15  1  0  0  0
 15 16  2  0  0  0
 16 17  1  0  0  0
 16 10  1  0  0  0
 17 18  2  0  0  0
 17  1  1  0  0  0
 34 35  1  0  0  0
 35 31  2  0  0  0
M  END
> <minimizedAffinity>
-7.90751

> <CNNscore>
0.5216663480

> <CNNaffinity>
6.3729743958

> <CNN_VS>
3.3245663643

> <CNNaffinity_variance>
0.0987242311

$$$$



 35 40  0  0  0  0  0  0  0  0999 V2000
   -5.2582   -0.4627  -20.9308 N   0  0  0  0  0  0  0  0  0  0  0  0
   -5.6604   -0.9031  -22.2599 C   0  0  0  0  0  0  0  0  0  0  0  0
   -6.5605    0.0782  -22.9621 C   0  0  0  0  0  0  0  0  0  0  0  0
   -7.9262   -0.0872  -22.4081 C   0  0  0  0  0  0  0  0  0  0  0  0
   -8.3042    0.4877  -21.3591 O   0  0  0  0  0  0  0  0  0  0  0  0
   -8.6926   -0.9844  -23.2562 N   0  0  0  0  0  0  0  0  0  0  0  0
   -7.7163   -1.5691  -24.1293 C   0  0  0  0  0  0  0  0  0  0  0  0
   -6.7614   -0.3836  -24.3604 C   0  0  0  0  0  0  0  0  0  0  0  0
   -5.5005   -0.7855  -25.0555 C   0  0  0  0  0  0  0  0  0  0  0  0
   -6.0604    1.4603  -22.8426 C   0  0  0  0  0  0  0  0  0  0  0  0
   -6.4134    2.4582  -23.7459 C   0  0  0  0  0  0  0  0  0  0  0  0
   -5.9354    3.7574  -23.6229 C   0  0  0  0  0  0  0  0  0  0  0  0
   -6.2834    4.7239  -24.5065 F   0  0  0  0  0  0  0  0  0  0  0  0
   -5.0911    4.1050  -22.5973 C   0  0  0  0  0  0  0  0  0  0  0  0
   -4.7323    3.1443  -21.7012 C   0  0  0  0  0  0  0  0  0  0  0  0
   -5.2022    1.8676  -21.8225 C   0  0  0  0  0  0  0  0  0  0  0  0
   -4.7835    0.8882  -20.8347 C   0  0  0  0  0  0  0  0  0  0  0  0
   -4.0088    1.1988  -19.8899 O   0  0  0  0  0  0  0  0  0  0  0  0
  -10.0920   -1.0716  -23.1248 C   0  0  0  0  0  0  0  0  0  0  0  0
  -10.6682   -2.2978  -22.7550 C   0  0  0  0  0  0  0  0  0  0  0  0
  -11.9924   -2.4604  -22.6267 N   0  0  0  0  0  0  0  0  0  0  0  0
  -12.8821   -1.4768  -22.8372 C   0  0  0  0  0  0  0  0  0  0  0  0
  -12.3611   -0.2486  -23.2050 C   0  0  0  0  0  0  0  0  0  0  0  0
  -13.2696    0.7592  -23.4370 C   0  0  0  0  0  0  0  0  0  0  0  0
  -12.8500    2.0156  -23.8241 C   0  0  0  0  0  0  0  0  0  0  0  0
  -11.4881    2.1926  -23.9612 C   0  0  0  0  0  0  0  0  0  0  0  0
  -10.5795    1.1847  -23.7288 C   0  0  0  0  0  0  0  0  0  0  0  0
  -10.9814   -0.0518  -23.3468 C   0  0  0  0  0  0  0  0  0  0  0  0
   -5.3236   -1.3179  -19.7646 C   0  0  0  0  0  0  0  0  0  0  0  0
   -6.0742   -5.5678  -22.3060 C   0  0  0  0  0  0  0  0  0  0  0  0
   -5.7499   -4.6039  -21.2292 C   0  0  0  0  0  0  0  0  0  0  0  0
   -5.8025   -3.2330  -21.3665 C   0  0  0  0  0  0  0  0  0  0  0  0
   -5.4214   -2.7434  -20.1169 C   0  0  0  0  0  0  0  0  0  0  0  0
   -5.1717   -3.7563  -19.3308 O   0  0  0  0  0  0  0  0  0  0  0  0
   -5.3588   -4.8636  -19.9655 N   0  0  0  0  0  0  0  0  0  0  0  0
 30 31  1  0  0  0
 31 32  1  0  0  0
 32 33  2  0  0  0
 33 29  1  0  0  0
 33 34  1  0  0  0
 29  1  1  0  0  0
  1  2  1  0  0  0
  3  2  1  0  0  0
  3  4  1  0  0  0
  3 10  1  0  0  0
  4  5  2  0  0  0
  4  6  1  0  0  0
  6 19  1  0  0  0
  6  7  1  0  0  0
 19 20  2  0  0  0
 20 21  1  0  0  0
 21 22  2  0  0  0
 22 23  1  0  0  0
 23 24  2  0  0  0
 24 25  1  0  0  0
 25 26  2  0  0  0
 26 27  1  0  0  0
 27 28  2  0  0  0
 28 19  1  0  0  0
 28 23  1  0  0  0
  7  8  1  0  0  0
  8  9  1  0  0  0
  8  3  1  0  0  0
 10 11  2  0  0  0
 11 12  1  0  0  0
 12 13  1  0  0  0
 12 14  2  0  0  0
 14 15  1  0  0  0
 15 16  2  0  0  0
 16 17  1  0  0  0
 16 10  1  0  0  0
 17 18  2  0  0  0
 17  1  1  0  0  0
 34 35  1  0  0  0
 35 31  2  0  0  0
M  END
> <minimizedAffinity>
-9.26664

> <CNNscore>
0.4183139205

> <CNNaffinity>
6.0556988716

> <CNN_VS>
2.5331830978

> <CNNaffinity_variance>
0.3842139542

$$$$



 35 40  0  0  0  0  0  0  0  0999 V2000
   -6.8058   -3.9683  -22.9405 N   0  0  0  0  0  0  0  0  0  0  0  0
   -6.9226   -2.7738  -23.7662 C   0  0  0  0  0  0  0  0  0  0  0  0
   -7.3088   -1.5476  -22.9830 C   0  0  0  0  0  0  0  0  0  0  0  0
   -8.7693   -1.6138  -22.7341 C   0  0  0  0  0  0  0  0  0  0  0  0
   -9.2626   -2.2479  -21.7705 O   0  0  0  0  0  0  0  0  0  0  0  0
   -9.4741   -0.8547  -23.7532 N   0  0  0  0  0  0  0  0  0  0  0  0
   -8.4782   -0.5885  -24.7506 C   0  0  0  0  0  0  0  0  0  0  0  0
   -7.2256   -0.3679  -23.8831 C   0  0  0  0  0  0  0  0  0  0  0  0
   -5.9687   -0.3057  -24.6899 C   0  0  0  0  0  0  0  0  0  0  0  0
   -6.5239   -1.4232  -21.7409 C   0  0  0  0  0  0  0  0  0  0  0  0
   -6.3437   -0.2034  -21.0956 C   0  0  0  0  0  0  0  0  0  0  0  0
   -5.6015   -0.0987  -19.9253 C   0  0  0  0  0  0  0  0  0  0  0  0
   -5.4303    1.0924  -19.3026 F   0  0  0  0  0  0  0  0  0  0  0  0
   -5.0152   -1.2041  -19.3597 C   0  0  0  0  0  0  0  0  0  0  0  0
   -5.1785   -2.4084  -19.9742 C   0  0  0  0  0  0  0  0  0  0  0  0
   -5.9079   -2.5110  -21.1243 C   0  0  0  0  0  0  0  0  0  0  0  0
   -6.0459   -3.8233  -21.7318 C   0  0  0  0  0  0  0  0  0  0  0  0
   -5.5110   -4.8433  -21.2191 O   0  0  0  0  0  0  0  0  0  0  0  0
  -10.8284   -0.5100  -23.5797 C   0  0  0  0  0  0  0  0  0  0  0  0
  -11.7728   -1.5304  -23.3813 C   0  0  0  0  0  0  0  0  0  0  0  0
  -13.0802   -1.2797  -23.2257 N   0  0  0  0  0  0  0  0  0  0  0  0
  -13.6036   -0.0431  -23.2445 C   0  0  0  0  0  0  0  0  0  0  0  0
  -12.7108    0.9964  -23.4385 C   0  0  0  0  0  0  0  0  0  0  0  0
  -13.2439    2.2650  -23.4741 C   0  0  0  0  0  0  0  0  0  0  0  0
  -12.4378    3.3663  -23.6785 C   0  0  0  0  0  0  0  0  0  0  0  0
  -11.0900    3.1185  -23.8421 C   0  0  0  0  0  0  0  0  0  0  0  0
  -10.5568    1.8496  -23.8062 C   0  0  0  0  0  0  0  0  0  0  0  0
  -11.3397    0.7621  -23.6044 C   0  0  0  0  0  0  0  0  0  0  0  0
   -7.4096   -5.2345  -23.2977 C   0  0  0  0  0  0  0  0  0  0  0  0
   -9.7043   -5.6576  -27.7293 C   0  0  0  0  0  0  0  0  0  0  0  0
   -9.3925   -5.2886  -26.3292 C   0  0  0  0  0  0  0  0  0  0  0  0
   -8.2532   -5.6743  -25.6553 C   0  0  0  0  0  0  0  0  0  0  0  0
   -8.3879   -5.1035  -24.3893 C   0  0  0  0  0  0  0  0  0  0  0  0
   -9.5151   -4.4449  -24.3468 O   0  0  0  0  0  0  0  0  0  0  0  0
  -10.1245   -4.5402  -25.4798 N   0  0  0  0  0  0  0  0  0  0  0  0
 30 31  1  0  0  0
 31 32  1  0  0  0
 32 33  2  0  0  0
 33 29  1  0  0  0
 33 34  1  0  0  0
 29  1  1  0  0  0
  1  2  1  0  0  0
  3  2  1  0  0  0
  3  4  1  0  0  0
  3 10  1  0  0  0
  4  5  2  0  0  0
  4  6  1  0  0  0
  6 19  1  0  0  0
  6  7  1  0  0  0
 19 20  2  0  0  0
 20 21  1  0  0  0
 21 22  2  0  0  0
 22 23  1  0  0  0
 23 24  2  0  0  0
 24 25  1  0  0  0
 25 26  2  0  0  0
 26 27  1  0  0  0
 27 28  2  0  0  0
 28 19  1  0  0  0
 28 23  1  0  0  0
  7  8  1  0  0  0
  8  9  1  0  0  0
  8  3  1  0  0  0
 10 11  2  0  0  0
 11 12  1  0  0  0
 12 13  1  0  0  0
 12 14  2  0  0  0
 14 15  1  0  0  0
 15 16  2  0  0  0
 16 17  1  0  0  0
 16 10  1  0  0  0
 17 18  2  0  0  0
 17  1  1  0  0  0
 34 35  1  0  0  0
 35 31  2  0  0  0
M  END
> <minimizedAffinity>
-9.08417

> <CNNscore>
0.3326327801

> <CNNaffinity>
6.3161668777

> <CNN_VS>
2.1009640694

> <CNNaffinity_variance>
0.1455200762

$$$$



 35 40  0  0  0  0  0  0  0  0999 V2000
   -7.5216   -0.6725  -23.0005 N   0  0  0  0  0  0  0  0  0  0  0  0
   -6.8103    0.4421  -23.6120 C   0  0  0  0  0  0  0  0  0  0  0  0
   -5.4020    0.0961  -24.0160 C   0  0  0  0  0  0  0  0  0  0  0  0
   -4.5622    0.1281  -22.7941 C   0  0  0  0  0  0  0  0  0  0  0  0
   -4.4611   -0.8520  -22.0176 O   0  0  0  0  0  0  0  0  0  0  0  0
   -3.9214    1.4270  -22.6751 N   0  0  0  0  0  0  0  0  0  0  0  0
   -4.5939    2.2453  -23.6422 C   0  0  0  0  0  0  0  0  0  0  0  0
   -4.8371    1.2381  -24.7811 C   0  0  0  0  0  0  0  0  0  0  0  0
   -5.7485    1.7722  -25.8387 C   0  0  0  0  0  0  0  0  0  0  0  0
   -5.3378   -1.1991  -24.7180 C   0  0  0  0  0  0  0  0  0  0  0  0
   -4.2933   -1.5269  -25.5773 C   0  0  0  0  0  0  0  0  0  0  0  0
   -4.2439   -2.7510  -26.2335 C   0  0  0  0  0  0  0  0  0  0  0  0
   -3.2237   -3.0631  -27.0688 F   0  0  0  0  0  0  0  0  0  0  0  0
   -5.2318   -3.6879  -26.0555 C   0  0  0  0  0  0  0  0  0  0  0  0
   -6.2638   -3.3887  -25.2189 C   0  0  0  0  0  0  0  0  0  0  0  0
   -6.3121   -2.1856  -24.5742 C   0  0  0  0  0  0  0  0  0  0  0  0
   -7.4386   -1.9259  -23.6945 C   0  0  0  0  0  0  0  0  0  0  0  0
   -8.3498   -2.7806  -23.5253 O   0  0  0  0  0  0  0  0  0  0  0  0
   -2.8502    1.6166  -21.7808 C   0  0  0  0  0  0  0  0  0  0  0  0
   -3.1187    2.0755  -20.4809 C   0  0  0  0  0  0  0  0  0  0  0  0
   -2.1497    2.2948  -19.5814 N   0  0  0  0  0  0  0  0  0  0  0  0
   -0.8458    2.0985  -19.8360 C   0  0  0  0  0  0  0  0  0  0  0  0
   -0.5315    1.6470  -21.1059 C   0  0  0  0  0  0  0  0  0  0  0  0
    0.8048    1.4586  -21.3774 C   0  0  0  0  0  0  0  0  0  0  0  0
    1.2208    1.0259  -22.6200 C   0  0  0  0  0  0  0  0  0  0  0  0
    0.2305    0.7993  -23.5542 C   0  0  0  0  0  0  0  0  0  0  0  0
   -1.1061    0.9873  -23.2825 C   0  0  0  0  0  0  0  0  0  0  0  0
   -1.5247    1.4103  -22.0650 C   0  0  0  0  0  0  0  0  0  0  0  0
   -8.2731   -0.5467  -21.7697 C   0  0  0  0  0  0  0  0  0  0  0  0
   -5.0776    0.1639  -17.9794 C   0  0  0  0  0  0  0  0  0  0  0  0
   -6.0414   -0.4565  -18.9173 C   0  0  0  0  0  0  0  0  0  0  0  0
   -6.6148    0.1926  -19.9902 C   0  0  0  0  0  0  0  0  0  0  0  0
   -7.4403   -0.7673  -20.5766 C   0  0  0  0  0  0  0  0  0  0  0  0
   -7.3437   -1.8750  -19.8911 O   0  0  0  0  0  0  0  0  0  0  0  0
   -6.5242   -1.7151  -18.9078 N   0  0  0  0  0  0  0  0  0  0  0  0
 30 31  1  0  0  0
 31 32  1  0  0  0
 32 33  2  0  0  0
 33 29  1  0  0  0
 33 34  1  0  0  0
 29  1  1  0  0  0
  1  2  1  0  0  0
  3  2  1  0  0  0
  3  4  1  0  0  0
  3 10  1  0  0  0
  4  5  2  0  0  0
  4  6  1  0  0  0
  6 19  1  0  0  0
  6  7  1  0  0  0
 19 20  2  0  0  0
 20 21  1  0  0  0
 21 22  2  0  0  0
 22 23  1  0  0  0
 23 24  2  0  0  0
 24 25  1  0  0  0
 25 26  2  0  0  0
 26 27  1  0  0  0
 27 28  2  0  0  0
 28 19  1  0  0  0
 28 23  1  0  0  0
  7  8  1  0  0  0
  8  9  1  0  0  0
  8  3  1  0  0  0
 10 11  2  0  0  0
 11 12  1  0  0  0
 12 13  1  0  0  0
 12 14  2  0  0  0
 14 15  1  0  0  0
 15 16  2  0  0  0
 16 17  1  0  0  0
 16 10  1  0  0  0
 17 18  2  0  0  0
 17  1  1  0  0  0
 34 35  1  0  0  0
 35 31  2  0  0  0
M  END
> <minimizedAffinity>
-6.78129

> <CNNscore>
0.2962547541

> <CNNaffinity>
5.8721570969

> <CNN_VS>
1.7396544218

> <CNNaffinity_variance>
0.0477971956

$$$$



 35 40  0  0  0  0  0  0  0  0999 V2000
   -6.9856   -1.6877  -22.1873 N   0  0  0  0  0  0  0  0  0  0  0  0
   -6.7898   -0.8838  -23.3863 C   0  0  0  0  0  0  0  0  0  0  0  0
   -6.5587    0.5742  -23.0908 C   0  0  0  0  0  0  0  0  0  0  0  0
   -7.8764    1.1888  -22.7988 C   0  0  0  0  0  0  0  0  0  0  0  0
   -8.3998    1.1558  -21.6591 O   0  0  0  0  0  0  0  0  0  0  0  0
   -8.4112    1.7959  -24.0059 N   0  0  0  0  0  0  0  0  0  0  0  0
   -7.5699    1.2996  -25.0563 C   0  0  0  0  0  0  0  0  0  0  0  0
   -6.1979    1.2606  -24.3587 C   0  0  0  0  0  0  0  0  0  0  0  0
   -5.1614    0.5454  -25.1641 C   0  0  0  0  0  0  0  0  0  0  0  0
   -5.5870    0.7626  -21.9978 C   0  0  0  0  0  0  0  0  0  0  0  0
   -4.8636    1.9413  -21.8425 C   0  0  0  0  0  0  0  0  0  0  0  0
   -3.9503    2.1071  -20.8082 C   0  0  0  0  0  0  0  0  0  0  0  0
   -3.2495    3.2577  -20.6634 F   0  0  0  0  0  0  0  0  0  0  0  0
   -3.7278    1.1056  -19.8955 C   0  0  0  0  0  0  0  0  0  0  0  0
   -4.4247   -0.0568  -20.0281 C   0  0  0  0  0  0  0  0  0  0  0  0
   -5.3222   -0.2194  -21.0446 C   0  0  0  0  0  0  0  0  0  0  0  0
   -6.0348   -1.4822  -21.1322 C   0  0  0  0  0  0  0  0  0  0  0  0
   -5.8366   -2.4069  -20.2985 O   0  0  0  0  0  0  0  0  0  0  0  0
   -9.4928    2.6950  -23.9355 C   0  0  0  0  0  0  0  0  0  0  0  0
   -9.2388    4.0750  -23.9943 C   0  0  0  0  0  0  0  0  0  0  0  0
  -10.2153    4.9897  -23.9167 N   0  0  0  0  0  0  0  0  0  0  0  0
  -11.5135    4.6757  -23.7771 C   0  0  0  0  0  0  0  0  0  0  0  0
  -11.8133    3.3262  -23.7134 C   0  0  0  0  0  0  0  0  0  0  0  0
  -13.1410    2.9989  -23.5549 C   0  0  0  0  0  0  0  0  0  0  0  0
  -13.5395    1.6808  -23.4644 C   0  0  0  0  0  0  0  0  0  0  0  0
  -12.5410    0.7311  -23.5410 C   0  0  0  0  0  0  0  0  0  0  0  0
  -11.2131    1.0585  -23.6998 C   0  0  0  0  0  0  0  0  0  0  0  0
  -10.8120    2.3497  -23.7914 C   0  0  0  0  0  0  0  0  0  0  0  0
   -8.0651   -2.6420  -22.0469 C   0  0  0  0  0  0  0  0  0  0  0  0
   -9.7151   -4.5366  -26.3794 C   0  0  0  0  0  0  0  0  0  0  0  0
   -9.5350   -3.6638  -25.1964 C   0  0  0  0  0  0  0  0  0  0  0  0
   -8.6314   -3.9001  -24.1822 C   0  0  0  0  0  0  0  0  0  0  0  0
   -8.8126   -2.8346  -23.2998 C   0  0  0  0  0  0  0  0  0  0  0  0
   -9.7458   -2.0539  -23.7751 O   0  0  0  0  0  0  0  0  0  0  0  0
  -10.1864   -2.5233  -24.8929 N   0  0  0  0  0  0  0  0  0  0  0  0
 30 31  1  0  0  0
 31 32  1  0  0  0
 32 33  2  0  0  0
 33 29  1  0  0  0
 33 34  1  0  0  0
 29  1  1  0  0  0
  1  2  1  0  0  0
  3  2  1  0  0  0
  3  4  1  0  0  0
  3 10  1  0  0  0
  4  5  2  0  0  0
  4  6  1  0  0  0
  6 19  1  0  0  0
  6  7  1  0  0  0
 19 20  2  0  0  0
 20 21  1  0  0  0
 21 22  2  0  0  0
 22 23  1  0  0  0
 23 24  2  0  0  0
 24 25  1  0  0  0
 25 26  2  0  0  0
 26 27  1  0  0  0
 27 28  2  0  0  0
 28 19  1  0  0  0
 28 23  1  0  0  0
  7  8  1  0  0  0
  8  9  1  0  0  0
  8  3  1  0  0  0
 10 11  2  0  0  0
 11 12  1  0  0  0
 12 13  1  0  0  0
 12 14  2  0  0  0
 14 15  1  0  0  0
 15 16  2  0  0  0
 16 17  1  0  0  0
 16 10  1  0  0  0
 17 18  2  0  0  0
 17  1  1  0  0  0
 34 35  1  0  0  0
 35 31  2  0  0  0
M  END
> <minimizedAffinity>
-8.62609

> <CNNscore>
0.2012263685

> <CNNaffinity>
5.9310388565

> <CNN_VS>
1.1934814453

> <CNNaffinity_variance>
0.1797709167

$$$$



 35 40  0  0  0  0  0  0  0  0999 V2000
   -5.5060   -3.6143  -26.1116 N   0  0  0  0  0  0  0  0  0  0  0  0
   -6.1447   -3.6520  -24.8028 C   0  0  0  0  0  0  0  0  0  0  0  0
   -7.6481   -3.6235  -24.8762 C   0  0  0  0  0  0  0  0  0  0  0  0
   -8.0603   -2.2207  -25.1241 C   0  0  0  0  0  0  0  0  0  0  0  0
   -8.1063   -1.7232  -26.2749 O   0  0  0  0  0  0  0  0  0  0  0  0
   -8.3790   -1.5743  -23.8623 N   0  0  0  0  0  0  0  0  0  0  0  0
   -7.8864   -2.4795  -22.8647 C   0  0  0  0  0  0  0  0  0  0  0  0
   -8.1908   -3.8437  -23.5102 C   0  0  0  0  0  0  0  0  0  0  0  0
   -7.5555   -4.9824  -22.7793 C   0  0  0  0  0  0  0  0  0  0  0  0
   -8.1630   -4.5575  -25.8945 C   0  0  0  0  0  0  0  0  0  0  0  0
   -9.4594   -5.0617  -25.8516 C   0  0  0  0  0  0  0  0  0  0  0  0
   -9.9334   -5.9416  -26.8173 C   0  0  0  0  0  0  0  0  0  0  0  0
  -11.1969   -6.4284  -26.7689 F   0  0  0  0  0  0  0  0  0  0  0  0
   -9.1327   -6.3478  -27.8563 C   0  0  0  0  0  0  0  0  0  0  0  0
   -7.8601   -5.8670  -27.9183 C   0  0  0  0  0  0  0  0  0  0  0  0
   -7.3947   -5.0023  -26.9691 C   0  0  0  0  0  0  0  0  0  0  0  0
   -6.0282   -4.5243  -27.0907 C   0  0  0  0  0  0  0  0  0  0  0  0
   -5.2865   -4.8922  -28.0414 O   0  0  0  0  0  0  0  0  0  0  0  0
   -9.0763   -0.3510  -23.8415 C   0  0  0  0  0  0  0  0  0  0  0  0
   -8.3523    0.8494  -23.9262 C   0  0  0  0  0  0  0  0  0  0  0  0
   -8.9459    2.0507  -23.8958 N   0  0  0  0  0  0  0  0  0  0  0  0
  -10.2737    2.2170  -23.7830 C   0  0  0  0  0  0  0  0  0  0  0  0
  -11.0299    1.0614  -23.6952 C   0  0  0  0  0  0  0  0  0  0  0  0
  -12.3902    1.2262  -23.5638 C   0  0  0  0  0  0  0  0  0  0  0  0
  -13.2282    0.1354  -23.4526 C   0  0  0  0  0  0  0  0  0  0  0  0
  -12.6264   -1.1063  -23.4806 C   0  0  0  0  0  0  0  0  0  0  0  0
  -11.2658   -1.2711  -23.6123 C   0  0  0  0  0  0  0  0  0  0  0  0
  -10.4349   -0.2065  -23.7239 C   0  0  0  0  0  0  0  0  0  0  0  0
   -4.4100   -2.7230  -26.4274 C   0  0  0  0  0  0  0  0  0  0  0  0
   -4.5862    1.5033  -23.7459 C   0  0  0  0  0  0  0  0  0  0  0  0
   -4.7505    0.5132  -24.8352 C   0  0  0  0  0  0  0  0  0  0  0  0
   -4.3031   -0.7898  -24.7799 C   0  0  0  0  0  0  0  0  0  0  0  0
   -4.6732   -1.3369  -26.0089 C   0  0  0  0  0  0  0  0  0  0  0  0
   -5.2831   -0.4173  -26.7078 O   0  0  0  0  0  0  0  0  0  0  0  0
   -5.3402    0.6821  -26.0356 N   0  0  0  0  0  0  0  0  0  0  0  0
 30 31  1  0  0  0
 31 32  1  0  0  0
 32 33  2  0  0  0
 33 29  1  0  0  0
 33 34  1  0  0  0
 29  1  1  0  0  0
  1  2  1  0  0  0
  3  2  1  0  0  0
  3  4  1  0  0  0
  3 10  1  0  0  0
  4  5  2  0  0  0
  4  6  1  0  0  0
  6 19  1  0  0  0
  6  7  1  0  0  0
 19 20  2  0  0  0
 20 21  1  0  0  0
 21 22  2  0  0  0
 22 23  1  0  0  0
 23 24  2  0  0  0
 24 25  1  0  0  0
 25 26  2  0  0  0
 26 27  1  0  0  0
 27 28  2  0  0  0
 28 19  1  0  0  0
 28 23  1  0  0  0
  7  8  1  0  0  0
  8  9  1  0  0  0
  8  3  1  0  0  0
 10 11  2  0  0  0
 11 12  1  0  0  0
 12 13  1  0  0  0
 12 14  2  0  0  0
 14 15  1  0  0  0
 15 16  2  0  0  0
 16 17  1  0  0  0
 16 10  1  0  0  0
 17 18  2  0  0  0
 17  1  1  0  0  0
 34 35  1  0  0  0
 35 31  2  0  0  0
M  END
> <minimizedAffinity>
-7.18025

> <CNNscore>
0.1912014335

> <CNNaffinity>
5.9051032066

> <CNN_VS>
1.1290642023

> <CNNaffinity_variance>
0.1993878931

$$$$



 35 40  0  0  0  0  0  0  0  0999 V2000
   -5.8138   -3.4475  -26.6084 N   0  0  0  0  0  0  0  0  0  0  0  0
   -6.2202   -3.3988  -25.2103 C   0  0  0  0  0  0  0  0  0  0  0  0
   -7.7144   -3.3786  -25.0280 C   0  0  0  0  0  0  0  0  0  0  0  0
   -8.1819   -1.9965  -25.2937 C   0  0  0  0  0  0  0  0  0  0  0  0
   -8.4295   -1.5773  -26.4499 O   0  0  0  0  0  0  0  0  0  0  0  0
   -8.2902   -1.2676  -24.0412 N   0  0  0  0  0  0  0  0  0  0  0  0
   -7.6230   -2.1028  -23.0849 C   0  0  0  0  0  0  0  0  0  0  0  0
   -8.0141   -3.5079  -23.5781 C   0  0  0  0  0  0  0  0  0  0  0  0
   -7.2484   -4.5937  -22.8930 C   0  0  0  0  0  0  0  0  0  0  0  0
   -8.3822   -4.3799  -25.8801 C   0  0  0  0  0  0  0  0  0  0  0  0
   -9.6454   -4.8828  -25.5839 C   0  0  0  0  0  0  0  0  0  0  0  0
  -10.2646   -5.8266  -26.3947 C   0  0  0  0  0  0  0  0  0  0  0  0
  -11.4948   -6.3118  -26.0999 F   0  0  0  0  0  0  0  0  0  0  0  0
   -9.6467   -6.2997  -27.5260 C   0  0  0  0  0  0  0  0  0  0  0  0
   -8.4098   -5.8214  -27.8355 C   0  0  0  0  0  0  0  0  0  0  0  0
   -7.8016   -4.8940  -27.0385 C   0  0  0  0  0  0  0  0  0  0  0  0
   -6.4824   -4.4222  -27.4223 C   0  0  0  0  0  0  0  0  0  0  0  0
   -5.9080   -4.8513  -28.4593 O   0  0  0  0  0  0  0  0  0  0  0  0
   -8.9905   -0.0472  -23.9822 C   0  0  0  0  0  0  0  0  0  0  0  0
   -8.2751    1.1566  -24.0900 C   0  0  0  0  0  0  0  0  0  0  0  0
   -8.8712    2.3553  -24.0261 N   0  0  0  0  0  0  0  0  0  0  0  0
  -10.1935    2.5157  -23.8550 C   0  0  0  0  0  0  0  0  0  0  0  0
  -10.9410    1.3565  -23.7425 C   0  0  0  0  0  0  0  0  0  0  0  0
  -12.2950    1.5151  -23.5516 C   0  0  0  0  0  0  0  0  0  0  0  0
  -13.1235    0.4204  -23.4117 C   0  0  0  0  0  0  0  0  0  0  0  0
  -12.5189   -0.8187  -23.4739 C   0  0  0  0  0  0  0  0  0  0  0  0
  -11.1647   -0.9774  -23.6652 C   0  0  0  0  0  0  0  0  0  0  0  0
  -10.3432    0.0912  -23.8053 C   0  0  0  0  0  0  0  0  0  0  0  0
   -4.7996   -2.5769  -27.1643 C   0  0  0  0  0  0  0  0  0  0  0  0
   -0.1925   -3.8365  -28.6715 C   0  0  0  0  0  0  0  0  0  0  0  0
   -1.4699   -3.7858  -27.9236 C   0  0  0  0  0  0  0  0  0  0  0  0
   -2.5113   -2.9302  -28.2141 C   0  0  0  0  0  0  0  0  0  0  0  0
   -3.4867   -3.2343  -27.2640 C   0  0  0  0  0  0  0  0  0  0  0  0
   -3.0353   -4.1879  -26.4938 O   0  0  0  0  0  0  0  0  0  0  0  0
   -1.8477   -4.5290  -26.8642 N   0  0  0  0  0  0  0  0  0  0  0  0
 30 31  1  0  0  0
 31 32  1  0  0  0
 32 33  2  0  0  0
 33 29  1  0  0  0
 33 34  1  0  0  0
 29  1  1  0  0  0
  1  2  1  0  0  0
  3  2  1  0  0  0
  3  4  1  0  0  0
  3 10  1  0  0  0
  4  5  2  0  0  0
  4  6  1  0  0  0
  6 19  1  0  0  0
  6  7  1  0  0  0
 19 20  2  0  0  0
 20 21  1  0  0  0
 21 22  2  0  0  0
 22 23  1  0  0  0
 23 24  2  0  0  0
 24 25  1  0  0  0
 25 26  2  0  0  0
 26 27  1  0  0  0
 27 28  2  0  0  0
 28 19  1  0  0  0
 28 23  1  0  0  0
  7  8  1  0  0  0
  8  9  1  0  0  0
  8  3  1  0  0  0
 10 11  2  0  0  0
 11 12  1  0  0  0
 12 13  1  0  0  0
 12 14  2  0  0  0
 14 15  1  0  0  0
 15 16  2  0  0  0
 16 17  1  0  0  0
 16 10  1  0  0  0
 17 18  2  0  0  0
 17  1  1  0  0  0
 34 35  1  0  0  0
 35 31  2  0  0  0
M  END
> <minimizedAffinity>
-7.43280

> <CNNscore>
0.1825525016

> <CNNaffinity>
5.8595499992

> <CNN_VS>
1.0696755648

> <CNNaffinity_variance>
0.1423417628

$$$$



 35 40  0  0  0  0  0  0  0  0999 V2000
   -5.4703   -0.9487  -25.0593 N   0  0  0  0  0  0  0  0  0  0  0  0
   -5.9727   -0.8047  -23.6995 C   0  0  0  0  0  0  0  0  0  0  0  0
   -7.1389   -1.7083  -23.3999 C   0  0  0  0  0  0  0  0  0  0  0  0
   -8.3496   -1.0936  -23.9962 C   0  0  0  0  0  0  0  0  0  0  0  0
   -8.6715   -1.2619  -25.1970 O   0  0  0  0  0  0  0  0  0  0  0  0
   -9.0460   -0.3094  -22.9902 N   0  0  0  0  0  0  0  0  0  0  0  0
   -8.1157   -0.2203  -21.9021 C   0  0  0  0  0  0  0  0  0  0  0  0
   -7.4521   -1.6087  -21.9505 C   0  0  0  0  0  0  0  0  0  0  0  0
   -6.2547   -1.7071  -21.0611 C   0  0  0  0  0  0  0  0  0  0  0  0
   -6.9023   -3.0825  -23.8793 C   0  0  0  0  0  0  0  0  0  0  0  0
   -7.5709   -4.1803  -23.3460 C   0  0  0  0  0  0  0  0  0  0  0  0
   -7.3393   -5.4711  -23.8061 C   0  0  0  0  0  0  0  0  0  0  0  0
   -7.9940   -6.5352  -23.2818 F   0  0  0  0  0  0  0  0  0  0  0  0
   -6.4352   -5.7107  -24.8116 C   0  0  0  0  0  0  0  0  0  0  0  0
   -5.7693   -4.6510  -25.3485 C   0  0  0  0  0  0  0  0  0  0  0  0
   -5.9972   -3.3827  -24.8960 C   0  0  0  0  0  0  0  0  0  0  0  0
   -5.2559   -2.2944  -25.5094 C   0  0  0  0  0  0  0  0  0  0  0  0
   -4.4242   -2.5055  -26.4330 O   0  0  0  0  0  0  0  0  0  0  0  0
  -10.3671    0.1255  -23.2107 C   0  0  0  0  0  0  0  0  0  0  0  0
  -10.5899    1.4467  -23.6318 C   0  0  0  0  0  0  0  0  0  0  0  0
  -11.8194    1.9355  -23.8454 N   0  0  0  0  0  0  0  0  0  0  0  0
  -12.9409    1.2158  -23.6786 C   0  0  0  0  0  0  0  0  0  0  0  0
  -12.7717   -0.0932  -23.2627 C   0  0  0  0  0  0  0  0  0  0  0  0
  -13.9186   -0.8311  -23.0753 C   0  0  0  0  0  0  0  0  0  0  0  0
  -13.8556   -2.1412  -22.6463 C   0  0  0  0  0  0  0  0  0  0  0  0
  -12.5939   -2.6534  -22.4215 C   0  0  0  0  0  0  0  0  0  0  0  0
  -11.4468   -1.9155  -22.6092 C   0  0  0  0  0  0  0  0  0  0  0  0
  -11.4981   -0.6290  -23.0318 C   0  0  0  0  0  0  0  0  0  0  0  0
   -5.1962    0.1816  -25.9212 C   0  0  0  0  0  0  0  0  0  0  0  0
   -9.1781    3.0701  -26.8613 C   0  0  0  0  0  0  0  0  0  0  0  0
   -8.1597    1.9978  -26.9427 C   0  0  0  0  0  0  0  0  0  0  0  0
   -7.0958    1.8640  -26.0759 C   0  0  0  0  0  0  0  0  0  0  0  0
   -6.4166    0.7334  -26.5310 C   0  0  0  0  0  0  0  0  0  0  0  0
   -7.0450    0.2614  -27.5743 O   0  0  0  0  0  0  0  0  0  0  0  0
   -8.0761    0.9912  -27.8355 N   0  0  0  0  0  0  0  0  0  0  0  0
 30 31  1  0  0  0
 31 32  1  0  0  0
 32 33  2  0  0  0
 33 29  1  0  0  0
 33 34  1  0  0  0
 29  1  1  0  0  0
  1  2  1  0  0  0
  3  2  1  0  0  0
  3  4  1  0  0  0
  3 10  1  0  0  0
  4  5  2  0  0  0
  4  6  1  0  0  0
  6 19  1  0  0  0
  6  7  1  0  0  0
 19 20  2  0  0  0
 20 21  1  0  0  0
 21 22  2  0  0  0
 22 23  1  0  0  0
 23 24  2  0  0  0
 24 25  1  0  0  0
 25 26  2  0  0  0
 26 27  1  0  0  0
 27 28  2  0  0  0
 28 19  1  0  0  0
 28 23  1  0  0  0
  7  8  1  0  0  0
  8  9  1  0  0  0
  8  3  1  0  0  0
 10 11  2  0  0  0
 11 12  1  0  0  0
 12 13  1  0  0  0
 12 14  2  0  0  0
 14 15  1  0  0  0
 15 16  2  0  0  0
 16 17  1  0  0  0
 16 10  1  0  0  0
 17 18  2  0  0  0
 17  1  1  0  0  0
 34 35  1  0  0  0
 35 31  2  0  0  0
M  END
> <minimizedAffinity>
-7.00658

> <CNNscore>
0.1723694801

> <CNNaffinity>
5.8879404068

> <CNN_VS>
1.0149012804

> <CNNaffinity_variance>
0.2743629217

$$$$



 35 40  0  0  0  0  0  0  0  0999 V2000
   -8.0531   -2.0633  -25.7983 N   0  0  0  0  0  0  0  0  0  0  0  0
   -8.3360   -0.7566  -25.2197 C   0  0  0  0  0  0  0  0  0  0  0  0
   -7.0961    0.0551  -24.9551 C   0  0  0  0  0  0  0  0  0  0  0  0
   -6.4834   -0.4534  -23.7041 C   0  0  0  0  0  0  0  0  0  0  0  0
   -5.7073   -1.4389  -23.6836 O   0  0  0  0  0  0  0  0  0  0  0  0
   -6.9254    0.3540  -22.5796 N   0  0  0  0  0  0  0  0  0  0  0  0
   -8.0036    1.1389  -23.1075 C   0  0  0  0  0  0  0  0  0  0  0  0
   -7.5072    1.4209  -24.5373 C   0  0  0  0  0  0  0  0  0  0  0  0
   -8.5613    2.0309  -25.4042 C   0  0  0  0  0  0  0  0  0  0  0  0
   -6.1668    0.0217  -26.0996 C   0  0  0  0  0  0  0  0  0  0  0  0
   -5.2129    1.0127  -26.3105 C   0  0  0  0  0  0  0  0  0  0  0  0
   -4.3424    0.9702  -27.3931 C   0  0  0  0  0  0  0  0  0  0  0  0
   -3.4161    1.9389  -27.5921 F   0  0  0  0  0  0  0  0  0  0  0  0
   -4.3934   -0.0595  -28.3001 C   0  0  0  0  0  0  0  0  0  0  0  0
   -5.3192   -1.0405  -28.1134 C   0  0  0  0  0  0  0  0  0  0  0  0
   -6.1745   -0.9985  -27.0494 C   0  0  0  0  0  0  0  0  0  0  0  0
   -7.1393   -2.0748  -26.9047 C   0  0  0  0  0  0  0  0  0  0  0  0
   -7.1928   -3.0240  -27.7327 O   0  0  0  0  0  0  0  0  0  0  0  0
   -6.2653    0.2737  -21.3382 C   0  0  0  0  0  0  0  0  0  0  0  0
   -6.8132   -0.5285  -20.3240 C   0  0  0  0  0  0  0  0  0  0  0  0
   -6.2503   -0.6404  -19.1128 N   0  0  0  0  0  0  0  0  0  0  0  0
   -5.1222   -0.0031  -18.7598 C   0  0  0  0  0  0  0  0  0  0  0  0
   -4.5452    0.8010  -19.7270 C   0  0  0  0  0  0  0  0  0  0  0  0
   -3.3970    1.4688  -19.3656 C   0  0  0  0  0  0  0  0  0  0  0  0
   -2.7559    2.3073  -20.2546 C   0  0  0  0  0  0  0  0  0  0  0  0
   -3.3290    2.4311  -21.5039 C   0  0  0  0  0  0  0  0  0  0  0  0
   -4.4773    1.7629  -21.8655 C   0  0  0  0  0  0  0  0  0  0  0  0
   -5.1132    0.9361  -21.0005 C   0  0  0  0  0  0  0  0  0  0  0  0
   -8.6465   -3.2880  -25.3047 C   0  0  0  0  0  0  0  0  0  0  0  0
  -12.6812   -2.5569  -22.4290 C   0  0  0  0  0  0  0  0  0  0  0  0
  -11.2828   -2.7421  -22.8806 C   0  0  0  0  0  0  0  0  0  0  0  0
  -10.9057   -2.9408  -24.1918 C   0  0  0  0  0  0  0  0  0  0  0  0
   -9.5167   -3.0621  -24.1396 C   0  0  0  0  0  0  0  0  0  0  0  0
   -9.1342   -2.9417  -22.8965 O   0  0  0  0  0  0  0  0  0  0  0  0
  -10.1590   -2.7524  -22.1362 N   0  0  0  0  0  0  0  0  0  0  0  0
 30 31  1  0  0  0
 31 32  1  0  0  0
 32 33  2  0  0  0
 33 29  1  0  0  0
 33 34  1  0  0  0
 29  1  1  0  0  0
  1  2  1  0  0  0
  3  2  1  0  0  0
  3  4  1  0  0  0
  3 10  1  0  0  0
  4  5  2  0  0  0
  4  6  1  0  0  0
  6 19  1  0  0  0
  6  7  1  0  0  0
 19 20  2  0  0  0
 20 21  1  0  0  0
 21 22  2  0  0  0
 22 23  1  0  0  0
 23 24  2  0  0  0
 24 25  1  0  0  0
 25 26  2  0  0  0
 26 27  1  0  0  0
 27 28  2  0  0  0
 28 19  1  0  0  0
 28 23  1  0  0  0
  7  8  1  0  0  0
  8  9  1  0  0  0
  8  3  1  0  0  0
 10 11  2  0  0  0
 11 12  1  0  0  0
 12 13  1  0  0  0
 12 14  2  0  0  0
 14 15  1  0  0  0
 15 16  2  0  0  0
 16 17  1  0  0  0
 16 10  1  0  0  0
 17 18  2  0  0  0
 17  1  1  0  0  0
 34 35  1  0  0  0
 35 31  2  0  0  0
M  END
> <minimizedAffinity>
-7.08472

> <CNNscore>
0.1540146619

> <CNNaffinity>
5.8117928505

> <CNN_VS>
0.8951013088

> <CNNaffinity_variance>
0.0785132945

$$$$



 35 40  0  0  0  0  0  0  0  0999 V2000
   -6.0501   -2.9618  -21.8011 O   0  0  0  0  0  0  0  0  0  0  0  0
   -6.7652   -2.3033  -22.6352 C   0  0  0  0  0  0  0  0  0  0  0  0
   -7.5701   -2.9568  -23.6234 N   0  0  0  0  0  0  0  0  0  0  0  0
   -7.5282   -4.3877  -23.6413 C   0  0  0  0  0  0  0  0  0  0  0  0
   -7.5996   -5.1236  -22.3700 C   0  0  0  0  0  0  0  0  0  0  0  0
   -6.7810   -6.4218  -22.5464 C   0  0  0  0  0  0  0  0  0  0  0  0
   -6.7645   -6.4477  -24.0766 C   0  0  0  0  0  0  0  0  0  0  0  0
   -6.3001   -4.9921  -24.2845 C   0  0  0  0  0  0  0  0  0  0  0  0
   -8.1135   -6.4116  -24.5180 N   0  0  0  0  0  0  0  0  0  0  0  0
   -8.5766   -5.0333  -24.5502 C   0  0  0  0  0  0  0  0  0  0  0  0
   -8.6616   -6.9354  -23.8356 H   0  0  0  0  0  0  0  0  0  0  0  0
   -8.3677   -7.1120  -25.7457 C   0  0  0  0  0  0  0  0  0  0  0  0
   -8.3886   -6.0839  -26.8574 C   0  0  0  0  0  0  0  0  0  0  0  0
   -7.5236   -6.3950  -28.0584 C   0  0  0  0  0  0  0  0  0  0  0  0
   -8.6208   -5.9860  -28.8510 O   0  0  0  0  0  0  0  0  0  0  0  0
   -9.5215   -6.3384  -27.8285 C   0  0  0  0  0  0  0  0  0  0  0  0
   -6.6807   -0.8316  -22.4778 C   0  0  0  0  0  0  0  0  0  0  0  0
   -6.3274   -0.5010  -21.0375 C   0  0  0  0  0  0  0  0  0  0  0  0
   -7.2008   -0.8885  -20.0192 C   0  0  0  0  0  0  0  0  0  0  0  0
   -6.8976   -0.5976  -18.7417 N   0  0  0  0  0  0  0  0  0  0  0  0
   -5.7684    0.0629  -18.3953 C   0  0  0  0  0  0  0  0  0  0  0  0
   -4.8988    0.4506  -19.3897 C   0  0  0  0  0  0  0  0  0  0  0  0
   -3.7486    1.1248  -19.0134 C   0  0  0  0  0  0  0  0  0  0  0  0
   -2.8576    1.5232  -20.0099 C   0  0  0  0  0  0  0  0  0  0  0  0
   -3.1359    1.2406  -21.3419 C   0  0  0  0  0  0  0  0  0  0  0  0
   -4.2832    0.5682  -21.7166 C   0  0  0  0  0  0  0  0  0  0  0  0
   -5.1641    0.1745  -20.7315 C   0  0  0  0  0  0  0  0  0  0  0  0
   -8.3963   -2.2409  -24.5417 C   0  0  0  0  0  0  0  0  0  0  0  0
   -9.6007   -1.5683  -24.0251 C   0  0  0  0  0  0  0  0  0  0  0  0
   -9.8126   -0.2011  -24.0820 C   0  0  0  0  0  0  0  0  0  0  0  0
  -10.9665    0.4046  -23.6148 C   0  0  0  0  0  0  0  0  0  0  0  0
  -11.9792   -0.3456  -23.0595 C   0  0  0  0  0  0  0  0  0  0  0  0
  -11.8021   -1.6936  -22.9898 C   0  0  0  0  0  0  0  0  0  0  0  0
  -13.0936   -2.6536  -22.2819 Cl  0  0  0  0  0  0  0  0  0  0  0  0
  -10.6596   -2.2939  -23.4526 C   0  0  0  0  0  0  0  0  0  0  0  0
  1  2  2  0  0  0
  2 17  1  0  0  0
  2  3  1  0  0  0
 17 18  1  0  0  0
 18 19  2  0  0  0
 19 20  1  0  0  0
 20 21  2  0  0  0
 21 22  1  0  0  0
 22 23  2  0  0  0
 23 24  1  0  0  0
 24 25  2  0  0  0
 25 26  1  0  0  0
 26 27  2  0  0  0
 27 18  1  0  0  0
 27 22  1  0  0  0
  3 28  1  0  0  0
 28 29  1  0  0  0
 29 30  2  0  0  0
 30 31  1  0  0  0
 31 32  2  0  0  0
 32 33  1  0  0  0
 33 34  1  0  0  0
 33 35  2  0  0  0
 35 29  1  0  0  0
  4  3  1  0  0  0
  4  5  1  0  0  0
  5  6  1  0  0  0
  7  6  1  0  0  0
  7  8  1  0  0  0
  7  9  1  0  0  0
  8  4  1  0  0  0
  9 12  1  0  0  0
  9 10  1  0  0  0
  9 11  1  0  0  0
 12 13  1  0  0  0
 13 14  1  0  0  0
 14 15  1  0  0  0
 15 16  1  0  0  0
 16 13  1  0  0  0
 10  4  1  0  0  0
M  CHG 1   9   1
M  END
> <minimizedAffinity>
-8.13283

> <CNNscore>
0.5337784290

> <CNNaffinity>
6.7758064270

> <CNN_VS>
3.6167793274

> <CNNaffinity_variance>
0.0526935942

$$$$



 35 40  0  0  0  0  0  0  0  0999 V2000
   -8.2631   -1.1893  -20.5143 O   0  0  0  0  0  0  0  0  0  0  0  0
   -7.6418   -1.7664  -21.4743 C   0  0  0  0  0  0  0  0  0  0  0  0
   -8.2375   -1.9404  -22.7652 N   0  0  0  0  0  0  0  0  0  0  0  0
   -9.5710   -1.4459  -22.9284 C   0  0  0  0  0  0  0  0  0  0  0  0
  -10.6925   -2.2019  -22.3508 C   0  0  0  0  0  0  0  0  0  0  0  0
  -11.9169   -1.9734  -23.2647 C   0  0  0  0  0  0  0  0  0  0  0  0
  -11.4120   -0.7143  -23.9733 C   0  0  0  0  0  0  0  0  0  0  0  0
  -10.0227   -1.2601  -24.3598 C   0  0  0  0  0  0  0  0  0  0  0  0
  -11.1040    0.2439  -22.9719 N   0  0  0  0  0  0  0  0  0  0  0  0
   -9.7644   -0.0013  -22.4615 C   0  0  0  0  0  0  0  0  0  0  0  0
  -11.7804    0.1127  -22.2198 H   0  0  0  0  0  0  0  0  0  0  0  0
  -11.3094    1.6115  -23.3589 C   0  0  0  0  0  0  0  0  0  0  0  0
  -12.7370    1.9725  -23.0052 C   0  0  0  0  0  0  0  0  0  0  0  0
  -12.9040    3.0952  -22.0057 C   0  0  0  0  0  0  0  0  0  0  0  0
  -13.9173    3.5921  -22.8575 O   0  0  0  0  0  0  0  0  0  0  0  0
  -13.3102    2.9854  -23.9730 C   0  0  0  0  0  0  0  0  0  0  0  0
   -6.2755   -2.2234  -21.1250 C   0  0  0  0  0  0  0  0  0  0  0  0
   -5.6863   -1.2899  -20.0809 C   0  0  0  0  0  0  0  0  0  0  0  0
   -6.0453   -1.4576  -18.7419 C   0  0  0  0  0  0  0  0  0  0  0  0
   -5.5310   -0.6343  -17.8113 N   0  0  0  0  0  0  0  0  0  0  0  0
   -4.6695    0.3627  -18.1196 C   0  0  0  0  0  0  0  0  0  0  0  0
   -4.3074    0.5388  -19.4361 C   0  0  0  0  0  0  0  0  0  0  0  0
   -3.4238    1.5646  -19.7300 C   0  0  0  0  0  0  0  0  0  0  0  0
   -3.0471    1.7547  -21.0595 C   0  0  0  0  0  0  0  0  0  0  0  0
   -3.5571    0.9239  -22.0500 C   0  0  0  0  0  0  0  0  0  0  0  0
   -4.4383   -0.0990  -21.7563 C   0  0  0  0  0  0  0  0  0  0  0  0
   -4.8108   -0.2867  -20.4421 C   0  0  0  0  0  0  0  0  0  0  0  0
   -7.5499   -2.5542  -23.8555 C   0  0  0  0  0  0  0  0  0  0  0  0
   -7.7736   -3.9879  -24.1088 C   0  0  0  0  0  0  0  0  0  0  0  0
   -8.5403   -4.4832  -25.1500 C   0  0  0  0  0  0  0  0  0  0  0  0
   -8.7123   -5.8368  -25.3840 C   0  0  0  0  0  0  0  0  0  0  0  0
   -8.1127   -6.7728  -24.5710 C   0  0  0  0  0  0  0  0  0  0  0  0
   -7.3510   -6.3181  -23.5384 C   0  0  0  0  0  0  0  0  0  0  0  0
   -6.5840   -7.5109  -22.4994 Cl  0  0  0  0  0  0  0  0  0  0  0  0
   -7.1802   -4.9776  -23.3064 C   0  0  0  0  0  0  0  0  0  0  0  0
  1  2  2  0  0  0
  2 17  1  0  0  0
  2  3  1  0  0  0
 17 18  1  0  0  0
 18 19  2  0  0  0
 19 20  1  0  0  0
 20 21  2  0  0  0
 21 22  1  0  0  0
 22 23  2  0  0  0
 23 24  1  0  0  0
 24 25  2  0  0  0
 25 26  1  0  0  0
 26 27  2  0  0  0
 27 18  1  0  0  0
 27 22  1  0  0  0
  3 28  1  0  0  0
 28 29  1  0  0  0
 29 30  2  0  0  0
 30 31  1  0  0  0
 31 32  2  0  0  0
 32 33  1  0  0  0
 33 34  1  0  0  0
 33 35  2  0  0  0
 35 29  1  0  0  0
  4  3  1  0  0  0
  4  5  1  0  0  0
  5  6  1  0  0  0
  7  6  1  0  0  0
  7  8  1  0  0  0
  7  9  1  0  0  0
  8  4  1  0  0  0
  9 12  1  0  0  0
  9 10  1  0  0  0
  9 11  1  0  0  0
 12 13  1  0  0  0
 13 14  1  0  0  0
 14 15  1  0  0  0
 15 16  1  0  0  0
 16 13  1  0  0  0
 10  4  1  0  0  0
M  CHG 1   9   1
M  END
> <minimizedAffinity>
-8.57822

> <CNNscore>
0.5212897062

> <CNNaffinity>
6.7056870461

> <CNN_VS>
3.4956057072

> <CNNaffinity_variance>
0.5499230623

$$$$



 35 40  0  0  0  0  0  0  0  0999 V2000
   -6.5211   -0.8439  -23.6307 O   0  0  0  0  0  0  0  0  0  0  0  0
   -7.6192   -0.8533  -22.9712 C   0  0  0  0  0  0  0  0  0  0  0  0
   -8.6167   -1.8605  -23.1764 N   0  0  0  0  0  0  0  0  0  0  0  0
   -8.3310   -2.8543  -24.1665 C   0  0  0  0  0  0  0  0  0  0  0  0
   -8.2437   -2.4554  -25.5793 C   0  0  0  0  0  0  0  0  0  0  0  0
   -8.7206   -3.6575  -26.4243 C   0  0  0  0  0  0  0  0  0  0  0  0
   -8.5520   -4.7396  -25.3551 C   0  0  0  0  0  0  0  0  0  0  0  0
   -9.3065   -4.0084  -24.2265 C   0  0  0  0  0  0  0  0  0  0  0  0
   -7.2042   -4.6937  -24.9110 N   0  0  0  0  0  0  0  0  0  0  0  0
   -7.0648   -3.6680  -23.8893 C   0  0  0  0  0  0  0  0  0  0  0  0
   -6.6353   -4.4432  -25.7196 H   0  0  0  0  0  0  0  0  0  0  0  0
   -6.6564   -5.9582  -24.5071 C   0  0  0  0  0  0  0  0  0  0  0  0
   -6.2869   -5.8446  -23.0429 C   0  0  0  0  0  0  0  0  0  0  0  0
   -6.9166   -6.8673  -22.1236 C   0  0  0  0  0  0  0  0  0  0  0  0
   -5.6397   -6.9991  -21.5309 O   0  0  0  0  0  0  0  0  0  0  0  0
   -5.0162   -6.6052  -22.7297 C   0  0  0  0  0  0  0  0  0  0  0  0
   -7.7505    0.2548  -21.9953 C   0  0  0  0  0  0  0  0  0  0  0  0
   -6.8539   -0.0211  -20.7999 C   0  0  0  0  0  0  0  0  0  0  0  0
   -7.2317   -1.0028  -19.8815 C   0  0  0  0  0  0  0  0  0  0  0  0
   -6.4457   -1.2517  -18.8191 N   0  0  0  0  0  0  0  0  0  0  0  0
   -5.2896   -0.5840  -18.5982 C   0  0  0  0  0  0  0  0  0  0  0  0
   -4.9056    0.3863  -19.4962 C   0  0  0  0  0  0  0  0  0  0  0  0
   -3.7185    1.0573  -19.2518 C   0  0  0  0  0  0  0  0  0  0  0  0
   -3.3160    2.0426  -20.1535 C   0  0  0  0  0  0  0  0  0  0  0  0
   -4.1015    2.3285  -21.2638 C   0  0  0  0  0  0  0  0  0  0  0  0
   -5.2854    1.6590  -21.5070 C   0  0  0  0  0  0  0  0  0  0  0  0
   -5.6832    0.6852  -20.6156 C   0  0  0  0  0  0  0  0  0  0  0  0
   -9.8330   -1.9045  -22.4301 C   0  0  0  0  0  0  0  0  0  0  0  0
  -10.9648   -1.0776  -22.8829 C   0  0  0  0  0  0  0  0  0  0  0  0
  -12.2686   -1.5326  -22.9846 C   0  0  0  0  0  0  0  0  0  0  0  0
  -13.3207   -0.7271  -23.3859 C   0  0  0  0  0  0  0  0  0  0  0  0
  -13.1106    0.5951  -23.7091 C   0  0  0  0  0  0  0  0  0  0  0  0
  -11.8394    1.0737  -23.6184 C   0  0  0  0  0  0  0  0  0  0  0  0
  -11.5686    2.7613  -24.0298 Cl  0  0  0  0  0  0  0  0  0  0  0  0
  -10.7972    0.2764  -23.2207 C   0  0  0  0  0  0  0  0  0  0  0  0
  1  2  2  0  0  0
  2 17  1  0  0  0
  2  3  1  0  0  0
 17 18  1  0  0  0
 18 19  2  0  0  0
 19 20  1  0  0  0
 20 21  2  0  0  0
 21 22  1  0  0  0
 22 23  2  0  0  0
 23 24  1  0  0  0
 24 25  2  0  0  0
 25 26  1  0  0  0
 26 27  2  0  0  0
 27 18  1  0  0  0
 27 22  1  0  0  0
  3 28  1  0  0  0
 28 29  1  0  0  0
 29 30  2  0  0  0
 30 31  1  0  0  0
 31 32  2  0  0  0
 32 33  1  0  0  0
 33 34  1  0  0  0
 33 35  2  0  0  0
 35 29  1  0  0  0
  4  3  1  0  0  0
  4  5  1  0  0  0
  5  6  1  0  0  0
  7  6  1  0  0  0
  7  8  1  0  0  0
  7  9  1  0  0  0
  8  4  1  0  0  0
  9 12  1  0  0  0
  9 10  1  0  0  0
  9 11  1  0  0  0
 12 13  1  0  0  0
 13 14  1  0  0  0
 14 15  1  0  0  0
 15 16  1  0  0  0
 16 13  1  0  0  0
 10  4  1  0  0  0
M  CHG 1   9   1
M  END
> <minimizedAffinity>
-8.27621

> <CNNscore>
0.4672607183

> <CNNaffinity>
6.4494705200

> <CNN_VS>
3.0135841370

> <CNNaffinity_variance>
0.3502113521

$$$$



 35 40  0  0  0  0  0  0  0  0999 V2000
   -8.3127   -0.9891  -20.6475 O   0  0  0  0  0  0  0  0  0  0  0  0
   -7.9216   -1.4948  -21.7574 C   0  0  0  0  0  0  0  0  0  0  0  0
   -6.5527   -1.4372  -22.1749 N   0  0  0  0  0  0  0  0  0  0  0  0
   -5.6403   -0.7744  -21.2930 C   0  0  0  0  0  0  0  0  0  0  0  0
   -5.3704   -1.3566  -19.9697 C   0  0  0  0  0  0  0  0  0  0  0  0
   -5.0754   -0.1855  -19.0063 C   0  0  0  0  0  0  0  0  0  0  0  0
   -4.7515    0.8731  -20.0632 C   0  0  0  0  0  0  0  0  0  0  0  0
   -6.0002    0.6516  -20.9403 C   0  0  0  0  0  0  0  0  0  0  0  0
   -3.7050    0.3597  -20.8739 N   0  0  0  0  0  0  0  0  0  0  0  0
   -4.2669   -0.4949  -21.9078 C   0  0  0  0  0  0  0  0  0  0  0  0
   -3.1059   -0.1975  -20.2648 H   0  0  0  0  0  0  0  0  0  0  0  0
   -2.8052    1.3484  -21.3986 C   0  0  0  0  0  0  0  0  0  0  0  0
   -2.1797    2.0628  -20.2188 C   0  0  0  0  0  0  0  0  0  0  0  0
   -0.6677    2.0731  -20.1815 C   0  0  0  0  0  0  0  0  0  0  0  0
   -0.7679    3.4398  -19.8330 O   0  0  0  0  0  0  0  0  0  0  0  0
   -2.0074    3.5415  -20.4923 C   0  0  0  0  0  0  0  0  0  0  0  0
   -9.0015   -2.1332  -22.5474 C   0  0  0  0  0  0  0  0  0  0  0  0
   -9.9634   -1.0639  -23.0374 C   0  0  0  0  0  0  0  0  0  0  0  0
   -9.4475    0.1256  -23.5561 C   0  0  0  0  0  0  0  0  0  0  0  0
  -10.2914    1.0787  -23.9895 N   0  0  0  0  0  0  0  0  0  0  0  0
  -11.6361    0.9338  -23.9444 C   0  0  0  0  0  0  0  0  0  0  0  0
  -12.1576   -0.2342  -23.4352 C   0  0  0  0  0  0  0  0  0  0  0  0
  -13.5365   -0.3624  -23.3987 C   0  0  0  0  0  0  0  0  0  0  0  0
  -14.0795   -1.5406  -22.8863 C   0  0  0  0  0  0  0  0  0  0  0  0
  -13.2398   -2.5492  -22.4287 C   0  0  0  0  0  0  0  0  0  0  0  0
  -11.8646   -2.4207  -22.4654 C   0  0  0  0  0  0  0  0  0  0  0  0
  -11.3279   -1.2559  -22.9718 C   0  0  0  0  0  0  0  0  0  0  0  0
   -6.0929   -2.0211  -23.3939 C   0  0  0  0  0  0  0  0  0  0  0  0
   -6.2595   -3.4723  -23.5837 C   0  0  0  0  0  0  0  0  0  0  0  0
   -6.6015   -4.0647  -24.7876 C   0  0  0  0  0  0  0  0  0  0  0  0
   -6.7243   -5.4344  -24.9475 C   0  0  0  0  0  0  0  0  0  0  0  0
   -6.5057   -6.2884  -23.8893 C   0  0  0  0  0  0  0  0  0  0  0  0
   -6.1667   -5.7371  -22.6917 C   0  0  0  0  0  0  0  0  0  0  0  0
   -5.8866   -6.8250  -21.3395 Cl  0  0  0  0  0  0  0  0  0  0  0  0
   -6.0448   -4.3807  -22.5330 C   0  0  0  0  0  0  0  0  0  0  0  0
  1  2  2  0  0  0
  2 17  1  0  0  0
  2  3  1  0  0  0
 17 18  1  0  0  0
 18 19  2  0  0  0
 19 20  1  0  0  0
 20 21  2  0  0  0
 21 22  1  0  0  0
 22 23  2  0  0  0
 23 24  1  0  0  0
 24 25  2  0  0  0
 25 26  1  0  0  0
 26 27  2  0  0  0
 27 18  1  0  0  0
 27 22  1  0  0  0
  3 28  1  0  0  0
 28 29  1  0  0  0
 29 30  2  0  0  0
 30 31  1  0  0  0
 31 32  2  0  0  0
 32 33  1  0  0  0
 33 34  1  0  0  0
 33 35  2  0  0  0
 35 29  1  0  0  0
  4  3  1  0  0  0
  4  5  1  0  0  0
  5  6  1  0  0  0
  7  6  1  0  0  0
  7  8  1  0  0  0
  7  9  1  0  0  0
  8  4  1  0  0  0
  9 12  1  0  0  0
  9 10  1  0  0  0
  9 11  1  0  0  0
 12 13  1  0  0  0
 13 14  1  0  0  0
 14 15  1  0  0  0
 15 16  1  0  0  0
 16 13  1  0  0  0
 10  4  1  0  0  0
M  CHG 1   9   1
M  END
> <minimizedAffinity>
-7.45760

> <CNNscore>
0.3759025037

> <CNNaffinity>
6.3812265396

> <CNN_VS>
2.3987190723

> <CNNaffinity_variance>
0.0858088881

$$$$



 35 40  0  0  0  0  0  0  0  0999 V2000
   -6.3613   -3.4513  -22.0790 O   0  0  0  0  0  0  0  0  0  0  0  0
   -7.3631   -3.3964  -22.8753 C   0  0  0  0  0  0  0  0  0  0  0  0
   -7.7742   -2.1702  -23.4910 N   0  0  0  0  0  0  0  0  0  0  0  0
   -7.0149   -1.0016  -23.1635 C   0  0  0  0  0  0  0  0  0  0  0  0
   -7.3639    0.2808  -23.7932 C   0  0  0  0  0  0  0  0  0  0  0  0
   -6.0569    1.0923  -23.9332 C   0  0  0  0  0  0  0  0  0  0  0  0
   -5.2247    0.3197  -22.9071 C   0  0  0  0  0  0  0  0  0  0  0  0
   -5.5312   -1.0937  -23.4420 C   0  0  0  0  0  0  0  0  0  0  0  0
   -5.9318    0.3484  -21.6762 N   0  0  0  0  0  0  0  0  0  0  0  0
   -6.9261   -0.7130  -21.6632 C   0  0  0  0  0  0  0  0  0  0  0  0
   -6.4027    1.2518  -21.6273 H   0  0  0  0  0  0  0  0  0  0  0  0
   -5.1043    0.3490  -20.5025 C   0  0  0  0  0  0  0  0  0  0  0  0
   -5.9090   -0.2741  -19.3810 C   0  0  0  0  0  0  0  0  0  0  0  0
   -5.5081   -1.6773  -18.9839 C   0  0  0  0  0  0  0  0  0  0  0  0
   -5.6232   -1.2421  -17.6435 O   0  0  0  0  0  0  0  0  0  0  0  0
   -5.3406    0.0831  -18.0244 C   0  0  0  0  0  0  0  0  0  0  0  0
   -8.0374   -4.6985  -23.0931 C   0  0  0  0  0  0  0  0  0  0  0  0
   -7.3959   -5.4034  -24.2765 C   0  0  0  0  0  0  0  0  0  0  0  0
   -6.0528   -5.7769  -24.1963 C   0  0  0  0  0  0  0  0  0  0  0  0
   -5.4759   -6.3986  -25.2399 N   0  0  0  0  0  0  0  0  0  0  0  0
   -6.1489   -6.6819  -26.3793 C   0  0  0  0  0  0  0  0  0  0  0  0
   -7.4737   -6.3190  -26.4713 C   0  0  0  0  0  0  0  0  0  0  0  0
   -8.1442   -6.6189  -27.6459 C   0  0  0  0  0  0  0  0  0  0  0  0
   -9.4873   -6.2580  -27.7534 C   0  0  0  0  0  0  0  0  0  0  0  0
  -10.1187   -5.6141  -26.6959 C   0  0  0  0  0  0  0  0  0  0  0  0
   -9.4495   -5.3152  -25.5247 C   0  0  0  0  0  0  0  0  0  0  0  0
   -8.1218   -5.6718  -25.4186 C   0  0  0  0  0  0  0  0  0  0  0  0
   -8.8692   -2.0950  -24.4040 C   0  0  0  0  0  0  0  0  0  0  0  0
  -10.2245   -1.9021  -23.8604 C   0  0  0  0  0  0  0  0  0  0  0  0
  -10.9571   -2.8927  -23.2283 C   0  0  0  0  0  0  0  0  0  0  0  0
  -12.2187   -2.6786  -22.7001 C   0  0  0  0  0  0  0  0  0  0  0  0
  -12.8146   -1.4396  -22.7822 C   0  0  0  0  0  0  0  0  0  0  0  0
  -12.1197   -0.4435  -23.3971 C   0  0  0  0  0  0  0  0  0  0  0  0
  -12.8778    1.1391  -23.5027 Cl  0  0  0  0  0  0  0  0  0  0  0  0
  -10.8700   -0.6550  -23.9201 C   0  0  0  0  0  0  0  0  0  0  0  0
  1  2  2  0  0  0
  2 17  1  0  0  0
  2  3  1  0  0  0
 17 18  1  0  0  0
 18 19  2  0  0  0
 19 20  1  0  0  0
 20 21  2  0  0  0
 21 22  1  0  0  0
 22 23  2  0  0  0
 23 24  1  0  0  0
 24 25  2  0  0  0
 25 26  1  0  0  0
 26 27  2  0  0  0
 27 18  1  0  0  0
 27 22  1  0  0  0
  3 28  1  0  0  0
 28 29  1  0  0  0
 29 30  2  0  0  0
 30 31  1  0  0  0
 31 32  2  0  0  0
 32 33  1  0  0  0
 33 34  1  0  0  0
 33 35  2  0  0  0
 35 29  1  0  0  0
  4  3  1  0  0  0
  4  5  1  0  0  0
  5  6  1  0  0  0
  7  6  1  0  0  0
  7  8  1  0  0  0
  7  9  1  0  0  0
  8  4  1  0  0  0
  9 12  1  0  0  0
  9 10  1  0  0  0
  9 11  1  0  0  0
 12 13  1  0  0  0
 13 14  1  0  0  0
 14 15  1  0  0  0
 15 16  1  0  0  0
 16 13  1  0  0  0
 10  4  1  0  0  0
M  CHG 1   9   1
M  END
> <minimizedAffinity>
-7.80089

> <CNNscore>
0.3208210468

> <CNNaffinity>
6.4484391212

> <CNN_VS>
2.0687949657

> <CNNaffinity_variance>
0.0720296949

$$$$



 35 40  0  0  0  0  0  0  0  0999 V2000
   -6.7913   -2.5893  -21.7414 O   0  0  0  0  0  0  0  0  0  0  0  0
   -7.4950   -1.5894  -22.1232 C   0  0  0  0  0  0  0  0  0  0  0  0
   -7.7938   -1.3577  -23.5048 N   0  0  0  0  0  0  0  0  0  0  0  0
   -7.2563   -2.2953  -24.4436 C   0  0  0  0  0  0  0  0  0  0  0  0
   -5.8055   -2.3192  -24.6833 C   0  0  0  0  0  0  0  0  0  0  0  0
   -5.5917   -2.7467  -26.1524 C   0  0  0  0  0  0  0  0  0  0  0  0
   -6.9693   -3.3708  -26.3871 C   0  0  0  0  0  0  0  0  0  0  0  0
   -7.8044   -2.1914  -25.8493 C   0  0  0  0  0  0  0  0  0  0  0  0
   -7.1604   -4.3676  -25.3941 N   0  0  0  0  0  0  0  0  0  0  0  0
   -7.6531   -3.7485  -24.1738 C   0  0  0  0  0  0  0  0  0  0  0  0
   -6.2471   -4.7850  -25.2152 H   0  0  0  0  0  0  0  0  0  0  0  0
   -7.9552   -5.4898  -25.8080 C   0  0  0  0  0  0  0  0  0  0  0  0
   -8.0571   -5.4400  -27.3181 C   0  0  0  0  0  0  0  0  0  0  0  0
   -7.5961   -6.6805  -28.0504 C   0  0  0  0  0  0  0  0  0  0  0  0
   -8.7578   -6.5430  -28.8447 O   0  0  0  0  0  0  0  0  0  0  0  0
   -9.4240   -5.8790  -27.7977 C   0  0  0  0  0  0  0  0  0  0  0  0
   -7.9609   -0.7178  -21.0183 C   0  0  0  0  0  0  0  0  0  0  0  0
   -6.8141   -0.4793  -20.0504 C   0  0  0  0  0  0  0  0  0  0  0  0
   -6.8119   -1.1473  -18.8242 C   0  0  0  0  0  0  0  0  0  0  0  0
   -5.8024   -0.9401  -17.9602 N   0  0  0  0  0  0  0  0  0  0  0  0
   -4.7752   -0.1017  -18.2306 C   0  0  0  0  0  0  0  0  0  0  0  0
   -4.7653    0.5632  -19.4361 C   0  0  0  0  0  0  0  0  0  0  0  0
   -3.7044    1.4160  -19.6932 C   0  0  0  0  0  0  0  0  0  0  0  0
   -3.6803    2.0959  -20.9110 C   0  0  0  0  0  0  0  0  0  0  0  0
   -4.7056    1.9079  -21.8302 C   0  0  0  0  0  0  0  0  0  0  0  0
   -5.7635    1.0571  -21.5732 C   0  0  0  0  0  0  0  0  0  0  0  0
   -5.7873    0.3852  -20.3693 C   0  0  0  0  0  0  0  0  0  0  0  0
   -8.6011   -0.2661  -23.9466 C   0  0  0  0  0  0  0  0  0  0  0  0
  -10.0583   -0.3444  -23.7459 C   0  0  0  0  0  0  0  0  0  0  0  0
  -10.7594   -1.5285  -23.5915 C   0  0  0  0  0  0  0  0  0  0  0  0
  -12.1262   -1.5744  -23.3755 C   0  0  0  0  0  0  0  0  0  0  0  0
  -12.8660   -0.4151  -23.3026 C   0  0  0  0  0  0  0  0  0  0  0  0
  -12.2058    0.7664  -23.4494 C   0  0  0  0  0  0  0  0  0  0  0  0
  -13.1479    2.2478  -23.3563 Cl  0  0  0  0  0  0  0  0  0  0  0  0
  -10.8523    0.8124  -23.6631 C   0  0  0  0  0  0  0  0  0  0  0  0
  1  2  2  0  0  0
  2 17  1  0  0  0
  2  3  1  0  0  0
 17 18  1  0  0  0
 18 19  2  0  0  0
 19 20  1  0  0  0
 20 21  2  0  0  0
 21 22  1  0  0  0
 22 23  2  0  0  0
 23 24  1  0  0  0
 24 25  2  0  0  0
 25 26  1  0  0  0
 26 27  2  0  0  0
 27 18  1  0  0  0
 27 22  1  0  0  0
  3 28  1  0  0  0
 28 29  1  0  0  0
 29 30  2  0  0  0
 30 31  1  0  0  0
 31 32  2  0  0  0
 32 33  1  0  0  0
 33 34  1  0  0  0
 33 35  2  0  0  0
 35 29  1  0  0  0
  4  3  1  0  0  0
  4  5  1  0  0  0
  5  6  1  0  0  0
  7  6  1  0  0  0
  7  8  1  0  0  0
  7  9  1  0  0  0
  8  4  1  0  0  0
  9 12  1  0  0  0
  9 10  1  0  0  0
  9 11  1  0  0  0
 12 13  1  0  0  0
 13 14  1  0  0  0
 14 15  1  0  0  0
 15 16  1  0  0  0
 16 13  1  0  0  0
 10  4  1  0  0  0
M  CHG 1   9   1
M  END
> <minimizedAffinity>
-8.17967

> <CNNscore>
0.2931106985

> <CNNaffinity>
6.1773424149

> <CNN_VS>
1.8106451035

> <CNNaffinity_variance>
0.1458705068

$$$$



 35 40  0  0  0  0  0  0  0  0999 V2000
   -5.3510   -3.1226  -21.5146 O   0  0  0  0  0  0  0  0  0  0  0  0
   -6.5175   -2.8958  -21.9926 C   0  0  0  0  0  0  0  0  0  0  0  0
   -7.2760   -3.9153  -22.6537 N   0  0  0  0  0  0  0  0  0  0  0  0
   -6.6602   -5.2029  -22.7648 C   0  0  0  0  0  0  0  0  0  0  0  0
   -7.4990   -6.4085  -22.6883 C   0  0  0  0  0  0  0  0  0  0  0  0
   -6.6396   -7.5240  -22.0530 C   0  0  0  0  0  0  0  0  0  0  0  0
   -5.2672   -6.8962  -22.3081 C   0  0  0  0  0  0  0  0  0  0  0  0
   -5.5900   -5.5002  -21.7384 C   0  0  0  0  0  0  0  0  0  0  0  0
   -5.1643   -6.6487  -23.7024 N   0  0  0  0  0  0  0  0  0  0  0  0
   -5.7994   -5.3790  -24.0179 C   0  0  0  0  0  0  0  0  0  0  0  0
   -5.6648   -7.4022  -24.1737 H   0  0  0  0  0  0  0  0  0  0  0  0
   -3.8366   -6.7546  -24.2396 C   0  0  0  0  0  0  0  0  0  0  0  0
   -3.9308   -7.5477  -25.5262 C   0  0  0  0  0  0  0  0  0  0  0  0
   -3.5941   -6.7916  -26.7920 C   0  0  0  0  0  0  0  0  0  0  0  0
   -2.8472   -7.9295  -27.1748 O   0  0  0  0  0  0  0  0  0  0  0  0
   -2.6378   -8.2751  -25.8265 C   0  0  0  0  0  0  0  0  0  0  0  0
   -6.9944   -1.5060  -21.7957 C   0  0  0  0  0  0  0  0  0  0  0  0
   -6.3603   -0.9317  -20.5400 C   0  0  0  0  0  0  0  0  0  0  0  0
   -6.9216   -1.2347  -19.2977 C   0  0  0  0  0  0  0  0  0  0  0  0
   -6.3687   -0.7284  -18.1813 N   0  0  0  0  0  0  0  0  0  0  0  0
   -5.2780    0.0722  -18.2092 C   0  0  0  0  0  0  0  0  0  0  0  0
   -4.7150    0.3787  -19.4276 C   0  0  0  0  0  0  0  0  0  0  0  0
   -3.5988    1.1991  -19.4337 C   0  0  0  0  0  0  0  0  0  0  0  0
   -3.0168    1.5177  -20.6607 C   0  0  0  0  0  0  0  0  0  0  0  0
   -3.5592    1.0135  -21.8368 C   0  0  0  0  0  0  0  0  0  0  0  0
   -4.6725    0.1953  -21.8300 C   0  0  0  0  0  0  0  0  0  0  0  0
   -5.2479   -0.1194  -20.6171 C   0  0  0  0  0  0  0  0  0  0  0  0
   -8.5893   -3.6894  -23.1662 C   0  0  0  0  0  0  0  0  0  0  0  0
   -8.7955   -3.7568  -24.6231 C   0  0  0  0  0  0  0  0  0  0  0  0
   -9.6451   -4.6545  -25.2475 C   0  0  0  0  0  0  0  0  0  0  0  0
   -9.8434   -4.6791  -26.6174 C   0  0  0  0  0  0  0  0  0  0  0  0
   -9.1880   -3.7891  -27.4390 C   0  0  0  0  0  0  0  0  0  0  0  0
   -8.3460   -2.8925  -26.8557 C   0  0  0  0  0  0  0  0  0  0  0  0
   -7.5086   -1.7549  -27.9023 Cl  0  0  0  0  0  0  0  0  0  0  0  0
   -8.1494   -2.8676  -25.4990 C   0  0  0  0  0  0  0  0  0  0  0  0
  1  2  2  0  0  0
  2 17  1  0  0  0
  2  3  1  0  0  0
 17 18  1  0  0  0
 18 19  2  0  0  0
 19 20  1  0  0  0
 20 21  2  0  0  0
 21 22  1  0  0  0
 22 23  2  0  0  0
 23 24  1  0  0  0
 24 25  2  0  0  0
 25 26  1  0  0  0
 26 27  2  0  0  0
 27 18  1  0  0  0
 27 22  1  0  0  0
  3 28  1  0  0  0
 28 29  1  0  0  0
 29 30  2  0  0  0
 30 31  1  0  0  0
 31 32  2  0  0  0
 32 33  1  0  0  0
 33 34  1  0  0  0
 33 35  2  0  0  0
 35 29  1  0  0  0
  4  3  1  0  0  0
  4  5  1  0  0  0
  5  6  1  0  0  0
  7  6  1  0  0  0
  7  8  1  0  0  0
  7  9  1  0  0  0
  8  4  1  0  0  0
  9 12  1  0  0  0
  9 10  1  0  0  0
  9 11  1  0  0  0
 12 13  1  0  0  0
 13 14  1  0  0  0
 14 15  1  0  0  0
 15 16  1  0  0  0
 16 13  1  0  0  0
 10  4  1  0  0  0
M  CHG 1   9   1
M  END
> <minimizedAffinity>
-7.40486

> <CNNscore>
0.2839187384

> <CNNaffinity>
6.1384081841

> <CNN_VS>
1.7428090572

> <CNNaffinity_variance>
0.2506729364

$$$$



 35 40  0  0  0  0  0  0  0  0999 V2000
   -7.9326   -2.9261  -22.1235 O   0  0  0  0  0  0  0  0  0  0  0  0
   -8.3111   -1.8231  -22.6534 C   0  0  0  0  0  0  0  0  0  0  0  0
   -8.6928   -1.7371  -24.0313 N   0  0  0  0  0  0  0  0  0  0  0  0
   -8.6200   -2.9464  -24.7939 C   0  0  0  0  0  0  0  0  0  0  0  0
   -8.4957   -2.8656  -26.2571 C   0  0  0  0  0  0  0  0  0  0  0  0
   -9.2070   -4.1042  -26.8457 C   0  0  0  0  0  0  0  0  0  0  0  0
   -9.2144   -4.9591  -25.5762 C   0  0  0  0  0  0  0  0  0  0  0  0
   -9.7928   -3.8871  -24.6307 C   0  0  0  0  0  0  0  0  0  0  0  0
   -7.8707   -5.0750  -25.1326 N   0  0  0  0  0  0  0  0  0  0  0  0
   -7.5191   -3.9076  -24.3396 C   0  0  0  0  0  0  0  0  0  0  0  0
   -7.2855   -5.1039  -25.9675 H   0  0  0  0  0  0  0  0  0  0  0  0
   -7.5557   -6.3107  -24.4721 C   0  0  0  0  0  0  0  0  0  0  0  0
   -6.6107   -5.9874  -23.3337 C   0  0  0  0  0  0  0  0  0  0  0  0
   -6.8045   -6.7925  -22.0681 C   0  0  0  0  0  0  0  0  0  0  0  0
   -5.3971   -6.9249  -22.0351 O   0  0  0  0  0  0  0  0  0  0  0  0
   -5.3271   -6.7834  -23.4338 C   0  0  0  0  0  0  0  0  0  0  0  0
   -8.3172   -0.6717  -21.7196 C   0  0  0  0  0  0  0  0  0  0  0  0
   -6.9283   -0.0571  -21.6726 C   0  0  0  0  0  0  0  0  0  0  0  0
   -6.3624    0.4303  -22.8525 C   0  0  0  0  0  0  0  0  0  0  0  0
   -5.1325    0.9732  -22.8208 N   0  0  0  0  0  0  0  0  0  0  0  0
   -4.4098    1.0693  -21.6808 C   0  0  0  0  0  0  0  0  0  0  0  0
   -4.9562    0.5925  -20.5105 C   0  0  0  0  0  0  0  0  0  0  0  0
   -4.2001    0.7012  -19.3549 C   0  0  0  0  0  0  0  0  0  0  0  0
   -4.7409    0.2232  -18.1612 C   0  0  0  0  0  0  0  0  0  0  0  0
   -6.0094   -0.3446  -18.1534 C   0  0  0  0  0  0  0  0  0  0  0  0
   -6.7631   -0.4527  -19.3063 C   0  0  0  0  0  0  0  0  0  0  0  0
   -6.2283    0.0196  -20.4862 C   0  0  0  0  0  0  0  0  0  0  0  0
   -9.1456   -0.5235  -24.6317 C   0  0  0  0  0  0  0  0  0  0  0  0
  -10.3933    0.0823  -24.1356 C   0  0  0  0  0  0  0  0  0  0  0  0
  -10.5942    1.4452  -23.9963 C   0  0  0  0  0  0  0  0  0  0  0  0
  -11.7869    1.9917  -23.5543 C   0  0  0  0  0  0  0  0  0  0  0  0
  -12.8522    1.1828  -23.2261 C   0  0  0  0  0  0  0  0  0  0  0  0
  -12.6871   -0.1625  -23.3532 C   0  0  0  0  0  0  0  0  0  0  0  0
  -14.0456   -1.1972  -22.9354 Cl  0  0  0  0  0  0  0  0  0  0  0  0
  -11.5061   -0.7041  -23.7911 C   0  0  0  0  0  0  0  0  0  0  0  0
  1  2  2  0  0  0
  2 17  1  0  0  0
  2  3  1  0  0  0
 17 18  1  0  0  0
 18 19  2  0  0  0
 19 20  1  0  0  0
 20 21  2  0  0  0
 21 22  1  0  0  0
 22 23  2  0  0  0
 23 24  1  0  0  0
 24 25  2  0  0  0
 25 26  1  0  0  0
 26 27  2  0  0  0
 27 18  1  0  0  0
 27 22  1  0  0  0
  3 28  1  0  0  0
 28 29  1  0  0  0
 29 30  2  0  0  0
 30 31  1  0  0  0
 31 32  2  0  0  0
 32 33  1  0  0  0
 33 34  1  0  0  0
 33 35  2  0  0  0
 35 29  1  0  0  0
  4  3  1  0  0  0
  4  5  1  0  0  0
  5  6  1  0  0  0
  7  6  1  0  0  0
  7  8  1  0  0  0
  7  9  1  0  0  0
  8  4  1  0  0  0
  9 12  1  0  0  0
  9 10  1  0  0  0
  9 11  1  0  0  0
 12 13  1  0  0  0
 13 14  1  0  0  0
 14 15  1  0  0  0
 15 16  1  0  0  0
 16 13  1  0  0  0
 10  4  1  0  0  0
M  CHG 1   9   1
M  END
> <minimizedAffinity>
-7.51572

> <CNNscore>
0.2716771662

> <CNNaffinity>
6.5094857216

> <CNN_VS>
1.7684786320

> <CNNaffinity_variance>
0.0247892551

$$$$



 35 40  0  0  0  0  0  0  0  0999 V2000
   -6.9712   -2.3180  -21.5740 O   0  0  0  0  0  0  0  0  0  0  0  0
   -7.5695   -1.4155  -22.2582 C   0  0  0  0  0  0  0  0  0  0  0  0
   -8.1079   -1.6837  -23.5582 N   0  0  0  0  0  0  0  0  0  0  0  0
   -7.9344   -3.0121  -24.0629 C   0  0  0  0  0  0  0  0  0  0  0  0
   -8.4765   -3.3532  -25.3868 C   0  0  0  0  0  0  0  0  0  0  0  0
   -8.8722   -4.8460  -25.3482 C   0  0  0  0  0  0  0  0  0  0  0  0
   -8.0363   -5.2484  -24.1309 C   0  0  0  0  0  0  0  0  0  0  0  0
   -8.5045   -4.1137  -23.1977 C   0  0  0  0  0  0  0  0  0  0  0  0
   -6.6887   -4.8936  -24.4030 N   0  0  0  0  0  0  0  0  0  0  0  0
   -6.4811   -3.4914  -24.0771 C   0  0  0  0  0  0  0  0  0  0  0  0
   -6.5430   -5.0323  -25.4029 H   0  0  0  0  0  0  0  0  0  0  0  0
   -5.7043   -5.7538  -23.8086 C   0  0  0  0  0  0  0  0  0  0  0  0
   -5.7728   -7.0848  -24.5278 C   0  0  0  0  0  0  0  0  0  0  0  0
   -5.5930   -7.0322  -26.0286 C   0  0  0  0  0  0  0  0  0  0  0  0
   -4.7398   -8.1503  -25.8827 O   0  0  0  0  0  0  0  0  0  0  0  0
   -4.4215   -7.7656  -24.5667 C   0  0  0  0  0  0  0  0  0  0  0  0
   -7.6499   -0.0971  -21.5851 C   0  0  0  0  0  0  0  0  0  0  0  0
   -6.6573   -0.0600  -20.4352 C   0  0  0  0  0  0  0  0  0  0  0  0
   -6.9532   -0.7567  -19.2617 C   0  0  0  0  0  0  0  0  0  0  0  0
   -6.0819   -0.7271  -18.2378 N   0  0  0  0  0  0  0  0  0  0  0  0
   -4.9158   -0.0430  -18.2956 C   0  0  0  0  0  0  0  0  0  0  0  0
   -4.6121    0.6481  -19.4469 C   0  0  0  0  0  0  0  0  0  0  0  0
   -3.4132    1.3412  -19.4854 C   0  0  0  0  0  0  0  0  0  0  0  0
   -3.0915    2.0455  -20.6457 C   0  0  0  0  0  0  0  0  0  0  0  0
   -3.9663    2.0388  -21.7256 C   0  0  0  0  0  0  0  0  0  0  0  0
   -5.1619    1.3474  -21.6865 C   0  0  0  0  0  0  0  0  0  0  0  0
   -5.4800    0.6514  -20.5395 C   0  0  0  0  0  0  0  0  0  0  0  0
   -8.8039   -0.6992  -24.3228 C   0  0  0  0  0  0  0  0  0  0  0  0
  -10.2013   -0.3950  -23.9697 C   0  0  0  0  0  0  0  0  0  0  0  0
  -11.1511   -1.3534  -23.6591 C   0  0  0  0  0  0  0  0  0  0  0  0
  -12.4517   -1.0403  -23.3024 C   0  0  0  0  0  0  0  0  0  0  0  0
  -12.8672    0.2713  -23.2392 C   0  0  0  0  0  0  0  0  0  0  0  0
  -11.9565    1.2380  -23.5380 C   0  0  0  0  0  0  0  0  0  0  0  0
  -12.4841    2.9130  -23.4575 Cl  0  0  0  0  0  0  0  0  0  0  0  0
  -10.6683    0.9283  -23.8910 C   0  0  0  0  0  0  0  0  0  0  0  0
  1  2  2  0  0  0
  2 17  1  0  0  0
  2  3  1  0  0  0
 17 18  1  0  0  0
 18 19  2  0  0  0
 19 20  1  0  0  0
 20 21  2  0  0  0
 21 22  1  0  0  0
 22 23  2  0  0  0
 23 24  1  0  0  0
 24 25  2  0  0  0
 25 26  1  0  0  0
 26 27  2  0  0  0
 27 18  1  0  0  0
 27 22  1  0  0  0
  3 28  1  0  0  0
 28 29  1  0  0  0
 29 30  2  0  0  0
 30 31  1  0  0  0
 31 32  2  0  0  0
 32 33  1  0  0  0
 33 34  1  0  0  0
 33 35  2  0  0  0
 35 29  1  0  0  0
  4  3  1  0  0  0
  4  5  1  0  0  0
  5  6  1  0  0  0
  7  6  1  0  0  0
  7  8  1  0  0  0
  7  9  1  0  0  0
  8  4  1  0  0  0
  9 12  1  0  0  0
  9 10  1  0  0  0
  9 11  1  0  0  0
 12 13  1  0  0  0
 13 14  1  0  0  0
 14 15  1  0  0  0
 15 16  1  0  0  0
 16 13  1  0  0  0
 10  4  1  0  0  0
M  CHG 1   9   1
M  END
> <minimizedAffinity>
-8.10491

> <CNNscore>
0.2580441833

> <CNNaffinity>
6.2473497391

> <CNN_VS>
1.6120922565

> <CNNaffinity_variance>
0.1484954059

$$$$



 37 41  0  0  0  0  0  0  0  0999 V2000
   -9.4082   -1.6168  -23.3635 N   0  0  0  0  0  0  0  0  0  0  0  0
   -9.5385   -0.7122  -23.7295 H   0  0  0  0  0  0  0  0  0  0  0  0
  -12.6830    3.5056  -22.9277 C   0  0  0  0  0  0  0  0  0  0  0  0
  -13.5588    3.0724  -22.1468 O   0  0  0  0  0  0  0  0  0  0  0  0
  -11.7555    2.7030  -23.6373 N   0  0  0  0  0  0  0  0  0  0  0  0
  -10.7377    3.3523  -24.4794 C   0  0  0  0  0  0  0  0  0  0  0  0
   -9.7157    2.3128  -24.8754 C   0  0  0  0  0  0  0  0  0  0  0  0
   -9.4124    1.4196  -23.6451 C   0  0  0  0  0  0  0  0  0  0  0  0
  -10.5705    0.5744  -23.5168 C   0  0  0  0  0  0  0  0  0  0  0  0
  -11.8065    1.2838  -23.5206 C   0  0  0  0  0  0  0  0  0  0  0  0
  -13.0144    0.6763  -23.4120 C   0  0  0  0  0  0  0  0  0  0  0  0
  -13.0721   -0.6838  -23.2919 C   0  0  0  0  0  0  0  0  0  0  0  0
  -11.8799   -1.3751  -23.2870 C   0  0  0  0  0  0  0  0  0  0  0  0
  -10.6389   -0.7761  -23.3964 C   0  0  0  0  0  0  0  0  0  0  0  0
  -13.6468    5.6109  -23.6676 C   0  0  0  0  0  0  0  0  0  0  0  0
  -12.6416    4.9656  -23.0986 C   0  0  0  0  0  0  0  0  0  0  0  0
   -8.6495   -1.4277  -22.2148 C   0  0  0  0  0  0  0  0  0  0  0  0
   -8.2575   -2.6026  -21.8670 O   0  0  0  0  0  0  0  0  0  0  0  0
   -8.1614   -0.4409  -21.3104 C   0  0  0  0  0  0  0  0  0  0  0  0
   -7.1457   -0.5309  -20.3039 C   0  0  0  0  0  0  0  0  0  0  0  0
   -7.1272   -1.3526  -19.1984 C   0  0  0  0  0  0  0  0  0  0  0  0
   -6.1142   -1.3562  -18.2984 N   0  0  0  0  0  0  0  0  0  0  0  0
   -5.0569   -0.5463  -18.4377 C   0  0  0  0  0  0  0  0  0  0  0  0
   -5.0277    0.2888  -19.5179 C   0  0  0  0  0  0  0  0  0  0  0  0
   -3.9500    1.1257  -19.6690 C   0  0  0  0  0  0  0  0  0  0  0  0
   -3.8189    2.0058  -20.7131 C   0  0  0  0  0  0  0  0  0  0  0  0
   -4.8268    2.0392  -21.6472 C   0  0  0  0  0  0  0  0  0  0  0  0
   -5.9190    1.1908  -21.4940 C   0  0  0  0  0  0  0  0  0  0  0  0
   -6.0250    0.3131  -20.4311 C   0  0  0  0  0  0  0  0  0  0  0  0
   -8.7804   -1.3557  -24.5525 C   0  0  0  0  0  0  0  0  0  0  0  0
   -8.4518   -2.7430  -25.1147 C   0  0  0  0  0  0  0  0  0  0  0  0
   -7.1735   -3.1570  -25.3032 C   0  0  0  0  0  0  0  0  0  0  0  0
   -6.8656   -4.4074  -25.8004 C   0  0  0  0  0  0  0  0  0  0  0  0
   -7.8956   -5.2794  -26.1218 C   0  0  0  0  0  0  0  0  0  0  0  0
   -9.1909   -4.8850  -25.9408 C   0  0  0  0  0  0  0  0  0  0  0  0
  -10.5220   -5.9503  -26.3320 Cl  0  0  0  0  0  0  0  0  0  0  0  0
   -9.4697   -3.6231  -25.4394 C   0  0  0  0  0  0  0  0  0  0  0  0
 15 16  2  0  0  0
 16  3  1  0  0  0
  3  4  2  0  0  0
  3  5  1  0  0  0
  5  6  1  0  0  0
  6  7  1  0  0  0
  7  8  1  0  0  0
  8  9  1  0  0  0
  9 10  2  0  0  0
 10 11  1  0  0  0
 10  5  1  0  0  0
 11 12  2  0  0  0
 12 13  1  0  0  0
 13 14  2  0  0  0
 14  1  1  0  0  0
 14  9  1  0  0  0
  1 30  1  0  0  0
  1 17  1  0  0  0
  1  2  1  0  0  0
 30 31  1  0  0  0
 31 32  2  0  0  0
 32 33  1  0  0  0
 33 34  2  0  0  0
 34 35  1  0  0  0
 35 36  1  0  0  0
 35 37  2  0  0  0
 37 31  1  0  0  0
 17 18  2  0  0  0
 17 19  1  0  0  0
 19 20  1  0  0  0
 20 21  2  0  0  0
 21 22  1  0  0  0
 22 23  2  0  0  0
 23 24  1  0  0  0
 24 25  2  0  0  0
 25 26  1  0  0  0
 26 27  2  0  0  0
 27 28  1  0  0  0
 28 29  2  0  0  0
 29 20  1  0  0  0
 29 24  1  0  0  0
M  CHG 1   1   1
M  END
> <minimizedAffinity>
-9.20828

> <CNNscore>
0.7579581738

> <CNNaffinity>
7.0365343094

> <CNN_VS>
5.3333988190

> <CNNaffinity_variance>
0.0802734569

$$$$



 37 41  0  0  0  0  0  0  0  0999 V2000
   -8.0689   -1.3575  -23.0796 N   0  0  0  0  0  0  0  0  0  0  0  0
   -7.6967   -1.4385  -23.9874 H   0  0  0  0  0  0  0  0  0  0  0  0
   -6.2562    4.1205  -25.0440 C   0  0  0  0  0  0  0  0  0  0  0  0
   -6.2750    3.8681  -26.2689 O   0  0  0  0  0  0  0  0  0  0  0  0
   -6.3256    3.1523  -24.0117 N   0  0  0  0  0  0  0  0  0  0  0  0
   -6.3531    3.5962  -22.6085 C   0  0  0  0  0  0  0  0  0  0  0  0
   -6.7218    2.4139  -21.7437 C   0  0  0  0  0  0  0  0  0  0  0  0
   -7.8517    1.6174  -22.4456 C   0  0  0  0  0  0  0  0  0  0  0  0
   -7.1923    0.9254  -23.5218 C   0  0  0  0  0  0  0  0  0  0  0  0
   -6.3813    1.7663  -24.3380 C   0  0  0  0  0  0  0  0  0  0  0  0
   -5.6743    1.3131  -25.4032 C   0  0  0  0  0  0  0  0  0  0  0  0
   -5.7281   -0.0133  -25.7279 C   0  0  0  0  0  0  0  0  0  0  0  0
   -6.5113   -0.8312  -24.9425 C   0  0  0  0  0  0  0  0  0  0  0  0
   -7.2393   -0.3903  -23.8533 C   0  0  0  0  0  0  0  0  0  0  0  0
   -7.2210    6.3237  -24.6922 C   0  0  0  0  0  0  0  0  0  0  0  0
   -6.1532    5.5425  -24.6837 C   0  0  0  0  0  0  0  0  0  0  0  0
   -7.3113   -2.2297  -22.3075 C   0  0  0  0  0  0  0  0  0  0  0  0
   -7.8312   -3.3914  -22.4948 O   0  0  0  0  0  0  0  0  0  0  0  0
   -6.2043   -2.3067  -21.4139 C   0  0  0  0  0  0  0  0  0  0  0  0
   -5.8614   -1.4817  -20.2936 C   0  0  0  0  0  0  0  0  0  0  0  0
   -6.3654   -1.5495  -19.0134 C   0  0  0  0  0  0  0  0  0  0  0  0
   -5.9751   -0.7128  -18.0215 N   0  0  0  0  0  0  0  0  0  0  0  0
   -5.0617    0.2426  -18.2362 C   0  0  0  0  0  0  0  0  0  0  0  0
   -4.5315    0.3515  -19.4900 C   0  0  0  0  0  0  0  0  0  0  0  0
   -3.5964    1.3295  -19.7223 C   0  0  0  0  0  0  0  0  0  0  0  0
   -3.0016    1.5300  -20.9421 C   0  0  0  0  0  0  0  0  0  0  0  0
   -3.3717    0.7011  -21.9742 C   0  0  0  0  0  0  0  0  0  0  0  0
   -4.3194   -0.2903  -21.7386 C   0  0  0  0  0  0  0  0  0  0  0  0
   -4.9028   -0.4699  -20.4982 C   0  0  0  0  0  0  0  0  0  0  0  0
   -8.8887   -1.9331  -24.0137 C   0  0  0  0  0  0  0  0  0  0  0  0
  -10.2772   -1.3707  -23.6904 C   0  0  0  0  0  0  0  0  0  0  0  0
  -10.6237   -0.0947  -23.9947 C   0  0  0  0  0  0  0  0  0  0  0  0
  -11.8741    0.4198  -23.7163 C   0  0  0  0  0  0  0  0  0  0  0  0
  -12.8174   -0.3916  -23.1026 C   0  0  0  0  0  0  0  0  0  0  0  0
  -12.4918   -1.6800  -22.7865 C   0  0  0  0  0  0  0  0  0  0  0  0
  -13.6484   -2.7395  -22.0122 Cl  0  0  0  0  0  0  0  0  0  0  0  0
  -11.2280   -2.1692  -23.0784 C   0  0  0  0  0  0  0  0  0  0  0  0
 15 16  2  0  0  0
 16  3  1  0  0  0
  3  4  2  0  0  0
  3  5  1  0  0  0
  5  6  1  0  0  0
  6  7  1  0  0  0
  7  8  1  0  0  0
  8  9  1  0  0  0
  9 10  2  0  0  0
 10 11  1  0  0  0
 10  5  1  0  0  0
 11 12  2  0  0  0
 12 13  1  0  0  0
 13 14  2  0  0  0
 14  1  1  0  0  0
 14  9  1  0  0  0
  1 30  1  0  0  0
  1 17  1  0  0  0
  1  2  1  0  0  0
 30 31  1  0  0  0
 31 32  2  0  0  0
 32 33  1  0  0  0
 33 34  2  0  0  0
 34 35  1  0  0  0
 35 36  1  0  0  0
 35 37  2  0  0  0
 37 31  1  0  0  0
 17 18  2  0  0  0
 17 19  1  0  0  0
 19 20  1  0  0  0
 20 21  2  0  0  0
 21 22  1  0  0  0
 22 23  2  0  0  0
 23 24  1  0  0  0
 24 25  2  0  0  0
 25 26  1  0  0  0
 26 27  2  0  0  0
 27 28  1  0  0  0
 28 29  2  0  0  0
 29 20  1  0  0  0
 29 24  1  0  0  0
M  CHG 1   1   1
M  END
> <minimizedAffinity>
-7.46297

> <CNNscore>
0.6470435858

> <CNNaffinity>
6.8959951401

> <CNN_VS>
4.4620094299

> <CNNaffinity_variance>
0.0445027873

$$$$



 37 41  0  0  0  0  0  0  0  0999 V2000
   -6.2130   -1.1739  -21.8039 N   0  0  0  0  0  0  0  0  0  0  0  0
   -5.7945   -1.2090  -20.9135 H   0  0  0  0  0  0  0  0  0  0  0  0
   -0.8012    1.6134  -21.4920 C   0  0  0  0  0  0  0  0  0  0  0  0
   -0.5051    1.2631  -20.3284 O   0  0  0  0  0  0  0  0  0  0  0  0
   -2.0889    1.5030  -22.0729 N   0  0  0  0  0  0  0  0  0  0  0  0
   -2.2822    1.9010  -23.4768 C   0  0  0  0  0  0  0  0  0  0  0  0
   -3.6404    1.4152  -23.9253 C   0  0  0  0  0  0  0  0  0  0  0  0
   -3.8664   -0.0138  -23.3681 C   0  0  0  0  0  0  0  0  0  0  0  0
   -4.1369    0.1820  -21.9679 C   0  0  0  0  0  0  0  0  0  0  0  0
   -3.1767    0.9985  -21.3029 C   0  0  0  0  0  0  0  0  0  0  0  0
   -3.2469    1.3072  -19.9839 C   0  0  0  0  0  0  0  0  0  0  0  0
   -4.2826    0.8211  -19.2363 C   0  0  0  0  0  0  0  0  0  0  0  0
   -5.2139    0.0305  -19.8739 C   0  0  0  0  0  0  0  0  0  0  0  0
   -5.1612   -0.2961  -21.2161 C   0  0  0  0  0  0  0  0  0  0  0  0
    1.4055    1.4903  -22.5040 C   0  0  0  0  0  0  0  0  0  0  0  0
    0.2964    2.1794  -22.2903 C   0  0  0  0  0  0  0  0  0  0  0  0
   -7.5022   -0.7109  -21.5709 C   0  0  0  0  0  0  0  0  0  0  0  0
   -7.6768   -0.8110  -20.3003 O   0  0  0  0  0  0  0  0  0  0  0  0
   -8.6642   -0.1817  -22.2032 C   0  0  0  0  0  0  0  0  0  0  0  0
   -9.9087   -0.8130  -22.5279 C   0  0  0  0  0  0  0  0  0  0  0  0
  -10.1988   -2.1596  -22.5102 C   0  0  0  0  0  0  0  0  0  0  0  0
  -11.4147   -2.6569  -22.8425 N   0  0  0  0  0  0  0  0  0  0  0  0
  -12.4184   -1.8515  -23.2128 C   0  0  0  0  0  0  0  0  0  0  0  0
  -12.1813   -0.5070  -23.2469 C   0  0  0  0  0  0  0  0  0  0  0  0
  -13.2023    0.3280  -23.6280 C   0  0  0  0  0  0  0  0  0  0  0  0
  -13.0742    1.6919  -23.7003 C   0  0  0  0  0  0  0  0  0  0  0  0
  -11.8551    2.2346  -23.3710 C   0  0  0  0  0  0  0  0  0  0  0  0
  -10.8203    1.3882  -22.9846 C   0  0  0  0  0  0  0  0  0  0  0  0
  -10.9776    0.0162  -22.9206 C   0  0  0  0  0  0  0  0  0  0  0  0
   -5.9243   -2.4249  -21.3267 C   0  0  0  0  0  0  0  0  0  0  0  0
   -6.2936   -3.3608  -22.4828 C   0  0  0  0  0  0  0  0  0  0  0  0
   -6.3190   -2.9354  -23.7709 C   0  0  0  0  0  0  0  0  0  0  0  0
   -6.6413   -3.7715  -24.8209 C   0  0  0  0  0  0  0  0  0  0  0  0
   -6.9523   -5.0977  -24.5579 C   0  0  0  0  0  0  0  0  0  0  0  0
   -6.9336   -5.5493  -23.2688 C   0  0  0  0  0  0  0  0  0  0  0  0
   -7.3186   -7.2129  -22.8894 Cl  0  0  0  0  0  0  0  0  0  0  0  0
   -6.6059   -4.6864  -22.2346 C   0  0  0  0  0  0  0  0  0  0  0  0
 15 16  2  0  0  0
 16  3  1  0  0  0
  3  4  2  0  0  0
  3  5  1  0  0  0
  5  6  1  0  0  0
  6  7  1  0  0  0
  7  8  1  0  0  0
  8  9  1  0  0  0
  9 10  2  0  0  0
 10 11  1  0  0  0
 10  5  1  0  0  0
 11 12  2  0  0  0
 12 13  1  0  0  0
 13 14  2  0  0  0
 14  1  1  0  0  0
 14  9  1  0  0  0
  1 30  1  0  0  0
  1 17  1  0  0  0
  1  2  1  0  0  0
 30 31  1  0  0  0
 31 32  2  0  0  0
 32 33  1  0  0  0
 33 34  2  0  0  0
 34 35  1  0  0  0
 35 36  1  0  0  0
 35 37  2  0  0  0
 37 31  1  0  0  0
 17 18  2  0  0  0
 17 19  1  0  0  0
 19 20  1  0  0  0
 20 21  2  0  0  0
 21 22  1  0  0  0
 22 23  2  0  0  0
 23 24  1  0  0  0
 24 25  2  0  0  0
 25 26  1  0  0  0
 26 27  2  0  0  0
 27 28  1  0  0  0
 28 29  2  0  0  0
 29 20  1  0  0  0
 29 24  1  0  0  0
M  CHG 1   1   1
M  END
> <minimizedAffinity>
-8.05677

> <CNNscore>
0.4783189893

> <CNNaffinity>
6.5017714500

> <CNN_VS>
3.1099207401

> <CNNaffinity_variance>
0.1836371720

$$$$



 37 41  0  0  0  0  0  0  0  0999 V2000
   -9.2086   -1.3063  -23.1537 N   0  0  0  0  0  0  0  0  0  0  0  0
  -10.0548   -1.4101  -22.6615 H   0  0  0  0  0  0  0  0  0  0  0  0
  -12.7539    3.6435  -22.8648 C   0  0  0  0  0  0  0  0  0  0  0  0
  -13.6668    3.1487  -22.1675 O   0  0  0  0  0  0  0  0  0  0  0  0
  -11.7348    2.9047  -23.5156 N   0  0  0  0  0  0  0  0  0  0  0  0
  -10.6861    3.6236  -24.2574 C   0  0  0  0  0  0  0  0  0  0  0  0
   -9.5863    2.6441  -24.5936 C   0  0  0  0  0  0  0  0  0  0  0  0
   -9.3386    1.7330  -23.3639 C   0  0  0  0  0  0  0  0  0  0  0  0
  -10.4605    0.8314  -23.3493 C   0  0  0  0  0  0  0  0  0  0  0  0
  -11.7255    1.4820  -23.4365 C   0  0  0  0  0  0  0  0  0  0  0  0
  -12.9071    0.8159  -23.4400 C   0  0  0  0  0  0  0  0  0  0  0  0
  -12.9077   -0.5482  -23.3566 C   0  0  0  0  0  0  0  0  0  0  0  0
  -11.6874   -1.1827  -23.2716 C   0  0  0  0  0  0  0  0  0  0  0  0
  -10.4723   -0.5236  -23.2663 C   0  0  0  0  0  0  0  0  0  0  0  0
  -13.8351    5.7342  -23.4719 C   0  0  0  0  0  0  0  0  0  0  0  0
  -12.7704    5.1079  -22.9977 C   0  0  0  0  0  0  0  0  0  0  0  0
   -9.1640   -2.3963  -24.0144 C   0  0  0  0  0  0  0  0  0  0  0  0
   -8.9333   -1.9024  -25.1796 O   0  0  0  0  0  0  0  0  0  0  0  0
   -9.2755   -3.8154  -24.0771 C   0  0  0  0  0  0  0  0  0  0  0  0
   -8.3091   -4.8028  -24.4566 C   0  0  0  0  0  0  0  0  0  0  0  0
   -7.2434   -5.2652  -23.7161 C   0  0  0  0  0  0  0  0  0  0  0  0
   -6.3795   -6.2039  -24.1729 N   0  0  0  0  0  0  0  0  0  0  0  0
   -6.5174   -6.7425  -25.3912 C   0  0  0  0  0  0  0  0  0  0  0  0
   -7.5588   -6.3169  -26.1654 C   0  0  0  0  0  0  0  0  0  0  0  0
   -7.7081   -6.8601  -27.4173 C   0  0  0  0  0  0  0  0  0  0  0  0
   -8.7149   -6.5046  -28.2787 C   0  0  0  0  0  0  0  0  0  0  0  0
   -9.6118   -5.5547  -27.8514 C   0  0  0  0  0  0  0  0  0  0  0  0
   -9.4604   -5.0043  -26.5824 C   0  0  0  0  0  0  0  0  0  0  0  0
   -8.4357   -5.3816  -25.7346 C   0  0  0  0  0  0  0  0  0  0  0  0
   -9.0939   -1.5858  -21.8177 C   0  0  0  0  0  0  0  0  0  0  0  0
   -7.6407   -1.2310  -21.4846 C   0  0  0  0  0  0  0  0  0  0  0  0
   -6.6846   -1.1456  -22.4435 C   0  0  0  0  0  0  0  0  0  0  0  0
   -5.3747   -0.8181  -22.1563 C   0  0  0  0  0  0  0  0  0  0  0  0
   -5.0141   -0.5654  -20.8407 C   0  0  0  0  0  0  0  0  0  0  0  0
   -5.9593   -0.6454  -19.8577 C   0  0  0  0  0  0  0  0  0  0  0  0
   -5.5510   -0.3353  -18.1853 Cl  0  0  0  0  0  0  0  0  0  0  0  0
   -7.2672   -0.9763  -20.1762 C   0  0  0  0  0  0  0  0  0  0  0  0
 15 16  2  0  0  0
 16  3  1  0  0  0
  3  4  2  0  0  0
  3  5  1  0  0  0
  5  6  1  0  0  0
  6  7  1  0  0  0
  7  8  1  0  0  0
  8  9  1  0  0  0
  9 10  2  0  0  0
 10 11  1  0  0  0
 10  5  1  0  0  0
 11 12  2  0  0  0
 12 13  1  0  0  0
 13 14  2  0  0  0
 14  1  1  0  0  0
 14  9  1  0  0  0
  1 30  1  0  0  0
  1 17  1  0  0  0
  1  2  1  0  0  0
 30 31  1  0  0  0
 31 32  2  0  0  0
 32 33  1  0  0  0
 33 34  2  0  0  0
 34 35  1  0  0  0
 35 36  1  0  0  0
 35 37  2  0  0  0
 37 31  1  0  0  0
 17 18  2  0  0  0
 17 19  1  0  0  0
 19 20  1  0  0  0
 20 21  2  0  0  0
 21 22  1  0  0  0
 22 23  2  0  0  0
 23 24  1  0  0  0
 24 25  2  0  0  0
 25 26  1  0  0  0
 26 27  2  0  0  0
 27 28  1  0  0  0
 28 29  2  0  0  0
 29 20  1  0  0  0
 29 24  1  0  0  0
M  CHG 1   1   1
M  END
> <minimizedAffinity>
-9.16440

> <CNNscore>
0.4745533168

> <CNNaffinity>
6.6918907166

> <CNN_VS>
3.1756589413

> <CNNaffinity_variance>
0.1813718379

$$$$



 37 41  0  0  0  0  0  0  0  0999 V2000
   -8.8561   -0.8760  -23.5757 N   0  0  0  0  0  0  0  0  0  0  0  0
   -8.2957   -0.0970  -23.3557 H   0  0  0  0  0  0  0  0  0  0  0  0
   -4.0953    1.2614  -20.4262 C   0  0  0  0  0  0  0  0  0  0  0  0
   -3.8037    0.1998  -19.8325 O   0  0  0  0  0  0  0  0  0  0  0  0
   -5.3044    1.4972  -21.1264 N   0  0  0  0  0  0  0  0  0  0  0  0
   -5.4907    2.7759  -21.8314 C   0  0  0  0  0  0  0  0  0  0  0  0
   -6.7052    2.6547  -22.7214 C   0  0  0  0  0  0  0  0  0  0  0  0
   -6.6877    1.2608  -23.3998 C   0  0  0  0  0  0  0  0  0  0  0  0
   -7.0681    0.3453  -22.3562 C   0  0  0  0  0  0  0  0  0  0  0  0
   -6.3183    0.4964  -21.1538 C   0  0  0  0  0  0  0  0  0  0  0  0
   -6.5193   -0.2657  -20.0498 C   0  0  0  0  0  0  0  0  0  0  0  0
   -7.4844   -1.2331  -20.0699 C   0  0  0  0  0  0  0  0  0  0  0  0
   -8.2123   -1.3841  -21.2303 C   0  0  0  0  0  0  0  0  0  0  0  0
   -8.0239   -0.6188  -22.3659 C   0  0  0  0  0  0  0  0  0  0  0  0
   -1.7913    2.0332  -20.3572 C   0  0  0  0  0  0  0  0  0  0  0  0
   -3.0817    2.3254  -20.3725 C   0  0  0  0  0  0  0  0  0  0  0  0
   -8.1638   -1.5366  -24.5832 C   0  0  0  0  0  0  0  0  0  0  0  0
   -8.3810   -0.8538  -25.6515 O   0  0  0  0  0  0  0  0  0  0  0  0
   -7.3271   -2.6568  -24.8575 C   0  0  0  0  0  0  0  0  0  0  0  0
   -7.4562   -4.0269  -24.4584 C   0  0  0  0  0  0  0  0  0  0  0  0
   -7.0402   -4.6019  -23.2777 C   0  0  0  0  0  0  0  0  0  0  0  0
   -7.2065   -5.9176  -22.9990 N   0  0  0  0  0  0  0  0  0  0  0  0
   -7.7949   -6.7449  -23.8722 C   0  0  0  0  0  0  0  0  0  0  0  0
   -8.2250   -6.2232  -25.0587 C   0  0  0  0  0  0  0  0  0  0  0  0
   -8.8270   -7.0629  -25.9628 C   0  0  0  0  0  0  0  0  0  0  0  0
   -9.2935   -6.6470  -27.1840 C   0  0  0  0  0  0  0  0  0  0  0  0
   -9.1428   -5.3187  -27.5037 C   0  0  0  0  0  0  0  0  0  0  0  0
   -8.5328   -4.4676  -26.5872 C   0  0  0  0  0  0  0  0  0  0  0  0
   -8.0718   -4.9143  -25.3627 C   0  0  0  0  0  0  0  0  0  0  0  0
   -9.3771    0.3479  -23.9024 C   0  0  0  0  0  0  0  0  0  0  0  0
  -10.8799    0.1962  -23.6431 C   0  0  0  0  0  0  0  0  0  0  0  0
  -11.7500    1.2176  -23.8446 C   0  0  0  0  0  0  0  0  0  0  0  0
  -13.1065    1.0897  -23.6229 C   0  0  0  0  0  0  0  0  0  0  0  0
  -13.6070   -0.1251  -23.1775 C   0  0  0  0  0  0  0  0  0  0  0  0
  -12.7504   -1.1682  -22.9673 C   0  0  0  0  0  0  0  0  0  0  0  0
  -13.3358   -2.7181  -22.4061 Cl  0  0  0  0  0  0  0  0  0  0  0  0
  -11.3928   -1.0103  -23.1987 C   0  0  0  0  0  0  0  0  0  0  0  0
 15 16  2  0  0  0
 16  3  1  0  0  0
  3  4  2  0  0  0
  3  5  1  0  0  0
  5  6  1  0  0  0
  6  7  1  0  0  0
  7  8  1  0  0  0
  8  9  1  0  0  0
  9 10  2  0  0  0
 10 11  1  0  0  0
 10  5  1  0  0  0
 11 12  2  0  0  0
 12 13  1  0  0  0
 13 14  2  0  0  0
 14  1  1  0  0  0
 14  9  1  0  0  0
  1 30  1  0  0  0
  1 17  1  0  0  0
  1  2  1  0  0  0
 30 31  1  0  0  0
 31 32  2  0  0  0
 32 33  1  0  0  0
 33 34  2  0  0  0
 34 35  1  0  0  0
 35 36  1  0  0  0
 35 37  2  0  0  0
 37 31  1  0  0  0
 17 18  2  0  0  0
 17 19  1  0  0  0
 19 20  1  0  0  0
 20 21  2  0  0  0
 21 22  1  0  0  0
 22 23  2  0  0  0
 23 24  1  0  0  0
 24 25  2  0  0  0
 25 26  1  0  0  0
 26 27  2  0  0  0
 27 28  1  0  0  0
 28 29  2  0  0  0
 29 20  1  0  0  0
 29 24  1  0  0  0
M  CHG 1   1   1
M  END
> <minimizedAffinity>
-8.30534

> <CNNscore>
0.3960599601

> <CNNaffinity>
6.8019018173

> <CNN_VS>
2.6939609051

> <CNNaffinity_variance>
0.0730958506

$$$$



 37 41  0  0  0  0  0  0  0  0999 V2000
   -9.8545   -1.8134  -23.5144 N   0  0  0  0  0  0  0  0  0  0  0  0
   -9.9245   -0.8841  -23.8319 H   0  0  0  0  0  0  0  0  0  0  0  0
  -12.7759    3.4934  -22.8389 C   0  0  0  0  0  0  0  0  0  0  0  0
  -13.6701    3.0889  -22.0636 O   0  0  0  0  0  0  0  0  0  0  0  0
  -11.9117    2.6597  -23.5911 N   0  0  0  0  0  0  0  0  0  0  0  0
  -10.8620    3.2727  -24.4213 C   0  0  0  0  0  0  0  0  0  0  0  0
   -9.9158    2.1841  -24.8703 C   0  0  0  0  0  0  0  0  0  0  0  0
   -9.6594    1.2253  -23.6793 C   0  0  0  0  0  0  0  0  0  0  0  0
  -10.8698    0.4542  -23.5681 C   0  0  0  0  0  0  0  0  0  0  0  0
  -12.0557    1.2434  -23.5282 C   0  0  0  0  0  0  0  0  0  0  0  0
  -13.3003    0.7134  -23.4269 C   0  0  0  0  0  0  0  0  0  0  0  0
  -13.4471   -0.6436  -23.3582 C   0  0  0  0  0  0  0  0  0  0  0  0
  -12.3036   -1.4119  -23.3957 C   0  0  0  0  0  0  0  0  0  0  0  0
  -11.0267   -0.8925  -23.4986 C   0  0  0  0  0  0  0  0  0  0  0  0
  -13.6436    5.6963  -23.3896 C   0  0  0  0  0  0  0  0  0  0  0  0
  -12.6392    4.9531  -22.9543 C   0  0  0  0  0  0  0  0  0  0  0  0
   -9.0847   -1.7356  -22.3601 C   0  0  0  0  0  0  0  0  0  0  0  0
   -9.0633   -2.9299  -21.8826 O   0  0  0  0  0  0  0  0  0  0  0  0
   -8.3334   -0.8464  -21.5386 C   0  0  0  0  0  0  0  0  0  0  0  0
   -6.9878   -0.3740  -21.6770 C   0  0  0  0  0  0  0  0  0  0  0  0
   -6.3102   -0.0942  -22.8433 C   0  0  0  0  0  0  0  0  0  0  0  0
   -5.0287    0.3457  -22.8648 N   0  0  0  0  0  0  0  0  0  0  0  0
   -4.3392    0.5356  -21.7326 C   0  0  0  0  0  0  0  0  0  0  0  0
   -4.9666    0.2718  -20.5487 C   0  0  0  0  0  0  0  0  0  0  0  0
   -4.2682    0.4602  -19.3819 C   0  0  0  0  0  0  0  0  0  0  0  0
   -4.7984    0.2240  -18.1389 C   0  0  0  0  0  0  0  0  0  0  0  0
   -6.0964   -0.2237  -18.0756 C   0  0  0  0  0  0  0  0  0  0  0  0
   -6.8043   -0.4144  -19.2584 C   0  0  0  0  0  0  0  0  0  0  0  0
   -6.2445   -0.1681  -20.4982 C   0  0  0  0  0  0  0  0  0  0  0  0
   -9.2109   -1.5323  -24.6904 C   0  0  0  0  0  0  0  0  0  0  0  0
   -8.9685   -2.9074  -25.3222 C   0  0  0  0  0  0  0  0  0  0  0  0
   -9.9879   -3.7554  -25.6093 C   0  0  0  0  0  0  0  0  0  0  0  0
   -9.7821   -4.9924  -26.1864 C   0  0  0  0  0  0  0  0  0  0  0  0
   -8.4878   -5.3909  -26.4872 C   0  0  0  0  0  0  0  0  0  0  0  0
   -7.4449   -4.5542  -26.2073 C   0  0  0  0  0  0  0  0  0  0  0  0
   -5.7964   -5.0141  -26.5689 Cl  0  0  0  0  0  0  0  0  0  0  0  0
   -7.6821   -3.3176  -25.6276 C   0  0  0  0  0  0  0  0  0  0  0  0
 15 16  2  0  0  0
 16  3  1  0  0  0
  3  4  2  0  0  0
  3  5  1  0  0  0
  5  6  1  0  0  0
  6  7  1  0  0  0
  7  8  1  0  0  0
  8  9  1  0  0  0
  9 10  2  0  0  0
 10 11  1  0  0  0
 10  5  1  0  0  0
 11 12  2  0  0  0
 12 13  1  0  0  0
 13 14  2  0  0  0
 14  1  1  0  0  0
 14  9  1  0  0  0
  1 30  1  0  0  0
  1 17  1  0  0  0
  1  2  1  0  0  0
 30 31  1  0  0  0
 31 32  2  0  0  0
 32 33  1  0  0  0
 33 34  2  0  0  0
 34 35  1  0  0  0
 35 36  1  0  0  0
 35 37  2  0  0  0
 37 31  1  0  0  0
 17 18  2  0  0  0
 17 19  1  0  0  0
 19 20  1  0  0  0
 20 21  2  0  0  0
 21 22  1  0  0  0
 22 23  2  0  0  0
 23 24  1  0  0  0
 24 25  2  0  0  0
 25 26  1  0  0  0
 26 27  2  0  0  0
 27 28  1  0  0  0
 28 29  2  0  0  0
 29 20  1  0  0  0
 29 24  1  0  0  0
M  CHG 1   1   1
M  END
> <minimizedAffinity>
-8.38442

> <CNNscore>
0.3441559970

> <CNNaffinity>
6.6902365685

> <CNN_VS>
2.3024849892

> <CNNaffinity_variance>
0.0500650033

$$$$



 37 41  0  0  0  0  0  0  0  0999 V2000
   -9.3199   -1.5100  -23.2778 N   0  0  0  0  0  0  0  0  0  0  0  0
  -10.1630   -1.6080  -22.7789 H   0  0  0  0  0  0  0  0  0  0  0  0
  -12.7360    3.5164  -22.8096 C   0  0  0  0  0  0  0  0  0  0  0  0
  -13.6514    3.0261  -22.1124 O   0  0  0  0  0  0  0  0  0  0  0  0
  -11.7447    2.7701  -23.4939 N   0  0  0  0  0  0  0  0  0  0  0  0
  -10.6886    3.4822  -24.2318 C   0  0  0  0  0  0  0  0  0  0  0  0
   -9.6183    2.4851  -24.6090 C   0  0  0  0  0  0  0  0  0  0  0  0
   -9.3767    1.5361  -23.4071 C   0  0  0  0  0  0  0  0  0  0  0  0
  -10.5206    0.6624  -23.3999 C   0  0  0  0  0  0  0  0  0  0  0  0
  -11.7699    1.3460  -23.4520 C   0  0  0  0  0  0  0  0  0  0  0  0
  -12.9678    0.7096  -23.4559 C   0  0  0  0  0  0  0  0  0  0  0  0
  -13.0013   -0.6558  -23.4080 C   0  0  0  0  0  0  0  0  0  0  0  0
  -11.7962   -1.3222  -23.3569 C   0  0  0  0  0  0  0  0  0  0  0  0
  -10.5651   -0.6937  -23.3519 C   0  0  0  0  0  0  0  0  0  0  0  0
  -13.7121    5.6390  -23.4808 C   0  0  0  0  0  0  0  0  0  0  0  0
  -12.7176    4.9838  -22.9042 C   0  0  0  0  0  0  0  0  0  0  0  0
   -9.3118   -2.5742  -24.1712 C   0  0  0  0  0  0  0  0  0  0  0  0
   -9.1265   -2.0464  -25.3297 O   0  0  0  0  0  0  0  0  0  0  0  0
   -9.4288   -3.9907  -24.2712 C   0  0  0  0  0  0  0  0  0  0  0  0
   -8.5952   -4.9420  -24.9442 C   0  0  0  0  0  0  0  0  0  0  0  0
   -8.7268   -5.4135  -26.2319 C   0  0  0  0  0  0  0  0  0  0  0  0
   -7.8816   -6.3230  -26.7747 N   0  0  0  0  0  0  0  0  0  0  0  0
   -6.8540   -6.8218  -26.0758 C   0  0  0  0  0  0  0  0  0  0  0  0
   -6.6804   -6.3864  -24.7931 C   0  0  0  0  0  0  0  0  0  0  0  0
   -5.6319   -6.8934  -24.0663 C   0  0  0  0  0  0  0  0  0  0  0  0
   -5.3661   -6.5290  -22.7707 C   0  0  0  0  0  0  0  0  0  0  0  0
   -6.2017   -5.6083  -22.1847 C   0  0  0  0  0  0  0  0  0  0  0  0
   -7.2644   -5.0943  -22.9216 C   0  0  0  0  0  0  0  0  0  0  0  0
   -7.5087   -5.4797  -24.2266 C   0  0  0  0  0  0  0  0  0  0  0  0
   -9.1974   -1.8325  -21.9522 C   0  0  0  0  0  0  0  0  0  0  0  0
   -7.7466   -1.4737  -21.6124 C   0  0  0  0  0  0  0  0  0  0  0  0
   -6.7596   -1.5172  -22.5424 C   0  0  0  0  0  0  0  0  0  0  0  0
   -5.4514   -1.1878  -22.2499 C   0  0  0  0  0  0  0  0  0  0  0  0
   -5.1252   -0.7966  -20.9595 C   0  0  0  0  0  0  0  0  0  0  0  0
   -6.1020   -0.7452  -20.0058 C   0  0  0  0  0  0  0  0  0  0  0  0
   -5.7377   -0.2579  -18.3658 Cl  0  0  0  0  0  0  0  0  0  0  0  0
   -7.4073   -1.0817  -20.3290 C   0  0  0  0  0  0  0  0  0  0  0  0
 15 16  2  0  0  0
 16  3  1  0  0  0
  3  4  2  0  0  0
  3  5  1  0  0  0
  5  6  1  0  0  0
  6  7  1  0  0  0
  7  8  1  0  0  0
  8  9  1  0  0  0
  9 10  2  0  0  0
 10 11  1  0  0  0
 10  5  1  0  0  0
 11 12  2  0  0  0
 12 13  1  0  0  0
 13 14  2  0  0  0
 14  1  1  0  0  0
 14  9  1  0  0  0
  1 30  1  0  0  0
  1 17  1  0  0  0
  1  2  1  0  0  0
 30 31  1  0  0  0
 31 32  2  0  0  0
 32 33  1  0  0  0
 33 34  2  0  0  0
 34 35  1  0  0  0
 35 36  1  0  0  0
 35 37  2  0  0  0
 37 31  1  0  0  0
 17 18  2  0  0  0
 17 19  1  0  0  0
 19 20  1  0  0  0
 20 21  2  0  0  0
 21 22  1  0  0  0
 22 23  2  0  0  0
 23 24  1  0  0  0
 24 25  2  0  0  0
 25 26  1  0  0  0
 26 27  2  0  0  0
 27 28  1  0  0  0
 28 29  2  0  0  0
 29 20  1  0  0  0
 29 24  1  0  0  0
M  CHG 1   1   1
M  END
> <minimizedAffinity>
-9.13368

> <CNNscore>
0.3136357665

> <CNNaffinity>
6.5567297935

> <CNN_VS>
2.0564248562

> <CNNaffinity_variance>
0.3500128984

$$$$



 37 41  0  0  0  0  0  0  0  0999 V2000
   -8.8926    0.0681  -24.0512 N   0  0  0  0  0  0  0  0  0  0  0  0
   -8.2926    0.3428  -23.3207 H   0  0  0  0  0  0  0  0  0  0  0  0
   -5.7436   -4.7503  -22.0464 C   0  0  0  0  0  0  0  0  0  0  0  0
   -5.4383   -4.2893  -20.9245 O   0  0  0  0  0  0  0  0  0  0  0  0
   -6.2666   -3.9925  -23.1234 N   0  0  0  0  0  0  0  0  0  0  0  0
   -6.6384   -4.6774  -24.3723 C   0  0  0  0  0  0  0  0  0  0  0  0
   -7.4274   -3.7128  -25.2259 C   0  0  0  0  0  0  0  0  0  0  0  0
   -8.4090   -2.9310  -24.3155 C   0  0  0  0  0  0  0  0  0  0  0  0
   -7.5776   -1.9933  -23.6075 C   0  0  0  0  0  0  0  0  0  0  0  0
   -6.4399   -2.5849  -22.9858 C   0  0  0  0  0  0  0  0  0  0  0  0
   -5.5294   -1.8775  -22.2712 C   0  0  0  0  0  0  0  0  0  0  0  0
   -5.6921   -0.5282  -22.1276 C   0  0  0  0  0  0  0  0  0  0  0  0
   -6.7908    0.0493  -22.7262 C   0  0  0  0  0  0  0  0  0  0  0  0
   -7.7301   -0.6525  -23.4582 C   0  0  0  0  0  0  0  0  0  0  0  0
   -6.2935   -7.0759  -21.6012 C   0  0  0  0  0  0  0  0  0  0  0  0
   -5.5302   -6.1942  -22.2261 C   0  0  0  0  0  0  0  0  0  0  0  0
   -8.5413    0.8811  -25.1220 C   0  0  0  0  0  0  0  0  0  0  0  0
   -8.2747    0.0759  -26.0892 O   0  0  0  0  0  0  0  0  0  0  0  0
   -8.3747    2.2364  -25.5286 C   0  0  0  0  0  0  0  0  0  0  0  0
   -9.1769    3.0466  -26.3965 C   0  0  0  0  0  0  0  0  0  0  0  0
   -9.1628    3.0731  -27.7737 C   0  0  0  0  0  0  0  0  0  0  0  0
   -9.9640    3.8860  -28.5043 N   0  0  0  0  0  0  0  0  0  0  0  0
  -10.8284    4.7227  -27.9161 C   0  0  0  0  0  0  0  0  0  0  0  0
  -10.8803    4.7347  -26.5514 C   0  0  0  0  0  0  0  0  0  0  0  0
  -11.7608    5.5908  -25.9377 C   0  0  0  0  0  0  0  0  0  0  0  0
  -11.8938    5.6872  -24.5758 C   0  0  0  0  0  0  0  0  0  0  0  0
  -11.0977    4.8786  -23.8000 C   0  0  0  0  0  0  0  0  0  0  0  0
  -10.2055    4.0108  -24.4223 C   0  0  0  0  0  0  0  0  0  0  0  0
  -10.0924    3.9343  -25.7980 C   0  0  0  0  0  0  0  0  0  0  0  0
   -9.4899    0.6926  -22.9885 C   0  0  0  0  0  0  0  0  0  0  0  0
  -10.9697    0.3147  -23.1159 C   0  0  0  0  0  0  0  0  0  0  0  0
  -11.9020    1.2002  -23.5490 C   0  0  0  0  0  0  0  0  0  0  0  0
  -13.2359    0.8684  -23.6761 C   0  0  0  0  0  0  0  0  0  0  0  0
  -13.6468   -0.4162  -23.3510 C   0  0  0  0  0  0  0  0  0  0  0  0
  -12.7263   -1.3253  -22.9126 C   0  0  0  0  0  0  0  0  0  0  0  0
  -13.1980   -2.9562  -22.4912 Cl  0  0  0  0  0  0  0  0  0  0  0  0
  -11.3933   -0.9634  -22.7950 C   0  0  0  0  0  0  0  0  0  0  0  0
 15 16  2  0  0  0
 16  3  1  0  0  0
  3  4  2  0  0  0
  3  5  1  0  0  0
  5  6  1  0  0  0
  6  7  1  0  0  0
  7  8  1  0  0  0
  8  9  1  0  0  0
  9 10  2  0  0  0
 10 11  1  0  0  0
 10  5  1  0  0  0
 11 12  2  0  0  0
 12 13  1  0  0  0
 13 14  2  0  0  0
 14  1  1  0  0  0
 14  9  1  0  0  0
  1 30  1  0  0  0
  1 17  1  0  0  0
  1  2  1  0  0  0
 30 31  1  0  0  0
 31 32  2  0  0  0
 32 33  1  0  0  0
 33 34  2  0  0  0
 34 35  1  0  0  0
 35 36  1  0  0  0
 35 37  2  0  0  0
 37 31  1  0  0  0
 17 18  2  0  0  0
 17 19  1  0  0  0
 19 20  1  0  0  0
 20 21  2  0  0  0
 21 22  1  0  0  0
 22 23  2  0  0  0
 23 24  1  0  0  0
 24 25  2  0  0  0
 25 26  1  0  0  0
 26 27  2  0  0  0
 27 28  1  0  0  0
 28 29  2  0  0  0
 29 20  1  0  0  0
 29 24  1  0  0  0
M  CHG 1   1   1
M  END
> <minimizedAffinity>
-6.90523

> <CNNscore>
0.2190834731

> <CNNaffinity>
6.3356752396

> <CNN_VS>
1.3880417347

> <CNNaffinity_variance>
0.0887310952

$$$$



 37 41  0  0  0  0  0  0  0  0999 V2000
   -9.1504    0.0345  -23.4484 N   0  0  0  0  0  0  0  0  0  0  0  0
   -9.2926   -0.8886  -23.7596 H   0  0  0  0  0  0  0  0  0  0  0  0
   -7.0255   -4.7250  -26.6084 C   0  0  0  0  0  0  0  0  0  0  0  0
   -5.9340   -4.2187  -26.9499 O   0  0  0  0  0  0  0  0  0  0  0  0
   -8.1197   -4.0093  -26.0620 N   0  0  0  0  0  0  0  0  0  0  0  0
   -9.3263   -4.7440  -25.6484 C   0  0  0  0  0  0  0  0  0  0  0  0
  -10.1989   -3.8092  -24.8444 C   0  0  0  0  0  0  0  0  0  0  0  0
   -9.2965   -2.9783  -23.8964 C   0  0  0  0  0  0  0  0  0  0  0  0
   -8.6539   -2.0194  -24.7564 C   0  0  0  0  0  0  0  0  0  0  0  0
   -8.0390   -2.5953  -25.9058 C   0  0  0  0  0  0  0  0  0  0  0  0
   -7.3819   -1.8671  -26.8428 C   0  0  0  0  0  0  0  0  0  0  0  0
   -7.2931   -0.5112  -26.6968 C   0  0  0  0  0  0  0  0  0  0  0  0
   -7.8854    0.0512  -25.5868 C   0  0  0  0  0  0  0  0  0  0  0  0
   -8.5593   -0.6719  -24.6206 C   0  0  0  0  0  0  0  0  0  0  0  0
   -6.3487   -7.0172  -26.1654 C   0  0  0  0  0  0  0  0  0  0  0  0
   -7.1478   -6.1774  -26.8032 C   0  0  0  0  0  0  0  0  0  0  0  0
   -8.3891   -0.0951  -22.2932 C   0  0  0  0  0  0  0  0  0  0  0  0
   -8.8701    0.7671  -21.4684 O   0  0  0  0  0  0  0  0  0  0  0  0
   -7.3061   -0.8108  -21.7058 C   0  0  0  0  0  0  0  0  0  0  0  0
   -6.6003   -0.5780  -20.4809 C   0  0  0  0  0  0  0  0  0  0  0  0
   -6.9163   -1.0484  -19.2253 C   0  0  0  0  0  0  0  0  0  0  0  0
   -6.1804   -0.7634  -18.1237 N   0  0  0  0  0  0  0  0  0  0  0  0
   -5.0863    0.0052  -18.1975 C   0  0  0  0  0  0  0  0  0  0  0  0
   -4.7306    0.4972  -19.4208 C   0  0  0  0  0  0  0  0  0  0  0  0
   -3.6123    1.2888  -19.5078 C   0  0  0  0  0  0  0  0  0  0  0  0
   -3.1659    1.8373  -20.6832 C   0  0  0  0  0  0  0  0  0  0  0  0
   -3.8862    1.5712  -21.8233 C   0  0  0  0  0  0  0  0  0  0  0  0
   -5.0196    0.7686  -21.7351 C   0  0  0  0  0  0  0  0  0  0  0  0
   -5.4467    0.2286  -20.5363 C   0  0  0  0  0  0  0  0  0  0  0  0
  -10.4374   -0.4291  -23.3795 C   0  0  0  0  0  0  0  0  0  0  0  0
  -11.2976    0.8232  -23.5810 C   0  0  0  0  0  0  0  0  0  0  0  0
  -12.6296    0.8284  -23.3233 C   0  0  0  0  0  0  0  0  0  0  0  0
  -13.4125    1.9527  -23.4927 C   0  0  0  0  0  0  0  0  0  0  0  0
  -12.8230    3.1251  -23.9428 C   0  0  0  0  0  0  0  0  0  0  0  0
  -11.4833    3.1444  -24.2091 C   0  0  0  0  0  0  0  0  0  0  0  0
  -10.6969    4.5994  -24.7785 Cl  0  0  0  0  0  0  0  0  0  0  0  0
  -10.7223    1.9997  -24.0295 C   0  0  0  0  0  0  0  0  0  0  0  0
 15 16  2  0  0  0
 16  3  1  0  0  0
  3  4  2  0  0  0
  3  5  1  0  0  0
  5  6  1  0  0  0
  6  7  1  0  0  0
  7  8  1  0  0  0
  8  9  1  0  0  0
  9 10  2  0  0  0
 10 11  1  0  0  0
 10  5  1  0  0  0
 11 12  2  0  0  0
 12 13  1  0  0  0
 13 14  2  0  0  0
 14  1  1  0  0  0
 14  9  1  0  0  0
  1 30  1  0  0  0
  1 17  1  0  0  0
  1  2  1  0  0  0
 30 31  1  0  0  0
 31 32  2  0  0  0
 32 33  1  0  0  0
 33 34  2  0  0  0
 34 35  1  0  0  0
 35 36  1  0  0  0
 35 37  2  0  0  0
 37 31  1  0  0  0
 17 18  2  0  0  0
 17 19  1  0  0  0
 19 20  1  0  0  0
 20 21  2  0  0  0
 21 22  1  0  0  0
 22 23  2  0  0  0
 23 24  1  0  0  0
 24 25  2  0  0  0
 25 26  1  0  0  0
 26 27  2  0  0  0
 27 28  1  0  0  0
 28 29  2  0  0  0
 29 20  1  0  0  0
 29 24  1  0  0  0
M  CHG 1   1   1
M  END
> <minimizedAffinity>
-8.51735

> <CNNscore>
0.1805795878

> <CNNaffinity>
6.0896902084

> <CNN_VS>
1.0996737480

> <CNNaffinity_variance>
0.4017900825

$$$$



 24 26  0  0  0  0  0  0  0  0999 V2000
   -7.6643   -5.4895  -24.9610 C   0  0  0  0  0  0  0  0  0  0  0  0
   -6.4749   -4.6784  -25.4537 C   0  0  0  0  0  0  0  0  0  0  0  0
   -8.6869   -4.5808  -24.4131 C   0  0  0  0  0  0  0  0  0  0  0  0
   -8.2319   -3.7238  -23.2514 C   0  0  0  0  0  0  0  0  0  0  0  0
   -7.1448   -4.3140  -22.4990 N   0  0  0  0  0  0  0  0  0  0  0  0
   -6.1961   -3.5034  -21.7812 C   0  0  0  0  0  0  0  0  0  0  0  0
   -5.2538   -4.0143  -21.1223 O   0  0  0  0  0  0  0  0  0  0  0  0
   -7.0609   -5.7558  -22.5014 C   0  0  0  0  0  0  0  0  0  0  0  0
   -7.1890   -6.4123  -23.8110 C   0  0  0  0  0  0  0  0  0  0  0  0
   -8.1703   -6.4331  -25.9839 C   0  0  0  0  0  0  0  0  0  0  0  0
  -10.2771   -6.1133  -27.3176 C   0  0  0  0  0  0  0  0  0  0  0  0
   -8.7921   -5.9575  -27.2258 C   0  0  0  0  0  0  0  0  0  0  0  0
   -8.1934   -6.7315  -28.4266 C   0  0  0  0  0  0  0  0  0  0  0  0
   -6.3856   -2.0342  -21.8568 C   0  0  0  0  0  0  0  0  0  0  0  0
   -6.0324   -1.3209  -20.6214 C   0  0  0  0  0  0  0  0  0  0  0  0
   -6.6646   -1.5089  -19.4096 C   0  0  0  0  0  0  0  0  0  0  0  0
   -6.2789   -0.8116  -18.3072 N   0  0  0  0  0  0  0  0  0  0  0  0
   -5.2575    0.0876  -18.3830 C   0  0  0  0  0  0  0  0  0  0  0  0
   -4.5911    0.3137  -19.5726 C   0  0  0  0  0  0  0  0  0  0  0  0
   -3.5561    1.2359  -19.6023 C   0  0  0  0  0  0  0  0  0  0  0  0
   -2.9036    1.4386  -20.8148 C   0  0  0  0  0  0  0  0  0  0  0  0
   -3.2641    0.7501  -21.9627 C   0  0  0  0  0  0  0  0  0  0  0  0
   -4.3135   -0.1745  -21.8992 C   0  0  0  0  0  0  0  0  0  0  0  0
   -4.9843   -0.3967  -20.6960 C   0  0  0  0  0  0  0  0  0  0  0  0
 11 12  1  0  0  0
 12 13  1  0  0  0
 12 10  1  0  0  0
 10  1  1  0  0  0
  1  2  1  0  0  0
  1  3  1  0  0  0
  3  4  1  0  0  0
  4  5  1  0  0  0
  5  6  1  0  0  0
  5  8  1  0  0  0
  6  7  2  0  0  0
  6 14  1  0  0  0
 14 15  1  0  0  0
 15 16  2  0  0  0
 16 17  1  0  0  0
 17 18  2  0  0  0
 18 19  1  0  0  0
 19 20  2  0  0  0
 20 21  1  0  0  0
 21 22  2  0  0  0
 22 23  1  0  0  0
 23 24  2  0  0  0
 24 15  1  0  0  0
 24 19  1  0  0  0
  8  9  1  0  0  0
  9  1  1  0  0  0
M  END
> <minimizedAffinity>
-7.29159

> <CNNscore>
0.7514328957

> <CNNaffinity>
5.7626667023

> <CNN_VS>
4.3302574158

> <CNNaffinity_variance>
0.1610404551

$$$$



 24 26  0  0  0  0  0  0  0  0999 V2000
   -7.9638   -4.1040  -25.5317 C   0  0  0  0  0  0  0  0  0  0  0  0
   -7.8934   -5.1801  -24.4583 C   0  0  0  0  0  0  0  0  0  0  0  0
   -6.6894   -3.3651  -25.5724 C   0  0  0  0  0  0  0  0  0  0  0  0
   -6.3053   -2.6710  -24.2833 C   0  0  0  0  0  0  0  0  0  0  0  0
   -7.4446   -2.3330  -23.4564 N   0  0  0  0  0  0  0  0  0  0  0  0
   -7.3341   -2.2286  -22.0249 C   0  0  0  0  0  0  0  0  0  0  0  0
   -8.3216   -1.9296  -21.3049 O   0  0  0  0  0  0  0  0  0  0  0  0
   -8.6966   -2.1023  -24.1386 C   0  0  0  0  0  0  0  0  0  0  0  0
   -9.0793   -3.0992  -25.1497 C   0  0  0  0  0  0  0  0  0  0  0  0
   -8.4030   -4.6372  -26.8415 C   0  0  0  0  0  0  0  0  0  0  0  0
   -8.3111   -6.7033  -28.2705 C   0  0  0  0  0  0  0  0  0  0  0  0
   -8.7772   -6.0467  -27.0097 C   0  0  0  0  0  0  0  0  0  0  0  0
  -10.3211   -6.1715  -26.9934 C   0  0  0  0  0  0  0  0  0  0  0  0
   -5.9962   -2.4909  -21.4407 C   0  0  0  0  0  0  0  0  0  0  0  0
   -5.6613   -1.6267  -20.3001 C   0  0  0  0  0  0  0  0  0  0  0  0
   -6.0987   -1.8419  -19.0095 C   0  0  0  0  0  0  0  0  0  0  0  0
   -5.7440   -0.9973  -18.0039 N   0  0  0  0  0  0  0  0  0  0  0  0
   -4.9476    0.0794  -18.2570 C   0  0  0  0  0  0  0  0  0  0  0  0
   -4.4824    0.3404  -19.5321 C   0  0  0  0  0  0  0  0  0  0  0  0
   -3.6723    1.4459  -19.7425 C   0  0  0  0  0  0  0  0  0  0  0  0
   -3.2184    1.6794  -21.0372 C   0  0  0  0  0  0  0  0  0  0  0  0
   -3.5556    0.8448  -22.0915 C   0  0  0  0  0  0  0  0  0  0  0  0
   -4.3753   -0.2632  -21.8456 C   0  0  0  0  0  0  0  0  0  0  0  0
   -4.8440   -0.5202  -20.5568 C   0  0  0  0  0  0  0  0  0  0  0  0
 11 12  1  0  0  0
 12 13  1  0  0  0
 12 10  1  0  0  0
 10  1  1  0  0  0
  1  2  1  0  0  0
  1  3  1  0  0  0
  3  4  1  0  0  0
  4  5  1  0  0  0
  5  6  1  0  0  0
  5  8  1  0  0  0
  6  7  2  0  0  0
  6 14  1  0  0  0
 14 15  1  0  0  0
 15 16  2  0  0  0
 16 17  1  0  0  0
 17 18  2  0  0  0
 18 19  1  0  0  0
 19 20  2  0  0  0
 20 21  1  0  0  0
 21 22  2  0  0  0
 22 23  1  0  0  0
 23 24  2  0  0  0
 24 15  1  0  0  0
 24 19  1  0  0  0
  8  9  1  0  0  0
  9  1  1  0  0  0
M  END
> <minimizedAffinity>
-7.02192

> <CNNscore>
0.5850672722

> <CNNaffinity>
5.4121499062

> <CNN_VS>
3.1664717197

> <CNNaffinity_variance>
0.0590280183

$$$$



 24 26  0  0  0  0  0  0  0  0999 V2000
   -3.8111    1.6304  -20.9816 C   0  0  0  0  0  0  0  0  0  0  0  0
   -5.0559    2.3889  -21.4180 C   0  0  0  0  0  0  0  0  0  0  0  0
   -3.6302    0.4460  -21.8395 C   0  0  0  0  0  0  0  0  0  0  0  0
   -4.7743   -0.5450  -21.8198 C   0  0  0  0  0  0  0  0  0  0  0  0
   -5.5391   -0.5084  -20.5910 N   0  0  0  0  0  0  0  0  0  0  0  0
   -6.9291   -0.8811  -20.5555 C   0  0  0  0  0  0  0  0  0  0  0  0
   -7.5942   -0.8553  -19.4879 O   0  0  0  0  0  0  0  0  0  0  0  0
   -4.8381   -0.0828  -19.4021 C   0  0  0  0  0  0  0  0  0  0  0  0
   -4.0208    1.1331  -19.5295 C   0  0  0  0  0  0  0  0  0  0  0  0
   -2.6190    2.5037  -20.8865 C   0  0  0  0  0  0  0  0  0  0  0  0
   -0.2927    1.7744  -20.2732 C   0  0  0  0  0  0  0  0  0  0  0  0
   -1.2991    2.0530  -21.3445 C   0  0  0  0  0  0  0  0  0  0  0  0
   -0.6780    3.1367  -22.2605 C   0  0  0  0  0  0  0  0  0  0  0  0
   -7.5384   -1.2982  -21.8419 C   0  0  0  0  0  0  0  0  0  0  0  0
   -8.4711   -0.3142  -22.4092 C   0  0  0  0  0  0  0  0  0  0  0  0
   -8.1428    0.9977  -22.6824 C   0  0  0  0  0  0  0  0  0  0  0  0
   -9.0619    1.8502  -23.2106 N   0  0  0  0  0  0  0  0  0  0  0  0
  -10.3268    1.4196  -23.4792 C   0  0  0  0  0  0  0  0  0  0  0  0
  -10.7072    0.1155  -23.2243 C   0  0  0  0  0  0  0  0  0  0  0  0
  -12.0040   -0.2791  -23.5161 C   0  0  0  0  0  0  0  0  0  0  0  0
  -12.3547   -1.5994  -23.2502 C   0  0  0  0  0  0  0  0  0  0  0  0
  -11.4502   -2.5016  -22.7121 C   0  0  0  0  0  0  0  0  0  0  0  0
  -10.1483   -2.0715  -22.4288 C   0  0  0  0  0  0  0  0  0  0  0  0
   -9.7707   -0.7531  -22.6860 C   0  0  0  0  0  0  0  0  0  0  0  0
 11 12  1  0  0  0
 12 13  1  0  0  0
 12 10  1  0  0  0
 10  1  1  0  0  0
  1  2  1  0  0  0
  1  3  1  0  0  0
  3  4  1  0  0  0
  4  5  1  0  0  0
  5  6  1  0  0  0
  5  8  1  0  0  0
  6  7  2  0  0  0
  6 14  1  0  0  0
 14 15  1  0  0  0
 15 16  2  0  0  0
 16 17  1  0  0  0
 17 18  2  0  0  0
 18 19  1  0  0  0
 19 20  2  0  0  0
 20 21  1  0  0  0
 21 22  2  0  0  0
 22 23  1  0  0  0
 23 24  2  0  0  0
 24 15  1  0  0  0
 24 19  1  0  0  0
  8  9  1  0  0  0
  9  1  1  0  0  0
M  END
> <minimizedAffinity>
-6.56335

> <CNNscore>
0.3851951659

> <CNNaffinity>
5.2205882072

> <CNN_VS>
2.0109453201

> <CNNaffinity_variance>
0.1888360828

$$$$



 24 26  0  0  0  0  0  0  0  0999 V2000
   -3.9583    1.4573  -21.2742 C   0  0  0  0  0  0  0  0  0  0  0  0
   -5.2894    2.0682  -21.6869 C   0  0  0  0  0  0  0  0  0  0  0  0
   -3.8480    0.0966  -21.8289 C   0  0  0  0  0  0  0  0  0  0  0  0
   -4.9268   -0.8690  -21.3873 C   0  0  0  0  0  0  0  0  0  0  0  0
   -5.5033   -0.5312  -20.1029 N   0  0  0  0  0  0  0  0  0  0  0  0
   -6.8531   -0.8972  -19.7616 C   0  0  0  0  0  0  0  0  0  0  0  0
   -7.3543   -0.6094  -18.6440 O   0  0  0  0  0  0  0  0  0  0  0  0
   -4.6567    0.1880  -19.1800 C   0  0  0  0  0  0  0  0  0  0  0  0
   -3.9275    1.3407  -19.7297 C   0  0  0  0  0  0  0  0  0  0  0  0
   -2.8094    2.3385  -21.5842 C   0  0  0  0  0  0  0  0  0  0  0  0
   -1.1444    3.8555  -20.4679 C   0  0  0  0  0  0  0  0  0  0  0  0
   -1.6729    2.4698  -20.6642 C   0  0  0  0  0  0  0  0  0  0  0  0
   -0.4900    1.6178  -21.1877 C   0  0  0  0  0  0  0  0  0  0  0  0
   -7.6239   -1.6318  -20.7941 C   0  0  0  0  0  0  0  0  0  0  0  0
   -8.0369   -0.8029  -21.9352 C   0  0  0  0  0  0  0  0  0  0  0  0
   -8.5428    0.4756  -21.8222 C   0  0  0  0  0  0  0  0  0  0  0  0
   -8.9019    1.1829  -22.9273 N   0  0  0  0  0  0  0  0  0  0  0  0
   -8.7668    0.6370  -24.1688 C   0  0  0  0  0  0  0  0  0  0  0  0
   -8.2654   -0.6399  -24.3374 C   0  0  0  0  0  0  0  0  0  0  0  0
   -8.1430   -1.1537  -25.6195 C   0  0  0  0  0  0  0  0  0  0  0  0
   -7.6324   -2.4412  -25.7555 C   0  0  0  0  0  0  0  0  0  0  0  0
   -7.2545   -3.1972  -24.6567 C   0  0  0  0  0  0  0  0  0  0  0  0
   -7.3906   -2.6494  -23.3756 C   0  0  0  0  0  0  0  0  0  0  0  0
   -7.8998   -1.3607  -23.2113 C   0  0  0  0  0  0  0  0  0  0  0  0
 11 12  1  0  0  0
 12 13  1  0  0  0
 12 10  1  0  0  0
 10  1  1  0  0  0
  1  2  1  0  0  0
  1  3  1  0  0  0
  3  4  1  0  0  0
  4  5  1  0  0  0
  5  6  1  0  0  0
  5  8  1  0  0  0
  6  7  2  0  0  0
  6 14  1  0  0  0
 14 15  1  0  0  0
 15 16  2  0  0  0
 16 17  1  0  0  0
 17 18  2  0  0  0
 18 19  1  0  0  0
 19 20  2  0  0  0
 20 21  1  0  0  0
 21 22  2  0  0  0
 22 23  1  0  0  0
 23 24  2  0  0  0
 24 15  1  0  0  0
 24 19  1  0  0  0
  8  9  1  0  0  0
  9  1  1  0  0  0
M  END
> <minimizedAffinity>
-5.76043

> <CNNscore>
0.3687271476

> <CNNaffinity>
5.1569867134

> <CNN_VS>
1.9015209675

> <CNNaffinity_variance>
0.1055027843

$$$$



 24 26  0  0  0  0  0  0  0  0999 V2000
   -7.9060   -3.9183  -25.9321 C   0  0  0  0  0  0  0  0  0  0  0  0
   -8.2700   -3.6904  -24.4724 C   0  0  0  0  0  0  0  0  0  0  0  0
   -6.4530   -4.1334  -26.0494 C   0  0  0  0  0  0  0  0  0  0  0  0
   -5.5904   -2.9908  -25.5579 C   0  0  0  0  0  0  0  0  0  0  0  0
   -6.2558   -1.7064  -25.6205 N   0  0  0  0  0  0  0  0  0  0  0  0
   -5.9147   -0.6350  -24.7216 C   0  0  0  0  0  0  0  0  0  0  0  0
   -6.4878    0.4837  -24.7776 O   0  0  0  0  0  0  0  0  0  0  0  0
   -7.2760   -1.5520  -26.6310 C   0  0  0  0  0  0  0  0  0  0  0  0
   -8.2596   -2.6405  -26.7334 C   0  0  0  0  0  0  0  0  0  0  0  0
   -8.7327   -4.9713  -26.5651 C   0  0  0  0  0  0  0  0  0  0  0  0
   -8.0066   -6.7422  -28.1950 C   0  0  0  0  0  0  0  0  0  0  0  0
   -8.2175   -6.3302  -26.7724 C   0  0  0  0  0  0  0  0  0  0  0  0
   -9.2084   -7.3517  -26.1608 C   0  0  0  0  0  0  0  0  0  0  0  0
   -4.8523   -0.9159  -23.7254 C   0  0  0  0  0  0  0  0  0  0  0  0
   -5.3260   -0.9341  -22.3343 C   0  0  0  0  0  0  0  0  0  0  0  0
   -6.3924   -1.6870  -21.8880 C   0  0  0  0  0  0  0  0  0  0  0  0
   -6.7710   -1.6530  -20.5818 N   0  0  0  0  0  0  0  0  0  0  0  0
   -6.0995   -0.8712  -19.6900 C   0  0  0  0  0  0  0  0  0  0  0  0
   -5.0245   -0.0976  -20.0852 C   0  0  0  0  0  0  0  0  0  0  0  0
   -4.3695    0.6805  -19.1427 C   0  0  0  0  0  0  0  0  0  0  0  0
   -3.2893    1.4458  -19.5721 C   0  0  0  0  0  0  0  0  0  0  0  0
   -2.8700    1.4415  -20.8934 C   0  0  0  0  0  0  0  0  0  0  0  0
   -3.5527    0.6448  -21.8203 C   0  0  0  0  0  0  0  0  0  0  0  0
   -4.6389   -0.1321  -21.4161 C   0  0  0  0  0  0  0  0  0  0  0  0
 11 12  1  0  0  0
 12 13  1  0  0  0
 12 10  1  0  0  0
 10  1  1  0  0  0
  1  2  1  0  0  0
  1  3  1  0  0  0
  3  4  1  0  0  0
  4  5  1  0  0  0
  5  6  1  0  0  0
  5  8  1  0  0  0
  6  7  2  0  0  0
  6 14  1  0  0  0
 14 15  1  0  0  0
 15 16  2  0  0  0
 16 17  1  0  0  0
 17 18  2  0  0  0
 18 19  1  0  0  0
 19 20  2  0  0  0
 20 21  1  0  0  0
 21 22  2  0  0  0
 22 23  1  0  0  0
 23 24  2  0  0  0
 24 15  1  0  0  0
 24 19  1  0  0  0
  8  9  1  0  0  0
  9  1  1  0  0  0
M  END
> <minimizedAffinity>
-5.39331

> <CNNscore>
0.3354219198

> <CNNaffinity>
5.0897660255

> <CNN_VS>
1.7072191238

> <CNNaffinity_variance>
0.1414748728

$$$$



 24 26  0  0  0  0  0  0  0  0999 V2000
   -7.4313   -5.6175  -25.2259 C   0  0  0  0  0  0  0  0  0  0  0  0
   -6.4074   -4.5603  -25.6120 C   0  0  0  0  0  0  0  0  0  0  0  0
   -8.5990   -4.9682  -24.6043 C   0  0  0  0  0  0  0  0  0  0  0  0
   -8.3026   -4.1702  -23.3527 C   0  0  0  0  0  0  0  0  0  0  0  0
   -7.1259   -4.6325  -22.6472 N   0  0  0  0  0  0  0  0  0  0  0  0
   -6.3363   -3.7453  -21.8336 C   0  0  0  0  0  0  0  0  0  0  0  0
   -5.3165   -4.1461  -21.2153 O   0  0  0  0  0  0  0  0  0  0  0  0
   -6.7851   -6.0279  -22.7971 C   0  0  0  0  0  0  0  0  0  0  0  0
   -6.7961   -6.5560  -24.1696 C   0  0  0  0  0  0  0  0  0  0  0  0
   -7.7621   -6.5238  -26.3492 C   0  0  0  0  0  0  0  0  0  0  0  0
  -10.0646   -6.2987  -27.3327 C   0  0  0  0  0  0  0  0  0  0  0  0
   -8.5918   -6.0787  -27.4755 C   0  0  0  0  0  0  0  0  0  0  0  0
   -8.1572   -6.8293  -28.7589 C   0  0  0  0  0  0  0  0  0  0  0  0
   -6.7860   -2.3338  -21.7602 C   0  0  0  0  0  0  0  0  0  0  0  0
   -5.7062   -1.3519  -21.9320 C   0  0  0  0  0  0  0  0  0  0  0  0
   -5.0900   -1.0795  -23.1360 C   0  0  0  0  0  0  0  0  0  0  0  0
   -4.0971   -0.1533  -23.2165 N   0  0  0  0  0  0  0  0  0  0  0  0
   -3.6938    0.5230  -22.1041 C   0  0  0  0  0  0  0  0  0  0  0  0
   -4.2780    0.2880  -20.8737 C   0  0  0  0  0  0  0  0  0  0  0  0
   -3.8375    1.0016  -19.7694 C   0  0  0  0  0  0  0  0  0  0  0  0
   -4.4478    0.7434  -18.5456 C   0  0  0  0  0  0  0  0  0  0  0  0
   -5.4628   -0.1921  -18.4182 C   0  0  0  0  0  0  0  0  0  0  0  0
   -5.8847   -0.8957  -19.5526 C   0  0  0  0  0  0  0  0  0  0  0  0
   -5.2896   -0.6560  -20.7916 C   0  0  0  0  0  0  0  0  0  0  0  0
 11 12  1  0  0  0
 12 13  1  0  0  0
 12 10  1  0  0  0
 10  1  1  0  0  0
  1  2  1  0  0  0
  1  3  1  0  0  0
  3  4  1  0  0  0
  4  5  1  0  0  0
  5  6  1  0  0  0
  5  8  1  0  0  0
  6  7  2  0  0  0
  6 14  1  0  0  0
 14 15  1  0  0  0
 15 16  2  0  0  0
 16 17  1  0  0  0
 17 18  2  0  0  0
 18 19  1  0  0  0
 19 20  2  0  0  0
 20 21  1  0  0  0
 21 22  2  0  0  0
 22 23  1  0  0  0
 23 24  2  0  0  0
 24 15  1  0  0  0
 24 19  1  0  0  0
  8  9  1  0  0  0
  9  1  1  0  0  0
M  END
> <minimizedAffinity>
-6.69440

> <CNNscore>
0.3289895058

> <CNNaffinity>
5.3985528946

> <CNN_VS>
1.7760672569

> <CNNaffinity_variance>
0.0506816804

$$$$



 24 26  0  0  0  0  0  0  0  0999 V2000
   -3.7722    1.4064  -20.8842 C   0  0  0  0  0  0  0  0  0  0  0  0
   -4.8317    2.4001  -21.3374 C   0  0  0  0  0  0  0  0  0  0  0  0
   -3.6200    0.3509  -21.9011 C   0  0  0  0  0  0  0  0  0  0  0  0
   -4.8718   -0.4486  -22.1927 C   0  0  0  0  0  0  0  0  0  0  0  0
   -5.7983   -0.4828  -21.0807 N   0  0  0  0  0  0  0  0  0  0  0  0
   -7.2146   -0.6437  -21.2827 C   0  0  0  0  0  0  0  0  0  0  0  0
   -8.0210   -0.6791  -20.3176 O   0  0  0  0  0  0  0  0  0  0  0  0
   -5.2316   -0.3510  -19.7588 C   0  0  0  0  0  0  0  0  0  0  0  0
   -4.2556    0.7336  -19.5751 C   0  0  0  0  0  0  0  0  0  0  0  0
   -2.5053    2.0665  -20.4943 C   0  0  0  0  0  0  0  0  0  0  0  0
   -0.2806    2.1084  -21.6639 C   0  0  0  0  0  0  0  0  0  0  0  0
   -1.6384    2.7111  -21.4882 C   0  0  0  0  0  0  0  0  0  0  0  0
   -1.4146    4.1909  -21.0887 C   0  0  0  0  0  0  0  0  0  0  0  0
   -7.6759   -0.7663  -22.6871 C   0  0  0  0  0  0  0  0  0  0  0  0
   -9.0423   -1.2896  -22.8246 C   0  0  0  0  0  0  0  0  0  0  0  0
   -9.3774   -2.6230  -22.7096 C   0  0  0  0  0  0  0  0  0  0  0  0
  -10.6675   -3.0315  -22.8476 N   0  0  0  0  0  0  0  0  0  0  0  0
  -11.6535   -2.1258  -23.1027 C   0  0  0  0  0  0  0  0  0  0  0  0
  -11.3716   -0.7784  -23.2273 C   0  0  0  0  0  0  0  0  0  0  0  0
  -12.4070    0.1073  -23.4844 C   0  0  0  0  0  0  0  0  0  0  0  0
  -12.0905    1.4575  -23.6016 C   0  0  0  0  0  0  0  0  0  0  0  0
  -10.7895    1.9173  -23.4686 C   0  0  0  0  0  0  0  0  0  0  0  0
   -9.7668    0.9971  -23.2091 C   0  0  0  0  0  0  0  0  0  0  0  0
  -10.0570   -0.3622  -23.0869 C   0  0  0  0  0  0  0  0  0  0  0  0
 11 12  1  0  0  0
 12 13  1  0  0  0
 12 10  1  0  0  0
 10  1  1  0  0  0
  1  2  1  0  0  0
  1  3  1  0  0  0
  3  4  1  0  0  0
  4  5  1  0  0  0
  5  6  1  0  0  0
  5  8  1  0  0  0
  6  7  2  0  0  0
  6 14  1  0  0  0
 14 15  1  0  0  0
 15 16  2  0  0  0
 16 17  1  0  0  0
 17 18  2  0  0  0
 18 19  1  0  0  0
 19 20  2  0  0  0
 20 21  1  0  0  0
 21 22  2  0  0  0
 22 23  1  0  0  0
 23 24  2  0  0  0
 24 15  1  0  0  0
 24 19  1  0  0  0
  8  9  1  0  0  0
  9  1  1  0  0  0
M  END
> <minimizedAffinity>
-6.30247

> <CNNscore>
0.3209711611

> <CNNaffinity>
5.0650091171

> <CNN_VS>
1.6257218122

> <CNNaffinity_variance>
0.3026283383

$$$$



 24 26  0  0  0  0  0  0  0  0999 V2000
   -7.0346   -3.7176  -23.5583 C   0  0  0  0  0  0  0  0  0  0  0  0
   -8.5513   -3.7703  -23.4487 C   0  0  0  0  0  0  0  0  0  0  0  0
   -6.5034   -2.7530  -22.5791 C   0  0  0  0  0  0  0  0  0  0  0  0
   -7.0020   -1.3326  -22.7378 C   0  0  0  0  0  0  0  0  0  0  0  0
   -7.4034   -1.0173  -24.0927 N   0  0  0  0  0  0  0  0  0  0  0  0
   -8.4025   -0.0190  -24.3711 C   0  0  0  0  0  0  0  0  0  0  0  0
   -8.7489    0.2605  -25.5479 O   0  0  0  0  0  0  0  0  0  0  0  0
   -6.7499   -1.7512  -25.1511 C   0  0  0  0  0  0  0  0  0  0  0  0
   -6.6602   -3.2082  -24.9726 C   0  0  0  0  0  0  0  0  0  0  0  0
   -6.4140   -5.0604  -23.4916 C   0  0  0  0  0  0  0  0  0  0  0  0
   -5.7350   -6.6054  -21.6285 C   0  0  0  0  0  0  0  0  0  0  0  0
   -6.8263   -6.0472  -22.4860 C   0  0  0  0  0  0  0  0  0  0  0  0
   -7.4894   -7.2541  -23.1952 C   0  0  0  0  0  0  0  0  0  0  0  0
   -9.0032    0.6649  -23.2000 C   0  0  0  0  0  0  0  0  0  0  0  0
  -10.4079    1.0533  -23.3894 C   0  0  0  0  0  0  0  0  0  0  0  0
  -10.8209    2.3205  -23.7456 C   0  0  0  0  0  0  0  0  0  0  0  0
  -12.1418    2.6037  -23.9047 N   0  0  0  0  0  0  0  0  0  0  0  0
  -13.0819    1.6355  -23.7138 C   0  0  0  0  0  0  0  0  0  0  0  0
  -12.7216    0.3500  -23.3561 C   0  0  0  0  0  0  0  0  0  0  0  0
  -13.7120   -0.6034  -23.1752 C   0  0  0  0  0  0  0  0  0  0  0  0
  -13.3163   -1.8889  -22.8179 C   0  0  0  0  0  0  0  0  0  0  0  0
  -11.9815   -2.2210  -22.6448 C   0  0  0  0  0  0  0  0  0  0  0  0
  -11.0058   -1.2352  -22.8352 C   0  0  0  0  0  0  0  0  0  0  0  0
  -11.3757    0.0615  -23.1938 C   0  0  0  0  0  0  0  0  0  0  0  0
 11 12  1  0  0  0
 12 13  1  0  0  0
 12 10  1  0  0  0
 10  1  1  0  0  0
  1  2  1  0  0  0
  1  3  1  0  0  0
  3  4  1  0  0  0
  4  5  1  0  0  0
  5  6  1  0  0  0
  5  8  1  0  0  0
  6  7  2  0  0  0
  6 14  1  0  0  0
 14 15  1  0  0  0
 15 16  2  0  0  0
 16 17  1  0  0  0
 17 18  2  0  0  0
 18 19  1  0  0  0
 19 20  2  0  0  0
 20 21  1  0  0  0
 21 22  2  0  0  0
 22 23  1  0  0  0
 23 24  2  0  0  0
 24 15  1  0  0  0
 24 19  1  0  0  0
  8  9  1  0  0  0
  9  1  1  0  0  0
M  END
> <minimizedAffinity>
-6.08198

> <CNNscore>
0.3171260655

> <CNNaffinity>
5.4110794067

> <CNN_VS>
1.7159943581

> <CNNaffinity_variance>
0.1284377873

$$$$



 24 26  0  0  0  0  0  0  0  0999 V2000
  -10.0044   -1.6076  -23.3417 C   0  0  0  0  0  0  0  0  0  0  0  0
   -9.6513   -0.1392  -23.5275 C   0  0  0  0  0  0  0  0  0  0  0  0
   -9.5915   -2.0470  -21.9971 C   0  0  0  0  0  0  0  0  0  0  0  0
   -8.1132   -1.9128  -21.7008 C   0  0  0  0  0  0  0  0  0  0  0  0
   -7.2871   -1.9597  -22.8888 N   0  0  0  0  0  0  0  0  0  0  0  0
   -6.0094   -1.2988  -22.9464 C   0  0  0  0  0  0  0  0  0  0  0  0
   -5.2874   -1.3428  -23.9759 O   0  0  0  0  0  0  0  0  0  0  0  0
   -7.8062   -2.7047  -24.0119 C   0  0  0  0  0  0  0  0  0  0  0  0
   -9.2065   -2.4409  -24.3756 C   0  0  0  0  0  0  0  0  0  0  0  0
  -11.4187   -1.8971  -23.6717 C   0  0  0  0  0  0  0  0  0  0  0  0
  -13.4454   -2.4775  -22.3024 C   0  0  0  0  0  0  0  0  0  0  0  0
  -12.5174   -1.4247  -22.8204 C   0  0  0  0  0  0  0  0  0  0  0  0
  -13.3892   -0.4239  -23.6189 C   0  0  0  0  0  0  0  0  0  0  0  0
   -5.5861   -0.5633  -21.7299 C   0  0  0  0  0  0  0  0  0  0  0  0
   -5.6113    0.8989  -21.8755 C   0  0  0  0  0  0  0  0  0  0  0  0
   -6.7497    1.6325  -22.1385 C   0  0  0  0  0  0  0  0  0  0  0  0
   -6.6939    2.9864  -22.2576 N   0  0  0  0  0  0  0  0  0  0  0  0
   -5.5071    3.6420  -22.1183 C   0  0  0  0  0  0  0  0  0  0  0  0
   -4.3374    2.9546  -21.8544 C   0  0  0  0  0  0  0  0  0  0  0  0
   -3.1536    3.6633  -21.7178 C   0  0  0  0  0  0  0  0  0  0  0  0
   -1.9939    2.9421  -21.4498 C   0  0  0  0  0  0  0  0  0  0  0  0
   -2.0051    1.5619  -21.3210 C   0  0  0  0  0  0  0  0  0  0  0  0
   -3.2171    0.8759  -21.4645 C   0  0  0  0  0  0  0  0  0  0  0  0
   -4.3943    1.5750  -21.7333 C   0  0  0  0  0  0  0  0  0  0  0  0
 11 12  1  0  0  0
 12 13  1  0  0  0
 12 10  1  0  0  0
 10  1  1  0  0  0
  1  2  1  0  0  0
  1  3  1  0  0  0
  3  4  1  0  0  0
  4  5  1  0  0  0
  5  6  1  0  0  0
  5  8  1  0  0  0
  6  7  2  0  0  0
  6 14  1  0  0  0
 14 15  1  0  0  0
 15 16  2  0  0  0
 16 17  1  0  0  0
 17 18  2  0  0  0
 18 19  1  0  0  0
 19 20  2  0  0  0
 20 21  1  0  0  0
 21 22  2  0  0  0
 22 23  1  0  0  0
 23 24  2  0  0  0
 24 15  1  0  0  0
 24 19  1  0  0  0
  8  9  1  0  0  0
  9  1  1  0  0  0
M  END
> <minimizedAffinity>
-5.43077

> <CNNscore>
0.2955845296

> <CNNaffinity>
5.2068381310

> <CNN_VS>
1.5390608311

> <CNNaffinity_variance>
0.0906204581

$$$$



 31 35  0  0  0  0  0  0  0  0999 V2000
   -7.4079   -0.5938  -23.7556 C   0  0  0  0  0  0  0  0  0  0  0  0
   -7.4550   -2.0936  -23.5672 C   0  0  0  0  0  0  0  0  0  0  0  0
   -8.6075   -2.4466  -22.6161 C   0  0  0  0  0  0  0  0  0  0  0  0
   -9.7396   -2.3362  -23.4817 N   0  0  0  0  0  0  0  0  0  0  0  0
   -9.3110   -2.8834  -24.7409 C   0  0  0  0  0  0  0  0  0  0  0  0
  -10.0633   -3.3177  -25.6674 O   0  0  0  0  0  0  0  0  0  0  0  0
   -7.8283   -2.8652  -24.7990 C   0  0  0  0  0  0  0  0  0  0  0  0
   -7.2860   -2.2989  -26.0561 C   0  0  0  0  0  0  0  0  0  0  0  0
   -5.8473   -2.3531  -26.0688 N   0  0  0  0  0  0  0  0  0  0  0  0
   -5.2373   -3.6355  -25.8102 C   0  0  0  0  0  0  0  0  0  0  0  0
   -4.0556   -3.8857  -26.2293 O   0  0  0  0  0  0  0  0  0  0  0  0
   -6.0191   -4.6076  -25.0644 C   0  0  0  0  0  0  0  0  0  0  0  0
   -5.4707   -5.8602  -24.8958 C   0  0  0  0  0  0  0  0  0  0  0  0
   -6.2000   -6.8498  -24.2754 C   0  0  0  0  0  0  0  0  0  0  0  0
   -7.4694   -6.5362  -23.8440 C   0  0  0  0  0  0  0  0  0  0  0  0
   -8.1945   -7.5173  -23.2298 F   0  0  0  0  0  0  0  0  0  0  0  0
   -8.0118   -5.2578  -24.0222 C   0  0  0  0  0  0  0  0  0  0  0  0
   -7.2829   -4.2576  -24.6427 C   0  0  0  0  0  0  0  0  0  0  0  0
  -11.0436   -1.8150  -23.2675 C   0  0  0  0  0  0  0  0  0  0  0  0
  -12.0823   -2.6580  -22.8543 C   0  0  0  0  0  0  0  0  0  0  0  0
  -13.3349   -2.1688  -22.6481 N   0  0  0  0  0  0  0  0  0  0  0  0
  -13.6357   -0.8793  -22.8258 C   0  0  0  0  0  0  0  0  0  0  0  0
  -12.6628   -0.0047  -23.2294 C   0  0  0  0  0  0  0  0  0  0  0  0
  -12.9714    1.3269  -23.4151 C   0  0  0  0  0  0  0  0  0  0  0  0
  -12.0055    2.2278  -23.8240 C   0  0  0  0  0  0  0  0  0  0  0  0
  -10.7094    1.7520  -24.0436 C   0  0  0  0  0  0  0  0  0  0  0  0
  -10.4364    0.4152  -23.8483 C   0  0  0  0  0  0  0  0  0  0  0  0
  -11.3853   -0.4941  -23.4417 C   0  0  0  0  0  0  0  0  0  0  0  0
   -4.9566   -1.2732  -26.3636 C   0  0  0  0  0  0  0  0  0  0  0  0
   -4.2191   -0.7161  -25.2689 C   0  0  0  0  0  0  0  0  0  0  0  0
   -3.6169   -0.2746  -24.4105 N   0  0  0  0  0  0  0  0  0  0  0  0
  2  1  1  0  0  0
  2  3  1  0  0  0
  3  4  1  0  0  0
  4 19  1  0  0  0
  4  5  1  0  0  0
 19 20  2  0  0  0
 20 21  1  0  0  0
 21 22  2  0  0  0
 22 23  1  0  0  0
 23 24  2  0  0  0
 24 25  1  0  0  0
 25 26  2  0  0  0
 26 27  1  0  0  0
 27 28  2  0  0  0
 28 19  1  0  0  0
 28 23  1  0  0  0
  5  6  2  0  0  0
  7  5  1  0  0  0
  7  8  1  0  0  0
  7  2  1  0  0  0
  8  9  1  0  0  0
  9 29  1  0  0  0
  9 10  1  0  0  0
 29 30  1  0  0  0
 30 31  3  0  0  0
 10 11  2  0  0  0
 10 12  1  0  0  0
 12 13  2  0  0  0
 13 14  1  0  0  0
 14 15  2  0  0  0
 15 16  1  0  0  0
 15 17  1  0  0  0
 17 18  2  0  0  0
 18 12  1  0  0  0
 18  7  1  0  0  0
M  END
> <minimizedAffinity>
-7.14400

> <CNNscore>
0.3107126951

> <CNNaffinity>
5.7204751968

> <CNN_VS>
1.7774242163

> <CNNaffinity_variance>
0.2738714218

$$$$



 31 35  0  0  0  0  0  0  0  0999 V2000
   -6.0126   -2.0435  -20.2451 C   0  0  0  0  0  0  0  0  0  0  0  0
   -5.3493   -1.8006  -21.5822 C   0  0  0  0  0  0  0  0  0  0  0  0
   -6.0259   -2.6754  -22.6473 C   0  0  0  0  0  0  0  0  0  0  0  0
   -7.2256   -1.9418  -22.9032 N   0  0  0  0  0  0  0  0  0  0  0  0
   -6.8375   -0.5570  -22.8804 C   0  0  0  0  0  0  0  0  0  0  0  0
   -7.4727    0.4109  -23.4025 O   0  0  0  0  0  0  0  0  0  0  0  0
   -5.5581   -0.4233  -22.1406 C   0  0  0  0  0  0  0  0  0  0  0  0
   -5.5673    0.6496  -21.1189 C   0  0  0  0  0  0  0  0  0  0  0  0
   -4.2857    0.7579  -20.4718 N   0  0  0  0  0  0  0  0  0  0  0  0
   -3.1312    0.9088  -21.3251 C   0  0  0  0  0  0  0  0  0  0  0  0
   -2.0619    1.4474  -20.8768 O   0  0  0  0  0  0  0  0  0  0  0  0
   -3.2445    0.4271  -22.6916 C   0  0  0  0  0  0  0  0  0  0  0  0
   -2.1739    0.6522  -23.5291 C   0  0  0  0  0  0  0  0  0  0  0  0
   -2.2563    0.2985  -24.8572 C   0  0  0  0  0  0  0  0  0  0  0  0
   -3.4285   -0.2748  -25.2966 C   0  0  0  0  0  0  0  0  0  0  0  0
   -3.5123   -0.6247  -26.6142 F   0  0  0  0  0  0  0  0  0  0  0  0
   -4.5072   -0.4977  -24.4323 C   0  0  0  0  0  0  0  0  0  0  0  0
   -4.4298   -0.1468  -23.0952 C   0  0  0  0  0  0  0  0  0  0  0  0
   -8.5609   -2.3681  -23.1345 C   0  0  0  0  0  0  0  0  0  0  0  0
   -9.5807   -2.0112  -22.2441 C   0  0  0  0  0  0  0  0  0  0  0  0
  -10.8622   -2.4158  -22.4559 N   0  0  0  0  0  0  0  0  0  0  0  0
  -11.2101   -3.1628  -23.5074 C   0  0  0  0  0  0  0  0  0  0  0  0
  -10.2578   -3.5443  -24.4140 C   0  0  0  0  0  0  0  0  0  0  0  0
  -10.6145   -4.3170  -25.4997 C   0  0  0  0  0  0  0  0  0  0  0  0
   -9.6693   -4.7154  -26.4269 C   0  0  0  0  0  0  0  0  0  0  0  0
   -8.3443   -4.3139  -26.2336 C   0  0  0  0  0  0  0  0  0  0  0  0
   -8.0234   -3.5420  -25.1377 C   0  0  0  0  0  0  0  0  0  0  0  0
   -8.9511   -3.1370  -24.2060 C   0  0  0  0  0  0  0  0  0  0  0  0
   -4.0424    0.7835  -19.0624 C   0  0  0  0  0  0  0  0  0  0  0  0
   -5.1157    0.3748  -18.2059 C   0  0  0  0  0  0  0  0  0  0  0  0
   -5.9810    0.0586  -17.5382 N   0  0  0  0  0  0  0  0  0  0  0  0
  2  1  1  0  0  0
  2  3  1  0  0  0
  3  4  1  0  0  0
  4 19  1  0  0  0
  4  5  1  0  0  0
 19 20  2  0  0  0
 20 21  1  0  0  0
 21 22  2  0  0  0
 22 23  1  0  0  0
 23 24  2  0  0  0
 24 25  1  0  0  0
 25 26  2  0  0  0
 26 27  1  0  0  0
 27 28  2  0  0  0
 28 19  1  0  0  0
 28 23  1  0  0  0
  5  6  2  0  0  0
  7  5  1  0  0  0
  7  8  1  0  0  0
  7  2  1  0  0  0
  8  9  1  0  0  0
  9 29  1  0  0  0
  9 10  1  0  0  0
 29 30  1  0  0  0
 30 31  3  0  0  0
 10 11  2  0  0  0
 10 12  1  0  0  0
 12 13  2  0  0  0
 13 14  1  0  0  0
 14 15  2  0  0  0
 15 16  1  0  0  0
 15 17  1  0  0  0
 17 18  2  0  0  0
 18 12  1  0  0  0
 18  7  1  0  0  0
M  END
> <minimizedAffinity>
-7.32114

> <CNNscore>
0.3106469810

> <CNNaffinity>
5.6762495041

> <CNN_VS>
1.7633097172

> <CNNaffinity_variance>
0.1424366683

$$$$



 31 35  0  0  0  0  0  0  0  0999 V2000
   -7.3039   -0.1933  -24.8428 C   0  0  0  0  0  0  0  0  0  0  0  0
   -8.7098   -0.6480  -24.5207 C   0  0  0  0  0  0  0  0  0  0  0  0
   -8.7308   -2.1788  -24.4048 C   0  0  0  0  0  0  0  0  0  0  0  0
   -8.1728   -2.3769  -23.1038 N   0  0  0  0  0  0  0  0  0  0  0  0
   -8.7257   -1.3288  -22.2886 C   0  0  0  0  0  0  0  0  0  0  0  0
   -8.8015   -1.3226  -21.0209 O   0  0  0  0  0  0  0  0  0  0  0  0
   -9.2045   -0.2322  -23.1662 C   0  0  0  0  0  0  0  0  0  0  0  0
   -8.7519    1.1135  -22.7428 C   0  0  0  0  0  0  0  0  0  0  0  0
   -9.2876    2.1340  -23.6058 N   0  0  0  0  0  0  0  0  0  0  0  0
  -10.7175    2.1415  -23.8030 C   0  0  0  0  0  0  0  0  0  0  0  0
  -11.3162    3.2155  -24.1533 O   0  0  0  0  0  0  0  0  0  0  0  0
  -11.4269    0.8915  -23.5875 C   0  0  0  0  0  0  0  0  0  0  0  0
  -12.8006    0.9218  -23.6894 C   0  0  0  0  0  0  0  0  0  0  0  0
  -13.5338   -0.2095  -23.4094 C   0  0  0  0  0  0  0  0  0  0  0  0
  -12.8470   -1.3417  -23.0323 C   0  0  0  0  0  0  0  0  0  0  0  0
  -13.5731   -2.4643  -22.7527 F   0  0  0  0  0  0  0  0  0  0  0  0
  -11.4504   -1.3563  -22.9344 C   0  0  0  0  0  0  0  0  0  0  0  0
  -10.7071   -0.2230  -23.2171 C   0  0  0  0  0  0  0  0  0  0  0  0
   -7.2616   -3.3464  -22.6058 C   0  0  0  0  0  0  0  0  0  0  0  0
   -6.2947   -2.9866  -21.6593 C   0  0  0  0  0  0  0  0  0  0  0  0
   -5.4166   -3.9072  -21.1775 N   0  0  0  0  0  0  0  0  0  0  0  0
   -5.4298   -5.1826  -21.5752 C   0  0  0  0  0  0  0  0  0  0  0  0
   -6.3517   -5.5960  -22.4991 C   0  0  0  0  0  0  0  0  0  0  0  0
   -6.3662   -6.9120  -22.9124 C   0  0  0  0  0  0  0  0  0  0  0  0
   -7.2868   -7.3515  -23.8457 C   0  0  0  0  0  0  0  0  0  0  0  0
   -8.2012   -6.4262  -24.3578 C   0  0  0  0  0  0  0  0  0  0  0  0
   -8.1581   -5.1192  -23.9223 C   0  0  0  0  0  0  0  0  0  0  0  0
   -7.2491   -4.6656  -22.9947 C   0  0  0  0  0  0  0  0  0  0  0  0
   -8.5513    3.1778  -24.2497 C   0  0  0  0  0  0  0  0  0  0  0  0
   -7.6669    3.9544  -23.4328 C   0  0  0  0  0  0  0  0  0  0  0  0
   -6.9730    4.5876  -22.7908 N   0  0  0  0  0  0  0  0  0  0  0  0
  2  1  1  0  0  0
  2  3  1  0  0  0
  3  4  1  0  0  0
  4 19  1  0  0  0
  4  5  1  0  0  0
 19 20  2  0  0  0
 20 21  1  0  0  0
 21 22  2  0  0  0
 22 23  1  0  0  0
 23 24  2  0  0  0
 24 25  1  0  0  0
 25 26  2  0  0  0
 26 27  1  0  0  0
 27 28  2  0  0  0
 28 19  1  0  0  0
 28 23  1  0  0  0
  5  6  2  0  0  0
  7  5  1  0  0  0
  7  8  1  0  0  0
  7  2  1  0  0  0
  8  9  1  0  0  0
  9 29  1  0  0  0
  9 10  1  0  0  0
 29 30  1  0  0  0
 30 31  3  0  0  0
 10 11  2  0  0  0
 10 12  1  0  0  0
 12 13  2  0  0  0
 13 14  1  0  0  0
 14 15  2  0  0  0
 15 16  1  0  0  0
 15 17  1  0  0  0
 17 18  2  0  0  0
 18 12  1  0  0  0
 18  7  1  0  0  0
M  END
> <minimizedAffinity>
-7.37235

> <CNNscore>
0.2597795427

> <CNNaffinity>
5.9663062096

> <CNN_VS>
1.5499242544

> <CNNaffinity_variance>
0.1538397372

$$$$



 31 35  0  0  0  0  0  0  0  0999 V2000
   -7.9679    0.0502  -20.9250 C   0  0  0  0  0  0  0  0  0  0  0  0
   -7.7902   -1.1815  -21.7842 C   0  0  0  0  0  0  0  0  0  0  0  0
   -8.5172   -0.9737  -23.1205 C   0  0  0  0  0  0  0  0  0  0  0  0
   -7.5993   -0.1300  -23.8197 N   0  0  0  0  0  0  0  0  0  0  0  0
   -6.2926   -0.6307  -23.4872 C   0  0  0  0  0  0  0  0  0  0  0  0
   -5.2227   -0.4347  -24.1428 O   0  0  0  0  0  0  0  0  0  0  0  0
   -6.3809   -1.4269  -22.2381 C   0  0  0  0  0  0  0  0  0  0  0  0
   -5.3509   -1.0774  -21.2320 C   0  0  0  0  0  0  0  0  0  0  0  0
   -5.4619   -1.9155  -20.0665 N   0  0  0  0  0  0  0  0  0  0  0  0
   -5.4656   -3.3426  -20.2832 C   0  0  0  0  0  0  0  0  0  0  0  0
   -5.1127   -4.1395  -19.3477 O   0  0  0  0  0  0  0  0  0  0  0  0
   -5.8824   -3.8173  -21.5921 C   0  0  0  0  0  0  0  0  0  0  0  0
   -5.8003   -5.1726  -21.8255 C   0  0  0  0  0  0  0  0  0  0  0  0
   -6.0966   -5.6723  -23.0739 C   0  0  0  0  0  0  0  0  0  0  0  0
   -6.4681   -4.7767  -24.0515 C   0  0  0  0  0  0  0  0  0  0  0  0
   -6.7608   -5.2708  -25.2907 F   0  0  0  0  0  0  0  0  0  0  0  0
   -6.5476   -3.4021  -23.7978 C   0  0  0  0  0  0  0  0  0  0  0  0
   -6.2535   -2.8935  -22.5441 C   0  0  0  0  0  0  0  0  0  0  0  0
   -7.8067    0.9870  -24.6726 C   0  0  0  0  0  0  0  0  0  0  0  0
   -8.0821    2.2482  -24.1307 C   0  0  0  0  0  0  0  0  0  0  0  0
   -8.2838    3.3236  -24.9391 N   0  0  0  0  0  0  0  0  0  0  0  0
   -8.2308    3.2352  -26.2710 C   0  0  0  0  0  0  0  0  0  0  0  0
   -7.9655    2.0287  -26.8612 C   0  0  0  0  0  0  0  0  0  0  0  0
   -7.9117    1.9346  -28.2364 C   0  0  0  0  0  0  0  0  0  0  0  0
   -7.6473    0.7262  -28.8541 C   0  0  0  0  0  0  0  0  0  0  0  0
   -7.4362   -0.3958  -28.0473 C   0  0  0  0  0  0  0  0  0  0  0  0
   -7.4972   -0.2654  -26.6765 C   0  0  0  0  0  0  0  0  0  0  0  0
   -7.7590    0.9289  -26.0460 C   0  0  0  0  0  0  0  0  0  0  0  0
   -5.5169   -1.4788  -18.7054 C   0  0  0  0  0  0  0  0  0  0  0  0
   -5.1143   -0.1308  -18.4342 C   0  0  0  0  0  0  0  0  0  0  0  0
   -4.7970    0.9363  -18.1994 N   0  0  0  0  0  0  0  0  0  0  0  0
  2  1  1  0  0  0
  2  3  1  0  0  0
  3  4  1  0  0  0
  4 19  1  0  0  0
  4  5  1  0  0  0
 19 20  2  0  0  0
 20 21  1  0  0  0
 21 22  2  0  0  0
 22 23  1  0  0  0
 23 24  2  0  0  0
 24 25  1  0  0  0
 25 26  2  0  0  0
 26 27  1  0  0  0
 27 28  2  0  0  0
 28 19  1  0  0  0
 28 23  1  0  0  0
  5  6  2  0  0  0
  7  5  1  0  0  0
  7  8  1  0  0  0
  7  2  1  0  0  0
  8  9  1  0  0  0
  9 29  1  0  0  0
  9 10  1  0  0  0
 29 30  1  0  0  0
 30 31  3  0  0  0
 10 11  2  0  0  0
 10 12  1  0  0  0
 12 13  2  0  0  0
 13 14  1  0  0  0
 14 15  2  0  0  0
 15 16  1  0  0  0
 15 17  1  0  0  0
 17 18  2  0  0  0
 18 12  1  0  0  0
 18  7  1  0  0  0
M  END
> <minimizedAffinity>
-6.45356

> <CNNscore>
0.2492866516

> <CNNaffinity>
5.7213010788

> <CNN_VS>
1.4262440205

> <CNNaffinity_variance>
0.0597900264

$$$$



 31 35  0  0  0  0  0  0  0  0999 V2000
   -9.3524   -0.6336  -22.8417 C   0  0  0  0  0  0  0  0  0  0  0  0
   -8.1606   -0.9847  -23.7037 C   0  0  0  0  0  0  0  0  0  0  0  0
   -6.9399   -0.1845  -23.2271 C   0  0  0  0  0  0  0  0  0  0  0  0
   -6.5482   -0.9207  -22.0661 N   0  0  0  0  0  0  0  0  0  0  0  0
   -6.7335   -2.3044  -22.4121 C   0  0  0  0  0  0  0  0  0  0  0  0
   -6.1875   -3.3011  -21.8451 O   0  0  0  0  0  0  0  0  0  0  0  0
   -7.6772   -2.3976  -23.5534 C   0  0  0  0  0  0  0  0  0  0  0  0
   -8.7592   -3.3902  -23.3554 C   0  0  0  0  0  0  0  0  0  0  0  0
   -9.6101   -3.4650  -24.5144 N   0  0  0  0  0  0  0  0  0  0  0  0
   -8.9669   -3.6940  -25.7862 C   0  0  0  0  0  0  0  0  0  0  0  0
   -9.6193   -4.2103  -26.7570 O   0  0  0  0  0  0  0  0  0  0  0  0
   -7.5688   -3.3154  -25.9041 C   0  0  0  0  0  0  0  0  0  0  0  0
   -6.9330   -3.6161  -27.0888 C   0  0  0  0  0  0  0  0  0  0  0  0
   -5.5868   -3.3626  -27.2279 C   0  0  0  0  0  0  0  0  0  0  0  0
   -4.9242   -2.8098  -26.1550 C   0  0  0  0  0  0  0  0  0  0  0  0
   -3.5884   -2.5592  -26.2910 F   0  0  0  0  0  0  0  0  0  0  0  0
   -5.5851   -2.5091  -24.9580 C   0  0  0  0  0  0  0  0  0  0  0  0
   -6.9391   -2.7591  -24.8125 C   0  0  0  0  0  0  0  0  0  0  0  0
   -6.0748   -0.4967  -20.7956 C   0  0  0  0  0  0  0  0  0  0  0  0
   -6.7976   -0.7993  -19.6354 C   0  0  0  0  0  0  0  0  0  0  0  0
   -6.3535   -0.3964  -18.4142 N   0  0  0  0  0  0  0  0  0  0  0  0
   -5.2227    0.2979  -18.2595 C   0  0  0  0  0  0  0  0  0  0  0  0
   -4.4713    0.6247  -19.3563 C   0  0  0  0  0  0  0  0  0  0  0  0
   -3.3041    1.3429  -19.1992 C   0  0  0  0  0  0  0  0  0  0  0  0
   -2.5304    1.6857  -20.2926 C   0  0  0  0  0  0  0  0  0  0  0  0
   -2.9635    1.2846  -21.5599 C   0  0  0  0  0  0  0  0  0  0  0  0
   -4.1347    0.5680  -21.6800 C   0  0  0  0  0  0  0  0  0  0  0  0
   -4.9160    0.2187  -20.6029 C   0  0  0  0  0  0  0  0  0  0  0  0
  -11.0384   -3.3872  -24.5290 C   0  0  0  0  0  0  0  0  0  0  0  0
  -11.6893   -3.0772  -23.2909 C   0  0  0  0  0  0  0  0  0  0  0  0
  -12.2227   -2.8267  -22.3176 N   0  0  0  0  0  0  0  0  0  0  0  0
  2  1  1  0  0  0
  2  3  1  0  0  0
  3  4  1  0  0  0
  4 19  1  0  0  0
  4  5  1  0  0  0
 19 20  2  0  0  0
 20 21  1  0  0  0
 21 22  2  0  0  0
 22 23  1  0  0  0
 23 24  2  0  0  0
 24 25  1  0  0  0
 25 26  2  0  0  0
 26 27  1  0  0  0
 27 28  2  0  0  0
 28 19  1  0  0  0
 28 23  1  0  0  0
  5  6  2  0  0  0
  7  5  1  0  0  0
  7  8  1  0  0  0
  7  2  1  0  0  0
  8  9  1  0  0  0
  9 29  1  0  0  0
  9 10  1  0  0  0
 29 30  1  0  0  0
 30 31  3  0  0  0
 10 11  2  0  0  0
 10 12  1  0  0  0
 12 13  2  0  0  0
 13 14  1  0  0  0
 14 15  2  0  0  0
 15 16  1  0  0  0
 15 17  1  0  0  0
 17 18  2  0  0  0
 18 12  1  0  0  0
 18  7  1  0  0  0
M  END
> <minimizedAffinity>
-7.69592

> <CNNscore>
0.2465360463

> <CNNaffinity>
5.8810610771

> <CNN_VS>
1.4498935938

> <CNNaffinity_variance>
0.1363902092

$$$$



 31 35  0  0  0  0  0  0  0  0999 V2000
   -9.9599    2.9415  -24.7663 C   0  0  0  0  0  0  0  0  0  0  0  0
   -9.5925    1.4791  -24.6514 C   0  0  0  0  0  0  0  0  0  0  0  0
   -8.0783    1.3220  -24.8518 C   0  0  0  0  0  0  0  0  0  0  0  0
   -7.5748    1.7367  -23.5799 N   0  0  0  0  0  0  0  0  0  0  0  0
   -8.4923    1.1971  -22.6127 C   0  0  0  0  0  0  0  0  0  0  0  0
   -8.2574    1.0028  -21.3798 O   0  0  0  0  0  0  0  0  0  0  0  0
   -9.7816    0.8945  -23.2821 C   0  0  0  0  0  0  0  0  0  0  0  0
  -10.9667    1.4136  -22.5602 C   0  0  0  0  0  0  0  0  0  0  0  0
  -12.1844    1.0471  -23.2353 N   0  0  0  0  0  0  0  0  0  0  0  0
  -12.3721   -0.3525  -23.5349 C   0  0  0  0  0  0  0  0  0  0  0  0
  -13.5478   -0.8256  -23.7034 O   0  0  0  0  0  0  0  0  0  0  0  0
  -11.1807   -1.1789  -23.6332 C   0  0  0  0  0  0  0  0  0  0  0  0
  -11.3663   -2.5297  -23.8309 C   0  0  0  0  0  0  0  0  0  0  0  0
  -10.2803   -3.3762  -23.8438 C   0  0  0  0  0  0  0  0  0  0  0  0
   -9.0338   -2.8230  -23.6543 C   0  0  0  0  0  0  0  0  0  0  0  0
   -7.9558   -3.6616  -23.6653 F   0  0  0  0  0  0  0  0  0  0  0  0
   -8.8620   -1.4477  -23.4556 C   0  0  0  0  0  0  0  0  0  0  0  0
   -9.9494   -0.5909  -23.4441 C   0  0  0  0  0  0  0  0  0  0  0  0
   -6.4412    2.5146  -23.2222 C   0  0  0  0  0  0  0  0  0  0  0  0
   -6.5183    3.9124  -23.2114 C   0  0  0  0  0  0  0  0  0  0  0  0
   -5.4379    4.6661  -22.8719 N   0  0  0  0  0  0  0  0  0  0  0  0
   -4.2650    4.1217  -22.5361 C   0  0  0  0  0  0  0  0  0  0  0  0
   -4.1264    2.7597  -22.5278 C   0  0  0  0  0  0  0  0  0  0  0  0
   -2.9159    2.1953  -22.1828 C   0  0  0  0  0  0  0  0  0  0  0  0
   -2.7524    0.8224  -22.1693 C   0  0  0  0  0  0  0  0  0  0  0  0
   -3.8466    0.0236  -22.5144 C   0  0  0  0  0  0  0  0  0  0  0  0
   -5.0414    0.6212  -22.8536 C   0  0  0  0  0  0  0  0  0  0  0  0
   -5.2210    1.9851  -22.8721 C   0  0  0  0  0  0  0  0  0  0  0  0
  -13.2561    1.9237  -23.5952 C   0  0  0  0  0  0  0  0  0  0  0  0
  -13.4627    3.0769  -22.7705 C   0  0  0  0  0  0  0  0  0  0  0  0
  -13.6308    4.0034  -22.1319 N   0  0  0  0  0  0  0  0  0  0  0  0
  2  1  1  0  0  0
  2  3  1  0  0  0
  3  4  1  0  0  0
  4 19  1  0  0  0
  4  5  1  0  0  0
 19 20  2  0  0  0
 20 21  1  0  0  0
 21 22  2  0  0  0
 22 23  1  0  0  0
 23 24  2  0  0  0
 24 25  1  0  0  0
 25 26  2  0  0  0
 26 27  1  0  0  0
 27 28  2  0  0  0
 28 19  1  0  0  0
 28 23  1  0  0  0
  5  6  2  0  0  0
  7  5  1  0  0  0
  7  8  1  0  0  0
  7  2  1  0  0  0
  8  9  1  0  0  0
  9 29  1  0  0  0
  9 10  1  0  0  0
 29 30  1  0  0  0
 30 31  3  0  0  0
 10 11  2  0  0  0
 10 12  1  0  0  0
 12 13  2  0  0  0
 13 14  1  0  0  0
 14 15  2  0  0  0
 15 16  1  0  0  0
 15 17  1  0  0  0
 17 18  2  0  0  0
 18 12  1  0  0  0
 18  7  1  0  0  0
M  END
> <minimizedAffinity>
-6.91052

> <CNNscore>
0.1953995526

> <CNNaffinity>
5.7670197487

> <CNN_VS>
1.1268731356

> <CNNaffinity_variance>
0.0998499095

$$$$



 31 35  0  0  0  0  0  0  0  0999 V2000
   -7.9672   -0.0743  -21.6442 C   0  0  0  0  0  0  0  0  0  0  0  0
   -7.7820   -1.4664  -22.2053 C   0  0  0  0  0  0  0  0  0  0  0  0
   -8.5256   -1.5736  -23.5444 C   0  0  0  0  0  0  0  0  0  0  0  0
   -7.6264   -0.9000  -24.4280 N   0  0  0  0  0  0  0  0  0  0  0  0
   -6.3098   -1.2986  -24.0083 C   0  0  0  0  0  0  0  0  0  0  0  0
   -5.2495   -1.2444  -24.7053 O   0  0  0  0  0  0  0  0  0  0  0  0
   -6.3743   -1.7929  -22.6107 C   0  0  0  0  0  0  0  0  0  0  0  0
   -5.3387   -1.2142  -21.7231 C   0  0  0  0  0  0  0  0  0  0  0  0
   -5.4262   -1.7684  -20.3971 N   0  0  0  0  0  0  0  0  0  0  0  0
   -5.4131   -3.2075  -20.2859 C   0  0  0  0  0  0  0  0  0  0  0  0
   -5.0399   -3.7687  -19.1994 O   0  0  0  0  0  0  0  0  0  0  0  0
   -5.8371   -3.9700  -21.4482 C   0  0  0  0  0  0  0  0  0  0  0  0
   -5.7394   -5.3421  -21.3707 C   0  0  0  0  0  0  0  0  0  0  0  0
   -6.0420   -6.1141  -22.4700 C   0  0  0  0  0  0  0  0  0  0  0  0
   -6.4357   -5.4665  -23.6195 C   0  0  0  0  0  0  0  0  0  0  0  0
   -6.7346   -6.2309  -24.7113 F   0  0  0  0  0  0  0  0  0  0  0  0
   -6.5308   -4.0711  -23.6817 C   0  0  0  0  0  0  0  0  0  0  0  0
   -6.2305   -3.2893  -22.5792 C   0  0  0  0  0  0  0  0  0  0  0  0
   -7.8576   -0.0069  -25.5083 C   0  0  0  0  0  0  0  0  0  0  0  0
   -7.5300   -0.3812  -26.8170 C   0  0  0  0  0  0  0  0  0  0  0  0
   -7.7460    0.4675  -27.8580 N   0  0  0  0  0  0  0  0  0  0  0  0
   -8.2736    1.6833  -27.6899 C   0  0  0  0  0  0  0  0  0  0  0  0
   -8.6150    2.1074  -26.4338 C   0  0  0  0  0  0  0  0  0  0  0  0
   -9.1586    3.3630  -26.2576 C   0  0  0  0  0  0  0  0  0  0  0  0
   -9.5091    3.8129  -24.9981 C   0  0  0  0  0  0  0  0  0  0  0  0
   -9.2977    2.9611  -23.9099 C   0  0  0  0  0  0  0  0  0  0  0  0
   -8.7527    1.7132  -24.1225 C   0  0  0  0  0  0  0  0  0  0  0  0
   -8.3985    1.2500  -25.3686 C   0  0  0  0  0  0  0  0  0  0  0  0
   -5.4729   -1.0361  -19.1692 C   0  0  0  0  0  0  0  0  0  0  0  0
   -4.7685    0.2107  -19.1240 C   0  0  0  0  0  0  0  0  0  0  0  0
   -4.2031    1.1979  -19.1068 N   0  0  0  0  0  0  0  0  0  0  0  0
  2  1  1  0  0  0
  2  3  1  0  0  0
  3  4  1  0  0  0
  4 19  1  0  0  0
  4  5  1  0  0  0
 19 20  2  0  0  0
 20 21  1  0  0  0
 21 22  2  0  0  0
 22 23  1  0  0  0
 23 24  2  0  0  0
 24 25  1  0  0  0
 25 26  2  0  0  0
 26 27  1  0  0  0
 27 28  2  0  0  0
 28 19  1  0  0  0
 28 23  1  0  0  0
  5  6  2  0  0  0
  7  5  1  0  0  0
  7  8  1  0  0  0
  7  2  1  0  0  0
  8  9  1  0  0  0
  9 29  1  0  0  0
  9 10  1  0  0  0
 29 30  1  0  0  0
 30 31  3  0  0  0
 10 11  2  0  0  0
 10 12  1  0  0  0
 12 13  2  0  0  0
 13 14  1  0  0  0
 14 15  2  0  0  0
 15 16  1  0  0  0
 15 17  1  0  0  0
 17 18  2  0  0  0
 18 12  1  0  0  0
 18  7  1  0  0  0
M  END
> <minimizedAffinity>
-7.37429

> <CNNscore>
0.1854878068

> <CNNaffinity>
5.5322728157

> <CNN_VS>
1.0261691809

> <CNNaffinity_variance>
0.1187972575

$$$$



 31 35  0  0  0  0  0  0  0  0999 V2000
  -10.0410    2.9943  -24.8052 C   0  0  0  0  0  0  0  0  0  0  0  0
   -9.7649    1.5106  -24.7091 C   0  0  0  0  0  0  0  0  0  0  0  0
   -8.2826    1.2524  -25.0153 C   0  0  0  0  0  0  0  0  0  0  0  0
   -7.6636    1.6330  -23.7845 N   0  0  0  0  0  0  0  0  0  0  0  0
   -8.5441    1.1563  -22.7519 C   0  0  0  0  0  0  0  0  0  0  0  0
   -8.2359    0.9473  -21.5377 O   0  0  0  0  0  0  0  0  0  0  0  0
   -9.8950    0.9405  -23.3269 C   0  0  0  0  0  0  0  0  0  0  0  0
  -10.9886    1.5382  -22.5256 C   0  0  0  0  0  0  0  0  0  0  0  0
  -12.2729    1.2538  -23.1109 N   0  0  0  0  0  0  0  0  0  0  0  0
  -12.5743   -0.1302  -23.3893 C   0  0  0  0  0  0  0  0  0  0  0  0
  -13.7881   -0.5236  -23.4717 O   0  0  0  0  0  0  0  0  0  0  0  0
  -11.4508   -1.0346  -23.5674 C   0  0  0  0  0  0  0  0  0  0  0  0
  -11.7398   -2.3700  -23.7444 C   0  0  0  0  0  0  0  0  0  0  0  0
  -10.7164   -3.2873  -23.8298 C   0  0  0  0  0  0  0  0  0  0  0  0
   -9.4254   -2.8188  -23.7319 C   0  0  0  0  0  0  0  0  0  0  0  0
   -8.4093   -3.7278  -23.8148 F   0  0  0  0  0  0  0  0  0  0  0  0
   -9.1485   -1.4581  -23.5530 C   0  0  0  0  0  0  0  0  0  0  0  0
  -10.1727   -0.5303  -23.4689 C   0  0  0  0  0  0  0  0  0  0  0  0
   -6.4580    2.3332  -23.5118 C   0  0  0  0  0  0  0  0  0  0  0  0
   -5.2212    1.6931  -23.6554 C   0  0  0  0  0  0  0  0  0  0  0  0
   -4.0612    2.3545  -23.3952 N   0  0  0  0  0  0  0  0  0  0  0  0
   -4.0407    3.6291  -22.9955 C   0  0  0  0  0  0  0  0  0  0  0  0
   -5.2179    4.3097  -22.8365 C   0  0  0  0  0  0  0  0  0  0  0  0
   -5.1993    5.6254  -22.4223 C   0  0  0  0  0  0  0  0  0  0  0  0
   -6.3758    6.3317  -22.2532 C   0  0  0  0  0  0  0  0  0  0  0  0
   -7.5829    5.6762  -22.5134 C   0  0  0  0  0  0  0  0  0  0  0  0
   -7.5643    4.3612  -22.9258 C   0  0  0  0  0  0  0  0  0  0  0  0
   -6.4031    3.6441  -23.0990 C   0  0  0  0  0  0  0  0  0  0  0  0
  -13.3064    2.2000  -23.3986 C   0  0  0  0  0  0  0  0  0  0  0  0
  -13.1647    3.5127  -22.8422 C   0  0  0  0  0  0  0  0  0  0  0  0
  -13.0327    4.5518  -22.3978 N   0  0  0  0  0  0  0  0  0  0  0  0
  2  1  1  0  0  0
  2  3  1  0  0  0
  3  4  1  0  0  0
  4 19  1  0  0  0
  4  5  1  0  0  0
 19 20  2  0  0  0
 20 21  1  0  0  0
 21 22  2  0  0  0
 22 23  1  0  0  0
 23 24  2  0  0  0
 24 25  1  0  0  0
 25 26  2  0  0  0
 26 27  1  0  0  0
 27 28  2  0  0  0
 28 19  1  0  0  0
 28 23  1  0  0  0
  5  6  2  0  0  0
  7  5  1  0  0  0
  7  8  1  0  0  0
  7  2  1  0  0  0
  8  9  1  0  0  0
  9 29  1  0  0  0
  9 10  1  0  0  0
 29 30  1  0  0  0
 30 31  3  0  0  0
 10 11  2  0  0  0
 10 12  1  0  0  0
 12 13  2  0  0  0
 13 14  1  0  0  0
 14 15  2  0  0  0
 15 16  1  0  0  0
 15 17  1  0  0  0
 17 18  2  0  0  0
 18 12  1  0  0  0
 18  7  1  0  0  0
M  END
> <minimizedAffinity>
-7.14370

> <CNNscore>
0.1825848818

> <CNNaffinity>
5.7000017166

> <CNN_VS>
1.0407341719

> <CNNaffinity_variance>
0.0614420548

$$$$



 31 35  0  0  0  0  0  0  0  0999 V2000
   -7.1061   -2.0110  -26.0945 C   0  0  0  0  0  0  0  0  0  0  0  0
   -8.4364   -2.1885  -25.3975 C   0  0  0  0  0  0  0  0  0  0  0  0
   -8.7125   -3.6874  -25.2114 C   0  0  0  0  0  0  0  0  0  0  0  0
   -7.8781   -3.9974  -24.0931 N   0  0  0  0  0  0  0  0  0  0  0  0
   -7.9895   -2.8676  -23.2100 C   0  0  0  0  0  0  0  0  0  0  0  0
   -7.7252   -2.8549  -21.9678 O   0  0  0  0  0  0  0  0  0  0  0  0
   -8.4688   -1.6938  -23.9809 C   0  0  0  0  0  0  0  0  0  0  0  0
   -7.6766   -0.4631  -23.7508 C   0  0  0  0  0  0  0  0  0  0  0  0
   -8.2201    0.6468  -24.4895 N   0  0  0  0  0  0  0  0  0  0  0  0
   -9.6237    0.9308  -24.3078 C   0  0  0  0  0  0  0  0  0  0  0  0
  -10.0814    2.1022  -24.5380 O   0  0  0  0  0  0  0  0  0  0  0  0
  -10.4722   -0.1605  -23.8591 C   0  0  0  0  0  0  0  0  0  0  0  0
  -11.7931    0.1344  -23.6012 C   0  0  0  0  0  0  0  0  0  0  0  0
  -12.6248   -0.8363  -23.0894 C   0  0  0  0  0  0  0  0  0  0  0  0
  -12.0876   -2.0819  -22.8536 C   0  0  0  0  0  0  0  0  0  0  0  0
  -12.9111   -3.0454  -22.3445 F   0  0  0  0  0  0  0  0  0  0  0  0
  -10.7432   -2.3658  -23.1222 C   0  0  0  0  0  0  0  0  0  0  0  0
   -9.9022   -1.3951  -23.6392 C   0  0  0  0  0  0  0  0  0  0  0  0
   -7.0661   -5.1273  -23.8065 C   0  0  0  0  0  0  0  0  0  0  0  0
   -7.4469   -6.0372  -22.8128 C   0  0  0  0  0  0  0  0  0  0  0  0
   -6.6753   -7.1213  -22.5298 N   0  0  0  0  0  0  0  0  0  0  0  0
   -5.5321   -7.3715  -23.1742 C   0  0  0  0  0  0  0  0  0  0  0  0
   -5.1059   -6.5184  -24.1566 C   0  0  0  0  0  0  0  0  0  0  0  0
   -3.9250   -6.7739  -24.8223 C   0  0  0  0  0  0  0  0  0  0  0  0
   -3.4742   -5.9254  -25.8165 C   0  0  0  0  0  0  0  0  0  0  0  0
   -4.2475   -4.8031  -26.1277 C   0  0  0  0  0  0  0  0  0  0  0  0
   -5.4222   -4.5787  -25.4424 C   0  0  0  0  0  0  0  0  0  0  0  0
   -5.8850   -5.4126  -24.4510 C   0  0  0  0  0  0  0  0  0  0  0  0
   -7.4981    1.5334  -25.3491 C   0  0  0  0  0  0  0  0  0  0  0  0
   -6.1723    1.8987  -24.9471 C   0  0  0  0  0  0  0  0  0  0  0  0
   -5.1223    2.1795  -24.6106 N   0  0  0  0  0  0  0  0  0  0  0  0
  2  1  1  0  0  0
  2  3  1  0  0  0
  3  4  1  0  0  0
  4 19  1  0  0  0
  4  5  1  0  0  0
 19 20  2  0  0  0
 20 21  1  0  0  0
 21 22  2  0  0  0
 22 23  1  0  0  0
 23 24  2  0  0  0
 24 25  1  0  0  0
 25 26  2  0  0  0
 26 27  1  0  0  0
 27 28  2  0  0  0
 28 19  1  0  0  0
 28 23  1  0  0  0
  5  6  2  0  0  0
  7  5  1  0  0  0
  7  8  1  0  0  0
  7  2  1  0  0  0
  8  9  1  0  0  0
  9 29  1  0  0  0
  9 10  1  0  0  0
 29 30  1  0  0  0
 30 31  3  0  0  0
 10 11  2  0  0  0
 10 12  1  0  0  0
 12 13  2  0  0  0
 13 14  1  0  0  0
 14 15  2  0  0  0
 15 16  1  0  0  0
 15 17  1  0  0  0
 17 18  2  0  0  0
 18 12  1  0  0  0
 18  7  1  0  0  0
M  END
> <minimizedAffinity>
-6.49525

> <CNNscore>
0.1648339033

> <CNNaffinity>
5.7365126610

> <CNN_VS>
0.9455717802

> <CNNaffinity_variance>
0.2095841467

$$$$



 23 26  0  0  0  0  0  0  0  0999 V2000
   -5.1416   -3.9214  -20.7007 O   0  0  0  0  0  0  0  0  0  0  0  0
   -5.9853   -3.4628  -21.5020 C   0  0  0  0  0  0  0  0  0  0  0  0
   -6.4178   -4.3153  -22.5703 N   0  0  0  0  0  0  0  0  0  0  0  0
   -5.8517   -5.6445  -22.6607 C   0  0  0  0  0  0  0  0  0  0  0  0
   -6.9726   -6.5853  -22.2015 C   0  0  0  0  0  0  0  0  0  0  0  0
   -7.6730   -7.0781  -23.4158 C   0  0  0  0  0  0  0  0  0  0  0  0
   -7.8460   -6.0582  -24.4202 C   0  0  0  0  0  0  0  0  0  0  0  0
   -8.3280   -6.6722  -26.0343 S   0  0  0  0  0  0  0  0  0  0  0  0
   -8.3902   -5.0519  -26.7902 C   0  0  0  0  0  0  0  0  0  0  0  0
   -8.0524   -4.2041  -25.7945 C   0  0  0  0  0  0  0  0  0  0  0  0
   -7.7714   -4.7107  -24.5755 C   0  0  0  0  0  0  0  0  0  0  0  0
   -7.4052   -3.7584  -23.4500 C   0  0  0  0  0  0  0  0  0  0  0  0
   -6.5739   -2.0984  -21.4223 C   0  0  0  0  0  0  0  0  0  0  0  0
   -6.0693   -1.2556  -20.3435 C   0  0  0  0  0  0  0  0  0  0  0  0
   -6.6172   -1.2924  -19.0733 C   0  0  0  0  0  0  0  0  0  0  0  0
   -6.1556   -0.5171  -18.0554 N   0  0  0  0  0  0  0  0  0  0  0  0
   -5.1389    0.3437  -18.1922 C   0  0  0  0  0  0  0  0  0  0  0  0
   -4.5565    0.4213  -19.4412 C   0  0  0  0  0  0  0  0  0  0  0  0
   -3.5229    1.3278  -19.5798 C   0  0  0  0  0  0  0  0  0  0  0  0
   -2.9092    1.4699  -20.8036 C   0  0  0  0  0  0  0  0  0  0  0  0
   -3.3397    0.7047  -21.8644 C   0  0  0  0  0  0  0  0  0  0  0  0
   -4.3841   -0.2181  -21.7477 C   0  0  0  0  0  0  0  0  0  0  0  0
   -5.0091   -0.3640  -20.5051 C   0  0  0  0  0  0  0  0  0  0  0  0
  1  2  2  0  0  0
  2 13  1  0  0  0
  2  3  1  0  0  0
 13 14  1  0  0  0
 14 15  2  0  0  0
 15 16  1  0  0  0
 16 17  2  0  0  0
 17 18  1  0  0  0
 18 19  2  0  0  0
 19 20  1  0  0  0
 20 21  2  0  0  0
 21 22  1  0  0  0
 22 23  2  0  0  0
 23 14  1  0  0  0
 23 18  1  0  0  0
  3  4  1  0  0  0
  4  5  1  0  0  0
  5  6  1  0  0  0
  6  7  1  0  0  0
  7  8  1  0  0  0
  8  9  1  0  0  0
  9 10  2  0  0  0
 10 11  1  0  0  0
 11 12  1  0  0  0
 11  7  2  0  0  0
 12  3  1  0  0  0
M  END
> <minimizedAffinity>
-8.05681

> <CNNscore>
0.7553625107

> <CNNaffinity>
5.4689188004

> <CNN_VS>
4.1310162544

> <CNNaffinity_variance>
0.2723936737

$$$$



 23 26  0  0  0  0  0  0  0  0999 V2000
   -8.6378   -1.3873  -21.1293 O   0  0  0  0  0  0  0  0  0  0  0  0
   -7.8813   -2.2078  -21.6937 C   0  0  0  0  0  0  0  0  0  0  0  0
   -8.4644   -3.0934  -22.6585 N   0  0  0  0  0  0  0  0  0  0  0  0
   -9.8851   -2.9899  -22.9155 C   0  0  0  0  0  0  0  0  0  0  0  0
   -9.9918   -2.3201  -24.2912 C   0  0  0  0  0  0  0  0  0  0  0  0
  -10.1459   -3.3953  -25.3051 C   0  0  0  0  0  0  0  0  0  0  0  0
   -9.3190   -4.5457  -25.0375 C   0  0  0  0  0  0  0  0  0  0  0  0
   -9.7382   -6.0059  -25.9898 S   0  0  0  0  0  0  0  0  0  0  0  0
   -8.4491   -7.0183  -25.2729 C   0  0  0  0  0  0  0  0  0  0  0  0
   -7.8255   -6.1983  -24.3994 C   0  0  0  0  0  0  0  0  0  0  0  0
   -8.2644   -4.9285  -24.2715 C   0  0  0  0  0  0  0  0  0  0  0  0
   -7.5559   -3.9997  -23.3003 C   0  0  0  0  0  0  0  0  0  0  0  0
   -6.4201   -2.3265  -21.4380 C   0  0  0  0  0  0  0  0  0  0  0  0
   -5.9025   -1.5102  -20.3450 C   0  0  0  0  0  0  0  0  0  0  0  0
   -6.2897   -1.7192  -19.0331 C   0  0  0  0  0  0  0  0  0  0  0  0
   -5.8132   -0.9705  -18.0022 N   0  0  0  0  0  0  0  0  0  0  0  0
   -4.9349    0.0272  -18.1651 C   0  0  0  0  0  0  0  0  0  0  0  0
   -4.5163    0.2794  -19.4560 C   0  0  0  0  0  0  0  0  0  0  0  0
   -3.6272    1.3247  -19.6183 C   0  0  0  0  0  0  0  0  0  0  0  0
   -3.1828    1.6428  -20.8816 C   0  0  0  0  0  0  0  0  0  0  0  0
   -3.6350    0.9117  -21.9572 C   0  0  0  0  0  0  0  0  0  0  0  0
   -4.5352   -0.1493  -21.8170 C   0  0  0  0  0  0  0  0  0  0  0  0
   -4.9880   -0.4743  -20.5343 C   0  0  0  0  0  0  0  0  0  0  0  0
  1  2  2  0  0  0
  2 13  1  0  0  0
  2  3  1  0  0  0
 13 14  1  0  0  0
 14 15  2  0  0  0
 15 16  1  0  0  0
 16 17  2  0  0  0
 17 18  1  0  0  0
 18 19  2  0  0  0
 19 20  1  0  0  0
 20 21  2  0  0  0
 21 22  1  0  0  0
 22 23  2  0  0  0
 23 14  1  0  0  0
 23 18  1  0  0  0
  3  4  1  0  0  0
  4  5  1  0  0  0
  5  6  1  0  0  0
  6  7  1  0  0  0
  7  8  1  0  0  0
  8  9  1  0  0  0
  9 10  2  0  0  0
 10 11  1  0  0  0
 11 12  1  0  0  0
 11  7  2  0  0  0
 12  3  1  0  0  0
M  END
> <minimizedAffinity>
-7.74992

> <CNNscore>
0.7144404650

> <CNNaffinity>
5.4194688797

> <CNN_VS>
3.8718879223

> <CNNaffinity_variance>
0.2617430985

$$$$



 23 26  0  0  0  0  0  0  0  0999 V2000
   -8.2606    2.1537  -22.2588 O   0  0  0  0  0  0  0  0  0  0  0  0
   -8.4977    0.9273  -22.3210 C   0  0  0  0  0  0  0  0  0  0  0  0
   -9.8635    0.5227  -22.4817 N   0  0  0  0  0  0  0  0  0  0  0  0
  -10.8802    1.5504  -22.5557 C   0  0  0  0  0  0  0  0  0  0  0  0
  -11.3007    1.5872  -24.0303 C   0  0  0  0  0  0  0  0  0  0  0  0
  -12.5111    0.7376  -24.1751 C   0  0  0  0  0  0  0  0  0  0  0  0
  -12.4492   -0.4708  -23.3909 C   0  0  0  0  0  0  0  0  0  0  0  0
  -14.0117   -1.3339  -23.2224 S   0  0  0  0  0  0  0  0  0  0  0  0
  -13.3364   -2.6575  -22.2262 C   0  0  0  0  0  0  0  0  0  0  0  0
  -12.0267   -2.3509  -22.1043 C   0  0  0  0  0  0  0  0  0  0  0  0
  -11.5622   -1.2315  -22.6980 C   0  0  0  0  0  0  0  0  0  0  0  0
  -10.0867   -0.8916  -22.5747 C   0  0  0  0  0  0  0  0  0  0  0  0
   -7.4631   -0.1396  -22.2444 C   0  0  0  0  0  0  0  0  0  0  0  0
   -6.7703   -0.2559  -20.9655 C   0  0  0  0  0  0  0  0  0  0  0  0
   -7.2407   -1.0746  -19.9540 C   0  0  0  0  0  0  0  0  0  0  0  0
   -6.6044   -1.1980  -18.7581 N   0  0  0  0  0  0  0  0  0  0  0  0
   -5.4761   -0.5428  -18.4567 C   0  0  0  0  0  0  0  0  0  0  0  0
   -4.9640    0.2898  -19.4313 C   0  0  0  0  0  0  0  0  0  0  0  0
   -3.8119    0.9792  -19.1043 C   0  0  0  0  0  0  0  0  0  0  0  0
   -3.2573    1.8411  -20.0231 C   0  0  0  0  0  0  0  0  0  0  0  0
   -3.8640    1.9978  -21.2493 C   0  0  0  0  0  0  0  0  0  0  0  0
   -5.0305    1.3116  -21.6015 C   0  0  0  0  0  0  0  0  0  0  0  0
   -5.5956    0.4353  -20.6695 C   0  0  0  0  0  0  0  0  0  0  0  0
  1  2  2  0  0  0
  2 13  1  0  0  0
  2  3  1  0  0  0
 13 14  1  0  0  0
 14 15  2  0  0  0
 15 16  1  0  0  0
 16 17  2  0  0  0
 17 18  1  0  0  0
 18 19  2  0  0  0
 19 20  1  0  0  0
 20 21  2  0  0  0
 21 22  1  0  0  0
 22 23  2  0  0  0
 23 14  1  0  0  0
 23 18  1  0  0  0
  3  4  1  0  0  0
  4  5  1  0  0  0
  5  6  1  0  0  0
  6  7  1  0  0  0
  7  8  1  0  0  0
  8  9  1  0  0  0
  9 10  2  0  0  0
 10 11  1  0  0  0
 11 12  1  0  0  0
 11  7  2  0  0  0
 12  3  1  0  0  0
M  END
> <minimizedAffinity>
-5.99183

> <CNNscore>
0.6152931452

> <CNNaffinity>
5.5297179222

> <CNN_VS>
3.4023976326

> <CNNaffinity_variance>
0.2107190788

$$$$



 23 26  0  0  0  0  0  0  0  0999 V2000
   -7.0841   -2.2493  -23.8497 O   0  0  0  0  0  0  0  0  0  0  0  0
   -7.6523   -1.2097  -23.4490 C   0  0  0  0  0  0  0  0  0  0  0  0
   -9.0809   -1.1523  -23.5521 N   0  0  0  0  0  0  0  0  0  0  0  0
   -9.7753   -2.2906  -24.1155 C   0  0  0  0  0  0  0  0  0  0  0  0
  -10.4465   -2.9776  -22.9196 C   0  0  0  0  0  0  0  0  0  0  0  0
  -11.8462   -2.4847  -22.8442 C   0  0  0  0  0  0  0  0  0  0  0  0
  -11.9641   -1.0758  -23.1269 C   0  0  0  0  0  0  0  0  0  0  0  0
  -13.6390   -0.5108  -23.4274 S   0  0  0  0  0  0  0  0  0  0  0  0
  -13.1688    1.1952  -23.6901 C   0  0  0  0  0  0  0  0  0  0  0  0
  -11.8271    1.2010  -23.5350 C   0  0  0  0  0  0  0  0  0  0  0  0
  -11.2002    0.0413  -23.2461 C   0  0  0  0  0  0  0  0  0  0  0  0
   -9.6929    0.0473  -23.0568 C   0  0  0  0  0  0  0  0  0  0  0  0
   -6.9512   -0.0317  -22.8699 C   0  0  0  0  0  0  0  0  0  0  0  0
   -6.6151   -0.1310  -21.4535 C   0  0  0  0  0  0  0  0  0  0  0  0
   -7.4389   -0.7836  -20.5534 C   0  0  0  0  0  0  0  0  0  0  0  0
   -7.1380   -0.8893  -19.2310 N   0  0  0  0  0  0  0  0  0  0  0  0
   -6.0272   -0.3746  -18.6883 C   0  0  0  0  0  0  0  0  0  0  0  0
   -5.1703    0.2892  -19.5429 C   0  0  0  0  0  0  0  0  0  0  0  0
   -4.0376    0.8365  -18.9712 C   0  0  0  0  0  0  0  0  0  0  0  0
   -3.1489    1.5282  -19.7626 C   0  0  0  0  0  0  0  0  0  0  0  0
   -3.4089    1.6599  -21.1084 C   0  0  0  0  0  0  0  0  0  0  0  0
   -4.5488    1.1155  -21.7084 C   0  0  0  0  0  0  0  0  0  0  0  0
   -5.4531    0.4123  -20.9060 C   0  0  0  0  0  0  0  0  0  0  0  0
  1  2  2  0  0  0
  2 13  1  0  0  0
  2  3  1  0  0  0
 13 14  1  0  0  0
 14 15  2  0  0  0
 15 16  1  0  0  0
 16 17  2  0  0  0
 17 18  1  0  0  0
 18 19  2  0  0  0
 19 20  1  0  0  0
 20 21  2  0  0  0
 21 22  1  0  0  0
 22 23  2  0  0  0
 23 14  1  0  0  0
 23 18  1  0  0  0
  3  4  1  0  0  0
  4  5  1  0  0  0
  5  6  1  0  0  0
  6  7  1  0  0  0
  7  8  1  0  0  0
  8  9  1  0  0  0
  9 10  2  0  0  0
 10 11  1  0  0  0
 11 12  1  0  0  0
 11  7  2  0  0  0
 12  3  1  0  0  0
M  END
> <minimizedAffinity>
-7.23572

> <CNNscore>
0.5056399703

> <CNNaffinity>
5.4069261551

> <CNN_VS>
2.7339580059

> <CNNaffinity_variance>
0.0859491378

$$$$



 23 26  0  0  0  0  0  0  0  0999 V2000
   -8.9892   -0.1050  -21.5432 O   0  0  0  0  0  0  0  0  0  0  0  0
   -8.0789   -0.7088  -22.1522 C   0  0  0  0  0  0  0  0  0  0  0  0
   -8.0670   -0.6223  -23.5831 N   0  0  0  0  0  0  0  0  0  0  0  0
   -9.1056    0.1483  -24.2333 C   0  0  0  0  0  0  0  0  0  0  0  0
   -8.4106    1.4310  -24.7065 C   0  0  0  0  0  0  0  0  0  0  0  0
   -8.0213    1.2349  -26.1270 C   0  0  0  0  0  0  0  0  0  0  0  0
   -7.5235   -0.0909  -26.3976 C   0  0  0  0  0  0  0  0  0  0  0  0
   -7.4039   -0.5042  -28.1382 S   0  0  0  0  0  0  0  0  0  0  0  0
   -6.7633   -2.1496  -27.8502 C   0  0  0  0  0  0  0  0  0  0  0  0
   -6.6937   -2.2516  -26.5052 C   0  0  0  0  0  0  0  0  0  0  0  0
   -7.0814   -1.2013  -25.7517 C   0  0  0  0  0  0  0  0  0  0  0  0
   -6.9907   -1.3079  -24.2390 C   0  0  0  0  0  0  0  0  0  0  0  0
   -7.0065   -1.5060  -21.4970 C   0  0  0  0  0  0  0  0  0  0  0  0
   -6.3303   -0.8557  -20.3795 C   0  0  0  0  0  0  0  0  0  0  0  0
   -6.8090   -0.9488  -19.0845 C   0  0  0  0  0  0  0  0  0  0  0  0
   -6.1881   -0.3528  -18.0311 N   0  0  0  0  0  0  0  0  0  0  0  0
   -5.0683    0.3713  -18.1539 C   0  0  0  0  0  0  0  0  0  0  0  0
   -4.5486    0.4976  -19.4263 C   0  0  0  0  0  0  0  0  0  0  0  0
   -3.4056    1.2647  -19.5476 C   0  0  0  0  0  0  0  0  0  0  0  0
   -2.8445    1.4478  -20.7911 C   0  0  0  0  0  0  0  0  0  0  0  0
   -3.4355    0.8620  -21.8882 C   0  0  0  0  0  0  0  0  0  0  0  0
   -4.5926    0.0827  -21.7895 C   0  0  0  0  0  0  0  0  0  0  0  0
   -5.1644   -0.1046  -20.5270 C   0  0  0  0  0  0  0  0  0  0  0  0
  1  2  2  0  0  0
  2 13  1  0  0  0
  2  3  1  0  0  0
 13 14  1  0  0  0
 14 15  2  0  0  0
 15 16  1  0  0  0
 16 17  2  0  0  0
 17 18  1  0  0  0
 18 19  2  0  0  0
 19 20  1  0  0  0
 20 21  2  0  0  0
 21 22  1  0  0  0
 22 23  2  0  0  0
 23 14  1  0  0  0
 23 18  1  0  0  0
  3  4  1  0  0  0
  4  5  1  0  0  0
  5  6  1  0  0  0
  6  7  1  0  0  0
  7  8  1  0  0  0
  8  9  1  0  0  0
  9 10  2  0  0  0
 10 11  1  0  0  0
 11 12  1  0  0  0
 11  7  2  0  0  0
 12  3  1  0  0  0
M  END
> <minimizedAffinity>
-6.40296

> <CNNscore>
0.4093407393

> <CNNaffinity>
5.0249781609

> <CNN_VS>
2.0569281578

> <CNNaffinity_variance>
0.0319607370

$$$$



 23 26  0  0  0  0  0  0  0  0999 V2000
   -8.4398   -1.5512  -20.9704 O   0  0  0  0  0  0  0  0  0  0  0  0
   -8.0617   -0.8117  -21.9053 C   0  0  0  0  0  0  0  0  0  0  0  0
   -6.9676    0.0779  -21.6470 N   0  0  0  0  0  0  0  0  0  0  0  0
   -6.3740    0.0714  -20.3268 C   0  0  0  0  0  0  0  0  0  0  0  0
   -5.0265   -0.6401  -20.5012 C   0  0  0  0  0  0  0  0  0  0  0  0
   -3.9858    0.4045  -20.6850 C   0  0  0  0  0  0  0  0  0  0  0  0
   -4.4256    1.4990  -21.5142 C   0  0  0  0  0  0  0  0  0  0  0  0
   -3.3730    2.9495  -21.4584 S   0  0  0  0  0  0  0  0  0  0  0  0
   -4.3636    3.8889  -22.6145 C   0  0  0  0  0  0  0  0  0  0  0  0
   -5.3778    3.0581  -22.9394 C   0  0  0  0  0  0  0  0  0  0  0  0
   -5.4183    1.8305  -22.3802 C   0  0  0  0  0  0  0  0  0  0  0  0
   -6.5500    0.8888  -22.7546 C   0  0  0  0  0  0  0  0  0  0  0  0
   -8.6638   -0.7930  -23.2661 C   0  0  0  0  0  0  0  0  0  0  0  0
   -9.9459   -0.1058  -23.3794 C   0  0  0  0  0  0  0  0  0  0  0  0
  -10.0269    1.2346  -23.7131 C   0  0  0  0  0  0  0  0  0  0  0  0
  -11.2139    1.8889  -23.8276 N   0  0  0  0  0  0  0  0  0  0  0  0
  -12.3991    1.2981  -23.6283 C   0  0  0  0  0  0  0  0  0  0  0  0
  -12.3753   -0.0401  -23.2910 C   0  0  0  0  0  0  0  0  0  0  0  0
  -13.6012   -0.6367  -23.0654 C   0  0  0  0  0  0  0  0  0  0  0  0
  -13.6497   -1.9648  -22.7071 C   0  0  0  0  0  0  0  0  0  0  0  0
  -12.4741   -2.6704  -22.5810 C   0  0  0  0  0  0  0  0  0  0  0  0
  -11.2225   -2.0874  -22.8034 C   0  0  0  0  0  0  0  0  0  0  0  0
  -11.1708   -0.7381  -23.1675 C   0  0  0  0  0  0  0  0  0  0  0  0
  1  2  2  0  0  0
  2 13  1  0  0  0
  2  3  1  0  0  0
 13 14  1  0  0  0
 14 15  2  0  0  0
 15 16  1  0  0  0
 16 17  2  0  0  0
 17 18  1  0  0  0
 18 19  2  0  0  0
 19 20  1  0  0  0
 20 21  2  0  0  0
 21 22  1  0  0  0
 22 23  2  0  0  0
 23 14  1  0  0  0
 23 18  1  0  0  0
  3  4  1  0  0  0
  4  5  1  0  0  0
  5  6  1  0  0  0
  6  7  1  0  0  0
  7  8  1  0  0  0
  8  9  1  0  0  0
  9 10  2  0  0  0
 10 11  1  0  0  0
 11 12  1  0  0  0
 11  7  2  0  0  0
 12  3  1  0  0  0
M  END
> <minimizedAffinity>
-6.08725

> <CNNscore>
0.3769899309

> <CNNaffinity>
5.0684943199

> <CNN_VS>
1.9107713699

> <CNNaffinity_variance>
0.0545332022

$$$$



 23 26  0  0  0  0  0  0  0  0999 V2000
   -8.3739   -0.7242  -26.0519 O   0  0  0  0  0  0  0  0  0  0  0  0
   -8.2677   -1.2993  -24.9464 C   0  0  0  0  0  0  0  0  0  0  0  0
   -7.7081   -2.6191  -24.9360 N   0  0  0  0  0  0  0  0  0  0  0  0
   -7.3077   -3.2055  -26.1974 C   0  0  0  0  0  0  0  0  0  0  0  0
   -5.7747   -3.1587  -26.1880 C   0  0  0  0  0  0  0  0  0  0  0  0
   -5.2866   -4.4787  -25.7114 C   0  0  0  0  0  0  0  0  0  0  0  0
   -6.0770   -5.0163  -24.6320 C   0  0  0  0  0  0  0  0  0  0  0  0
   -5.7806   -6.7489  -24.2787 S   0  0  0  0  0  0  0  0  0  0  0  0
   -6.9617   -6.8249  -22.9372 C   0  0  0  0  0  0  0  0  0  0  0  0
   -7.4693   -5.5752  -22.8662 C   0  0  0  0  0  0  0  0  0  0  0  0
   -7.0220   -4.6408  -23.7311 C   0  0  0  0  0  0  0  0  0  0  0  0
   -7.5806   -3.2307  -23.6443 C   0  0  0  0  0  0  0  0  0  0  0  0
   -8.6767   -0.7095  -23.6428 C   0  0  0  0  0  0  0  0  0  0  0  0
   -9.9913   -0.0767  -23.6213 C   0  0  0  0  0  0  0  0  0  0  0  0
  -10.1612    1.2605  -23.9340 C   0  0  0  0  0  0  0  0  0  0  0  0
  -11.3800    1.8645  -23.9235 N   0  0  0  0  0  0  0  0  0  0  0  0
  -12.5134    1.2233  -23.6115 C   0  0  0  0  0  0  0  0  0  0  0  0
  -12.4002   -0.1142  -23.2895 C   0  0  0  0  0  0  0  0  0  0  0  0
  -13.5712   -0.7630  -22.9473 C   0  0  0  0  0  0  0  0  0  0  0  0
  -13.5282   -2.0935  -22.5971 C   0  0  0  0  0  0  0  0  0  0  0  0
  -12.3174   -2.7493  -22.5953 C   0  0  0  0  0  0  0  0  0  0  0  0
  -11.1199   -2.1129  -22.9370 C   0  0  0  0  0  0  0  0  0  0  0  0
  -11.1614   -0.7611  -23.2931 C   0  0  0  0  0  0  0  0  0  0  0  0
  1  2  2  0  0  0
  2 13  1  0  0  0
  2  3  1  0  0  0
 13 14  1  0  0  0
 14 15  2  0  0  0
 15 16  1  0  0  0
 16 17  2  0  0  0
 17 18  1  0  0  0
 18 19  2  0  0  0
 19 20  1  0  0  0
 20 21  2  0  0  0
 21 22  1  0  0  0
 22 23  2  0  0  0
 23 14  1  0  0  0
 23 18  1  0  0  0
  3  4  1  0  0  0
  4  5  1  0  0  0
  5  6  1  0  0  0
  6  7  1  0  0  0
  7  8  1  0  0  0
  8  9  1  0  0  0
  9 10  2  0  0  0
 10 11  1  0  0  0
 11 12  1  0  0  0
 11  7  2  0  0  0
 12  3  1  0  0  0
M  END
> <minimizedAffinity>
-5.81324

> <CNNscore>
0.3140396476

> <CNNaffinity>
5.1016893387

> <CNN_VS>
1.6021326780

> <CNNaffinity_variance>
0.1802471876

$$$$



 23 26  0  0  0  0  0  0  0  0999 V2000
   -8.4901   -1.6955  -21.3977 O   0  0  0  0  0  0  0  0  0  0  0  0
   -7.8223   -2.5458  -22.0263 C   0  0  0  0  0  0  0  0  0  0  0  0
   -8.5170   -3.3672  -22.9737 N   0  0  0  0  0  0  0  0  0  0  0  0
   -9.9411   -3.1689  -23.1408 C   0  0  0  0  0  0  0  0  0  0  0  0
  -10.0869   -2.4570  -24.4915 C   0  0  0  0  0  0  0  0  0  0  0  0
  -10.3692   -3.4929  -25.5186 C   0  0  0  0  0  0  0  0  0  0  0  0
   -9.6026   -4.6991  -25.3289 C   0  0  0  0  0  0  0  0  0  0  0  0
  -10.1697   -6.1044  -26.2873 S   0  0  0  0  0  0  0  0  0  0  0  0
   -8.9071   -7.2137  -25.6743 C   0  0  0  0  0  0  0  0  0  0  0  0
   -8.1817   -6.4577  -24.8219 C   0  0  0  0  0  0  0  0  0  0  0  0
   -8.5306   -5.1671  -24.6380 C   0  0  0  0  0  0  0  0  0  0  0  0
   -7.7078   -4.3106  -23.6908 C   0  0  0  0  0  0  0  0  0  0  0  0
   -6.3589   -2.7618  -21.8632 C   0  0  0  0  0  0  0  0  0  0  0  0
   -5.5408   -1.5538  -21.8468 C   0  0  0  0  0  0  0  0  0  0  0  0
   -4.9980   -1.0257  -23.0049 C   0  0  0  0  0  0  0  0  0  0  0  0
   -4.2374    0.1020  -23.0076 N   0  0  0  0  0  0  0  0  0  0  0  0
   -3.9487    0.7944  -21.8982 C   0  0  0  0  0  0  0  0  0  0  0  0
   -4.4647    0.3095  -20.7134 C   0  0  0  0  0  0  0  0  0  0  0  0
   -4.1439    1.0171  -19.5707 C   0  0  0  0  0  0  0  0  0  0  0  0
   -4.6100    0.5786  -18.3520 C   0  0  0  0  0  0  0  0  0  0  0  0
   -5.3864   -0.5573  -18.2985 C   0  0  0  0  0  0  0  0  0  0  0  0
   -5.7228   -1.2898  -19.4415 C   0  0  0  0  0  0  0  0  0  0  0  0
   -5.2503   -0.8459  -20.6807 C   0  0  0  0  0  0  0  0  0  0  0  0
  1  2  2  0  0  0
  2 13  1  0  0  0
  2  3  1  0  0  0
 13 14  1  0  0  0
 14 15  2  0  0  0
 15 16  1  0  0  0
 16 17  2  0  0  0
 17 18  1  0  0  0
 18 19  2  0  0  0
 19 20  1  0  0  0
 20 21  2  0  0  0
 21 22  1  0  0  0
 22 23  2  0  0  0
 23 14  1  0  0  0
 23 18  1  0  0  0
  3  4  1  0  0  0
  4  5  1  0  0  0
  5  6  1  0  0  0
  6  7  1  0  0  0
  7  8  1  0  0  0
  8  9  1  0  0  0
  9 10  2  0  0  0
 10 11  1  0  0  0
 11 12  1  0  0  0
 11  7  2  0  0  0
 12  3  1  0  0  0
M  END
> <minimizedAffinity>
-7.06490

> <CNNscore>
0.3060923517

> <CNNaffinity>
5.0253992081

> <CNN_VS>
1.5382362604

> <CNNaffinity_variance>
0.1407304108

$$$$



 23 26  0  0  0  0  0  0  0  0999 V2000
   -5.3614   -4.2088  -21.1603 O   0  0  0  0  0  0  0  0  0  0  0  0
   -6.1529   -3.7147  -21.9931 C   0  0  0  0  0  0  0  0  0  0  0  0
   -6.6075   -4.5591  -23.0587 N   0  0  0  0  0  0  0  0  0  0  0  0
   -6.1219   -5.9218  -23.1101 C   0  0  0  0  0  0  0  0  0  0  0  0
   -7.3109   -6.7836  -22.6673 C   0  0  0  0  0  0  0  0  0  0  0  0
   -8.0065   -7.2555  -23.8926 C   0  0  0  0  0  0  0  0  0  0  0  0
   -8.0887   -6.2460  -24.9187 C   0  0  0  0  0  0  0  0  0  0  0  0
   -8.5629   -6.8596  -26.5353 S   0  0  0  0  0  0  0  0  0  0  0  0
   -8.5045   -5.2530  -27.3202 C   0  0  0  0  0  0  0  0  0  0  0  0
   -8.1427   -4.4089  -26.3297 C   0  0  0  0  0  0  0  0  0  0  0  0
   -7.9271   -4.9086  -25.0948 C   0  0  0  0  0  0  0  0  0  0  0  0
   -7.5341   -3.9596  -23.9756 C   0  0  0  0  0  0  0  0  0  0  0  0
   -6.6584   -2.3156  -21.9535 C   0  0  0  0  0  0  0  0  0  0  0  0
   -5.6393   -1.2801  -21.8197 C   0  0  0  0  0  0  0  0  0  0  0  0
   -4.8903   -0.8511  -22.9013 C   0  0  0  0  0  0  0  0  0  0  0  0
   -3.9400    0.1163  -22.7946 N   0  0  0  0  0  0  0  0  0  0  0  0
   -3.6476    0.7332  -21.6425 C   0  0  0  0  0  0  0  0  0  0  0  0
   -4.3654    0.3415  -20.5305 C   0  0  0  0  0  0  0  0  0  0  0  0
   -4.0423    0.9671  -19.3415 C   0  0  0  0  0  0  0  0  0  0  0  0
   -4.7064    0.6113  -18.1895 C   0  0  0  0  0  0  0  0  0  0  0  0
   -5.6789   -0.3618  -18.2474 C   0  0  0  0  0  0  0  0  0  0  0  0
   -6.0217   -1.0088  -19.4389 C   0  0  0  0  0  0  0  0  0  0  0  0
   -5.3483   -0.6488  -20.6106 C   0  0  0  0  0  0  0  0  0  0  0  0
  1  2  2  0  0  0
  2 13  1  0  0  0
  2  3  1  0  0  0
 13 14  1  0  0  0
 14 15  2  0  0  0
 15 16  1  0  0  0
 16 17  2  0  0  0
 17 18  1  0  0  0
 18 19  2  0  0  0
 19 20  1  0  0  0
 20 21  2  0  0  0
 21 22  1  0  0  0
 22 23  2  0  0  0
 23 14  1  0  0  0
 23 18  1  0  0  0
  3  4  1  0  0  0
  4  5  1  0  0  0
  5  6  1  0  0  0
  6  7  1  0  0  0
  7  8  1  0  0  0
  8  9  1  0  0  0
  9 10  2  0  0  0
 10 11  1  0  0  0
 11 12  1  0  0  0
 11  7  2  0  0  0
 12  3  1  0  0  0
M  END
> <minimizedAffinity>
-6.95917

> <CNNscore>
0.2328451127

> <CNNaffinity>
5.0585851669

> <CNN_VS>
1.1778668165

> <CNNaffinity_variance>
0.1860550344

$$$$



 26 29  0  0  0  0  0  0  0  0999 V2000
   -9.0354   -1.0192  -21.5136 O   0  0  0  0  0  0  0  0  0  0  0  0
   -8.2070   -0.7913  -22.4684 C   0  0  0  0  0  0  0  0  0  0  0  0
   -8.2393   -1.5011  -23.6874 N   0  0  0  0  0  0  0  0  0  0  0  0
   -7.2880   -1.2597  -24.7871 C   0  0  0  0  0  0  0  0  0  0  0  0
   -6.3195   -2.4180  -24.7695 C   0  0  0  0  0  0  0  0  0  0  0  0
   -6.9480   -3.5758  -24.0737 C   0  0  0  0  0  0  0  0  0  0  0  0
   -8.4291   -3.7479  -24.3995 C   0  0  0  0  0  0  0  0  0  0  0  0
   -9.2274   -2.5427  -23.9997 C   0  0  0  0  0  0  0  0  0  0  0  0
   -7.2197    0.2870  -22.1675 C   0  0  0  0  0  0  0  0  0  0  0  0
   -6.4749    0.0731  -20.9042 C   0  0  0  0  0  0  0  0  0  0  0  0
   -6.8422   -0.7969  -19.9142 C   0  0  0  0  0  0  0  0  0  0  0  0
   -6.1174   -0.9166  -18.7794 N   0  0  0  0  0  0  0  0  0  0  0  0
   -5.0006   -0.2110  -18.5273 C   0  0  0  0  0  0  0  0  0  0  0  0
   -4.6090    0.6783  -19.5192 C   0  0  0  0  0  0  0  0  0  0  0  0
   -3.4622    1.4324  -19.3035 C   0  0  0  0  0  0  0  0  0  0  0  0
   -3.0137    2.3360  -20.2346 C   0  0  0  0  0  0  0  0  0  0  0  0
   -3.7321    2.4819  -21.4022 C   0  0  0  0  0  0  0  0  0  0  0  0
   -4.8751    1.7349  -21.6272 C   0  0  0  0  0  0  0  0  0  0  0  0
   -5.3231    0.8262  -20.6870 C   0  0  0  0  0  0  0  0  0  0  0  0
  -10.2050   -2.7786  -22.9242 C   0  0  0  0  0  0  0  0  0  0  0  0
  -11.4908   -2.0424  -23.0462 C   0  0  0  0  0  0  0  0  0  0  0  0
  -12.6100   -2.5750  -22.3912 C   0  0  0  0  0  0  0  0  0  0  0  0
  -13.8485   -1.9638  -22.4557 C   0  0  0  0  0  0  0  0  0  0  0  0
  -13.9946   -0.8016  -23.1815 C   0  0  0  0  0  0  0  0  0  0  0  0
  -12.8964   -0.2810  -23.8230 C   0  0  0  0  0  0  0  0  0  0  0  0
  -11.6427   -0.8818  -23.7689 C   0  0  0  0  0  0  0  0  0  0  0  0
  1  2  2  0  0  0
  2  9  1  0  0  0
  2  3  1  0  0  0
  9 10  1  0  0  0
 10 11  2  0  0  0
 11 12  1  0  0  0
 12 13  2  0  0  0
 13 14  1  0  0  0
 14 15  2  0  0  0
 15 16  1  0  0  0
 16 17  2  0  0  0
 17 18  1  0  0  0
 18 19  2  0  0  0
 19 10  1  0  0  0
 19 14  1  0  0  0
  3  4  1  0  0  0
  4  5  1  0  0  0
  5  6  1  0  0  0
  6  7  1  0  0  0
  7  8  1  0  0  0
  8 20  1  0  0  0
  8  3  1  0  0  0
 20 21  1  0  0  0
 21 22  2  0  0  0
 22 23  1  0  0  0
 23 24  2  0  0  0
 24 25  1  0  0  0
 25 26  2  0  0  0
 26 21  1  0  0  0
M  END
> <minimizedAffinity>
-7.28605

> <CNNscore>
0.7714174986

> <CNNaffinity>
5.9521665573

> <CNN_VS>
4.5916056633

> <CNNaffinity_variance>
0.1014181599

$$$$



 26 29  0  0  0  0  0  0  0  0999 V2000
   -8.6876    0.6863  -21.6416 O   0  0  0  0  0  0  0  0  0  0  0  0
   -8.5299   -0.3881  -22.3278 C   0  0  0  0  0  0  0  0  0  0  0  0
   -9.4808   -0.8337  -23.2701 N   0  0  0  0  0  0  0  0  0  0  0  0
   -9.3198   -2.0705  -24.0558 C   0  0  0  0  0  0  0  0  0  0  0  0
  -10.2588   -3.0834  -23.4457 C   0  0  0  0  0  0  0  0  0  0  0  0
  -11.3307   -2.3722  -22.6941 C   0  0  0  0  0  0  0  0  0  0  0  0
  -11.8260   -1.1093  -23.3933 C   0  0  0  0  0  0  0  0  0  0  0  0
  -10.7220   -0.1117  -23.5816 C   0  0  0  0  0  0  0  0  0  0  0  0
   -7.2562   -1.1097  -22.0366 C   0  0  0  0  0  0  0  0  0  0  0  0
   -6.6806   -0.7847  -20.7101 C   0  0  0  0  0  0  0  0  0  0  0  0
   -7.2252   -1.1466  -19.5083 C   0  0  0  0  0  0  0  0  0  0  0  0
   -6.6474   -0.7902  -18.3393 N   0  0  0  0  0  0  0  0  0  0  0  0
   -5.5164   -0.0675  -18.2536 C   0  0  0  0  0  0  0  0  0  0  0  0
   -4.9461    0.3105  -19.4619 C   0  0  0  0  0  0  0  0  0  0  0  0
   -3.7776    1.0612  -19.4251 C   0  0  0  0  0  0  0  0  0  0  0  0
   -3.1569    1.4767  -20.5769 C   0  0  0  0  0  0  0  0  0  0  0  0
   -3.7225    1.1301  -21.7854 C   0  0  0  0  0  0  0  0  0  0  0  0
   -4.8857    0.3819  -21.8330 C   0  0  0  0  0  0  0  0  0  0  0  0
   -5.5073   -0.0345  -20.6709 C   0  0  0  0  0  0  0  0  0  0  0  0
  -10.8875    1.1421  -22.8275 C   0  0  0  0  0  0  0  0  0  0  0  0
  -11.6563    2.2132  -23.5144 C   0  0  0  0  0  0  0  0  0  0  0  0
  -10.9394    3.1280  -24.2982 C   0  0  0  0  0  0  0  0  0  0  0  0
  -11.5688    4.1617  -24.9666 C   0  0  0  0  0  0  0  0  0  0  0  0
  -12.9356    4.3037  -24.8635 C   0  0  0  0  0  0  0  0  0  0  0  0
  -13.6368    3.4060  -24.0946 C   0  0  0  0  0  0  0  0  0  0  0  0
  -13.0205    2.3597  -23.4155 C   0  0  0  0  0  0  0  0  0  0  0  0
  1  2  2  0  0  0
  2  9  1  0  0  0
  2  3  1  0  0  0
  9 10  1  0  0  0
 10 11  2  0  0  0
 11 12  1  0  0  0
 12 13  2  0  0  0
 13 14  1  0  0  0
 14 15  2  0  0  0
 15 16  1  0  0  0
 16 17  2  0  0  0
 17 18  1  0  0  0
 18 19  2  0  0  0
 19 10  1  0  0  0
 19 14  1  0  0  0
  3  4  1  0  0  0
  4  5  1  0  0  0
  5  6  1  0  0  0
  6  7  1  0  0  0
  7  8  1  0  0  0
  8 20  1  0  0  0
  8  3  1  0  0  0
 20 21  1  0  0  0
 21 22  2  0  0  0
 22 23  1  0  0  0
 23 24  2  0  0  0
 24 25  1  0  0  0
 25 26  2  0  0  0
 26 21  1  0  0  0
M  END
> <minimizedAffinity>
-8.34304

> <CNNscore>
0.7018406391

> <CNNaffinity>
5.8132128716

> <CNN_VS>
4.0799489021

> <CNNaffinity_variance>
0.1171808988

$$$$



 26 29  0  0  0  0  0  0  0  0999 V2000
   -8.2940   -1.8707  -21.0193 O   0  0  0  0  0  0  0  0  0  0  0  0
   -7.4613   -2.1722  -21.9497 C   0  0  0  0  0  0  0  0  0  0  0  0
   -7.8365   -2.2543  -23.3073 N   0  0  0  0  0  0  0  0  0  0  0  0
   -6.8955   -2.6110  -24.3844 C   0  0  0  0  0  0  0  0  0  0  0  0
   -7.2205   -4.0329  -24.7752 C   0  0  0  0  0  0  0  0  0  0  0  0
   -8.6175   -4.3498  -24.3656 C   0  0  0  0  0  0  0  0  0  0  0  0
   -9.5905   -3.1946  -24.5842 C   0  0  0  0  0  0  0  0  0  0  0  0
   -9.1945   -1.9808  -23.7971 C   0  0  0  0  0  0  0  0  0  0  0  0
   -6.0732   -2.4217  -21.4608 C   0  0  0  0  0  0  0  0  0  0  0  0
   -5.6966   -1.5880  -20.2948 C   0  0  0  0  0  0  0  0  0  0  0  0
   -6.1088   -1.8057  -19.0085 C   0  0  0  0  0  0  0  0  0  0  0  0
   -5.7367   -0.9828  -18.0026 N   0  0  0  0  0  0  0  0  0  0  0  0
   -4.9495    0.0947  -18.1702 C   0  0  0  0  0  0  0  0  0  0  0  0
   -4.5190    0.3345  -19.4683 C   0  0  0  0  0  0  0  0  0  0  0  0
   -3.7055    1.4383  -19.6923 C   0  0  0  0  0  0  0  0  0  0  0  0
   -3.2435    1.7442  -20.9483 C   0  0  0  0  0  0  0  0  0  0  0  0
   -3.6066    0.9245  -21.9956 C   0  0  0  0  0  0  0  0  0  0  0  0
   -4.4157   -0.1780  -21.7830 C   0  0  0  0  0  0  0  0  0  0  0  0
   -4.8786   -0.4823  -20.5167 C   0  0  0  0  0  0  0  0  0  0  0  0
  -10.1430   -1.5944  -22.7393 C   0  0  0  0  0  0  0  0  0  0  0  0
  -11.0738   -0.4859  -23.0787 C   0  0  0  0  0  0  0  0  0  0  0  0
  -10.5697    0.8215  -23.0403 C   0  0  0  0  0  0  0  0  0  0  0  0
  -11.3638    1.9151  -23.3323 C   0  0  0  0  0  0  0  0  0  0  0  0
  -12.6861    1.7229  -23.6693 C   0  0  0  0  0  0  0  0  0  0  0  0
  -13.1785    0.4404  -23.7064 C   0  0  0  0  0  0  0  0  0  0  0  0
  -12.3944   -0.6717  -23.4162 C   0  0  0  0  0  0  0  0  0  0  0  0
  1  2  2  0  0  0
  2  9  1  0  0  0
  2  3  1  0  0  0
  9 10  1  0  0  0
 10 11  2  0  0  0
 11 12  1  0  0  0
 12 13  2  0  0  0
 13 14  1  0  0  0
 14 15  2  0  0  0
 15 16  1  0  0  0
 16 17  2  0  0  0
 17 18  1  0  0  0
 18 19  2  0  0  0
 19 10  1  0  0  0
 19 14  1  0  0  0
  3  4  1  0  0  0
  4  5  1  0  0  0
  5  6  1  0  0  0
  6  7  1  0  0  0
  7  8  1  0  0  0
  8 20  1  0  0  0
  8  3  1  0  0  0
 20 21  1  0  0  0
 21 22  2  0  0  0
 22 23  1  0  0  0
 23 24  2  0  0  0
 24 25  1  0  0  0
 25 26  2  0  0  0
 26 21  1  0  0  0
M  END
> <minimizedAffinity>
-8.07043

> <CNNscore>
0.6602165699

> <CNNaffinity>
5.6129426956

> <CNN_VS>
3.7057578564

> <CNNaffinity_variance>
0.3699592352

$$$$



 26 29  0  0  0  0  0  0  0  0999 V2000
   -6.6709   -1.7469  -23.3486 O   0  0  0  0  0  0  0  0  0  0  0  0
   -7.7527   -1.5738  -22.6780 C   0  0  0  0  0  0  0  0  0  0  0  0
   -8.8251   -2.4898  -22.7168 N   0  0  0  0  0  0  0  0  0  0  0  0
  -10.0772   -2.2987  -21.9629 C   0  0  0  0  0  0  0  0  0  0  0  0
  -11.1179   -1.8774  -22.9727 C   0  0  0  0  0  0  0  0  0  0  0  0
  -10.6909   -2.3131  -24.3319 C   0  0  0  0  0  0  0  0  0  0  0  0
  -10.0400   -3.6934  -24.3498 C   0  0  0  0  0  0  0  0  0  0  0  0
   -8.8073   -3.7351  -23.4964 C   0  0  0  0  0  0  0  0  0  0  0  0
   -7.7638   -0.3248  -21.8608 C   0  0  0  0  0  0  0  0  0  0  0  0
   -6.9332   -0.4102  -20.6362 C   0  0  0  0  0  0  0  0  0  0  0  0
   -7.2127   -1.1957  -19.5515 C   0  0  0  0  0  0  0  0  0  0  0  0
   -6.4129   -1.1991  -18.4617 N   0  0  0  0  0  0  0  0  0  0  0  0
   -5.3007   -0.4515  -18.3478 C   0  0  0  0  0  0  0  0  0  0  0  0
   -4.9976    0.3536  -19.4378 C   0  0  0  0  0  0  0  0  0  0  0  0
   -3.8593    1.1469  -19.3662 C   0  0  0  0  0  0  0  0  0  0  0  0
   -3.4959    1.9727  -20.4009 C   0  0  0  0  0  0  0  0  0  0  0  0
   -4.2921    1.9995  -21.5260 C   0  0  0  0  0  0  0  0  0  0  0  0
   -5.4275    1.2125  -21.6077 C   0  0  0  0  0  0  0  0  0  0  0  0
   -5.7897    0.3824  -20.5636 C   0  0  0  0  0  0  0  0  0  0  0  0
   -7.5528   -3.9585  -24.2343 C   0  0  0  0  0  0  0  0  0  0  0  0
   -6.8288   -5.2166  -23.9128 C   0  0  0  0  0  0  0  0  0  0  0  0
   -7.2577   -5.9467  -22.7957 C   0  0  0  0  0  0  0  0  0  0  0  0
   -6.6392   -7.1235  -22.4158 C   0  0  0  0  0  0  0  0  0  0  0  0
   -5.5723   -7.5965  -23.1485 C   0  0  0  0  0  0  0  0  0  0  0  0
   -5.1532   -6.8794  -24.2434 C   0  0  0  0  0  0  0  0  0  0  0  0
   -5.7635   -5.6939  -24.6407 C   0  0  0  0  0  0  0  0  0  0  0  0
  1  2  2  0  0  0
  2  9  1  0  0  0
  2  3  1  0  0  0
  9 10  1  0  0  0
 10 11  2  0  0  0
 11 12  1  0  0  0
 12 13  2  0  0  0
 13 14  1  0  0  0
 14 15  2  0  0  0
 15 16  1  0  0  0
 16 17  2  0  0  0
 17 18  1  0  0  0
 18 19  2  0  0  0
 19 10  1  0  0  0
 19 14  1  0  0  0
  3  4  1  0  0  0
  4  5  1  0  0  0
  5  6  1  0  0  0
  6  7  1  0  0  0
  7  8  1  0  0  0
  8 20  1  0  0  0
  8  3  1  0  0  0
 20 21  1  0  0  0
 21 22  2  0  0  0
 22 23  1  0  0  0
 23 24  2  0  0  0
 24 25  1  0  0  0
 25 26  2  0  0  0
 26 21  1  0  0  0
M  END
> <minimizedAffinity>
-7.37028

> <CNNscore>
0.3854906857

> <CNNaffinity>
5.4968242645

> <CNN_VS>
2.1189744473

> <CNNaffinity_variance>
0.3281145096

$$$$



 26 29  0  0  0  0  0  0  0  0999 V2000
   -9.2508    0.7011  -21.6656 O   0  0  0  0  0  0  0  0  0  0  0  0
   -9.1749   -0.4038  -22.3164 C   0  0  0  0  0  0  0  0  0  0  0  0
  -10.1465   -0.7970  -23.2609 N   0  0  0  0  0  0  0  0  0  0  0  0
  -10.0798   -2.0670  -24.0062 C   0  0  0  0  0  0  0  0  0  0  0  0
  -11.1099   -2.9775  -23.3819 C   0  0  0  0  0  0  0  0  0  0  0  0
  -12.1283   -2.1552  -22.6703 C   0  0  0  0  0  0  0  0  0  0  0  0
  -12.5047   -0.8776  -23.4155 C   0  0  0  0  0  0  0  0  0  0  0  0
  -11.3175    0.0169  -23.6150 C   0  0  0  0  0  0  0  0  0  0  0  0
   -7.9713   -1.2206  -21.9821 C   0  0  0  0  0  0  0  0  0  0  0  0
   -6.7109   -0.4410  -21.9684 C   0  0  0  0  0  0  0  0  0  0  0  0
   -6.0791    0.0492  -23.0785 C   0  0  0  0  0  0  0  0  0  0  0  0
   -4.9174    0.7336  -22.9812 N   0  0  0  0  0  0  0  0  0  0  0  0
   -4.2943    0.9877  -21.8166 C   0  0  0  0  0  0  0  0  0  0  0  0
   -4.9185    0.4994  -20.6765 C   0  0  0  0  0  0  0  0  0  0  0  0
   -4.3112    0.7343  -19.4491 C   0  0  0  0  0  0  0  0  0  0  0  0
   -4.8644    0.2795  -18.2779 C   0  0  0  0  0  0  0  0  0  0  0  0
   -6.0486   -0.4231  -18.3442 C   0  0  0  0  0  0  0  0  0  0  0  0
   -6.6621   -0.6616  -19.5616 C   0  0  0  0  0  0  0  0  0  0  0  0
   -6.1017   -0.2019  -20.7384 C   0  0  0  0  0  0  0  0  0  0  0  0
  -11.3869    1.3032  -22.9018 C   0  0  0  0  0  0  0  0  0  0  0  0
  -11.9924    2.4305  -23.6588 C   0  0  0  0  0  0  0  0  0  0  0  0
  -11.1339    3.2447  -24.4106 C   0  0  0  0  0  0  0  0  0  0  0  0
  -11.6062    4.3207  -25.1391 C   0  0  0  0  0  0  0  0  0  0  0  0
  -12.9541    4.6072  -25.1298 C   0  0  0  0  0  0  0  0  0  0  0  0
  -13.7942    3.8079  -24.3922 C   0  0  0  0  0  0  0  0  0  0  0  0
  -13.3370    2.7211  -23.6536 C   0  0  0  0  0  0  0  0  0  0  0  0
  1  2  2  0  0  0
  2  9  1  0  0  0
  2  3  1  0  0  0
  9 10  1  0  0  0
 10 11  2  0  0  0
 11 12  1  0  0  0
 12 13  2  0  0  0
 13 14  1  0  0  0
 14 15  2  0  0  0
 15 16  1  0  0  0
 16 17  2  0  0  0
 17 18  1  0  0  0
 18 19  2  0  0  0
 19 10  1  0  0  0
 19 14  1  0  0  0
  3  4  1  0  0  0
  4  5  1  0  0  0
  5  6  1  0  0  0
  6  7  1  0  0  0
  7  8  1  0  0  0
  8 20  1  0  0  0
  8  3  1  0  0  0
 20 21  1  0  0  0
 21 22  2  0  0  0
 22 23  1  0  0  0
 23 24  2  0  0  0
 24 25  1  0  0  0
 25 26  2  0  0  0
 26 21  1  0  0  0
M  END
> <minimizedAffinity>
-8.08683

> <CNNscore>
0.3732276857

> <CNNaffinity>
5.3390150070

> <CNN_VS>
1.9926682711

> <CNNaffinity_variance>
0.1351933181

$$$$



 26 29  0  0  0  0  0  0  0  0999 V2000
   -9.0126    0.4732  -21.4263 O   0  0  0  0  0  0  0  0  0  0  0  0
   -8.9621   -0.6428  -22.0604 C   0  0  0  0  0  0  0  0  0  0  0  0
   -9.8203   -0.9425  -23.1394 N   0  0  0  0  0  0  0  0  0  0  0  0
   -9.7827   -2.2230  -23.8686 C   0  0  0  0  0  0  0  0  0  0  0  0
  -10.9869   -3.0078  -23.4059 C   0  0  0  0  0  0  0  0  0  0  0  0
  -12.0036   -2.0701  -22.8522 C   0  0  0  0  0  0  0  0  0  0  0  0
  -12.1242   -0.7703  -23.6429 C   0  0  0  0  0  0  0  0  0  0  0  0
  -10.8302   -0.0122  -23.6623 C   0  0  0  0  0  0  0  0  0  0  0  0
   -7.9173   -1.5799  -21.5522 C   0  0  0  0  0  0  0  0  0  0  0  0
   -6.6572   -0.9060  -21.1591 C   0  0  0  0  0  0  0  0  0  0  0  0
   -6.3544   -0.4847  -19.8931 C   0  0  0  0  0  0  0  0  0  0  0  0
   -5.1886    0.1437  -19.6217 N   0  0  0  0  0  0  0  0  0  0  0  0
   -4.2468    0.4047  -20.5457 C   0  0  0  0  0  0  0  0  0  0  0  0
   -4.5333   -0.0147  -21.8380 C   0  0  0  0  0  0  0  0  0  0  0  0
   -3.5917    0.2350  -22.8287 C   0  0  0  0  0  0  0  0  0  0  0  0
   -3.8043   -0.1447  -24.1307 C   0  0  0  0  0  0  0  0  0  0  0  0
   -4.9845   -0.7867  -24.4396 C   0  0  0  0  0  0  0  0  0  0  0  0
   -5.9285   -1.0411  -23.4601 C   0  0  0  0  0  0  0  0  0  0  0  0
   -5.7104   -0.6571  -22.1504 C   0  0  0  0  0  0  0  0  0  0  0  0
  -10.8638    1.2844  -22.9652 C   0  0  0  0  0  0  0  0  0  0  0  0
  -11.5492    2.3889  -23.6867 C   0  0  0  0  0  0  0  0  0  0  0  0
  -12.9271    2.5440  -23.4806 C   0  0  0  0  0  0  0  0  0  0  0  0
  -13.6492    3.5376  -24.1154 C   0  0  0  0  0  0  0  0  0  0  0  0
  -13.0051    4.4006  -24.9753 C   0  0  0  0  0  0  0  0  0  0  0  0
  -11.6543    4.2469  -25.1761 C   0  0  0  0  0  0  0  0  0  0  0  0
  -10.9115    3.2536  -24.5458 C   0  0  0  0  0  0  0  0  0  0  0  0
  1  2  2  0  0  0
  2  9  1  0  0  0
  2  3  1  0  0  0
  9 10  1  0  0  0
 10 11  2  0  0  0
 11 12  1  0  0  0
 12 13  2  0  0  0
 13 14  1  0  0  0
 14 15  2  0  0  0
 15 16  1  0  0  0
 16 17  2  0  0  0
 17 18  1  0  0  0
 18 19  2  0  0  0
 19 10  1  0  0  0
 19 14  1  0  0  0
  3  4  1  0  0  0
  4  5  1  0  0  0
  5  6  1  0  0  0
  6  7  1  0  0  0
  7  8  1  0  0  0
  8 20  1  0  0  0
  8  3  1  0  0  0
 20 21  1  0  0  0
 21 22  2  0  0  0
 22 23  1  0  0  0
 23 24  2  0  0  0
 24 25  1  0  0  0
 25 26  2  0  0  0
 26 21  1  0  0  0
M  END
> <minimizedAffinity>
-7.26688

> <CNNscore>
0.3661608994

> <CNNaffinity>
5.3437027931

> <CNN_VS>
1.9566550255

> <CNNaffinity_variance>
0.0567504838

$$$$



 26 29  0  0  0  0  0  0  0  0999 V2000
   -8.5477   -2.3850  -21.7710 O   0  0  0  0  0  0  0  0  0  0  0  0
   -8.1310   -1.3440  -22.3977 C   0  0  0  0  0  0  0  0  0  0  0  0
   -7.8248   -1.3587  -23.7749 N   0  0  0  0  0  0  0  0  0  0  0  0
   -7.3341   -0.1759  -24.5050 C   0  0  0  0  0  0  0  0  0  0  0  0
   -5.8588   -0.4028  -24.7332 C   0  0  0  0  0  0  0  0  0  0  0  0
   -5.5651   -1.8610  -24.6481 C   0  0  0  0  0  0  0  0  0  0  0  0
   -6.6398   -2.7345  -25.2895 C   0  0  0  0  0  0  0  0  0  0  0  0
   -7.9741   -2.5427  -24.6320 C   0  0  0  0  0  0  0  0  0  0  0  0
   -8.0062   -0.1305  -21.5376 C   0  0  0  0  0  0  0  0  0  0  0  0
   -7.0194   -0.2794  -20.4418 C   0  0  0  0  0  0  0  0  0  0  0  0
   -7.1649   -1.1065  -19.3617 C   0  0  0  0  0  0  0  0  0  0  0  0
   -6.2253   -1.1674  -18.3918 N   0  0  0  0  0  0  0  0  0  0  0  0
   -5.0936   -0.4407  -18.4000 C   0  0  0  0  0  0  0  0  0  0  0  0
   -4.9251    0.4057  -19.4878 C   0  0  0  0  0  0  0  0  0  0  0  0
   -3.7722    1.1795  -19.5397 C   0  0  0  0  0  0  0  0  0  0  0  0
   -3.5361    2.0435  -20.5801 C   0  0  0  0  0  0  0  0  0  0  0  0
   -4.4765    2.1292  -21.5845 C   0  0  0  0  0  0  0  0  0  0  0  0
   -5.6276    1.3622  -21.5427 C   0  0  0  0  0  0  0  0  0  0  0  0
   -5.8614    0.4934  -20.4934 C   0  0  0  0  0  0  0  0  0  0  0  0
   -8.4909   -3.7276  -23.9268 C   0  0  0  0  0  0  0  0  0  0  0  0
   -8.8384   -4.8905  -24.7853 C   0  0  0  0  0  0  0  0  0  0  0  0
   -9.9299   -4.7545  -25.6544 C   0  0  0  0  0  0  0  0  0  0  0  0
  -10.3313   -5.7856  -26.4834 C   0  0  0  0  0  0  0  0  0  0  0  0
   -9.6465   -6.9812  -26.4596 C   0  0  0  0  0  0  0  0  0  0  0  0
   -8.5767   -7.1127  -25.6070 C   0  0  0  0  0  0  0  0  0  0  0  0
   -8.1584   -6.0862  -24.7662 C   0  0  0  0  0  0  0  0  0  0  0  0
  1  2  2  0  0  0
  2  9  1  0  0  0
  2  3  1  0  0  0
  9 10  1  0  0  0
 10 11  2  0  0  0
 11 12  1  0  0  0
 12 13  2  0  0  0
 13 14  1  0  0  0
 14 15  2  0  0  0
 15 16  1  0  0  0
 16 17  2  0  0  0
 17 18  1  0  0  0
 18 19  2  0  0  0
 19 10  1  0  0  0
 19 14  1  0  0  0
  3  4  1  0  0  0
  4  5  1  0  0  0
  5  6  1  0  0  0
  6  7  1  0  0  0
  7  8  1  0  0  0
  8 20  1  0  0  0
  8  3  1  0  0  0
 20 21  1  0  0  0
 21 22  2  0  0  0
 22 23  1  0  0  0
 23 24  2  0  0  0
 24 25  1  0  0  0
 25 26  2  0  0  0
 26 21  1  0  0  0
M  END
> <minimizedAffinity>
-7.06103

> <CNNscore>
0.3209410608

> <CNNaffinity>
5.3402338028

> <CNN_VS>
1.7139003277

> <CNNaffinity_variance>
0.0961445570

$$$$



 26 29  0  0  0  0  0  0  0  0999 V2000
  -11.4722   -0.9759  -24.3596 O   0  0  0  0  0  0  0  0  0  0  0  0
  -10.5191   -0.4558  -23.6733 C   0  0  0  0  0  0  0  0  0  0  0  0
   -9.2460   -1.0546  -23.5664 N   0  0  0  0  0  0  0  0  0  0  0  0
   -8.1465   -0.4765  -22.7729 C   0  0  0  0  0  0  0  0  0  0  0  0
   -8.0419   -1.3159  -21.5221 C   0  0  0  0  0  0  0  0  0  0  0  0
   -8.6537   -2.6512  -21.7717 C   0  0  0  0  0  0  0  0  0  0  0  0
   -8.3526   -3.2061  -23.1612 C   0  0  0  0  0  0  0  0  0  0  0  0
   -8.8725   -2.3050  -24.2416 C   0  0  0  0  0  0  0  0  0  0  0  0
  -10.8842    0.8303  -23.0096 C   0  0  0  0  0  0  0  0  0  0  0  0
  -10.7576    2.0115  -23.8957 C   0  0  0  0  0  0  0  0  0  0  0  0
   -9.8421    2.1416  -24.9042 C   0  0  0  0  0  0  0  0  0  0  0  0
   -9.7780    3.2643  -25.6544 N   0  0  0  0  0  0  0  0  0  0  0  0
  -10.5855    4.3260  -25.4824 C   0  0  0  0  0  0  0  0  0  0  0  0
  -11.5230    4.2154  -24.4641 C   0  0  0  0  0  0  0  0  0  0  0  0
  -12.3785    5.2882  -24.2458 C   0  0  0  0  0  0  0  0  0  0  0  0
  -13.3284    5.2564  -23.2552 C   0  0  0  0  0  0  0  0  0  0  0  0
  -13.4181    4.1254  -22.4720 C   0  0  0  0  0  0  0  0  0  0  0  0
  -12.5713    3.0510  -22.6819 C   0  0  0  0  0  0  0  0  0  0  0  0
  -11.6163    3.0872  -23.6804 C   0  0  0  0  0  0  0  0  0  0  0  0
   -9.9490   -2.8833  -25.0630 C   0  0  0  0  0  0  0  0  0  0  0  0
   -9.5819   -4.0856  -25.8569 C   0  0  0  0  0  0  0  0  0  0  0  0
  -10.4091   -5.2123  -25.7514 C   0  0  0  0  0  0  0  0  0  0  0  0
  -10.1415   -6.3776  -26.4457 C   0  0  0  0  0  0  0  0  0  0  0  0
   -9.0342   -6.4411  -27.2635 C   0  0  0  0  0  0  0  0  0  0  0  0
   -8.2243   -5.3355  -27.3656 C   0  0  0  0  0  0  0  0  0  0  0  0
   -8.4782   -4.1547  -26.6751 C   0  0  0  0  0  0  0  0  0  0  0  0
  1  2  2  0  0  0
  2  9  1  0  0  0
  2  3  1  0  0  0
  9 10  1  0  0  0
 10 11  2  0  0  0
 11 12  1  0  0  0
 12 13  2  0  0  0
 13 14  1  0  0  0
 14 15  2  0  0  0
 15 16  1  0  0  0
 16 17  2  0  0  0
 17 18  1  0  0  0
 18 19  2  0  0  0
 19 10  1  0  0  0
 19 14  1  0  0  0
  3  4  1  0  0  0
  4  5  1  0  0  0
  5  6  1  0  0  0
  6  7  1  0  0  0
  7  8  1  0  0  0
  8 20  1  0  0  0
  8  3  1  0  0  0
 20 21  1  0  0  0
 21 22  2  0  0  0
 22 23  1  0  0  0
 23 24  2  0  0  0
 24 25  1  0  0  0
 25 26  2  0  0  0
 26 21  1  0  0  0
M  END
> <minimizedAffinity>
-6.36820

> <CNNscore>
0.2816882730

> <CNNaffinity>
5.2761368752

> <CNN_VS>
1.4862258434

> <CNNaffinity_variance>
0.2220682651

$$$$



 26 29  0  0  0  0  0  0  0  0999 V2000
   -8.8005   -1.5864  -25.1913 O   0  0  0  0  0  0  0  0  0  0  0  0
   -7.9027   -1.7340  -24.2845 C   0  0  0  0  0  0  0  0  0  0  0  0
   -7.9397   -1.0365  -23.0587 N   0  0  0  0  0  0  0  0  0  0  0  0
   -6.9106   -1.1859  -22.0140 C   0  0  0  0  0  0  0  0  0  0  0  0
   -6.0654    0.0640  -22.0721 C   0  0  0  0  0  0  0  0  0  0  0  0
   -6.8438    1.1558  -22.7216 C   0  0  0  0  0  0  0  0  0  0  0  0
   -8.3147    1.1766  -22.3152 C   0  0  0  0  0  0  0  0  0  0  0  0
   -9.0087   -0.1010  -22.6835 C   0  0  0  0  0  0  0  0  0  0  0  0
   -6.8301   -2.7062  -24.6486 C   0  0  0  0  0  0  0  0  0  0  0  0
   -7.1380   -4.1023  -24.2580 C   0  0  0  0  0  0  0  0  0  0  0  0
   -6.9082   -4.6401  -23.0212 C   0  0  0  0  0  0  0  0  0  0  0  0
   -7.1982   -5.9328  -22.7522 N   0  0  0  0  0  0  0  0  0  0  0  0
   -7.7242   -6.7840  -23.6508 C   0  0  0  0  0  0  0  0  0  0  0  0
   -7.9661   -6.2589  -24.9133 C   0  0  0  0  0  0  0  0  0  0  0  0
   -8.5067   -7.1008  -25.8773 C   0  0  0  0  0  0  0  0  0  0  0  0
   -8.7697   -6.6569  -27.1495 C   0  0  0  0  0  0  0  0  0  0  0  0
   -8.4837   -5.3435  -27.4553 C   0  0  0  0  0  0  0  0  0  0  0  0
   -7.9460   -4.4964  -26.5021 C   0  0  0  0  0  0  0  0  0  0  0  0
   -7.6828   -4.9475  -25.2224 C   0  0  0  0  0  0  0  0  0  0  0  0
  -10.0620    0.0401  -23.7027 C   0  0  0  0  0  0  0  0  0  0  0  0
  -11.3768   -0.5644  -23.3618 C   0  0  0  0  0  0  0  0  0  0  0  0
  -11.3752   -1.8406  -22.7818 C   0  0  0  0  0  0  0  0  0  0  0  0
  -12.5499   -2.4845  -22.4396 C   0  0  0  0  0  0  0  0  0  0  0  0
  -13.7574   -1.8625  -22.6726 C   0  0  0  0  0  0  0  0  0  0  0  0
  -13.7570   -0.6114  -23.2413 C   0  0  0  0  0  0  0  0  0  0  0  0
  -12.5851    0.0517  -23.5917 C   0  0  0  0  0  0  0  0  0  0  0  0
  1  2  2  0  0  0
  2  9  1  0  0  0
  2  3  1  0  0  0
  9 10  1  0  0  0
 10 11  2  0  0  0
 11 12  1  0  0  0
 12 13  2  0  0  0
 13 14  1  0  0  0
 14 15  2  0  0  0
 15 16  1  0  0  0
 16 17  2  0  0  0
 17 18  1  0  0  0
 18 19  2  0  0  0
 19 10  1  0  0  0
 19 14  1  0  0  0
  3  4  1  0  0  0
  4  5  1  0  0  0
  5  6  1  0  0  0
  6  7  1  0  0  0
  7  8  1  0  0  0
  8 20  1  0  0  0
  8  3  1  0  0  0
 20 21  1  0  0  0
 21 22  2  0  0  0
 22 23  1  0  0  0
 23 24  2  0  0  0
 24 25  1  0  0  0
 25 26  2  0  0  0
 26 21  1  0  0  0
M  END
> <minimizedAffinity>
-6.50988

> <CNNscore>
0.2476755679

> <CNNaffinity>
5.4938840866

> <CNN_VS>
1.3607008457

> <CNNaffinity_variance>
0.1763321310

$$$$



 28 32  0  0  0  0  0  0  0  0999 V2000
   -4.9462   -3.5573  -19.8704 O   0  0  0  0  0  0  0  0  0  0  0  0
   -5.6178   -3.1131  -20.8463 C   0  0  0  0  0  0  0  0  0  0  0  0
   -6.4189   -3.8912  -21.7271 N   0  0  0  0  0  0  0  0  0  0  0  0
   -6.8543   -3.0164  -22.7683 C   0  0  0  0  0  0  0  0  0  0  0  0
   -6.4829   -3.4145  -24.1887 C   0  0  0  0  0  0  0  0  0  0  0  0
   -7.7238   -4.2955  -24.1237 C   0  0  0  0  0  0  0  0  0  0  0  0
   -8.3034   -3.2145  -23.2354 C   0  0  0  0  0  0  0  0  0  0  0  0
   -6.5349   -1.6391  -22.3672 C   0  0  0  0  0  0  0  0  0  0  0  0
   -6.9702   -0.6202  -22.9636 O   0  0  0  0  0  0  0  0  0  0  0  0
   -5.6810   -1.7253  -21.2300 N   0  0  0  0  0  0  0  0  0  0  0  0
   -6.6321   -4.8481  -21.6364 H   0  0  0  0  0  0  0  0  0  0  0  0
   -5.0309   -0.6168  -20.6183 C   0  0  0  0  0  0  0  0  0  0  0  0
   -5.2422   -0.2449  -19.3067 C   0  0  0  0  0  0  0  0  0  0  0  0
   -4.5783    0.8197  -18.8214 N   0  0  0  0  0  0  0  0  0  0  0  0
   -3.7139    1.5581  -19.5262 C   0  0  0  0  0  0  0  0  0  0  0  0
   -3.4678    1.2238  -20.8501 C   0  0  0  0  0  0  0  0  0  0  0  0
   -2.5891    1.9365  -21.6447 C   0  0  0  0  0  0  0  0  0  0  0  0
   -2.3616    1.5752  -22.9765 C   0  0  0  0  0  0  0  0  0  0  0  0
   -3.0413    0.4802  -23.4837 C   0  0  0  0  0  0  0  0  0  0  0  0
   -3.9287   -0.2453  -22.6928 C   0  0  0  0  0  0  0  0  0  0  0  0
   -4.1371    0.1342  -21.3728 C   0  0  0  0  0  0  0  0  0  0  0  0
   -8.4078   -4.5618  -25.3860 C   0  0  0  0  0  0  0  0  0  0  0  0
   -8.7326   -3.6111  -26.3319 C   0  0  0  0  0  0  0  0  0  0  0  0
   -9.3807   -3.9070  -27.5132 C   0  0  0  0  0  0  0  0  0  0  0  0
   -9.7365   -5.2132  -27.7934 C   0  0  0  0  0  0  0  0  0  0  0  0
   -9.4158   -6.1850  -26.8489 C   0  0  0  0  0  0  0  0  0  0  0  0
   -8.7671   -5.8653  -25.6737 C   0  0  0  0  0  0  0  0  0  0  0  0
   -8.4242   -7.1903  -24.5716 Cl  0  0  0  0  0  0  0  0  0  0  0  0
  1  2  2  0  0  0
  2  3  1  0  0  0
  3  4  1  0  0  0
  3 11  1  0  0  0
  4  5  1  0  0  0
  4  8  1  0  0  0
  5  6  1  0  0  0
  6 22  1  0  0  0
  6  7  1  0  0  0
 22 23  2  0  0  0
 23 24  1  0  0  0
 24 25  2  0  0  0
 25 26  1  0  0  0
 26 27  2  0  0  0
 27 28  1  0  0  0
 27 22  1  0  0  0
  7  4  1  0  0  0
  8  9  2  0  0  0
  8 10  1  0  0  0
 10 12  1  0  0  0
 10  2  1  0  0  0
 12 13  2  0  0  0
 13 14  1  0  0  0
 14 15  2  0  0  0
 15 16  1  0  0  0
 16 17  2  0  0  0
 17 18  1  0  0  0
 18 19  2  0  0  0
 19 20  1  0  0  0
 20 21  2  0  0  0
 21 12  1  0  0  0
 21 16  1  0  0  0
M  END
> <minimizedAffinity>
-7.26533

> <CNNscore>
0.7788717151

> <CNNaffinity>
5.8704271317

> <CNN_VS>
4.5723094940

> <CNNaffinity_variance>
0.2195872962

$$$$



 28 32  0  0  0  0  0  0  0  0999 V2000
   -8.7354    1.0857  -21.6437 O   0  0  0  0  0  0  0  0  0  0  0  0
   -9.3911    0.2707  -22.3555 C   0  0  0  0  0  0  0  0  0  0  0  0
   -9.0676   -1.0987  -22.5634 N   0  0  0  0  0  0  0  0  0  0  0  0
   -9.9695   -1.5883  -23.5561 C   0  0  0  0  0  0  0  0  0  0  0  0
   -9.3430   -2.1721  -24.8134 C   0  0  0  0  0  0  0  0  0  0  0  0
   -9.2176   -3.4513  -23.9960 C   0  0  0  0  0  0  0  0  0  0  0  0
  -10.5006   -3.0100  -23.3231 C   0  0  0  0  0  0  0  0  0  0  0  0
  -11.0195   -0.5790  -23.7530 C   0  0  0  0  0  0  0  0  0  0  0  0
  -12.0754   -0.7890  -24.4043 O   0  0  0  0  0  0  0  0  0  0  0  0
  -10.5904    0.6025  -23.0825 N   0  0  0  0  0  0  0  0  0  0  0  0
   -8.3587   -1.6101  -22.1103 H   0  0  0  0  0  0  0  0  0  0  0  0
  -11.2561    1.8588  -23.1475 C   0  0  0  0  0  0  0  0  0  0  0  0
  -12.2864    2.2140  -22.3015 C   0  0  0  0  0  0  0  0  0  0  0  0
  -12.8513    3.4265  -22.4441 N   0  0  0  0  0  0  0  0  0  0  0  0
  -12.4839    4.3296  -23.3599 C   0  0  0  0  0  0  0  0  0  0  0  0
  -11.4522    4.0189  -24.2340 C   0  0  0  0  0  0  0  0  0  0  0  0
  -11.0142    4.8973  -25.2075 C   0  0  0  0  0  0  0  0  0  0  0  0
   -9.9714    4.5556  -26.0746 C   0  0  0  0  0  0  0  0  0  0  0  0
   -9.3844    3.3090  -25.9343 C   0  0  0  0  0  0  0  0  0  0  0  0
   -9.8172    2.4159  -24.9573 C   0  0  0  0  0  0  0  0  0  0  0  0
  -10.8549    2.7795  -24.1084 C   0  0  0  0  0  0  0  0  0  0  0  0
   -9.2491   -4.7098  -24.7358 C   0  0  0  0  0  0  0  0  0  0  0  0
  -10.1613   -5.0329  -25.7194 C   0  0  0  0  0  0  0  0  0  0  0  0
  -10.1549   -6.2362  -26.3941 C   0  0  0  0  0  0  0  0  0  0  0  0
   -9.1987   -7.1880  -26.0928 C   0  0  0  0  0  0  0  0  0  0  0  0
   -8.2705   -6.8775  -25.1021 C   0  0  0  0  0  0  0  0  0  0  0  0
   -8.2964   -5.6670  -24.4404 C   0  0  0  0  0  0  0  0  0  0  0  0
   -7.0658   -5.4077  -23.2132 Cl  0  0  0  0  0  0  0  0  0  0  0  0
  1  2  2  0  0  0
  2  3  1  0  0  0
  3  4  1  0  0  0
  3 11  1  0  0  0
  4  5  1  0  0  0
  4  8  1  0  0  0
  5  6  1  0  0  0
  6 22  1  0  0  0
  6  7  1  0  0  0
 22 23  2  0  0  0
 23 24  1  0  0  0
 24 25  2  0  0  0
 25 26  1  0  0  0
 26 27  2  0  0  0
 27 28  1  0  0  0
 27 22  1  0  0  0
  7  4  1  0  0  0
  8  9  2  0  0  0
  8 10  1  0  0  0
 10 12  1  0  0  0
 10  2  1  0  0  0
 12 13  2  0  0  0
 13 14  1  0  0  0
 14 15  2  0  0  0
 15 16  1  0  0  0
 16 17  2  0  0  0
 17 18  1  0  0  0
 18 19  2  0  0  0
 19 20  1  0  0  0
 20 21  2  0  0  0
 21 12  1  0  0  0
 21 16  1  0  0  0
M  END
> <minimizedAffinity>
-7.60197

> <CNNscore>
0.6903732419

> <CNNaffinity>
5.9906263351

> <CNN_VS>
4.1357679367

> <CNNaffinity_variance>
0.1311063468

$$$$



 28 32  0  0  0  0  0  0  0  0999 V2000
   -8.1701   -0.7993  -21.5527 O   0  0  0  0  0  0  0  0  0  0  0  0
   -8.5499   -0.0501  -22.4988 C   0  0  0  0  0  0  0  0  0  0  0  0
   -9.2380    1.1865  -22.3552 N   0  0  0  0  0  0  0  0  0  0  0  0
   -9.6142    1.6028  -23.6682 C   0  0  0  0  0  0  0  0  0  0  0  0
  -11.0994    1.8260  -23.9099 C   0  0  0  0  0  0  0  0  0  0  0  0
  -10.8522    3.2067  -23.3158 C   0  0  0  0  0  0  0  0  0  0  0  0
   -9.4800    3.1064  -23.9488 C   0  0  0  0  0  0  0  0  0  0  0  0
   -8.9128    0.7459  -24.6346 C   0  0  0  0  0  0  0  0  0  0  0  0
   -8.8650    0.9818  -25.8696 O   0  0  0  0  0  0  0  0  0  0  0  0
   -8.3439   -0.3321  -23.8971 N   0  0  0  0  0  0  0  0  0  0  0  0
   -9.4198    1.6632  -21.5132 H   0  0  0  0  0  0  0  0  0  0  0  0
   -7.6996   -1.4606  -24.4775 C   0  0  0  0  0  0  0  0  0  0  0  0
   -8.3278   -2.6733  -24.6727 C   0  0  0  0  0  0  0  0  0  0  0  0
   -7.6311   -3.6801  -25.2300 N   0  0  0  0  0  0  0  0  0  0  0  0
   -6.3532   -3.5935  -25.6157 C   0  0  0  0  0  0  0  0  0  0  0  0
   -5.6780   -2.3943  -25.4401 C   0  0  0  0  0  0  0  0  0  0  0  0
   -4.3575   -2.2245  -25.8122 C   0  0  0  0  0  0  0  0  0  0  0  0
   -3.7033   -1.0030  -25.6225 C   0  0  0  0  0  0  0  0  0  0  0  0
   -4.4137    0.0387  -25.0493 C   0  0  0  0  0  0  0  0  0  0  0  0
   -5.7443   -0.1206  -24.6705 C   0  0  0  0  0  0  0  0  0  0  0  0
   -6.3712   -1.3441  -24.8698 C   0  0  0  0  0  0  0  0  0  0  0  0
  -11.7230    4.2853  -23.7746 C   0  0  0  0  0  0  0  0  0  0  0  0
  -11.4757    5.1020  -24.8589 C   0  0  0  0  0  0  0  0  0  0  0  0
  -12.3272    6.1114  -25.2581 C   0  0  0  0  0  0  0  0  0  0  0  0
  -13.4960    6.3419  -24.5569 C   0  0  0  0  0  0  0  0  0  0  0  0
  -13.7606    5.5263  -23.4596 C   0  0  0  0  0  0  0  0  0  0  0  0
  -12.8938    4.5224  -23.0788 C   0  0  0  0  0  0  0  0  0  0  0  0
  -13.3519    3.5694  -21.6755 Cl  0  0  0  0  0  0  0  0  0  0  0  0
  1  2  2  0  0  0
  2  3  1  0  0  0
  3  4  1  0  0  0
  3 11  1  0  0  0
  4  5  1  0  0  0
  4  8  1  0  0  0
  5  6  1  0  0  0
  6 22  1  0  0  0
  6  7  1  0  0  0
 22 23  2  0  0  0
 23 24  1  0  0  0
 24 25  2  0  0  0
 25 26  1  0  0  0
 26 27  2  0  0  0
 27 28  1  0  0  0
 27 22  1  0  0  0
  7  4  1  0  0  0
  8  9  2  0  0  0
  8 10  1  0  0  0
 10 12  1  0  0  0
 10  2  1  0  0  0
 12 13  2  0  0  0
 13 14  1  0  0  0
 14 15  2  0  0  0
 15 16  1  0  0  0
 16 17  2  0  0  0
 17 18  1  0  0  0
 18 19  2  0  0  0
 19 20  1  0  0  0
 20 21  2  0  0  0
 21 12  1  0  0  0
 21 16  1  0  0  0
M  END
> <minimizedAffinity>
-5.99637

> <CNNscore>
0.5584505200

> <CNNaffinity>
5.7008905411

> <CNN_VS>
3.1836652756

> <CNNaffinity_variance>
0.4823645651

$$$$



 28 32  0  0  0  0  0  0  0  0999 V2000
   -8.3567   -1.0251  -25.6467 O   0  0  0  0  0  0  0  0  0  0  0  0
   -7.9596   -0.6105  -24.5192 C   0  0  0  0  0  0  0  0  0  0  0  0
   -6.7052    0.0054  -24.2545 N   0  0  0  0  0  0  0  0  0  0  0  0
   -6.6118    0.1564  -22.8377 C   0  0  0  0  0  0  0  0  0  0  0  0
   -5.4217   -0.5071  -22.1615 C   0  0  0  0  0  0  0  0  0  0  0  0
   -4.6643    0.7542  -22.5563 C   0  0  0  0  0  0  0  0  0  0  0  0
   -5.9830    1.4706  -22.3530 C   0  0  0  0  0  0  0  0  0  0  0  0
   -7.9350   -0.1249  -22.2631 C   0  0  0  0  0  0  0  0  0  0  0  0
   -8.2425    0.1197  -21.0677 O   0  0  0  0  0  0  0  0  0  0  0  0
   -8.7255   -0.6964  -23.3014 N   0  0  0  0  0  0  0  0  0  0  0  0
   -6.0314    0.2754  -24.9196 H   0  0  0  0  0  0  0  0  0  0  0  0
  -10.0284   -1.2405  -23.1224 C   0  0  0  0  0  0  0  0  0  0  0  0
  -10.2594   -2.5646  -22.8115 C   0  0  0  0  0  0  0  0  0  0  0  0
  -11.5296   -2.9818  -22.6629 N   0  0  0  0  0  0  0  0  0  0  0  0
  -12.6045   -2.1968  -22.7962 C   0  0  0  0  0  0  0  0  0  0  0  0
  -12.4238   -0.8572  -23.1086 C   0  0  0  0  0  0  0  0  0  0  0  0
  -13.4824    0.0184  -23.2633 C   0  0  0  0  0  0  0  0  0  0  0  0
  -13.2686    1.3641  -23.5785 C   0  0  0  0  0  0  0  0  0  0  0  0
  -11.9636    1.8016  -23.7331 C   0  0  0  0  0  0  0  0  0  0  0  0
  -10.8893    0.9288  -23.5797 C   0  0  0  0  0  0  0  0  0  0  0  0
  -11.1286   -0.4032  -23.2665 C   0  0  0  0  0  0  0  0  0  0  0  0
   -3.5503    1.1477  -21.6982 C   0  0  0  0  0  0  0  0  0  0  0  0
   -3.6581    1.5210  -20.3742 C   0  0  0  0  0  0  0  0  0  0  0  0
   -2.5771    1.8864  -19.5988 C   0  0  0  0  0  0  0  0  0  0  0  0
   -1.3079    1.8892  -20.1467 C   0  0  0  0  0  0  0  0  0  0  0  0
   -1.1819    1.5149  -21.4822 C   0  0  0  0  0  0  0  0  0  0  0  0
   -2.2779    1.1532  -22.2385 C   0  0  0  0  0  0  0  0  0  0  0  0
   -1.9743    0.7036  -23.9098 Cl  0  0  0  0  0  0  0  0  0  0  0  0
  1  2  2  0  0  0
  2  3  1  0  0  0
  3  4  1  0  0  0
  3 11  1  0  0  0
  4  5  1  0  0  0
  4  8  1  0  0  0
  5  6  1  0  0  0
  6 22  1  0  0  0
  6  7  1  0  0  0
 22 23  2  0  0  0
 23 24  1  0  0  0
 24 25  2  0  0  0
 25 26  1  0  0  0
 26 27  2  0  0  0
 27 28  1  0  0  0
 27 22  1  0  0  0
  7  4  1  0  0  0
  8  9  2  0  0  0
  8 10  1  0  0  0
 10 12  1  0  0  0
 10  2  1  0  0  0
 12 13  2  0  0  0
 13 14  1  0  0  0
 14 15  2  0  0  0
 15 16  1  0  0  0
 16 17  2  0  0  0
 17 18  1  0  0  0
 18 19  2  0  0  0
 19 20  1  0  0  0
 20 21  2  0  0  0
 21 12  1  0  0  0
 21 16  1  0  0  0
M  END
> <minimizedAffinity>
-7.55018

> <CNNscore>
0.5227460861

> <CNNaffinity>
5.5095720291

> <CNN_VS>
2.8801071644

> <CNNaffinity_variance>
0.0942513421

$$$$



 28 32  0  0  0  0  0  0  0  0999 V2000
   -8.7539    0.7181  -21.7381 O   0  0  0  0  0  0  0  0  0  0  0  0
   -8.2268   -0.3664  -22.1212 C   0  0  0  0  0  0  0  0  0  0  0  0
   -8.6152   -1.1222  -23.2618 N   0  0  0  0  0  0  0  0  0  0  0  0
   -7.8738   -2.3417  -23.2192 C   0  0  0  0  0  0  0  0  0  0  0  0
   -8.6847   -3.6285  -23.1980 C   0  0  0  0  0  0  0  0  0  0  0  0
   -8.7326   -3.4660  -24.7118 C   0  0  0  0  0  0  0  0  0  0  0  0
   -7.3567   -2.8486  -24.5732 C   0  0  0  0  0  0  0  0  0  0  0  0
   -6.8325   -2.2042  -22.1912 C   0  0  0  0  0  0  0  0  0  0  0  0
   -5.8833   -3.0176  -22.0468 O   0  0  0  0  0  0  0  0  0  0  0  0
   -7.1305   -1.0222  -21.4540 N   0  0  0  0  0  0  0  0  0  0  0  0
   -9.2690   -0.8559  -23.9481 H   0  0  0  0  0  0  0  0  0  0  0  0
   -6.4442   -0.6048  -20.2790 C   0  0  0  0  0  0  0  0  0  0  0  0
   -6.8639   -0.9235  -19.0040 C   0  0  0  0  0  0  0  0  0  0  0  0
   -6.1450   -0.4803  -17.9570 N   0  0  0  0  0  0  0  0  0  0  0  0
   -5.0350    0.2591  -18.0598 C   0  0  0  0  0  0  0  0  0  0  0  0
   -4.5729    0.6057  -19.3211 C   0  0  0  0  0  0  0  0  0  0  0  0
   -3.4345    1.3667  -19.5115 C   0  0  0  0  0  0  0  0  0  0  0  0
   -2.9931    1.7003  -20.7960 C   0  0  0  0  0  0  0  0  0  0  0  0
   -3.7278    1.2477  -21.8794 C   0  0  0  0  0  0  0  0  0  0  0  0
   -4.8760    0.4805  -21.7000 C   0  0  0  0  0  0  0  0  0  0  0  0
   -5.2932    0.1628  -20.4136 C   0  0  0  0  0  0  0  0  0  0  0  0
   -8.8400   -4.6897  -25.5012 C   0  0  0  0  0  0  0  0  0  0  0  0
   -8.7393   -5.9717  -25.0009 C   0  0  0  0  0  0  0  0  0  0  0  0
   -8.8468   -7.1022  -25.7842 C   0  0  0  0  0  0  0  0  0  0  0  0
   -9.0666   -6.9782  -27.1434 C   0  0  0  0  0  0  0  0  0  0  0  0
   -9.1706   -5.6909  -27.6644 C   0  0  0  0  0  0  0  0  0  0  0  0
   -9.0597   -4.5744  -26.8612 C   0  0  0  0  0  0  0  0  0  0  0  0
   -9.2110   -3.0117  -27.6504 Cl  0  0  0  0  0  0  0  0  0  0  0  0
  1  2  2  0  0  0
  2  3  1  0  0  0
  3  4  1  0  0  0
  3 11  1  0  0  0
  4  5  1  0  0  0
  4  8  1  0  0  0
  5  6  1  0  0  0
  6 22  1  0  0  0
  6  7  1  0  0  0
 22 23  2  0  0  0
 23 24  1  0  0  0
 24 25  2  0  0  0
 25 26  1  0  0  0
 26 27  2  0  0  0
 27 28  1  0  0  0
 27 22  1  0  0  0
  7  4  1  0  0  0
  8  9  2  0  0  0
  8 10  1  0  0  0
 10 12  1  0  0  0
 10  2  1  0  0  0
 12 13  2  0  0  0
 13 14  1  0  0  0
 14 15  2  0  0  0
 15 16  1  0  0  0
 16 17  2  0  0  0
 17 18  1  0  0  0
 18 19  2  0  0  0
 19 20  1  0  0  0
 20 21  2  0  0  0
 21 12  1  0  0  0
 21 16  1  0  0  0
M  END
> <minimizedAffinity>
-8.02645

> <CNNscore>
0.4812779427

> <CNNaffinity>
5.6386885643

> <CNN_VS>
2.7137763500

> <CNNaffinity_variance>
0.1340272725

$$$$



 28 32  0  0  0  0  0  0  0  0999 V2000
   -9.9599   -3.1312  -22.5133 O   0  0  0  0  0  0  0  0  0  0  0  0
   -8.6979   -3.0419  -22.4987 C   0  0  0  0  0  0  0  0  0  0  0  0
   -7.9417   -2.0638  -21.7955 N   0  0  0  0  0  0  0  0  0  0  0  0
   -6.5804   -2.2334  -22.1913 C   0  0  0  0  0  0  0  0  0  0  0  0
   -5.8981   -1.0234  -22.8115 C   0  0  0  0  0  0  0  0  0  0  0  0
   -5.6452   -0.5955  -21.3716 C   0  0  0  0  0  0  0  0  0  0  0  0
   -5.5418   -2.0762  -21.0714 C   0  0  0  0  0  0  0  0  0  0  0  0
   -6.4776   -3.4978  -22.9335 C   0  0  0  0  0  0  0  0  0  0  0  0
   -5.3841   -4.0399  -23.2396 O   0  0  0  0  0  0  0  0  0  0  0  0
   -7.8080   -3.9303  -23.2029 N   0  0  0  0  0  0  0  0  0  0  0  0
   -8.2898   -1.3983  -21.1589 H   0  0  0  0  0  0  0  0  0  0  0  0
   -8.1486   -5.0421  -24.0236 C   0  0  0  0  0  0  0  0  0  0  0  0
   -8.0341   -6.3527  -23.6081 C   0  0  0  0  0  0  0  0  0  0  0  0
   -8.3822   -7.3338  -24.4600 N   0  0  0  0  0  0  0  0  0  0  0  0
   -8.8386   -7.1320  -25.7011 C   0  0  0  0  0  0  0  0  0  0  0  0
   -8.9713   -5.8312  -26.1650 C   0  0  0  0  0  0  0  0  0  0  0  0
   -9.4354   -5.5394  -27.4341 C   0  0  0  0  0  0  0  0  0  0  0  0
   -9.5584   -4.2174  -27.8737 C   0  0  0  0  0  0  0  0  0  0  0  0
   -9.2021   -3.2013  -27.0025 C   0  0  0  0  0  0  0  0  0  0  0  0
   -8.7334   -3.4831  -25.7218 C   0  0  0  0  0  0  0  0  0  0  0  0
   -8.6206   -4.8048  -25.3093 C   0  0  0  0  0  0  0  0  0  0  0  0
   -4.4594    0.2208  -21.1272 C   0  0  0  0  0  0  0  0  0  0  0  0
   -3.5287    0.5791  -22.0808 C   0  0  0  0  0  0  0  0  0  0  0  0
   -2.4203    1.3531  -21.8058 C   0  0  0  0  0  0  0  0  0  0  0  0
   -2.2024    1.8086  -20.5189 C   0  0  0  0  0  0  0  0  0  0  0  0
   -3.1325    1.4557  -19.5443 C   0  0  0  0  0  0  0  0  0  0  0  0
   -4.2341    0.6802  -19.8430 C   0  0  0  0  0  0  0  0  0  0  0  0
   -5.3263    0.3104  -18.5171 Cl  0  0  0  0  0  0  0  0  0  0  0  0
  1  2  2  0  0  0
  2  3  1  0  0  0
  3  4  1  0  0  0
  3 11  1  0  0  0
  4  5  1  0  0  0
  4  8  1  0  0  0
  5  6  1  0  0  0
  6 22  1  0  0  0
  6  7  1  0  0  0
 22 23  2  0  0  0
 23 24  1  0  0  0
 24 25  2  0  0  0
 25 26  1  0  0  0
 26 27  2  0  0  0
 27 28  1  0  0  0
 27 22  1  0  0  0
  7  4  1  0  0  0
  8  9  2  0  0  0
  8 10  1  0  0  0
 10 12  1  0  0  0
 10  2  1  0  0  0
 12 13  2  0  0  0
 13 14  1  0  0  0
 14 15  2  0  0  0
 15 16  1  0  0  0
 16 17  2  0  0  0
 17 18  1  0  0  0
 18 19  2  0  0  0
 19 20  1  0  0  0
 20 21  2  0  0  0
 21 12  1  0  0  0
 21 16  1  0  0  0
M  END
> <minimizedAffinity>
-6.17015

> <CNNscore>
0.4591601491

> <CNNaffinity>
5.7427458763

> <CNN_VS>
2.6368401051

> <CNNaffinity_variance>
0.2248236686

$$$$



 28 32  0  0  0  0  0  0  0  0999 V2000
   -8.4266   -1.9485  -21.3169 O   0  0  0  0  0  0  0  0  0  0  0  0
   -8.3993   -2.5588  -22.4247 C   0  0  0  0  0  0  0  0  0  0  0  0
   -7.6373   -3.7248  -22.7131 N   0  0  0  0  0  0  0  0  0  0  0  0
   -7.7751   -3.9705  -24.1128 C   0  0  0  0  0  0  0  0  0  0  0  0
   -6.4890   -4.0129  -24.9242 C   0  0  0  0  0  0  0  0  0  0  0  0
   -6.4046   -5.4629  -24.4650 C   0  0  0  0  0  0  0  0  0  0  0  0
   -7.9181   -5.4457  -24.5141 C   0  0  0  0  0  0  0  0  0  0  0  0
   -8.8454   -3.1021  -24.6230 C   0  0  0  0  0  0  0  0  0  0  0  0
   -9.3539   -3.2211  -25.7679 O   0  0  0  0  0  0  0  0  0  0  0  0
   -9.1471   -2.1659  -23.5925 N   0  0  0  0  0  0  0  0  0  0  0  0
   -7.1157   -4.2591  -22.0715 H   0  0  0  0  0  0  0  0  0  0  0  0
  -10.0316   -1.0600  -23.7352 C   0  0  0  0  0  0  0  0  0  0  0  0
   -9.6363    0.1665  -24.2279 C   0  0  0  0  0  0  0  0  0  0  0  0
  -10.5495    1.1496  -24.3238 N   0  0  0  0  0  0  0  0  0  0  0  0
  -11.8340    1.0263  -23.9713 C   0  0  0  0  0  0  0  0  0  0  0  0
  -12.2798   -0.1881  -23.4701 C   0  0  0  0  0  0  0  0  0  0  0  0
  -13.5909   -0.3955  -23.0839 C   0  0  0  0  0  0  0  0  0  0  0  0
  -14.0108   -1.6315  -22.5819 C   0  0  0  0  0  0  0  0  0  0  0  0
  -13.0766   -2.6490  -22.4801 C   0  0  0  0  0  0  0  0  0  0  0  0
  -11.7532   -2.4518  -22.8660 C   0  0  0  0  0  0  0  0  0  0  0  0
  -11.3615   -1.2145  -23.3616 C   0  0  0  0  0  0  0  0  0  0  0  0
   -5.7172   -6.3950  -25.3542 C   0  0  0  0  0  0  0  0  0  0  0  0
   -6.0037   -6.5782  -26.6915 C   0  0  0  0  0  0  0  0  0  0  0  0
   -5.3280   -7.4719  -27.4964 C   0  0  0  0  0  0  0  0  0  0  0  0
   -4.3065   -8.2380  -26.9663 C   0  0  0  0  0  0  0  0  0  0  0  0
   -4.0049   -8.0651  -25.6178 C   0  0  0  0  0  0  0  0  0  0  0  0
   -4.6947   -7.1648  -24.8319 C   0  0  0  0  0  0  0  0  0  0  0  0
   -4.2096   -7.0489  -23.1470 Cl  0  0  0  0  0  0  0  0  0  0  0  0
  1  2  2  0  0  0
  2  3  1  0  0  0
  3  4  1  0  0  0
  3 11  1  0  0  0
  4  5  1  0  0  0
  4  8  1  0  0  0
  5  6  1  0  0  0
  6 22  1  0  0  0
  6  7  1  0  0  0
 22 23  2  0  0  0
 23 24  1  0  0  0
 24 25  2  0  0  0
 25 26  1  0  0  0
 26 27  2  0  0  0
 27 28  1  0  0  0
 27 22  1  0  0  0
  7  4  1  0  0  0
  8  9  2  0  0  0
  8 10  1  0  0  0
 10 12  1  0  0  0
 10  2  1  0  0  0
 12 13  2  0  0  0
 13 14  1  0  0  0
 14 15  2  0  0  0
 15 16  1  0  0  0
 16 17  2  0  0  0
 17 18  1  0  0  0
 18 19  2  0  0  0
 19 20  1  0  0  0
 20 21  2  0  0  0
 21 12  1  0  0  0
 21 16  1  0  0  0
M  END
> <minimizedAffinity>
-7.00631

> <CNNscore>
0.4197348356

> <CNNaffinity>
5.8612060547

> <CNN_VS>
2.4601523876

> <CNNaffinity_variance>
0.2785967290

$$$$



 28 32  0  0  0  0  0  0  0  0999 V2000
   -7.8487   -0.1657  -20.5167 O   0  0  0  0  0  0  0  0  0  0  0  0
   -7.4921    0.1825  -21.6795 C   0  0  0  0  0  0  0  0  0  0  0  0
   -6.3962    1.0333  -21.9933 N   0  0  0  0  0  0  0  0  0  0  0  0
   -6.4631    1.2898  -23.3962 C   0  0  0  0  0  0  0  0  0  0  0  0
   -6.5628    2.7488  -23.8154 C   0  0  0  0  0  0  0  0  0  0  0  0
   -5.0461    2.7542  -23.6741 C   0  0  0  0  0  0  0  0  0  0  0  0
   -5.1141    1.3114  -24.1294 C   0  0  0  0  0  0  0  0  0  0  0  0
   -7.4497    0.3698  -23.9795 C   0  0  0  0  0  0  0  0  0  0  0  0
   -7.5950    0.1962  -25.2173 O   0  0  0  0  0  0  0  0  0  0  0  0
   -8.1484   -0.2323  -22.8937 N   0  0  0  0  0  0  0  0  0  0  0  0
   -5.7219    1.3786  -21.3645 H   0  0  0  0  0  0  0  0  0  0  0  0
   -9.2823   -1.0816  -23.0305 C   0  0  0  0  0  0  0  0  0  0  0  0
   -9.2016   -2.4588  -23.0223 C   0  0  0  0  0  0  0  0  0  0  0  0
  -10.3330   -3.1736  -23.1587 N   0  0  0  0  0  0  0  0  0  0  0  0
  -11.5515   -2.6413  -23.3045 C   0  0  0  0  0  0  0  0  0  0  0  0
  -11.6843   -1.2604  -23.3191 C   0  0  0  0  0  0  0  0  0  0  0  0
  -12.9078   -0.6337  -23.4655 C   0  0  0  0  0  0  0  0  0  0  0  0
  -13.0100    0.7611  -23.4763 C   0  0  0  0  0  0  0  0  0  0  0  0
  -11.8497    1.5043  -23.3364 C   0  0  0  0  0  0  0  0  0  0  0  0
  -10.6116    0.8841  -23.1882 C   0  0  0  0  0  0  0  0  0  0  0  0
  -10.5372   -0.5030  -23.1806 C   0  0  0  0  0  0  0  0  0  0  0  0
   -4.3104    3.6887  -24.5213 C   0  0  0  0  0  0  0  0  0  0  0  0
   -4.7298    4.1464  -25.7535 C   0  0  0  0  0  0  0  0  0  0  0  0
   -4.0017    5.0306  -26.5223 C   0  0  0  0  0  0  0  0  0  0  0  0
   -2.7855    5.5008  -26.0628 C   0  0  0  0  0  0  0  0  0  0  0  0
   -2.3477    5.0485  -24.8206 C   0  0  0  0  0  0  0  0  0  0  0  0
   -3.0934    4.1635  -24.0691 C   0  0  0  0  0  0  0  0  0  0  0  0
   -2.4212    3.6760  -22.5205 Cl  0  0  0  0  0  0  0  0  0  0  0  0
  1  2  2  0  0  0
  2  3  1  0  0  0
  3  4  1  0  0  0
  3 11  1  0  0  0
  4  5  1  0  0  0
  4  8  1  0  0  0
  5  6  1  0  0  0
  6 22  1  0  0  0
  6  7  1  0  0  0
 22 23  2  0  0  0
 23 24  1  0  0  0
 24 25  2  0  0  0
 25 26  1  0  0  0
 26 27  2  0  0  0
 27 28  1  0  0  0
 27 22  1  0  0  0
  7  4  1  0  0  0
  8  9  2  0  0  0
  8 10  1  0  0  0
 10 12  1  0  0  0
 10  2  1  0  0  0
 12 13  2  0  0  0
 13 14  1  0  0  0
 14 15  2  0  0  0
 15 16  1  0  0  0
 16 17  2  0  0  0
 17 18  1  0  0  0
 18 19  2  0  0  0
 19 20  1  0  0  0
 20 21  2  0  0  0
 21 12  1  0  0  0
 21 16  1  0  0  0
M  END
> <minimizedAffinity>
-5.54504

> <CNNscore>
0.3424826860

> <CNNaffinity>
5.3072824478

> <CNN_VS>
1.8176523447

> <CNNaffinity_variance>
0.1304463148

$$$$



 28 32  0  0  0  0  0  0  0  0999 V2000
   -7.6402   -0.4862  -20.1286 O   0  0  0  0  0  0  0  0  0  0  0  0
   -7.7903   -0.7399  -21.3589 C   0  0  0  0  0  0  0  0  0  0  0  0
   -8.3157   -1.9453  -21.9011 N   0  0  0  0  0  0  0  0  0  0  0  0
   -8.1490   -1.8666  -23.3170 C   0  0  0  0  0  0  0  0  0  0  0  0
   -7.3367   -2.9762  -23.9674 C   0  0  0  0  0  0  0  0  0  0  0  0
   -8.6438   -3.7582  -23.9543 C   0  0  0  0  0  0  0  0  0  0  0  0
   -9.3152   -2.4152  -24.1515 C   0  0  0  0  0  0  0  0  0  0  0  0
   -7.7655   -0.4882  -23.6529 C   0  0  0  0  0  0  0  0  0  0  0  0
   -7.7443   -0.0366  -24.8273 O   0  0  0  0  0  0  0  0  0  0  0  0
   -7.4479    0.1648  -22.4272 N   0  0  0  0  0  0  0  0  0  0  0  0
   -8.7169   -2.6901  -21.3974 H   0  0  0  0  0  0  0  0  0  0  0  0
   -6.8952    1.4724  -22.3246 C   0  0  0  0  0  0  0  0  0  0  0  0
   -7.6393    2.6232  -22.4836 C   0  0  0  0  0  0  0  0  0  0  0  0
   -7.0227    3.8131  -22.3673 N   0  0  0  0  0  0  0  0  0  0  0  0
   -5.7203    3.9681  -22.1048 C   0  0  0  0  0  0  0  0  0  0  0  0
   -4.9298    2.8404  -21.9366 C   0  0  0  0  0  0  0  0  0  0  0  0
   -3.5767    2.9163  -21.6633 C   0  0  0  0  0  0  0  0  0  0  0  0
   -2.8056    1.7612  -21.4988 C   0  0  0  0  0  0  0  0  0  0  0  0
   -3.4329    0.5321  -21.6170 C   0  0  0  0  0  0  0  0  0  0  0  0
   -4.7952    0.4432  -21.8920 C   0  0  0  0  0  0  0  0  0  0  0  0
   -5.5389    1.6057  -22.0510 C   0  0  0  0  0  0  0  0  0  0  0  0
   -8.8233   -4.7562  -25.0049 C   0  0  0  0  0  0  0  0  0  0  0  0
   -9.3965   -4.5207  -26.2378 C   0  0  0  0  0  0  0  0  0  0  0  0
   -9.5469   -5.4948  -27.2030 C   0  0  0  0  0  0  0  0  0  0  0  0
   -9.1114   -6.7829  -26.9531 C   0  0  0  0  0  0  0  0  0  0  0  0
   -8.5305   -7.0374  -25.7133 C   0  0  0  0  0  0  0  0  0  0  0  0
   -8.3906   -6.0467  -24.7630 C   0  0  0  0  0  0  0  0  0  0  0  0
   -7.6400   -6.5071  -23.2423 Cl  0  0  0  0  0  0  0  0  0  0  0  0
  1  2  2  0  0  0
  2  3  1  0  0  0
  3  4  1  0  0  0
  3 11  1  0  0  0
  4  5  1  0  0  0
  4  8  1  0  0  0
  5  6  1  0  0  0
  6 22  1  0  0  0
  6  7  1  0  0  0
 22 23  2  0  0  0
 23 24  1  0  0  0
 24 25  2  0  0  0
 25 26  1  0  0  0
 26 27  2  0  0  0
 27 28  1  0  0  0
 27 22  1  0  0  0
  7  4  1  0  0  0
  8  9  2  0  0  0
  8 10  1  0  0  0
 10 12  1  0  0  0
 10  2  1  0  0  0
 12 13  2  0  0  0
 13 14  1  0  0  0
 14 15  2  0  0  0
 15 16  1  0  0  0
 16 17  2  0  0  0
 17 18  1  0  0  0
 18 19  2  0  0  0
 19 20  1  0  0  0
 20 21  2  0  0  0
 21 12  1  0  0  0
 21 16  1  0  0  0
M  END
> <minimizedAffinity>
-6.63967

> <CNNscore>
0.3282730579

> <CNNaffinity>
5.6264152527

> <CNN_VS>
1.8470005989

> <CNNaffinity_variance>
0.2080726326

$$$$



 42 47  0  0  0  0  0  0  0  0999 V2000
   -5.7715   -2.8730  -21.0842 N   0  0  0  0  0  0  0  0  0  0  0  0
   -6.0339   -2.0240  -22.2075 C   0  0  0  0  0  0  0  0  0  0  0  0
   -6.8114   -2.6326  -23.3206 C   0  0  0  0  0  0  0  0  0  0  0  0
   -6.2454   -2.0995  -24.6122 C   0  0  0  0  0  0  0  0  0  0  0  0
   -5.3929   -2.6630  -25.3223 O   0  0  0  0  0  0  0  0  0  0  0  0
   -6.8718   -0.8466  -24.8485 N   0  0  0  0  0  0  0  0  0  0  0  0
   -7.9502   -0.6645  -23.8747 C   0  0  0  0  0  0  0  0  0  0  0  0
   -8.2275   -2.0838  -23.4565 C   0  0  0  0  0  0  0  0  0  0  0  0
   -6.8166   -4.1104  -23.3433 C   0  0  0  0  0  0  0  0  0  0  0  0
   -7.3322   -4.7298  -24.4578 C   0  0  0  0  0  0  0  0  0  0  0  0
   -7.3591   -6.1141  -24.5266 C   0  0  0  0  0  0  0  0  0  0  0  0
   -8.0132   -6.9394  -25.9406 Cl  0  0  0  0  0  0  0  0  0  0  0  0
   -6.8792   -6.9141  -23.5005 C   0  0  0  0  0  0  0  0  0  0  0  0
   -6.3609   -6.2892  -22.3801 C   0  0  0  0  0  0  0  0  0  0  0  0
   -6.3446   -4.9061  -22.3339 C   0  0  0  0  0  0  0  0  0  0  0  0
   -5.7908   -4.2838  -21.1370 C   0  0  0  0  0  0  0  0  0  0  0  0
   -5.3468   -4.9777  -20.1872 O   0  0  0  0  0  0  0  0  0  0  0  0
   -6.5428    0.1118  -25.8542 C   0  0  0  0  0  0  0  0  0  0  0  0
   -7.2144    0.0589  -27.0596 C   0  0  0  0  0  0  0  0  0  0  0  0
   -6.9435    0.9486  -28.0598 N   0  0  0  0  0  0  0  0  0  0  0  0
   -5.9912    1.9044  -27.8580 C   0  0  0  0  0  0  0  0  0  0  0  0
   -5.3037    1.9861  -26.6713 C   0  0  0  0  0  0  0  0  0  0  0  0
   -4.3459    2.9670  -26.5018 C   0  0  0  0  0  0  0  0  0  0  0  0
   -3.6708    3.0130  -25.2778 C   0  0  0  0  0  0  0  0  0  0  0  0
   -3.9578    2.1049  -24.2776 C   0  0  0  0  0  0  0  0  0  0  0  0
   -4.9196    1.1178  -24.4438 C   0  0  0  0  0  0  0  0  0  0  0  0
   -5.5740    1.0877  -25.6553 C   0  0  0  0  0  0  0  0  0  0  0  0
   -5.4629   -2.2634  -19.7948 C   0  0  0  0  0  0  0  0  0  0  0  0
   -4.7972    1.4580  -20.5998 C   0  0  0  0  0  0  0  0  0  0  0  0
   -4.5257    0.0341  -20.4196 N   0  0  0  0  0  0  0  0  0  0  0  0
   -5.5970   -0.7811  -20.0186 C   0  0  0  0  0  0  0  0  0  0  0  0
   -6.7408   -0.2486  -19.8329 O   0  0  0  0  0  0  0  0  0  0  0  0
   -3.6278   -0.3393  -20.5732 H   0  0  0  0  0  0  0  0  0  0  0  0
   -9.0479   -2.2082  -22.2236 C   0  0  0  0  0  0  0  0  0  0  0  0
  -10.1934   -3.0653  -22.5666 N   0  0  0  0  0  0  0  0  0  0  0  0
  -10.1049   -4.0373  -22.6958 H   0  0  0  0  0  0  0  0  0  0  0  0
  -11.4471   -2.3842  -22.6995 C   0  0  0  0  0  0  0  0  0  0  0  0
  -11.5354   -1.1532  -23.3571 C   0  0  0  0  0  0  0  0  0  0  0  0
  -12.7230   -0.5091  -23.4824 N   0  0  0  0  0  0  0  0  0  0  0  0
  -13.8445   -1.0645  -22.9631 C   0  0  0  0  0  0  0  0  0  0  0  0
  -13.7867   -2.2783  -22.3089 C   0  0  0  0  0  0  0  0  0  0  0  0
  -12.5964   -2.8699  -22.2130 N   0  0  0  0  0  0  0  0  0  0  0  0
 29 30  1  0  0  0
 30 31  1  0  0  0
 30 33  1  0  0  0
 31 32  2  0  0  0
 31 28  1  0  0  0
 28  1  1  0  0  0
  1  2  1  0  0  0
  3  2  1  0  0  0
  3  4  1  0  0  0
  3  9  1  0  0  0
  4  5  2  0  0  0
  4  6  1  0  0  0
  6 18  1  0  0  0
  6  7  1  0  0  0
 18 19  2  0  0  0
 19 20  1  0  0  0
 20 21  2  0  0  0
 21 22  1  0  0  0
 22 23  2  0  0  0
 23 24  1  0  0  0
 24 25  2  0  0  0
 25 26  1  0  0  0
 26 27  2  0  0  0
 27 18  1  0  0  0
 27 22  1  0  0  0
  7  8  1  0  0  0
  8 34  1  0  0  0
  8  3  1  0  0  0
 34 35  1  0  0  0
 35 37  1  0  0  0
 35 36  1  0  0  0
 37 38  2  0  0  0
 38 39  1  0  0  0
 39 40  2  0  0  0
 40 41  1  0  0  0
 41 42  2  0  0  0
 42 37  1  0  0  0
  9 10  2  0  0  0
 10 11  1  0  0  0
 11 12  1  0  0  0
 11 13  2  0  0  0
 13 14  1  0  0  0
 14 15  2  0  0  0
 15 16  1  0  0  0
 15  9  1  0  0  0
 16 17  2  0  0  0
 16  1  1  0  0  0
M  END
> <minimizedAffinity>
-7.71868

> <CNNscore>
0.5305946469

> <CNNaffinity>
6.9053010941

> <CNN_VS>
3.6639158726

> <CNNaffinity_variance>
0.0405230299

$$$$



 42 47  0  0  0  0  0  0  0  0999 V2000
   -4.9679   -1.6723  -25.3621 N   0  0  0  0  0  0  0  0  0  0  0  0
   -6.2336   -1.2508  -24.8407 C   0  0  0  0  0  0  0  0  0  0  0  0
   -7.1530   -2.3337  -24.3983 C   0  0  0  0  0  0  0  0  0  0  0  0
   -8.5537   -1.9175  -24.7692 C   0  0  0  0  0  0  0  0  0  0  0  0
   -9.1656   -2.2534  -25.7994 O   0  0  0  0  0  0  0  0  0  0  0  0
   -9.0235   -1.0797  -23.7225 N   0  0  0  0  0  0  0  0  0  0  0  0
   -8.0622   -1.1160  -22.6185 C   0  0  0  0  0  0  0  0  0  0  0  0
   -7.3372   -2.4078  -22.8865 C   0  0  0  0  0  0  0  0  0  0  0  0
   -6.8583   -3.6698  -24.9574 C   0  0  0  0  0  0  0  0  0  0  0  0
   -7.7890   -4.6632  -24.7612 C   0  0  0  0  0  0  0  0  0  0  0  0
   -7.5584   -5.9333  -25.2665 C   0  0  0  0  0  0  0  0  0  0  0  0
   -8.7307   -7.2292  -25.0326 Cl  0  0  0  0  0  0  0  0  0  0  0  0
   -6.4081   -6.2492  -25.9740 C   0  0  0  0  0  0  0  0  0  0  0  0
   -5.4730   -5.2485  -26.1704 C   0  0  0  0  0  0  0  0  0  0  0  0
   -5.7250   -3.9884  -25.6567 C   0  0  0  0  0  0  0  0  0  0  0  0
   -4.7163   -2.9599  -25.8839 C   0  0  0  0  0  0  0  0  0  0  0  0
   -3.6616   -3.2105  -26.5208 O   0  0  0  0  0  0  0  0  0  0  0  0
  -10.2254   -0.3096  -23.7011 C   0  0  0  0  0  0  0  0  0  0  0  0
  -10.1631    1.0193  -24.0714 C   0  0  0  0  0  0  0  0  0  0  0  0
  -11.2792    1.8066  -24.0712 N   0  0  0  0  0  0  0  0  0  0  0  0
  -12.4739    1.2643  -23.6975 C   0  0  0  0  0  0  0  0  0  0  0  0
  -12.5723   -0.0540  -23.3231 C   0  0  0  0  0  0  0  0  0  0  0  0
  -13.7985   -0.5696  -22.9506 C   0  0  0  0  0  0  0  0  0  0  0  0
  -13.8521   -1.9164  -22.5772 C   0  0  0  0  0  0  0  0  0  0  0  0
  -12.7131   -2.6975  -22.5833 C   0  0  0  0  0  0  0  0  0  0  0  0
  -11.4791   -2.1833  -22.9571 C   0  0  0  0  0  0  0  0  0  0  0  0
  -11.4454   -0.8556  -23.3216 C   0  0  0  0  0  0  0  0  0  0  0  0
   -3.8548   -0.7288  -25.3639 C   0  0  0  0  0  0  0  0  0  0  0  0
   -4.9386    2.4423  -27.2900 C   0  0  0  0  0  0  0  0  0  0  0  0
   -4.6492    1.5720  -26.1531 N   0  0  0  0  0  0  0  0  0  0  0  0
   -4.1914    0.2742  -26.4345 C   0  0  0  0  0  0  0  0  0  0  0  0
   -4.0513   -0.0796  -27.6516 O   0  0  0  0  0  0  0  0  0  0  0  0
   -4.7702    1.8826  -25.2267 H   0  0  0  0  0  0  0  0  0  0  0  0
   -6.0694   -2.5658  -22.1273 C   0  0  0  0  0  0  0  0  0  0  0  0
   -5.5594   -1.2090  -21.8753 N   0  0  0  0  0  0  0  0  0  0  0  0
   -5.3358   -0.5858  -22.6039 H   0  0  0  0  0  0  0  0  0  0  0  0
   -5.4115   -0.8595  -20.4935 C   0  0  0  0  0  0  0  0  0  0  0  0
   -5.9851   -1.6398  -19.4846 C   0  0  0  0  0  0  0  0  0  0  0  0
   -5.8444   -1.3079  -18.1765 N   0  0  0  0  0  0  0  0  0  0  0  0
   -5.1371   -0.2030  -17.8379 C   0  0  0  0  0  0  0  0  0  0  0  0
   -4.5603    0.5854  -18.8127 C   0  0  0  0  0  0  0  0  0  0  0  0
   -4.7280    0.2161  -20.0821 N   0  0  0  0  0  0  0  0  0  0  0  0
 29 30  1  0  0  0
 30 31  1  0  0  0
 30 33  1  0  0  0
 31 32  2  0  0  0
 31 28  1  0  0  0
 28  1  1  0  0  0
  1  2  1  0  0  0
  3  2  1  0  0  0
  3  4  1  0  0  0
  3  9  1  0  0  0
  4  5  2  0  0  0
  4  6  1  0  0  0
  6 18  1  0  0  0
  6  7  1  0  0  0
 18 19  2  0  0  0
 19 20  1  0  0  0
 20 21  2  0  0  0
 21 22  1  0  0  0
 22 23  2  0  0  0
 23 24  1  0  0  0
 24 25  2  0  0  0
 25 26  1  0  0  0
 26 27  2  0  0  0
 27 18  1  0  0  0
 27 22  1  0  0  0
  7  8  1  0  0  0
  8 34  1  0  0  0
  8  3  1  0  0  0
 34 35  1  0  0  0
 35 37  1  0  0  0
 35 36  1  0  0  0
 37 38  2  0  0  0
 38 39  1  0  0  0
 39 40  2  0  0  0
 40 41  1  0  0  0
 41 42  2  0  0  0
 42 37  1  0  0  0
  9 10  2  0  0  0
 10 11  1  0  0  0
 11 12  1  0  0  0
 11 13  2  0  0  0
 13 14  1  0  0  0
 14 15  2  0  0  0
 15 16  1  0  0  0
 15  9  1  0  0  0
 16 17  2  0  0  0
 16  1  1  0  0  0
M  END
> <minimizedAffinity>
-8.01990

> <CNNscore>
0.2997752726

> <CNNaffinity>
6.6430015564

> <CNN_VS>
1.9914076328

> <CNNaffinity_variance>
0.1061320081

$$$$



 42 47  0  0  0  0  0  0  0  0999 V2000
   -5.9420   -1.9447  -26.1919 N   0  0  0  0  0  0  0  0  0  0  0  0
   -7.1183   -1.7337  -25.4026 C   0  0  0  0  0  0  0  0  0  0  0  0
   -7.3672   -2.7244  -24.3206 C   0  0  0  0  0  0  0  0  0  0  0  0
   -8.8552   -2.9562  -24.2531 C   0  0  0  0  0  0  0  0  0  0  0  0
   -9.4749   -3.8818  -24.8081 O   0  0  0  0  0  0  0  0  0  0  0  0
   -9.3952   -1.9224  -23.4421 N   0  0  0  0  0  0  0  0  0  0  0  0
   -8.2941   -1.1738  -22.8327 C   0  0  0  0  0  0  0  0  0  0  0  0
   -7.1661   -2.1673  -22.9155 C   0  0  0  0  0  0  0  0  0  0  0  0
   -6.6618   -4.0133  -24.4803 C   0  0  0  0  0  0  0  0  0  0  0  0
   -7.0126   -5.0416  -23.6370 C   0  0  0  0  0  0  0  0  0  0  0  0
   -6.3798   -6.2700  -23.7474 C   0  0  0  0  0  0  0  0  0  0  0  0
   -6.8056   -7.6087  -22.6821 Cl  0  0  0  0  0  0  0  0  0  0  0  0
   -5.3905   -6.5093  -24.6895 C   0  0  0  0  0  0  0  0  0  0  0  0
   -5.0390   -5.4737  -25.5371 C   0  0  0  0  0  0  0  0  0  0  0  0
   -5.6845   -4.2562  -25.4080 C   0  0  0  0  0  0  0  0  0  0  0  0
   -5.2869   -3.1890  -26.3189 C   0  0  0  0  0  0  0  0  0  0  0  0
   -4.3939   -3.3701  -27.1853 O   0  0  0  0  0  0  0  0  0  0  0  0
  -10.7736   -1.6214  -23.2242 C   0  0  0  0  0  0  0  0  0  0  0  0
  -11.6071   -2.6309  -22.7850 C   0  0  0  0  0  0  0  0  0  0  0  0
  -12.9348   -2.4038  -22.5588 N   0  0  0  0  0  0  0  0  0  0  0  0
  -13.4403   -1.1549  -22.7724 C   0  0  0  0  0  0  0  0  0  0  0  0
  -12.6399   -0.1271  -23.2093 C   0  0  0  0  0  0  0  0  0  0  0  0
  -13.1859    1.1250  -23.4150 C   0  0  0  0  0  0  0  0  0  0  0  0
  -12.3343    2.1413  -23.8598 C   0  0  0  0  0  0  0  0  0  0  0  0
  -10.9941    1.8934  -24.0835 C   0  0  0  0  0  0  0  0  0  0  0  0
  -10.4416    0.6367  -23.8778 C   0  0  0  0  0  0  0  0  0  0  0  0
  -11.2950   -0.3516  -23.4398 C   0  0  0  0  0  0  0  0  0  0  0  0
   -5.3673   -0.8174  -26.9187 C   0  0  0  0  0  0  0  0  0  0  0  0
   -2.8062    0.3426  -24.2662 C   0  0  0  0  0  0  0  0  0  0  0  0
   -3.4508   -0.5252  -25.2486 N   0  0  0  0  0  0  0  0  0  0  0  0
   -4.6015   -0.0336  -25.8868 C   0  0  0  0  0  0  0  0  0  0  0  0
   -5.0246    1.1305  -25.5838 O   0  0  0  0  0  0  0  0  0  0  0  0
   -3.0930   -1.4189  -25.4553 H   0  0  0  0  0  0  0  0  0  0  0  0
   -5.8195   -1.5839  -22.6805 C   0  0  0  0  0  0  0  0  0  0  0  0
   -5.2721   -2.2573  -21.4926 N   0  0  0  0  0  0  0  0  0  0  0  0
   -4.9500   -3.1874  -21.5150 H   0  0  0  0  0  0  0  0  0  0  0  0
   -5.2412   -1.4627  -20.3005 C   0  0  0  0  0  0  0  0  0  0  0  0
   -5.8252   -1.9163  -19.1135 C   0  0  0  0  0  0  0  0  0  0  0  0
   -5.7954   -1.1631  -17.9853 N   0  0  0  0  0  0  0  0  0  0  0  0
   -5.1907    0.0493  -18.0049 C   0  0  0  0  0  0  0  0  0  0  0  0
   -4.6063    0.5219  -19.1623 C   0  0  0  0  0  0  0  0  0  0  0  0
   -4.6630   -0.2562  -20.2427 N   0  0  0  0  0  0  0  0  0  0  0  0
 29 30  1  0  0  0
 30 31  1  0  0  0
 30 33  1  0  0  0
 31 32  2  0  0  0
 31 28  1  0  0  0
 28  1  1  0  0  0
  1  2  1  0  0  0
  3  2  1  0  0  0
  3  4  1  0  0  0
  3  9  1  0  0  0
  4  5  2  0  0  0
  4  6  1  0  0  0
  6 18  1  0  0  0
  6  7  1  0  0  0
 18 19  2  0  0  0
 19 20  1  0  0  0
 20 21  2  0  0  0
 21 22  1  0  0  0
 22 23  2  0  0  0
 23 24  1  0  0  0
 24 25  2  0  0  0
 25 26  1  0  0  0
 26 27  2  0  0  0
 27 18  1  0  0  0
 27 22  1  0  0  0
  7  8  1  0  0  0
  8 34  1  0  0  0
  8  3  1  0  0  0
 34 35  1  0  0  0
 35 37  1  0  0  0
 35 36  1  0  0  0
 37 38  2  0  0  0
 38 39  1  0  0  0
 39 40  2  0  0  0
 40 41  1  0  0  0
 41 42  2  0  0  0
 42 37  1  0  0  0
  9 10  2  0  0  0
 10 11  1  0  0  0
 11 12  1  0  0  0
 11 13  2  0  0  0
 13 14  1  0  0  0
 14 15  2  0  0  0
 15 16  1  0  0  0
 15  9  1  0  0  0
 16 17  2  0  0  0
 16  1  1  0  0  0
M  END
> <minimizedAffinity>
-8.81539

> <CNNscore>
0.2840167284

> <CNNaffinity>
6.5305986404

> <CNN_VS>
1.8547992706

> <CNNaffinity_variance>
0.5821884871

$$$$



 42 47  0  0  0  0  0  0  0  0999 V2000
   -5.4456   -0.6709  -21.7849 N   0  0  0  0  0  0  0  0  0  0  0  0
   -6.7790   -0.5064  -22.2812 C   0  0  0  0  0  0  0  0  0  0  0  0
   -6.9129    0.2299  -23.5672 C   0  0  0  0  0  0  0  0  0  0  0  0
   -8.1582    1.0747  -23.4773 C   0  0  0  0  0  0  0  0  0  0  0  0
   -8.2032    2.2749  -23.1514 O   0  0  0  0  0  0  0  0  0  0  0  0
   -9.2489    0.2371  -23.8337 N   0  0  0  0  0  0  0  0  0  0  0  0
   -8.7254   -1.0337  -24.3388 C   0  0  0  0  0  0  0  0  0  0  0  0
   -7.3267   -0.6498  -24.7419 C   0  0  0  0  0  0  0  0  0  0  0  0
   -5.7543    1.0745  -23.9263 C   0  0  0  0  0  0  0  0  0  0  0  0
   -5.8996    1.9405  -24.9848 C   0  0  0  0  0  0  0  0  0  0  0  0
   -4.8416    2.7538  -25.3602 C   0  0  0  0  0  0  0  0  0  0  0  0
   -4.9946    3.8748  -26.7123 Cl  0  0  0  0  0  0  0  0  0  0  0  0
   -3.6216    2.7299  -24.7011 C   0  0  0  0  0  0  0  0  0  0  0  0
   -3.4773    1.8581  -23.6364 C   0  0  0  0  0  0  0  0  0  0  0  0
   -4.5474    1.0559  -23.2801 C   0  0  0  0  0  0  0  0  0  0  0  0
   -4.3574    0.1499  -22.1531 C   0  0  0  0  0  0  0  0  0  0  0  0
   -3.2651    0.1016  -21.5324 O   0  0  0  0  0  0  0  0  0  0  0  0
  -10.6412    0.5370  -23.7352 C   0  0  0  0  0  0  0  0  0  0  0  0
  -11.0649    1.8116  -24.0556 C   0  0  0  0  0  0  0  0  0  0  0  0
  -12.3840    2.1581  -23.9809 N   0  0  0  0  0  0  0  0  0  0  0  0
  -13.2941    1.2235  -23.5820 C   0  0  0  0  0  0  0  0  0  0  0  0
  -12.9077   -0.0539  -23.2557 C   0  0  0  0  0  0  0  0  0  0  0  0
  -13.8567   -0.9746  -22.8558 C   0  0  0  0  0  0  0  0  0  0  0  0
  -13.4184   -2.2630  -22.5333 C   0  0  0  0  0  0  0  0  0  0  0  0
  -12.0805   -2.5956  -22.6146 C   0  0  0  0  0  0  0  0  0  0  0  0
  -11.1237   -1.6735  -23.0161 C   0  0  0  0  0  0  0  0  0  0  0  0
  -11.5735   -0.4101  -23.3296 C   0  0  0  0  0  0  0  0  0  0  0  0
   -5.1716   -1.7475  -20.8388 C   0  0  0  0  0  0  0  0  0  0  0  0
   -5.3350    0.2564  -17.5376 C   0  0  0  0  0  0  0  0  0  0  0  0
   -4.8430   -0.1830  -18.8409 N   0  0  0  0  0  0  0  0  0  0  0  0
   -5.5626   -1.1976  -19.4934 C   0  0  0  0  0  0  0  0  0  0  0  0
   -6.5973   -1.6816  -18.9265 O   0  0  0  0  0  0  0  0  0  0  0  0
   -4.0392    0.2161  -19.2458 H   0  0  0  0  0  0  0  0  0  0  0  0
   -6.4222   -1.8039  -24.9845 C   0  0  0  0  0  0  0  0  0  0  0  0
   -7.2817   -2.9413  -25.3480 N   0  0  0  0  0  0  0  0  0  0  0  0
   -7.8856   -2.9188  -26.1252 H   0  0  0  0  0  0  0  0  0  0  0  0
   -7.1770   -4.0841  -24.4898 C   0  0  0  0  0  0  0  0  0  0  0  0
   -7.7602   -5.3063  -24.8385 C   0  0  0  0  0  0  0  0  0  0  0  0
   -7.6605   -6.3879  -24.0253 N   0  0  0  0  0  0  0  0  0  0  0  0
   -6.9854   -6.2861  -22.8549 C   0  0  0  0  0  0  0  0  0  0  0  0
   -6.4001   -5.0921  -22.4855 C   0  0  0  0  0  0  0  0  0  0  0  0
   -6.5270   -4.0603  -23.3192 N   0  0  0  0  0  0  0  0  0  0  0  0
 29 30  1  0  0  0
 30 31  1  0  0  0
 30 33  1  0  0  0
 31 32  2  0  0  0
 31 28  1  0  0  0
 28  1  1  0  0  0
  1  2  1  0  0  0
  3  2  1  0  0  0
  3  4  1  0  0  0
  3  9  1  0  0  0
  4  5  2  0  0  0
  4  6  1  0  0  0
  6 18  1  0  0  0
  6  7  1  0  0  0
 18 19  2  0  0  0
 19 20  1  0  0  0
 20 21  2  0  0  0
 21 22  1  0  0  0
 22 23  2  0  0  0
 23 24  1  0  0  0
 24 25  2  0  0  0
 25 26  1  0  0  0
 26 27  2  0  0  0
 27 18  1  0  0  0
 27 22  1  0  0  0
  7  8  1  0  0  0
  8 34  1  0  0  0
  8  3  1  0  0  0
 34 35  1  0  0  0
 35 37  1  0  0  0
 35 36  1  0  0  0
 37 38  2  0  0  0
 38 39  1  0  0  0
 39 40  2  0  0  0
 40 41  1  0  0  0
 41 42  2  0  0  0
 42 37  1  0  0  0
  9 10  2  0  0  0
 10 11  1  0  0  0
 11 12  1  0  0  0
 11 13  2  0  0  0
 13 14  1  0  0  0
 14 15  2  0  0  0
 15 16  1  0  0  0
 15  9  1  0  0  0
 16 17  2  0  0  0
 16  1  1  0  0  0
M  END
> <minimizedAffinity>
-7.74700

> <CNNscore>
0.2465466261

> <CNNaffinity>
6.6792068481

> <CNN_VS>
1.6467359066

> <CNNaffinity_variance>
0.1443543434

$$$$



 42 47  0  0  0  0  0  0  0  0999 V2000
   -4.8061    0.1476  -23.4932 N   0  0  0  0  0  0  0  0  0  0  0  0
   -6.2312    0.1478  -23.3501 C   0  0  0  0  0  0  0  0  0  0  0  0
   -6.9475   -1.0213  -23.9282 C   0  0  0  0  0  0  0  0  0  0  0  0
   -8.2381   -0.5141  -24.5193 C   0  0  0  0  0  0  0  0  0  0  0  0
   -8.4250   -0.2124  -25.7121 O   0  0  0  0  0  0  0  0  0  0  0  0
   -9.1795   -0.4521  -23.4572 N   0  0  0  0  0  0  0  0  0  0  0  0
   -8.6000   -1.0881  -22.2723 C   0  0  0  0  0  0  0  0  0  0  0  0
   -7.5374   -1.9621  -22.8832 C   0  0  0  0  0  0  0  0  0  0  0  0
   -6.1882   -1.7773  -24.9463 C   0  0  0  0  0  0  0  0  0  0  0  0
   -6.8653   -2.7315  -25.6693 C   0  0  0  0  0  0  0  0  0  0  0  0
   -6.1971   -3.4669  -26.6358 C   0  0  0  0  0  0  0  0  0  0  0  0
   -7.0353   -4.6974  -27.5800 Cl  0  0  0  0  0  0  0  0  0  0  0  0
   -4.8506   -3.2771  -26.9087 C   0  0  0  0  0  0  0  0  0  0  0  0
   -4.1711   -2.3168  -26.1804 C   0  0  0  0  0  0  0  0  0  0  0  0
   -4.8592   -1.5950  -25.2207 C   0  0  0  0  0  0  0  0  0  0  0  0
   -4.1094   -0.5919  -24.4736 C   0  0  0  0  0  0  0  0  0  0  0  0
   -2.8877   -0.3927  -24.6943 O   0  0  0  0  0  0  0  0  0  0  0  0
  -10.4856    0.1235  -23.4882 C   0  0  0  0  0  0  0  0  0  0  0  0
  -10.6091    1.4602  -23.8117 C   0  0  0  0  0  0  0  0  0  0  0  0
  -11.8320    2.0667  -23.8579 N   0  0  0  0  0  0  0  0  0  0  0  0
  -12.9476    1.3331  -23.5783 C   0  0  0  0  0  0  0  0  0  0  0  0
  -12.8616    0.0011  -23.2527 C   0  0  0  0  0  0  0  0  0  0  0  0
  -14.0124   -0.7110  -22.9755 C   0  0  0  0  0  0  0  0  0  0  0  0
  -13.8778   -2.0642  -22.6489 C   0  0  0  0  0  0  0  0  0  0  0  0
  -12.6330   -2.6609  -22.6070 C   0  0  0  0  0  0  0  0  0  0  0  0
  -11.4741   -1.9490  -22.8850 C   0  0  0  0  0  0  0  0  0  0  0  0
  -11.6260   -0.6179  -23.2046 C   0  0  0  0  0  0  0  0  0  0  0  0
   -4.0043    0.9548  -22.5795 C   0  0  0  0  0  0  0  0  0  0  0  0
   -4.8219    4.3727  -24.1888 C   0  0  0  0  0  0  0  0  0  0  0  0
   -4.3699    2.9871  -24.0906 N   0  0  0  0  0  0  0  0  0  0  0  0
   -4.4356    2.3752  -22.8279 C   0  0  0  0  0  0  0  0  0  0  0  0
   -4.8802    3.0474  -21.8397 O   0  0  0  0  0  0  0  0  0  0  0  0
   -4.0328    2.5015  -24.8779 H   0  0  0  0  0  0  0  0  0  0  0  0
   -6.5447   -2.4879  -21.9101 C   0  0  0  0  0  0  0  0  0  0  0  0
   -5.7241   -3.4692  -22.6367 N   0  0  0  0  0  0  0  0  0  0  0  0
   -4.9239   -3.2114  -23.1491 H   0  0  0  0  0  0  0  0  0  0  0  0
   -6.1727   -4.8271  -22.5453 C   0  0  0  0  0  0  0  0  0  0  0  0
   -5.6713   -5.6902  -21.5658 C   0  0  0  0  0  0  0  0  0  0  0  0
   -6.0968   -6.9758  -21.4801 N   0  0  0  0  0  0  0  0  0  0  0  0
   -7.0229   -7.4348  -22.3562 C   0  0  0  0  0  0  0  0  0  0  0  0
   -7.5349   -6.6051  -23.3330 C   0  0  0  0  0  0  0  0  0  0  0  0
   -7.0841   -5.3517  -23.3745 N   0  0  0  0  0  0  0  0  0  0  0  0
 29 30  1  0  0  0
 30 31  1  0  0  0
 30 33  1  0  0  0
 31 32  2  0  0  0
 31 28  1  0  0  0
 28  1  1  0  0  0
  1  2  1  0  0  0
  3  2  1  0  0  0
  3  4  1  0  0  0
  3  9  1  0  0  0
  4  5  2  0  0  0
  4  6  1  0  0  0
  6 18  1  0  0  0
  6  7  1  0  0  0
 18 19  2  0  0  0
 19 20  1  0  0  0
 20 21  2  0  0  0
 21 22  1  0  0  0
 22 23  2  0  0  0
 23 24  1  0  0  0
 24 25  2  0  0  0
 25 26  1  0  0  0
 26 27  2  0  0  0
 27 18  1  0  0  0
 27 22  1  0  0  0
  7  8  1  0  0  0
  8 34  1  0  0  0
  8  3  1  0  0  0
 34 35  1  0  0  0
 35 37  1  0  0  0
 35 36  1  0  0  0
 37 38  2  0  0  0
 38 39  1  0  0  0
 39 40  2  0  0  0
 40 41  1  0  0  0
 41 42  2  0  0  0
 42 37  1  0  0  0
  9 10  2  0  0  0
 10 11  1  0  0  0
 11 12  1  0  0  0
 11 13  2  0  0  0
 13 14  1  0  0  0
 14 15  2  0  0  0
 15 16  1  0  0  0
 15  9  1  0  0  0
 16 17  2  0  0  0
 16  1  1  0  0  0
M  END
> <minimizedAffinity>
-7.18034

> <CNNscore>
0.2071074396

> <CNNaffinity>
6.3112411499

> <CNN_VS>
1.3071049452

> <CNNaffinity_variance>
0.2523680627

$$$$



 42 47  0  0  0  0  0  0  0  0999 V2000
   -4.9802   -1.0555  -26.1545 N   0  0  0  0  0  0  0  0  0  0  0  0
   -6.2010   -0.6963  -25.4974 C   0  0  0  0  0  0  0  0  0  0  0  0
   -6.8632   -1.7727  -24.7120 C   0  0  0  0  0  0  0  0  0  0  0  0
   -8.3515   -1.6145  -24.8930 C   0  0  0  0  0  0  0  0  0  0  0  0
   -9.0542   -2.2231  -25.7203 O   0  0  0  0  0  0  0  0  0  0  0  0
   -8.7797   -0.6476  -23.9444 N   0  0  0  0  0  0  0  0  0  0  0  0
   -7.6670   -0.3431  -23.0425 C   0  0  0  0  0  0  0  0  0  0  0  0
   -6.8004   -1.5635  -23.2030 C   0  0  0  0  0  0  0  0  0  0  0  0
   -6.4542   -3.1474  -25.0690 C   0  0  0  0  0  0  0  0  0  0  0  0
   -7.1789   -4.1877  -24.5357 C   0  0  0  0  0  0  0  0  0  0  0  0
   -6.8344   -5.4953  -24.8408 C   0  0  0  0  0  0  0  0  0  0  0  0
   -7.7423   -6.8516  -24.1740 Cl  0  0  0  0  0  0  0  0  0  0  0  0
   -5.7710   -5.8034  -25.6760 C   0  0  0  0  0  0  0  0  0  0  0  0
   -5.0432   -4.7556  -26.2116 C   0  0  0  0  0  0  0  0  0  0  0  0
   -5.4057   -3.4585  -25.8927 C   0  0  0  0  0  0  0  0  0  0  0  0
   -4.6151   -2.3809  -26.4762 C   0  0  0  0  0  0  0  0  0  0  0  0
   -3.6443   -2.6231  -27.2376 O   0  0  0  0  0  0  0  0  0  0  0  0
  -10.0687   -0.0422  -23.8443 C   0  0  0  0  0  0  0  0  0  0  0  0
  -10.2038    1.2838  -24.2053 C   0  0  0  0  0  0  0  0  0  0  0  0
  -11.4114    1.9175  -24.1313 N   0  0  0  0  0  0  0  0  0  0  0  0
  -12.4999    1.2223  -23.6922 C   0  0  0  0  0  0  0  0  0  0  0  0
  -12.4018   -0.0980  -23.3248 C   0  0  0  0  0  0  0  0  0  0  0  0
  -13.5250   -0.7708  -22.8847 C   0  0  0  0  0  0  0  0  0  0  0  0
  -13.3789   -2.1134  -22.5213 C   0  0  0  0  0  0  0  0  0  0  0  0
  -12.1498   -2.7381  -22.6025 C   0  0  0  0  0  0  0  0  0  0  0  0
  -11.0187   -2.0655  -23.0443 C   0  0  0  0  0  0  0  0  0  0  0  0
  -11.1815   -0.7444  -23.3978 C   0  0  0  0  0  0  0  0  0  0  0  0
   -4.0401   -0.0023  -26.5236 C   0  0  0  0  0  0  0  0  0  0  0  0
   -2.7020    1.3077  -23.1422 C   0  0  0  0  0  0  0  0  0  0  0  0
   -3.5910    1.1678  -24.2928 N   0  0  0  0  0  0  0  0  0  0  0  0
   -3.2211    0.2453  -25.2853 C   0  0  0  0  0  0  0  0  0  0  0  0
   -2.1419   -0.4181  -25.1387 O   0  0  0  0  0  0  0  0  0  0  0  0
   -4.4165    1.6988  -24.3695 H   0  0  0  0  0  0  0  0  0  0  0  0
   -5.4224   -1.4090  -22.6681 C   0  0  0  0  0  0  0  0  0  0  0  0
   -5.3714   -2.1743  -21.4127 N   0  0  0  0  0  0  0  0  0  0  0  0
   -5.3897   -3.1585  -21.3937 H   0  0  0  0  0  0  0  0  0  0  0  0
   -5.2934   -1.3848  -20.2194 C   0  0  0  0  0  0  0  0  0  0  0  0
   -5.8519   -1.8325  -19.0180 C   0  0  0  0  0  0  0  0  0  0  0  0
   -5.7774   -1.0841  -17.8886 N   0  0  0  0  0  0  0  0  0  0  0  0
   -5.1524    0.1176  -17.9212 C   0  0  0  0  0  0  0  0  0  0  0  0
   -4.5924    0.5843  -19.0930 C   0  0  0  0  0  0  0  0  0  0  0  0
   -4.6927   -0.1887  -20.1739 N   0  0  0  0  0  0  0  0  0  0  0  0
 29 30  1  0  0  0
 30 31  1  0  0  0
 30 33  1  0  0  0
 31 32  2  0  0  0
 31 28  1  0  0  0
 28  1  1  0  0  0
  1  2  1  0  0  0
  3  2  1  0  0  0
  3  4  1  0  0  0
  3  9  1  0  0  0
  4  5  2  0  0  0
  4  6  1  0  0  0
  6 18  1  0  0  0
  6  7  1  0  0  0
 18 19  2  0  0  0
 19 20  1  0  0  0
 20 21  2  0  0  0
 21 22  1  0  0  0
 22 23  2  0  0  0
 23 24  1  0  0  0
 24 25  2  0  0  0
 25 26  1  0  0  0
 26 27  2  0  0  0
 27 18  1  0  0  0
 27 22  1  0  0  0
  7  8  1  0  0  0
  8 34  1  0  0  0
  8  3  1  0  0  0
 34 35  1  0  0  0
 35 37  1  0  0  0
 35 36  1  0  0  0
 37 38  2  0  0  0
 38 39  1  0  0  0
 39 40  2  0  0  0
 40 41  1  0  0  0
 41 42  2  0  0  0
 42 37  1  0  0  0
  9 10  2  0  0  0
 10 11  1  0  0  0
 11 12  1  0  0  0
 11 13  2  0  0  0
 13 14  1  0  0  0
 14 15  2  0  0  0
 15 16  1  0  0  0
 15  9  1  0  0  0
 16 17  2  0  0  0
 16  1  1  0  0  0
M  END
> <minimizedAffinity>
-8.26606

> <CNNscore>
0.1773164421

> <CNNaffinity>
6.4453263283

> <CNN_VS>
1.1428623199

> <CNNaffinity_variance>
0.1992894113

$$$$



 42 47  0  0  0  0  0  0  0  0999 V2000
   -9.0570   -2.9724  -24.8347 N   0  0  0  0  0  0  0  0  0  0  0  0
   -8.4837   -2.2550  -23.7356 C   0  0  0  0  0  0  0  0  0  0  0  0
   -7.6453   -1.0775  -24.0881 C   0  0  0  0  0  0  0  0  0  0  0  0
   -6.4907   -1.0380  -23.1196 C   0  0  0  0  0  0  0  0  0  0  0  0
   -5.3552   -1.5066  -23.3190 O   0  0  0  0  0  0  0  0  0  0  0  0
   -6.9547   -0.3694  -21.9552 N   0  0  0  0  0  0  0  0  0  0  0  0
   -8.2802    0.1906  -22.2264 C   0  0  0  0  0  0  0  0  0  0  0  0
   -8.2803    0.2617  -23.7301 C   0  0  0  0  0  0  0  0  0  0  0  0
   -7.1401   -1.0645  -25.4771 C   0  0  0  0  0  0  0  0  0  0  0  0
   -6.1915   -0.1233  -25.8024 C   0  0  0  0  0  0  0  0  0  0  0  0
   -5.6865   -0.0709  -27.0923 C   0  0  0  0  0  0  0  0  0  0  0  0
   -4.4700    1.1232  -27.5423 Cl  0  0  0  0  0  0  0  0  0  0  0  0
   -6.1055   -0.9434  -28.0856 C   0  0  0  0  0  0  0  0  0  0  0  0
   -7.0598   -1.8896  -27.7565 C   0  0  0  0  0  0  0  0  0  0  0  0
   -7.5494   -1.9227  -26.4623 C   0  0  0  0  0  0  0  0  0  0  0  0
   -8.5540   -2.9337  -26.1534 C   0  0  0  0  0  0  0  0  0  0  0  0
   -8.9572   -3.7411  -27.0288 O   0  0  0  0  0  0  0  0  0  0  0  0
   -6.2799   -0.2371  -20.7040 C   0  0  0  0  0  0  0  0  0  0  0  0
   -6.7459   -0.9608  -19.6243 C   0  0  0  0  0  0  0  0  0  0  0  0
   -6.1419   -0.8758  -18.4022 N   0  0  0  0  0  0  0  0  0  0  0  0
   -5.0592   -0.0596  -18.2522 C   0  0  0  0  0  0  0  0  0  0  0  0
   -4.5690    0.6747  -19.3049 C   0  0  0  0  0  0  0  0  0  0  0  0
   -3.4706    1.4910  -19.1167 C   0  0  0  0  0  0  0  0  0  0  0  0
   -3.0056    2.2202  -20.2159 C   0  0  0  0  0  0  0  0  0  0  0  0
   -3.6289    2.1220  -21.4444 C   0  0  0  0  0  0  0  0  0  0  0  0
   -4.7328    1.3028  -21.6377 C   0  0  0  0  0  0  0  0  0  0  0  0
   -5.1767    0.5924  -20.5444 C   0  0  0  0  0  0  0  0  0  0  0  0
  -10.2351   -3.8009  -24.6002 C   0  0  0  0  0  0  0  0  0  0  0  0
  -12.7454   -2.0948  -22.2068 C   0  0  0  0  0  0  0  0  0  0  0  0
  -11.7683   -3.0688  -22.6869 N   0  0  0  0  0  0  0  0  0  0  0  0
  -11.2475   -2.8776  -23.9774 C   0  0  0  0  0  0  0  0  0  0  0  0
  -11.6455   -1.8772  -24.6606 O   0  0  0  0  0  0  0  0  0  0  0  0
  -11.4861   -3.8289  -22.1284 H   0  0  0  0  0  0  0  0  0  0  0  0
   -9.6221    0.4777  -24.3315 C   0  0  0  0  0  0  0  0  0  0  0  0
  -10.5394    0.7661  -23.2180 N   0  0  0  0  0  0  0  0  0  0  0  0
  -10.4814    0.3002  -22.3527 H   0  0  0  0  0  0  0  0  0  0  0  0
  -11.5233    1.7736  -23.4831 C   0  0  0  0  0  0  0  0  0  0  0  0
  -12.8757    1.5558  -23.2017 C   0  0  0  0  0  0  0  0  0  0  0  0
  -13.8066    2.5104  -23.4531 N   0  0  0  0  0  0  0  0  0  0  0  0
  -13.4235    3.6959  -23.9856 C   0  0  0  0  0  0  0  0  0  0  0  0
  -12.0957    3.9381  -24.2735 C   0  0  0  0  0  0  0  0  0  0  0  0
  -11.2213    2.9682  -24.0078 N   0  0  0  0  0  0  0  0  0  0  0  0
 29 30  1  0  0  0
 30 31  1  0  0  0
 30 33  1  0  0  0
 31 32  2  0  0  0
 31 28  1  0  0  0
 28  1  1  0  0  0
  1  2  1  0  0  0
  3  2  1  0  0  0
  3  4  1  0  0  0
  3  9  1  0  0  0
  4  5  2  0  0  0
  4  6  1  0  0  0
  6 18  1  0  0  0
  6  7  1  0  0  0
 18 19  2  0  0  0
 19 20  1  0  0  0
 20 21  2  0  0  0
 21 22  1  0  0  0
 22 23  2  0  0  0
 23 24  1  0  0  0
 24 25  2  0  0  0
 25 26  1  0  0  0
 26 27  2  0  0  0
 27 18  1  0  0  0
 27 22  1  0  0  0
  7  8  1  0  0  0
  8 34  1  0  0  0
  8  3  1  0  0  0
 34 35  1  0  0  0
 35 37  1  0  0  0
 35 36  1  0  0  0
 37 38  2  0  0  0
 38 39  1  0  0  0
 39 40  2  0  0  0
 40 41  1  0  0  0
 41 42  2  0  0  0
 42 37  1  0  0  0
  9 10  2  0  0  0
 10 11  1  0  0  0
 11 12  1  0  0  0
 11 13  2  0  0  0
 13 14  1  0  0  0
 14 15  2  0  0  0
 15 16  1  0  0  0
 15  9  1  0  0  0
 16 17  2  0  0  0
 16  1  1  0  0  0
M  END
> <minimizedAffinity>
-8.43758

> <CNNscore>
0.1489247233

> <CNNaffinity>
6.3062200546

> <CNN_VS>
0.9391520619

> <CNNaffinity_variance>
0.5556676984

$$$$



 42 47  0  0  0  0  0  0  0  0999 V2000
   -7.3149   -2.9943  -22.4596 N   0  0  0  0  0  0  0  0  0  0  0  0
   -8.2399   -1.9989  -22.9122 C   0  0  0  0  0  0  0  0  0  0  0  0
   -7.7040   -0.6167  -23.0401 C   0  0  0  0  0  0  0  0  0  0  0  0
   -8.7920    0.3323  -22.6064 C   0  0  0  0  0  0  0  0  0  0  0  0
   -8.9186    0.8269  -21.4715 O   0  0  0  0  0  0  0  0  0  0  0  0
   -9.6272    0.5428  -23.7361 N   0  0  0  0  0  0  0  0  0  0  0  0
   -8.9994   -0.0670  -24.9101 C   0  0  0  0  0  0  0  0  0  0  0  0
   -7.5581   -0.1422  -24.4818 C   0  0  0  0  0  0  0  0  0  0  0  0
   -6.4684   -0.3531  -22.2730 C   0  0  0  0  0  0  0  0  0  0  0  0
   -6.0433    0.9513  -22.1764 C   0  0  0  0  0  0  0  0  0  0  0  0
   -4.8900    1.2497  -21.4675 C   0  0  0  0  0  0  0  0  0  0  0  0
   -4.3176    2.9111  -21.3243 Cl  0  0  0  0  0  0  0  0  0  0  0  0
   -4.1340    0.2704  -20.8408 C   0  0  0  0  0  0  0  0  0  0  0  0
   -4.5632   -1.0413  -20.9390 C   0  0  0  0  0  0  0  0  0  0  0  0
   -5.7174   -1.3150  -21.6521 C   0  0  0  0  0  0  0  0  0  0  0  0
   -6.1380   -2.7090  -21.7335 C   0  0  0  0  0  0  0  0  0  0  0  0
   -5.4773   -3.6229  -21.1777 O   0  0  0  0  0  0  0  0  0  0  0  0
  -10.8792    1.2278  -23.7737 C   0  0  0  0  0  0  0  0  0  0  0  0
  -12.0354    0.4985  -23.5782 C   0  0  0  0  0  0  0  0  0  0  0  0
  -13.2624    1.0980  -23.6027 N   0  0  0  0  0  0  0  0  0  0  0  0
  -13.3402    2.4418  -23.8247 C   0  0  0  0  0  0  0  0  0  0  0  0
  -12.2104    3.1980  -24.0232 C   0  0  0  0  0  0  0  0  0  0  0  0
  -12.3269    4.5564  -24.2453 C   0  0  0  0  0  0  0  0  0  0  0  0
  -11.1506    5.2869  -24.4423 C   0  0  0  0  0  0  0  0  0  0  0  0
   -9.9184    4.6639  -24.4142 C   0  0  0  0  0  0  0  0  0  0  0  0
   -9.7970    3.2992  -24.1912 C   0  0  0  0  0  0  0  0  0  0  0  0
  -10.9656    2.5961  -23.9994 C   0  0  0  0  0  0  0  0  0  0  0  0
   -7.5854   -4.3972  -22.7561 C   0  0  0  0  0  0  0  0  0  0  0  0
   -5.2640   -4.8654  -25.8110 C   0  0  0  0  0  0  0  0  0  0  0  0
   -5.6592   -4.6386  -24.4231 N   0  0  0  0  0  0  0  0  0  0  0  0
   -7.0347   -4.6199  -24.1391 C   0  0  0  0  0  0  0  0  0  0  0  0
   -7.8633   -4.7992  -25.0917 O   0  0  0  0  0  0  0  0  0  0  0  0
   -4.9884   -4.5043  -23.7151 H   0  0  0  0  0  0  0  0  0  0  0  0
   -6.7141   -1.0245  -25.3291 C   0  0  0  0  0  0  0  0  0  0  0  0
   -6.9799   -0.6445  -26.7253 N   0  0  0  0  0  0  0  0  0  0  0  0
   -7.8471   -0.8097  -27.1610 H   0  0  0  0  0  0  0  0  0  0  0  0
   -5.8861   -0.0167  -27.4057 C   0  0  0  0  0  0  0  0  0  0  0  0
   -4.7473   -0.7429  -27.7685 C   0  0  0  0  0  0  0  0  0  0  0  0
   -3.7122   -0.1475  -28.4127 N   0  0  0  0  0  0  0  0  0  0  0  0
   -3.7790    1.1724  -28.7115 C   0  0  0  0  0  0  0  0  0  0  0  0
   -4.8906    1.9134  -28.3653 C   0  0  0  0  0  0  0  0  0  0  0  0
   -5.8796    1.2816  -27.7340 N   0  0  0  0  0  0  0  0  0  0  0  0
 29 30  1  0  0  0
 30 31  1  0  0  0
 30 33  1  0  0  0
 31 32  2  0  0  0
 31 28  1  0  0  0
 28  1  1  0  0  0
  1  2  1  0  0  0
  3  2  1  0  0  0
  3  4  1  0  0  0
  3  9  1  0  0  0
  4  5  2  0  0  0
  4  6  1  0  0  0
  6 18  1  0  0  0
  6  7  1  0  0  0
 18 19  2  0  0  0
 19 20  1  0  0  0
 20 21  2  0  0  0
 21 22  1  0  0  0
 22 23  2  0  0  0
 23 24  1  0  0  0
 24 25  2  0  0  0
 25 26  1  0  0  0
 26 27  2  0  0  0
 27 18  1  0  0  0
 27 22  1  0  0  0
  7  8  1  0  0  0
  8 34  1  0  0  0
  8  3  1  0  0  0
 34 35  1  0  0  0
 35 37  1  0  0  0
 35 36  1  0  0  0
 37 38  2  0  0  0
 38 39  1  0  0  0
 39 40  2  0  0  0
 40 41  1  0  0  0
 41 42  2  0  0  0
 42 37  1  0  0  0
  9 10  2  0  0  0
 10 11  1  0  0  0
 11 12  1  0  0  0
 11 13  2  0  0  0
 13 14  1  0  0  0
 14 15  2  0  0  0
 15 16  1  0  0  0
 15  9  1  0  0  0
 16 17  2  0  0  0
 16  1  1  0  0  0
M  END
> <minimizedAffinity>
-6.99325

> <CNNscore>
0.1323515624

> <CNNaffinity>
6.2035779953

> <CNN_VS>
0.8210532665

> <CNNaffinity_variance>
0.2121037245

$$$$



 42 47  0  0  0  0  0  0  0  0999 V2000
   -5.7931   -3.0057  -20.9959 N   0  0  0  0  0  0  0  0  0  0  0  0
   -6.0538   -1.6919  -21.5033 C   0  0  0  0  0  0  0  0  0  0  0  0
   -6.8596   -1.6202  -22.7521 C   0  0  0  0  0  0  0  0  0  0  0  0
   -6.3011   -0.4960  -23.5869 C   0  0  0  0  0  0  0  0  0  0  0  0
   -5.4707   -0.6135  -24.5063 O   0  0  0  0  0  0  0  0  0  0  0  0
   -6.9047    0.7017  -23.1188 N   0  0  0  0  0  0  0  0  0  0  0  0
   -7.9650    0.3585  -22.1690 C   0  0  0  0  0  0  0  0  0  0  0  0
   -8.2657   -1.0670  -22.5483 C   0  0  0  0  0  0  0  0  0  0  0  0
   -6.8958   -2.8677  -23.5439 C   0  0  0  0  0  0  0  0  0  0  0  0
   -7.4399   -2.8072  -24.8055 C   0  0  0  0  0  0  0  0  0  0  0  0
   -7.4965   -3.9506  -25.5873 C   0  0  0  0  0  0  0  0  0  0  0  0
   -8.1877   -3.9075  -27.2087 Cl  0  0  0  0  0  0  0  0  0  0  0  0
   -7.0188   -5.1741  -25.1422 C   0  0  0  0  0  0  0  0  0  0  0  0
   -6.4716   -5.2330  -23.8728 C   0  0  0  0  0  0  0  0  0  0  0  0
   -6.4260   -4.0786  -23.1106 C   0  0  0  0  0  0  0  0  0  0  0  0
   -5.8424   -4.1801  -21.7780 C   0  0  0  0  0  0  0  0  0  0  0  0
   -5.3993   -5.2729  -21.3417 O   0  0  0  0  0  0  0  0  0  0  0  0
   -6.5702    2.0412  -23.4824 C   0  0  0  0  0  0  0  0  0  0  0  0
   -5.5828    2.6907  -22.7683 C   0  0  0  0  0  0  0  0  0  0  0  0
   -5.2191    3.9724  -23.0693 N   0  0  0  0  0  0  0  0  0  0  0  0
   -5.8464    4.6167  -24.0951 C   0  0  0  0  0  0  0  0  0  0  0  0
   -6.8331    4.0009  -24.8265 C   0  0  0  0  0  0  0  0  0  0  0  0
   -7.4468    4.6838  -25.8586 C   0  0  0  0  0  0  0  0  0  0  0  0
   -8.4457    4.0180  -26.5763 C   0  0  0  0  0  0  0  0  0  0  0  0
   -8.8005    2.7219  -26.2578 C   0  0  0  0  0  0  0  0  0  0  0  0
   -8.1862    2.0321  -25.2216 C   0  0  0  0  0  0  0  0  0  0  0  0
   -7.2051    2.7033  -24.5260 C   0  0  0  0  0  0  0  0  0  0  0  0
   -5.4536   -3.1639  -19.5856 C   0  0  0  0  0  0  0  0  0  0  0  0
   -5.4252    0.3400  -17.9539 C   0  0  0  0  0  0  0  0  0  0  0  0
   -4.9087   -0.8777  -18.5737 N   0  0  0  0  0  0  0  0  0  0  0  0
   -5.8424   -1.8615  -18.9391 C   0  0  0  0  0  0  0  0  0  0  0  0
   -7.0800   -1.6496  -18.7163 O   0  0  0  0  0  0  0  0  0  0  0  0
   -3.9447   -1.0039  -18.7292 H   0  0  0  0  0  0  0  0  0  0  0  0
   -9.0709   -1.8096  -21.5439 C   0  0  0  0  0  0  0  0  0  0  0  0
  -10.0553   -2.6015  -22.2978 N   0  0  0  0  0  0  0  0  0  0  0  0
   -9.9107   -3.5497  -22.5200 H   0  0  0  0  0  0  0  0  0  0  0  0
  -11.2396   -1.8940  -22.6856 C   0  0  0  0  0  0  0  0  0  0  0  0
  -12.5101   -2.3689  -22.3448 C   0  0  0  0  0  0  0  0  0  0  0  0
  -13.6308   -1.6982  -22.7125 N   0  0  0  0  0  0  0  0  0  0  0  0
  -13.5216   -0.5489  -23.4216 C   0  0  0  0  0  0  0  0  0  0  0  0
  -12.2805   -0.0572  -23.7717 C   0  0  0  0  0  0  0  0  0  0  0  0
  -11.2114   -0.7533  -23.3865 N   0  0  0  0  0  0  0  0  0  0  0  0
 29 30  1  0  0  0
 30 31  1  0  0  0
 30 33  1  0  0  0
 31 32  2  0  0  0
 31 28  1  0  0  0
 28  1  1  0  0  0
  1  2  1  0  0  0
  3  2  1  0  0  0
  3  4  1  0  0  0
  3  9  1  0  0  0
  4  5  2  0  0  0
  4  6  1  0  0  0
  6 18  1  0  0  0
  6  7  1  0  0  0
 18 19  2  0  0  0
 19 20  1  0  0  0
 20 21  2  0  0  0
 21 22  1  0  0  0
 22 23  2  0  0  0
 23 24  1  0  0  0
 24 25  2  0  0  0
 25 26  1  0  0  0
 26 27  2  0  0  0
 27 18  1  0  0  0
 27 22  1  0  0  0
  7  8  1  0  0  0
  8 34  1  0  0  0
  8  3  1  0  0  0
 34 35  1  0  0  0
 35 37  1  0  0  0
 35 36  1  0  0  0
 37 38  2  0  0  0
 38 39  1  0  0  0
 39 40  2  0  0  0
 40 41  1  0  0  0
 41 42  2  0  0  0
 42 37  1  0  0  0
  9 10  2  0  0  0
 10 11  1  0  0  0
 11 12  1  0  0  0
 11 13  2  0  0  0
 13 14  1  0  0  0
 14 15  2  0  0  0
 15 16  1  0  0  0
 15  9  1  0  0  0
 16 17  2  0  0  0
 16  1  1  0  0  0
M  END
> <minimizedAffinity>
-8.06714

> <CNNscore>
0.1310598254

> <CNNaffinity>
6.3845014572

> <CNN_VS>
0.8367516398

> <CNNaffinity_variance>
0.7472670674

$$$$



 37 42  0  0  0  0  0  0  0  0999 V2000
   -9.3589    2.6911  -25.1955 C   0  0  0  0  0  0  0  0  0  0  0  0
   -9.0369    1.2357  -24.8698 C   0  0  0  0  0  0  0  0  0  0  0  0
   -7.5524    1.1624  -24.6996 C   0  0  0  0  0  0  0  0  0  0  0  0
   -7.3180    0.9170  -23.3021 N   0  0  0  0  0  0  0  0  0  0  0  0
   -8.5604    0.8334  -22.6236 C   0  0  0  0  0  0  0  0  0  0  0  0
   -8.7325    0.8335  -21.3708 O   0  0  0  0  0  0  0  0  0  0  0  0
   -9.6876    0.7414  -23.6200 C   0  0  0  0  0  0  0  0  0  0  0  0
  -10.8023    1.5768  -23.0987 C   0  0  0  0  0  0  0  0  0  0  0  0
  -12.1199    1.0401  -23.2304 N   0  0  0  0  0  0  0  0  0  0  0  0
  -12.4092   -0.3586  -23.3451 C   0  0  0  0  0  0  0  0  0  0  0  0
  -13.5806   -0.8118  -23.2295 O   0  0  0  0  0  0  0  0  0  0  0  0
  -11.2680   -1.2289  -23.6038 C   0  0  0  0  0  0  0  0  0  0  0  0
  -11.5381   -2.5876  -23.7101 C   0  0  0  0  0  0  0  0  0  0  0  0
  -10.5174   -3.4832  -23.9478 C   0  0  0  0  0  0  0  0  0  0  0  0
   -9.2423   -2.9740  -24.0720 C   0  0  0  0  0  0  0  0  0  0  0  0
   -7.9424   -4.1130  -24.3743 Cl  0  0  0  0  0  0  0  0  0  0  0  0
   -8.9791   -1.6034  -23.9636 C   0  0  0  0  0  0  0  0  0  0  0  0
   -9.9993   -0.7083  -23.7262 C   0  0  0  0  0  0  0  0  0  0  0  0
   -6.0366    0.7832  -22.7016 C   0  0  0  0  0  0  0  0  0  0  0  0
   -5.5136   -0.4209  -22.2819 C   0  0  0  0  0  0  0  0  0  0  0  0
   -4.3035   -0.5365  -21.7165 N   0  0  0  0  0  0  0  0  0  0  0  0
   -3.5352    0.5295  -21.5307 C   0  0  0  0  0  0  0  0  0  0  0  0
   -4.0051    1.7702  -21.9318 C   0  0  0  0  0  0  0  0  0  0  0  0
   -3.1708    2.8438  -21.7170 C   0  0  0  0  0  0  0  0  0  0  0  0
   -3.5899    4.1036  -22.0980 C   0  0  0  0  0  0  0  0  0  0  0  0
   -4.8270    4.2572  -22.6815 C   0  0  0  0  0  0  0  0  0  0  0  0
   -5.6694    3.1714  -22.8980 C   0  0  0  0  0  0  0  0  0  0  0  0
   -5.2513    1.9072  -22.5167 C   0  0  0  0  0  0  0  0  0  0  0  0
  -13.2786    1.9269  -23.2505 C   0  0  0  0  0  0  0  0  0  0  0  0
  -12.8905    3.2151  -22.6284 C   0  0  0  0  0  0  0  0  0  0  0  0
  -12.8875    4.3426  -23.5097 N   0  0  0  0  0  0  0  0  0  0  0  0
  -13.0914    3.9047  -24.8844 C   0  0  0  0  0  0  0  0  0  0  0  0
  -12.7487    5.1134  -25.7370 C   0  0  0  0  0  0  0  0  0  0  0  0
  -13.7084    6.0895  -25.4602 O   0  0  0  0  0  0  0  0  0  0  0  0
  -13.6402    6.4924  -24.1435 C   0  0  0  0  0  0  0  0  0  0  0  0
  -13.9195    5.3126  -23.2297 C   0  0  0  0  0  0  0  0  0  0  0  0
  -11.9791    4.7843  -23.3679 H   0  0  0  0  0  0  0  0  0  0  0  0
  2  1  1  0  0  0
  2  3  1  0  0  0
  3  4  1  0  0  0
  4 19  1  0  0  0
  4  5  1  0  0  0
 19 20  2  0  0  0
 20 21  1  0  0  0
 21 22  2  0  0  0
 22 23  1  0  0  0
 23 24  2  0  0  0
 24 25  1  0  0  0
 25 26  2  0  0  0
 26 27  1  0  0  0
 27 28  2  0  0  0
 28 19  1  0  0  0
 28 23  1  0  0  0
  5  6  2  0  0  0
  7  5  1  0  0  0
  7  8  1  0  0  0
  7  2  1  0  0  0
  8  9  1  0  0  0
  9 29  1  0  0  0
  9 10  1  0  0  0
 29 30  1  0  0  0
 30 31  1  0  0  0
 31 32  1  0  0  0
 31 37  1  0  0  0
 32 33  1  0  0  0
 33 34  1  0  0  0
 34 35  1  0  0  0
 35 36  1  0  0  0
 36 31  1  0  0  0
 10 11  2  0  0  0
 10 12  1  0  0  0
 12 13  2  0  0  0
 13 14  1  0  0  0
 14 15  2  0  0  0
 15 16  1  0  0  0
 15 17  1  0  0  0
 17 18  2  0  0  0
 18 12  1  0  0  0
 18  7  1  0  0  0
M  CHG 1  31   1
M  END
> <minimizedAffinity>
-8.16427

> <CNNscore>
0.2165480405

> <CNNaffinity>
6.1241006851

> <CNN_VS>
1.3261619806

> <CNNaffinity_variance>
0.1140043512

$$$$



 37 42  0  0  0  0  0  0  0  0999 V2000
   -7.1136    0.0266  -21.8176 C   0  0  0  0  0  0  0  0  0  0  0  0
   -8.4141    0.6255  -22.3450 C   0  0  0  0  0  0  0  0  0  0  0  0
   -8.1072    2.0452  -22.7034 C   0  0  0  0  0  0  0  0  0  0  0  0
   -8.1723    2.1224  -24.1380 N   0  0  0  0  0  0  0  0  0  0  0  0
   -8.5021    0.8474  -24.6640 C   0  0  0  0  0  0  0  0  0  0  0  0
   -8.4416    0.4982  -25.8778 O   0  0  0  0  0  0  0  0  0  0  0  0
   -8.9487   -0.0692  -23.5539 C   0  0  0  0  0  0  0  0  0  0  0  0
   -8.3722   -1.4110  -23.8352 C   0  0  0  0  0  0  0  0  0  0  0  0
   -9.2243   -2.5346  -23.6052 N   0  0  0  0  0  0  0  0  0  0  0  0
  -10.6558   -2.4722  -23.6170 C   0  0  0  0  0  0  0  0  0  0  0  0
  -11.3713   -3.5108  -23.6392 O   0  0  0  0  0  0  0  0  0  0  0  0
  -11.2381   -1.1352  -23.6019 C   0  0  0  0  0  0  0  0  0  0  0  0
  -12.6256   -1.0648  -23.6196 C   0  0  0  0  0  0  0  0  0  0  0  0
  -13.2601    0.1590  -23.6134 C   0  0  0  0  0  0  0  0  0  0  0  0
  -12.4659    1.2856  -23.5889 C   0  0  0  0  0  0  0  0  0  0  0  0
  -13.2723    2.8438  -23.5811 Cl  0  0  0  0  0  0  0  0  0  0  0  0
  -11.0684    1.2055  -23.5710 C   0  0  0  0  0  0  0  0  0  0  0  0
  -10.4342   -0.0177  -23.5772 C   0  0  0  0  0  0  0  0  0  0  0  0
   -7.9384    3.2977  -24.9026 C   0  0  0  0  0  0  0  0  0  0  0  0
   -6.7909    3.5149  -25.6345 C   0  0  0  0  0  0  0  0  0  0  0  0
   -6.5800    4.6272  -26.3526 N   0  0  0  0  0  0  0  0  0  0  0  0
   -7.4888    5.5934  -26.3924 C   0  0  0  0  0  0  0  0  0  0  0  0
   -8.6651    5.4345  -25.6767 C   0  0  0  0  0  0  0  0  0  0  0  0
   -9.5750    6.4648  -25.7506 C   0  0  0  0  0  0  0  0  0  0  0  0
  -10.7644    6.3581  -25.0563 C   0  0  0  0  0  0  0  0  0  0  0  0
  -11.0125    5.2291  -24.3093 C   0  0  0  0  0  0  0  0  0  0  0  0
  -10.0920    4.1885  -24.2353 C   0  0  0  0  0  0  0  0  0  0  0  0
   -8.8988    4.2933  -24.9306 C   0  0  0  0  0  0  0  0  0  0  0  0
   -8.6532   -3.8513  -23.3416 C   0  0  0  0  0  0  0  0  0  0  0  0
   -7.7653   -4.2094  -24.4731 C   0  0  0  0  0  0  0  0  0  0  0  0
   -8.3143   -5.1428  -25.4087 N   0  0  0  0  0  0  0  0  0  0  0  0
   -7.4494   -5.2491  -26.5766 C   0  0  0  0  0  0  0  0  0  0  0  0
   -8.2755   -5.9923  -27.6113 C   0  0  0  0  0  0  0  0  0  0  0  0
   -8.4763   -7.2833  -27.1180 O   0  0  0  0  0  0  0  0  0  0  0  0
   -9.2143   -7.2600  -25.9538 C   0  0  0  0  0  0  0  0  0  0  0  0
   -8.4670   -6.4802  -24.8869 C   0  0  0  0  0  0  0  0  0  0  0  0
   -9.2382   -4.7748  -25.6354 H   0  0  0  0  0  0  0  0  0  0  0  0
  2  1  1  0  0  0
  2  3  1  0  0  0
  3  4  1  0  0  0
  4 19  1  0  0  0
  4  5  1  0  0  0
 19 20  2  0  0  0
 20 21  1  0  0  0
 21 22  2  0  0  0
 22 23  1  0  0  0
 23 24  2  0  0  0
 24 25  1  0  0  0
 25 26  2  0  0  0
 26 27  1  0  0  0
 27 28  2  0  0  0
 28 19  1  0  0  0
 28 23  1  0  0  0
  5  6  2  0  0  0
  7  5  1  0  0  0
  7  8  1  0  0  0
  7  2  1  0  0  0
  8  9  1  0  0  0
  9 29  1  0  0  0
  9 10  1  0  0  0
 29 30  1  0  0  0
 30 31  1  0  0  0
 31 32  1  0  0  0
 31 37  1  0  0  0
 32 33  1  0  0  0
 33 34  1  0  0  0
 34 35  1  0  0  0
 35 36  1  0  0  0
 36 31  1  0  0  0
 10 11  2  0  0  0
 10 12  1  0  0  0
 12 13  2  0  0  0
 13 14  1  0  0  0
 14 15  2  0  0  0
 15 16  1  0  0  0
 15 17  1  0  0  0
 17 18  2  0  0  0
 18 12  1  0  0  0
 18  7  1  0  0  0
M  CHG 1  31   1
M  END
> <minimizedAffinity>
-8.00382

> <CNNscore>
0.1826723963

> <CNNaffinity>
5.8517827988

> <CNN_VS>
1.0689592361

> <CNNaffinity_variance>
0.4848736227

$$$$



 37 42  0  0  0  0  0  0  0  0999 V2000
  -11.2124   -2.2702  -23.1344 C   0  0  0  0  0  0  0  0  0  0  0  0
  -10.6388   -1.1327  -23.9741 C   0  0  0  0  0  0  0  0  0  0  0  0
  -11.6883   -0.0673  -24.0101 C   0  0  0  0  0  0  0  0  0  0  0  0
  -11.1773    1.0293  -23.2326 N   0  0  0  0  0  0  0  0  0  0  0  0
   -9.8911    0.6962  -22.7368 C   0  0  0  0  0  0  0  0  0  0  0  0
   -9.2399    1.3279  -21.8559 O   0  0  0  0  0  0  0  0  0  0  0  0
   -9.3823   -0.5490  -23.4169 C   0  0  0  0  0  0  0  0  0  0  0  0
   -8.6959   -1.3650  -22.3800 C   0  0  0  0  0  0  0  0  0  0  0  0
   -7.4711   -1.9915  -22.7661 N   0  0  0  0  0  0  0  0  0  0  0  0
   -6.6307   -1.5248  -23.8287 C   0  0  0  0  0  0  0  0  0  0  0  0
   -5.4571   -1.9567  -23.9933 O   0  0  0  0  0  0  0  0  0  0  0  0
   -7.2128   -0.5194  -24.7102 C   0  0  0  0  0  0  0  0  0  0  0  0
   -6.4029   -0.0562  -25.7396 C   0  0  0  0  0  0  0  0  0  0  0  0
   -6.8706    0.8993  -26.6165 C   0  0  0  0  0  0  0  0  0  0  0  0
   -8.1549    1.3622  -26.4248 C   0  0  0  0  0  0  0  0  0  0  0  0
   -8.7512    2.5784  -27.5401 Cl  0  0  0  0  0  0  0  0  0  0  0  0
   -8.9643    0.8899  -25.3849 C   0  0  0  0  0  0  0  0  0  0  0  0
   -8.4969   -0.0652  -24.5086 C   0  0  0  0  0  0  0  0  0  0  0  0
  -11.8626    2.2527  -22.9996 C   0  0  0  0  0  0  0  0  0  0  0  0
  -12.9016    2.3856  -22.1038 C   0  0  0  0  0  0  0  0  0  0  0  0
  -13.5415    3.5443  -21.8913 N   0  0  0  0  0  0  0  0  0  0  0  0
  -13.1951    4.6431  -22.5499 C   0  0  0  0  0  0  0  0  0  0  0  0
  -12.1567    4.5743  -23.4653 C   0  0  0  0  0  0  0  0  0  0  0  0
  -11.8362    5.7408  -24.1221 C   0  0  0  0  0  0  0  0  0  0  0  0
  -10.8088    5.7284  -25.0453 C   0  0  0  0  0  0  0  0  0  0  0  0
  -10.1311    4.5550  -25.2872 C   0  0  0  0  0  0  0  0  0  0  0  0
  -10.4560    3.3766  -24.6229 C   0  0  0  0  0  0  0  0  0  0  0  0
  -11.4858    3.3868  -23.6968 C   0  0  0  0  0  0  0  0  0  0  0  0
   -6.9983   -3.1807  -22.0649 C   0  0  0  0  0  0  0  0  0  0  0  0
   -7.6512   -4.3674  -22.6671 C   0  0  0  0  0  0  0  0  0  0  0  0
   -6.8042   -5.5074  -22.8425 N   0  0  0  0  0  0  0  0  0  0  0  0
   -6.1359   -5.4409  -24.1356 C   0  0  0  0  0  0  0  0  0  0  0  0
   -5.5409   -6.8225  -24.3422 C   0  0  0  0  0  0  0  0  0  0  0  0
   -4.5547   -6.9885  -23.3674 O   0  0  0  0  0  0  0  0  0  0  0  0
   -5.1005   -6.9697  -22.1016 C   0  0  0  0  0  0  0  0  0  0  0  0
   -5.7646   -5.6283  -21.8480 C   0  0  0  0  0  0  0  0  0  0  0  0
   -7.4264   -6.3117  -22.7619 H   0  0  0  0  0  0  0  0  0  0  0  0
  2  1  1  0  0  0
  2  3  1  0  0  0
  3  4  1  0  0  0
  4 19  1  0  0  0
  4  5  1  0  0  0
 19 20  2  0  0  0
 20 21  1  0  0  0
 21 22  2  0  0  0
 22 23  1  0  0  0
 23 24  2  0  0  0
 24 25  1  0  0  0
 25 26  2  0  0  0
 26 27  1  0  0  0
 27 28  2  0  0  0
 28 19  1  0  0  0
 28 23  1  0  0  0
  5  6  2  0  0  0
  7  5  1  0  0  0
  7  8  1  0  0  0
  7  2  1  0  0  0
  8  9  1  0  0  0
  9 29  1  0  0  0
  9 10  1  0  0  0
 29 30  1  0  0  0
 30 31  1  0  0  0
 31 32  1  0  0  0
 31 37  1  0  0  0
 32 33  1  0  0  0
 33 34  1  0  0  0
 34 35  1  0  0  0
 35 36  1  0  0  0
 36 31  1  0  0  0
 10 11  2  0  0  0
 10 12  1  0  0  0
 12 13  2  0  0  0
 13 14  1  0  0  0
 14 15  2  0  0  0
 15 16  1  0  0  0
 15 17  1  0  0  0
 17 18  2  0  0  0
 18 12  1  0  0  0
 18  7  1  0  0  0
M  CHG 1  31   1
M  END
> <minimizedAffinity>
-7.10637

> <CNNscore>
0.1769384742

> <CNNaffinity>
5.8889107704

> <CNN_VS>
1.0419749022

> <CNNaffinity_variance>
0.1579197794

$$$$



 37 42  0  0  0  0  0  0  0  0999 V2000
   -8.2390    0.9916  -22.9381 C   0  0  0  0  0  0  0  0  0  0  0  0
   -6.9095    0.5556  -23.5466 C   0  0  0  0  0  0  0  0  0  0  0  0
   -5.8647    1.4486  -22.9559 C   0  0  0  0  0  0  0  0  0  0  0  0
   -5.0708    0.6216  -22.0876 N   0  0  0  0  0  0  0  0  0  0  0  0
   -5.5651   -0.7072  -22.1210 C   0  0  0  0  0  0  0  0  0  0  0  0
   -5.2479   -1.6456  -21.3349 O   0  0  0  0  0  0  0  0  0  0  0  0
   -6.5500   -0.8633  -23.2513 C   0  0  0  0  0  0  0  0  0  0  0  0
   -7.6586   -1.7194  -22.7510 C   0  0  0  0  0  0  0  0  0  0  0  0
   -8.1593   -2.7090  -23.6518 N   0  0  0  0  0  0  0  0  0  0  0  0
   -7.4044   -3.2625  -24.7367 C   0  0  0  0  0  0  0  0  0  0  0  0
   -7.7871   -4.2872  -25.3648 O   0  0  0  0  0  0  0  0  0  0  0  0
   -6.1654   -2.5705  -25.0727 C   0  0  0  0  0  0  0  0  0  0  0  0
   -5.4235   -3.1039  -26.1193 C   0  0  0  0  0  0  0  0  0  0  0  0
   -4.2357   -2.5168  -26.4999 C   0  0  0  0  0  0  0  0  0  0  0  0
   -3.8296   -1.3976  -25.8049 C   0  0  0  0  0  0  0  0  0  0  0  0
   -2.3179   -0.6496  -26.2883 Cl  0  0  0  0  0  0  0  0  0  0  0  0
   -4.5835   -0.8667  -24.7516 C   0  0  0  0  0  0  0  0  0  0  0  0
   -5.7707   -1.4534  -24.3713 C   0  0  0  0  0  0  0  0  0  0  0  0
   -3.9656    1.0742  -21.3167 C   0  0  0  0  0  0  0  0  0  0  0  0
   -4.0529    1.4083  -19.9824 C   0  0  0  0  0  0  0  0  0  0  0  0
   -3.0041    1.8342  -19.2640 N   0  0  0  0  0  0  0  0  0  0  0  0
   -1.8047    1.9565  -19.8186 C   0  0  0  0  0  0  0  0  0  0  0  0
   -1.6520    1.6358  -21.1583 C   0  0  0  0  0  0  0  0  0  0  0  0
   -0.3888    1.7796  -21.6860 C   0  0  0  0  0  0  0  0  0  0  0  0
   -0.1807    1.4736  -23.0168 C   0  0  0  0  0  0  0  0  0  0  0  0
   -1.2363    1.0335  -23.7827 C   0  0  0  0  0  0  0  0  0  0  0  0
   -2.5126    0.8886  -23.2482 C   0  0  0  0  0  0  0  0  0  0  0  0
   -2.7235    1.1948  -21.9141 C   0  0  0  0  0  0  0  0  0  0  0  0
   -9.5155   -3.2258  -23.4997 C   0  0  0  0  0  0  0  0  0  0  0  0
  -10.0815   -2.6861  -22.2405 C   0  0  0  0  0  0  0  0  0  0  0  0
  -11.2685   -1.9011  -22.3914 N   0  0  0  0  0  0  0  0  0  0  0  0
  -11.1662   -1.0611  -23.5776 C   0  0  0  0  0  0  0  0  0  0  0  0
  -12.3052   -0.0648  -23.4531 C   0  0  0  0  0  0  0  0  0  0  0  0
  -13.4928   -0.7926  -23.5545 O   0  0  0  0  0  0  0  0  0  0  0  0
  -13.6196   -1.6826  -22.5094 C   0  0  0  0  0  0  0  0  0  0  0  0
  -12.4751   -2.6795  -22.5414 C   0  0  0  0  0  0  0  0  0  0  0  0
  -11.3361   -1.3592  -21.5299 H   0  0  0  0  0  0  0  0  0  0  0  0
  2  1  1  0  0  0
  2  3  1  0  0  0
  3  4  1  0  0  0
  4 19  1  0  0  0
  4  5  1  0  0  0
 19 20  2  0  0  0
 20 21  1  0  0  0
 21 22  2  0  0  0
 22 23  1  0  0  0
 23 24  2  0  0  0
 24 25  1  0  0  0
 25 26  2  0  0  0
 26 27  1  0  0  0
 27 28  2  0  0  0
 28 19  1  0  0  0
 28 23  1  0  0  0
  5  6  2  0  0  0
  7  5  1  0  0  0
  7  8  1  0  0  0
  7  2  1  0  0  0
  8  9  1  0  0  0
  9 29  1  0  0  0
  9 10  1  0  0  0
 29 30  1  0  0  0
 30 31  1  0  0  0
 31 32  1  0  0  0
 31 37  1  0  0  0
 32 33  1  0  0  0
 33 34  1  0  0  0
 34 35  1  0  0  0
 35 36  1  0  0  0
 36 31  1  0  0  0
 10 11  2  0  0  0
 10 12  1  0  0  0
 12 13  2  0  0  0
 13 14  1  0  0  0
 14 15  2  0  0  0
 15 16  1  0  0  0
 15 17  1  0  0  0
 17 18  2  0  0  0
 18 12  1  0  0  0
 18  7  1  0  0  0
M  CHG 1  31   1
M  END
> <minimizedAffinity>
-7.06023

> <CNNscore>
0.1463478953

> <CNNaffinity>
5.8433370590

> <CNN_VS>
0.8551600575

> <CNNaffinity_variance>
0.0917122215

$$$$



 37 42  0  0  0  0  0  0  0  0999 V2000
  -10.2750   -1.9495  -22.9410 C   0  0  0  0  0  0  0  0  0  0  0  0
   -9.9600   -0.8265  -23.9246 C   0  0  0  0  0  0  0  0  0  0  0  0
  -11.1798    0.0379  -23.9793 C   0  0  0  0  0  0  0  0  0  0  0  0
  -10.8226    1.2802  -23.3490 N   0  0  0  0  0  0  0  0  0  0  0  0
   -9.4708    1.2217  -22.9245 C   0  0  0  0  0  0  0  0  0  0  0  0
   -8.8887    2.0428  -22.1590 O   0  0  0  0  0  0  0  0  0  0  0  0
   -8.7938    0.0150  -23.5225 C   0  0  0  0  0  0  0  0  0  0  0  0
   -7.9149   -0.5606  -22.4697 C   0  0  0  0  0  0  0  0  0  0  0  0
   -6.6248   -1.0098  -22.8885 N   0  0  0  0  0  0  0  0  0  0  0  0
   -5.9436   -0.5230  -24.0514 C   0  0  0  0  0  0  0  0  0  0  0  0
   -4.7246   -0.7667  -24.2646 O   0  0  0  0  0  0  0  0  0  0  0  0
   -6.7438    0.2722  -24.9756 C   0  0  0  0  0  0  0  0  0  0  0  0
   -6.0900    0.7539  -26.1029 C   0  0  0  0  0  0  0  0  0  0  0  0
   -6.7688    1.5198  -27.0266 C   0  0  0  0  0  0  0  0  0  0  0  0
   -8.1005    1.7781  -26.7810 C   0  0  0  0  0  0  0  0  0  0  0  0
   -8.9654    2.7529  -27.9558 Cl  0  0  0  0  0  0  0  0  0  0  0  0
   -8.7516    1.2887  -25.6425 C   0  0  0  0  0  0  0  0  0  0  0  0
   -8.0732    0.5231  -24.7193 C   0  0  0  0  0  0  0  0  0  0  0  0
  -11.6959    2.3889  -23.1793 C   0  0  0  0  0  0  0  0  0  0  0  0
  -12.7557    2.3964  -22.2981 C   0  0  0  0  0  0  0  0  0  0  0  0
  -13.5737    3.4476  -22.1455 N   0  0  0  0  0  0  0  0  0  0  0  0
  -13.3959    4.5559  -22.8532 C   0  0  0  0  0  0  0  0  0  0  0  0
  -12.3466    4.6107  -23.7571 C   0  0  0  0  0  0  0  0  0  0  0  0
  -12.2050    5.7818  -24.4665 C   0  0  0  0  0  0  0  0  0  0  0  0
  -11.1754    5.8900  -25.3809 C   0  0  0  0  0  0  0  0  0  0  0  0
  -10.3174    4.8291  -25.5619 C   0  0  0  0  0  0  0  0  0  0  0  0
  -10.4615    3.6459  -24.8445 C   0  0  0  0  0  0  0  0  0  0  0  0
  -11.4932    3.5352  -23.9271 C   0  0  0  0  0  0  0  0  0  0  0  0
   -5.9106   -2.0224  -22.1178 C   0  0  0  0  0  0  0  0  0  0  0  0
   -6.3880   -1.9637  -20.7157 C   0  0  0  0  0  0  0  0  0  0  0  0
   -5.5961   -1.1618  -19.8338 N   0  0  0  0  0  0  0  0  0  0  0  0
   -5.0129   -0.0426  -20.5622 C   0  0  0  0  0  0  0  0  0  0  0  0
   -3.9618    0.5296  -19.6278 C   0  0  0  0  0  0  0  0  0  0  0  0
   -4.6414    1.0536  -18.5260 O   0  0  0  0  0  0  0  0  0  0  0  0
   -5.3004    0.0612  -17.8322 C   0  0  0  0  0  0  0  0  0  0  0  0
   -6.3341   -0.5945  -18.7302 C   0  0  0  0  0  0  0  0  0  0  0  0
   -4.8920   -1.7985  -19.4610 H   0  0  0  0  0  0  0  0  0  0  0  0
  2  1  1  0  0  0
  2  3  1  0  0  0
  3  4  1  0  0  0
  4 19  1  0  0  0
  4  5  1  0  0  0
 19 20  2  0  0  0
 20 21  1  0  0  0
 21 22  2  0  0  0
 22 23  1  0  0  0
 23 24  2  0  0  0
 24 25  1  0  0  0
 25 26  2  0  0  0
 26 27  1  0  0  0
 27 28  2  0  0  0
 28 19  1  0  0  0
 28 23  1  0  0  0
  5  6  2  0  0  0
  7  5  1  0  0  0
  7  8  1  0  0  0
  7  2  1  0  0  0
  8  9  1  0  0  0
  9 29  1  0  0  0
  9 10  1  0  0  0
 29 30  1  0  0  0
 30 31  1  0  0  0
 31 32  1  0  0  0
 31 37  1  0  0  0
 32 33  1  0  0  0
 33 34  1  0  0  0
 34 35  1  0  0  0
 35 36  1  0  0  0
 36 31  1  0  0  0
 10 11  2  0  0  0
 10 12  1  0  0  0
 12 13  2  0  0  0
 13 14  1  0  0  0
 14 15  2  0  0  0
 15 16  1  0  0  0
 15 17  1  0  0  0
 17 18  2  0  0  0
 18 12  1  0  0  0
 18  7  1  0  0  0
M  CHG 1  31   1
M  END
> <minimizedAffinity>
-7.62360

> <CNNscore>
0.1349186003

> <CNNaffinity>
5.7215085030

> <CNN_VS>
0.7719379067

> <CNNaffinity_variance>
0.2297941744

$$$$



 37 42  0  0  0  0  0  0  0  0999 V2000
   -7.0339   -0.3343  -21.9039 C   0  0  0  0  0  0  0  0  0  0  0  0
   -8.3565    0.3282  -22.2776 C   0  0  0  0  0  0  0  0  0  0  0  0
   -8.0621    1.7849  -22.4496 C   0  0  0  0  0  0  0  0  0  0  0  0
   -8.1979    2.0610  -23.8544 N   0  0  0  0  0  0  0  0  0  0  0  0
   -8.5583    0.8708  -24.5358 C   0  0  0  0  0  0  0  0  0  0  0  0
   -8.5594    0.6942  -25.7880 O   0  0  0  0  0  0  0  0  0  0  0  0
   -8.9531   -0.1929  -23.5434 C   0  0  0  0  0  0  0  0  0  0  0  0
   -8.3964   -1.4807  -24.0371 C   0  0  0  0  0  0  0  0  0  0  0  0
   -9.2406   -2.6279  -23.9239 N   0  0  0  0  0  0  0  0  0  0  0  0
  -10.6706   -2.5688  -23.8559 C   0  0  0  0  0  0  0  0  0  0  0  0
  -11.3904   -3.5963  -23.9870 O   0  0  0  0  0  0  0  0  0  0  0  0
  -11.2462   -1.2487  -23.6259 C   0  0  0  0  0  0  0  0  0  0  0  0
  -12.6325   -1.1807  -23.5649 C   0  0  0  0  0  0  0  0  0  0  0  0
  -13.2612    0.0285  -23.3568 C   0  0  0  0  0  0  0  0  0  0  0  0
  -12.4623    1.1430  -23.2151 C   0  0  0  0  0  0  0  0  0  0  0  0
  -13.2612    2.6825  -22.9504 Cl  0  0  0  0  0  0  0  0  0  0  0  0
  -11.0660    1.0654  -23.2778 C   0  0  0  0  0  0  0  0  0  0  0  0
  -10.4377   -0.1431  -23.4857 C   0  0  0  0  0  0  0  0  0  0  0  0
   -7.9976    3.3321  -24.4585 C   0  0  0  0  0  0  0  0  0  0  0  0
   -9.0122    4.2371  -24.6842 C   0  0  0  0  0  0  0  0  0  0  0  0
   -8.8127    5.4337  -25.2548 N   0  0  0  0  0  0  0  0  0  0  0  0
   -7.5992    5.8106  -25.6378 C   0  0  0  0  0  0  0  0  0  0  0  0
   -6.5361    4.9440  -25.4379 C   0  0  0  0  0  0  0  0  0  0  0  0
   -5.2985    5.3815  -25.8524 C   0  0  0  0  0  0  0  0  0  0  0  0
   -4.2041    4.5572  -25.6770 C   0  0  0  0  0  0  0  0  0  0  0  0
   -4.3743    3.3219  -25.0942 C   0  0  0  0  0  0  0  0  0  0  0  0
   -5.6257    2.8808  -24.6758 C   0  0  0  0  0  0  0  0  0  0  0  0
   -6.7244    3.7057  -24.8507 C   0  0  0  0  0  0  0  0  0  0  0  0
   -8.6623   -3.9668  -23.8748 C   0  0  0  0  0  0  0  0  0  0  0  0
   -7.7591   -4.1275  -25.0390 C   0  0  0  0  0  0  0  0  0  0  0  0
   -8.2213   -5.0274  -26.0512 N   0  0  0  0  0  0  0  0  0  0  0  0
   -9.1734   -4.3533  -26.9243 C   0  0  0  0  0  0  0  0  0  0  0  0
   -9.8235   -5.4644  -27.7294 C   0  0  0  0  0  0  0  0  0  0  0  0
   -8.8272   -6.0142  -28.5389 O   0  0  0  0  0  0  0  0  0  0  0  0
   -7.8348   -6.5950  -27.7784 C   0  0  0  0  0  0  0  0  0  0  0  0
   -7.1763   -5.5438  -26.9030 C   0  0  0  0  0  0  0  0  0  0  0  0
   -8.6384   -5.8054  -25.5402 H   0  0  0  0  0  0  0  0  0  0  0  0
  2  1  1  0  0  0
  2  3  1  0  0  0
  3  4  1  0  0  0
  4 19  1  0  0  0
  4  5  1  0  0  0
 19 20  2  0  0  0
 20 21  1  0  0  0
 21 22  2  0  0  0
 22 23  1  0  0  0
 23 24  2  0  0  0
 24 25  1  0  0  0
 25 26  2  0  0  0
 26 27  1  0  0  0
 27 28  2  0  0  0
 28 19  1  0  0  0
 28 23  1  0  0  0
  5  6  2  0  0  0
  7  5  1  0  0  0
  7  8  1  0  0  0
  7  2  1  0  0  0
  8  9  1  0  0  0
  9 29  1  0  0  0
  9 10  1  0  0  0
 29 30  1  0  0  0
 30 31  1  0  0  0
 31 32  1  0  0  0
 31 37  1  0  0  0
 32 33  1  0  0  0
 33 34  1  0  0  0
 34 35  1  0  0  0
 35 36  1  0  0  0
 36 31  1  0  0  0
 10 11  2  0  0  0
 10 12  1  0  0  0
 12 13  2  0  0  0
 13 14  1  0  0  0
 14 15  2  0  0  0
 15 16  1  0  0  0
 15 17  1  0  0  0
 17 18  2  0  0  0
 18 12  1  0  0  0
 18  7  1  0  0  0
M  CHG 1  31   1
M  END
> <minimizedAffinity>
-7.48436

> <CNNscore>
0.1348719746

> <CNNaffinity>
5.7446713448

> <CNN_VS>
0.7747951746

> <CNNaffinity_variance>
0.3562887311

$$$$



 37 42  0  0  0  0  0  0  0  0999 V2000
   -6.7380   -0.0358  -26.2813 C   0  0  0  0  0  0  0  0  0  0  0  0
   -6.2207    0.5173  -24.9567 C   0  0  0  0  0  0  0  0  0  0  0  0
   -6.3398    2.0058  -25.0485 C   0  0  0  0  0  0  0  0  0  0  0  0
   -7.3799    2.3849  -24.1306 N   0  0  0  0  0  0  0  0  0  0  0  0
   -7.8893    1.2262  -23.4911 C   0  0  0  0  0  0  0  0  0  0  0  0
   -8.9374    1.1574  -22.7870 O   0  0  0  0  0  0  0  0  0  0  0  0
   -6.9915    0.0473  -23.7672 C   0  0  0  0  0  0  0  0  0  0  0  0
   -7.8717   -1.1302  -23.9925 C   0  0  0  0  0  0  0  0  0  0  0  0
   -7.4541   -2.3632  -23.4036 N   0  0  0  0  0  0  0  0  0  0  0  0
   -6.5920   -2.4567  -22.2629 C   0  0  0  0  0  0  0  0  0  0  0  0
   -6.4287   -3.5375  -21.6335 O   0  0  0  0  0  0  0  0  0  0  0  0
   -5.9131   -1.2267  -21.8714 C   0  0  0  0  0  0  0  0  0  0  0  0
   -5.0801   -1.3063  -20.7624 C   0  0  0  0  0  0  0  0  0  0  0  0
   -4.4037   -0.1899  -20.3189 C   0  0  0  0  0  0  0  0  0  0  0  0
   -4.5914    0.9845  -21.0162 C   0  0  0  0  0  0  0  0  0  0  0  0
   -3.7313    2.4061  -20.4526 Cl  0  0  0  0  0  0  0  0  0  0  0  0
   -5.4326    1.0558  -22.1329 C   0  0  0  0  0  0  0  0  0  0  0  0
   -6.1085   -0.0601  -22.5762 C   0  0  0  0  0  0  0  0  0  0  0  0
   -7.8244    3.7164  -23.9069 C   0  0  0  0  0  0  0  0  0  0  0  0
   -7.3263    4.5291  -22.9113 C   0  0  0  0  0  0  0  0  0  0  0  0
   -7.7524    5.7839  -22.7087 N   0  0  0  0  0  0  0  0  0  0  0  0
   -8.6964    6.3138  -23.4763 C   0  0  0  0  0  0  0  0  0  0  0  0
   -9.2378    5.5465  -24.4956 C   0  0  0  0  0  0  0  0  0  0  0  0
  -10.2134    6.1416  -25.2631 C   0  0  0  0  0  0  0  0  0  0  0  0
  -10.7869    5.4214  -26.2928 C   0  0  0  0  0  0  0  0  0  0  0  0
  -10.3722    4.1302  -26.5279 C   0  0  0  0  0  0  0  0  0  0  0  0
   -9.3862    3.5297  -25.7515 C   0  0  0  0  0  0  0  0  0  0  0  0
   -8.8097    4.2500  -24.7185 C   0  0  0  0  0  0  0  0  0  0  0  0
   -7.9081   -3.6352  -23.9561 C   0  0  0  0  0  0  0  0  0  0  0  0
   -8.0607   -3.4788  -25.4221 C   0  0  0  0  0  0  0  0  0  0  0  0
   -8.4124   -4.6714  -26.1305 N   0  0  0  0  0  0  0  0  0  0  0  0
   -9.0164   -5.6354  -25.2198 C   0  0  0  0  0  0  0  0  0  0  0  0
   -9.0431   -6.9425  -25.9920 C   0  0  0  0  0  0  0  0  0  0  0  0
   -9.9248   -6.7638  -27.0602 O   0  0  0  0  0  0  0  0  0  0  0  0
   -9.4654   -5.7937  -27.9253 C   0  0  0  0  0  0  0  0  0  0  0  0
   -9.3612   -4.4647  -27.1989 C   0  0  0  0  0  0  0  0  0  0  0  0
   -7.5369   -5.0055  -26.5332 H   0  0  0  0  0  0  0  0  0  0  0  0
  2  1  1  0  0  0
  2  3  1  0  0  0
  3  4  1  0  0  0
  4 19  1  0  0  0
  4  5  1  0  0  0
 19 20  2  0  0  0
 20 21  1  0  0  0
 21 22  2  0  0  0
 22 23  1  0  0  0
 23 24  2  0  0  0
 24 25  1  0  0  0
 25 26  2  0  0  0
 26 27  1  0  0  0
 27 28  2  0  0  0
 28 19  1  0  0  0
 28 23  1  0  0  0
  5  6  2  0  0  0
  7  5  1  0  0  0
  7  8  1  0  0  0
  7  2  1  0  0  0
  8  9  1  0  0  0
  9 29  1  0  0  0
  9 10  1  0  0  0
 29 30  1  0  0  0
 30 31  1  0  0  0
 31 32  1  0  0  0
 31 37  1  0  0  0
 32 33  1  0  0  0
 33 34  1  0  0  0
 34 35  1  0  0  0
 35 36  1  0  0  0
 36 31  1  0  0  0
 10 11  2  0  0  0
 10 12  1  0  0  0
 12 13  2  0  0  0
 13 14  1  0  0  0
 14 15  2  0  0  0
 15 16  1  0  0  0
 15 17  1  0  0  0
 17 18  2  0  0  0
 18 12  1  0  0  0
 18  7  1  0  0  0
M  CHG 1  31   1
M  END
> <minimizedAffinity>
-6.58091

> <CNNscore>
0.1123852506

> <CNNaffinity>
5.6403017044

> <CNN_VS>
0.6338866949

> <CNNaffinity_variance>
0.2049310952

$$$$



 37 42  0  0  0  0  0  0  0  0999 V2000
   -6.9370    3.8810  -23.0615 C   0  0  0  0  0  0  0  0  0  0  0  0
   -6.0675    2.7381  -23.5767 C   0  0  0  0  0  0  0  0  0  0  0  0
   -4.6706    3.0421  -23.1359 C   0  0  0  0  0  0  0  0  0  0  0  0
   -4.3416    2.0641  -22.1341 N   0  0  0  0  0  0  0  0  0  0  0  0
   -5.4439    1.1916  -21.9476 C   0  0  0  0  0  0  0  0  0  0  0  0
   -5.5868    0.3528  -21.0121 O   0  0  0  0  0  0  0  0  0  0  0  0
   -6.4575    1.3989  -23.0437 C   0  0  0  0  0  0  0  0  0  0  0  0
   -7.8036    1.3210  -22.4159 C   0  0  0  0  0  0  0  0  0  0  0  0
   -8.8078    0.6093  -23.1415 N   0  0  0  0  0  0  0  0  0  0  0  0
   -8.5285   -0.4078  -24.1114 C   0  0  0  0  0  0  0  0  0  0  0  0
   -9.4277   -1.1693  -24.5612 O   0  0  0  0  0  0  0  0  0  0  0  0
   -7.1410   -0.5113  -24.5485 C   0  0  0  0  0  0  0  0  0  0  0  0
   -6.8595   -1.4990  -25.4841 C   0  0  0  0  0  0  0  0  0  0  0  0
   -5.5728   -1.6713  -25.9480 C   0  0  0  0  0  0  0  0  0  0  0  0
   -4.6002   -0.8321  -25.4479 C   0  0  0  0  0  0  0  0  0  0  0  0
   -2.9621   -1.0504  -26.0375 Cl  0  0  0  0  0  0  0  0  0  0  0  0
   -4.8926    0.1608  -24.5054 C   0  0  0  0  0  0  0  0  0  0  0  0
   -6.1786    0.3330  -24.0418 C   0  0  0  0  0  0  0  0  0  0  0  0
   -3.1026    1.9919  -21.4411 C   0  0  0  0  0  0  0  0  0  0  0  0
   -2.9527    2.3225  -20.1114 C   0  0  0  0  0  0  0  0  0  0  0  0
   -1.7794    2.2508  -19.4669 N   0  0  0  0  0  0  0  0  0  0  0  0
   -0.6819    1.8484  -20.0951 C   0  0  0  0  0  0  0  0  0  0  0  0
   -0.7675    1.5017  -21.4344 C   0  0  0  0  0  0  0  0  0  0  0  0
    0.3985    1.0911  -22.0401 C   0  0  0  0  0  0  0  0  0  0  0  0
    0.3696    0.7338  -23.3740 C   0  0  0  0  0  0  0  0  0  0  0  0
   -0.8190    0.7959  -24.0653 C   0  0  0  0  0  0  0  0  0  0  0  0
   -1.9967    1.2112  -23.4520 C   0  0  0  0  0  0  0  0  0  0  0  0
   -1.9701    1.5698  -22.1146 C   0  0  0  0  0  0  0  0  0  0  0  0
  -10.2212    0.8937  -22.9161 C   0  0  0  0  0  0  0  0  0  0  0  0
  -10.6110    2.0334  -23.7799 C   0  0  0  0  0  0  0  0  0  0  0  0
  -11.4968    2.9819  -23.1770 N   0  0  0  0  0  0  0  0  0  0  0  0
  -12.0659    3.8542  -24.1961 C   0  0  0  0  0  0  0  0  0  0  0  0
  -12.7101    4.9922  -23.4244 C   0  0  0  0  0  0  0  0  0  0  0  0
  -13.7710    4.4420  -22.7020 O   0  0  0  0  0  0  0  0  0  0  0  0
  -13.3179    3.5303  -21.7725 C   0  0  0  0  0  0  0  0  0  0  0  0
  -12.6103    2.3866  -22.4768 C   0  0  0  0  0  0  0  0  0  0  0  0
  -10.9215    3.4871  -22.5031 H   0  0  0  0  0  0  0  0  0  0  0  0
  2  1  1  0  0  0
  2  3  1  0  0  0
  3  4  1  0  0  0
  4 19  1  0  0  0
  4  5  1  0  0  0
 19 20  2  0  0  0
 20 21  1  0  0  0
 21 22  2  0  0  0
 22 23  1  0  0  0
 23 24  2  0  0  0
 24 25  1  0  0  0
 25 26  2  0  0  0
 26 27  1  0  0  0
 27 28  2  0  0  0
 28 19  1  0  0  0
 28 23  1  0  0  0
  5  6  2  0  0  0
  7  5  1  0  0  0
  7  8  1  0  0  0
  7  2  1  0  0  0
  8  9  1  0  0  0
  9 29  1  0  0  0
  9 10  1  0  0  0
 29 30  1  0  0  0
 30 31  1  0  0  0
 31 32  1  0  0  0
 31 37  1  0  0  0
 32 33  1  0  0  0
 33 34  1  0  0  0
 34 35  1  0  0  0
 35 36  1  0  0  0
 36 31  1  0  0  0
 10 11  2  0  0  0
 10 12  1  0  0  0
 12 13  2  0  0  0
 13 14  1  0  0  0
 14 15  2  0  0  0
 15 16  1  0  0  0
 15 17  1  0  0  0
 17 18  2  0  0  0
 18 12  1  0  0  0
 18  7  1  0  0  0
M  CHG 1  31   1
M  END
> <minimizedAffinity>
-7.01401

> <CNNscore>
0.1012774408

> <CNNaffinity>
5.4812345505

> <CNN_VS>
0.5551254153

> <CNNaffinity_variance>
0.1685934961

$$$$



 37 42  0  0  0  0  0  0  0  0999 V2000
   -7.0332   -0.1946  -25.6457 C   0  0  0  0  0  0  0  0  0  0  0  0
   -6.3379    0.5919  -24.5385 C   0  0  0  0  0  0  0  0  0  0  0  0
   -6.5305    2.0386  -24.8670 C   0  0  0  0  0  0  0  0  0  0  0  0
   -7.4286    2.5621  -23.8732 N   0  0  0  0  0  0  0  0  0  0  0  0
   -7.7837    1.5295  -22.9684 C   0  0  0  0  0  0  0  0  0  0  0  0
   -8.7049    1.5741  -22.1032 O   0  0  0  0  0  0  0  0  0  0  0  0
   -6.8929    0.3315  -23.1769 C   0  0  0  0  0  0  0  0  0  0  0  0
   -7.7487   -0.8781  -23.0491 C   0  0  0  0  0  0  0  0  0  0  0  0
   -7.1939   -1.9813  -22.3302 N   0  0  0  0  0  0  0  0  0  0  0  0
   -6.1606   -1.8595  -21.3450 C   0  0  0  0  0  0  0  0  0  0  0  0
   -5.8568   -2.8090  -20.5722 O   0  0  0  0  0  0  0  0  0  0  0  0
   -5.4796   -0.5712  -21.2880 C   0  0  0  0  0  0  0  0  0  0  0  0
   -4.4806   -0.4417  -20.3313 C   0  0  0  0  0  0  0  0  0  0  0  0
   -3.7892    0.7442  -20.2036 C   0  0  0  0  0  0  0  0  0  0  0  0
   -4.1316    1.7732  -21.0547 C   0  0  0  0  0  0  0  0  0  0  0  0
   -3.2526    3.2830  -20.8929 Cl  0  0  0  0  0  0  0  0  0  0  0  0
   -5.1396    1.6341  -22.0160 C   0  0  0  0  0  0  0  0  0  0  0  0
   -5.8305    0.4488  -22.1437 C   0  0  0  0  0  0  0  0  0  0  0  0
   -7.8865    3.9065  -23.8154 C   0  0  0  0  0  0  0  0  0  0  0  0
   -7.2977    4.8794  -23.0367 C   0  0  0  0  0  0  0  0  0  0  0  0
   -7.7374    6.1450  -22.9893 N   0  0  0  0  0  0  0  0  0  0  0  0
   -8.7854    6.5281  -23.7077 C   0  0  0  0  0  0  0  0  0  0  0  0
   -9.4216    5.5954  -24.5117 C   0  0  0  0  0  0  0  0  0  0  0  0
  -10.5030    6.0425  -25.2366 C   0  0  0  0  0  0  0  0  0  0  0  0
  -11.1739    5.1541  -26.0543 C   0  0  0  0  0  0  0  0  0  0  0  0
  -10.7482    3.8471  -26.1260 C   0  0  0  0  0  0  0  0  0  0  0  0
   -9.6551    3.3964  -25.3929 C   0  0  0  0  0  0  0  0  0  0  0  0
   -8.9810    4.2854  -24.5723 C   0  0  0  0  0  0  0  0  0  0  0  0
   -7.6766   -3.3369  -22.5727 C   0  0  0  0  0  0  0  0  0  0  0  0
   -7.0535   -3.8373  -23.8211 C   0  0  0  0  0  0  0  0  0  0  0  0
   -6.0240   -4.8149  -23.6408 N   0  0  0  0  0  0  0  0  0  0  0  0
   -6.3950   -5.7436  -22.5810 C   0  0  0  0  0  0  0  0  0  0  0  0
   -5.1221   -6.5087  -22.2653 C   0  0  0  0  0  0  0  0  0  0  0  0
   -4.8128   -7.2651  -23.3978 O   0  0  0  0  0  0  0  0  0  0  0  0
   -4.5377   -6.4524  -24.4769 C   0  0  0  0  0  0  0  0  0  0  0  0
   -5.7578   -5.6140  -24.8133 C   0  0  0  0  0  0  0  0  0  0  0  0
   -5.1870   -4.2766  -23.4173 H   0  0  0  0  0  0  0  0  0  0  0  0
  2  1  1  0  0  0
  2  3  1  0  0  0
  3  4  1  0  0  0
  4 19  1  0  0  0
  4  5  1  0  0  0
 19 20  2  0  0  0
 20 21  1  0  0  0
 21 22  2  0  0  0
 22 23  1  0  0  0
 23 24  2  0  0  0
 24 25  1  0  0  0
 25 26  2  0  0  0
 26 27  1  0  0  0
 27 28  2  0  0  0
 28 19  1  0  0  0
 28 23  1  0  0  0
  5  6  2  0  0  0
  7  5  1  0  0  0
  7  8  1  0  0  0
  7  2  1  0  0  0
  8  9  1  0  0  0
  9 29  1  0  0  0
  9 10  1  0  0  0
 29 30  1  0  0  0
 30 31  1  0  0  0
 31 32  1  0  0  0
 31 37  1  0  0  0
 32 33  1  0  0  0
 33 34  1  0  0  0
 34 35  1  0  0  0
 35 36  1  0  0  0
 36 31  1  0  0  0
 10 11  2  0  0  0
 10 12  1  0  0  0
 12 13  2  0  0  0
 13 14  1  0  0  0
 14 15  2  0  0  0
 15 16  1  0  0  0
 15 17  1  0  0  0
 17 18  2  0  0  0
 18 12  1  0  0  0
 18  7  1  0  0  0
M  CHG 1  31   1
M  END
> <minimizedAffinity>
-6.47566

> <CNNscore>
0.1000894234

> <CNNaffinity>
5.6768732071

> <CNN_VS>
0.5681949854

> <CNNaffinity_variance>
0.1215702891

$$$$



 34 39  0  0  0  0  0  0  0  0999 V2000
   -7.6733    0.5620  -25.8219 C   0  0  0  0  0  0  0  0  0  0  0  0
   -7.3311    1.3698  -24.5740 C   0  0  0  0  0  0  0  0  0  0  0  0
   -8.4604    2.3475  -24.3930 C   0  0  0  0  0  0  0  0  0  0  0  0
   -9.3822    1.6018  -23.5555 N   0  0  0  0  0  0  0  0  0  0  0  0
   -8.5548    0.8961  -22.6375 C   0  0  0  0  0  0  0  0  0  0  0  0
   -8.8074    0.6331  -21.4221 O   0  0  0  0  0  0  0  0  0  0  0  0
   -7.2878    0.4925  -23.3472 C   0  0  0  0  0  0  0  0  0  0  0  0
   -7.4678   -0.9577  -23.6851 C   0  0  0  0  0  0  0  0  0  0  0  0
   -7.1546   -1.7858  -22.5457 N   0  0  0  0  0  0  0  0  0  0  0  0
   -6.0061   -1.5446  -21.7209 C   0  0  0  0  0  0  0  0  0  0  0  0
   -5.4788   -2.4435  -21.0214 O   0  0  0  0  0  0  0  0  0  0  0  0
   -5.4727   -0.1975  -21.7301 C   0  0  0  0  0  0  0  0  0  0  0  0
   -4.3662    0.0781  -20.9609 C   0  0  0  0  0  0  0  0  0  0  0  0
   -3.8309    1.3491  -20.9561 C   0  0  0  0  0  0  0  0  0  0  0  0
   -4.4373    2.3103  -21.7366 C   0  0  0  0  0  0  0  0  0  0  0  0
   -3.9062    3.5658  -21.7300 F   0  0  0  0  0  0  0  0  0  0  0  0
   -5.5486    2.0165  -22.5034 C   0  0  0  0  0  0  0  0  0  0  0  0
   -6.1081    0.7320  -22.5225 C   0  0  0  0  0  0  0  0  0  0  0  0
  -10.7927    1.5368  -23.5794 C   0  0  0  0  0  0  0  0  0  0  0  0
  -11.5113    0.3606  -23.5283 C   0  0  0  0  0  0  0  0  0  0  0  0
  -12.8583    0.4035  -23.5568 N   0  0  0  0  0  0  0  0  0  0  0  0
  -13.5305    1.5724  -23.6345 C   0  0  0  0  0  0  0  0  0  0  0  0
  -12.8694    2.7791  -23.6883 C   0  0  0  0  0  0  0  0  0  0  0  0
  -13.5553    3.9899  -23.7685 C   0  0  0  0  0  0  0  0  0  0  0  0
  -12.8570    5.1753  -23.8205 C   0  0  0  0  0  0  0  0  0  0  0  0
  -11.4788    5.1690  -23.7934 C   0  0  0  0  0  0  0  0  0  0  0  0
  -10.8156    3.9530  -23.7133 C   0  0  0  0  0  0  0  0  0  0  0  0
  -11.4803    2.7484  -23.6596 C   0  0  0  0  0  0  0  0  0  0  0  0
   -7.9866   -2.9333  -22.1697 C   0  0  0  0  0  0  0  0  0  0  0  0
   -9.1407   -3.1367  -23.0545 C   0  0  0  0  0  0  0  0  0  0  0  0
  -10.4780   -2.8017  -22.8089 C   0  0  0  0  0  0  0  0  0  0  0  0
  -11.1631   -3.1667  -23.8783 O   0  0  0  0  0  0  0  0  0  0  0  0
  -10.3559   -3.6963  -24.7560 C   0  0  0  0  0  0  0  0  0  0  0  0
   -9.0907   -3.7018  -24.2946 N   0  0  0  0  0  0  0  0  0  0  0  0
  2  1  1  0  0  0
  2  3  1  0  0  0
  3  4  1  0  0  0
  4 19  1  0  0  0
  4  5  1  0  0  0
 19 20  2  0  0  0
 20 21  1  0  0  0
 21 22  2  0  0  0
 22 23  1  0  0  0
 23 24  2  0  0  0
 24 25  1  0  0  0
 25 26  2  0  0  0
 26 27  1  0  0  0
 27 28  2  0  0  0
 28 19  1  0  0  0
 28 23  1  0  0  0
  5  6  2  0  0  0
  7  5  1  0  0  0
  7  8  1  0  0  0
  7  2  1  0  0  0
  8  9  1  0  0  0
  9 29  1  0  0  0
  9 10  1  0  0  0
 29 30  1  0  0  0
 30 31  2  0  0  0
 31 32  1  0  0  0
 32 33  1  0  0  0
 33 34  2  0  0  0
 34 30  1  0  0  0
 10 11  2  0  0  0
 10 12  1  0  0  0
 12 13  2  0  0  0
 13 14  1  0  0  0
 14 15  2  0  0  0
 15 16  1  0  0  0
 15 17  1  0  0  0
 17 18  2  0  0  0
 18 12  1  0  0  0
 18  7  1  0  0  0
M  END
> <minimizedAffinity>
-8.61244

> <CNNscore>
0.5875225663

> <CNNaffinity>
6.3027458191

> <CNN_VS>
3.7030053139

> <CNNaffinity_variance>
0.1616008580

$$$$



 34 39  0  0  0  0  0  0  0  0999 V2000
   -6.0146   -0.1083  -24.3259 C   0  0  0  0  0  0  0  0  0  0  0  0
   -6.5294   -1.4853  -23.9187 C   0  0  0  0  0  0  0  0  0  0  0  0
   -5.6919   -1.9075  -22.7422 C   0  0  0  0  0  0  0  0  0  0  0  0
   -6.4506   -1.3846  -21.6205 N   0  0  0  0  0  0  0  0  0  0  0  0
   -7.8137   -1.6010  -21.9670 C   0  0  0  0  0  0  0  0  0  0  0  0
   -8.7671   -1.8973  -21.1838 O   0  0  0  0  0  0  0  0  0  0  0  0
   -7.9641   -1.4200  -23.4559 C   0  0  0  0  0  0  0  0  0  0  0  0
   -8.5507   -0.0507  -23.6312 C   0  0  0  0  0  0  0  0  0  0  0  0
   -9.9804   -0.0840  -23.4388 N   0  0  0  0  0  0  0  0  0  0  0  0
  -10.8012   -1.1175  -24.0005 C   0  0  0  0  0  0  0  0  0  0  0  0
  -12.0275   -0.9604  -24.2166 O   0  0  0  0  0  0  0  0  0  0  0  0
  -10.1433   -2.3701  -24.3123 C   0  0  0  0  0  0  0  0  0  0  0  0
  -10.8893   -3.3873  -24.8609 C   0  0  0  0  0  0  0  0  0  0  0  0
  -10.2887   -4.5881  -25.1762 C   0  0  0  0  0  0  0  0  0  0  0  0
   -8.9401   -4.7237  -24.9243 C   0  0  0  0  0  0  0  0  0  0  0  0
   -8.3490   -5.9116  -25.2369 F   0  0  0  0  0  0  0  0  0  0  0  0
   -8.2054   -3.6917  -24.3724 C   0  0  0  0  0  0  0  0  0  0  0  0
   -8.7960   -2.4640  -24.0447 C   0  0  0  0  0  0  0  0  0  0  0  0
   -6.0126   -0.7831  -20.4202 C   0  0  0  0  0  0  0  0  0  0  0  0
   -6.6420   -0.9433  -19.2033 C   0  0  0  0  0  0  0  0  0  0  0  0
   -6.1454   -0.3260  -18.1125 N   0  0  0  0  0  0  0  0  0  0  0  0
   -5.0420    0.4502  -18.1759 C   0  0  0  0  0  0  0  0  0  0  0  0
   -4.3701    0.6483  -19.3614 C   0  0  0  0  0  0  0  0  0  0  0  0
   -3.2307    1.4477  -19.4356 C   0  0  0  0  0  0  0  0  0  0  0  0
   -2.5875    1.6206  -20.6406 C   0  0  0  0  0  0  0  0  0  0  0  0
   -3.0675    1.0046  -21.7765 C   0  0  0  0  0  0  0  0  0  0  0  0
   -4.2029    0.2131  -21.6808 C   0  0  0  0  0  0  0  0  0  0  0  0
   -4.8720    0.0174  -20.4934 C   0  0  0  0  0  0  0  0  0  0  0  0
  -10.6824    0.9462  -22.6665 C   0  0  0  0  0  0  0  0  0  0  0  0
  -11.1370    2.0815  -23.4793 C   0  0  0  0  0  0  0  0  0  0  0  0
  -12.4530    2.5098  -23.6927 C   0  0  0  0  0  0  0  0  0  0  0  0
  -12.3850    3.5636  -24.4870 O   0  0  0  0  0  0  0  0  0  0  0  0
  -11.1377    3.8145  -24.7760 C   0  0  0  0  0  0  0  0  0  0  0  0
  -10.3234    2.9249  -24.1765 N   0  0  0  0  0  0  0  0  0  0  0  0
  2  1  1  0  0  0
  2  3  1  0  0  0
  3  4  1  0  0  0
  4 19  1  0  0  0
  4  5  1  0  0  0
 19 20  2  0  0  0
 20 21  1  0  0  0
 21 22  2  0  0  0
 22 23  1  0  0  0
 23 24  2  0  0  0
 24 25  1  0  0  0
 25 26  2  0  0  0
 26 27  1  0  0  0
 27 28  2  0  0  0
 28 19  1  0  0  0
 28 23  1  0  0  0
  5  6  2  0  0  0
  7  5  1  0  0  0
  7  8  1  0  0  0
  7  2  1  0  0  0
  8  9  1  0  0  0
  9 29  1  0  0  0
  9 10  1  0  0  0
 29 30  1  0  0  0
 30 31  2  0  0  0
 31 32  1  0  0  0
 32 33  1  0  0  0
 33 34  2  0  0  0
 34 30  1  0  0  0
 10 11  2  0  0  0
 10 12  1  0  0  0
 12 13  2  0  0  0
 13 14  1  0  0  0
 14 15  2  0  0  0
 15 16  1  0  0  0
 15 17  1  0  0  0
 17 18  2  0  0  0
 18 12  1  0  0  0
 18  7  1  0  0  0
M  END
> <minimizedAffinity>
-9.03509

> <CNNscore>
0.2631755173

> <CNNaffinity>
5.9599905014

> <CNN_VS>
1.5685235262

> <CNNaffinity_variance>
0.2063806057

$$$$



 34 39  0  0  0  0  0  0  0  0999 V2000
   -6.4520    0.1225  -26.0738 C   0  0  0  0  0  0  0  0  0  0  0  0
   -6.6104    1.4042  -25.2619 C   0  0  0  0  0  0  0  0  0  0  0  0
   -8.0857    1.6991  -25.2403 C   0  0  0  0  0  0  0  0  0  0  0  0
   -8.5239    0.9911  -24.0512 N   0  0  0  0  0  0  0  0  0  0  0  0
   -7.4822    1.1885  -23.1020 C   0  0  0  0  0  0  0  0  0  0  0  0
   -7.6038    1.3284  -21.8467 O   0  0  0  0  0  0  0  0  0  0  0  0
   -6.1646    1.2079  -23.8339 C   0  0  0  0  0  0  0  0  0  0  0  0
   -5.5681   -0.1503  -23.6117 C   0  0  0  0  0  0  0  0  0  0  0  0
   -4.9127   -0.2116  -22.3277 N   0  0  0  0  0  0  0  0  0  0  0  0
   -4.0754    0.8497  -21.8479 C   0  0  0  0  0  0  0  0  0  0  0  0
   -3.1859    0.6661  -20.9816 O   0  0  0  0  0  0  0  0  0  0  0  0
   -4.3045    2.1630  -22.4150 C   0  0  0  0  0  0  0  0  0  0  0  0
   -3.5192    3.2097  -21.9912 C   0  0  0  0  0  0  0  0  0  0  0  0
   -3.7082    4.4696  -22.5193 C   0  0  0  0  0  0  0  0  0  0  0  0
   -4.6949    4.6328  -23.4682 C   0  0  0  0  0  0  0  0  0  0  0  0
   -4.8798    5.8791  -23.9887 F   0  0  0  0  0  0  0  0  0  0  0  0
   -5.4753    3.5704  -23.8827 C   0  0  0  0  0  0  0  0  0  0  0  0
   -5.2997    2.2827  -23.3590 C   0  0  0  0  0  0  0  0  0  0  0  0
   -9.7020    0.2511  -23.8086 C   0  0  0  0  0  0  0  0  0  0  0  0
   -9.7339   -1.1194  -23.6561 C   0  0  0  0  0  0  0  0  0  0  0  0
  -10.9111   -1.7349  -23.4270 N   0  0  0  0  0  0  0  0  0  0  0  0
  -12.0690   -1.0448  -23.3416 C   0  0  0  0  0  0  0  0  0  0  0  0
  -12.1015    0.3243  -23.4850 C   0  0  0  0  0  0  0  0  0  0  0  0
  -13.2920    1.0442  -23.3984 C   0  0  0  0  0  0  0  0  0  0  0  0
  -13.2820    2.4129  -23.5477 C   0  0  0  0  0  0  0  0  0  0  0  0
  -12.0962    3.0753  -23.7831 C   0  0  0  0  0  0  0  0  0  0  0  0
  -10.9227    2.3399  -23.8657 C   0  0  0  0  0  0  0  0  0  0  0  0
  -10.8943    0.9708  -23.7216 C   0  0  0  0  0  0  0  0  0  0  0  0
   -5.0539   -1.3705  -21.4402 C   0  0  0  0  0  0  0  0  0  0  0  0
   -5.7652   -1.0703  -20.1912 C   0  0  0  0  0  0  0  0  0  0  0  0
   -7.1340   -1.2091  -19.9303 C   0  0  0  0  0  0  0  0  0  0  0  0
   -7.3232   -0.8226  -18.6809 O   0  0  0  0  0  0  0  0  0  0  0  0
   -6.1845   -0.4596  -18.1575 C   0  0  0  0  0  0  0  0  0  0  0  0
   -5.1867   -0.5939  -19.0519 N   0  0  0  0  0  0  0  0  0  0  0  0
  2  1  1  0  0  0
  2  3  1  0  0  0
  3  4  1  0  0  0
  4 19  1  0  0  0
  4  5  1  0  0  0
 19 20  2  0  0  0
 20 21  1  0  0  0
 21 22  2  0  0  0
 22 23  1  0  0  0
 23 24  2  0  0  0
 24 25  1  0  0  0
 25 26  2  0  0  0
 26 27  1  0  0  0
 27 28  2  0  0  0
 28 19  1  0  0  0
 28 23  1  0  0  0
  5  6  2  0  0  0
  7  5  1  0  0  0
  7  8  1  0  0  0
  7  2  1  0  0  0
  8  9  1  0  0  0
  9 29  1  0  0  0
  9 10  1  0  0  0
 29 30  1  0  0  0
 30 31  2  0  0  0
 31 32  1  0  0  0
 32 33  1  0  0  0
 33 34  2  0  0  0
 34 30  1  0  0  0
 10 11  2  0  0  0
 10 12  1  0  0  0
 12 13  2  0  0  0
 13 14  1  0  0  0
 14 15  2  0  0  0
 15 16  1  0  0  0
 15 17  1  0  0  0
 17 18  2  0  0  0
 18 12  1  0  0  0
 18  7  1  0  0  0
M  END
> <minimizedAffinity>
-8.04956

> <CNNscore>
0.2571073771

> <CNNaffinity>
5.7095389366

> <CNN_VS>
1.4679645300

> <CNNaffinity_variance>
0.2682223320

$$$$



 34 39  0  0  0  0  0  0  0  0999 V2000
   -6.8204   -0.9058  -25.1824 C   0  0  0  0  0  0  0  0  0  0  0  0
   -7.8233   -1.2614  -24.0895 C   0  0  0  0  0  0  0  0  0  0  0  0
   -7.0065   -1.7372  -22.9188 C   0  0  0  0  0  0  0  0  0  0  0  0
   -6.7718   -0.5060  -22.1864 N   0  0  0  0  0  0  0  0  0  0  0  0
   -7.9928    0.2182  -22.2856 C   0  0  0  0  0  0  0  0  0  0  0  0
   -8.5137    0.9689  -21.4052 O   0  0  0  0  0  0  0  0  0  0  0  0
   -8.5986   -0.0475  -23.6400 C   0  0  0  0  0  0  0  0  0  0  0  0
   -8.2752    1.1639  -24.4632 C   0  0  0  0  0  0  0  0  0  0  0  0
   -9.2153    2.2249  -24.1936 N   0  0  0  0  0  0  0  0  0  0  0  0
  -10.6253    1.9849  -24.0862 C   0  0  0  0  0  0  0  0  0  0  0  0
  -11.4780    2.8861  -24.2762 O   0  0  0  0  0  0  0  0  0  0  0  0
  -11.0291    0.6363  -23.7434 C   0  0  0  0  0  0  0  0  0  0  0  0
  -12.3719    0.3574  -23.6380 C   0  0  0  0  0  0  0  0  0  0  0  0
  -12.7866   -0.9192  -23.3215 C   0  0  0  0  0  0  0  0  0  0  0  0
  -11.8213   -1.8825  -23.1196 C   0  0  0  0  0  0  0  0  0  0  0  0
  -12.2339   -3.1436  -22.8069 F   0  0  0  0  0  0  0  0  0  0  0  0
  -10.4763   -1.5853  -23.2292 C   0  0  0  0  0  0  0  0  0  0  0  0
  -10.0337   -0.2950  -23.5497 C   0  0  0  0  0  0  0  0  0  0  0  0
   -5.6228   -0.0534  -21.5014 C   0  0  0  0  0  0  0  0  0  0  0  0
   -5.4874   -0.0688  -20.1288 C   0  0  0  0  0  0  0  0  0  0  0  0
   -4.3488    0.3861  -19.5687 N   0  0  0  0  0  0  0  0  0  0  0  0
   -3.3289    0.8599  -20.3167 C   0  0  0  0  0  0  0  0  0  0  0  0
   -3.4044    0.9008  -21.6909 C   0  0  0  0  0  0  0  0  0  0  0  0
   -2.3566    1.3883  -22.4703 C   0  0  0  0  0  0  0  0  0  0  0  0
   -2.4715    1.4123  -23.8421 C   0  0  0  0  0  0  0  0  0  0  0  0
   -3.6217    0.9551  -24.4489 C   0  0  0  0  0  0  0  0  0  0  0  0
   -4.6526    0.4741  -23.6548 C   0  0  0  0  0  0  0  0  0  0  0  0
   -4.5732    0.4347  -22.2808 C   0  0  0  0  0  0  0  0  0  0  0  0
   -8.7854    3.6169  -24.0255 C   0  0  0  0  0  0  0  0  0  0  0  0
   -7.3806    3.7526  -23.6200 C   0  0  0  0  0  0  0  0  0  0  0  0
   -6.2651    3.9409  -24.4452 C   0  0  0  0  0  0  0  0  0  0  0  0
   -5.2119    4.0082  -23.6500 O   0  0  0  0  0  0  0  0  0  0  0  0
   -5.5912    3.8768  -22.4086 C   0  0  0  0  0  0  0  0  0  0  0  0
   -6.9262    3.7155  -22.3348 N   0  0  0  0  0  0  0  0  0  0  0  0
  2  1  1  0  0  0
  2  3  1  0  0  0
  3  4  1  0  0  0
  4 19  1  0  0  0
  4  5  1  0  0  0
 19 20  2  0  0  0
 20 21  1  0  0  0
 21 22  2  0  0  0
 22 23  1  0  0  0
 23 24  2  0  0  0
 24 25  1  0  0  0
 25 26  2  0  0  0
 26 27  1  0  0  0
 27 28  2  0  0  0
 28 19  1  0  0  0
 28 23  1  0  0  0
  5  6  2  0  0  0
  7  5  1  0  0  0
  7  8  1  0  0  0
  7  2  1  0  0  0
  8  9  1  0  0  0
  9 29  1  0  0  0
  9 10  1  0  0  0
 29 30  1  0  0  0
 30 31  2  0  0  0
 31 32  1  0  0  0
 32 33  1  0  0  0
 33 34  2  0  0  0
 34 30  1  0  0  0
 10 11  2  0  0  0
 10 12  1  0  0  0
 12 13  2  0  0  0
 13 14  1  0  0  0
 14 15  2  0  0  0
 15 16  1  0  0  0
 15 17  1  0  0  0
 17 18  2  0  0  0
 18 12  1  0  0  0
 18  7  1  0  0  0
M  END
> <minimizedAffinity>
-7.42033

> <CNNscore>
0.2481682152

> <CNNaffinity>
5.8872804642

> <CNN_VS>
1.4610358477

> <CNNaffinity_variance>
0.0980076045

$$$$



 34 39  0  0  0  0  0  0  0  0999 V2000
   -9.9251   -1.5671  -23.0544 C   0  0  0  0  0  0  0  0  0  0  0  0
   -9.2179   -2.6629  -23.8457 C   0  0  0  0  0  0  0  0  0  0  0  0
   -9.1658   -2.1761  -25.2685 C   0  0  0  0  0  0  0  0  0  0  0  0
   -7.9061   -1.4554  -25.3014 N   0  0  0  0  0  0  0  0  0  0  0  0
   -7.0164   -2.2356  -24.5110 C   0  0  0  0  0  0  0  0  0  0  0  0
   -5.7735   -2.4090  -24.6991 O   0  0  0  0  0  0  0  0  0  0  0  0
   -7.7961   -2.8485  -23.3759 C   0  0  0  0  0  0  0  0  0  0  0  0
   -7.4836   -2.0016  -22.1780 C   0  0  0  0  0  0  0  0  0  0  0  0
   -6.2243   -2.3956  -21.5940 N   0  0  0  0  0  0  0  0  0  0  0  0
   -5.8666   -3.7726  -21.4111 C   0  0  0  0  0  0  0  0  0  0  0  0
   -5.0220   -4.1413  -20.5590 O   0  0  0  0  0  0  0  0  0  0  0  0
   -6.5327   -4.7344  -22.2658 C   0  0  0  0  0  0  0  0  0  0  0  0
   -6.2275   -6.0677  -22.1198 C   0  0  0  0  0  0  0  0  0  0  0  0
   -6.8517   -7.0072  -22.9133 C   0  0  0  0  0  0  0  0  0  0  0  0
   -7.7734   -6.5646  -23.8382 C   0  0  0  0  0  0  0  0  0  0  0  0
   -8.3890   -7.4953  -24.6212 F   0  0  0  0  0  0  0  0  0  0  0  0
   -8.0681   -5.2212  -23.9719 C   0  0  0  0  0  0  0  0  0  0  0  0
   -7.4454   -4.2506  -23.1760 C   0  0  0  0  0  0  0  0  0  0  0  0
   -7.5585   -0.2488  -25.9478 C   0  0  0  0  0  0  0  0  0  0  0  0
   -7.2995   -0.1446  -27.2985 C   0  0  0  0  0  0  0  0  0  0  0  0
   -6.9751    1.0545  -27.8220 N   0  0  0  0  0  0  0  0  0  0  0  0
   -6.8956    2.1654  -27.0578 C   0  0  0  0  0  0  0  0  0  0  0  0
   -7.1430    2.1252  -25.7039 C   0  0  0  0  0  0  0  0  0  0  0  0
   -7.0631    3.2667  -24.9080 C   0  0  0  0  0  0  0  0  0  0  0  0
   -7.3179    3.1844  -23.5575 C   0  0  0  0  0  0  0  0  0  0  0  0
   -7.6524    1.9743  -22.9883 C   0  0  0  0  0  0  0  0  0  0  0  0
   -7.7264    0.8503  -23.7982 C   0  0  0  0  0  0  0  0  0  0  0  0
   -7.4784    0.8946  -25.1519 C   0  0  0  0  0  0  0  0  0  0  0  0
   -5.2384   -1.4095  -21.1401 C   0  0  0  0  0  0  0  0  0  0  0  0
   -5.5441   -0.8372  -19.8228 C   0  0  0  0  0  0  0  0  0  0  0  0
   -6.7214   -0.9814  -19.0784 C   0  0  0  0  0  0  0  0  0  0  0  0
   -6.5505   -0.2960  -17.9616 O   0  0  0  0  0  0  0  0  0  0  0  0
   -5.3675    0.2543  -17.9621 C   0  0  0  0  0  0  0  0  0  0  0  0
   -4.7030   -0.0500  -19.0932 N   0  0  0  0  0  0  0  0  0  0  0  0
  2  1  1  0  0  0
  2  3  1  0  0  0
  3  4  1  0  0  0
  4 19  1  0  0  0
  4  5  1  0  0  0
 19 20  2  0  0  0
 20 21  1  0  0  0
 21 22  2  0  0  0
 22 23  1  0  0  0
 23 24  2  0  0  0
 24 25  1  0  0  0
 25 26  2  0  0  0
 26 27  1  0  0  0
 27 28  2  0  0  0
 28 19  1  0  0  0
 28 23  1  0  0  0
  5  6  2  0  0  0
  7  5  1  0  0  0
  7  8  1  0  0  0
  7  2  1  0  0  0
  8  9  1  0  0  0
  9 29  1  0  0  0
  9 10  1  0  0  0
 29 30  1  0  0  0
 30 31  2  0  0  0
 31 32  1  0  0  0
 32 33  1  0  0  0
 33 34  2  0  0  0
 34 30  1  0  0  0
 10 11  2  0  0  0
 10 12  1  0  0  0
 12 13  2  0  0  0
 13 14  1  0  0  0
 14 15  2  0  0  0
 15 16  1  0  0  0
 15 17  1  0  0  0
 17 18  2  0  0  0
 18 12  1  0  0  0
 18  7  1  0  0  0
M  END
> <minimizedAffinity>
-7.41639

> <CNNscore>
0.2418363690

> <CNNaffinity>
5.8368172646

> <CNN_VS>
1.4115546942

> <CNNaffinity_variance>
0.3791440129

$$$$



 34 39  0  0  0  0  0  0  0  0999 V2000
   -7.6943   -0.3343  -25.7480 C   0  0  0  0  0  0  0  0  0  0  0  0
   -8.4917   -0.8071  -24.5366 C   0  0  0  0  0  0  0  0  0  0  0  0
   -7.4738   -1.2137  -23.5058 C   0  0  0  0  0  0  0  0  0  0  0  0
   -7.2615    0.0242  -22.7778 N   0  0  0  0  0  0  0  0  0  0  0  0
   -8.5502    0.6205  -22.6845 C   0  0  0  0  0  0  0  0  0  0  0  0
   -9.0132    1.3007  -21.7185 O   0  0  0  0  0  0  0  0  0  0  0  0
   -9.3124    0.3139  -23.9483 C   0  0  0  0  0  0  0  0  0  0  0  0
   -9.2313    1.5642  -24.7729 C   0  0  0  0  0  0  0  0  0  0  0  0
  -10.2246    2.5189  -24.3441 N   0  0  0  0  0  0  0  0  0  0  0  0
  -11.5742    2.1337  -24.0479 C   0  0  0  0  0  0  0  0  0  0  0  0
  -12.5307    2.9453  -24.0908 O   0  0  0  0  0  0  0  0  0  0  0  0
  -11.7889    0.7460  -23.6915 C   0  0  0  0  0  0  0  0  0  0  0  0
  -13.0686    0.3291  -23.4079 C   0  0  0  0  0  0  0  0  0  0  0  0
  -13.3051   -0.9879  -23.0738 C   0  0  0  0  0  0  0  0  0  0  0  0
  -12.2297   -1.8499  -23.0367 C   0  0  0  0  0  0  0  0  0  0  0  0
  -12.4662   -3.1511  -22.7063 F   0  0  0  0  0  0  0  0  0  0  0  0
  -10.9503   -1.4145  -23.3243 C   0  0  0  0  0  0  0  0  0  0  0  0
  -10.6884   -0.0809  -23.6657 C   0  0  0  0  0  0  0  0  0  0  0  0
   -6.0778    0.5823  -22.2470 C   0  0  0  0  0  0  0  0  0  0  0  0
   -5.1912    1.3467  -22.9767 C   0  0  0  0  0  0  0  0  0  0  0  0
   -4.0869    1.8357  -22.3780 N   0  0  0  0  0  0  0  0  0  0  0  0
   -3.8204    1.5980  -21.0754 C   0  0  0  0  0  0  0  0  0  0  0  0
   -4.6670    0.8426  -20.2952 C   0  0  0  0  0  0  0  0  0  0  0  0
   -4.3996    0.5925  -18.9502 C   0  0  0  0  0  0  0  0  0  0  0  0
   -5.2716   -0.1681  -18.2042 C   0  0  0  0  0  0  0  0  0  0  0  0
   -6.4108   -0.6842  -18.7838 C   0  0  0  0  0  0  0  0  0  0  0  0
   -6.6582   -0.4234  -20.1238 C   0  0  0  0  0  0  0  0  0  0  0  0
   -5.8092    0.3326  -20.9007 C   0  0  0  0  0  0  0  0  0  0  0  0
   -9.9161    3.9451  -24.1972 C   0  0  0  0  0  0  0  0  0  0  0  0
   -8.4775    4.2392  -24.2135 C   0  0  0  0  0  0  0  0  0  0  0  0
   -7.5913    4.2417  -23.1292 C   0  0  0  0  0  0  0  0  0  0  0  0
   -6.4031    4.5611  -23.6111 O   0  0  0  0  0  0  0  0  0  0  0  0
   -6.4899    4.7535  -24.8987 C   0  0  0  0  0  0  0  0  0  0  0  0
   -7.7545    4.5665  -25.3224 N   0  0  0  0  0  0  0  0  0  0  0  0
  2  1  1  0  0  0
  2  3  1  0  0  0
  3  4  1  0  0  0
  4 19  1  0  0  0
  4  5  1  0  0  0
 19 20  2  0  0  0
 20 21  1  0  0  0
 21 22  2  0  0  0
 22 23  1  0  0  0
 23 24  2  0  0  0
 24 25  1  0  0  0
 25 26  2  0  0  0
 26 27  1  0  0  0
 27 28  2  0  0  0
 28 19  1  0  0  0
 28 23  1  0  0  0
  5  6  2  0  0  0
  7  5  1  0  0  0
  7  8  1  0  0  0
  7  2  1  0  0  0
  8  9  1  0  0  0
  9 29  1  0  0  0
  9 10  1  0  0  0
 29 30  1  0  0  0
 30 31  2  0  0  0
 31 32  1  0  0  0
 32 33  1  0  0  0
 33 34  2  0  0  0
 34 30  1  0  0  0
 10 11  2  0  0  0
 10 12  1  0  0  0
 12 13  2  0  0  0
 13 14  1  0  0  0
 14 15  2  0  0  0
 15 16  1  0  0  0
 15 17  1  0  0  0
 17 18  2  0  0  0
 18 12  1  0  0  0
 18  7  1  0  0  0
M  END
> <minimizedAffinity>
-8.58069

> <CNNscore>
0.2404456437

> <CNNaffinity>
5.8811311722

> <CNN_VS>
1.4140924215

> <CNNaffinity_variance>
0.2115722597

$$$$



 34 39  0  0  0  0  0  0  0  0999 V2000
   -7.3729   -0.6154  -25.5169 C   0  0  0  0  0  0  0  0  0  0  0  0
   -8.2575   -1.0577  -24.3555 C   0  0  0  0  0  0  0  0  0  0  0  0
   -7.3196   -1.5484  -23.2861 C   0  0  0  0  0  0  0  0  0  0  0  0
   -7.0645   -0.3407  -22.5223 N   0  0  0  0  0  0  0  0  0  0  0  0
   -8.3154    0.3364  -22.4780 C   0  0  0  0  0  0  0  0  0  0  0  0
   -8.7808    1.0273  -21.5208 O   0  0  0  0  0  0  0  0  0  0  0  0
   -9.0327    0.1033  -23.7830 C   0  0  0  0  0  0  0  0  0  0  0  0
   -8.8313    1.3607  -24.5757 C   0  0  0  0  0  0  0  0  0  0  0  0
   -9.7813    2.3699  -24.1744 N   0  0  0  0  0  0  0  0  0  0  0  0
  -11.1657    2.0678  -23.9515 C   0  0  0  0  0  0  0  0  0  0  0  0
  -12.0650    2.9405  -24.0226 O   0  0  0  0  0  0  0  0  0  0  0  0
  -11.4860    0.6906  -23.6358 C   0  0  0  0  0  0  0  0  0  0  0  0
  -12.8022    0.3526  -23.4227 C   0  0  0  0  0  0  0  0  0  0  0  0
  -13.1387   -0.9521  -23.1288 C   0  0  0  0  0  0  0  0  0  0  0  0
  -12.1238   -1.8827  -23.0589 C   0  0  0  0  0  0  0  0  0  0  0  0
  -12.4590   -3.1717  -22.7683 F   0  0  0  0  0  0  0  0  0  0  0  0
  -10.8065   -1.5261  -23.2755 C   0  0  0  0  0  0  0  0  0  0  0  0
  -10.4433   -0.2064  -23.5752 C   0  0  0  0  0  0  0  0  0  0  0  0
   -5.8750    0.1295  -21.9236 C   0  0  0  0  0  0  0  0  0  0  0  0
   -5.2376   -0.5016  -20.8758 C   0  0  0  0  0  0  0  0  0  0  0  0
   -4.1045    0.0274  -20.3723 N   0  0  0  0  0  0  0  0  0  0  0  0
   -3.5706    1.1651  -20.8667 C   0  0  0  0  0  0  0  0  0  0  0  0
   -4.1603    1.8405  -21.9117 C   0  0  0  0  0  0  0  0  0  0  0  0
   -3.6160    3.0153  -22.4280 C   0  0  0  0  0  0  0  0  0  0  0  0
   -4.2366    3.6608  -23.4738 C   0  0  0  0  0  0  0  0  0  0  0  0
   -5.3969    3.1484  -24.0134 C   0  0  0  0  0  0  0  0  0  0  0  0
   -5.9220    1.9780  -23.4848 C   0  0  0  0  0  0  0  0  0  0  0  0
   -5.3292    1.3054  -22.4398 C   0  0  0  0  0  0  0  0  0  0  0  0
   -9.3896    3.7700  -23.9822 C   0  0  0  0  0  0  0  0  0  0  0  0
   -9.2635    4.5218  -25.2372 C   0  0  0  0  0  0  0  0  0  0  0  0
   -8.1281    4.6543  -26.0460 C   0  0  0  0  0  0  0  0  0  0  0  0
   -8.4767    5.4169  -27.0674 O   0  0  0  0  0  0  0  0  0  0  0  0
   -9.7297    5.7607  -26.9497 C   0  0  0  0  0  0  0  0  0  0  0  0
  -10.2640    5.2322  -25.8321 N   0  0  0  0  0  0  0  0  0  0  0  0
  2  1  1  0  0  0
  2  3  1  0  0  0
  3  4  1  0  0  0
  4 19  1  0  0  0
  4  5  1  0  0  0
 19 20  2  0  0  0
 20 21  1  0  0  0
 21 22  2  0  0  0
 22 23  1  0  0  0
 23 24  2  0  0  0
 24 25  1  0  0  0
 25 26  2  0  0  0
 26 27  1  0  0  0
 27 28  2  0  0  0
 28 19  1  0  0  0
 28 23  1  0  0  0
  5  6  2  0  0  0
  7  5  1  0  0  0
  7  8  1  0  0  0
  7  2  1  0  0  0
  8  9  1  0  0  0
  9 29  1  0  0  0
  9 10  1  0  0  0
 29 30  1  0  0  0
 30 31  2  0  0  0
 31 32  1  0  0  0
 32 33  1  0  0  0
 33 34  2  0  0  0
 34 30  1  0  0  0
 10 11  2  0  0  0
 10 12  1  0  0  0
 12 13  2  0  0  0
 13 14  1  0  0  0
 14 15  2  0  0  0
 15 16  1  0  0  0
 15 17  1  0  0  0
 17 18  2  0  0  0
 18 12  1  0  0  0
 18  7  1  0  0  0
M  END
> <minimizedAffinity>
-7.27198

> <CNNscore>
0.2150340378

> <CNNaffinity>
5.7759251595

> <CNN_VS>
1.2420204878

> <CNNaffinity_variance>
0.1463005096

$$$$



 34 39  0  0  0  0  0  0  0  0999 V2000
   -6.1626   -1.1808  -22.5417 C   0  0  0  0  0  0  0  0  0  0  0  0
   -6.6206   -2.5633  -22.0881 C   0  0  0  0  0  0  0  0  0  0  0  0
   -7.9550   -2.3584  -21.4237 C   0  0  0  0  0  0  0  0  0  0  0  0
   -8.8781   -2.5089  -22.5338 N   0  0  0  0  0  0  0  0  0  0  0  0
   -8.3385   -3.5662  -23.3187 C   0  0  0  0  0  0  0  0  0  0  0  0
   -8.9825   -4.4465  -23.9673 O   0  0  0  0  0  0  0  0  0  0  0  0
   -6.8345   -3.4839  -23.2642 C   0  0  0  0  0  0  0  0  0  0  0  0
   -6.4255   -2.8473  -24.5594 C   0  0  0  0  0  0  0  0  0  0  0  0
   -6.3850   -3.8295  -25.6157 N   0  0  0  0  0  0  0  0  0  0  0  0
   -5.8070   -5.1286  -25.4267 C   0  0  0  0  0  0  0  0  0  0  0  0
   -5.3791   -5.8205  -26.3825 O   0  0  0  0  0  0  0  0  0  0  0  0
   -5.7375   -5.6152  -24.0639 C   0  0  0  0  0  0  0  0  0  0  0  0
   -5.1829   -6.8527  -23.8337 C   0  0  0  0  0  0  0  0  0  0  0  0
   -5.0953   -7.3387  -22.5460 C   0  0  0  0  0  0  0  0  0  0  0  0
   -5.5760   -6.5506  -21.5221 C   0  0  0  0  0  0  0  0  0  0  0  0
   -5.4882   -7.0333  -20.2503 F   0  0  0  0  0  0  0  0  0  0  0  0
   -6.1305   -5.3096  -21.7709 C   0  0  0  0  0  0  0  0  0  0  0  0
   -6.2291   -4.7973  -23.0714 C   0  0  0  0  0  0  0  0  0  0  0  0
  -10.0651   -1.8071  -22.8388 C   0  0  0  0  0  0  0  0  0  0  0  0
  -11.3326   -2.3167  -22.6481 C   0  0  0  0  0  0  0  0  0  0  0  0
  -12.4053   -1.5669  -22.9711 N   0  0  0  0  0  0  0  0  0  0  0  0
  -12.2752   -0.3224  -23.4795 C   0  0  0  0  0  0  0  0  0  0  0  0
  -11.0370    0.2409  -23.6925 C   0  0  0  0  0  0  0  0  0  0  0  0
  -10.8938    1.5245  -24.2167 C   0  0  0  0  0  0  0  0  0  0  0  0
   -9.6375    2.0518  -24.4148 C   0  0  0  0  0  0  0  0  0  0  0  0
   -8.5182    1.3132  -24.0958 C   0  0  0  0  0  0  0  0  0  0  0  0
   -8.6828    0.0377  -23.5752 C   0  0  0  0  0  0  0  0  0  0  0  0
   -9.9229   -0.5220  -23.3636 C   0  0  0  0  0  0  0  0  0  0  0  0
   -6.9221   -3.5529  -26.9519 C   0  0  0  0  0  0  0  0  0  0  0  0
   -8.0816   -4.3832  -27.3020 C   0  0  0  0  0  0  0  0  0  0  0  0
   -9.4259   -4.1557  -26.9826 C   0  0  0  0  0  0  0  0  0  0  0  0
  -10.1138   -5.1579  -27.5009 O   0  0  0  0  0  0  0  0  0  0  0  0
   -9.3020   -5.9778  -28.1099 C   0  0  0  0  0  0  0  0  0  0  0  0
   -8.0305   -5.5438  -28.0162 N   0  0  0  0  0  0  0  0  0  0  0  0
  2  1  1  0  0  0
  2  3  1  0  0  0
  3  4  1  0  0  0
  4 19  1  0  0  0
  4  5  1  0  0  0
 19 20  2  0  0  0
 20 21  1  0  0  0
 21 22  2  0  0  0
 22 23  1  0  0  0
 23 24  2  0  0  0
 24 25  1  0  0  0
 25 26  2  0  0  0
 26 27  1  0  0  0
 27 28  2  0  0  0
 28 19  1  0  0  0
 28 23  1  0  0  0
  5  6  2  0  0  0
  7  5  1  0  0  0
  7  8  1  0  0  0
  7  2  1  0  0  0
  8  9  1  0  0  0
  9 29  1  0  0  0
  9 10  1  0  0  0
 29 30  1  0  0  0
 30 31  2  0  0  0
 31 32  1  0  0  0
 32 33  1  0  0  0
 33 34  2  0  0  0
 34 30  1  0  0  0
 10 11  2  0  0  0
 10 12  1  0  0  0
 12 13  2  0  0  0
 13 14  1  0  0  0
 14 15  2  0  0  0
 15 16  1  0  0  0
 15 17  1  0  0  0
 17 18  2  0  0  0
 18 12  1  0  0  0
 18  7  1  0  0  0
M  END
> <minimizedAffinity>
-7.75807

> <CNNscore>
0.1995094717

> <CNNaffinity>
5.8700494766

> <CNN_VS>
1.1711304188

> <CNNaffinity_variance>
0.3925500512

$$$$



 34 39  0  0  0  0  0  0  0  0999 V2000
   -7.4210   -1.1277  -22.5402 C   0  0  0  0  0  0  0  0  0  0  0  0
   -8.0764   -2.4866  -22.7653 C   0  0  0  0  0  0  0  0  0  0  0  0
   -9.4609   -2.3778  -22.1860 C   0  0  0  0  0  0  0  0  0  0  0  0
  -10.2342   -1.9103  -23.3221 N   0  0  0  0  0  0  0  0  0  0  0  0
   -9.7042   -2.6125  -24.4405 C   0  0  0  0  0  0  0  0  0  0  0  0
  -10.3406   -3.0338  -25.4543 O   0  0  0  0  0  0  0  0  0  0  0  0
   -8.2212   -2.7891  -24.2364 C   0  0  0  0  0  0  0  0  0  0  0  0
   -7.5758   -1.7407  -25.0932 C   0  0  0  0  0  0  0  0  0  0  0  0
   -7.4927   -2.1869  -26.4629 N   0  0  0  0  0  0  0  0  0  0  0  0
   -7.0827   -3.5176  -26.8074 C   0  0  0  0  0  0  0  0  0  0  0  0
   -6.6017   -3.8041  -27.9308 O   0  0  0  0  0  0  0  0  0  0  0  0
   -7.2505   -4.5323  -25.7870 C   0  0  0  0  0  0  0  0  0  0  0  0
   -6.8627   -5.8213  -26.0698 C   0  0  0  0  0  0  0  0  0  0  0  0
   -7.0023   -6.8069  -25.1152 C   0  0  0  0  0  0  0  0  0  0  0  0
   -7.5348   -6.4544  -23.8934 C   0  0  0  0  0  0  0  0  0  0  0  0
   -7.6717   -7.4305  -22.9516 F   0  0  0  0  0  0  0  0  0  0  0  0
   -7.9195   -5.1545  -23.6258 C   0  0  0  0  0  0  0  0  0  0  0  0
   -7.7863   -4.1384  -24.5814 C   0  0  0  0  0  0  0  0  0  0  0  0
  -11.2899   -0.9745  -23.3879 C   0  0  0  0  0  0  0  0  0  0  0  0
  -12.6224   -1.3048  -23.2541 C   0  0  0  0  0  0  0  0  0  0  0  0
  -13.5575   -0.3370  -23.3323 N   0  0  0  0  0  0  0  0  0  0  0  0
  -13.2264    0.9559  -23.5391 C   0  0  0  0  0  0  0  0  0  0  0  0
  -11.9140    1.3477  -23.6804 C   0  0  0  0  0  0  0  0  0  0  0  0
  -11.5636    2.6798  -23.8941 C   0  0  0  0  0  0  0  0  0  0  0  0
  -10.2393    3.0307  -24.0303 C   0  0  0  0  0  0  0  0  0  0  0  0
   -9.2563    2.0671  -23.9559 C   0  0  0  0  0  0  0  0  0  0  0  0
   -9.6265    0.7471  -23.7426 C   0  0  0  0  0  0  0  0  0  0  0  0
  -10.9402    0.3593  -23.6018 C   0  0  0  0  0  0  0  0  0  0  0  0
   -7.8109   -1.3008  -27.5872 C   0  0  0  0  0  0  0  0  0  0  0  0
   -7.3261    0.0736  -27.4070 C   0  0  0  0  0  0  0  0  0  0  0  0
   -6.0000    0.5230  -27.4216 C   0  0  0  0  0  0  0  0  0  0  0  0
   -6.0394    1.8282  -27.2190 O   0  0  0  0  0  0  0  0  0  0  0  0
   -7.2786    2.2129  -27.0820 C   0  0  0  0  0  0  0  0  0  0  0  0
   -8.1160    1.1638  -27.1901 N   0  0  0  0  0  0  0  0  0  0  0  0
  2  1  1  0  0  0
  2  3  1  0  0  0
  3  4  1  0  0  0
  4 19  1  0  0  0
  4  5  1  0  0  0
 19 20  2  0  0  0
 20 21  1  0  0  0
 21 22  2  0  0  0
 22 23  1  0  0  0
 23 24  2  0  0  0
 24 25  1  0  0  0
 25 26  2  0  0  0
 26 27  1  0  0  0
 27 28  2  0  0  0
 28 19  1  0  0  0
 28 23  1  0  0  0
  5  6  2  0  0  0
  7  5  1  0  0  0
  7  8  1  0  0  0
  7  2  1  0  0  0
  8  9  1  0  0  0
  9 29  1  0  0  0
  9 10  1  0  0  0
 29 30  1  0  0  0
 30 31  2  0  0  0
 31 32  1  0  0  0
 32 33  1  0  0  0
 33 34  2  0  0  0
 34 30  1  0  0  0
 10 11  2  0  0  0
 10 12  1  0  0  0
 12 13  2  0  0  0
 13 14  1  0  0  0
 14 15  2  0  0  0
 15 16  1  0  0  0
 15 17  1  0  0  0
 17 18  2  0  0  0
 18 12  1  0  0  0
 18  7  1  0  0  0
M  END
> <minimizedAffinity>
-7.69898

> <CNNscore>
0.1917741150

> <CNNaffinity>
5.5847549438

> <CNN_VS>
1.0710114241

> <CNNaffinity_variance>
0.7900102139

$$$$



 34 38  0  0  0  0  0  0  0  0999 V2000
   -7.1561   -2.1013  -23.1272 N   0  0  0  0  0  0  0  0  0  0  0  0
   -7.1655   -0.8121  -23.7214 C   0  0  0  0  0  0  0  0  0  0  0  0
   -8.4218    0.0086  -23.5462 C   0  0  0  0  0  0  0  0  0  0  0  0
   -8.6267    0.8862  -24.7386 C   0  0  0  0  0  0  0  0  0  0  0  0
   -8.3676    0.5354  -25.9207 O   0  0  0  0  0  0  0  0  0  0  0  0
   -9.1437    2.1311  -24.3102 N   0  0  0  0  0  0  0  0  0  0  0  0
   -9.0520    2.2084  -22.8777 C   0  0  0  0  0  0  0  0  0  0  0  0
   -8.2782    1.0085  -22.4357 C   0  0  0  0  0  0  0  0  0  0  0  0
   -6.8451    1.4758  -22.2315 C   0  0  0  0  0  0  0  0  0  0  0  0
   -9.6404   -0.8123  -23.3556 C   0  0  0  0  0  0  0  0  0  0  0  0
  -10.9031   -0.2754  -23.4962 C   0  0  0  0  0  0  0  0  0  0  0  0
  -12.0616   -1.0357  -23.3031 C   0  0  0  0  0  0  0  0  0  0  0  0
  -13.6489   -0.3169  -23.4902 Cl  0  0  0  0  0  0  0  0  0  0  0  0
  -11.9956   -2.3662  -22.9615 C   0  0  0  0  0  0  0  0  0  0  0  0
  -10.7408   -2.9145  -22.8196 C   0  0  0  0  0  0  0  0  0  0  0  0
   -9.6016   -2.1619  -23.0113 C   0  0  0  0  0  0  0  0  0  0  0  0
   -8.3285   -2.8832  -22.8772 C   0  0  0  0  0  0  0  0  0  0  0  0
   -8.2733   -4.1029  -22.5646 O   0  0  0  0  0  0  0  0  0  0  0  0
   -9.6651    3.1543  -25.1537 C   0  0  0  0  0  0  0  0  0  0  0  0
   -8.9321    3.8003  -26.1170 C   0  0  0  0  0  0  0  0  0  0  0  0
   -9.4555    4.7711  -26.9054 N   0  0  0  0  0  0  0  0  0  0  0  0
  -10.7337    5.1670  -26.7948 C   0  0  0  0  0  0  0  0  0  0  0  0
  -11.5243    4.5564  -25.8445 C   0  0  0  0  0  0  0  0  0  0  0  0
  -12.8395    4.9608  -25.7272 C   0  0  0  0  0  0  0  0  0  0  0  0
  -13.6732    4.3816  -24.7914 C   0  0  0  0  0  0  0  0  0  0  0  0
  -13.1721    3.3841  -23.9664 C   0  0  0  0  0  0  0  0  0  0  0  0
  -11.8544    3.0056  -24.1114 C   0  0  0  0  0  0  0  0  0  0  0  0
  -10.9993    3.5641  -25.0346 C   0  0  0  0  0  0  0  0  0  0  0  0
   -5.8930   -2.7195  -22.7643 C   0  0  0  0  0  0  0  0  0  0  0  0
   -5.7554   -1.5195  -19.0755 C   0  0  0  0  0  0  0  0  0  0  0  0
   -5.9548   -1.4864  -20.5181 N   0  0  0  0  0  0  0  0  0  0  0  0
   -5.7254   -2.6298  -21.3040 C   0  0  0  0  0  0  0  0  0  0  0  0
   -5.3389   -3.6889  -20.7064 O   0  0  0  0  0  0  0  0  0  0  0  0
   -6.2539   -0.6529  -20.9483 H   0  0  0  0  0  0  0  0  0  0  0  0
 30 31  1  0  0  0
 31 32  1  0  0  0
 31 34  1  0  0  0
 32 33  2  0  0  0
 32 29  1  0  0  0
 29  1  1  0  0  0
  1  2  1  0  0  0
  3  2  1  0  0  0
  3  4  1  0  0  0
  3 10  1  0  0  0
  4  5  2  0  0  0
  4  6  1  0  0  0
  6 19  1  0  0  0
  6  7  1  0  0  0
 19 20  2  0  0  0
 20 21  1  0  0  0
 21 22  2  0  0  0
 22 23  1  0  0  0
 23 24  2  0  0  0
 24 25  1  0  0  0
 25 26  2  0  0  0
 26 27  1  0  0  0
 27 28  2  0  0  0
 28 19  1  0  0  0
 28 23  1  0  0  0
  7  8  1  0  0  0
  8  9  1  0  0  0
  8  3  1  0  0  0
 10 11  2  0  0  0
 11 12  1  0  0  0
 12 13  1  0  0  0
 12 14  2  0  0  0
 14 15  1  0  0  0
 15 16  2  0  0  0
 16 17  1  0  0  0
 16 10  1  0  0  0
 17 18  2  0  0  0
 17  1  1  0  0  0
M  END
> <minimizedAffinity>
-7.83350

> <CNNscore>
0.3828682303

> <CNNaffinity>
6.1364173889

> <CNN_VS>
2.3494393826

> <CNNaffinity_variance>
0.1420499682

$$$$



 34 38  0  0  0  0  0  0  0  0999 V2000
   -7.3866   -2.6001  -23.7311 N   0  0  0  0  0  0  0  0  0  0  0  0
   -7.2521   -1.2803  -24.2362 C   0  0  0  0  0  0  0  0  0  0  0  0
   -8.3454   -0.3006  -23.8793 C   0  0  0  0  0  0  0  0  0  0  0  0
   -8.5219    0.6898  -24.9848 C   0  0  0  0  0  0  0  0  0  0  0  0
   -8.4302    0.4001  -26.2076 O   0  0  0  0  0  0  0  0  0  0  0  0
   -8.7992    1.9589  -24.4255 N   0  0  0  0  0  0  0  0  0  0  0  0
   -8.5648    1.9076  -23.0082 C   0  0  0  0  0  0  0  0  0  0  0  0
   -7.9476    0.5756  -22.7271 C   0  0  0  0  0  0  0  0  0  0  0  0
   -6.4469    0.8096  -22.6423 C   0  0  0  0  0  0  0  0  0  0  0  0
   -9.6530   -0.9462  -23.6175 C   0  0  0  0  0  0  0  0  0  0  0  0
  -10.8255   -0.2202  -23.5918 C   0  0  0  0  0  0  0  0  0  0  0  0
  -12.0644   -0.8150  -23.3297 C   0  0  0  0  0  0  0  0  0  0  0  0
  -13.5325    0.1417  -23.3048 Cl  0  0  0  0  0  0  0  0  0  0  0  0
  -12.1729   -2.1637  -23.0838 C   0  0  0  0  0  0  0  0  0  0  0  0
  -11.0098   -2.8999  -23.1081 C   0  0  0  0  0  0  0  0  0  0  0  0
   -9.7909   -2.3099  -23.3673 C   0  0  0  0  0  0  0  0  0  0  0  0
   -8.6373   -3.2188  -23.4125 C   0  0  0  0  0  0  0  0  0  0  0  0
   -8.7419   -4.4543  -23.1870 O   0  0  0  0  0  0  0  0  0  0  0  0
   -9.2325    3.1116  -25.1425 C   0  0  0  0  0  0  0  0  0  0  0  0
   -8.4312    3.8304  -25.9932 C   0  0  0  0  0  0  0  0  0  0  0  0
   -8.8713    4.9242  -26.6625 N   0  0  0  0  0  0  0  0  0  0  0  0
  -10.1282    5.3791  -26.5361 C   0  0  0  0  0  0  0  0  0  0  0  0
  -10.9846    4.7005  -25.6952 C   0  0  0  0  0  0  0  0  0  0  0  0
  -12.2781    5.1651  -25.5621 C   0  0  0  0  0  0  0  0  0  0  0  0
  -13.1752    4.5220  -24.7327 C   0  0  0  0  0  0  0  0  0  0  0  0
  -12.7601    3.3984  -24.0312 C   0  0  0  0  0  0  0  0  0  0  0  0
  -11.4616    2.9628  -24.1884 C   0  0  0  0  0  0  0  0  0  0  0  0
  -10.5448    3.5825  -25.0074 C   0  0  0  0  0  0  0  0  0  0  0  0
   -6.2057   -3.4241  -23.5414 C   0  0  0  0  0  0  0  0  0  0  0  0
   -6.2431   -6.4846  -25.9284 C   0  0  0  0  0  0  0  0  0  0  0  0
   -6.4229   -5.6890  -24.7215 N   0  0  0  0  0  0  0  0  0  0  0  0
   -6.0698   -4.3280  -24.6961 C   0  0  0  0  0  0  0  0  0  0  0  0
   -5.5897   -3.8226  -25.7648 O   0  0  0  0  0  0  0  0  0  0  0  0
   -6.7963   -6.1095  -23.9135 H   0  0  0  0  0  0  0  0  0  0  0  0
 30 31  1  0  0  0
 31 32  1  0  0  0
 31 34  1  0  0  0
 32 33  2  0  0  0
 32 29  1  0  0  0
 29  1  1  0  0  0
  1  2  1  0  0  0
  3  2  1  0  0  0
  3  4  1  0  0  0
  3 10  1  0  0  0
  4  5  2  0  0  0
  4  6  1  0  0  0
  6 19  1  0  0  0
  6  7  1  0  0  0
 19 20  2  0  0  0
 20 21  1  0  0  0
 21 22  2  0  0  0
 22 23  1  0  0  0
 23 24  2  0  0  0
 24 25  1  0  0  0
 25 26  2  0  0  0
 26 27  1  0  0  0
 27 28  2  0  0  0
 28 19  1  0  0  0
 28 23  1  0  0  0
  7  8  1  0  0  0
  8  9  1  0  0  0
  8  3  1  0  0  0
 10 11  2  0  0  0
 11 12  1  0  0  0
 12 13  1  0  0  0
 12 14  2  0  0  0
 14 15  1  0  0  0
 15 16  2  0  0  0
 16 17  1  0  0  0
 16 10  1  0  0  0
 17 18  2  0  0  0
 17  1  1  0  0  0
M  END
> <minimizedAffinity>
-6.90237

> <CNNscore>
0.3738063574

> <CNNaffinity>
6.0798177719

> <CNN_VS>
2.2726745605

> <CNNaffinity_variance>
0.0690569878

$$$$



 34 38  0  0  0  0  0  0  0  0999 V2000
   -4.4932    1.4768  -22.1359 N   0  0  0  0  0  0  0  0  0  0  0  0
   -5.7304    0.8071  -22.3260 C   0  0  0  0  0  0  0  0  0  0  0  0
   -6.7995    1.5561  -23.0867 C   0  0  0  0  0  0  0  0  0  0  0  0
   -8.1513    1.1610  -22.5862 C   0  0  0  0  0  0  0  0  0  0  0  0
   -8.4101    0.9254  -21.3758 O   0  0  0  0  0  0  0  0  0  0  0  0
   -9.0477    1.1034  -23.6788 N   0  0  0  0  0  0  0  0  0  0  0  0
   -8.3000    1.1931  -24.9033 C   0  0  0  0  0  0  0  0  0  0  0  0
   -6.8553    1.1300  -24.5251 C   0  0  0  0  0  0  0  0  0  0  0  0
   -6.4200   -0.3114  -24.7406 C   0  0  0  0  0  0  0  0  0  0  0  0
   -6.6750    3.0288  -22.9825 C   0  0  0  0  0  0  0  0  0  0  0  0
   -7.7128    3.8684  -23.3295 C   0  0  0  0  0  0  0  0  0  0  0  0
   -7.6024    5.2609  -23.2512 C   0  0  0  0  0  0  0  0  0  0  0  0
   -8.9436    6.2948  -23.7020 Cl  0  0  0  0  0  0  0  0  0  0  0  0
   -6.4439    5.8638  -22.8201 C   0  0  0  0  0  0  0  0  0  0  0  0
   -5.4009    5.0364  -22.4693 C   0  0  0  0  0  0  0  0  0  0  0  0
   -5.5140    3.6645  -22.5474 C   0  0  0  0  0  0  0  0  0  0  0  0
   -4.3436    2.8996  -22.0955 C   0  0  0  0  0  0  0  0  0  0  0  0
   -3.2843    3.4567  -21.7007 O   0  0  0  0  0  0  0  0  0  0  0  0
  -10.4636    0.9689  -23.5920 C   0  0  0  0  0  0  0  0  0  0  0  0
  -11.3436    2.0074  -23.7645 C   0  0  0  0  0  0  0  0  0  0  0  0
  -12.6871    1.8494  -23.6758 N   0  0  0  0  0  0  0  0  0  0  0  0
  -13.2488    0.6588  -23.4115 C   0  0  0  0  0  0  0  0  0  0  0  0
  -12.4182   -0.4262  -23.2274 C   0  0  0  0  0  0  0  0  0  0  0  0
  -12.9917   -1.6525  -22.9551 C   0  0  0  0  0  0  0  0  0  0  0  0
  -12.2046   -2.7704  -22.7623 C   0  0  0  0  0  0  0  0  0  0  0  0
  -10.8245   -2.6468  -22.8455 C   0  0  0  0  0  0  0  0  0  0  0  0
  -10.2867   -1.4073  -23.1190 C   0  0  0  0  0  0  0  0  0  0  0  0
  -11.0450   -0.2753  -23.3160 C   0  0  0  0  0  0  0  0  0  0  0  0
   -3.2794    0.7060  -21.9313 C   0  0  0  0  0  0  0  0  0  0  0  0
   -0.6036    1.4368  -24.6465 C   0  0  0  0  0  0  0  0  0  0  0  0
   -1.3077    1.4846  -23.3723 N   0  0  0  0  0  0  0  0  0  0  0  0
   -2.4836    0.7402  -23.1700 C   0  0  0  0  0  0  0  0  0  0  0  0
   -2.9048    0.0267  -24.1404 O   0  0  0  0  0  0  0  0  0  0  0  0
   -0.9560    2.0453  -22.6434 H   0  0  0  0  0  0  0  0  0  0  0  0
 30 31  1  0  0  0
 31 32  1  0  0  0
 31 34  1  0  0  0
 32 33  2  0  0  0
 32 29  1  0  0  0
 29  1  1  0  0  0
  1  2  1  0  0  0
  3  2  1  0  0  0
  3  4  1  0  0  0
  3 10  1  0  0  0
  4  5  2  0  0  0
  4  6  1  0  0  0
  6 19  1  0  0  0
  6  7  1  0  0  0
 19 20  2  0  0  0
 20 21  1  0  0  0
 21 22  2  0  0  0
 22 23  1  0  0  0
 23 24  2  0  0  0
 24 25  1  0  0  0
 25 26  2  0  0  0
 26 27  1  0  0  0
 27 28  2  0  0  0
 28 19  1  0  0  0
 28 23  1  0  0  0
  7  8  1  0  0  0
  8  9  1  0  0  0
  8  3  1  0  0  0
 10 11  2  0  0  0
 11 12  1  0  0  0
 12 13  1  0  0  0
 12 14  2  0  0  0
 14 15  1  0  0  0
 15 16  2  0  0  0
 16 17  1  0  0  0
 16 10  1  0  0  0
 17 18  2  0  0  0
 17  1  1  0  0  0
M  END
> <minimizedAffinity>
-7.00035

> <CNNscore>
0.2886735499

> <CNNaffinity>
5.7960076332

> <CNN_VS>
1.6731541157

> <CNNaffinity_variance>
0.0653115734

$$$$



 34 38  0  0  0  0  0  0  0  0999 V2000
   -4.4870    1.4415  -22.0839 N   0  0  0  0  0  0  0  0  0  0  0  0
   -5.6717    0.6873  -22.2909 C   0  0  0  0  0  0  0  0  0  0  0  0
   -6.7960    1.3756  -23.0291 C   0  0  0  0  0  0  0  0  0  0  0  0
   -8.1131    0.8676  -22.5381 C   0  0  0  0  0  0  0  0  0  0  0  0
   -8.3496    0.5802  -21.3343 O   0  0  0  0  0  0  0  0  0  0  0  0
   -9.0064    0.7738  -23.6307 N   0  0  0  0  0  0  0  0  0  0  0  0
   -8.2715    0.9524  -24.8531 C   0  0  0  0  0  0  0  0  0  0  0  0
   -6.8249    0.9863  -24.4787 C   0  0  0  0  0  0  0  0  0  0  0  0
   -6.2845   -0.4123  -24.7347 C   0  0  0  0  0  0  0  0  0  0  0  0
   -6.7807    2.8500  -22.8843 C   0  0  0  0  0  0  0  0  0  0  0  0
   -7.8791    3.6196  -23.2065 C   0  0  0  0  0  0  0  0  0  0  0  0
   -7.8720    5.0137  -23.0898 C   0  0  0  0  0  0  0  0  0  0  0  0
   -9.2877    5.9572  -23.5100 Cl  0  0  0  0  0  0  0  0  0  0  0  0
   -6.7599    5.6888  -22.6436 C   0  0  0  0  0  0  0  0  0  0  0  0
   -5.6573    4.9318  -22.3172 C   0  0  0  0  0  0  0  0  0  0  0  0
   -5.6686    3.5580  -22.4333 C   0  0  0  0  0  0  0  0  0  0  0  0
   -4.4432    2.8699  -22.0042 C   0  0  0  0  0  0  0  0  0  0  0  0
   -3.4268    3.4930  -21.5955 O   0  0  0  0  0  0  0  0  0  0  0  0
  -10.4081    0.5322  -23.5458 C   0  0  0  0  0  0  0  0  0  0  0  0
  -10.9602   -0.7038  -23.3218 C   0  0  0  0  0  0  0  0  0  0  0  0
  -12.2989   -0.9035  -23.2461 N   0  0  0  0  0  0  0  0  0  0  0  0
  -13.1785    0.1012  -23.3863 C   0  0  0  0  0  0  0  0  0  0  0  0
  -12.6873    1.3692  -23.6138 C   0  0  0  0  0  0  0  0  0  0  0  0
  -13.5884    2.4055  -23.7589 C   0  0  0  0  0  0  0  0  0  0  0  0
  -13.1486    3.6939  -23.9885 C   0  0  0  0  0  0  0  0  0  0  0  0
  -11.7844    3.9366  -24.0722 C   0  0  0  0  0  0  0  0  0  0  0  0
  -10.9138    2.8783  -23.9225 C   0  0  0  0  0  0  0  0  0  0  0  0
  -11.3219    1.5837  -23.6928 C   0  0  0  0  0  0  0  0  0  0  0  0
   -3.2187    0.7576  -21.9023 C   0  0  0  0  0  0  0  0  0  0  0  0
   -0.6301    1.7731  -24.6104 C   0  0  0  0  0  0  0  0  0  0  0  0
   -1.3324    1.7375  -23.3348 N   0  0  0  0  0  0  0  0  0  0  0  0
   -2.4326    0.8831  -23.1413 C   0  0  0  0  0  0  0  0  0  0  0  0
   -2.7872    0.1463  -24.1208 O   0  0  0  0  0  0  0  0  0  0  0  0
   -1.0332    2.3189  -22.5988 H   0  0  0  0  0  0  0  0  0  0  0  0
 30 31  1  0  0  0
 31 32  1  0  0  0
 31 34  1  0  0  0
 32 33  2  0  0  0
 32 29  1  0  0  0
 29  1  1  0  0  0
  1  2  1  0  0  0
  3  2  1  0  0  0
  3  4  1  0  0  0
  3 10  1  0  0  0
  4  5  2  0  0  0
  4  6  1  0  0  0
  6 19  1  0  0  0
  6  7  1  0  0  0
 19 20  2  0  0  0
 20 21  1  0  0  0
 21 22  2  0  0  0
 22 23  1  0  0  0
 23 24  2  0  0  0
 24 25  1  0  0  0
 25 26  2  0  0  0
 26 27  1  0  0  0
 27 28  2  0  0  0
 28 19  1  0  0  0
 28 23  1  0  0  0
  7  8  1  0  0  0
  8  9  1  0  0  0
  8  3  1  0  0  0
 10 11  2  0  0  0
 11 12  1  0  0  0
 12 13  1  0  0  0
 12 14  2  0  0  0
 14 15  1  0  0  0
 15 16  2  0  0  0
 16 17  1  0  0  0
 16 10  1  0  0  0
 17 18  2  0  0  0
 17  1  1  0  0  0
M  END
> <minimizedAffinity>
-7.28585

> <CNNscore>
0.2232403308

> <CNNaffinity>
5.4712090492

> <CNN_VS>
1.2213945389

> <CNNaffinity_variance>
0.1513395905

$$$$



 34 38  0  0  0  0  0  0  0  0999 V2000
   -5.7547   -0.1292  -22.3699 N   0  0  0  0  0  0  0  0  0  0  0  0
   -7.1395   -0.1381  -22.6823 C   0  0  0  0  0  0  0  0  0  0  0  0
   -7.6942    1.0985  -23.3498 C   0  0  0  0  0  0  0  0  0  0  0  0
   -9.1177    1.3019  -22.9417 C   0  0  0  0  0  0  0  0  0  0  0  0
   -9.5561    1.0665  -21.7842 O   0  0  0  0  0  0  0  0  0  0  0  0
   -9.8493    1.7872  -24.0506 N   0  0  0  0  0  0  0  0  0  0  0  0
   -9.0388    1.6740  -25.2324 C   0  0  0  0  0  0  0  0  0  0  0  0
   -7.8114    0.9189  -24.8356 C   0  0  0  0  0  0  0  0  0  0  0  0
   -8.0469   -0.5262  -25.2480 C   0  0  0  0  0  0  0  0  0  0  0  0
   -6.9363    2.3310  -23.0307 C   0  0  0  0  0  0  0  0  0  0  0  0
   -7.4579    3.5842  -23.2752 C   0  0  0  0  0  0  0  0  0  0  0  0
   -6.7461    4.7553  -22.9936 C   0  0  0  0  0  0  0  0  0  0  0  0
   -7.4429    6.3299  -23.3194 Cl  0  0  0  0  0  0  0  0  0  0  0  0
   -5.4817    4.7119  -22.4543 C   0  0  0  0  0  0  0  0  0  0  0  0
   -4.9503    3.4668  -22.2041 C   0  0  0  0  0  0  0  0  0  0  0  0
   -5.6554    2.3151  -22.4827 C   0  0  0  0  0  0  0  0  0  0  0  0
   -4.9912    1.0554  -22.1206 C   0  0  0  0  0  0  0  0  0  0  0  0
   -3.8325    1.0209  -21.6260 O   0  0  0  0  0  0  0  0  0  0  0  0
  -11.1786    2.2992  -24.0154 C   0  0  0  0  0  0  0  0  0  0  0  0
  -12.2667    1.5769  -23.5947 C   0  0  0  0  0  0  0  0  0  0  0  0
  -13.5210    2.0908  -23.5722 N   0  0  0  0  0  0  0  0  0  0  0  0
  -13.7829    3.3485  -23.9628 C   0  0  0  0  0  0  0  0  0  0  0  0
  -12.7315    4.1274  -24.3973 C   0  0  0  0  0  0  0  0  0  0  0  0
  -12.9965    5.4214  -24.8002 C   0  0  0  0  0  0  0  0  0  0  0  0
  -11.9793    6.2427  -25.2440 C   0  0  0  0  0  0  0  0  0  0  0  0
  -10.6819    5.7507  -25.2809 C   0  0  0  0  0  0  0  0  0  0  0  0
  -10.4542    4.4542  -24.8712 C   0  0  0  0  0  0  0  0  0  0  0  0
  -11.4470    3.6119  -24.4239 C   0  0  0  0  0  0  0  0  0  0  0  0
   -5.0334   -1.3843  -22.2524 C   0  0  0  0  0  0  0  0  0  0  0  0
   -5.9198   -1.9721  -18.5196 C   0  0  0  0  0  0  0  0  0  0  0  0
   -5.6396   -1.2699  -19.7646 N   0  0  0  0  0  0  0  0  0  0  0  0
   -5.3320   -1.9797  -20.9391 C   0  0  0  0  0  0  0  0  0  0  0  0
   -5.3089   -3.2536  -20.8699 O   0  0  0  0  0  0  0  0  0  0  0  0
   -5.6660   -0.2860  -19.7842 H   0  0  0  0  0  0  0  0  0  0  0  0
 30 31  1  0  0  0
 31 32  1  0  0  0
 31 34  1  0  0  0
 32 33  2  0  0  0
 32 29  1  0  0  0
 29  1  1  0  0  0
  1  2  1  0  0  0
  3  2  1  0  0  0
  3  4  1  0  0  0
  3 10  1  0  0  0
  4  5  2  0  0  0
  4  6  1  0  0  0
  6 19  1  0  0  0
  6  7  1  0  0  0
 19 20  2  0  0  0
 20 21  1  0  0  0
 21 22  2  0  0  0
 22 23  1  0  0  0
 23 24  2  0  0  0
 24 25  1  0  0  0
 25 26  2  0  0  0
 26 27  1  0  0  0
 27 28  2  0  0  0
 28 19  1  0  0  0
 28 23  1  0  0  0
  7  8  1  0  0  0
  8  9  1  0  0  0
  8  3  1  0  0  0
 10 11  2  0  0  0
 11 12  1  0  0  0
 12 13  1  0  0  0
 12 14  2  0  0  0
 14 15  1  0  0  0
 15 16  2  0  0  0
 16 17  1  0  0  0
 16 10  1  0  0  0
 17 18  2  0  0  0
 17  1  1  0  0  0
M  END
> <minimizedAffinity>
-7.25487

> <CNNscore>
0.2077649534

> <CNNaffinity>
5.7167453766

> <CNN_VS>
1.1877393723

> <CNNaffinity_variance>
0.0435399637

$$$$



 34 38  0  0  0  0  0  0  0  0999 V2000
   -7.3552   -3.0553  -24.2948 N   0  0  0  0  0  0  0  0  0  0  0  0
   -7.1641   -1.6487  -24.3031 C   0  0  0  0  0  0  0  0  0  0  0  0
   -8.2544   -0.8103  -23.6779 C   0  0  0  0  0  0  0  0  0  0  0  0
   -8.3470    0.5076  -24.3769 C   0  0  0  0  0  0  0  0  0  0  0  0
   -8.1929    0.6554  -25.6187 O   0  0  0  0  0  0  0  0  0  0  0  0
   -8.6279    1.5148  -23.4245 N   0  0  0  0  0  0  0  0  0  0  0  0
   -8.4747    0.9670  -22.1044 C   0  0  0  0  0  0  0  0  0  0  0  0
   -7.9031   -0.4033  -22.2762 C   0  0  0  0  0  0  0  0  0  0  0  0
   -6.4050   -0.2730  -22.0475 C   0  0  0  0  0  0  0  0  0  0  0  0
   -9.5882   -1.4541  -23.7161 C   0  0  0  0  0  0  0  0  0  0  0  0
  -10.7444   -0.7358  -23.4928 C   0  0  0  0  0  0  0  0  0  0  0  0
  -12.0086   -1.3348  -23.5101 C   0  0  0  0  0  0  0  0  0  0  0  0
  -13.4548   -0.3883  -23.2207 Cl  0  0  0  0  0  0  0  0  0  0  0  0
  -12.1598   -2.6799  -23.7535 C   0  0  0  0  0  0  0  0  0  0  0  0
  -11.0134   -3.4078  -23.9795 C   0  0  0  0  0  0  0  0  0  0  0  0
   -9.7694   -2.8135  -23.9620 C   0  0  0  0  0  0  0  0  0  0  0  0
   -8.6349   -3.6957  -24.2681 C   0  0  0  0  0  0  0  0  0  0  0  0
   -8.7786   -4.9278  -24.4910 O   0  0  0  0  0  0  0  0  0  0  0  0
   -8.9952    2.8606  -23.7151 C   0  0  0  0  0  0  0  0  0  0  0  0
  -10.1799    3.2206  -24.3063 C   0  0  0  0  0  0  0  0  0  0  0  0
  -10.5024    4.5105  -24.5710 N   0  0  0  0  0  0  0  0  0  0  0  0
   -9.6785    5.5272  -24.2702 C   0  0  0  0  0  0  0  0  0  0  0  0
   -8.4710    5.2320  -23.6739 C   0  0  0  0  0  0  0  0  0  0  0  0
   -7.6205    6.2746  -23.3632 C   0  0  0  0  0  0  0  0  0  0  0  0
   -6.3996    6.0329  -22.7655 C   0  0  0  0  0  0  0  0  0  0  0  0
   -6.0354    4.7244  -22.4794 C   0  0  0  0  0  0  0  0  0  0  0  0
   -6.9091    3.7086  -22.8036 C   0  0  0  0  0  0  0  0  0  0  0  0
   -8.1324    3.9180  -23.3994 C   0  0  0  0  0  0  0  0  0  0  0  0
   -6.2049   -3.9402  -24.3501 C   0  0  0  0  0  0  0  0  0  0  0  0
   -6.1343   -6.8024  -21.7294 C   0  0  0  0  0  0  0  0  0  0  0  0
   -6.1921   -6.1319  -23.0212 N   0  0  0  0  0  0  0  0  0  0  0  0
   -6.1551   -4.7287  -23.1074 C   0  0  0  0  0  0  0  0  0  0  0  0
   -6.0692   -4.0724  -22.0165 O   0  0  0  0  0  0  0  0  0  0  0  0
   -6.2579   -6.6679  -23.8444 H   0  0  0  0  0  0  0  0  0  0  0  0
 30 31  1  0  0  0
 31 32  1  0  0  0
 31 34  1  0  0  0
 32 33  2  0  0  0
 32 29  1  0  0  0
 29  1  1  0  0  0
  1  2  1  0  0  0
  3  2  1  0  0  0
  3  4  1  0  0  0
  3 10  1  0  0  0
  4  5  2  0  0  0
  4  6  1  0  0  0
  6 19  1  0  0  0
  6  7  1  0  0  0
 19 20  2  0  0  0
 20 21  1  0  0  0
 21 22  2  0  0  0
 22 23  1  0  0  0
 23 24  2  0  0  0
 24 25  1  0  0  0
 25 26  2  0  0  0
 26 27  1  0  0  0
 27 28  2  0  0  0
 28 19  1  0  0  0
 28 23  1  0  0  0
  7  8  1  0  0  0
  8  9  1  0  0  0
  8  3  1  0  0  0
 10 11  2  0  0  0
 11 12  1  0  0  0
 12 13  1  0  0  0
 12 14  2  0  0  0
 14 15  1  0  0  0
 15 16  2  0  0  0
 16 17  1  0  0  0
 16 10  1  0  0  0
 17 18  2  0  0  0
 17  1  1  0  0  0
M  END
> <minimizedAffinity>
-6.53686

> <CNNscore>
0.1963850409

> <CNNaffinity>
5.9266152382

> <CNN_VS>
1.1638985872

> <CNNaffinity_variance>
0.1344043314

$$$$



 34 38  0  0  0  0  0  0  0  0999 V2000
   -7.1316   -3.8561  -22.5772 N   0  0  0  0  0  0  0  0  0  0  0  0
   -8.1244   -2.9695  -23.0706 C   0  0  0  0  0  0  0  0  0  0  0  0
   -7.7086   -1.5326  -23.2825 C   0  0  0  0  0  0  0  0  0  0  0  0
   -8.8724   -0.6256  -23.0439 C   0  0  0  0  0  0  0  0  0  0  0  0
   -9.7363   -0.8142  -22.1463 O   0  0  0  0  0  0  0  0  0  0  0  0
   -8.8246    0.4386  -23.9743 N   0  0  0  0  0  0  0  0  0  0  0  0
   -7.8343    0.1432  -24.9734 C   0  0  0  0  0  0  0  0  0  0  0  0
   -7.3813   -1.2588  -24.7218 C   0  0  0  0  0  0  0  0  0  0  0  0
   -8.1566   -2.1385  -25.6907 C   0  0  0  0  0  0  0  0  0  0  0  0
   -6.5953   -1.1052  -22.4032 C   0  0  0  0  0  0  0  0  0  0  0  0
   -6.2903    0.2272  -22.2188 C   0  0  0  0  0  0  0  0  0  0  0  0
   -5.2317    0.6433  -21.4042 C   0  0  0  0  0  0  0  0  0  0  0  0
   -4.8748    2.3462  -21.1956 Cl  0  0  0  0  0  0  0  0  0  0  0  0
   -4.4385   -0.2646  -20.7423 C   0  0  0  0  0  0  0  0  0  0  0  0
   -4.7337   -1.5979  -20.9169 C   0  0  0  0  0  0  0  0  0  0  0  0
   -5.7782   -2.0037  -21.7203 C   0  0  0  0  0  0  0  0  0  0  0  0
   -6.0142   -3.4528  -21.7790 C   0  0  0  0  0  0  0  0  0  0  0  0
   -5.2848   -4.2809  -21.1701 O   0  0  0  0  0  0  0  0  0  0  0  0
   -9.6297    1.6139  -23.9418 C   0  0  0  0  0  0  0  0  0  0  0  0
   -9.1293    2.8879  -24.0364 C   0  0  0  0  0  0  0  0  0  0  0  0
   -9.9203    3.9884  -24.0022 N   0  0  0  0  0  0  0  0  0  0  0  0
  -11.2540    3.9036  -23.8726 C   0  0  0  0  0  0  0  0  0  0  0  0
  -11.8199    2.6503  -23.7725 C   0  0  0  0  0  0  0  0  0  0  0  0
  -13.1913    2.5586  -23.6388 C   0  0  0  0  0  0  0  0  0  0  0  0
  -13.8075    1.3275  -23.5345 C   0  0  0  0  0  0  0  0  0  0  0  0
  -13.0295    0.1783  -23.5656 C   0  0  0  0  0  0  0  0  0  0  0  0
  -11.6637    0.3077  -23.7001 C   0  0  0  0  0  0  0  0  0  0  0  0
  -11.0208    1.5204  -23.8064 C   0  0  0  0  0  0  0  0  0  0  0  0
   -7.2359   -5.2792  -22.8483 C   0  0  0  0  0  0  0  0  0  0  0  0
   -4.2118   -6.7053  -24.8197 C   0  0  0  0  0  0  0  0  0  0  0  0
   -5.1066   -6.4189  -23.7065 N   0  0  0  0  0  0  0  0  0  0  0  0
   -6.2589   -5.6343  -23.8914 C   0  0  0  0  0  0  0  0  0  0  0  0
   -6.4869   -5.1875  -25.0646 O   0  0  0  0  0  0  0  0  0  0  0  0
   -4.9019   -6.7792  -22.8135 H   0  0  0  0  0  0  0  0  0  0  0  0
 30 31  1  0  0  0
 31 32  1  0  0  0
 31 34  1  0  0  0
 32 33  2  0  0  0
 32 29  1  0  0  0
 29  1  1  0  0  0
  1  2  1  0  0  0
  3  2  1  0  0  0
  3  4  1  0  0  0
  3 10  1  0  0  0
  4  5  2  0  0  0
  4  6  1  0  0  0
  6 19  1  0  0  0
  6  7  1  0  0  0
 19 20  2  0  0  0
 20 21  1  0  0  0
 21 22  2  0  0  0
 22 23  1  0  0  0
 23 24  2  0  0  0
 24 25  1  0  0  0
 25 26  2  0  0  0
 26 27  1  0  0  0
 27 28  2  0  0  0
 28 19  1  0  0  0
 28 23  1  0  0  0
  7  8  1  0  0  0
  8  9  1  0  0  0
  8  3  1  0  0  0
 10 11  2  0  0  0
 11 12  1  0  0  0
 12 13  1  0  0  0
 12 14  2  0  0  0
 14 15  1  0  0  0
 15 16  2  0  0  0
 16 17  1  0  0  0
 16 10  1  0  0  0
 17 18  2  0  0  0
 17  1  1  0  0  0
M  END
> <minimizedAffinity>
-7.58825

> <CNNscore>
0.1911042780

> <CNNaffinity>
5.9401116371

> <CNN_VS>
1.1351807117

> <CNNaffinity_variance>
0.1470743120

$$$$



 34 38  0  0  0  0  0  0  0  0999 V2000
   -7.3507   -4.4253  -24.2965 N   0  0  0  0  0  0  0  0  0  0  0  0
   -6.6224   -3.2623  -23.9328 C   0  0  0  0  0  0  0  0  0  0  0  0
   -7.3910   -2.1731  -23.2218 C   0  0  0  0  0  0  0  0  0  0  0  0
   -6.8213   -0.8365  -23.5724 C   0  0  0  0  0  0  0  0  0  0  0  0
   -6.3879   -0.5369  -24.7170 O   0  0  0  0  0  0  0  0  0  0  0  0
   -6.8579   -0.0062  -22.4279 N   0  0  0  0  0  0  0  0  0  0  0  0
   -7.1878   -0.8056  -21.2797 C   0  0  0  0  0  0  0  0  0  0  0  0
   -7.1818   -2.2288  -21.7363 C   0  0  0  0  0  0  0  0  0  0  0  0
   -5.8272   -2.7979  -21.3427 C   0  0  0  0  0  0  0  0  0  0  0  0
   -8.8367   -2.1641  -23.5457 C   0  0  0  0  0  0  0  0  0  0  0  0
   -9.6353   -1.0767  -23.2583 C   0  0  0  0  0  0  0  0  0  0  0  0
  -11.0047   -1.0619  -23.5443 C   0  0  0  0  0  0  0  0  0  0  0  0
  -11.9865    0.3387  -23.1631 Cl  0  0  0  0  0  0  0  0  0  0  0  0
  -11.6249   -2.1400  -24.1312 C   0  0  0  0  0  0  0  0  0  0  0  0
  -10.8383   -3.2312  -24.4245 C   0  0  0  0  0  0  0  0  0  0  0  0
   -9.4889   -3.2416  -24.1415 C   0  0  0  0  0  0  0  0  0  0  0  0
   -8.7588   -4.4488  -24.5518 C   0  0  0  0  0  0  0  0  0  0  0  0
   -9.3315   -5.4341  -25.0900 O   0  0  0  0  0  0  0  0  0  0  0  0
   -6.6019    1.3953  -22.4037 C   0  0  0  0  0  0  0  0  0  0  0  0
   -5.4795    1.9595  -21.8518 C   0  0  0  0  0  0  0  0  0  0  0  0
   -5.2628    3.2977  -21.8433 N   0  0  0  0  0  0  0  0  0  0  0  0
   -6.1377    4.1648  -22.3776 C   0  0  0  0  0  0  0  0  0  0  0  0
   -7.2871    3.6611  -22.9486 C   0  0  0  0  0  0  0  0  0  0  0  0
   -8.1897    4.5494  -23.4991 C   0  0  0  0  0  0  0  0  0  0  0  0
   -9.3561    4.0966  -24.0830 C   0  0  0  0  0  0  0  0  0  0  0  0
   -9.6120    2.7325  -24.1103 C   0  0  0  0  0  0  0  0  0  0  0  0
   -8.6887    1.8750  -23.5512 C   0  0  0  0  0  0  0  0  0  0  0  0
   -7.5176    2.2961  -22.9625 C   0  0  0  0  0  0  0  0  0  0  0  0
   -6.6551   -5.6892  -24.4645 C   0  0  0  0  0  0  0  0  0  0  0  0
   -5.5406   -6.9439  -20.9646 C   0  0  0  0  0  0  0  0  0  0  0  0
   -5.5139   -6.2300  -22.2340 N   0  0  0  0  0  0  0  0  0  0  0  0
   -6.5684   -6.3585  -23.1556 C   0  0  0  0  0  0  0  0  0  0  0  0
   -7.5417   -7.1195  -22.8366 O   0  0  0  0  0  0  0  0  0  0  0  0
   -4.7480   -5.6503  -22.4495 H   0  0  0  0  0  0  0  0  0  0  0  0
 30 31  1  0  0  0
 31 32  1  0  0  0
 31 34  1  0  0  0
 32 33  2  0  0  0
 32 29  1  0  0  0
 29  1  1  0  0  0
  1  2  1  0  0  0
  3  2  1  0  0  0
  3  4  1  0  0  0
  3 10  1  0  0  0
  4  5  2  0  0  0
  4  6  1  0  0  0
  6 19  1  0  0  0
  6  7  1  0  0  0
 19 20  2  0  0  0
 20 21  1  0  0  0
 21 22  2  0  0  0
 22 23  1  0  0  0
 23 24  2  0  0  0
 24 25  1  0  0  0
 25 26  2  0  0  0
 26 27  1  0  0  0
 27 28  2  0  0  0
 28 19  1  0  0  0
 28 23  1  0  0  0
  7  8  1  0  0  0
  8  9  1  0  0  0
  8  3  1  0  0  0
 10 11  2  0  0  0
 11 12  1  0  0  0
 12 13  1  0  0  0
 12 14  2  0  0  0
 14 15  1  0  0  0
 15 16  2  0  0  0
 16 17  1  0  0  0
 16 10  1  0  0  0
 17 18  2  0  0  0
 17  1  1  0  0  0
M  END
> <minimizedAffinity>
-7.19452

> <CNNscore>
0.1867218614

> <CNNaffinity>
5.7773756981

> <CNN_VS>
1.0787622929

> <CNNaffinity_variance>
0.3122475147

$$$$



 34 38  0  0  0  0  0  0  0  0999 V2000
   -7.1903   -3.1789  -22.5005 N   0  0  0  0  0  0  0  0  0  0  0  0
   -8.0729   -2.2166  -23.0575 C   0  0  0  0  0  0  0  0  0  0  0  0
   -7.5136   -0.8317  -23.2847 C   0  0  0  0  0  0  0  0  0  0  0  0
   -8.5946    0.1872  -23.1186 C   0  0  0  0  0  0  0  0  0  0  0  0
   -9.5089    0.1055  -22.2555 O   0  0  0  0  0  0  0  0  0  0  0  0
   -8.4073    1.2161  -24.0708 N   0  0  0  0  0  0  0  0  0  0  0  0
   -7.4091    0.8014  -25.0184 C   0  0  0  0  0  0  0  0  0  0  0  0
   -7.1025   -0.6296  -24.7143 C   0  0  0  0  0  0  0  0  0  0  0  0
   -7.9173   -1.4587  -25.6953 C   0  0  0  0  0  0  0  0  0  0  0  0
   -6.4020   -0.4870  -22.3678 C   0  0  0  0  0  0  0  0  0  0  0  0
   -5.9794    0.8154  -22.2015 C   0  0  0  0  0  0  0  0  0  0  0  0
   -4.9205    1.1522  -21.3513 C   0  0  0  0  0  0  0  0  0  0  0  0
   -4.4120    2.8191  -21.1673 Cl  0  0  0  0  0  0  0  0  0  0  0  0
   -4.2455    0.1922  -20.6342 C   0  0  0  0  0  0  0  0  0  0  0  0
   -4.6589   -1.1117  -20.7903 C   0  0  0  0  0  0  0  0  0  0  0  0
   -5.7032   -1.4393  -21.6288 C   0  0  0  0  0  0  0  0  0  0  0  0
   -6.0734   -2.8608  -21.6638 C   0  0  0  0  0  0  0  0  0  0  0  0
   -5.4521   -3.7368  -21.0043 O   0  0  0  0  0  0  0  0  0  0  0  0
   -9.0974    2.4624  -24.1011 C   0  0  0  0  0  0  0  0  0  0  0  0
  -10.3746    2.6193  -24.5772 C   0  0  0  0  0  0  0  0  0  0  0  0
  -11.0064    3.8187  -24.5937 N   0  0  0  0  0  0  0  0  0  0  0  0
  -10.4202    4.9392  -24.1425 C   0  0  0  0  0  0  0  0  0  0  0  0
   -9.1354    4.8489  -23.6505 C   0  0  0  0  0  0  0  0  0  0  0  0
   -8.5287    5.9990  -23.1857 C   0  0  0  0  0  0  0  0  0  0  0  0
   -7.2432    5.9629  -22.6830 C   0  0  0  0  0  0  0  0  0  0  0  0
   -6.5650    4.7522  -22.6503 C   0  0  0  0  0  0  0  0  0  0  0  0
   -7.2016    3.6244  -23.1227 C   0  0  0  0  0  0  0  0  0  0  0  0
   -8.4817    3.6288  -23.6292 C   0  0  0  0  0  0  0  0  0  0  0  0
   -7.4183   -4.5927  -22.7423 C   0  0  0  0  0  0  0  0  0  0  0  0
   -4.5745   -5.9665  -24.9987 C   0  0  0  0  0  0  0  0  0  0  0  0
   -5.3022   -5.5830  -23.7966 N   0  0  0  0  0  0  0  0  0  0  0  0
   -6.5870   -5.0173  -23.8813 C   0  0  0  0  0  0  0  0  0  0  0  0
   -7.0851   -4.8554  -25.0449 O   0  0  0  0  0  0  0  0  0  0  0  0
   -4.8894   -5.7215  -22.9136 H   0  0  0  0  0  0  0  0  0  0  0  0
 30 31  1  0  0  0
 31 32  1  0  0  0
 31 34  1  0  0  0
 32 33  2  0  0  0
 32 29  1  0  0  0
 29  1  1  0  0  0
  1  2  1  0  0  0
  3  2  1  0  0  0
  3  4  1  0  0  0
  3 10  1  0  0  0
  4  5  2  0  0  0
  4  6  1  0  0  0
  6 19  1  0  0  0
  6  7  1  0  0  0
 19 20  2  0  0  0
 20 21  1  0  0  0
 21 22  2  0  0  0
 22 23  1  0  0  0
 23 24  2  0  0  0
 24 25  1  0  0  0
 25 26  2  0  0  0
 26 27  1  0  0  0
 27 28  2  0  0  0
 28 19  1  0  0  0
 28 23  1  0  0  0
  7  8  1  0  0  0
  8  9  1  0  0  0
  8  3  1  0  0  0
 10 11  2  0  0  0
 11 12  1  0  0  0
 12 13  1  0  0  0
 12 14  2  0  0  0
 14 15  1  0  0  0
 15 16  2  0  0  0
 16 17  1  0  0  0
 16 10  1  0  0  0
 17 18  2  0  0  0
 17  1  1  0  0  0
M  END
> <minimizedAffinity>
-6.90074

> <CNNscore>
0.1843135506

> <CNNaffinity>
5.6197290421

> <CNN_VS>
1.0357922316

> <CNNaffinity_variance>
0.1599713266

$$$$



 27 31  0  0  0  0  0  0  0  0999 V2000
   -5.8630   -5.2329  -23.3175 C   0  0  0  0  0  0  0  0  0  0  0  0
   -6.2974   -3.9716  -22.7696 N   0  0  0  0  0  0  0  0  0  0  0  0
   -5.8376   -3.4378  -21.5140 C   0  0  0  0  0  0  0  0  0  0  0  0
   -5.2010   -4.1197  -20.6484 O   0  0  0  0  0  0  0  0  0  0  0  0
   -6.2152   -2.0602  -21.4297 N   0  0  0  0  0  0  0  0  0  0  0  0
   -6.9075   -1.7420  -22.6312 C   0  0  0  0  0  0  0  0  0  0  0  0
   -7.1644   -0.5684  -22.9850 O   0  0  0  0  0  0  0  0  0  0  0  0
   -7.2141   -3.0130  -23.2861 C   0  0  0  0  0  0  0  0  0  0  0  0
   -8.6786   -3.4086  -23.2883 C   0  0  0  0  0  0  0  0  0  0  0  0
   -8.8300   -3.0207  -24.6654 N   0  0  0  0  0  0  0  0  0  0  0  0
   -7.3861   -2.9512  -24.7868 C   0  0  0  0  0  0  0  0  0  0  0  0
   -5.9132   -1.2323  -20.3119 C   0  0  0  0  0  0  0  0  0  0  0  0
   -6.6212   -1.3333  -19.1188 C   0  0  0  0  0  0  0  0  0  0  0  0
   -6.3010   -0.5224  -18.0718 N   0  0  0  0  0  0  0  0  0  0  0  0
   -5.2943    0.3798  -18.1955 C   0  0  0  0  0  0  0  0  0  0  0  0
   -4.5836    0.4917  -19.3712 C   0  0  0  0  0  0  0  0  0  0  0  0
   -3.5484    1.4083  -19.5219 C   0  0  0  0  0  0  0  0  0  0  0  0
   -2.8563    1.4939  -20.7157 C   0  0  0  0  0  0  0  0  0  0  0  0
   -3.1513    0.6873  -21.8036 C   0  0  0  0  0  0  0  0  0  0  0  0
   -4.1887   -0.2188  -21.6270 C   0  0  0  0  0  0  0  0  0  0  0  0
   -4.8887   -0.3180  -20.4455 C   0  0  0  0  0  0  0  0  0  0  0  0
   -9.5881   -4.1164  -25.7204 S   0  0  0  0  0  0  0  0  0  0  0  0
  -10.9407   -4.4754  -25.1334 O   0  0  0  0  0  0  0  0  0  0  0  0
   -9.8294   -3.3790  -27.0288 O   0  0  0  0  0  0  0  0  0  0  0  0
   -8.6979   -5.5961  -26.0369 C   0  0  0  0  0  0  0  0  0  0  0  0
   -9.4626   -6.8393  -26.4543 C   0  0  0  0  0  0  0  0  0  0  0  0
   -8.7700   -6.7535  -25.1385 C   0  0  0  0  0  0  0  0  0  0  0  0
  1  2  1  0  0  0
  2  3  1  0  0  0
  3  4  2  0  0  0
  3  5  1  0  0  0
  5 12  1  0  0  0
  5  6  1  0  0  0
 12 13  2  0  0  0
 13 14  1  0  0  0
 14 15  2  0  0  0
 15 16  1  0  0  0
 16 17  2  0  0  0
 17 18  1  0  0  0
 18 19  2  0  0  0
 19 20  1  0  0  0
 20 21  2  0  0  0
 21 12  1  0  0  0
 21 16  1  0  0  0
  6  7  2  0  0  0
  6  8  1  0  0  0
  8  9  1  0  0  0
  8  2  1  0  0  0
  9 10  1  0  0  0
 10 22  1  0  0  0
 10 11  1  0  0  0
 22 23  2  0  0  0
 22 24  2  0  0  0
 22 25  1  0  0  0
 25 26  1  0  0  0
 26 27  1  0  0  0
 27 25  1  0  0  0
 11  8  1  0  0  0
M  END
> <minimizedAffinity>
-7.99182

> <CNNscore>
0.8009812236

> <CNNaffinity>
5.8705086708

> <CNN_VS>
4.7021670341

> <CNNaffinity_variance>
0.1007393152

$$$$



 27 31  0  0  0  0  0  0  0  0999 V2000
   -9.5333   -3.0913  -23.4449 C   0  0  0  0  0  0  0  0  0  0  0  0
   -8.2524   -2.9248  -22.8032 N   0  0  0  0  0  0  0  0  0  0  0  0
   -7.9448   -1.8609  -21.8831 C   0  0  0  0  0  0  0  0  0  0  0  0
   -8.6733   -0.8290  -21.7291 O   0  0  0  0  0  0  0  0  0  0  0  0
   -6.7220   -2.1712  -21.2078 N   0  0  0  0  0  0  0  0  0  0  0  0
   -6.2738   -3.4250  -21.7090 C   0  0  0  0  0  0  0  0  0  0  0  0
   -5.3671   -4.0968  -21.1657 O   0  0  0  0  0  0  0  0  0  0  0  0
   -7.0655   -3.7036  -22.9064 C   0  0  0  0  0  0  0  0  0  0  0  0
   -6.3120   -3.6193  -24.2203 C   0  0  0  0  0  0  0  0  0  0  0  0
   -6.2314   -5.0523  -24.3203 N   0  0  0  0  0  0  0  0  0  0  0  0
   -7.2193   -5.1645  -23.2640 C   0  0  0  0  0  0  0  0  0  0  0  0
   -6.1322   -1.3244  -20.2274 C   0  0  0  0  0  0  0  0  0  0  0  0
   -6.5638   -1.3310  -18.9050 C   0  0  0  0  0  0  0  0  0  0  0  0
   -5.9730   -0.5051  -17.9968 N   0  0  0  0  0  0  0  0  0  0  0  0
   -4.9671    0.3202  -18.3838 C   0  0  0  0  0  0  0  0  0  0  0  0
   -4.5284    0.3383  -19.6903 C   0  0  0  0  0  0  0  0  0  0  0  0
   -3.4999    1.1749  -20.1106 C   0  0  0  0  0  0  0  0  0  0  0  0
   -3.0848    1.1674  -21.4295 C   0  0  0  0  0  0  0  0  0  0  0  0
   -3.6599    0.3424  -22.3833 C   0  0  0  0  0  0  0  0  0  0  0  0
   -4.6843   -0.4827  -21.9378 C   0  0  0  0  0  0  0  0  0  0  0  0
   -5.1106   -0.4885  -20.6286 C   0  0  0  0  0  0  0  0  0  0  0  0
   -6.6720   -5.7715  -25.7958 S   0  0  0  0  0  0  0  0  0  0  0  0
   -5.9787   -5.0147  -26.9135 O   0  0  0  0  0  0  0  0  0  0  0  0
   -6.1205   -7.1891  -25.7814 O   0  0  0  0  0  0  0  0  0  0  0  0
   -8.3955   -5.8163  -26.1270 C   0  0  0  0  0  0  0  0  0  0  0  0
   -9.1606   -7.1020  -25.8694 C   0  0  0  0  0  0  0  0  0  0  0  0
   -8.9515   -6.5806  -27.2489 C   0  0  0  0  0  0  0  0  0  0  0  0
  1  2  1  0  0  0
  2  3  1  0  0  0
  3  4  2  0  0  0
  3  5  1  0  0  0
  5 12  1  0  0  0
  5  6  1  0  0  0
 12 13  2  0  0  0
 13 14  1  0  0  0
 14 15  2  0  0  0
 15 16  1  0  0  0
 16 17  2  0  0  0
 17 18  1  0  0  0
 18 19  2  0  0  0
 19 20  1  0  0  0
 20 21  2  0  0  0
 21 12  1  0  0  0
 21 16  1  0  0  0
  6  7  2  0  0  0
  6  8  1  0  0  0
  8  9  1  0  0  0
  8  2  1  0  0  0
  9 10  1  0  0  0
 10 22  1  0  0  0
 10 11  1  0  0  0
 22 23  2  0  0  0
 22 24  2  0  0  0
 22 25  1  0  0  0
 25 26  1  0  0  0
 26 27  1  0  0  0
 27 25  1  0  0  0
 11  8  1  0  0  0
M  END
> <minimizedAffinity>
-7.99797

> <CNNscore>
0.6332936883

> <CNNaffinity>
5.6255221367

> <CNN_VS>
3.5626077652

> <CNNaffinity_variance>
0.0667525604

$$$$



 27 31  0  0  0  0  0  0  0  0999 V2000
   -6.4036   -2.7899  -22.3496 C   0  0  0  0  0  0  0  0  0  0  0  0
   -7.7114   -2.9224  -22.9432 N   0  0  0  0  0  0  0  0  0  0  0  0
   -8.9020   -2.3099  -22.4137 C   0  0  0  0  0  0  0  0  0  0  0  0
   -8.9752   -1.8004  -21.2499 O   0  0  0  0  0  0  0  0  0  0  0  0
   -9.9370   -2.3804  -23.3991 N   0  0  0  0  0  0  0  0  0  0  0  0
   -9.3879   -3.0353  -24.5365 C   0  0  0  0  0  0  0  0  0  0  0  0
   -9.9471   -3.0489  -25.6571 O   0  0  0  0  0  0  0  0  0  0  0  0
   -8.1245   -3.6323  -24.1056 C   0  0  0  0  0  0  0  0  0  0  0  0
   -8.1170   -5.1465  -24.0131 C   0  0  0  0  0  0  0  0  0  0  0  0
   -7.3913   -5.2656  -25.2496 N   0  0  0  0  0  0  0  0  0  0  0  0
   -7.0970   -3.8461  -25.1937 C   0  0  0  0  0  0  0  0  0  0  0  0
  -11.2480   -1.8644  -23.1961 C   0  0  0  0  0  0  0  0  0  0  0  0
  -12.2936   -2.6788  -22.7736 C   0  0  0  0  0  0  0  0  0  0  0  0
  -13.5342   -2.1462  -22.5909 N   0  0  0  0  0  0  0  0  0  0  0  0
  -13.7461   -0.8253  -22.8210 C   0  0  0  0  0  0  0  0  0  0  0  0
  -12.7203   -0.0055  -23.2399 C   0  0  0  0  0  0  0  0  0  0  0  0
  -12.9130    1.3504  -23.4822 C   0  0  0  0  0  0  0  0  0  0  0  0
  -11.8612    2.1439  -23.9017 C   0  0  0  0  0  0  0  0  0  0  0  0
  -10.5851    1.6403  -24.0991 C   0  0  0  0  0  0  0  0  0  0  0  0
  -10.4197    0.2842  -23.8504 C   0  0  0  0  0  0  0  0  0  0  0  0
  -11.4553   -0.5210  -23.4321 C   0  0  0  0  0  0  0  0  0  0  0  0
   -6.0291   -6.2815  -25.2763 S   0  0  0  0  0  0  0  0  0  0  0  0
   -6.2601   -7.3506  -26.3282 O   0  0  0  0  0  0  0  0  0  0  0  0
   -4.8501   -5.4323  -25.7266 O   0  0  0  0  0  0  0  0  0  0  0  0
   -5.6413   -7.0618  -23.7522 C   0  0  0  0  0  0  0  0  0  0  0  0
   -5.2789   -6.1999  -22.5561 C   0  0  0  0  0  0  0  0  0  0  0  0
   -4.2764   -7.0826  -23.2151 C   0  0  0  0  0  0  0  0  0  0  0  0
  1  2  1  0  0  0
  2  3  1  0  0  0
  3  4  2  0  0  0
  3  5  1  0  0  0
  5 12  1  0  0  0
  5  6  1  0  0  0
 12 13  2  0  0  0
 13 14  1  0  0  0
 14 15  2  0  0  0
 15 16  1  0  0  0
 16 17  2  0  0  0
 17 18  1  0  0  0
 18 19  2  0  0  0
 19 20  1  0  0  0
 20 21  2  0  0  0
 21 12  1  0  0  0
 21 16  1  0  0  0
  6  7  2  0  0  0
  6  8  1  0  0  0
  8  9  1  0  0  0
  8  2  1  0  0  0
  9 10  1  0  0  0
 10 22  1  0  0  0
 10 11  1  0  0  0
 22 23  2  0  0  0
 22 24  2  0  0  0
 22 25  1  0  0  0
 25 26  1  0  0  0
 26 27  1  0  0  0
 27 25  1  0  0  0
 11  8  1  0  0  0
M  END
> <minimizedAffinity>
-7.17756

> <CNNscore>
0.5086113214

> <CNNaffinity>
5.5399031639

> <CNN_VS>
2.8176574707

> <CNNaffinity_variance>
0.0910735726

$$$$



 27 31  0  0  0  0  0  0  0  0999 V2000
  -10.3579   -1.4937  -23.5735 C   0  0  0  0  0  0  0  0  0  0  0  0
   -9.0276   -1.6607  -23.0419 N   0  0  0  0  0  0  0  0  0  0  0  0
   -8.4911   -0.8832  -21.9552 C   0  0  0  0  0  0  0  0  0  0  0  0
   -9.0303    0.1831  -21.5174 O   0  0  0  0  0  0  0  0  0  0  0  0
   -7.2934   -1.5089  -21.4848 N   0  0  0  0  0  0  0  0  0  0  0  0
   -7.0891   -2.6716  -22.2788 C   0  0  0  0  0  0  0  0  0  0  0  0
   -6.2700   -3.5710  -21.9808 O   0  0  0  0  0  0  0  0  0  0  0  0
   -7.9927   -2.5603  -23.4231 C   0  0  0  0  0  0  0  0  0  0  0  0
   -7.3236   -2.2965  -24.7588 C   0  0  0  0  0  0  0  0  0  0  0  0
   -7.4839   -3.6678  -25.1634 N   0  0  0  0  0  0  0  0  0  0  0  0
   -8.4053   -3.8675  -24.0607 C   0  0  0  0  0  0  0  0  0  0  0  0
   -6.5105   -0.9950  -20.4129 C   0  0  0  0  0  0  0  0  0  0  0  0
   -6.6806   -1.4432  -19.1070 C   0  0  0  0  0  0  0  0  0  0  0  0
   -5.9109   -0.9259  -18.1089 N   0  0  0  0  0  0  0  0  0  0  0  0
   -4.9822    0.0233  -18.3908 C   0  0  0  0  0  0  0  0  0  0  0  0
   -4.8020    0.4776  -19.6796 C   0  0  0  0  0  0  0  0  0  0  0  0
   -3.8573    1.4491  -19.9929 C   0  0  0  0  0  0  0  0  0  0  0  0
   -3.7030    1.8819  -21.2970 C   0  0  0  0  0  0  0  0  0  0  0  0
   -4.4660    1.3808  -22.3399 C   0  0  0  0  0  0  0  0  0  0  0  0
   -5.4015    0.4124  -22.0003 C   0  0  0  0  0  0  0  0  0  0  0  0
   -5.5689   -0.0306  -20.7074 C   0  0  0  0  0  0  0  0  0  0  0  0
   -8.1318   -3.9704  -26.7051 S   0  0  0  0  0  0  0  0  0  0  0  0
   -9.5602   -3.4585  -26.7239 O   0  0  0  0  0  0  0  0  0  0  0  0
   -7.3274   -3.1422  -27.6956 O   0  0  0  0  0  0  0  0  0  0  0  0
   -8.1270   -5.6526  -27.2074 C   0  0  0  0  0  0  0  0  0  0  0  0
   -8.8660   -6.6745  -26.3622 C   0  0  0  0  0  0  0  0  0  0  0  0
   -7.3808   -6.6805  -26.4736 C   0  0  0  0  0  0  0  0  0  0  0  0
  1  2  1  0  0  0
  2  3  1  0  0  0
  3  4  2  0  0  0
  3  5  1  0  0  0
  5 12  1  0  0  0
  5  6  1  0  0  0
 12 13  2  0  0  0
 13 14  1  0  0  0
 14 15  2  0  0  0
 15 16  1  0  0  0
 16 17  2  0  0  0
 17 18  1  0  0  0
 18 19  2  0  0  0
 19 20  1  0  0  0
 20 21  2  0  0  0
 21 12  1  0  0  0
 21 16  1  0  0  0
  6  7  2  0  0  0
  6  8  1  0  0  0
  8  9  1  0  0  0
  8  2  1  0  0  0
  9 10  1  0  0  0
 10 22  1  0  0  0
 10 11  1  0  0  0
 22 23  2  0  0  0
 22 24  2  0  0  0
 22 25  1  0  0  0
 25 26  1  0  0  0
 26 27  1  0  0  0
 27 25  1  0  0  0
 11  8  1  0  0  0
M  END
> <minimizedAffinity>
-7.75305

> <CNNscore>
0.3988178074

> <CNNaffinity>
5.3860683441

> <CNN_VS>
2.1480600834

> <CNNaffinity_variance>
0.0163530074

$$$$



 27 31  0  0  0  0  0  0  0  0999 V2000
  -11.3816   -2.7813  -23.7491 C   0  0  0  0  0  0  0  0  0  0  0  0
  -10.9693   -1.4121  -23.5611 N   0  0  0  0  0  0  0  0  0  0  0  0
  -11.8566   -0.2827  -23.6619 C   0  0  0  0  0  0  0  0  0  0  0  0
  -13.0247   -0.3461  -24.1628 O   0  0  0  0  0  0  0  0  0  0  0  0
  -11.2049    0.8688  -23.1174 N   0  0  0  0  0  0  0  0  0  0  0  0
   -9.9165    0.4528  -22.6804 C   0  0  0  0  0  0  0  0  0  0  0  0
   -9.1824    1.1519  -21.9448 O   0  0  0  0  0  0  0  0  0  0  0  0
   -9.6884   -0.8728  -23.2539 C   0  0  0  0  0  0  0  0  0  0  0  0
   -8.6449   -0.9368  -24.3531 C   0  0  0  0  0  0  0  0  0  0  0  0
   -7.6686   -1.4993  -23.4585 N   0  0  0  0  0  0  0  0  0  0  0  0
   -8.7235   -1.7564  -22.4964 C   0  0  0  0  0  0  0  0  0  0  0  0
  -11.8079    2.1570  -23.0622 C   0  0  0  0  0  0  0  0  0  0  0  0
  -12.8266    2.4460  -22.1601 C   0  0  0  0  0  0  0  0  0  0  0  0
  -13.3778    3.6917  -22.1388 N   0  0  0  0  0  0  0  0  0  0  0  0
  -12.9324    4.6455  -22.9960 C   0  0  0  0  0  0  0  0  0  0  0  0
  -11.9239    4.3745  -23.8956 C   0  0  0  0  0  0  0  0  0  0  0  0
  -11.4510    5.3349  -24.7835 C   0  0  0  0  0  0  0  0  0  0  0  0
  -10.4376    5.0288  -25.6730 C   0  0  0  0  0  0  0  0  0  0  0  0
   -9.8512    3.7740  -25.7259 C   0  0  0  0  0  0  0  0  0  0  0  0
  -10.3415    2.8337  -24.8292 C   0  0  0  0  0  0  0  0  0  0  0  0
  -11.3498    3.1209  -23.9366 C   0  0  0  0  0  0  0  0  0  0  0  0
   -6.8169   -2.8758  -23.9764 S   0  0  0  0  0  0  0  0  0  0  0  0
   -5.5598   -2.4111  -24.6879 O   0  0  0  0  0  0  0  0  0  0  0  0
   -6.3921   -3.6318  -22.7265 O   0  0  0  0  0  0  0  0  0  0  0  0
   -7.7037   -3.9542  -25.0407 C   0  0  0  0  0  0  0  0  0  0  0  0
   -8.5632   -5.0467  -24.4305 C   0  0  0  0  0  0  0  0  0  0  0  0
   -7.3310   -5.3635  -25.2050 C   0  0  0  0  0  0  0  0  0  0  0  0
  1  2  1  0  0  0
  2  3  1  0  0  0
  3  4  2  0  0  0
  3  5  1  0  0  0
  5 12  1  0  0  0
  5  6  1  0  0  0
 12 13  2  0  0  0
 13 14  1  0  0  0
 14 15  2  0  0  0
 15 16  1  0  0  0
 16 17  2  0  0  0
 17 18  1  0  0  0
 18 19  2  0  0  0
 19 20  1  0  0  0
 20 21  2  0  0  0
 21 12  1  0  0  0
 21 16  1  0  0  0
  6  7  2  0  0  0
  6  8  1  0  0  0
  8  9  1  0  0  0
  8  2  1  0  0  0
  9 10  1  0  0  0
 10 22  1  0  0  0
 10 11  1  0  0  0
 22 23  2  0  0  0
 22 24  2  0  0  0
 22 25  1  0  0  0
 25 26  1  0  0  0
 26 27  1  0  0  0
 27 25  1  0  0  0
 11  8  1  0  0  0
M  END
> <minimizedAffinity>
-6.68035

> <CNNscore>
0.3934695125

> <CNNaffinity>
5.2613310814

> <CNN_VS>
2.0701732635

> <CNNaffinity_variance>
0.0919150487

$$$$



 27 31  0  0  0  0  0  0  0  0999 V2000
   -7.2931   -3.8252  -22.6848 C   0  0  0  0  0  0  0  0  0  0  0  0
   -7.0314   -2.4457  -22.3556 N   0  0  0  0  0  0  0  0  0  0  0  0
   -5.9181   -2.0057  -21.5555 C   0  0  0  0  0  0  0  0  0  0  0  0
   -5.1983   -2.7891  -20.8573 O   0  0  0  0  0  0  0  0  0  0  0  0
   -5.7829   -0.5876  -21.6893 N   0  0  0  0  0  0  0  0  0  0  0  0
   -6.8106   -0.1506  -22.5707 C   0  0  0  0  0  0  0  0  0  0  0  0
   -6.8328    0.9902  -23.0870 O   0  0  0  0  0  0  0  0  0  0  0  0
   -7.7461   -1.2662  -22.7077 C   0  0  0  0  0  0  0  0  0  0  0  0
   -9.0967   -1.0693  -22.0457 C   0  0  0  0  0  0  0  0  0  0  0  0
   -9.7282   -0.7928  -23.3085 N   0  0  0  0  0  0  0  0  0  0  0  0
   -8.5487   -1.2937  -23.9886 C   0  0  0  0  0  0  0  0  0  0  0  0
   -4.7759    0.1690  -21.0263 C   0  0  0  0  0  0  0  0  0  0  0  0
   -4.8949    0.5228  -19.6862 C   0  0  0  0  0  0  0  0  0  0  0  0
   -3.9086    1.2478  -19.0881 N   0  0  0  0  0  0  0  0  0  0  0  0
   -2.8149    1.6220  -19.7998 C   0  0  0  0  0  0  0  0  0  0  0  0
   -2.6825    1.2792  -21.1282 C   0  0  0  0  0  0  0  0  0  0  0  0
   -1.5716    1.6511  -21.8779 C   0  0  0  0  0  0  0  0  0  0  0  0
   -1.4713    1.2901  -23.2088 C   0  0  0  0  0  0  0  0  0  0  0  0
   -2.4526    0.5534  -23.8534 C   0  0  0  0  0  0  0  0  0  0  0  0
   -3.5508    0.1950  -23.0827 C   0  0  0  0  0  0  0  0  0  0  0  0
   -3.6675    0.5456  -21.7564 C   0  0  0  0  0  0  0  0  0  0  0  0
  -11.1707   -1.6147  -23.6719 S   0  0  0  0  0  0  0  0  0  0  0  0
  -10.8929   -2.5673  -24.8200 O   0  0  0  0  0  0  0  0  0  0  0  0
  -11.5267   -2.4488  -22.4506 O   0  0  0  0  0  0  0  0  0  0  0  0
  -12.5323   -0.5930  -24.1012 C   0  0  0  0  0  0  0  0  0  0  0  0
  -12.8278    0.6322  -23.2548 C   0  0  0  0  0  0  0  0  0  0  0  0
  -13.7498   -0.5372  -23.2848 C   0  0  0  0  0  0  0  0  0  0  0  0
  1  2  1  0  0  0
  2  3  1  0  0  0
  3  4  2  0  0  0
  3  5  1  0  0  0
  5 12  1  0  0  0
  5  6  1  0  0  0
 12 13  2  0  0  0
 13 14  1  0  0  0
 14 15  2  0  0  0
 15 16  1  0  0  0
 16 17  2  0  0  0
 17 18  1  0  0  0
 18 19  2  0  0  0
 19 20  1  0  0  0
 20 21  2  0  0  0
 21 12  1  0  0  0
 21 16  1  0  0  0
  6  7  2  0  0  0
  6  8  1  0  0  0
  8  9  1  0  0  0
  8  2  1  0  0  0
  9 10  1  0  0  0
 10 22  1  0  0  0
 10 11  1  0  0  0
 22 23  2  0  0  0
 22 24  2  0  0  0
 22 25  1  0  0  0
 25 26  1  0  0  0
 26 27  1  0  0  0
 27 25  1  0  0  0
 11  8  1  0  0  0
M  END
> <minimizedAffinity>
-7.16133

> <CNNscore>
0.3527556360

> <CNNaffinity>
5.3026666641

> <CNN_VS>
1.8705455065

> <CNNaffinity_variance>
0.0733079985

$$$$



 27 31  0  0  0  0  0  0  0  0999 V2000
   -5.8426   -4.9499  -21.7671 C   0  0  0  0  0  0  0  0  0  0  0  0
   -6.2864   -3.7791  -22.4828 N   0  0  0  0  0  0  0  0  0  0  0  0
   -6.3692   -2.4638  -21.9029 C   0  0  0  0  0  0  0  0  0  0  0  0
   -6.2996   -2.2388  -20.6523 O   0  0  0  0  0  0  0  0  0  0  0  0
   -6.5368   -1.5046  -22.9513 N   0  0  0  0  0  0  0  0  0  0  0  0
   -6.5575   -2.2250  -24.1780 C   0  0  0  0  0  0  0  0  0  0  0  0
   -6.4513   -1.6755  -25.2984 O   0  0  0  0  0  0  0  0  0  0  0  0
   -6.7193   -3.6363  -23.8312 C   0  0  0  0  0  0  0  0  0  0  0  0
   -8.0658   -4.2427  -24.1783 C   0  0  0  0  0  0  0  0  0  0  0  0
   -7.5210   -4.9107  -25.3302 N   0  0  0  0  0  0  0  0  0  0  0  0
   -6.1849   -4.6242  -24.8431 C   0  0  0  0  0  0  0  0  0  0  0  0
   -6.6530   -0.1048  -22.7208 C   0  0  0  0  0  0  0  0  0  0  0  0
   -7.8936    0.5199  -22.6448 C   0  0  0  0  0  0  0  0  0  0  0  0
   -7.9621    1.8624  -22.4226 N   0  0  0  0  0  0  0  0  0  0  0  0
   -6.8223    2.5850  -22.2764 C   0  0  0  0  0  0  0  0  0  0  0  0
   -5.5858    1.9804  -22.3492 C   0  0  0  0  0  0  0  0  0  0  0  0
   -4.4044    2.6995  -22.2028 C   0  0  0  0  0  0  0  0  0  0  0  0
   -3.1806    2.0608  -22.2816 C   0  0  0  0  0  0  0  0  0  0  0  0
   -3.0686    0.6977  -22.5061 C   0  0  0  0  0  0  0  0  0  0  0  0
   -4.2627    0.0033  -22.6488 C   0  0  0  0  0  0  0  0  0  0  0  0
   -5.4901    0.6226  -22.5733 C   0  0  0  0  0  0  0  0  0  0  0  0
   -7.8740   -6.5609  -25.5321 S   0  0  0  0  0  0  0  0  0  0  0  0
   -6.7070   -7.2063  -26.2563 O   0  0  0  0  0  0  0  0  0  0  0  0
   -7.9541   -7.1716  -24.1412 O   0  0  0  0  0  0  0  0  0  0  0  0
   -9.3512   -6.9130  -26.4129 C   0  0  0  0  0  0  0  0  0  0  0  0
   -9.6894   -6.0873  -27.6412 C   0  0  0  0  0  0  0  0  0  0  0  0
  -10.5018   -6.0033  -26.3956 C   0  0  0  0  0  0  0  0  0  0  0  0
  1  2  1  0  0  0
  2  3  1  0  0  0
  3  4  2  0  0  0
  3  5  1  0  0  0
  5 12  1  0  0  0
  5  6  1  0  0  0
 12 13  2  0  0  0
 13 14  1  0  0  0
 14 15  2  0  0  0
 15 16  1  0  0  0
 16 17  2  0  0  0
 17 18  1  0  0  0
 18 19  2  0  0  0
 19 20  1  0  0  0
 20 21  2  0  0  0
 21 12  1  0  0  0
 21 16  1  0  0  0
  6  7  2  0  0  0
  6  8  1  0  0  0
  8  9  1  0  0  0
  8  2  1  0  0  0
  9 10  1  0  0  0
 10 22  1  0  0  0
 10 11  1  0  0  0
 22 23  2  0  0  0
 22 24  2  0  0  0
 22 25  1  0  0  0
 25 26  1  0  0  0
 26 27  1  0  0  0
 27 25  1  0  0  0
 11  8  1  0  0  0
M  END
> <minimizedAffinity>
-6.09971

> <CNNscore>
0.3415353000

> <CNNaffinity>
5.3826575279

> <CNN_VS>
1.8383675814

> <CNNaffinity_variance>
0.0932539552

$$$$



 27 31  0  0  0  0  0  0  0  0999 V2000
   -5.5192    0.5139  -18.3948 C   0  0  0  0  0  0  0  0  0  0  0  0
   -5.8395    0.1614  -19.7561 N   0  0  0  0  0  0  0  0  0  0  0  0
   -6.8670   -0.7774  -20.1245 C   0  0  0  0  0  0  0  0  0  0  0  0
   -7.4259   -1.5704  -19.3010 O   0  0  0  0  0  0  0  0  0  0  0  0
   -7.1268   -0.6541  -21.5261 N   0  0  0  0  0  0  0  0  0  0  0  0
   -6.2615    0.3594  -22.0243 C   0  0  0  0  0  0  0  0  0  0  0  0
   -6.3953    0.8812  -23.1551 O   0  0  0  0  0  0  0  0  0  0  0  0
   -5.2701    0.6132  -20.9799 C   0  0  0  0  0  0  0  0  0  0  0  0
   -3.8625    0.1388  -21.2881 C   0  0  0  0  0  0  0  0  0  0  0  0
   -3.4272    1.4763  -21.5904 N   0  0  0  0  0  0  0  0  0  0  0  0
   -4.6448    1.9896  -20.9916 C   0  0  0  0  0  0  0  0  0  0  0  0
   -8.0917   -1.4409  -22.2160 C   0  0  0  0  0  0  0  0  0  0  0  0
   -7.8668   -2.7837  -22.5013 C   0  0  0  0  0  0  0  0  0  0  0  0
   -8.8159   -3.5025  -23.1636 N   0  0  0  0  0  0  0  0  0  0  0  0
   -9.9759   -2.9077  -23.5424 C   0  0  0  0  0  0  0  0  0  0  0  0
  -10.2134   -1.5783  -23.2671 C   0  0  0  0  0  0  0  0  0  0  0  0
  -11.3937   -0.9471  -23.6450 C   0  0  0  0  0  0  0  0  0  0  0  0
  -11.5991    0.3886  -23.3526 C   0  0  0  0  0  0  0  0  0  0  0  0
  -10.6587    1.1538  -22.6808 C   0  0  0  0  0  0  0  0  0  0  0  0
   -9.4895    0.4999  -22.3149 C   0  0  0  0  0  0  0  0  0  0  0  0
   -9.2680   -0.8293  -22.5977 C   0  0  0  0  0  0  0  0  0  0  0  0
   -1.9871    2.0240  -20.8730 S   0  0  0  0  0  0  0  0  0  0  0  0
   -2.2250    2.1532  -19.3799 O   0  0  0  0  0  0  0  0  0  0  0  0
   -0.9435    0.9378  -21.0860 O   0  0  0  0  0  0  0  0  0  0  0  0
   -1.3755    3.5523  -21.4830 C   0  0  0  0  0  0  0  0  0  0  0  0
   -2.3177    4.7395  -21.5693 C   0  0  0  0  0  0  0  0  0  0  0  0
   -1.7750    4.0827  -22.7911 C   0  0  0  0  0  0  0  0  0  0  0  0
  1  2  1  0  0  0
  2  3  1  0  0  0
  3  4  2  0  0  0
  3  5  1  0  0  0
  5 12  1  0  0  0
  5  6  1  0  0  0
 12 13  2  0  0  0
 13 14  1  0  0  0
 14 15  2  0  0  0
 15 16  1  0  0  0
 16 17  2  0  0  0
 17 18  1  0  0  0
 18 19  2  0  0  0
 19 20  1  0  0  0
 20 21  2  0  0  0
 21 12  1  0  0  0
 21 16  1  0  0  0
  6  7  2  0  0  0
  6  8  1  0  0  0
  8  9  1  0  0  0
  8  2  1  0  0  0
  9 10  1  0  0  0
 10 22  1  0  0  0
 10 11  1  0  0  0
 22 23  2  0  0  0
 22 24  2  0  0  0
 22 25  1  0  0  0
 25 26  1  0  0  0
 26 27  1  0  0  0
 27 25  1  0  0  0
 11  8  1  0  0  0
M  END
> <minimizedAffinity>
-6.66992

> <CNNscore>
0.2594610155

> <CNNaffinity>
5.1836929321

> <CNN_VS>
1.3449661732

> <CNNaffinity_variance>
0.1585236043

$$$$



 27 31  0  0  0  0  0  0  0  0999 V2000
   -6.9032   -2.4709  -21.8716 C   0  0  0  0  0  0  0  0  0  0  0  0
   -7.6714   -1.7060  -22.8229 N   0  0  0  0  0  0  0  0  0  0  0  0
   -8.2616   -0.4243  -22.5367 C   0  0  0  0  0  0  0  0  0  0  0  0
   -8.3799    0.0513  -21.3623 O   0  0  0  0  0  0  0  0  0  0  0  0
   -8.6701    0.1828  -23.7663 N   0  0  0  0  0  0  0  0  0  0  0  0
   -8.3331   -0.7215  -24.8116 C   0  0  0  0  0  0  0  0  0  0  0  0
   -8.3356   -0.4023  -26.0227 O   0  0  0  0  0  0  0  0  0  0  0  0
   -8.0135   -1.9977  -24.1734 C   0  0  0  0  0  0  0  0  0  0  0  0
   -9.0248   -3.1071  -24.3916 C   0  0  0  0  0  0  0  0  0  0  0  0
   -8.1857   -3.7437  -25.3716 N   0  0  0  0  0  0  0  0  0  0  0  0
   -7.0824   -2.9021  -24.9485 C   0  0  0  0  0  0  0  0  0  0  0  0
   -9.2924    1.4609  -23.8398 C   0  0  0  0  0  0  0  0  0  0  0  0
   -8.5479    2.6251  -23.9985 C   0  0  0  0  0  0  0  0  0  0  0  0
   -9.1817    3.8293  -24.0645 N   0  0  0  0  0  0  0  0  0  0  0  0
  -10.5349    3.8896  -23.9754 C   0  0  0  0  0  0  0  0  0  0  0  0
  -11.2864    2.7449  -23.8179 C   0  0  0  0  0  0  0  0  0  0  0  0
  -12.6735    2.7814  -23.7241 C   0  0  0  0  0  0  0  0  0  0  0  0
  -13.3964    1.6133  -23.5665 C   0  0  0  0  0  0  0  0  0  0  0  0
  -12.7892    0.3694  -23.4950 C   0  0  0  0  0  0  0  0  0  0  0  0
  -11.4039    0.3608  -23.5911 C   0  0  0  0  0  0  0  0  0  0  0  0
  -10.6680    1.5138  -23.7484 C   0  0  0  0  0  0  0  0  0  0  0  0
   -7.9143   -5.4146  -25.2197 S   0  0  0  0  0  0  0  0  0  0  0  0
   -6.5212   -5.7142  -25.7414 O   0  0  0  0  0  0  0  0  0  0  0  0
   -7.9334   -5.7345  -23.7326 O   0  0  0  0  0  0  0  0  0  0  0  0
   -9.0651   -6.4437  -26.0556 C   0  0  0  0  0  0  0  0  0  0  0  0
   -9.4874   -6.0790  -27.4674 C   0  0  0  0  0  0  0  0  0  0  0  0
  -10.4409   -6.0119  -26.3251 C   0  0  0  0  0  0  0  0  0  0  0  0
  1  2  1  0  0  0
  2  3  1  0  0  0
  3  4  2  0  0  0
  3  5  1  0  0  0
  5 12  1  0  0  0
  5  6  1  0  0  0
 12 13  2  0  0  0
 13 14  1  0  0  0
 14 15  2  0  0  0
 15 16  1  0  0  0
 16 17  2  0  0  0
 17 18  1  0  0  0
 18 19  2  0  0  0
 19 20  1  0  0  0
 20 21  2  0  0  0
 21 12  1  0  0  0
 21 16  1  0  0  0
  6  7  2  0  0  0
  6  8  1  0  0  0
  8  9  1  0  0  0
  8  2  1  0  0  0
  9 10  1  0  0  0
 10 22  1  0  0  0
 10 11  1  0  0  0
 22 23  2  0  0  0
 22 24  2  0  0  0
 22 25  1  0  0  0
 25 26  1  0  0  0
 26 27  1  0  0  0
 27 25  1  0  0  0
 11  8  1  0  0  0
M  END
> <minimizedAffinity>
-7.00035

> <CNNscore>
0.2533724308

> <CNNaffinity>
5.2263689041

> <CNN_VS>
1.3242177963

> <CNNaffinity_variance>
0.0936302394

$$$$



 36 41  0  0  0  0  0  0  0  0999 V2000
  -10.0649    3.2127  -24.3621 N   0  0  0  0  0  0  0  0  0  0  0  0
   -8.8610    2.4462  -24.2176 C   0  0  0  0  0  0  0  0  0  0  0  0
   -8.9948    1.0468  -23.7543 C   0  0  0  0  0  0  0  0  0  0  0  0
   -8.2934    0.9450  -22.4343 C   0  0  0  0  0  0  0  0  0  0  0  0
   -8.9134    1.0920  -21.3543 O   0  0  0  0  0  0  0  0  0  0  0  0
   -6.8934    0.6708  -22.6505 N   0  0  0  0  0  0  0  0  0  0  0  0
   -6.7573    0.6088  -24.0840 C   0  0  0  0  0  0  0  0  0  0  0  0
   -8.1414    0.0761  -24.5411 C   0  0  0  0  0  0  0  0  0  0  0  0
   -8.3080    0.2166  -26.0182 C   0  0  0  0  0  0  0  0  0  0  0  0
  -10.3673    0.5127  -23.6947 C   0  0  0  0  0  0  0  0  0  0  0  0
  -10.5917   -0.8064  -23.3511 C   0  0  0  0  0  0  0  0  0  0  0  0
  -11.8873   -1.3384  -23.2926 C   0  0  0  0  0  0  0  0  0  0  0  0
  -12.1463   -3.0141  -22.8547 Cl  0  0  0  0  0  0  0  0  0  0  0  0
  -12.9950   -0.5636  -23.5760 C   0  0  0  0  0  0  0  0  0  0  0  0
  -12.7774    0.7413  -23.9154 C   0  0  0  0  0  0  0  0  0  0  0  0
  -11.5012    1.2623  -23.9720 C   0  0  0  0  0  0  0  0  0  0  0  0
  -11.3791    2.6691  -24.3230 C   0  0  0  0  0  0  0  0  0  0  0  0
  -12.4114    3.3416  -24.5729 O   0  0  0  0  0  0  0  0  0  0  0  0
   -6.0058    0.4759  -21.5728 C   0  0  0  0  0  0  0  0  0  0  0  0
   -6.1972   -0.6021  -20.6941 C   0  0  0  0  0  0  0  0  0  0  0  0
   -5.3812   -0.8080  -19.6388 N   0  0  0  0  0  0  0  0  0  0  0  0
   -4.3407   -0.0258  -19.3378 C   0  0  0  0  0  0  0  0  0  0  0  0
   -4.1074    1.0504  -20.1702 C   0  0  0  0  0  0  0  0  0  0  0  0
   -3.0461    1.8643  -19.8544 C   0  0  0  0  0  0  0  0  0  0  0  0
   -2.7535    2.9682  -20.6240 C   0  0  0  0  0  0  0  0  0  0  0  0
   -3.5682    3.2072  -21.7070 C   0  0  0  0  0  0  0  0  0  0  0  0
   -4.6278    2.3935  -22.0218 C   0  0  0  0  0  0  0  0  0  0  0  0
   -4.9369    1.2870  -21.2696 C   0  0  0  0  0  0  0  0  0  0  0  0
   -9.9622    4.6409  -24.5848 C   0  0  0  0  0  0  0  0  0  0  0  0
  -10.7259    5.5169  -23.5316 C   0  0  0  0  0  0  0  0  0  0  0  0
   -9.2453    5.4510  -23.6104 C   0  0  0  0  0  0  0  0  0  0  0  0
  -11.7027    5.8375  -27.8401 C   0  0  0  0  0  0  0  0  0  0  0  0
  -11.5066    5.3824  -26.4625 N   0  0  0  0  0  0  0  0  0  0  0  0
  -10.1919    5.1097  -25.9959 C   0  0  0  0  0  0  0  0  0  0  0  0
   -9.2537    5.2754  -26.8014 O   0  0  0  0  0  0  0  0  0  0  0  0
  -12.2794    5.2660  -25.8638 H   0  0  0  0  0  0  0  0  0  0  0  0
 32 33  1  0  0  0
 33 34  1  0  0  0
 33 36  1  0  0  0
 34 35  2  0  0  0
 34 29  1  0  0  0
 29  1  1  0  0  0
 29 30  1  0  0  0
  1  2  1  0  0  0
  3  2  1  0  0  0
  3  4  1  0  0  0
  3 10  1  0  0  0
  4  5  2  0  0  0
  4  6  1  0  0  0
  6 19  1  0  0  0
  6  7  1  0  0  0
 19 20  2  0  0  0
 20 21  1  0  0  0
 21 22  2  0  0  0
 22 23  1  0  0  0
 23 24  2  0  0  0
 24 25  1  0  0  0
 25 26  2  0  0  0
 26 27  1  0  0  0
 27 28  2  0  0  0
 28 19  1  0  0  0
 28 23  1  0  0  0
  7  8  1  0  0  0
  8  9  1  0  0  0
  8  3  1  0  0  0
 10 11  2  0  0  0
 11 12  1  0  0  0
 12 13  1  0  0  0
 12 14  2  0  0  0
 14 15  1  0  0  0
 15 16  2  0  0  0
 16 17  1  0  0  0
 16 10  1  0  0  0
 17 18  2  0  0  0
 17  1  1  0  0  0
 30 31  1  0  0  0
 31 29  1  0  0  0
M  END
> <minimizedAffinity>
-7.57631

> <CNNscore>
0.4805249572

> <CNNaffinity>
6.3380727768

> <CNN_VS>
3.0456020832

> <CNNaffinity_variance>
0.1691868156

$$$$



 36 41  0  0  0  0  0  0  0  0999 V2000
   -6.5535   -3.4171  -23.1553 N   0  0  0  0  0  0  0  0  0  0  0  0
   -6.8186   -2.0885  -23.6265 C   0  0  0  0  0  0  0  0  0  0  0  0
   -6.7577   -0.9890  -22.6373 C   0  0  0  0  0  0  0  0  0  0  0  0
   -8.1295   -0.3931  -22.5479 C   0  0  0  0  0  0  0  0  0  0  0  0
   -8.9527   -0.7805  -21.6850 O   0  0  0  0  0  0  0  0  0  0  0  0
   -8.2845    0.6183  -23.5651 N   0  0  0  0  0  0  0  0  0  0  0  0
   -7.0200    0.6286  -24.2564 C   0  0  0  0  0  0  0  0  0  0  0  0
   -6.0139    0.2269  -23.1451 C   0  0  0  0  0  0  0  0  0  0  0  0
   -4.6792   -0.1054  -23.7259 C   0  0  0  0  0  0  0  0  0  0  0  0
   -6.2189   -1.3402  -21.3110 C   0  0  0  0  0  0  0  0  0  0  0  0
   -6.0474   -0.3682  -20.3445 C   0  0  0  0  0  0  0  0  0  0  0  0
   -5.5322   -0.6769  -19.0779 C   0  0  0  0  0  0  0  0  0  0  0  0
   -5.3237    0.5730  -17.8692 Cl  0  0  0  0  0  0  0  0  0  0  0  0
   -5.1748   -1.9684  -18.7435 C   0  0  0  0  0  0  0  0  0  0  0  0
   -5.3435   -2.9325  -19.6961 C   0  0  0  0  0  0  0  0  0  0  0  0
   -5.8510   -2.6258  -20.9419 C   0  0  0  0  0  0  0  0  0  0  0  0
   -6.0114   -3.7287  -21.8773 C   0  0  0  0  0  0  0  0  0  0  0  0
   -5.6756   -4.8908  -21.5352 O   0  0  0  0  0  0  0  0  0  0  0  0
   -9.4675    1.3771  -23.6753 C   0  0  0  0  0  0  0  0  0  0  0  0
   -9.3962    2.7765  -23.7620 C   0  0  0  0  0  0  0  0  0  0  0  0
  -10.5080    3.5375  -23.8465 N   0  0  0  0  0  0  0  0  0  0  0  0
  -11.7496    3.0442  -23.8554 C   0  0  0  0  0  0  0  0  0  0  0  0
  -11.8768    1.6722  -23.7717 C   0  0  0  0  0  0  0  0  0  0  0  0
  -13.1535    1.1636  -23.7667 C   0  0  0  0  0  0  0  0  0  0  0  0
  -13.3692   -0.1931  -23.6705 C   0  0  0  0  0  0  0  0  0  0  0  0
  -12.2559   -0.9969  -23.5809 C   0  0  0  0  0  0  0  0  0  0  0  0
  -10.9811   -0.4880  -23.5864 C   0  0  0  0  0  0  0  0  0  0  0  0
  -10.7425    0.8609  -23.6829 C   0  0  0  0  0  0  0  0  0  0  0  0
   -6.8297   -4.5380  -24.0313 C   0  0  0  0  0  0  0  0  0  0  0  0
   -7.7159   -5.6601  -23.3869 C   0  0  0  0  0  0  0  0  0  0  0  0
   -8.2005   -4.7643  -24.4664 C   0  0  0  0  0  0  0  0  0  0  0  0
   -3.6512   -6.5760  -24.9262 C   0  0  0  0  0  0  0  0  0  0  0  0
   -4.7895   -6.0474  -24.1726 N   0  0  0  0  0  0  0  0  0  0  0  0
   -5.6525   -5.0972  -24.7832 C   0  0  0  0  0  0  0  0  0  0  0  0
   -5.3895   -4.7555  -25.9538 O   0  0  0  0  0  0  0  0  0  0  0  0
   -4.9561   -6.3477  -23.2500 H   0  0  0  0  0  0  0  0  0  0  0  0
 32 33  1  0  0  0
 33 34  1  0  0  0
 33 36  1  0  0  0
 34 35  2  0  0  0
 34 29  1  0  0  0
 29  1  1  0  0  0
 29 30  1  0  0  0
  1  2  1  0  0  0
  3  2  1  0  0  0
  3  4  1  0  0  0
  3 10  1  0  0  0
  4  5  2  0  0  0
  4  6  1  0  0  0
  6 19  1  0  0  0
  6  7  1  0  0  0
 19 20  2  0  0  0
 20 21  1  0  0  0
 21 22  2  0  0  0
 22 23  1  0  0  0
 23 24  2  0  0  0
 24 25  1  0  0  0
 25 26  2  0  0  0
 26 27  1  0  0  0
 27 28  2  0  0  0
 28 19  1  0  0  0
 28 23  1  0  0  0
  7  8  1  0  0  0
  8  9  1  0  0  0
  8  3  1  0  0  0
 10 11  2  0  0  0
 11 12  1  0  0  0
 12 13  1  0  0  0
 12 14  2  0  0  0
 14 15  1  0  0  0
 15 16  2  0  0  0
 16 17  1  0  0  0
 16 10  1  0  0  0
 17 18  2  0  0  0
 17  1  1  0  0  0
 30 31  1  0  0  0
 31 29  1  0  0  0
M  END
> <minimizedAffinity>
-8.40489

> <CNNscore>
0.3395409584

> <CNNaffinity>
6.3533873558

> <CNN_VS>
2.1572351456

> <CNNaffinity_variance>
0.0678231716

$$$$



 36 41  0  0  0  0  0  0  0  0999 V2000
   -8.0523   -2.5144  -23.5818 N   0  0  0  0  0  0  0  0  0  0  0  0
   -8.0549   -1.1902  -24.1333 C   0  0  0  0  0  0  0  0  0  0  0  0
   -7.3750   -0.1274  -23.3592 C   0  0  0  0  0  0  0  0  0  0  0  0
   -8.4174    0.8746  -22.9666 C   0  0  0  0  0  0  0  0  0  0  0  0
   -9.0069    0.8025  -21.8622 O   0  0  0  0  0  0  0  0  0  0  0  0
   -8.5816    1.8414  -24.0251 N   0  0  0  0  0  0  0  0  0  0  0  0
   -7.6481    1.4235  -25.0405 C   0  0  0  0  0  0  0  0  0  0  0  0
   -6.5079    0.7694  -24.2154 C   0  0  0  0  0  0  0  0  0  0  0  0
   -5.5756    0.0090  -25.0996 C   0  0  0  0  0  0  0  0  0  0  0  0
   -6.5766   -0.5772  -22.2046 C   0  0  0  0  0  0  0  0  0  0  0  0
   -5.8404    0.3288  -21.4661 C   0  0  0  0  0  0  0  0  0  0  0  0
   -5.0697   -0.0756  -20.3673 C   0  0  0  0  0  0  0  0  0  0  0  0
   -4.1444    1.0920  -19.4466 Cl  0  0  0  0  0  0  0  0  0  0  0  0
   -5.0152   -1.3993  -19.9768 C   0  0  0  0  0  0  0  0  0  0  0  0
   -5.7423   -2.2981  -20.7039 C   0  0  0  0  0  0  0  0  0  0  0  0
   -6.5002   -1.8972  -21.7849 C   0  0  0  0  0  0  0  0  0  0  0  0
   -7.2545   -2.9296  -22.4794 C   0  0  0  0  0  0  0  0  0  0  0  0
   -7.1799   -4.1235  -22.0929 O   0  0  0  0  0  0  0  0  0  0  0  0
   -9.4679    2.9301  -23.8975 C   0  0  0  0  0  0  0  0  0  0  0  0
   -8.9673    4.2415  -23.8732 C   0  0  0  0  0  0  0  0  0  0  0  0
   -9.7829    5.3075  -23.7304 N   0  0  0  0  0  0  0  0  0  0  0  0
  -11.1098    5.2185  -23.6019 C   0  0  0  0  0  0  0  0  0  0  0  0
  -11.6549    3.9504  -23.6187 C   0  0  0  0  0  0  0  0  0  0  0  0
  -13.0180    3.8556  -23.4726 C   0  0  0  0  0  0  0  0  0  0  0  0
  -13.6402    2.6271  -23.4629 C   0  0  0  0  0  0  0  0  0  0  0  0
  -12.8361    1.5195  -23.6046 C   0  0  0  0  0  0  0  0  0  0  0  0
  -11.4746    1.6151  -23.7508 C   0  0  0  0  0  0  0  0  0  0  0  0
  -10.8334    2.8294  -23.7648 C   0  0  0  0  0  0  0  0  0  0  0  0
   -8.8983   -3.5248  -24.1847 C   0  0  0  0  0  0  0  0  0  0  0  0
   -8.5971   -3.8020  -25.6986 C   0  0  0  0  0  0  0  0  0  0  0  0
   -8.2926   -4.7751  -24.6201 C   0  0  0  0  0  0  0  0  0  0  0  0
  -12.2746   -2.6578  -22.4801 C   0  0  0  0  0  0  0  0  0  0  0  0
  -10.8354   -2.7576  -22.7289 N   0  0  0  0  0  0  0  0  0  0  0  0
  -10.3719   -3.4085  -23.9045 C   0  0  0  0  0  0  0  0  0  0  0  0
  -11.2335   -3.8710  -24.6792 O   0  0  0  0  0  0  0  0  0  0  0  0
  -10.1935   -2.3769  -22.0870 H   0  0  0  0  0  0  0  0  0  0  0  0
 32 33  1  0  0  0
 33 34  1  0  0  0
 33 36  1  0  0  0
 34 35  2  0  0  0
 34 29  1  0  0  0
 29  1  1  0  0  0
 29 30  1  0  0  0
  1  2  1  0  0  0
  3  2  1  0  0  0
  3  4  1  0  0  0
  3 10  1  0  0  0
  4  5  2  0  0  0
  4  6  1  0  0  0
  6 19  1  0  0  0
  6  7  1  0  0  0
 19 20  2  0  0  0
 20 21  1  0  0  0
 21 22  2  0  0  0
 22 23  1  0  0  0
 23 24  2  0  0  0
 24 25  1  0  0  0
 25 26  2  0  0  0
 26 27  1  0  0  0
 27 28  2  0  0  0
 28 19  1  0  0  0
 28 23  1  0  0  0
  7  8  1  0  0  0
  8  9  1  0  0  0
  8  3  1  0  0  0
 10 11  2  0  0  0
 11 12  1  0  0  0
 12 13  1  0  0  0
 12 14  2  0  0  0
 14 15  1  0  0  0
 15 16  2  0  0  0
 16 17  1  0  0  0
 16 10  1  0  0  0
 17 18  2  0  0  0
 17  1  1  0  0  0
 30 31  1  0  0  0
 31 29  1  0  0  0
M  END
> <minimizedAffinity>
-8.63880

> <CNNscore>
0.2777816057

> <CNNaffinity>
6.2278666496

> <CNN_VS>
1.7299867868

> <CNNaffinity_variance>
0.1200880259

$$$$



 36 41  0  0  0  0  0  0  0  0999 V2000
   -4.7956    2.0178  -22.5889 N   0  0  0  0  0  0  0  0  0  0  0  0
   -5.7270    1.2401  -23.3540 C   0  0  0  0  0  0  0  0  0  0  0  0
   -7.0292    1.8631  -23.6810 C   0  0  0  0  0  0  0  0  0  0  0  0
   -8.0939    1.0485  -23.0118 C   0  0  0  0  0  0  0  0  0  0  0  0
   -8.5254    1.3498  -21.8737 O   0  0  0  0  0  0  0  0  0  0  0  0
   -8.4762   -0.0464  -23.8703 N   0  0  0  0  0  0  0  0  0  0  0  0
   -7.6500    0.1103  -25.0408 C   0  0  0  0  0  0  0  0  0  0  0  0
   -7.4472    1.6469  -25.1190 C   0  0  0  0  0  0  0  0  0  0  0  0
   -6.3749    1.9962  -26.0976 C   0  0  0  0  0  0  0  0  0  0  0  0
   -7.1554    3.2992  -23.3736 C   0  0  0  0  0  0  0  0  0  0  0  0
   -8.3022    3.9904  -23.7135 C   0  0  0  0  0  0  0  0  0  0  0  0
   -8.4435    5.3572  -23.4362 C   0  0  0  0  0  0  0  0  0  0  0  0
   -9.9070    6.2118  -23.8772 Cl  0  0  0  0  0  0  0  0  0  0  0  0
   -7.4400    6.0702  -22.8097 C   0  0  0  0  0  0  0  0  0  0  0  0
   -6.3049    5.3902  -22.4714 C   0  0  0  0  0  0  0  0  0  0  0  0
   -6.1686    4.0448  -22.7454 C   0  0  0  0  0  0  0  0  0  0  0  0
   -4.9290    3.4094  -22.3251 C   0  0  0  0  0  0  0  0  0  0  0  0
   -4.0396    4.0921  -21.7564 O   0  0  0  0  0  0  0  0  0  0  0  0
   -9.4993   -0.9453  -23.5064 C   0  0  0  0  0  0  0  0  0  0  0  0
   -9.1802   -2.2706  -23.1709 C   0  0  0  0  0  0  0  0  0  0  0  0
  -10.1346   -3.1656  -22.8387 N   0  0  0  0  0  0  0  0  0  0  0  0
  -11.4397   -2.8827  -22.7986 C   0  0  0  0  0  0  0  0  0  0  0  0
  -11.8088   -1.5921  -23.1206 C   0  0  0  0  0  0  0  0  0  0  0  0
  -13.1520   -1.3026  -23.0936 C   0  0  0  0  0  0  0  0  0  0  0  0
  -13.6062   -0.0432  -23.4163 C   0  0  0  0  0  0  0  0  0  0  0  0
  -12.6580    0.8924  -23.7615 C   0  0  0  0  0  0  0  0  0  0  0  0
  -11.3166    0.6024  -23.7879 C   0  0  0  0  0  0  0  0  0  0  0  0
  -10.8413   -0.6457  -23.4685 C   0  0  0  0  0  0  0  0  0  0  0  0
   -3.6164    1.3681  -22.0527 C   0  0  0  0  0  0  0  0  0  0  0  0
   -3.0864    0.1721  -22.9178 C   0  0  0  0  0  0  0  0  0  0  0  0
   -2.3669    1.4642  -22.7938 C   0  0  0  0  0  0  0  0  0  0  0  0
   -4.8129    0.1634  -18.5636 C   0  0  0  0  0  0  0  0  0  0  0  0
   -4.8076    0.4692  -19.9952 N   0  0  0  0  0  0  0  0  0  0  0  0
   -3.6485    1.0441  -20.5838 C   0  0  0  0  0  0  0  0  0  0  0  0
   -2.6757    1.2633  -19.8342 O   0  0  0  0  0  0  0  0  0  0  0  0
   -5.6008    0.2781  -20.5461 H   0  0  0  0  0  0  0  0  0  0  0  0
 32 33  1  0  0  0
 33 34  1  0  0  0
 33 36  1  0  0  0
 34 35  2  0  0  0
 34 29  1  0  0  0
 29  1  1  0  0  0
 29 30  1  0  0  0
  1  2  1  0  0  0
  3  2  1  0  0  0
  3  4  1  0  0  0
  3 10  1  0  0  0
  4  5  2  0  0  0
  4  6  1  0  0  0
  6 19  1  0  0  0
  6  7  1  0  0  0
 19 20  2  0  0  0
 20 21  1  0  0  0
 21 22  2  0  0  0
 22 23  1  0  0  0
 23 24  2  0  0  0
 24 25  1  0  0  0
 25 26  2  0  0  0
 26 27  1  0  0  0
 27 28  2  0  0  0
 28 19  1  0  0  0
 28 23  1  0  0  0
  7  8  1  0  0  0
  8  9  1  0  0  0
  8  3  1  0  0  0
 10 11  2  0  0  0
 11 12  1  0  0  0
 12 13  1  0  0  0
 12 14  2  0  0  0
 14 15  1  0  0  0
 15 16  2  0  0  0
 16 17  1  0  0  0
 16 10  1  0  0  0
 17 18  2  0  0  0
 17  1  1  0  0  0
 30 31  1  0  0  0
 31 29  1  0  0  0
M  END
> <minimizedAffinity>
-7.53306

> <CNNscore>
0.2473415434

> <CNNaffinity>
5.9549493790

> <CNN_VS>
1.4729063511

> <CNNaffinity_variance>
0.0307719298

$$$$



 36 41  0  0  0  0  0  0  0  0999 V2000
   -6.1627    1.1973  -23.5528 N   0  0  0  0  0  0  0  0  0  0  0  0
   -6.2433    0.1834  -24.5643 C   0  0  0  0  0  0  0  0  0  0  0  0
   -7.5675   -0.4303  -24.8111 C   0  0  0  0  0  0  0  0  0  0  0  0
   -7.4572   -1.8836  -24.4637 C   0  0  0  0  0  0  0  0  0  0  0  0
   -7.7597   -2.3051  -23.3222 O   0  0  0  0  0  0  0  0  0  0  0  0
   -6.9759   -2.6191  -25.6080 N   0  0  0  0  0  0  0  0  0  0  0  0
   -6.7998   -1.6179  -26.6296 C   0  0  0  0  0  0  0  0  0  0  0  0
   -7.8922   -0.5718  -26.2821 C   0  0  0  0  0  0  0  0  0  0  0  0
   -7.6865    0.6922  -27.0497 C   0  0  0  0  0  0  0  0  0  0  0  0
   -8.7138    0.2130  -24.1442 C   0  0  0  0  0  0  0  0  0  0  0  0
  -10.0002   -0.2356  -24.3736 C   0  0  0  0  0  0  0  0  0  0  0  0
  -11.1064    0.3631  -23.7552 C   0  0  0  0  0  0  0  0  0  0  0  0
  -12.7277   -0.2234  -24.0622 Cl  0  0  0  0  0  0  0  0  0  0  0  0
  -10.9554    1.4281  -22.8887 C   0  0  0  0  0  0  0  0  0  0  0  0
   -9.6851    1.8741  -22.6586 C   0  0  0  0  0  0  0  0  0  0  0  0
   -8.5981    1.2827  -23.2686 C   0  0  0  0  0  0  0  0  0  0  0  0
   -7.2861    1.8192  -22.9401 C   0  0  0  0  0  0  0  0  0  0  0  0
   -7.1895    2.7888  -22.1457 O   0  0  0  0  0  0  0  0  0  0  0  0
   -6.8262   -4.0204  -25.5733 C   0  0  0  0  0  0  0  0  0  0  0  0
   -5.5642   -4.5839  -25.3269 C   0  0  0  0  0  0  0  0  0  0  0  0
   -5.3780   -5.9207  -25.3079 N   0  0  0  0  0  0  0  0  0  0  0  0
   -6.3515   -6.8116  -25.5164 C   0  0  0  0  0  0  0  0  0  0  0  0
   -7.6137   -6.3105  -25.7642 C   0  0  0  0  0  0  0  0  0  0  0  0
   -8.6138   -7.2249  -25.9928 C   0  0  0  0  0  0  0  0  0  0  0  0
   -9.8984   -6.8087  -26.2630 C   0  0  0  0  0  0  0  0  0  0  0  0
  -10.1213   -5.4511  -26.2915 C   0  0  0  0  0  0  0  0  0  0  0  0
   -9.1217   -4.5385  -26.0627 C   0  0  0  0  0  0  0  0  0  0  0  0
   -7.8343   -4.9309  -25.7900 C   0  0  0  0  0  0  0  0  0  0  0  0
   -4.8563    1.6524  -23.1212 C   0  0  0  0  0  0  0  0  0  0  0  0
   -3.7651    1.6493  -24.2476 C   0  0  0  0  0  0  0  0  0  0  0  0
   -4.3315    2.8941  -23.6710 C   0  0  0  0  0  0  0  0  0  0  0  0
   -3.4311    1.3430  -19.5253 C   0  0  0  0  0  0  0  0  0  0  0  0
   -3.9214    1.9293  -20.7739 N   0  0  0  0  0  0  0  0  0  0  0  0
   -4.3479    1.0761  -21.8277 C   0  0  0  0  0  0  0  0  0  0  0  0
   -4.2804   -0.1539  -21.6300 O   0  0  0  0  0  0  0  0  0  0  0  0
   -3.9556    2.9072  -20.8829 H   0  0  0  0  0  0  0  0  0  0  0  0
 32 33  1  0  0  0
 33 34  1  0  0  0
 33 36  1  0  0  0
 34 35  2  0  0  0
 34 29  1  0  0  0
 29  1  1  0  0  0
 29 30  1  0  0  0
  1  2  1  0  0  0
  3  2  1  0  0  0
  3  4  1  0  0  0
  3 10  1  0  0  0
  4  5  2  0  0  0
  4  6  1  0  0  0
  6 19  1  0  0  0
  6  7  1  0  0  0
 19 20  2  0  0  0
 20 21  1  0  0  0
 21 22  2  0  0  0
 22 23  1  0  0  0
 23 24  2  0  0  0
 24 25  1  0  0  0
 25 26  2  0  0  0
 26 27  1  0  0  0
 27 28  2  0  0  0
 28 19  1  0  0  0
 28 23  1  0  0  0
  7  8  1  0  0  0
  8  9  1  0  0  0
  8  3  1  0  0  0
 10 11  2  0  0  0
 11 12  1  0  0  0
 12 13  1  0  0  0
 12 14  2  0  0  0
 14 15  1  0  0  0
 15 16  2  0  0  0
 16 17  1  0  0  0
 16 10  1  0  0  0
 17 18  2  0  0  0
 17  1  1  0  0  0
 30 31  1  0  0  0
 31 29  1  0  0  0
M  END
> <minimizedAffinity>
-6.20308

> <CNNscore>
0.1822798252

> <CNNaffinity>
6.0170640945

> <CNN_VS>
1.0967893600

> <CNNaffinity_variance>
0.2346544713

$$$$



 36 41  0  0  0  0  0  0  0  0999 V2000
   -6.4054    0.0533  -23.0064 N   0  0  0  0  0  0  0  0  0  0  0  0
   -6.5225   -0.5979  -24.2791 C   0  0  0  0  0  0  0  0  0  0  0  0
   -7.8872   -0.8823  -24.7768 C   0  0  0  0  0  0  0  0  0  0  0  0
   -8.0240   -2.3710  -24.8773 C   0  0  0  0  0  0  0  0  0  0  0  0
   -8.5034   -3.0459  -23.9355 O   0  0  0  0  0  0  0  0  0  0  0  0
   -7.5343   -2.8161  -26.1595 N   0  0  0  0  0  0  0  0  0  0  0  0
   -7.1089   -1.6078  -26.8200 C   0  0  0  0  0  0  0  0  0  0  0  0
   -8.0707   -0.5376  -26.2386 C   0  0  0  0  0  0  0  0  0  0  0  0
   -7.6055    0.8404  -26.5765 C   0  0  0  0  0  0  0  0  0  0  0  0
   -8.9938   -0.2747  -24.0159 C   0  0  0  0  0  0  0  0  0  0  0  0
  -10.2994   -0.4148  -24.4451 C   0  0  0  0  0  0  0  0  0  0  0  0
  -11.3678    0.1580  -23.7413 C   0  0  0  0  0  0  0  0  0  0  0  0
  -13.0145   -0.0334  -24.3057 Cl  0  0  0  0  0  0  0  0  0  0  0  0
  -11.1585    0.8871  -22.5871 C   0  0  0  0  0  0  0  0  0  0  0  0
   -9.8692    1.0274  -22.1590 C   0  0  0  0  0  0  0  0  0  0  0  0
   -8.8195    0.4623  -22.8536 C   0  0  0  0  0  0  0  0  0  0  0  0
   -7.4866    0.6525  -22.3021 C   0  0  0  0  0  0  0  0  0  0  0  0
   -7.3370    1.3216  -21.2484 O   0  0  0  0  0  0  0  0  0  0  0  0
   -7.5916   -4.1723  -26.5396 C   0  0  0  0  0  0  0  0  0  0  0  0
   -8.7457   -4.6778  -27.1588 C   0  0  0  0  0  0  0  0  0  0  0  0
   -8.8457   -5.9754  -27.5169 N   0  0  0  0  0  0  0  0  0  0  0  0
   -7.8810   -6.8788  -27.3213 C   0  0  0  0  0  0  0  0  0  0  0  0
   -6.7233   -6.4343  -26.7148 C   0  0  0  0  0  0  0  0  0  0  0  0
   -5.7352   -7.3649  -26.5000 C   0  0  0  0  0  0  0  0  0  0  0  0
   -4.5549   -7.0080  -25.8868 C   0  0  0  0  0  0  0  0  0  0  0  0
   -4.4221   -5.6918  -25.5075 C   0  0  0  0  0  0  0  0  0  0  0  0
   -5.4096   -4.7630  -25.7228 C   0  0  0  0  0  0  0  0  0  0  0  0
   -6.5935   -5.0962  -26.3336 C   0  0  0  0  0  0  0  0  0  0  0  0
   -5.1005    0.1380  -22.3816 C   0  0  0  0  0  0  0  0  0  0  0  0
   -3.8962   -0.0058  -23.3758 C   0  0  0  0  0  0  0  0  0  0  0  0
   -4.2437    1.2704  -22.7026 C   0  0  0  0  0  0  0  0  0  0  0  0
   -5.3011   -2.7324  -19.7782 C   0  0  0  0  0  0  0  0  0  0  0  0
   -5.5007   -1.9622  -21.0070 N   0  0  0  0  0  0  0  0  0  0  0  0
   -4.9114   -0.6745  -21.1295 C   0  0  0  0  0  0  0  0  0  0  0  0
   -4.2410   -0.2586  -20.1631 O   0  0  0  0  0  0  0  0  0  0  0  0
   -6.0390   -2.3333  -21.7431 H   0  0  0  0  0  0  0  0  0  0  0  0
 32 33  1  0  0  0
 33 34  1  0  0  0
 33 36  1  0  0  0
 34 35  2  0  0  0
 34 29  1  0  0  0
 29  1  1  0  0  0
 29 30  1  0  0  0
  1  2  1  0  0  0
  3  2  1  0  0  0
  3  4  1  0  0  0
  3 10  1  0  0  0
  4  5  2  0  0  0
  4  6  1  0  0  0
  6 19  1  0  0  0
  6  7  1  0  0  0
 19 20  2  0  0  0
 20 21  1  0  0  0
 21 22  2  0  0  0
 22 23  1  0  0  0
 23 24  2  0  0  0
 24 25  1  0  0  0
 25 26  2  0  0  0
 26 27  1  0  0  0
 27 28  2  0  0  0
 28 19  1  0  0  0
 28 23  1  0  0  0
  7  8  1  0  0  0
  8  9  1  0  0  0
  8  3  1  0  0  0
 10 11  2  0  0  0
 11 12  1  0  0  0
 12 13  1  0  0  0
 12 14  2  0  0  0
 14 15  1  0  0  0
 15 16  2  0  0  0
 16 17  1  0  0  0
 16 10  1  0  0  0
 17 18  2  0  0  0
 17  1  1  0  0  0
 30 31  1  0  0  0
 31 29  1  0  0  0
M  END
> <minimizedAffinity>
-6.22170

> <CNNscore>
0.1472977847

> <CNNaffinity>
5.7280974388

> <CNN_VS>
0.8437360525

> <CNNaffinity_variance>
0.2293200046

$$$$



 36 41  0  0  0  0  0  0  0  0999 V2000
   -7.2313   -3.4443  -24.2641 N   0  0  0  0  0  0  0  0  0  0  0  0
   -6.8846   -2.1309  -23.8033 C   0  0  0  0  0  0  0  0  0  0  0  0
   -7.9914   -1.1775  -23.5644 C   0  0  0  0  0  0  0  0  0  0  0  0
   -7.8150   -0.0400  -24.5235 C   0  0  0  0  0  0  0  0  0  0  0  0
   -8.3902   -0.0325  -25.6376 O   0  0  0  0  0  0  0  0  0  0  0  0
   -6.9302    0.9443  -23.9487 N   0  0  0  0  0  0  0  0  0  0  0  0
   -6.5804    0.4028  -22.6597 C   0  0  0  0  0  0  0  0  0  0  0  0
   -7.8445   -0.4085  -22.2695 C   0  0  0  0  0  0  0  0  0  0  0  0
   -7.5738   -1.2893  -21.0947 C   0  0  0  0  0  0  0  0  0  0  0  0
   -9.3530   -1.7396  -23.6164 C   0  0  0  0  0  0  0  0  0  0  0  0
  -10.4490   -0.9492  -23.3292 C   0  0  0  0  0  0  0  0  0  0  0  0
  -11.7529   -1.4624  -23.3671 C   0  0  0  0  0  0  0  0  0  0  0  0
  -13.1264   -0.4404  -22.9987 Cl  0  0  0  0  0  0  0  0  0  0  0  0
  -11.9958   -2.7820  -23.6945 C   0  0  0  0  0  0  0  0  0  0  0  0
  -10.9150   -3.5666  -23.9798 C   0  0  0  0  0  0  0  0  0  0  0  0
   -9.6327   -3.0588  -23.9419 C   0  0  0  0  0  0  0  0  0  0  0  0
   -8.5524   -3.9719  -24.2831 C   0  0  0  0  0  0  0  0  0  0  0  0
   -8.8141   -5.1659  -24.5770 O   0  0  0  0  0  0  0  0  0  0  0  0
   -6.6298    2.1466  -24.6206 C   0  0  0  0  0  0  0  0  0  0  0  0
   -5.4227    2.2716  -25.3263 C   0  0  0  0  0  0  0  0  0  0  0  0
   -5.0908    3.4145  -25.9634 N   0  0  0  0  0  0  0  0  0  0  0  0
   -5.8595    4.5070  -25.9824 C   0  0  0  0  0  0  0  0  0  0  0  0
   -7.0590    4.4382  -25.3027 C   0  0  0  0  0  0  0  0  0  0  0  0
   -7.8449    5.5656  -25.3093 C   0  0  0  0  0  0  0  0  0  0  0  0
   -9.0498    5.5864  -24.6428 C   0  0  0  0  0  0  0  0  0  0  0  0
   -9.4166    4.4368  -23.9813 C   0  0  0  0  0  0  0  0  0  0  0  0
   -8.6311    3.3111  -23.9756 C   0  0  0  0  0  0  0  0  0  0  0  0
   -7.4271    3.2675  -24.6344 C   0  0  0  0  0  0  0  0  0  0  0  0
   -6.1772   -4.3231  -24.7295 C   0  0  0  0  0  0  0  0  0  0  0  0
   -6.2993   -4.7386  -26.2368 C   0  0  0  0  0  0  0  0  0  0  0  0
   -5.2437   -3.8266  -25.7303 C   0  0  0  0  0  0  0  0  0  0  0  0
   -6.1414   -6.7835  -21.7291 C   0  0  0  0  0  0  0  0  0  0  0  0
   -6.4833   -5.6405  -22.5775 N   0  0  0  0  0  0  0  0  0  0  0  0
   -5.8442   -5.4884  -23.8379 C   0  0  0  0  0  0  0  0  0  0  0  0
   -5.0072   -6.3547  -24.1625 O   0  0  0  0  0  0  0  0  0  0  0  0
   -7.1509   -4.9821  -22.2772 H   0  0  0  0  0  0  0  0  0  0  0  0
 32 33  1  0  0  0
 33 34  1  0  0  0
 33 36  1  0  0  0
 34 35  2  0  0  0
 34 29  1  0  0  0
 29  1  1  0  0  0
 29 30  1  0  0  0
  1  2  1  0  0  0
  3  2  1  0  0  0
  3  4  1  0  0  0
  3 10  1  0  0  0
  4  5  2  0  0  0
  4  6  1  0  0  0
  6 19  1  0  0  0
  6  7  1  0  0  0
 19 20  2  0  0  0
 20 21  1  0  0  0
 21 22  2  0  0  0
 22 23  1  0  0  0
 23 24  2  0  0  0
 24 25  1  0  0  0
 25 26  2  0  0  0
 26 27  1  0  0  0
 27 28  2  0  0  0
 28 19  1  0  0  0
 28 23  1  0  0  0
  7  8  1  0  0  0
  8  9  1  0  0  0
  8  3  1  0  0  0
 10 11  2  0  0  0
 11 12  1  0  0  0
 12 13  1  0  0  0
 12 14  2  0  0  0
 14 15  1  0  0  0
 15 16  2  0  0  0
 16 17  1  0  0  0
 16 10  1  0  0  0
 17 18  2  0  0  0
 17  1  1  0  0  0
 30 31  1  0  0  0
 31 29  1  0  0  0
M  END
> <minimizedAffinity>
-6.31170

> <CNNscore>
0.1374755800

> <CNNaffinity>
6.0908908844

> <CNN_VS>
0.8373487592

> <CNNaffinity_variance>
0.1376622021

$$$$



 36 41  0  0  0  0  0  0  0  0999 V2000
   -6.9151   -4.2731  -23.5586 N   0  0  0  0  0  0  0  0  0  0  0  0
   -7.5084   -3.0388  -23.9854 C   0  0  0  0  0  0  0  0  0  0  0  0
   -7.5387   -1.9241  -23.0120 C   0  0  0  0  0  0  0  0  0  0  0  0
   -8.9778   -1.6167  -22.7305 C   0  0  0  0  0  0  0  0  0  0  0  0
   -9.5781   -2.1400  -21.7620 O   0  0  0  0  0  0  0  0  0  0  0  0
   -9.4746   -0.6851  -23.7140 N   0  0  0  0  0  0  0  0  0  0  0  0
   -8.3459   -0.4368  -24.5751 C   0  0  0  0  0  0  0  0  0  0  0  0
   -7.1362   -0.5965  -23.6161 C   0  0  0  0  0  0  0  0  0  0  0  0
   -5.8543   -0.6664  -24.3784 C   0  0  0  0  0  0  0  0  0  0  0  0
   -6.7627   -2.1234  -21.7748 C   0  0  0  0  0  0  0  0  0  0  0  0
   -6.6627   -1.1115  -20.8396 C   0  0  0  0  0  0  0  0  0  0  0  0
   -5.9265   -1.2756  -19.6580 C   0  0  0  0  0  0  0  0  0  0  0  0
   -5.8144    0.0222  -18.4876 Cl  0  0  0  0  0  0  0  0  0  0  0  0
   -5.2701   -2.4585  -19.3796 C   0  0  0  0  0  0  0  0  0  0  0  0
   -5.3670   -3.4616  -20.3014 C   0  0  0  0  0  0  0  0  0  0  0  0
   -6.0925   -3.2974  -21.4634 C   0  0  0  0  0  0  0  0  0  0  0  0
   -6.1506   -4.4342  -22.3696 C   0  0  0  0  0  0  0  0  0  0  0  0
   -5.5406   -5.4947  -22.0802 O   0  0  0  0  0  0  0  0  0  0  0  0
  -10.7914   -0.1853  -23.6562 C   0  0  0  0  0  0  0  0  0  0  0  0
  -11.8735   -1.0734  -23.5499 C   0  0  0  0  0  0  0  0  0  0  0  0
  -13.1490   -0.6332  -23.5141 N   0  0  0  0  0  0  0  0  0  0  0  0
  -13.4943    0.6561  -23.5747 C   0  0  0  0  0  0  0  0  0  0  0  0
  -12.4677    1.5728  -23.6805 C   0  0  0  0  0  0  0  0  0  0  0  0
  -12.8212    2.8986  -23.7572 C   0  0  0  0  0  0  0  0  0  0  0  0
  -11.8594    3.8765  -23.8799 C   0  0  0  0  0  0  0  0  0  0  0  0
  -10.5484    3.4604  -23.9212 C   0  0  0  0  0  0  0  0  0  0  0  0
  -10.1963    2.1359  -23.8443 C   0  0  0  0  0  0  0  0  0  0  0  0
  -11.1382    1.1444  -23.7201 C   0  0  0  0  0  0  0  0  0  0  0  0
   -7.0736   -5.4496  -24.3899 C   0  0  0  0  0  0  0  0  0  0  0  0
   -7.6787   -6.6908  -23.6463 C   0  0  0  0  0  0  0  0  0  0  0  0
   -8.4188   -5.9249  -24.6798 C   0  0  0  0  0  0  0  0  0  0  0  0
   -3.4454   -6.1109  -25.5965 C   0  0  0  0  0  0  0  0  0  0  0  0
   -4.5736   -5.7498  -24.7362 N   0  0  0  0  0  0  0  0  0  0  0  0
   -5.8963   -5.8150  -25.2525 C   0  0  0  0  0  0  0  0  0  0  0  0
   -6.0301   -6.1838  -26.4367 O   0  0  0  0  0  0  0  0  0  0  0  0
   -4.4173   -5.4640  -23.8072 H   0  0  0  0  0  0  0  0  0  0  0  0
 32 33  1  0  0  0
 33 34  1  0  0  0
 33 36  1  0  0  0
 34 35  2  0  0  0
 34 29  1  0  0  0
 29  1  1  0  0  0
 29 30  1  0  0  0
  1  2  1  0  0  0
  3  2  1  0  0  0
  3  4  1  0  0  0
  3 10  1  0  0  0
  4  5  2  0  0  0
  4  6  1  0  0  0
  6 19  1  0  0  0
  6  7  1  0  0  0
 19 20  2  0  0  0
 20 21  1  0  0  0
 21 22  2  0  0  0
 22 23  1  0  0  0
 23 24  2  0  0  0
 24 25  1  0  0  0
 25 26  2  0  0  0
 26 27  1  0  0  0
 27 28  2  0  0  0
 28 19  1  0  0  0
 28 23  1  0  0  0
  7  8  1  0  0  0
  8  9  1  0  0  0
  8  3  1  0  0  0
 10 11  2  0  0  0
 11 12  1  0  0  0
 12 13  1  0  0  0
 12 14  2  0  0  0
 14 15  1  0  0  0
 15 16  2  0  0  0
 16 17  1  0  0  0
 16 10  1  0  0  0
 17 18  2  0  0  0
 17  1  1  0  0  0
 30 31  1  0  0  0
 31 29  1  0  0  0
M  END
> <minimizedAffinity>
-8.63776

> <CNNscore>
0.1361858845

> <CNNaffinity>
6.1422934532

> <CNN_VS>
0.8364936709

> <CNNaffinity_variance>
0.1823950708

$$$$



 36 41  0  0  0  0  0  0  0  0999 V2000
   -5.0882    0.6931  -22.3088 N   0  0  0  0  0  0  0  0  0  0  0  0
   -5.0560   -0.3880  -23.2510 C   0  0  0  0  0  0  0  0  0  0  0  0
   -5.9541   -0.2975  -24.4242 C   0  0  0  0  0  0  0  0  0  0  0  0
   -6.9238   -1.4359  -24.3325 C   0  0  0  0  0  0  0  0  0  0  0  0
   -8.0436   -1.2950  -23.7862 O   0  0  0  0  0  0  0  0  0  0  0  0
   -6.3503   -2.6100  -24.9443 N   0  0  0  0  0  0  0  0  0  0  0  0
   -5.0515   -2.1801  -25.3977 C   0  0  0  0  0  0  0  0  0  0  0  0
   -5.2767   -0.6793  -25.7222 C   0  0  0  0  0  0  0  0  0  0  0  0
   -3.9764    0.0242  -25.9312 C   0  0  0  0  0  0  0  0  0  0  0  0
   -6.6346    0.9952  -24.6205 C   0  0  0  0  0  0  0  0  0  0  0  0
   -7.4313    1.2065  -25.7291 C   0  0  0  0  0  0  0  0  0  0  0  0
   -8.0845    2.4287  -25.9401 C   0  0  0  0  0  0  0  0  0  0  0  0
   -9.0891    2.6727  -27.3537 Cl  0  0  0  0  0  0  0  0  0  0  0  0
   -7.9585    3.4738  -25.0459 C   0  0  0  0  0  0  0  0  0  0  0  0
   -7.1723    3.2687  -23.9482 C   0  0  0  0  0  0  0  0  0  0  0  0
   -6.5307    2.0646  -23.7429 C   0  0  0  0  0  0  0  0  0  0  0  0
   -5.7339    1.9410  -22.5318 C   0  0  0  0  0  0  0  0  0  0  0  0
   -5.6448    2.9147  -21.7415 O   0  0  0  0  0  0  0  0  0  0  0  0
   -7.0720   -3.8170  -25.0419 C   0  0  0  0  0  0  0  0  0  0  0  0
   -7.9692   -4.0125  -26.1038 C   0  0  0  0  0  0  0  0  0  0  0  0
   -8.6938   -5.1457  -26.2182 N   0  0  0  0  0  0  0  0  0  0  0  0
   -8.6277   -6.1627  -25.3543 C   0  0  0  0  0  0  0  0  0  0  0  0
   -7.7602   -6.0220  -24.2898 C   0  0  0  0  0  0  0  0  0  0  0  0
   -7.7009   -7.0610  -23.3922 C   0  0  0  0  0  0  0  0  0  0  0  0
   -6.8727   -6.9948  -22.2940 C   0  0  0  0  0  0  0  0  0  0  0  0
   -6.1215   -5.8512  -22.1473 C   0  0  0  0  0  0  0  0  0  0  0  0
   -6.1811   -4.8141  -23.0445 C   0  0  0  0  0  0  0  0  0  0  0  0
   -6.9985   -4.8592  -24.1470 C   0  0  0  0  0  0  0  0  0  0  0  0
   -4.4050    0.5360  -21.0404 C   0  0  0  0  0  0  0  0  0  0  0  0
   -5.3394    0.6375  -19.7849 C   0  0  0  0  0  0  0  0  0  0  0  0
   -4.7062   -0.6310  -20.2237 C   0  0  0  0  0  0  0  0  0  0  0  0
   -1.9062    3.3890  -20.2199 C   0  0  0  0  0  0  0  0  0  0  0  0
   -3.1601    2.6493  -20.3738 N   0  0  0  0  0  0  0  0  0  0  0  0
   -3.1310    1.3186  -20.8726 C   0  0  0  0  0  0  0  0  0  0  0  0
   -2.0153    0.8401  -21.1598 O   0  0  0  0  0  0  0  0  0  0  0  0
   -4.0170    3.0704  -20.1337 H   0  0  0  0  0  0  0  0  0  0  0  0
 32 33  1  0  0  0
 33 34  1  0  0  0
 33 36  1  0  0  0
 34 35  2  0  0  0
 34 29  1  0  0  0
 29  1  1  0  0  0
 29 30  1  0  0  0
  1  2  1  0  0  0
  3  2  1  0  0  0
  3  4  1  0  0  0
  3 10  1  0  0  0
  4  5  2  0  0  0
  4  6  1  0  0  0
  6 19  1  0  0  0
  6  7  1  0  0  0
 19 20  2  0  0  0
 20 21  1  0  0  0
 21 22  2  0  0  0
 22 23  1  0  0  0
 23 24  2  0  0  0
 24 25  1  0  0  0
 25 26  2  0  0  0
 26 27  1  0  0  0
 27 28  2  0  0  0
 28 19  1  0  0  0
 28 23  1  0  0  0
  7  8  1  0  0  0
  8  9  1  0  0  0
  8  3  1  0  0  0
 10 11  2  0  0  0
 11 12  1  0  0  0
 12 13  1  0  0  0
 12 14  2  0  0  0
 14 15  1  0  0  0
 15 16  2  0  0  0
 16 17  1  0  0  0
 16 10  1  0  0  0
 17 18  2  0  0  0
 17  1  1  0  0  0
 30 31  1  0  0  0
 31 29  1  0  0  0
M  END
> <minimizedAffinity>
-6.73620

> <CNNscore>
0.1300308257

> <CNNaffinity>
5.8431401253

> <CNN_VS>
0.7597883344

> <CNNaffinity_variance>
0.0386863053

$$$$



 20 22  0  0  0  0  0  0  0  0999 V2000
   -6.5084   -2.0545  -21.9033 C   0  0  0  0  0  0  0  0  0  0  0  0
   -6.0912   -1.2915  -20.6758 C   0  0  0  0  0  0  0  0  0  0  0  0
   -6.7517   -1.4577  -19.4763 C   0  0  0  0  0  0  0  0  0  0  0  0
   -6.4210   -0.8022  -18.3498 N   0  0  0  0  0  0  0  0  0  0  0  0
   -5.4025    0.0632  -18.3610 C   0  0  0  0  0  0  0  0  0  0  0  0
   -4.7117    0.2642  -19.5336 C   0  0  0  0  0  0  0  0  0  0  0  0
   -3.6595    1.1781  -19.4846 C   0  0  0  0  0  0  0  0  0  0  0  0
   -2.9527    1.3909  -20.6618 C   0  0  0  0  0  0  0  0  0  0  0  0
   -3.2837    0.7248  -21.8192 C   0  0  0  0  0  0  0  0  0  0  0  0
   -4.3261   -0.1841  -21.8778 C   0  0  0  0  0  0  0  0  0  0  0  0
   -5.0365   -0.3988  -20.6978 C   0  0  0  0  0  0  0  0  0  0  0  0
   -5.1817   -3.7627  -20.9805 O   0  0  0  0  0  0  0  0  0  0  0  0
   -6.1396   -3.4665  -21.7444 C   0  0  0  0  0  0  0  0  0  0  0  0
   -6.8234   -4.5177  -22.4209 N   0  0  0  0  0  0  0  0  0  0  0  0
   -6.2768   -5.8269  -22.1044 C   0  0  0  0  0  0  0  0  0  0  0  0
   -5.7000   -6.3578  -23.3750 C   0  0  0  0  0  0  0  0  0  0  0  0
   -6.2497   -6.4387  -24.5762 C   0  0  0  0  0  0  0  0  0  0  0  0
   -7.5970   -6.0072  -24.9329 C   0  0  0  0  0  0  0  0  0  0  0  0
   -8.2509   -5.0119  -24.3541 C   0  0  0  0  0  0  0  0  0  0  0  0
   -7.8884   -4.0798  -23.2557 C   0  0  0  0  0  0  0  0  0  0  0  0
 12 13  2  0  0  0
 13  1  1  0  0  0
 13 14  1  0  0  0
  1  2  1  0  0  0
  2  3  2  0  0  0
  3  4  1  0  0  0
  4  5  2  0  0  0
  5  6  1  0  0  0
  6  7  2  0  0  0
  7  8  1  0  0  0
  8  9  2  0  0  0
  9 10  1  0  0  0
 10 11  2  0  0  0
 11  2  1  0  0  0
 11  6  1  0  0  0
 14 15  1  0  0  0
 15 16  1  0  0  0
 16 17  2  0  0  0
 17 18  1  0  0  0
 18 19  2  0  0  0
 19 20  1  0  0  0
 20 14  1  0  0  0
M  END
> <minimizedAffinity>
-6.77624

> <CNNscore>
0.6536334157

> <CNNaffinity>
4.9646210670

> <CNN_VS>
3.2450423241

> <CNNaffinity_variance>
0.2069533169

$$$$



 20 22  0  0  0  0  0  0  0  0999 V2000
   -7.6503   -0.5055  -21.8951 C   0  0  0  0  0  0  0  0  0  0  0  0
   -6.7996   -0.4205  -20.6574 C   0  0  0  0  0  0  0  0  0  0  0  0
   -7.1164   -1.1427  -19.5256 C   0  0  0  0  0  0  0  0  0  0  0  0
   -6.3919   -1.1042  -18.3935 N   0  0  0  0  0  0  0  0  0  0  0  0
   -5.3010   -0.3346  -18.3304 C   0  0  0  0  0  0  0  0  0  0  0  0
   -4.9428    0.4054  -19.4336 C   0  0  0  0  0  0  0  0  0  0  0  0
   -3.7960    1.1890  -19.3089 C   0  0  0  0  0  0  0  0  0  0  0  0
   -3.4222    1.9417  -20.4155 C   0  0  0  0  0  0  0  0  0  0  0  0
   -4.1572    1.9086  -21.5779 C   0  0  0  0  0  0  0  0  0  0  0  0
   -5.2966    1.1341  -21.7114 C   0  0  0  0  0  0  0  0  0  0  0  0
   -5.6734    0.3784  -20.6022 C   0  0  0  0  0  0  0  0  0  0  0  0
   -6.4114   -2.2846  -22.8060 O   0  0  0  0  0  0  0  0  0  0  0  0
   -7.5458   -1.8553  -22.4628 C   0  0  0  0  0  0  0  0  0  0  0  0
   -8.6784   -2.7011  -22.6413 N   0  0  0  0  0  0  0  0  0  0  0  0
   -8.3234   -3.9864  -23.2200 C   0  0  0  0  0  0  0  0  0  0  0  0
   -8.9780   -4.0366  -24.5609 C   0  0  0  0  0  0  0  0  0  0  0  0
  -10.2356   -3.7886  -24.8901 C   0  0  0  0  0  0  0  0  0  0  0  0
  -11.2999   -3.3954  -23.9729 C   0  0  0  0  0  0  0  0  0  0  0  0
  -11.1219   -2.6969  -22.8621 C   0  0  0  0  0  0  0  0  0  0  0  0
   -9.9095   -2.1257  -22.2214 C   0  0  0  0  0  0  0  0  0  0  0  0
 12 13  2  0  0  0
 13  1  1  0  0  0
 13 14  1  0  0  0
  1  2  1  0  0  0
  2  3  2  0  0  0
  3  4  1  0  0  0
  4  5  2  0  0  0
  5  6  1  0  0  0
  6  7  2  0  0  0
  7  8  1  0  0  0
  8  9  2  0  0  0
  9 10  1  0  0  0
 10 11  2  0  0  0
 11  2  1  0  0  0
 11  6  1  0  0  0
 14 15  1  0  0  0
 15 16  1  0  0  0
 16 17  2  0  0  0
 17 18  1  0  0  0
 18 19  2  0  0  0
 19 20  1  0  0  0
 20 14  1  0  0  0
M  END
> <minimizedAffinity>
-6.92026

> <CNNscore>
0.5719590783

> <CNNaffinity>
5.0427646637

> <CNN_VS>
2.8842549324

> <CNNaffinity_variance>
0.2148036212

$$$$



 20 22  0  0  0  0  0  0  0  0999 V2000
   -8.0377   -0.2798  -22.4169 C   0  0  0  0  0  0  0  0  0  0  0  0
   -9.2896   -1.0599  -22.7119 C   0  0  0  0  0  0  0  0  0  0  0  0
   -9.2755   -2.4387  -22.7519 C   0  0  0  0  0  0  0  0  0  0  0  0
  -10.3639   -3.1849  -23.0104 N   0  0  0  0  0  0  0  0  0  0  0  0
  -11.5365   -2.5880  -23.2451 C   0  0  0  0  0  0  0  0  0  0  0  0
  -11.6024   -1.2141  -23.2163 C   0  0  0  0  0  0  0  0  0  0  0  0
  -12.8516   -0.6478  -23.4683 C   0  0  0  0  0  0  0  0  0  0  0  0
  -12.9331    0.7391  -23.4423 C   0  0  0  0  0  0  0  0  0  0  0  0
  -11.8250    1.5107  -23.1787 C   0  0  0  0  0  0  0  0  0  0  0  0
  -10.5811    0.9580  -22.9273 C   0  0  0  0  0  0  0  0  0  0  0  0
  -10.4973   -0.4333  -22.9531 C   0  0  0  0  0  0  0  0  0  0  0  0
   -8.2679   -1.1677  -20.2516 O   0  0  0  0  0  0  0  0  0  0  0  0
   -7.4832   -0.7219  -21.1315 C   0  0  0  0  0  0  0  0  0  0  0  0
   -6.0897   -0.6671  -20.8388 N   0  0  0  0  0  0  0  0  0  0  0  0
   -5.7847   -1.1586  -19.5053 C   0  0  0  0  0  0  0  0  0  0  0  0
   -5.2572    0.0094  -18.7394 C   0  0  0  0  0  0  0  0  0  0  0  0
   -4.3076    0.8696  -19.0706 C   0  0  0  0  0  0  0  0  0  0  0  0
   -3.5380    0.8614  -20.3100 C   0  0  0  0  0  0  0  0  0  0  0  0
   -3.9868    0.4239  -21.4765 C   0  0  0  0  0  0  0  0  0  0  0  0
   -5.2903   -0.1517  -21.8963 C   0  0  0  0  0  0  0  0  0  0  0  0
 12 13  2  0  0  0
 13  1  1  0  0  0
 13 14  1  0  0  0
  1  2  1  0  0  0
  2  3  2  0  0  0
  3  4  1  0  0  0
  4  5  2  0  0  0
  5  6  1  0  0  0
  6  7  2  0  0  0
  7  8  1  0  0  0
  8  9  2  0  0  0
  9 10  1  0  0  0
 10 11  2  0  0  0
 11  2  1  0  0  0
 11  6  1  0  0  0
 14 15  1  0  0  0
 15 16  1  0  0  0
 16 17  2  0  0  0
 17 18  1  0  0  0
 18 19  2  0  0  0
 19 20  1  0  0  0
 20 14  1  0  0  0
M  END
> <minimizedAffinity>
-6.77489

> <CNNscore>
0.5526847243

> <CNNaffinity>
4.6912236214

> <CNN_VS>
2.5927677155

> <CNNaffinity_variance>
0.3117791414

$$$$



 20 22  0  0  0  0  0  0  0  0999 V2000
   -8.7236   -1.7901  -23.5192 C   0  0  0  0  0  0  0  0  0  0  0  0
  -10.2086   -1.7360  -23.2857 C   0  0  0  0  0  0  0  0  0  0  0  0
  -10.9131   -2.8651  -22.9227 C   0  0  0  0  0  0  0  0  0  0  0  0
  -12.2394   -2.8733  -22.7016 N   0  0  0  0  0  0  0  0  0  0  0  0
  -12.9404   -1.7429  -22.8327 C   0  0  0  0  0  0  0  0  0  0  0  0
  -12.2832   -0.5893  -23.1933 C   0  0  0  0  0  0  0  0  0  0  0  0
  -13.0661    0.5584  -23.3144 C   0  0  0  0  0  0  0  0  0  0  0  0
  -12.4156    1.7311  -23.6779 C   0  0  0  0  0  0  0  0  0  0  0  0
  -11.0590    1.7492  -23.9060 C   0  0  0  0  0  0  0  0  0  0  0  0
  -10.2735    0.6155  -23.7882 C   0  0  0  0  0  0  0  0  0  0  0  0
  -10.9244   -0.5621  -23.4238 C   0  0  0  0  0  0  0  0  0  0  0  0
   -8.8272   -2.2824  -25.8163 O   0  0  0  0  0  0  0  0  0  0  0  0
   -8.4460   -2.6534  -24.6736 C   0  0  0  0  0  0  0  0  0  0  0  0
   -7.7609   -3.8970  -24.5530 N   0  0  0  0  0  0  0  0  0  0  0  0
   -7.6058   -4.5695  -25.8324 C   0  0  0  0  0  0  0  0  0  0  0  0
   -8.4078   -5.8257  -25.7446 C   0  0  0  0  0  0  0  0  0  0  0  0
   -8.4062   -6.7578  -24.8051 C   0  0  0  0  0  0  0  0  0  0  0  0
   -7.5841   -6.7583  -23.5998 C   0  0  0  0  0  0  0  0  0  0  0  0
   -7.1700   -5.6720  -22.9658 C   0  0  0  0  0  0  0  0  0  0  0  0
   -7.3713   -4.2232  -23.2246 C   0  0  0  0  0  0  0  0  0  0  0  0
 12 13  2  0  0  0
 13  1  1  0  0  0
 13 14  1  0  0  0
  1  2  1  0  0  0
  2  3  2  0  0  0
  3  4  1  0  0  0
  4  5  2  0  0  0
  5  6  1  0  0  0
  6  7  2  0  0  0
  7  8  1  0  0  0
  8  9  2  0  0  0
  9 10  1  0  0  0
 10 11  2  0  0  0
 11  2  1  0  0  0
 11  6  1  0  0  0
 14 15  1  0  0  0
 15 16  1  0  0  0
 16 17  2  0  0  0
 17 18  1  0  0  0
 18 19  2  0  0  0
 19 20  1  0  0  0
 20 14  1  0  0  0
M  END
> <minimizedAffinity>
-6.17364

> <CNNscore>
0.5328488350

> <CNNaffinity>
4.9261674881

> <CNN_VS>
2.6249027252

> <CNNaffinity_variance>
0.2732266486

$$$$



 20 22  0  0  0  0  0  0  0  0999 V2000
   -7.0477   -1.3432  -22.5888 C   0  0  0  0  0  0  0  0  0  0  0  0
   -6.6853   -0.9508  -21.1826 C   0  0  0  0  0  0  0  0  0  0  0  0
   -7.4897   -1.2989  -20.1174 C   0  0  0  0  0  0  0  0  0  0  0  0
   -7.2138   -0.9747  -18.8419 N   0  0  0  0  0  0  0  0  0  0  0  0
   -6.1086   -0.2784  -18.5590 C   0  0  0  0  0  0  0  0  0  0  0  0
   -5.2734    0.0928  -19.5873 C   0  0  0  0  0  0  0  0  0  0  0  0
   -4.1361    0.8172  -19.2317 C   0  0  0  0  0  0  0  0  0  0  0  0
   -3.2833    1.1988  -20.2601 C   0  0  0  0  0  0  0  0  0  0  0  0
   -3.5572    0.8715  -21.5681 C   0  0  0  0  0  0  0  0  0  0  0  0
   -4.6832    0.1529  -21.9309 C   0  0  0  0  0  0  0  0  0  0  0  0
   -5.5402   -0.2307  -20.9005 C   0  0  0  0  0  0  0  0  0  0  0  0
   -6.0544   -3.4666  -22.4031 O   0  0  0  0  0  0  0  0  0  0  0  0
   -7.0904   -2.8073  -22.6873 C   0  0  0  0  0  0  0  0  0  0  0  0
   -8.2596   -3.5140  -23.0921 N   0  0  0  0  0  0  0  0  0  0  0  0
   -8.0566   -4.9533  -23.1130 C   0  0  0  0  0  0  0  0  0  0  0  0
   -8.1839   -5.3731  -24.5401 C   0  0  0  0  0  0  0  0  0  0  0  0
   -9.1383   -5.0956  -25.4140 C   0  0  0  0  0  0  0  0  0  0  0  0
  -10.3236   -4.2839  -25.1595 C   0  0  0  0  0  0  0  0  0  0  0  0
  -10.3818   -3.2780  -24.3003 C   0  0  0  0  0  0  0  0  0  0  0  0
   -9.3733   -2.6804  -23.3879 C   0  0  0  0  0  0  0  0  0  0  0  0
 12 13  2  0  0  0
 13  1  1  0  0  0
 13 14  1  0  0  0
  1  2  1  0  0  0
  2  3  2  0  0  0
  3  4  1  0  0  0
  4  5  2  0  0  0
  5  6  1  0  0  0
  6  7  2  0  0  0
  7  8  1  0  0  0
  8  9  2  0  0  0
  9 10  1  0  0  0
 10 11  2  0  0  0
 11  2  1  0  0  0
 11  6  1  0  0  0
 14 15  1  0  0  0
 15 16  1  0  0  0
 16 17  2  0  0  0
 17 18  1  0  0  0
 18 19  2  0  0  0
 19 20  1  0  0  0
 20 14  1  0  0  0
M  END
> <minimizedAffinity>
-6.43661

> <CNNscore>
0.4132033587

> <CNNaffinity>
4.7823271751

> <CNN_VS>
1.9760736227

> <CNNaffinity_variance>
0.2310181558

$$$$



 20 22  0  0  0  0  0  0  0  0999 V2000
   -7.9516   -0.9035  -21.2283 C   0  0  0  0  0  0  0  0  0  0  0  0
   -6.8829   -0.6469  -20.2013 C   0  0  0  0  0  0  0  0  0  0  0  0
   -6.8850   -1.3101  -18.9918 C   0  0  0  0  0  0  0  0  0  0  0  0
   -5.9553   -1.1195  -18.0391 N   0  0  0  0  0  0  0  0  0  0  0  0
   -4.9636   -0.2475  -18.2455 C   0  0  0  0  0  0  0  0  0  0  0  0
   -4.9174    0.4393  -19.4367 C   0  0  0  0  0  0  0  0  0  0  0  0
   -3.8604    1.3350  -19.5954 C   0  0  0  0  0  0  0  0  0  0  0  0
   -3.8010    2.0357  -20.7938 C   0  0  0  0  0  0  0  0  0  0  0  0
   -4.7476    1.8473  -21.7742 C   0  0  0  0  0  0  0  0  0  0  0  0
   -5.8002    0.9606  -21.6261 C   0  0  0  0  0  0  0  0  0  0  0  0
   -5.8616    0.2568  -20.4244 C   0  0  0  0  0  0  0  0  0  0  0  0
   -6.8001   -2.8361  -21.9128 O   0  0  0  0  0  0  0  0  0  0  0  0
   -7.4224   -1.7980  -22.2649 C   0  0  0  0  0  0  0  0  0  0  0  0
   -7.5848   -1.5387  -23.6566 N   0  0  0  0  0  0  0  0  0  0  0  0
   -6.9751   -2.5653  -24.4856 C   0  0  0  0  0  0  0  0  0  0  0  0
   -5.8633   -1.8991  -25.2266 C   0  0  0  0  0  0  0  0  0  0  0  0
   -5.8780   -0.7789  -25.9312 C   0  0  0  0  0  0  0  0  0  0  0  0
   -7.0348    0.0841  -26.1448 C   0  0  0  0  0  0  0  0  0  0  0  0
   -8.0322    0.2386  -25.2877 C   0  0  0  0  0  0  0  0  0  0  0  0
   -8.3021   -0.3458  -23.9489 C   0  0  0  0  0  0  0  0  0  0  0  0
 12 13  2  0  0  0
 13  1  1  0  0  0
 13 14  1  0  0  0
  1  2  1  0  0  0
  2  3  2  0  0  0
  3  4  1  0  0  0
  4  5  2  0  0  0
  5  6  1  0  0  0
  6  7  2  0  0  0
  7  8  1  0  0  0
  8  9  2  0  0  0
  9 10  1  0  0  0
 10 11  2  0  0  0
 11  2  1  0  0  0
 11  6  1  0  0  0
 14 15  1  0  0  0
 15 16  1  0  0  0
 16 17  2  0  0  0
 17 18  1  0  0  0
 18 19  2  0  0  0
 19 20  1  0  0  0
 20 14  1  0  0  0
M  END
> <minimizedAffinity>
-5.85815

> <CNNscore>
0.4087382257

> <CNNaffinity>
4.5829973221

> <CNN_VS>
1.8732461929

> <CNNaffinity_variance>
0.0825117230

$$$$



 20 22  0  0  0  0  0  0  0  0999 V2000
  -10.3464   -2.6832  -23.0820 C   0  0  0  0  0  0  0  0  0  0  0  0
  -10.0826   -1.2046  -23.1652 C   0  0  0  0  0  0  0  0  0  0  0  0
   -8.7987   -0.7059  -23.0898 C   0  0  0  0  0  0  0  0  0  0  0  0
   -8.5063    0.6048  -23.1586 N   0  0  0  0  0  0  0  0  0  0  0  0
   -9.4904    1.4967  -23.3080 C   0  0  0  0  0  0  0  0  0  0  0  0
  -10.7889    1.0490  -23.3883 C   0  0  0  0  0  0  0  0  0  0  0  0
  -11.7727    2.0250  -23.5439 C   0  0  0  0  0  0  0  0  0  0  0  0
  -13.0889    1.5873  -23.6266 C   0  0  0  0  0  0  0  0  0  0  0  0
  -13.3976    0.2484  -23.5573 C   0  0  0  0  0  0  0  0  0  0  0  0
  -12.4283   -0.7277  -23.4032 C   0  0  0  0  0  0  0  0  0  0  0  0
  -11.1072   -0.2904  -23.3197 C   0  0  0  0  0  0  0  0  0  0  0  0
  -10.5436   -3.1089  -25.3863 O   0  0  0  0  0  0  0  0  0  0  0  0
   -9.9000   -3.3255  -24.3243 C   0  0  0  0  0  0  0  0  0  0  0  0
   -8.7654   -4.1857  -24.3772 N   0  0  0  0  0  0  0  0  0  0  0  0
   -8.5228   -4.7000  -25.7150 C   0  0  0  0  0  0  0  0  0  0  0  0
   -8.7363   -6.1757  -25.6410 C   0  0  0  0  0  0  0  0  0  0  0  0
   -8.2393   -7.0532  -24.7839 C   0  0  0  0  0  0  0  0  0  0  0  0
   -7.3359   -6.7538  -23.6781 C   0  0  0  0  0  0  0  0  0  0  0  0
   -7.3119   -5.6117  -23.0085 C   0  0  0  0  0  0  0  0  0  0  0  0
   -8.1079   -4.3632  -23.1285 C   0  0  0  0  0  0  0  0  0  0  0  0
 12 13  2  0  0  0
 13  1  1  0  0  0
 13 14  1  0  0  0
  1  2  1  0  0  0
  2  3  2  0  0  0
  3  4  1  0  0  0
  4  5  2  0  0  0
  5  6  1  0  0  0
  6  7  2  0  0  0
  7  8  1  0  0  0
  8  9  2  0  0  0
  9 10  1  0  0  0
 10 11  2  0  0  0
 11  2  1  0  0  0
 11  6  1  0  0  0
 14 15  1  0  0  0
 15 16  1  0  0  0
 16 17  2  0  0  0
 17 18  1  0  0  0
 18 19  2  0  0  0
 19 20  1  0  0  0
 20 14  1  0  0  0
M  END
> <minimizedAffinity>
-6.35138

> <CNNscore>
0.3948301971

> <CNNaffinity>
4.7847747803

> <CNN_VS>
1.8891736269

> <CNNaffinity_variance>
0.1711073220

$$$$



 20 22  0  0  0  0  0  0  0  0999 V2000
   -8.1555    0.1193  -23.4865 C   0  0  0  0  0  0  0  0  0  0  0  0
   -9.3902   -0.7330  -23.3773 C   0  0  0  0  0  0  0  0  0  0  0  0
   -9.2989   -2.0997  -23.2146 C   0  0  0  0  0  0  0  0  0  0  0  0
  -10.3685   -2.9081  -23.1115 N   0  0  0  0  0  0  0  0  0  0  0  0
  -11.5991   -2.3895  -23.1658 C   0  0  0  0  0  0  0  0  0  0  0  0
  -11.7431   -1.0308  -23.3272 C   0  0  0  0  0  0  0  0  0  0  0  0
  -13.0502   -0.5474  -23.3767 C   0  0  0  0  0  0  0  0  0  0  0  0
  -13.2108    0.8232  -23.5392 C   0  0  0  0  0  0  0  0  0  0  0  0
  -12.1225    1.6581  -23.6455 C   0  0  0  0  0  0  0  0  0  0  0  0
  -10.8215    1.1878  -23.5974 C   0  0  0  0  0  0  0  0  0  0  0  0
  -10.6583   -0.1871  -23.4346 C   0  0  0  0  0  0  0  0  0  0  0  0
   -8.2225    0.5053  -21.1678 O   0  0  0  0  0  0  0  0  0  0  0  0
   -7.5145    0.2142  -22.1693 C   0  0  0  0  0  0  0  0  0  0  0  0
   -6.1205   -0.0104  -21.9776 N   0  0  0  0  0  0  0  0  0  0  0  0
   -5.7216    0.1409  -20.5880 C   0  0  0  0  0  0  0  0  0  0  0  0
   -4.8042    1.3179  -20.5419 C   0  0  0  0  0  0  0  0  0  0  0  0
   -3.7449    1.5853  -21.2888 C   0  0  0  0  0  0  0  0  0  0  0  0
   -3.2227    0.7506  -22.3654 C   0  0  0  0  0  0  0  0  0  0  0  0
   -3.9558   -0.0422  -23.1318 C   0  0  0  0  0  0  0  0  0  0  0  0
   -5.4118   -0.3345  -23.1674 C   0  0  0  0  0  0  0  0  0  0  0  0
 12 13  2  0  0  0
 13  1  1  0  0  0
 13 14  1  0  0  0
  1  2  1  0  0  0
  2  3  2  0  0  0
  3  4  1  0  0  0
  4  5  2  0  0  0
  5  6  1  0  0  0
  6  7  2  0  0  0
  7  8  1  0  0  0
  8  9  2  0  0  0
  9 10  1  0  0  0
 10 11  2  0  0  0
 11  2  1  0  0  0
 11  6  1  0  0  0
 14 15  1  0  0  0
 15 16  1  0  0  0
 16 17  2  0  0  0
 17 18  1  0  0  0
 18 19  2  0  0  0
 19 20  1  0  0  0
 20 14  1  0  0  0
M  END
> <minimizedAffinity>
-5.97800

> <CNNscore>
0.3724610806

> <CNNaffinity>
4.6663613319

> <CNN_VS>
1.7380379438

> <CNNaffinity_variance>
0.0580513254

$$$$



 20 22  0  0  0  0  0  0  0  0999 V2000
   -8.0843   -1.6187  -22.2774 C   0  0  0  0  0  0  0  0  0  0  0  0
   -8.9484   -0.4639  -22.7047 C   0  0  0  0  0  0  0  0  0  0  0  0
   -8.4064    0.7841  -22.9318 C   0  0  0  0  0  0  0  0  0  0  0  0
   -9.1316    1.8498  -23.3148 N   0  0  0  0  0  0  0  0  0  0  0  0
  -10.4503    1.7248  -23.4933 C   0  0  0  0  0  0  0  0  0  0  0  0
  -11.0386    0.4997  -23.2794 C   0  0  0  0  0  0  0  0  0  0  0  0
  -12.4166    0.4299  -23.4814 C   0  0  0  0  0  0  0  0  0  0  0  0
  -13.0243   -0.8015  -23.2691 C   0  0  0  0  0  0  0  0  0  0  0  0
  -12.2906   -1.8974  -22.8773 C   0  0  0  0  0  0  0  0  0  0  0  0
  -10.9226   -1.8380  -22.6744 C   0  0  0  0  0  0  0  0  0  0  0  0
  -10.3111   -0.6034  -22.8866 C   0  0  0  0  0  0  0  0  0  0  0  0
   -7.9658   -1.1769  -19.9708 O   0  0  0  0  0  0  0  0  0  0  0  0
   -7.3443   -1.2473  -21.0652 C   0  0  0  0  0  0  0  0  0  0  0  0
   -5.9482   -0.9627  -21.0768 N   0  0  0  0  0  0  0  0  0  0  0  0
   -5.4424   -0.6198  -19.7579 C   0  0  0  0  0  0  0  0  0  0  0  0
   -5.0003    0.8041  -19.8367 C   0  0  0  0  0  0  0  0  0  0  0  0
   -4.2150    1.3904  -20.7261 C   0  0  0  0  0  0  0  0  0  0  0  0
   -3.5848    0.7430  -21.8716 C   0  0  0  0  0  0  0  0  0  0  0  0
   -4.0895   -0.2892  -22.5297 C   0  0  0  0  0  0  0  0  0  0  0  0
   -5.3402   -1.0722  -22.3579 C   0  0  0  0  0  0  0  0  0  0  0  0
 12 13  2  0  0  0
 13  1  1  0  0  0
 13 14  1  0  0  0
  1  2  1  0  0  0
  2  3  2  0  0  0
  3  4  1  0  0  0
  4  5  2  0  0  0
  5  6  1  0  0  0
  6  7  2  0  0  0
  7  8  1  0  0  0
  8  9  2  0  0  0
  9 10  1  0  0  0
 10 11  2  0  0  0
 11  2  1  0  0  0
 11  6  1  0  0  0
 14 15  1  0  0  0
 15 16  1  0  0  0
 16 17  2  0  0  0
 17 18  1  0  0  0
 18 19  2  0  0  0
 19 20  1  0  0  0
 20 14  1  0  0  0
M  END
> <minimizedAffinity>
-5.85919

> <CNNscore>
0.3589796126

> <CNNaffinity>
4.6789493561

> <CNN_VS>
1.6796474457

> <CNNaffinity_variance>
0.1018554345

$$$$



 28 31  0  0  0  0  0  0  0  0999 V2000
  -10.5405    0.2889  -22.9855 C   0  0  0  0  0  0  0  0  0  0  0  0
  -11.6128   -0.6924  -23.4412 C   0  0  0  0  0  0  0  0  0  0  0  0
  -11.5415   -1.9533  -22.5716 C   0  0  0  0  0  0  0  0  0  0  0  0
  -12.8288   -2.7176  -22.7905 C   0  0  0  0  0  0  0  0  0  0  0  0
  -10.3235   -2.7286  -22.9491 C   0  0  0  0  0  0  0  0  0  0  0  0
   -9.2464   -1.7685  -23.4741 C   0  0  0  0  0  0  0  0  0  0  0  0
   -9.3233   -0.4873  -22.7894 N   0  0  0  0  0  0  0  0  0  0  0  0
   -8.2746    0.0072  -21.9625 C   0  0  0  0  0  0  0  0  0  0  0  0
   -8.3301    1.1138  -21.3638 O   0  0  0  0  0  0  0  0  0  0  0  0
  -11.2823    2.4791  -23.7842 C   0  0  0  0  0  0  0  0  0  0  0  0
  -11.2010    3.5598  -24.6375 C   0  0  0  0  0  0  0  0  0  0  0  0
  -10.2541    3.6220  -25.6583 C   0  0  0  0  0  0  0  0  0  0  0  0
   -9.3910    2.5622  -25.7941 C   0  0  0  0  0  0  0  0  0  0  0  0
   -9.4791    1.4857  -24.9369 C   0  0  0  0  0  0  0  0  0  0  0  0
  -10.4053    1.3993  -23.9201 C   0  0  0  0  0  0  0  0  0  0  0  0
  -12.9770    3.5409  -22.3180 C   0  0  0  0  0  0  0  0  0  0  0  0
  -12.2290    2.4672  -22.7994 O   0  0  0  0  0  0  0  0  0  0  0  0
   -7.0479   -0.8209  -21.7930 C   0  0  0  0  0  0  0  0  0  0  0  0
   -6.3532   -0.5409  -20.5367 C   0  0  0  0  0  0  0  0  0  0  0  0
   -6.7298   -1.0069  -19.2976 C   0  0  0  0  0  0  0  0  0  0  0  0
   -6.0610   -0.7253  -18.1645 N   0  0  0  0  0  0  0  0  0  0  0  0
   -4.9710    0.0438  -18.2133 C   0  0  0  0  0  0  0  0  0  0  0  0
   -4.5164    0.5598  -19.4260 C   0  0  0  0  0  0  0  0  0  0  0  0
   -3.3900    1.3557  -19.4819 C   0  0  0  0  0  0  0  0  0  0  0  0
   -2.9651    1.8512  -20.6940 C   0  0  0  0  0  0  0  0  0  0  0  0
   -3.6468    1.5693  -21.8792 C   0  0  0  0  0  0  0  0  0  0  0  0
   -4.7686    0.7690  -21.7779 C   0  0  0  0  0  0  0  0  0  0  0  0
   -5.2176    0.2583  -20.5751 C   0  0  0  0  0  0  0  0  0  0  0  0
 16 17  1  0  0  0
 17 10  1  0  0  0
 10 11  2  0  0  0
 11 12  1  0  0  0
 12 13  2  0  0  0
 13 14  1  0  0  0
 14 15  2  0  0  0
 15 10  1  0  0  0
  1 15  1  0  0  0
  1  2  1  0  0  0
  2  3  1  0  0  0
  3  4  1  0  0  0
  3  5  1  0  0  0
  5  6  1  0  0  0
  6  7  1  0  0  0
  7  8  1  0  0  0
  7  1  1  0  0  0
  8  9  2  0  0  0
  8 18  1  0  0  0
 18 19  1  0  0  0
 19 20  2  0  0  0
 20 21  1  0  0  0
 21 22  2  0  0  0
 22 23  1  0  0  0
 23 24  2  0  0  0
 24 25  1  0  0  0
 25 26  2  0  0  0
 26 27  1  0  0  0
 27 28  2  0  0  0
 28 19  1  0  0  0
 28 23  1  0  0  0
M  END
> <minimizedAffinity>
-7.92357

> <CNNscore>
0.7344000340

> <CNNaffinity>
5.9801054001

> <CNN_VS>
4.3917894363

> <CNNaffinity_variance>
0.0868775696

$$$$



 28 31  0  0  0  0  0  0  0  0999 V2000
   -9.0626   -2.1315  -23.7533 C   0  0  0  0  0  0  0  0  0  0  0  0
   -9.2317   -3.0354  -24.9677 C   0  0  0  0  0  0  0  0  0  0  0  0
   -8.7970   -4.4586  -24.5987 C   0  0  0  0  0  0  0  0  0  0  0  0
   -9.3272   -5.3788  -25.6763 C   0  0  0  0  0  0  0  0  0  0  0  0
   -7.3100   -4.4897  -24.4754 C   0  0  0  0  0  0  0  0  0  0  0  0
   -6.8019   -3.1058  -24.0462 C   0  0  0  0  0  0  0  0  0  0  0  0
   -7.7655   -2.4533  -23.1733 N   0  0  0  0  0  0  0  0  0  0  0  0
   -7.4802   -2.1337  -21.8153 C   0  0  0  0  0  0  0  0  0  0  0  0
   -8.3064   -1.5703  -21.0497 O   0  0  0  0  0  0  0  0  0  0  0  0
  -10.4281   -0.1016  -23.7370 C   0  0  0  0  0  0  0  0  0  0  0  0
  -10.6473    1.2255  -24.0425 C   0  0  0  0  0  0  0  0  0  0  0  0
   -9.7019    1.9895  -24.7245 C   0  0  0  0  0  0  0  0  0  0  0  0
   -8.5285    1.3763  -25.0899 C   0  0  0  0  0  0  0  0  0  0  0  0
   -8.3174    0.0493  -24.7807 C   0  0  0  0  0  0  0  0  0  0  0  0
   -9.2349   -0.7282  -24.1077 C   0  0  0  0  0  0  0  0  0  0  0  0
  -12.7699   -0.7448  -23.2356 C   0  0  0  0  0  0  0  0  0  0  0  0
  -11.3873   -0.8066  -23.0667 O   0  0  0  0  0  0  0  0  0  0  0  0
   -6.1394   -2.4804  -21.2664 C   0  0  0  0  0  0  0  0  0  0  0  0
   -5.7349   -1.5935  -20.1759 C   0  0  0  0  0  0  0  0  0  0  0  0
   -6.1122   -1.7275  -18.8590 C   0  0  0  0  0  0  0  0  0  0  0  0
   -5.7164   -0.8879  -17.8850 N   0  0  0  0  0  0  0  0  0  0  0  0
   -4.9153    0.1382  -18.1809 C   0  0  0  0  0  0  0  0  0  0  0  0
   -4.4831    0.3508  -19.4892 C   0  0  0  0  0  0  0  0  0  0  0  0
   -3.6549    1.4103  -19.8004 C   0  0  0  0  0  0  0  0  0  0  0  0
   -3.2446    1.5951  -21.1015 C   0  0  0  0  0  0  0  0  0  0  0  0
   -3.6455    0.7340  -22.1245 C   0  0  0  0  0  0  0  0  0  0  0  0
   -4.4741   -0.3131  -21.7691 C   0  0  0  0  0  0  0  0  0  0  0  0
   -4.9013   -0.5223  -20.4718 C   0  0  0  0  0  0  0  0  0  0  0  0
 16 17  1  0  0  0
 17 10  1  0  0  0
 10 11  2  0  0  0
 11 12  1  0  0  0
 12 13  2  0  0  0
 13 14  1  0  0  0
 14 15  2  0  0  0
 15 10  1  0  0  0
  1 15  1  0  0  0
  1  2  1  0  0  0
  2  3  1  0  0  0
  3  4  1  0  0  0
  3  5  1  0  0  0
  5  6  1  0  0  0
  6  7  1  0  0  0
  7  8  1  0  0  0
  7  1  1  0  0  0
  8  9  2  0  0  0
  8 18  1  0  0  0
 18 19  1  0  0  0
 19 20  2  0  0  0
 20 21  1  0  0  0
 21 22  2  0  0  0
 22 23  1  0  0  0
 23 24  2  0  0  0
 24 25  1  0  0  0
 25 26  2  0  0  0
 26 27  1  0  0  0
 27 28  2  0  0  0
 28 19  1  0  0  0
 28 23  1  0  0  0
M  END
> <minimizedAffinity>
-7.82944

> <CNNscore>
0.5399079919

> <CNNaffinity>
5.6209626198

> <CNN_VS>
3.0348026752

> <CNNaffinity_variance>
0.3762160838

$$$$



 28 31  0  0  0  0  0  0  0  0999 V2000
   -9.4891   -2.1058  -23.8534 C   0  0  0  0  0  0  0  0  0  0  0  0
   -8.5006   -1.5655  -22.8280 C   0  0  0  0  0  0  0  0  0  0  0  0
   -7.1058   -2.1246  -23.1321 C   0  0  0  0  0  0  0  0  0  0  0  0
   -6.1126   -1.2883  -22.3552 C   0  0  0  0  0  0  0  0  0  0  0  0
   -7.0767   -3.5701  -22.7623 C   0  0  0  0  0  0  0  0  0  0  0  0
   -8.4856   -4.1641  -22.9033 C   0  0  0  0  0  0  0  0  0  0  0  0
   -9.2039   -3.5274  -23.9963 N   0  0  0  0  0  0  0  0  0  0  0  0
   -9.6194   -4.2358  -25.1597 C   0  0  0  0  0  0  0  0  0  0  0  0
  -10.2405   -3.6955  -26.1128 O   0  0  0  0  0  0  0  0  0  0  0  0
  -11.3633   -0.5344  -23.7991 C   0  0  0  0  0  0  0  0  0  0  0  0
  -12.6578   -0.1881  -23.4719 C   0  0  0  0  0  0  0  0  0  0  0  0
  -13.5128   -1.0722  -22.8163 C   0  0  0  0  0  0  0  0  0  0  0  0
  -13.0246   -2.3164  -22.4999 C   0  0  0  0  0  0  0  0  0  0  0  0
  -11.7294   -2.6545  -22.8305 C   0  0  0  0  0  0  0  0  0  0  0  0
  -10.8639   -1.7999  -23.4782 C   0  0  0  0  0  0  0  0  0  0  0  0
  -10.4242    1.7300  -24.1728 C   0  0  0  0  0  0  0  0  0  0  0  0
  -10.5654    0.3692  -24.4418 O   0  0  0  0  0  0  0  0  0  0  0  0
   -9.3070   -5.6889  -25.2607 C   0  0  0  0  0  0  0  0  0  0  0  0
   -8.5657   -6.0183  -26.4778 C   0  0  0  0  0  0  0  0  0  0  0  0
   -9.0570   -5.9222  -27.7599 C   0  0  0  0  0  0  0  0  0  0  0  0
   -8.3399   -6.2356  -28.8544 N   0  0  0  0  0  0  0  0  0  0  0  0
   -7.0829   -6.6650  -28.7213 C   0  0  0  0  0  0  0  0  0  0  0  0
   -6.5031   -6.7929  -27.4600 C   0  0  0  0  0  0  0  0  0  0  0  0
   -5.2038   -7.2366  -27.3170 C   0  0  0  0  0  0  0  0  0  0  0  0
   -4.6582   -7.3531  -26.0584 C   0  0  0  0  0  0  0  0  0  0  0  0
   -5.3876   -7.0325  -24.9121 C   0  0  0  0  0  0  0  0  0  0  0  0
   -6.6838   -6.5925  -25.1008 C   0  0  0  0  0  0  0  0  0  0  0  0
   -7.2567   -6.4661  -26.3517 C   0  0  0  0  0  0  0  0  0  0  0  0
 16 17  1  0  0  0
 17 10  1  0  0  0
 10 11  2  0  0  0
 11 12  1  0  0  0
 12 13  2  0  0  0
 13 14  1  0  0  0
 14 15  2  0  0  0
 15 10  1  0  0  0
  1 15  1  0  0  0
  1  2  1  0  0  0
  2  3  1  0  0  0
  3  4  1  0  0  0
  3  5  1  0  0  0
  5  6  1  0  0  0
  6  7  1  0  0  0
  7  8  1  0  0  0
  7  1  1  0  0  0
  8  9  2  0  0  0
  8 18  1  0  0  0
 18 19  1  0  0  0
 19 20  2  0  0  0
 20 21  1  0  0  0
 21 22  2  0  0  0
 22 23  1  0  0  0
 23 24  2  0  0  0
 24 25  1  0  0  0
 25 26  2  0  0  0
 26 27  1  0  0  0
 27 28  2  0  0  0
 28 19  1  0  0  0
 28 23  1  0  0  0
M  END
> <minimizedAffinity>
-7.32764

> <CNNscore>
0.3923498690

> <CNNaffinity>
5.6273221970

> <CNN_VS>
2.2078790665

> <CNNaffinity_variance>
0.1828023791

$$$$



 28 31  0  0  0  0  0  0  0  0999 V2000
   -7.3796   -4.2062  -24.0486 C   0  0  0  0  0  0  0  0  0  0  0  0
   -8.6621   -4.8934  -24.4997 C   0  0  0  0  0  0  0  0  0  0  0  0
   -9.6688   -3.8297  -24.9533 C   0  0  0  0  0  0  0  0  0  0  0  0
  -10.7502   -4.5449  -25.7333 C   0  0  0  0  0  0  0  0  0  0  0  0
  -10.1850   -3.1131  -23.7502 C   0  0  0  0  0  0  0  0  0  0  0  0
   -9.1168   -3.1270  -22.6474 C   0  0  0  0  0  0  0  0  0  0  0  0
   -7.7825   -3.0744  -23.2246 N   0  0  0  0  0  0  0  0  0  0  0  0
   -6.8942   -1.9822  -23.0104 C   0  0  0  0  0  0  0  0  0  0  0  0
   -5.7376   -1.9247  -23.5056 O   0  0  0  0  0  0  0  0  0  0  0  0
   -5.4945   -5.7611  -24.1663 C   0  0  0  0  0  0  0  0  0  0  0  0
   -4.6113   -6.6551  -23.5977 C   0  0  0  0  0  0  0  0  0  0  0  0
   -4.6605   -6.9775  -22.2427 C   0  0  0  0  0  0  0  0  0  0  0  0
   -5.6266   -6.3720  -21.4769 C   0  0  0  0  0  0  0  0  0  0  0  0
   -6.5056   -5.4795  -22.0532 C   0  0  0  0  0  0  0  0  0  0  0  0
   -6.4787   -5.1434  -23.3894 C   0  0  0  0  0  0  0  0  0  0  0  0
   -5.6851   -6.3227  -26.5741 C   0  0  0  0  0  0  0  0  0  0  0  0
   -5.4039   -5.4793  -25.4999 O   0  0  0  0  0  0  0  0  0  0  0  0
   -7.3494   -0.8477  -22.1589 C   0  0  0  0  0  0  0  0  0  0  0  0
   -6.6779   -0.8187  -20.8599 C   0  0  0  0  0  0  0  0  0  0  0  0
   -6.9680   -1.6412  -19.7951 C   0  0  0  0  0  0  0  0  0  0  0  0
   -6.3244   -1.5817  -18.6150 N   0  0  0  0  0  0  0  0  0  0  0  0
   -5.3485   -0.6882  -18.4379 C   0  0  0  0  0  0  0  0  0  0  0  0
   -4.9874    0.1855  -19.4624 C   0  0  0  0  0  0  0  0  0  0  0  0
   -3.9792    1.1113  -19.2843 C   0  0  0  0  0  0  0  0  0  0  0  0
   -3.6448    1.9613  -20.3143 C   0  0  0  0  0  0  0  0  0  0  0  0
   -4.3019    1.9136  -21.5451 C   0  0  0  0  0  0  0  0  0  0  0  0
   -5.3043    0.9722  -21.6804 C   0  0  0  0  0  0  0  0  0  0  0  0
   -5.6607    0.1069  -20.6639 C   0  0  0  0  0  0  0  0  0  0  0  0
 16 17  1  0  0  0
 17 10  1  0  0  0
 10 11  2  0  0  0
 11 12  1  0  0  0
 12 13  2  0  0  0
 13 14  1  0  0  0
 14 15  2  0  0  0
 15 10  1  0  0  0
  1 15  1  0  0  0
  1  2  1  0  0  0
  2  3  1  0  0  0
  3  4  1  0  0  0
  3  5  1  0  0  0
  5  6  1  0  0  0
  6  7  1  0  0  0
  7  8  1  0  0  0
  7  1  1  0  0  0
  8  9  2  0  0  0
  8 18  1  0  0  0
 18 19  1  0  0  0
 19 20  2  0  0  0
 20 21  1  0  0  0
 21 22  2  0  0  0
 22 23  1  0  0  0
 23 24  2  0  0  0
 24 25  1  0  0  0
 25 26  2  0  0  0
 26 27  1  0  0  0
 27 28  2  0  0  0
 28 19  1  0  0  0
 28 23  1  0  0  0
M  END
> <minimizedAffinity>
-6.81820

> <CNNscore>
0.3480609357

> <CNNaffinity>
5.6469755173

> <CNN_VS>
1.9654915333

> <CNNaffinity_variance>
0.2637267411

$$$$



 28 31  0  0  0  0  0  0  0  0999 V2000
   -7.6799    1.3420  -22.4424 C   0  0  0  0  0  0  0  0  0  0  0  0
   -6.5711    2.3766  -22.5859 C   0  0  0  0  0  0  0  0  0  0  0  0
   -7.1927    3.7779  -22.6151 C   0  0  0  0  0  0  0  0  0  0  0  0
   -6.0724    4.7662  -22.3750 C   0  0  0  0  0  0  0  0  0  0  0  0
   -7.8793    3.9713  -23.9259 C   0  0  0  0  0  0  0  0  0  0  0  0
   -8.3571    2.6133  -24.4601 C   0  0  0  0  0  0  0  0  0  0  0  0
   -8.7373    1.7358  -23.3640 N   0  0  0  0  0  0  0  0  0  0  0  0
  -10.0701    1.2699  -23.1784 C   0  0  0  0  0  0  0  0  0  0  0  0
  -10.4116    0.5112  -22.2329 O   0  0  0  0  0  0  0  0  0  0  0  0
   -6.9626   -0.8052  -21.5150 C   0  0  0  0  0  0  0  0  0  0  0  0
   -6.4877   -2.0938  -21.6437 C   0  0  0  0  0  0  0  0  0  0  0  0
   -6.2020   -2.6520  -22.8884 C   0  0  0  0  0  0  0  0  0  0  0  0
   -6.4090   -1.8727  -24.0004 C   0  0  0  0  0  0  0  0  0  0  0  0
   -6.8838   -0.5855  -23.8628 C   0  0  0  0  0  0  0  0  0  0  0  0
   -7.1741   -0.0099  -22.6448 C   0  0  0  0  0  0  0  0  0  0  0  0
   -7.0460   -0.9332  -19.0399 C   0  0  0  0  0  0  0  0  0  0  0  0
   -7.2272   -0.3052  -20.2715 O   0  0  0  0  0  0  0  0  0  0  0  0
  -11.1177    1.6977  -24.1473 C   0  0  0  0  0  0  0  0  0  0  0  0
  -11.9784    2.7518  -23.6113 C   0  0  0  0  0  0  0  0  0  0  0  0
  -12.7319    2.6576  -22.4634 C   0  0  0  0  0  0  0  0  0  0  0  0
  -13.5117    3.6534  -22.0042 N   0  0  0  0  0  0  0  0  0  0  0  0
  -13.5782    4.8051  -22.6759 C   0  0  0  0  0  0  0  0  0  0  0  0
  -12.8484    4.9891  -23.8493 C   0  0  0  0  0  0  0  0  0  0  0  0
  -12.9137    6.1780  -24.5477 C   0  0  0  0  0  0  0  0  0  0  0  0
  -12.1818    6.3305  -25.7036 C   0  0  0  0  0  0  0  0  0  0  0  0
  -11.3678    5.3081  -26.1945 C   0  0  0  0  0  0  0  0  0  0  0  0
  -11.3316    4.1353  -25.4647 C   0  0  0  0  0  0  0  0  0  0  0  0
  -12.0556    3.9548  -24.3017 C   0  0  0  0  0  0  0  0  0  0  0  0
 16 17  1  0  0  0
 17 10  1  0  0  0
 10 11  2  0  0  0
 11 12  1  0  0  0
 12 13  2  0  0  0
 13 14  1  0  0  0
 14 15  2  0  0  0
 15 10  1  0  0  0
  1 15  1  0  0  0
  1  2  1  0  0  0
  2  3  1  0  0  0
  3  4  1  0  0  0
  3  5  1  0  0  0
  5  6  1  0  0  0
  6  7  1  0  0  0
  7  8  1  0  0  0
  7  1  1  0  0  0
  8  9  2  0  0  0
  8 18  1  0  0  0
 18 19  1  0  0  0
 19 20  2  0  0  0
 20 21  1  0  0  0
 21 22  2  0  0  0
 22 23  1  0  0  0
 23 24  2  0  0  0
 24 25  1  0  0  0
 25 26  2  0  0  0
 26 27  1  0  0  0
 27 28  2  0  0  0
 28 19  1  0  0  0
 28 23  1  0  0  0
M  END
> <minimizedAffinity>
-6.63458

> <CNNscore>
0.3049984574

> <CNNaffinity>
5.2307825089

> <CNN_VS>
1.5953805447

> <CNNaffinity_variance>
0.2134978473

$$$$



 28 31  0  0  0  0  0  0  0  0999 V2000
   -8.5047   -1.1921  -22.4641 C   0  0  0  0  0  0  0  0  0  0  0  0
  -10.0126   -1.0465  -22.6235 C   0  0  0  0  0  0  0  0  0  0  0  0
  -10.6333   -2.4351  -22.8171 C   0  0  0  0  0  0  0  0  0  0  0  0
  -12.1224   -2.2919  -22.5905 C   0  0  0  0  0  0  0  0  0  0  0  0
  -10.2891   -2.9288  -24.1828 C   0  0  0  0  0  0  0  0  0  0  0  0
   -8.9512   -2.3196  -24.6263 C   0  0  0  0  0  0  0  0  0  0  0  0
   -8.0681   -2.1350  -23.4852 N   0  0  0  0  0  0  0  0  0  0  0  0
   -6.8321   -2.8291  -23.3488 C   0  0  0  0  0  0  0  0  0  0  0  0
   -6.0600   -2.6786  -22.3653 O   0  0  0  0  0  0  0  0  0  0  0  0
   -7.0466    0.4731  -21.4217 C   0  0  0  0  0  0  0  0  0  0  0  0
   -6.3890    1.6855  -21.4117 C   0  0  0  0  0  0  0  0  0  0  0  0
   -6.4835    2.5828  -22.4740 C   0  0  0  0  0  0  0  0  0  0  0  0
   -7.2607    2.2220  -23.5475 C   0  0  0  0  0  0  0  0  0  0  0  0
   -7.9147    1.0081  -23.5494 C   0  0  0  0  0  0  0  0  0  0  0  0
   -7.8382    0.1033  -22.5128 C   0  0  0  0  0  0  0  0  0  0  0  0
   -5.7999   -0.5740  -19.5513 C   0  0  0  0  0  0  0  0  0  0  0  0
   -6.9211   -0.3710  -20.3549 O   0  0  0  0  0  0  0  0  0  0  0  0
   -6.4263   -3.7823  -24.4193 C   0  0  0  0  0  0  0  0  0  0  0  0
   -7.0474   -5.0972  -24.2623 C   0  0  0  0  0  0  0  0  0  0  0  0
   -6.9332   -5.9044  -23.1534 C   0  0  0  0  0  0  0  0  0  0  0  0
   -7.5225   -7.1096  -23.0494 N   0  0  0  0  0  0  0  0  0  0  0  0
   -8.2632   -7.5732  -24.0586 C   0  0  0  0  0  0  0  0  0  0  0  0
   -8.4338   -6.8228  -25.2210 C   0  0  0  0  0  0  0  0  0  0  0  0
   -9.1985   -7.2978  -26.2674 C   0  0  0  0  0  0  0  0  0  0  0  0
   -9.3488   -6.5342  -27.4030 C   0  0  0  0  0  0  0  0  0  0  0  0
   -8.7447   -5.2819  -27.5281 C   0  0  0  0  0  0  0  0  0  0  0  0
   -7.9884   -4.8450  -26.4573 C   0  0  0  0  0  0  0  0  0  0  0  0
   -7.8205   -5.5901  -25.3059 C   0  0  0  0  0  0  0  0  0  0  0  0
 16 17  1  0  0  0
 17 10  1  0  0  0
 10 11  2  0  0  0
 11 12  1  0  0  0
 12 13  2  0  0  0
 13 14  1  0  0  0
 14 15  2  0  0  0
 15 10  1  0  0  0
  1 15  1  0  0  0
  1  2  1  0  0  0
  2  3  1  0  0  0
  3  4  1  0  0  0
  3  5  1  0  0  0
  5  6  1  0  0  0
  6  7  1  0  0  0
  7  8  1  0  0  0
  7  1  1  0  0  0
  8  9  2  0  0  0
  8 18  1  0  0  0
 18 19  1  0  0  0
 19 20  2  0  0  0
 20 21  1  0  0  0
 21 22  2  0  0  0
 22 23  1  0  0  0
 23 24  2  0  0  0
 24 25  1  0  0  0
 25 26  2  0  0  0
 26 27  1  0  0  0
 27 28  2  0  0  0
 28 19  1  0  0  0
 28 23  1  0  0  0
M  END
> <minimizedAffinity>
-6.00194

> <CNNscore>
0.2742124498

> <CNNaffinity>
5.6420216560

> <CNN_VS>
1.5471125841

> <CNNaffinity_variance>
0.1447643638

$$$$



 28 31  0  0  0  0  0  0  0  0999 V2000
   -7.1022   -5.3621  -25.7617 C   0  0  0  0  0  0  0  0  0  0  0  0
   -8.3557   -6.1719  -26.0674 C   0  0  0  0  0  0  0  0  0  0  0  0
   -9.5204   -5.2118  -26.3364 C   0  0  0  0  0  0  0  0  0  0  0  0
  -10.6180   -6.0181  -26.9957 C   0  0  0  0  0  0  0  0  0  0  0  0
   -9.9388   -4.5907  -25.0455 C   0  0  0  0  0  0  0  0  0  0  0  0
   -8.7340   -4.5195  -24.0964 C   0  0  0  0  0  0  0  0  0  0  0  0
   -7.5042   -4.3051  -24.8433 N   0  0  0  0  0  0  0  0  0  0  0  0
   -6.7136   -3.1291  -24.7022 C   0  0  0  0  0  0  0  0  0  0  0  0
   -5.6482   -2.9316  -25.3441 O   0  0  0  0  0  0  0  0  0  0  0  0
   -5.1014   -6.7009  -26.1970 C   0  0  0  0  0  0  0  0  0  0  0  0
   -4.0604   -7.5094  -25.7903 C   0  0  0  0  0  0  0  0  0  0  0  0
   -3.8877   -7.8712  -24.4554 C   0  0  0  0  0  0  0  0  0  0  0  0
   -4.7955   -7.3939  -23.5418 C   0  0  0  0  0  0  0  0  0  0  0  0
   -5.8332   -6.5864  -23.9568 C   0  0  0  0  0  0  0  0  0  0  0  0
   -6.0267   -6.2139  -25.2695 C   0  0  0  0  0  0  0  0  0  0  0  0
   -5.6393   -7.1966  -28.5664 C   0  0  0  0  0  0  0  0  0  0  0  0
   -5.2262   -6.3756  -27.5179 O   0  0  0  0  0  0  0  0  0  0  0  0
   -7.1636   -2.0759  -23.7495 C   0  0  0  0  0  0  0  0  0  0  0  0
   -6.4248   -2.1105  -22.4877 C   0  0  0  0  0  0  0  0  0  0  0  0
   -6.1513   -3.2437  -21.7559 C   0  0  0  0  0  0  0  0  0  0  0  0
   -5.4666   -3.2314  -20.5977 N   0  0  0  0  0  0  0  0  0  0  0  0
   -5.0160   -2.0743  -20.1077 C   0  0  0  0  0  0  0  0  0  0  0  0
   -5.2467   -0.8764  -20.7824 C   0  0  0  0  0  0  0  0  0  0  0  0
   -4.7831    0.3228  -20.2798 C   0  0  0  0  0  0  0  0  0  0  0  0
   -5.0265    1.4898  -20.9683 C   0  0  0  0  0  0  0  0  0  0  0  0
   -5.7351    1.4957  -22.1711 C   0  0  0  0  0  0  0  0  0  0  0  0
   -6.1807    0.2739  -22.6380 C   0  0  0  0  0  0  0  0  0  0  0  0
   -5.9510   -0.9125  -21.9680 C   0  0  0  0  0  0  0  0  0  0  0  0
 16 17  1  0  0  0
 17 10  1  0  0  0
 10 11  2  0  0  0
 11 12  1  0  0  0
 12 13  2  0  0  0
 13 14  1  0  0  0
 14 15  2  0  0  0
 15 10  1  0  0  0
  1 15  1  0  0  0
  1  2  1  0  0  0
  2  3  1  0  0  0
  3  4  1  0  0  0
  3  5  1  0  0  0
  5  6  1  0  0  0
  6  7  1  0  0  0
  7  8  1  0  0  0
  7  1  1  0  0  0
  8  9  2  0  0  0
  8 18  1  0  0  0
 18 19  1  0  0  0
 19 20  2  0  0  0
 20 21  1  0  0  0
 21 22  2  0  0  0
 22 23  1  0  0  0
 23 24  2  0  0  0
 24 25  1  0  0  0
 25 26  2  0  0  0
 26 27  1  0  0  0
 27 28  2  0  0  0
 28 19  1  0  0  0
 28 23  1  0  0  0
M  END
> <minimizedAffinity>
-5.92243

> <CNNscore>
0.2520385087

> <CNNaffinity>
5.4529409409

> <CNN_VS>
1.3743511438

> <CNNaffinity_variance>
0.1967431158

$$$$



 28 31  0  0  0  0  0  0  0  0999 V2000
   -7.4684   -4.3535  -24.6267 C   0  0  0  0  0  0  0  0  0  0  0  0
   -8.2726   -4.9232  -25.7882 C   0  0  0  0  0  0  0  0  0  0  0  0
   -9.1735   -3.8233  -26.3622 C   0  0  0  0  0  0  0  0  0  0  0  0
   -9.6539   -4.3029  -27.7145 C   0  0  0  0  0  0  0  0  0  0  0  0
  -10.2841   -3.5617  -25.4003 C   0  0  0  0  0  0  0  0  0  0  0  0
   -9.8118   -3.8761  -23.9736 C   0  0  0  0  0  0  0  0  0  0  0  0
   -8.3975   -3.5711  -23.8224 N   0  0  0  0  0  0  0  0  0  0  0  0
   -7.9183   -2.5625  -22.9386 C   0  0  0  0  0  0  0  0  0  0  0  0
   -6.6968   -2.2885  -22.8001 O   0  0  0  0  0  0  0  0  0  0  0  0
   -5.4627   -5.7092  -24.2737 C   0  0  0  0  0  0  0  0  0  0  0  0
   -4.7536   -6.6933  -23.6170 C   0  0  0  0  0  0  0  0  0  0  0  0
   -5.3051   -7.4183  -22.5621 C   0  0  0  0  0  0  0  0  0  0  0  0
   -6.5932   -7.1221  -22.1883 C   0  0  0  0  0  0  0  0  0  0  0  0
   -7.2950   -6.1369  -22.8501 C   0  0  0  0  0  0  0  0  0  0  0  0
   -6.7736   -5.4057  -23.8954 C   0  0  0  0  0  0  0  0  0  0  0  0
   -4.4100   -5.5388  -26.5124 C   0  0  0  0  0  0  0  0  0  0  0  0
   -4.8760   -5.0274  -25.3019 O   0  0  0  0  0  0  0  0  0  0  0  0
   -8.9057   -1.7891  -22.1349 C   0  0  0  0  0  0  0  0  0  0  0  0
   -9.2083   -0.4852  -22.7245 C   0  0  0  0  0  0  0  0  0  0  0  0
   -8.2889    0.5080  -22.9750 C   0  0  0  0  0  0  0  0  0  0  0  0
   -8.6099    1.6955  -23.5203 N   0  0  0  0  0  0  0  0  0  0  0  0
   -9.8787    1.9526  -23.8462 C   0  0  0  0  0  0  0  0  0  0  0  0
  -10.8769    1.0042  -23.6281 C   0  0  0  0  0  0  0  0  0  0  0  0
  -12.1903    1.2652  -23.9631 C   0  0  0  0  0  0  0  0  0  0  0  0
  -13.1544    0.3092  -23.7357 C   0  0  0  0  0  0  0  0  0  0  0  0
  -12.8394   -0.9279  -23.1708 C   0  0  0  0  0  0  0  0  0  0  0  0
  -11.5132   -1.1474  -22.8507 C   0  0  0  0  0  0  0  0  0  0  0  0
  -10.5252   -0.2063  -23.0678 C   0  0  0  0  0  0  0  0  0  0  0  0
 16 17  1  0  0  0
 17 10  1  0  0  0
 10 11  2  0  0  0
 11 12  1  0  0  0
 12 13  2  0  0  0
 13 14  1  0  0  0
 14 15  2  0  0  0
 15 10  1  0  0  0
  1 15  1  0  0  0
  1  2  1  0  0  0
  2  3  1  0  0  0
  3  4  1  0  0  0
  3  5  1  0  0  0
  5  6  1  0  0  0
  6  7  1  0  0  0
  7  8  1  0  0  0
  7  1  1  0  0  0
  8  9  2  0  0  0
  8 18  1  0  0  0
 18 19  1  0  0  0
 19 20  2  0  0  0
 20 21  1  0  0  0
 21 22  2  0  0  0
 22 23  1  0  0  0
 23 24  2  0  0  0
 24 25  1  0  0  0
 25 26  2  0  0  0
 26 27  1  0  0  0
 27 28  2  0  0  0
 28 19  1  0  0  0
 28 23  1  0  0  0
M  END
> <minimizedAffinity>
-6.34725

> <CNNscore>
0.2164931148

> <CNNaffinity>
5.4274611473

> <CNN_VS>
1.1750079393

> <CNNaffinity_variance>
0.2297866642

$$$$



 28 31  0  0  0  0  0  0  0  0999 V2000
   -8.5148   -1.2573  -23.3875 C   0  0  0  0  0  0  0  0  0  0  0  0
   -7.4278   -1.6058  -22.3788 C   0  0  0  0  0  0  0  0  0  0  0  0
   -7.6450   -0.7842  -21.1027 C   0  0  0  0  0  0  0  0  0  0  0  0
   -6.8050   -1.4196  -20.0165 C   0  0  0  0  0  0  0  0  0  0  0  0
   -7.2780    0.6360  -21.3776 C   0  0  0  0  0  0  0  0  0  0  0  0
   -7.5089    0.9471  -22.8633 C   0  0  0  0  0  0  0  0  0  0  0  0
   -8.6433    0.1938  -23.3751 N   0  0  0  0  0  0  0  0  0  0  0  0
   -9.8323    0.8195  -23.8469 C   0  0  0  0  0  0  0  0  0  0  0  0
  -10.8212    0.1782  -24.2908 O   0  0  0  0  0  0  0  0  0  0  0  0
   -8.8863   -3.0055  -25.0581 C   0  0  0  0  0  0  0  0  0  0  0  0
   -8.6559   -3.5904  -26.2859 C   0  0  0  0  0  0  0  0  0  0  0  0
   -7.7673   -3.0403  -27.2081 C   0  0  0  0  0  0  0  0  0  0  0  0
   -7.1172   -1.8827  -26.8562 C   0  0  0  0  0  0  0  0  0  0  0  0
   -7.3532   -1.3045  -25.6269 C   0  0  0  0  0  0  0  0  0  0  0  0
   -8.2261   -1.8274  -24.6975 C   0  0  0  0  0  0  0  0  0  0  0  0
  -11.1584   -3.4882  -24.1900 C   0  0  0  0  0  0  0  0  0  0  0  0
   -9.7675   -3.5849  -24.1898 O   0  0  0  0  0  0  0  0  0  0  0  0
   -9.9174    2.3064  -23.8165 C   0  0  0  0  0  0  0  0  0  0  0  0
  -11.2980    2.7885  -23.8453 C   0  0  0  0  0  0  0  0  0  0  0  0
  -12.2819    2.4399  -22.9481 C   0  0  0  0  0  0  0  0  0  0  0  0
  -13.5420    2.9076  -23.0105 N   0  0  0  0  0  0  0  0  0  0  0  0
  -13.8856    3.7559  -23.9823 C   0  0  0  0  0  0  0  0  0  0  0  0
  -12.9533    4.1638  -24.9351 C   0  0  0  0  0  0  0  0  0  0  0  0
  -13.3035    5.0406  -25.9420 C   0  0  0  0  0  0  0  0  0  0  0  0
  -12.3612    5.4253  -26.8689 C   0  0  0  0  0  0  0  0  0  0  0  0
  -11.0495    4.9500  -26.8195 C   0  0  0  0  0  0  0  0  0  0  0  0
  -10.7418    4.0747  -25.7955 C   0  0  0  0  0  0  0  0  0  0  0  0
  -11.6672    3.6717  -24.8520 C   0  0  0  0  0  0  0  0  0  0  0  0
 16 17  1  0  0  0
 17 10  1  0  0  0
 10 11  2  0  0  0
 11 12  1  0  0  0
 12 13  2  0  0  0
 13 14  1  0  0  0
 14 15  2  0  0  0
 15 10  1  0  0  0
  1 15  1  0  0  0
  1  2  1  0  0  0
  2  3  1  0  0  0
  3  4  1  0  0  0
  3  5  1  0  0  0
  5  6  1  0  0  0
  6  7  1  0  0  0
  7  8  1  0  0  0
  7  1  1  0  0  0
  8  9  2  0  0  0
  8 18  1  0  0  0
 18 19  1  0  0  0
 19 20  2  0  0  0
 20 21  1  0  0  0
 21 22  2  0  0  0
 22 23  1  0  0  0
 23 24  2  0  0  0
 24 25  1  0  0  0
 25 26  2  0  0  0
 26 27  1  0  0  0
 27 28  2  0  0  0
 28 19  1  0  0  0
 28 23  1  0  0  0
M  END
> <minimizedAffinity>
-6.64273

> <CNNscore>
0.1711597443

> <CNNaffinity>
5.1381769180

> <CNN_VS>
0.8794490695

> <CNNaffinity_variance>
0.1999438256

$$$$



 33 37  0  0  0  0  0  0  0  0999 V2000
   -5.2786   -0.4816  -20.2686 C   0  0  0  0  0  0  0  0  0  0  0  0
   -3.9860   -0.0155  -20.4648 C   0  0  0  0  0  0  0  0  0  0  0  0
   -3.7073    0.7304  -21.6030 C   0  0  0  0  0  0  0  0  0  0  0  0
   -4.6892    1.0132  -22.5360 C   0  0  0  0  0  0  0  0  0  0  0  0
   -5.9773    0.5541  -22.3497 C   0  0  0  0  0  0  0  0  0  0  0  0
   -6.2325   -0.1787  -21.2226 C   0  0  0  0  0  0  0  0  0  0  0  0
   -7.0003    0.8658  -23.3506 C   0  0  0  0  0  0  0  0  0  0  0  0
   -6.5921    2.0621  -24.1844 C   0  0  0  0  0  0  0  0  0  0  0  0
   -5.1959    1.8470  -24.7278 C   0  0  0  0  0  0  0  0  0  0  0  0
   -4.3013    1.7661  -23.6360 O   0  0  0  0  0  0  0  0  0  0  0  0
   -7.2419   -0.2114  -24.2926 N   0  0  0  0  0  0  0  0  0  0  0  0
   -8.6283   -0.2985  -24.6083 C   0  0  0  0  0  0  0  0  0  0  0  0
   -9.0648   -0.9672  -25.5670 O   0  0  0  0  0  0  0  0  0  0  0  0
   -9.3432    0.4872  -23.6581 N   0  0  0  0  0  0  0  0  0  0  0  0
   -8.3625    1.0357  -22.7823 C   0  0  0  0  0  0  0  0  0  0  0  0
   -8.6642    1.5862  -21.6741 O   0  0  0  0  0  0  0  0  0  0  0  0
   -6.5447   -0.8001  -24.6620 H   0  0  0  0  0  0  0  0  0  0  0  0
  -10.7457    0.6306  -23.6670 C   0  0  0  0  0  0  0  0  0  0  0  0
  -11.2588    1.8542  -24.0722 C   0  0  0  0  0  0  0  0  0  0  0  0
  -12.6083    2.0565  -24.1029 N   0  0  0  0  0  0  0  0  0  0  0  0
  -13.4714    1.0879  -23.7457 C   0  0  0  0  0  0  0  0  0  0  0  0
  -12.9977   -0.1494  -23.3347 C   0  0  0  0  0  0  0  0  0  0  0  0
  -13.8610   -1.1441  -22.9686 C   0  0  0  0  0  0  0  0  0  0  0  0
  -13.3892   -2.3823  -22.5572 C   0  0  0  0  0  0  0  0  0  0  0  0
  -12.0016   -2.5623  -22.5353 C   0  0  0  0  0  0  0  0  0  0  0  0
  -11.1288   -1.5854  -22.8955 C   0  0  0  0  0  0  0  0  0  0  0  0
  -11.6301   -0.3642  -23.3002 C   0  0  0  0  0  0  0  0  0  0  0  0
   -5.0667   -3.0514  -19.0085 N   0  0  0  0  0  0  0  0  0  0  0  0
   -5.6567   -1.4252  -18.8403 S   0  0  0  0  0  0  0  0  0  0  0  0
   -5.0867   -0.7772  -17.6180 O   0  0  0  0  0  0  0  0  0  0  0  0
   -7.1483   -1.5235  -18.6541 O   0  0  0  0  0  0  0  0  0  0  0  0
   -5.2954   -3.5845  -18.1695 H   0  0  0  0  0  0  0  0  0  0  0  0
   -4.0548   -3.0344  -19.1353 H   0  0  0  0  0  0  0  0  0  0  0  0
 28 29  1  0  0  0
 28 32  1  0  0  0
 28 33  1  0  0  0
 29 30  2  0  0  0
 29 31  2  0  0  0
 29  1  1  0  0  0
  1  2  2  0  0  0
  2  3  1  0  0  0
  3  4  2  0  0  0
  4  5  1  0  0  0
  5  6  2  0  0  0
  6  1  1  0  0  0
  7  5  1  0  0  0
  7  8  1  0  0  0
  7 11  1  0  0  0
  8  9  1  0  0  0
  9 10  1  0  0  0
 10  4  1  0  0  0
 11 12  1  0  0  0
 11 17  1  0  0  0
 12 13  2  0  0  0
 12 14  1  0  0  0
 14 18  1  0  0  0
 14 15  1  0  0  0
 18 19  2  0  0  0
 19 20  1  0  0  0
 20 21  2  0  0  0
 21 22  1  0  0  0
 22 23  2  0  0  0
 23 24  1  0  0  0
 24 25  2  0  0  0
 25 26  1  0  0  0
 26 27  2  0  0  0
 27 18  1  0  0  0
 27 22  1  0  0  0
 15 16  2  0  0  0
 15  7  1  0  0  0
M  END
> <minimizedAffinity>
-8.20226

> <CNNscore>
0.7849045992

> <CNNaffinity>
6.2692742348

> <CNN_VS>
4.9207820892

> <CNNaffinity_variance>
0.2786149979

$$$$



 33 37  0  0  0  0  0  0  0  0999 V2000
   -6.7121   -1.2077  -20.8887 C   0  0  0  0  0  0  0  0  0  0  0  0
   -5.6893   -1.8843  -21.5388 C   0  0  0  0  0  0  0  0  0  0  0  0
   -5.6879   -1.9247  -22.9273 C   0  0  0  0  0  0  0  0  0  0  0  0
   -6.6815   -1.3067  -23.6658 C   0  0  0  0  0  0  0  0  0  0  0  0
   -7.7026   -0.6316  -23.0285 C   0  0  0  0  0  0  0  0  0  0  0  0
   -7.6868   -0.6027  -21.6606 C   0  0  0  0  0  0  0  0  0  0  0  0
   -8.7436    0.0151  -23.8309 C   0  0  0  0  0  0  0  0  0  0  0  0
   -8.2611    0.2578  -25.2456 C   0  0  0  0  0  0  0  0  0  0  0  0
   -7.7050   -1.0283  -25.8178 C   0  0  0  0  0  0  0  0  0  0  0  0
   -6.5828   -1.4095  -25.0467 O   0  0  0  0  0  0  0  0  0  0  0  0
   -9.9574   -0.7708  -23.9542 N   0  0  0  0  0  0  0  0  0  0  0  0
  -11.1053    0.0718  -23.9136 C   0  0  0  0  0  0  0  0  0  0  0  0
  -12.2442   -0.3174  -24.2424 O   0  0  0  0  0  0  0  0  0  0  0  0
  -10.6902    1.3540  -23.4500 N   0  0  0  0  0  0  0  0  0  0  0  0
   -9.2877    1.2550  -23.2195 C   0  0  0  0  0  0  0  0  0  0  0  0
   -8.6358    2.1363  -22.5712 O   0  0  0  0  0  0  0  0  0  0  0  0
   -9.9838   -1.7500  -24.0523 H   0  0  0  0  0  0  0  0  0  0  0  0
  -11.5707    2.4428  -23.2854 C   0  0  0  0  0  0  0  0  0  0  0  0
  -12.5051    2.3582  -22.2635 C   0  0  0  0  0  0  0  0  0  0  0  0
  -13.3858    3.3793  -22.0523 N   0  0  0  0  0  0  0  0  0  0  0  0
  -13.3751    4.4851  -22.8189 C   0  0  0  0  0  0  0  0  0  0  0  0
  -12.4561    4.6076  -23.8508 C   0  0  0  0  0  0  0  0  0  0  0  0
  -12.4317    5.7244  -24.6387 C   0  0  0  0  0  0  0  0  0  0  0  0
  -11.5134    5.8489  -25.6713 C   0  0  0  0  0  0  0  0  0  0  0  0
  -10.6224    4.7874  -25.8654 C   0  0  0  0  0  0  0  0  0  0  0  0
  -10.6320    3.6702  -25.0924 C   0  0  0  0  0  0  0  0  0  0  0  0
  -11.5584    3.5769  -24.0728 C   0  0  0  0  0  0  0  0  0  0  0  0
   -5.6305   -2.3020  -18.4662 N   0  0  0  0  0  0  0  0  0  0  0  0
   -6.7370   -1.1417  -19.1370 S   0  0  0  0  0  0  0  0  0  0  0  0
   -6.4128    0.2389  -18.6599 O   0  0  0  0  0  0  0  0  0  0  0  0
   -8.1050   -1.4975  -18.6163 O   0  0  0  0  0  0  0  0  0  0  0  0
   -5.6585   -2.2493  -17.4479 H   0  0  0  0  0  0  0  0  0  0  0  0
   -4.6855   -2.0981  -18.7914 H   0  0  0  0  0  0  0  0  0  0  0  0
 28 29  1  0  0  0
 28 32  1  0  0  0
 28 33  1  0  0  0
 29 30  2  0  0  0
 29 31  2  0  0  0
 29  1  1  0  0  0
  1  2  2  0  0  0
  2  3  1  0  0  0
  3  4  2  0  0  0
  4  5  1  0  0  0
  5  6  2  0  0  0
  6  1  1  0  0  0
  7  5  1  0  0  0
  7  8  1  0  0  0
  7 11  1  0  0  0
  8  9  1  0  0  0
  9 10  1  0  0  0
 10  4  1  0  0  0
 11 12  1  0  0  0
 11 17  1  0  0  0
 12 13  2  0  0  0
 12 14  1  0  0  0
 14 18  1  0  0  0
 14 15  1  0  0  0
 18 19  2  0  0  0
 19 20  1  0  0  0
 20 21  2  0  0  0
 21 22  1  0  0  0
 22 23  2  0  0  0
 23 24  1  0  0  0
 24 25  2  0  0  0
 25 26  1  0  0  0
 26 27  2  0  0  0
 27 18  1  0  0  0
 27 22  1  0  0  0
 15 16  2  0  0  0
 15  7  1  0  0  0
M  END
> <minimizedAffinity>
-8.06899

> <CNNscore>
0.6394900680

> <CNNaffinity>
6.0685920715

> <CNN_VS>
3.8808043003

> <CNNaffinity_variance>
0.0850195736

$$$$



 33 37  0  0  0  0  0  0  0  0999 V2000
   -5.4173   -0.5644  -20.3904 C   0  0  0  0  0  0  0  0  0  0  0  0
   -4.1260   -0.2349  -20.7784 C   0  0  0  0  0  0  0  0  0  0  0  0
   -3.9095    0.2178  -22.0737 C   0  0  0  0  0  0  0  0  0  0  0  0
   -4.9516    0.3440  -22.9751 C   0  0  0  0  0  0  0  0  0  0  0  0
   -6.2389    0.0187  -22.5986 C   0  0  0  0  0  0  0  0  0  0  0  0
   -6.4324   -0.4252  -21.3188 C   0  0  0  0  0  0  0  0  0  0  0  0
   -7.3263    0.1603  -23.5698 C   0  0  0  0  0  0  0  0  0  0  0  0
   -6.9360    1.1113  -24.6816 C   0  0  0  0  0  0  0  0  0  0  0  0
   -5.6003    0.6940  -25.2583 C   0  0  0  0  0  0  0  0  0  0  0  0
   -4.6230    0.8053  -24.2426 O   0  0  0  0  0  0  0  0  0  0  0  0
   -7.6922   -1.0839  -24.2211 N   0  0  0  0  0  0  0  0  0  0  0  0
   -9.1024   -1.1539  -24.4102 C   0  0  0  0  0  0  0  0  0  0  0  0
   -9.6456   -1.9925  -25.1574 O   0  0  0  0  0  0  0  0  0  0  0  0
   -9.7011   -0.1324  -23.6168 N   0  0  0  0  0  0  0  0  0  0  0  0
   -8.6281    0.5372  -22.9609 C   0  0  0  0  0  0  0  0  0  0  0  0
   -8.8128    1.3399  -21.9895 O   0  0  0  0  0  0  0  0  0  0  0  0
   -7.0545   -1.7824  -24.4943 H   0  0  0  0  0  0  0  0  0  0  0  0
  -11.0918    0.0917  -23.5596 C   0  0  0  0  0  0  0  0  0  0  0  0
  -11.9002   -0.9930  -23.2518 C   0  0  0  0  0  0  0  0  0  0  0  0
  -13.2548   -0.8414  -23.1810 N   0  0  0  0  0  0  0  0  0  0  0  0
  -13.8403    0.3493  -23.4047 C   0  0  0  0  0  0  0  0  0  0  0  0
  -13.0665    1.4579  -23.7152 C   0  0  0  0  0  0  0  0  0  0  0  0
  -13.6455    2.6747  -23.9452 C   0  0  0  0  0  0  0  0  0  0  0  0
  -12.8734    3.7847  -24.2559 C   0  0  0  0  0  0  0  0  0  0  0  0
  -11.4876    3.6010  -24.3218 C   0  0  0  0  0  0  0  0  0  0  0  0
  -10.8949    2.3995  -24.0963 C   0  0  0  0  0  0  0  0  0  0  0  0
  -11.6912    1.3141  -23.7893 C   0  0  0  0  0  0  0  0  0  0  0  0
   -4.6058   -0.4084  -17.6420 N   0  0  0  0  0  0  0  0  0  0  0  0
   -5.7174   -1.1381  -18.7611 S   0  0  0  0  0  0  0  0  0  0  0  0
   -7.1324   -0.8620  -18.3606 O   0  0  0  0  0  0  0  0  0  0  0  0
   -5.4995   -2.6263  -18.6787 O   0  0  0  0  0  0  0  0  0  0  0  0
   -4.7952   -0.7533  -16.7010 H   0  0  0  0  0  0  0  0  0  0  0  0
   -4.7195    0.6051  -17.6619 H   0  0  0  0  0  0  0  0  0  0  0  0
 28 29  1  0  0  0
 28 32  1  0  0  0
 28 33  1  0  0  0
 29 30  2  0  0  0
 29 31  2  0  0  0
 29  1  1  0  0  0
  1  2  2  0  0  0
  2  3  1  0  0  0
  3  4  2  0  0  0
  4  5  1  0  0  0
  5  6  2  0  0  0
  6  1  1  0  0  0
  7  5  1  0  0  0
  7  8  1  0  0  0
  7 11  1  0  0  0
  8  9  1  0  0  0
  9 10  1  0  0  0
 10  4  1  0  0  0
 11 12  1  0  0  0
 11 17  1  0  0  0
 12 13  2  0  0  0
 12 14  1  0  0  0
 14 18  1  0  0  0
 14 15  1  0  0  0
 18 19  2  0  0  0
 19 20  1  0  0  0
 20 21  2  0  0  0
 21 22  1  0  0  0
 22 23  2  0  0  0
 23 24  1  0  0  0
 24 25  2  0  0  0
 25 26  1  0  0  0
 26 27  2  0  0  0
 27 18  1  0  0  0
 27 22  1  0  0  0
 15 16  2  0  0  0
 15  7  1  0  0  0
M  END
> <minimizedAffinity>
-8.23531

> <CNNscore>
0.5930075049

> <CNNaffinity>
6.0237665176

> <CNN_VS>
3.5721387863

> <CNNaffinity_variance>
0.1038608700

$$$$



 33 37  0  0  0  0  0  0  0  0999 V2000
  -11.6858   -0.9098  -23.3317 C   0  0  0  0  0  0  0  0  0  0  0  0
  -12.9553   -0.3492  -23.3095 C   0  0  0  0  0  0  0  0  0  0  0  0
  -13.0918    1.0124  -23.5483 C   0  0  0  0  0  0  0  0  0  0  0  0
  -11.9918    1.8114  -23.8054 C   0  0  0  0  0  0  0  0  0  0  0  0
  -10.7255    1.2632  -23.8295 C   0  0  0  0  0  0  0  0  0  0  0  0
  -10.6112   -0.0796  -23.5921 C   0  0  0  0  0  0  0  0  0  0  0  0
   -9.5758    2.1284  -24.1039 C   0  0  0  0  0  0  0  0  0  0  0  0
  -10.0114    3.3976  -24.8056 C   0  0  0  0  0  0  0  0  0  0  0  0
  -11.1394    4.0428  -24.0296 C   0  0  0  0  0  0  0  0  0  0  0  0
  -12.2424    3.1582  -24.0301 O   0  0  0  0  0  0  0  0  0  0  0  0
   -8.8700    2.5563  -22.9102 N   0  0  0  0  0  0  0  0  0  0  0  0
   -7.4652    2.5885  -23.1441 C   0  0  0  0  0  0  0  0  0  0  0  0
   -6.6619    3.1502  -22.3721 O   0  0  0  0  0  0  0  0  0  0  0  0
   -7.2083    1.8907  -24.3600 N   0  0  0  0  0  0  0  0  0  0  0  0
   -8.4762    1.4492  -24.8367 C   0  0  0  0  0  0  0  0  0  0  0  0
   -8.5967    0.5874  -25.7667 O   0  0  0  0  0  0  0  0  0  0  0  0
   -9.3020    2.7916  -22.0575 H   0  0  0  0  0  0  0  0  0  0  0  0
   -5.9175    1.7240  -24.9019 C   0  0  0  0  0  0  0  0  0  0  0  0
   -5.1799    0.6322  -24.4678 C   0  0  0  0  0  0  0  0  0  0  0  0
   -3.9233    0.4152  -24.9546 N   0  0  0  0  0  0  0  0  0  0  0  0
   -3.3685    1.2429  -25.8588 C   0  0  0  0  0  0  0  0  0  0  0  0
   -4.0739    2.3457  -26.3178 C   0  0  0  0  0  0  0  0  0  0  0  0
   -3.5248    3.1963  -27.2364 C   0  0  0  0  0  0  0  0  0  0  0  0
   -4.2287    4.2998  -27.6966 C   0  0  0  0  0  0  0  0  0  0  0  0
   -5.5144    4.4982  -27.1810 C   0  0  0  0  0  0  0  0  0  0  0  0
   -6.0760    3.6635  -26.2679 C   0  0  0  0  0  0  0  0  0  0  0  0
   -5.3495    2.5742  -25.8298 C   0  0  0  0  0  0  0  0  0  0  0  0
  -10.1384   -2.9090  -21.9733 N   0  0  0  0  0  0  0  0  0  0  0  0
  -11.4861   -2.6259  -23.0335 S   0  0  0  0  0  0  0  0  0  0  0  0
  -12.7413   -3.2084  -22.4644 O   0  0  0  0  0  0  0  0  0  0  0  0
  -11.1853   -3.3518  -24.3187 O   0  0  0  0  0  0  0  0  0  0  0  0
  -10.0378   -3.9111  -21.8114 H   0  0  0  0  0  0  0  0  0  0  0  0
  -10.2999   -2.4355  -21.0844 H   0  0  0  0  0  0  0  0  0  0  0  0
 28 29  1  0  0  0
 28 32  1  0  0  0
 28 33  1  0  0  0
 29 30  2  0  0  0
 29 31  2  0  0  0
 29  1  1  0  0  0
  1  2  2  0  0  0
  2  3  1  0  0  0
  3  4  2  0  0  0
  4  5  1  0  0  0
  5  6  2  0  0  0
  6  1  1  0  0  0
  7  5  1  0  0  0
  7  8  1  0  0  0
  7 11  1  0  0  0
  8  9  1  0  0  0
  9 10  1  0  0  0
 10  4  1  0  0  0
 11 12  1  0  0  0
 11 17  1  0  0  0
 12 13  2  0  0  0
 12 14  1  0  0  0
 14 18  1  0  0  0
 14 15  1  0  0  0
 18 19  2  0  0  0
 19 20  1  0  0  0
 20 21  2  0  0  0
 21 22  1  0  0  0
 22 23  2  0  0  0
 23 24  1  0  0  0
 24 25  2  0  0  0
 25 26  1  0  0  0
 26 27  2  0  0  0
 27 18  1  0  0  0
 27 22  1  0  0  0
 15 16  2  0  0  0
 15  7  1  0  0  0
M  END
> <minimizedAffinity>
-6.76311

> <CNNscore>
0.5895347595

> <CNNaffinity>
5.7962903976

> <CNN_VS>
3.4171147346

> <CNNaffinity_variance>
0.0782316625

$$$$



 33 37  0  0  0  0  0  0  0  0999 V2000
   -6.2332   -1.2985  -20.1444 C   0  0  0  0  0  0  0  0  0  0  0  0
   -5.4141   -2.3432  -20.5496 C   0  0  0  0  0  0  0  0  0  0  0  0
   -5.6381   -2.9296  -21.7887 C   0  0  0  0  0  0  0  0  0  0  0  0
   -6.6560   -2.4926  -22.6179 C   0  0  0  0  0  0  0  0  0  0  0  0
   -7.4756   -1.4546  -22.2237 C   0  0  0  0  0  0  0  0  0  0  0  0
   -7.2395   -0.8896  -21.0000 C   0  0  0  0  0  0  0  0  0  0  0  0
   -8.5467   -1.0089  -23.1180 C   0  0  0  0  0  0  0  0  0  0  0  0
   -8.2697   -1.4337  -24.5448 C   0  0  0  0  0  0  0  0  0  0  0  0
   -7.9679   -2.9164  -24.5813 C   0  0  0  0  0  0  0  0  0  0  0  0
   -6.7908   -3.1493  -23.8335 O   0  0  0  0  0  0  0  0  0  0  0  0
   -9.8491   -1.5561  -22.7860 N   0  0  0  0  0  0  0  0  0  0  0  0
  -10.8680   -0.5813  -22.9889 C   0  0  0  0  0  0  0  0  0  0  0  0
  -12.0826   -0.8652  -23.0149 O   0  0  0  0  0  0  0  0  0  0  0  0
  -10.2355    0.6866  -23.1426 N   0  0  0  0  0  0  0  0  0  0  0  0
   -8.8360    0.4457  -23.0279 C   0  0  0  0  0  0  0  0  0  0  0  0
   -7.9895    1.3842  -22.8706 O   0  0  0  0  0  0  0  0  0  0  0  0
  -10.0067   -2.4734  -22.4652 H   0  0  0  0  0  0  0  0  0  0  0  0
  -10.9432    1.8861  -23.3614 C   0  0  0  0  0  0  0  0  0  0  0  0
  -11.9449    2.2093  -22.4576 C   0  0  0  0  0  0  0  0  0  0  0  0
  -12.6666    3.3572  -22.6141 N   0  0  0  0  0  0  0  0  0  0  0  0
  -12.4319    4.1997  -23.6368 C   0  0  0  0  0  0  0  0  0  0  0  0
  -11.4389    3.9119  -24.5617 C   0  0  0  0  0  0  0  0  0  0  0  0
  -11.1877    4.7572  -25.6062 C   0  0  0  0  0  0  0  0  0  0  0  0
  -10.1950    4.4713  -26.5323 C   0  0  0  0  0  0  0  0  0  0  0  0
   -9.4706    3.2883  -26.3478 C   0  0  0  0  0  0  0  0  0  0  0  0
   -9.7063    2.4365  -25.3159 C   0  0  0  0  0  0  0  0  0  0  0  0
  -10.7012    2.7497  -24.4112 C   0  0  0  0  0  0  0  0  0  0  0  0
   -4.7771    0.7154  -18.7089 N   0  0  0  0  0  0  0  0  0  0  0  0
   -5.9716   -0.5410  -18.5850 S   0  0  0  0  0  0  0  0  0  0  0  0
   -7.2571   -0.0003  -18.0428 O   0  0  0  0  0  0  0  0  0  0  0  0
   -5.4422   -1.5449  -17.5946 O   0  0  0  0  0  0  0  0  0  0  0  0
   -4.6383    1.1440  -17.7938 H   0  0  0  0  0  0  0  0  0  0  0  0
   -5.0954    1.4230  -19.3710 H   0  0  0  0  0  0  0  0  0  0  0  0
 28 29  1  0  0  0
 28 32  1  0  0  0
 28 33  1  0  0  0
 29 30  2  0  0  0
 29 31  2  0  0  0
 29  1  1  0  0  0
  1  2  2  0  0  0
  2  3  1  0  0  0
  3  4  2  0  0  0
  4  5  1  0  0  0
  5  6  2  0  0  0
  6  1  1  0  0  0
  7  5  1  0  0  0
  7  8  1  0  0  0
  7 11  1  0  0  0
  8  9  1  0  0  0
  9 10  1  0  0  0
 10  4  1  0  0  0
 11 12  1  0  0  0
 11 17  1  0  0  0
 12 13  2  0  0  0
 12 14  1  0  0  0
 14 18  1  0  0  0
 14 15  1  0  0  0
 18 19  2  0  0  0
 19 20  1  0  0  0
 20 21  2  0  0  0
 21 22  1  0  0  0
 22 23  2  0  0  0
 23 24  1  0  0  0
 24 25  2  0  0  0
 25 26  1  0  0  0
 26 27  2  0  0  0
 27 18  1  0  0  0
 27 22  1  0  0  0
 15 16  2  0  0  0
 15  7  1  0  0  0
M  END
> <minimizedAffinity>
-7.63019

> <CNNscore>
0.5889748931

> <CNNaffinity>
6.1376962662

> <CNN_VS>
3.6149489880

> <CNNaffinity_variance>
0.2401302606

$$$$



 33 37  0  0  0  0  0  0  0  0999 V2000
   -4.7268   -0.1083  -19.8855 C   0  0  0  0  0  0  0  0  0  0  0  0
   -3.9733    0.8451  -19.2148 C   0  0  0  0  0  0  0  0  0  0  0  0
   -3.2666    1.7842  -19.9552 C   0  0  0  0  0  0  0  0  0  0  0  0
   -3.3016    1.7840  -21.3384 C   0  0  0  0  0  0  0  0  0  0  0  0
   -4.0478    0.8400  -22.0142 C   0  0  0  0  0  0  0  0  0  0  0  0
   -4.7371   -0.0766  -21.2678 C   0  0  0  0  0  0  0  0  0  0  0  0
   -4.0700    0.8592  -23.4787 C   0  0  0  0  0  0  0  0  0  0  0  0
   -3.6634    2.2190  -24.0064 C   0  0  0  0  0  0  0  0  0  0  0  0
   -2.3550    2.6375  -23.3710 C   0  0  0  0  0  0  0  0  0  0  0  0
   -2.5585    2.7669  -21.9778 O   0  0  0  0  0  0  0  0  0  0  0  0
   -3.1593   -0.0923  -24.0881 N   0  0  0  0  0  0  0  0  0  0  0  0
   -3.7434   -0.6687  -25.2526 C   0  0  0  0  0  0  0  0  0  0  0  0
   -3.0863   -1.3212  -26.0888 O   0  0  0  0  0  0  0  0  0  0  0  0
   -5.1338   -0.3561  -25.2447 N   0  0  0  0  0  0  0  0  0  0  0  0
   -5.3592    0.4094  -24.0643 C   0  0  0  0  0  0  0  0  0  0  0  0
   -6.5266    0.6473  -23.6142 O   0  0  0  0  0  0  0  0  0  0  0  0
   -2.2625   -0.3092  -23.7447 H   0  0  0  0  0  0  0  0  0  0  0  0
   -6.0285   -0.7692  -26.2529 C   0  0  0  0  0  0  0  0  0  0  0  0
   -6.1227    0.0253  -27.3863 C   0  0  0  0  0  0  0  0  0  0  0  0
   -6.9707   -0.3203  -28.3985 N   0  0  0  0  0  0  0  0  0  0  0  0
   -7.7317   -1.4279  -28.3289 C   0  0  0  0  0  0  0  0  0  0  0  0
   -7.6661   -2.2484  -27.2123 C   0  0  0  0  0  0  0  0  0  0  0  0
   -8.4323   -3.3772  -27.1259 C   0  0  0  0  0  0  0  0  0  0  0  0
   -8.3682   -4.1990  -26.0100 C   0  0  0  0  0  0  0  0  0  0  0  0
   -7.4907   -3.8210  -24.9876 C   0  0  0  0  0  0  0  0  0  0  0  0
   -6.7217   -2.7031  -25.0561 C   0  0  0  0  0  0  0  0  0  0  0  0
   -6.8086   -1.9060  -26.1802 C   0  0  0  0  0  0  0  0  0  0  0  0
   -5.0333   -2.9031  -19.3097 N   0  0  0  0  0  0  0  0  0  0  0  0
   -5.6280   -1.3048  -18.9745 S   0  0  0  0  0  0  0  0  0  0  0  0
   -5.5594   -1.0089  -17.5094 O   0  0  0  0  0  0  0  0  0  0  0  0
   -7.0793   -1.2900  -19.3780 O   0  0  0  0  0  0  0  0  0  0  0  0
   -5.5686   -3.5848  -18.7719 H   0  0  0  0  0  0  0  0  0  0  0  0
   -4.0490   -2.9613  -19.0487 H   0  0  0  0  0  0  0  0  0  0  0  0
 28 29  1  0  0  0
 28 32  1  0  0  0
 28 33  1  0  0  0
 29 30  2  0  0  0
 29 31  2  0  0  0
 29  1  1  0  0  0
  1  2  2  0  0  0
  2  3  1  0  0  0
  3  4  2  0  0  0
  4  5  1  0  0  0
  5  6  2  0  0  0
  6  1  1  0  0  0
  7  5  1  0  0  0
  7  8  1  0  0  0
  7 11  1  0  0  0
  8  9  1  0  0  0
  9 10  1  0  0  0
 10  4  1  0  0  0
 11 12  1  0  0  0
 11 17  1  0  0  0
 12 13  2  0  0  0
 12 14  1  0  0  0
 14 18  1  0  0  0
 14 15  1  0  0  0
 18 19  2  0  0  0
 19 20  1  0  0  0
 20 21  2  0  0  0
 21 22  1  0  0  0
 22 23  2  0  0  0
 23 24  1  0  0  0
 24 25  2  0  0  0
 25 26  1  0  0  0
 26 27  2  0  0  0
 27 18  1  0  0  0
 27 22  1  0  0  0
 15 16  2  0  0  0
 15  7  1  0  0  0
M  END
> <minimizedAffinity>
-7.07397

> <CNNscore>
0.5595378280

> <CNNaffinity>
5.6216669083

> <CNN_VS>
3.1455352306

> <CNNaffinity_variance>
0.0998496115

$$$$



 33 37  0  0  0  0  0  0  0  0999 V2000
   -5.8467   -1.2423  -20.0447 C   0  0  0  0  0  0  0  0  0  0  0  0
   -5.5203   -2.5909  -20.0826 C   0  0  0  0  0  0  0  0  0  0  0  0
   -5.6800   -3.2866  -21.2741 C   0  0  0  0  0  0  0  0  0  0  0  0
   -6.1552   -2.6620  -22.4137 C   0  0  0  0  0  0  0  0  0  0  0  0
   -6.4825   -1.3216  -22.3859 C   0  0  0  0  0  0  0  0  0  0  0  0
   -6.3183   -0.6531  -21.2033 C   0  0  0  0  0  0  0  0  0  0  0  0
   -6.9836   -0.6815  -23.6044 C   0  0  0  0  0  0  0  0  0  0  0  0
   -6.5950   -1.4791  -24.8315 C   0  0  0  0  0  0  0  0  0  0  0  0
   -7.0000   -2.9253  -24.6437 C   0  0  0  0  0  0  0  0  0  0  0  0
   -6.2759   -3.4515  -23.5492 O   0  0  0  0  0  0  0  0  0  0  0  0
   -8.4294   -0.5632  -23.6486 N   0  0  0  0  0  0  0  0  0  0  0  0
   -8.8123    0.6738  -24.2424 C   0  0  0  0  0  0  0  0  0  0  0  0
   -9.9770    0.9125  -24.6208 O   0  0  0  0  0  0  0  0  0  0  0  0
   -7.6573    1.5068  -24.3005 N   0  0  0  0  0  0  0  0  0  0  0  0
   -6.5936    0.7461  -23.7351 C   0  0  0  0  0  0  0  0  0  0  0  0
   -5.4794    1.2666  -23.4038 O   0  0  0  0  0  0  0  0  0  0  0  0
   -9.0580   -1.2433  -23.3148 H   0  0  0  0  0  0  0  0  0  0  0  0
   -7.6676    2.8126  -24.8319 C   0  0  0  0  0  0  0  0  0  0  0  0
   -7.8752    2.9437  -26.1973 C   0  0  0  0  0  0  0  0  0  0  0  0
   -7.8963    4.1811  -26.7729 N   0  0  0  0  0  0  0  0  0  0  0  0
   -7.7186    5.2976  -26.0431 C   0  0  0  0  0  0  0  0  0  0  0  0
   -7.5082    5.2085  -24.6749 C   0  0  0  0  0  0  0  0  0  0  0  0
   -7.3260    6.3329  -23.9191 C   0  0  0  0  0  0  0  0  0  0  0  0
   -7.1154    6.2459  -22.5505 C   0  0  0  0  0  0  0  0  0  0  0  0
   -7.0987    4.9653  -21.9867 C   0  0  0  0  0  0  0  0  0  0  0  0
   -7.2779    3.8370  -22.7220 C   0  0  0  0  0  0  0  0  0  0  0  0
   -7.4852    3.9574  -24.0818 C   0  0  0  0  0  0  0  0  0  0  0  0
   -4.4644    0.9111  -18.7452 N   0  0  0  0  0  0  0  0  0  0  0  0
   -5.6543   -0.3412  -18.5532 S   0  0  0  0  0  0  0  0  0  0  0  0
   -6.9645    0.2337  -18.1154 O   0  0  0  0  0  0  0  0  0  0  0  0
   -5.1588   -1.2434  -17.4534 O   0  0  0  0  0  0  0  0  0  0  0  0
   -4.3661    1.4239  -17.8690 H   0  0  0  0  0  0  0  0  0  0  0  0
   -4.7603    1.5510  -19.4823 H   0  0  0  0  0  0  0  0  0  0  0  0
 28 29  1  0  0  0
 28 32  1  0  0  0
 28 33  1  0  0  0
 29 30  2  0  0  0
 29 31  2  0  0  0
 29  1  1  0  0  0
  1  2  2  0  0  0
  2  3  1  0  0  0
  3  4  2  0  0  0
  4  5  1  0  0  0
  5  6  2  0  0  0
  6  1  1  0  0  0
  7  5  1  0  0  0
  7  8  1  0  0  0
  7 11  1  0  0  0
  8  9  1  0  0  0
  9 10  1  0  0  0
 10  4  1  0  0  0
 11 12  1  0  0  0
 11 17  1  0  0  0
 12 13  2  0  0  0
 12 14  1  0  0  0
 14 18  1  0  0  0
 14 15  1  0  0  0
 18 19  2  0  0  0
 19 20  1  0  0  0
 20 21  2  0  0  0
 21 22  1  0  0  0
 22 23  2  0  0  0
 23 24  1  0  0  0
 24 25  2  0  0  0
 25 26  1  0  0  0
 26 27  2  0  0  0
 27 18  1  0  0  0
 27 22  1  0  0  0
 15 16  2  0  0  0
 15  7  1  0  0  0
M  END
> <minimizedAffinity>
-6.88664

> <CNNscore>
0.5345197320

> <CNNaffinity>
6.0449476242

> <CNN_VS>
3.2311437130

> <CNNaffinity_variance>
0.2808951437

$$$$



 33 37  0  0  0  0  0  0  0  0999 V2000
   -5.7503    0.0762  -20.7078 C   0  0  0  0  0  0  0  0  0  0  0  0
   -5.5943    1.4266  -20.9881 C   0  0  0  0  0  0  0  0  0  0  0  0
   -5.7113    1.8567  -22.3037 C   0  0  0  0  0  0  0  0  0  0  0  0
   -5.9785    0.9679  -23.3300 C   0  0  0  0  0  0  0  0  0  0  0  0
   -6.1352   -0.3767  -23.0612 C   0  0  0  0  0  0  0  0  0  0  0  0
   -6.0165   -0.7812  -21.7594 C   0  0  0  0  0  0  0  0  0  0  0  0
   -6.4175   -1.2990  -24.1635 C   0  0  0  0  0  0  0  0  0  0  0  0
   -6.9816   -0.5567  -25.3568 C   0  0  0  0  0  0  0  0  0  0  0  0
   -6.0790    0.6088  -25.7000 C   0  0  0  0  0  0  0  0  0  0  0  0
   -6.0747    1.5050  -24.6065 O   0  0  0  0  0  0  0  0  0  0  0  0
   -5.2450   -2.0019  -24.6506 N   0  0  0  0  0  0  0  0  0  0  0  0
   -5.5727   -3.3459  -24.9908 C   0  0  0  0  0  0  0  0  0  0  0  0
   -4.8152   -4.0809  -25.6563 O   0  0  0  0  0  0  0  0  0  0  0  0
   -6.8562   -3.6350  -24.4430 N   0  0  0  0  0  0  0  0  0  0  0  0
   -7.2779   -2.4474  -23.7784 C   0  0  0  0  0  0  0  0  0  0  0  0
   -8.2643   -2.4261  -22.9731 O   0  0  0  0  0  0  0  0  0  0  0  0
   -4.3479   -1.6051  -24.7343 H   0  0  0  0  0  0  0  0  0  0  0  0
   -7.4985   -4.8820  -24.5854 C   0  0  0  0  0  0  0  0  0  0  0  0
   -7.2499   -5.8416  -23.6150 C   0  0  0  0  0  0  0  0  0  0  0  0
   -7.8413   -7.0691  -23.6958 N   0  0  0  0  0  0  0  0  0  0  0  0
   -8.6729   -7.3821  -24.7064 C   0  0  0  0  0  0  0  0  0  0  0  0
   -8.9469   -6.4497  -25.6963 C   0  0  0  0  0  0  0  0  0  0  0  0
   -9.7895   -6.7517  -26.7296 C   0  0  0  0  0  0  0  0  0  0  0  0
  -10.0648   -5.8206  -27.7207 C   0  0  0  0  0  0  0  0  0  0  0  0
   -9.4451   -4.5706  -27.6131 C   0  0  0  0  0  0  0  0  0  0  0  0
   -8.6052   -4.2530  -26.5935 C   0  0  0  0  0  0  0  0  0  0  0  0
   -8.3516   -5.2016  -25.6229 C   0  0  0  0  0  0  0  0  0  0  0  0
   -5.1766   -2.1759  -19.0241 N   0  0  0  0  0  0  0  0  0  0  0  0
   -5.6075   -0.4925  -19.0556 S   0  0  0  0  0  0  0  0  0  0  0  0
   -4.6058    0.3264  -18.3042 O   0  0  0  0  0  0  0  0  0  0  0  0
   -6.9280   -0.3708  -18.3411 O   0  0  0  0  0  0  0  0  0  0  0  0
   -5.0981   -2.4888  -18.0564 H   0  0  0  0  0  0  0  0  0  0  0  0
   -4.2825   -2.3069  -19.4973 H   0  0  0  0  0  0  0  0  0  0  0  0
 28 29  1  0  0  0
 28 32  1  0  0  0
 28 33  1  0  0  0
 29 30  2  0  0  0
 29 31  2  0  0  0
 29  1  1  0  0  0
  1  2  2  0  0  0
  2  3  1  0  0  0
  3  4  2  0  0  0
  4  5  1  0  0  0
  5  6  2  0  0  0
  6  1  1  0  0  0
  7  5  1  0  0  0
  7  8  1  0  0  0
  7 11  1  0  0  0
  8  9  1  0  0  0
  9 10  1  0  0  0
 10  4  1  0  0  0
 11 12  1  0  0  0
 11 17  1  0  0  0
 12 13  2  0  0  0
 12 14  1  0  0  0
 14 18  1  0  0  0
 14 15  1  0  0  0
 18 19  2  0  0  0
 19 20  1  0  0  0
 20 21  2  0  0  0
 21 22  1  0  0  0
 22 23  2  0  0  0
 23 24  1  0  0  0
 24 25  2  0  0  0
 25 26  1  0  0  0
 26 27  2  0  0  0
 27 18  1  0  0  0
 27 22  1  0  0  0
 15 16  2  0  0  0
 15  7  1  0  0  0
M  END
> <minimizedAffinity>
-7.44321

> <CNNscore>
0.5221890211

> <CNNaffinity>
6.1130671501

> <CNN_VS>
3.1921765804

> <CNNaffinity_variance>
0.2456473410

$$$$



 33 37  0  0  0  0  0  0  0  0999 V2000
   -6.3053   -1.3699  -26.9249 C   0  0  0  0  0  0  0  0  0  0  0  0
   -7.2473   -2.0008  -27.7257 C   0  0  0  0  0  0  0  0  0  0  0  0
   -8.2200   -2.7888  -27.1237 C   0  0  0  0  0  0  0  0  0  0  0  0
   -8.2640   -2.9534  -25.7506 C   0  0  0  0  0  0  0  0  0  0  0  0
   -7.3318   -2.3303  -24.9460 C   0  0  0  0  0  0  0  0  0  0  0  0
   -6.3817   -1.5581  -25.5572 C   0  0  0  0  0  0  0  0  0  0  0  0
   -7.3980   -2.5189  -23.4950 C   0  0  0  0  0  0  0  0  0  0  0  0
   -8.7799   -2.9714  -23.0725 C   0  0  0  0  0  0  0  0  0  0  0  0
   -9.1964   -4.1666  -23.9026 C   0  0  0  0  0  0  0  0  0  0  0  0
   -9.2777   -3.7621  -25.2550 O   0  0  0  0  0  0  0  0  0  0  0  0
   -6.4799   -3.5257  -22.9953 N   0  0  0  0  0  0  0  0  0  0  0  0
   -5.9331   -3.1264  -21.7420 C   0  0  0  0  0  0  0  0  0  0  0  0
   -5.3176   -3.9093  -20.9903 O   0  0  0  0  0  0  0  0  0  0  0  0
   -6.2253   -1.7436  -21.5582 N   0  0  0  0  0  0  0  0  0  0  0  0
   -6.9489   -1.3362  -22.7159 C   0  0  0  0  0  0  0  0  0  0  0  0
   -7.1552   -0.1119  -22.9996 O   0  0  0  0  0  0  0  0  0  0  0  0
   -6.2650   -4.3676  -23.4582 H   0  0  0  0  0  0  0  0  0  0  0  0
   -5.8322   -1.0115  -20.4193 C   0  0  0  0  0  0  0  0  0  0  0  0
   -6.5533   -1.2133  -19.2514 C   0  0  0  0  0  0  0  0  0  0  0  0
   -6.2225   -0.5347  -18.1143 N   0  0  0  0  0  0  0  0  0  0  0  0
   -5.2000    0.3398  -18.0914 C   0  0  0  0  0  0  0  0  0  0  0  0
   -4.4548    0.5693  -19.2387 C   0  0  0  0  0  0  0  0  0  0  0  0
   -3.4129    1.4543  -19.2324 C   0  0  0  0  0  0  0  0  0  0  0  0
   -2.6663    1.6854  -20.3787 C   0  0  0  0  0  0  0  0  0  0  0  0
   -3.0271    0.9763  -21.5299 C   0  0  0  0  0  0  0  0  0  0  0  0
   -4.0592    0.0930  -21.5548 C   0  0  0  0  0  0  0  0  0  0  0  0
   -4.7827   -0.1145  -20.3973 C   0  0  0  0  0  0  0  0  0  0  0  0
   -4.1754    0.4919  -26.4420 N   0  0  0  0  0  0  0  0  0  0  0  0
   -5.0672   -0.3696  -27.6598 S   0  0  0  0  0  0  0  0  0  0  0  0
   -4.1508   -1.2025  -28.4997 O   0  0  0  0  0  0  0  0  0  0  0  0
   -5.6919    0.6690  -28.5542 O   0  0  0  0  0  0  0  0  0  0  0  0
   -3.4607    1.0675  -26.8873 H   0  0  0  0  0  0  0  0  0  0  0  0
   -3.7306   -0.1747  -25.8110 H   0  0  0  0  0  0  0  0  0  0  0  0
 28 29  1  0  0  0
 28 32  1  0  0  0
 28 33  1  0  0  0
 29 30  2  0  0  0
 29 31  2  0  0  0
 29  1  1  0  0  0
  1  2  2  0  0  0
  2  3  1  0  0  0
  3  4  2  0  0  0
  4  5  1  0  0  0
  5  6  2  0  0  0
  6  1  1  0  0  0
  7  5  1  0  0  0
  7  8  1  0  0  0
  7 11  1  0  0  0
  8  9  1  0  0  0
  9 10  1  0  0  0
 10  4  1  0  0  0
 11 12  1  0  0  0
 11 17  1  0  0  0
 12 13  2  0  0  0
 12 14  1  0  0  0
 14 18  1  0  0  0
 14 15  1  0  0  0
 18 19  2  0  0  0
 19 20  1  0  0  0
 20 21  2  0  0  0
 21 22  1  0  0  0
 22 23  2  0  0  0
 23 24  1  0  0  0
 24 25  2  0  0  0
 25 26  1  0  0  0
 26 27  2  0  0  0
 27 18  1  0  0  0
 27 22  1  0  0  0
 15 16  2  0  0  0
 15  7  1  0  0  0
M  END
> <minimizedAffinity>
-7.23478

> <CNNscore>
0.5191779733

> <CNNaffinity>
5.7253942490

> <CNN_VS>
2.9724986553

> <CNNaffinity_variance>
0.1614246219

$$$$



 38 43  0  0  0  0  0  0  0  0999 V2000
   -3.2069   -0.7211  -24.3015 C   0  0  0  0  0  0  0  0  0  0  0  0
   -3.5338    0.7146  -24.6379 C   0  0  0  0  0  0  0  0  0  0  0  0
   -4.9936    0.7348  -24.9846 C   0  0  0  0  0  0  0  0  0  0  0  0
   -5.6568    0.8139  -23.7061 N   0  0  0  0  0  0  0  0  0  0  0  0
   -4.7046    1.2180  -22.7300 C   0  0  0  0  0  0  0  0  0  0  0  0
   -4.9312    1.2701  -21.4888 O   0  0  0  0  0  0  0  0  0  0  0  0
   -3.4257    1.5587  -23.4247 C   0  0  0  0  0  0  0  0  0  0  0  0
   -2.2229    1.2214  -22.6217 C   0  0  0  0  0  0  0  0  0  0  0  0
   -1.0332    1.7644  -23.2428 N   0  0  0  0  0  0  0  0  0  0  0  0
   -1.0105    3.1543  -23.5490 C   0  0  0  0  0  0  0  0  0  0  0  0
    0.0567    3.8151  -23.6107 O   0  0  0  0  0  0  0  0  0  0  0  0
   -2.2992    3.7914  -23.7927 C   0  0  0  0  0  0  0  0  0  0  0  0
   -2.3168    5.1302  -24.0726 C   0  0  0  0  0  0  0  0  0  0  0  0
   -3.5036    5.7910  -24.2954 C   0  0  0  0  0  0  0  0  0  0  0  0
   -4.6711    5.0610  -24.2272 C   0  0  0  0  0  0  0  0  0  0  0  0
   -5.8883    5.6411  -24.4351 F   0  0  0  0  0  0  0  0  0  0  0  0
   -4.6354    3.7121  -23.9442 C   0  0  0  0  0  0  0  0  0  0  0  0
   -3.4606    3.0169  -23.7155 C   0  0  0  0  0  0  0  0  0  0  0  0
   -7.0521    0.5305  -23.5446 C   0  0  0  0  0  0  0  0  0  0  0  0
   -8.0269    1.2067  -24.2822 C   0  0  0  0  0  0  0  0  0  0  0  0
   -9.3408    0.9583  -24.1433 N   0  0  0  0  0  0  0  0  0  0  0  0
   -9.8012    0.0412  -23.2837 C   0  0  0  0  0  0  0  0  0  0  0  0
   -8.9000   -0.6656  -22.5222 C   0  0  0  0  0  0  0  0  0  0  0  0
   -9.3813   -1.6083  -21.6390 C   0  0  0  0  0  0  0  0  0  0  0  0
   -8.5192   -2.3438  -20.8520 C   0  0  0  0  0  0  0  0  0  0  0  0
   -7.1719   -2.0839  -20.9995 C   0  0  0  0  0  0  0  0  0  0  0  0
   -6.6960   -1.1435  -21.8808 C   0  0  0  0  0  0  0  0  0  0  0  0
   -7.5309   -0.4125  -22.6613 C   0  0  0  0  0  0  0  0  0  0  0  0
    0.1401    0.9728  -23.5589 C   0  0  0  0  0  0  0  0  0  0  0  0
    0.3973    0.9449  -25.0296 C   0  0  0  0  0  0  0  0  0  0  0  0
    1.0848    0.0236  -25.5640 O   0  0  0  0  0  0  0  0  0  0  0  0
   -0.1717    2.0069  -25.7900 N   0  0  0  0  0  0  0  0  0  0  0  0
   -0.7016    2.7097  -25.3490 H   0  0  0  0  0  0  0  0  0  0  0  0
    0.0392    2.0355  -27.2025 C   0  0  0  0  0  0  0  0  0  0  0  0
    0.3837    3.4694  -27.6273 C   0  0  0  0  0  0  0  0  0  0  0  0
   -0.6417    4.3914  -27.6135 F   0  0  0  0  0  0  0  0  0  0  0  0
    1.5353    3.6869  -28.5270 C   0  0  0  0  0  0  0  0  0  0  0  0
    1.6684    3.9820  -27.0518 C   0  0  0  0  0  0  0  0  0  0  0  0
  2  1  1  0  0  0
  2  3  1  0  0  0
  3  4  1  0  0  0
  4 19  1  0  0  0
  4  5  1  0  0  0
 19 20  2  0  0  0
 20 21  1  0  0  0
 21 22  2  0  0  0
 22 23  1  0  0  0
 23 24  2  0  0  0
 24 25  1  0  0  0
 25 26  2  0  0  0
 26 27  1  0  0  0
 27 28  2  0  0  0
 28 19  1  0  0  0
 28 23  1  0  0  0
  5  6  2  0  0  0
  7  5  1  0  0  0
  7  8  1  0  0  0
  7  2  1  0  0  0
  8  9  1  0  0  0
  9 29  1  0  0  0
  9 10  1  0  0  0
 29 30  1  0  0  0
 30 31  2  0  0  0
 30 32  1  0  0  0
 32 34  1  0  0  0
 32 33  1  0  0  0
 34 35  1  0  0  0
 35 36  1  0  0  0
 35 37  1  0  0  0
 37 38  1  0  0  0
 38 35  1  0  0  0
 10 11  2  0  0  0
 10 12  1  0  0  0
 12 13  2  0  0  0
 13 14  1  0  0  0
 14 15  2  0  0  0
 15 16  1  0  0  0
 15 17  1  0  0  0
 17 18  2  0  0  0
 18 12  1  0  0  0
 18  7  1  0  0  0
M  END
> <minimizedAffinity>
-1.95096

> <CNNscore>
0.4535514116

> <CNNaffinity>
6.0518159866

> <CNN_VS>
2.7448096275

> <CNNaffinity_variance>
2.0743038654

$$$$



 38 43  0  0  0  0  0  0  0  0999 V2000
   -7.0649   -1.7895  -25.7400 C   0  0  0  0  0  0  0  0  0  0  0  0
   -6.3832   -1.2335  -24.5123 C   0  0  0  0  0  0  0  0  0  0  0  0
   -6.4428    0.2598  -24.6483 C   0  0  0  0  0  0  0  0  0  0  0  0
   -7.7545    0.6048  -24.1575 N   0  0  0  0  0  0  0  0  0  0  0  0
   -8.2645   -0.5006  -23.4221 C   0  0  0  0  0  0  0  0  0  0  0  0
   -9.4368   -0.5710  -22.9581 O   0  0  0  0  0  0  0  0  0  0  0  0
   -7.1885   -1.5315  -23.3045 C   0  0  0  0  0  0  0  0  0  0  0  0
   -7.7133   -2.9206  -23.3186 C   0  0  0  0  0  0  0  0  0  0  0  0
   -6.6627   -3.8602  -22.9879 N   0  0  0  0  0  0  0  0  0  0  0  0
   -5.9318   -3.6538  -21.7841 C   0  0  0  0  0  0  0  0  0  0  0  0
   -5.3846   -4.5949  -21.1561 O   0  0  0  0  0  0  0  0  0  0  0  0
   -5.8423   -2.2811  -21.3006 C   0  0  0  0  0  0  0  0  0  0  0  0
   -5.1623   -2.0477  -20.1369 C   0  0  0  0  0  0  0  0  0  0  0  0
   -5.0575   -0.7756  -19.6214 C   0  0  0  0  0  0  0  0  0  0  0  0
   -5.6591    0.2530  -20.3148 C   0  0  0  0  0  0  0  0  0  0  0  0
   -5.6018    1.5418  -19.8709 F   0  0  0  0  0  0  0  0  0  0  0  0
   -6.3404    0.0002  -21.4864 C   0  0  0  0  0  0  0  0  0  0  0  0
   -6.4647   -1.2655  -22.0325 C   0  0  0  0  0  0  0  0  0  0  0  0
   -8.3571    1.8810  -24.4050 C   0  0  0  0  0  0  0  0  0  0  0  0
   -9.3092    2.0583  -25.4118 C   0  0  0  0  0  0  0  0  0  0  0  0
   -9.8839    3.2476  -25.6623 N   0  0  0  0  0  0  0  0  0  0  0  0
   -9.5782    4.3444  -24.9584 C   0  0  0  0  0  0  0  0  0  0  0  0
   -8.6482    4.2472  -23.9498 C   0  0  0  0  0  0  0  0  0  0  0  0
   -8.3381    5.3807  -23.2291 C   0  0  0  0  0  0  0  0  0  0  0  0
   -7.4117    5.3367  -22.2076 C   0  0  0  0  0  0  0  0  0  0  0  0
   -6.8256    4.1131  -21.9556 C   0  0  0  0  0  0  0  0  0  0  0  0
   -7.1372    2.9855  -22.6760 C   0  0  0  0  0  0  0  0  0  0  0  0
   -8.0458    3.0128  -23.6832 C   0  0  0  0  0  0  0  0  0  0  0  0
   -6.3224   -5.0058  -23.8094 C   0  0  0  0  0  0  0  0  0  0  0  0
   -7.5008   -5.9008  -24.0098 C   0  0  0  0  0  0  0  0  0  0  0  0
   -7.8564   -6.7354  -23.1243 O   0  0  0  0  0  0  0  0  0  0  0  0
   -8.1961   -5.7616  -25.2455 N   0  0  0  0  0  0  0  0  0  0  0  0
   -7.8982   -5.1049  -25.9158 H   0  0  0  0  0  0  0  0  0  0  0  0
   -9.3324   -6.5900  -25.4963 C   0  0  0  0  0  0  0  0  0  0  0  0
   -9.9043   -6.2487  -26.8788 C   0  0  0  0  0  0  0  0  0  0  0  0
  -11.2000   -6.6439  -27.1369 F   0  0  0  0  0  0  0  0  0  0  0  0
   -8.9701   -6.0623  -28.0082 C   0  0  0  0  0  0  0  0  0  0  0  0
   -9.5907   -4.8583  -27.3403 C   0  0  0  0  0  0  0  0  0  0  0  0
  2  1  1  0  0  0
  2  3  1  0  0  0
  3  4  1  0  0  0
  4 19  1  0  0  0
  4  5  1  0  0  0
 19 20  2  0  0  0
 20 21  1  0  0  0
 21 22  2  0  0  0
 22 23  1  0  0  0
 23 24  2  0  0  0
 24 25  1  0  0  0
 25 26  2  0  0  0
 26 27  1  0  0  0
 27 28  2  0  0  0
 28 19  1  0  0  0
 28 23  1  0  0  0
  5  6  2  0  0  0
  7  5  1  0  0  0
  7  8  1  0  0  0
  7  2  1  0  0  0
  8  9  1  0  0  0
  9 29  1  0  0  0
  9 10  1  0  0  0
 29 30  1  0  0  0
 30 31  2  0  0  0
 30 32  1  0  0  0
 32 34  1  0  0  0
 32 33  1  0  0  0
 34 35  1  0  0  0
 35 36  1  0  0  0
 35 37  1  0  0  0
 37 38  1  0  0  0
 38 35  1  0  0  0
 10 11  2  0  0  0
 10 12  1  0  0  0
 12 13  2  0  0  0
 13 14  1  0  0  0
 14 15  2  0  0  0
 15 16  1  0  0  0
 15 17  1  0  0  0
 17 18  2  0  0  0
 18 12  1  0  0  0
 18  7  1  0  0  0
M  END
> <minimizedAffinity>
-7.41364

> <CNNscore>
0.3701768816

> <CNNaffinity>
6.2755632401

> <CNN_VS>
2.3230683804

> <CNNaffinity_variance>
0.1626247168

$$$$



 38 43  0  0  0  0  0  0  0  0999 V2000
   -5.4637    0.2451  -23.3895 C   0  0  0  0  0  0  0  0  0  0  0  0
   -6.4232    1.2390  -24.0003 C   0  0  0  0  0  0  0  0  0  0  0  0
   -7.4949    0.4239  -24.6627 C   0  0  0  0  0  0  0  0  0  0  0  0
   -8.4052    0.1036  -23.5907 N   0  0  0  0  0  0  0  0  0  0  0  0
   -8.1372    0.9738  -22.4981 C   0  0  0  0  0  0  0  0  0  0  0  0
   -8.6777    0.8808  -21.3606 O   0  0  0  0  0  0  0  0  0  0  0  0
   -7.1281    1.9873  -22.9330 C   0  0  0  0  0  0  0  0  0  0  0  0
   -6.2070    2.3928  -21.8410 C   0  0  0  0  0  0  0  0  0  0  0  0
   -5.3998    3.5211  -22.2549 N   0  0  0  0  0  0  0  0  0  0  0  0
   -6.0658    4.6768  -22.7518 C   0  0  0  0  0  0  0  0  0  0  0  0
   -5.5702    5.8289  -22.6716 O   0  0  0  0  0  0  0  0  0  0  0  0
   -7.3700    4.4654  -23.3687 C   0  0  0  0  0  0  0  0  0  0  0  0
   -8.0467    5.5560  -23.8417 C   0  0  0  0  0  0  0  0  0  0  0  0
   -9.2890    5.4222  -24.4193 C   0  0  0  0  0  0  0  0  0  0  0  0
   -9.8275    4.1559  -24.5052 C   0  0  0  0  0  0  0  0  0  0  0  0
  -11.0533    3.9384  -25.0632 F   0  0  0  0  0  0  0  0  0  0  0  0
   -9.1317    3.0674  -24.0237 C   0  0  0  0  0  0  0  0  0  0  0  0
   -7.8815    3.1662  -23.4380 C   0  0  0  0  0  0  0  0  0  0  0  0
   -9.3948   -0.9265  -23.7040 C   0  0  0  0  0  0  0  0  0  0  0  0
   -9.0404   -2.2671  -23.8730 C   0  0  0  0  0  0  0  0  0  0  0  0
   -9.9530   -3.2479  -23.9847 N   0  0  0  0  0  0  0  0  0  0  0  0
  -11.2679   -3.0004  -23.9407 C   0  0  0  0  0  0  0  0  0  0  0  0
  -11.6933   -1.7028  -23.7763 C   0  0  0  0  0  0  0  0  0  0  0  0
  -13.0487   -1.4553  -23.7320 C   0  0  0  0  0  0  0  0  0  0  0  0
  -13.5271   -0.1715  -23.5690 C   0  0  0  0  0  0  0  0  0  0  0  0
  -12.5852    0.8305  -23.4551 C   0  0  0  0  0  0  0  0  0  0  0  0
  -11.2351    0.5799  -23.4996 C   0  0  0  0  0  0  0  0  0  0  0  0
  -10.7493   -0.6767  -23.6593 C   0  0  0  0  0  0  0  0  0  0  0  0
   -3.9517    3.5427  -22.1800 C   0  0  0  0  0  0  0  0  0  0  0  0
   -3.4296    2.3764  -21.4074 C   0  0  0  0  0  0  0  0  0  0  0  0
   -2.4421    1.6972  -21.8206 O   0  0  0  0  0  0  0  0  0  0  0  0
   -4.1020    2.0752  -20.1881 N   0  0  0  0  0  0  0  0  0  0  0  0
   -4.8665    2.6196  -19.8908 H   0  0  0  0  0  0  0  0  0  0  0  0
   -3.6491    0.9706  -19.4037 C   0  0  0  0  0  0  0  0  0  0  0  0
   -4.8509    0.3407  -18.6869 C   0  0  0  0  0  0  0  0  0  0  0  0
   -5.2692    0.9405  -17.5177 F   0  0  0  0  0  0  0  0  0  0  0  0
   -5.1354   -1.0931  -18.9021 C   0  0  0  0  0  0  0  0  0  0  0  0
   -5.9703   -0.0482  -19.6035 C   0  0  0  0  0  0  0  0  0  0  0  0
  2  1  1  0  0  0
  2  3  1  0  0  0
  3  4  1  0  0  0
  4 19  1  0  0  0
  4  5  1  0  0  0
 19 20  2  0  0  0
 20 21  1  0  0  0
 21 22  2  0  0  0
 22 23  1  0  0  0
 23 24  2  0  0  0
 24 25  1  0  0  0
 25 26  2  0  0  0
 26 27  1  0  0  0
 27 28  2  0  0  0
 28 19  1  0  0  0
 28 23  1  0  0  0
  5  6  2  0  0  0
  7  5  1  0  0  0
  7  8  1  0  0  0
  7  2  1  0  0  0
  8  9  1  0  0  0
  9 29  1  0  0  0
  9 10  1  0  0  0
 29 30  1  0  0  0
 30 31  2  0  0  0
 30 32  1  0  0  0
 32 34  1  0  0  0
 32 33  1  0  0  0
 34 35  1  0  0  0
 35 36  1  0  0  0
 35 37  1  0  0  0
 37 38  1  0  0  0
 38 35  1  0  0  0
 10 11  2  0  0  0
 10 12  1  0  0  0
 12 13  2  0  0  0
 13 14  1  0  0  0
 14 15  2  0  0  0
 15 16  1  0  0  0
 15 17  1  0  0  0
 17 18  2  0  0  0
 18 12  1  0  0  0
 18  7  1  0  0  0
M  END
> <minimizedAffinity>
-7.65284

> <CNNscore>
0.3499003947

> <CNNaffinity>
6.0900917053

> <CNN_VS>
2.1309254169

> <CNNaffinity_variance>
0.0606277585

$$$$



 38 43  0  0  0  0  0  0  0  0999 V2000
   -6.3482    0.4730  -23.1275 C   0  0  0  0  0  0  0  0  0  0  0  0
   -7.7585    0.0450  -22.7974 C   0  0  0  0  0  0  0  0  0  0  0  0
   -8.5072    1.3051  -22.4756 C   0  0  0  0  0  0  0  0  0  0  0  0
   -8.8952    1.8219  -23.7651 N   0  0  0  0  0  0  0  0  0  0  0  0
   -8.7618    0.7810  -24.7252 C   0  0  0  0  0  0  0  0  0  0  0  0
   -8.9089    0.9335  -25.9701 O   0  0  0  0  0  0  0  0  0  0  0  0
   -8.4254   -0.4872  -24.0091 C   0  0  0  0  0  0  0  0  0  0  0  0
   -7.5260   -1.3729  -24.7914 C   0  0  0  0  0  0  0  0  0  0  0  0
   -7.4088   -2.6658  -24.1505 N   0  0  0  0  0  0  0  0  0  0  0  0
   -8.6048   -3.3743  -23.8447 C   0  0  0  0  0  0  0  0  0  0  0  0
   -8.6459   -4.6279  -23.7653 O   0  0  0  0  0  0  0  0  0  0  0  0
   -9.8019   -2.5718  -23.6232 C   0  0  0  0  0  0  0  0  0  0  0  0
  -10.9735   -3.2203  -23.3443 C   0  0  0  0  0  0  0  0  0  0  0  0
  -12.1402   -2.5183  -23.1420 C   0  0  0  0  0  0  0  0  0  0  0  0
  -12.0892   -1.1433  -23.2296 C   0  0  0  0  0  0  0  0  0  0  0  0
  -13.2008   -0.3749  -23.0428 F   0  0  0  0  0  0  0  0  0  0  0  0
  -10.8997   -0.5056  -23.5113 C   0  0  0  0  0  0  0  0  0  0  0  0
   -9.7092   -1.1802  -23.7197 C   0  0  0  0  0  0  0  0  0  0  0  0
   -9.3440    3.1700  -23.9501 C   0  0  0  0  0  0  0  0  0  0  0  0
   -8.4437    4.2260  -24.1108 C   0  0  0  0  0  0  0  0  0  0  0  0
   -8.8440    5.4979  -24.2821 N   0  0  0  0  0  0  0  0  0  0  0  0
  -10.1392    5.8353  -24.3099 C   0  0  0  0  0  0  0  0  0  0  0  0
  -11.0849    4.8483  -24.1583 C   0  0  0  0  0  0  0  0  0  0  0  0
  -12.4167    5.2029  -24.1877 C   0  0  0  0  0  0  0  0  0  0  0  0
  -13.4045    4.2510  -24.0400 C   0  0  0  0  0  0  0  0  0  0  0  0
  -12.9869    2.9475  -23.8644 C   0  0  0  0  0  0  0  0  0  0  0  0
  -11.6585    2.5978  -23.8356 C   0  0  0  0  0  0  0  0  0  0  0  0
  -10.6759    3.5222  -23.9794 C   0  0  0  0  0  0  0  0  0  0  0  0
   -6.1404   -3.2831  -23.8142 C   0  0  0  0  0  0  0  0  0  0  0  0
   -5.9669   -3.3988  -22.3355 C   0  0  0  0  0  0  0  0  0  0  0  0
   -6.1599   -4.4958  -21.7302 O   0  0  0  0  0  0  0  0  0  0  0  0
   -5.5746   -2.2123  -21.6514 N   0  0  0  0  0  0  0  0  0  0  0  0
   -5.4313   -1.3735  -22.1467 H   0  0  0  0  0  0  0  0  0  0  0  0
   -5.3923   -2.2591  -20.2355 C   0  0  0  0  0  0  0  0  0  0  0  0
   -6.0185   -1.0058  -19.6093 C   0  0  0  0  0  0  0  0  0  0  0  0
   -7.3950   -0.9229  -19.6138 F   0  0  0  0  0  0  0  0  0  0  0  0
   -5.2226    0.2381  -19.5612 C   0  0  0  0  0  0  0  0  0  0  0  0
   -5.3902   -0.5951  -18.3127 C   0  0  0  0  0  0  0  0  0  0  0  0
  2  1  1  0  0  0
  2  3  1  0  0  0
  3  4  1  0  0  0
  4 19  1  0  0  0
  4  5  1  0  0  0
 19 20  2  0  0  0
 20 21  1  0  0  0
 21 22  2  0  0  0
 22 23  1  0  0  0
 23 24  2  0  0  0
 24 25  1  0  0  0
 25 26  2  0  0  0
 26 27  1  0  0  0
 27 28  2  0  0  0
 28 19  1  0  0  0
 28 23  1  0  0  0
  5  6  2  0  0  0
  7  5  1  0  0  0
  7  8  1  0  0  0
  7  2  1  0  0  0
  8  9  1  0  0  0
  9 29  1  0  0  0
  9 10  1  0  0  0
 29 30  1  0  0  0
 30 31  2  0  0  0
 30 32  1  0  0  0
 32 34  1  0  0  0
 32 33  1  0  0  0
 34 35  1  0  0  0
 35 36  1  0  0  0
 35 37  1  0  0  0
 37 38  1  0  0  0
 38 35  1  0  0  0
 10 11  2  0  0  0
 10 12  1  0  0  0
 12 13  2  0  0  0
 13 14  1  0  0  0
 14 15  2  0  0  0
 15 16  1  0  0  0
 15 17  1  0  0  0
 17 18  2  0  0  0
 18 12  1  0  0  0
 18  7  1  0  0  0
M  END
> <minimizedAffinity>
-8.27106

> <CNNscore>
0.2932167947

> <CNNaffinity>
6.4247536659

> <CNN_VS>
1.8838456869

> <CNNaffinity_variance>
0.2625201046

$$$$



 38 43  0  0  0  0  0  0  0  0999 V2000
   -5.5616   -1.1451  -23.5463 C   0  0  0  0  0  0  0  0  0  0  0  0
   -6.1987    0.1904  -23.8497 C   0  0  0  0  0  0  0  0  0  0  0  0
   -7.5748   -0.1165  -24.3635 C   0  0  0  0  0  0  0  0  0  0  0  0
   -8.3634   -0.2959  -23.1691 N   0  0  0  0  0  0  0  0  0  0  0  0
   -7.6456    0.2517  -22.0700 C   0  0  0  0  0  0  0  0  0  0  0  0
   -8.0030    0.1543  -20.8628 O   0  0  0  0  0  0  0  0  0  0  0  0
   -6.4274    0.9421  -22.5933 C   0  0  0  0  0  0  0  0  0  0  0  0
   -5.2666    0.8458  -21.6721 C   0  0  0  0  0  0  0  0  0  0  0  0
   -4.1921    1.7050  -22.1230 N   0  0  0  0  0  0  0  0  0  0  0  0
   -4.4841    3.0781  -22.3578 C   0  0  0  0  0  0  0  0  0  0  0  0
   -3.6137    3.9797  -22.2626 O   0  0  0  0  0  0  0  0  0  0  0  0
   -5.8590    3.4018  -22.7199 C   0  0  0  0  0  0  0  0  0  0  0  0
   -6.1797    4.7139  -22.9358 C   0  0  0  0  0  0  0  0  0  0  0  0
   -7.4644    5.0835  -23.2642 C   0  0  0  0  0  0  0  0  0  0  0  0
   -8.4149    4.0903  -23.3679 C   0  0  0  0  0  0  0  0  0  0  0  0
   -9.7103    4.3734  -23.6889 F   0  0  0  0  0  0  0  0  0  0  0  0
   -8.0744    2.7726  -23.1474 C   0  0  0  0  0  0  0  0  0  0  0  0
   -6.7934    2.3664  -22.8162 C   0  0  0  0  0  0  0  0  0  0  0  0
   -9.6536   -0.9189  -23.1857 C   0  0  0  0  0  0  0  0  0  0  0  0
   -9.8000   -2.3030  -23.0655 C   0  0  0  0  0  0  0  0  0  0  0  0
  -11.0008   -2.9073  -23.0820 N   0  0  0  0  0  0  0  0  0  0  0  0
  -12.1397   -2.2166  -23.2156 C   0  0  0  0  0  0  0  0  0  0  0  0
  -12.0748   -0.8483  -23.3392 C   0  0  0  0  0  0  0  0  0  0  0  0
  -13.2515   -0.1434  -23.4766 C   0  0  0  0  0  0  0  0  0  0  0  0
  -13.2410    1.2303  -23.6043 C   0  0  0  0  0  0  0  0  0  0  0  0
  -12.0053    1.8444  -23.5866 C   0  0  0  0  0  0  0  0  0  0  0  0
  -10.8346    1.1385  -23.4495 C   0  0  0  0  0  0  0  0  0  0  0  0
  -10.8286   -0.2123  -23.3229 C   0  0  0  0  0  0  0  0  0  0  0  0
   -2.8333    1.2460  -22.3371 C   0  0  0  0  0  0  0  0  0  0  0  0
   -1.9901    1.4572  -21.1229 C   0  0  0  0  0  0  0  0  0  0  0  0
   -2.4532    1.2796  -19.9563 O   0  0  0  0  0  0  0  0  0  0  0  0
   -0.6450    1.8668  -21.3522 N   0  0  0  0  0  0  0  0  0  0  0  0
   -0.3112    1.9972  -22.2693 H   0  0  0  0  0  0  0  0  0  0  0  0
    0.2117    2.0852  -20.2303 C   0  0  0  0  0  0  0  0  0  0  0  0
    0.6393    3.5588  -20.2074 C   0  0  0  0  0  0  0  0  0  0  0  0
    1.6183    3.9142  -19.3035 F   0  0  0  0  0  0  0  0  0  0  0  0
   -0.3179    4.5840  -20.6719 C   0  0  0  0  0  0  0  0  0  0  0  0
    0.8221    4.1602  -21.5674 C   0  0  0  0  0  0  0  0  0  0  0  0
  2  1  1  0  0  0
  2  3  1  0  0  0
  3  4  1  0  0  0
  4 19  1  0  0  0
  4  5  1  0  0  0
 19 20  2  0  0  0
 20 21  1  0  0  0
 21 22  2  0  0  0
 22 23  1  0  0  0
 23 24  2  0  0  0
 24 25  1  0  0  0
 25 26  2  0  0  0
 26 27  1  0  0  0
 27 28  2  0  0  0
 28 19  1  0  0  0
 28 23  1  0  0  0
  5  6  2  0  0  0
  7  5  1  0  0  0
  7  8  1  0  0  0
  7  2  1  0  0  0
  8  9  1  0  0  0
  9 29  1  0  0  0
  9 10  1  0  0  0
 29 30  1  0  0  0
 30 31  2  0  0  0
 30 32  1  0  0  0
 32 34  1  0  0  0
 32 33  1  0  0  0
 34 35  1  0  0  0
 35 36  1  0  0  0
 35 37  1  0  0  0
 37 38  1  0  0  0
 38 35  1  0  0  0
 10 11  2  0  0  0
 10 12  1  0  0  0
 12 13  2  0  0  0
 13 14  1  0  0  0
 14 15  2  0  0  0
 15 16  1  0  0  0
 15 17  1  0  0  0
 17 18  2  0  0  0
 18 12  1  0  0  0
 18  7  1  0  0  0
M  END
> <minimizedAffinity>
-7.43466

> <CNNscore>
0.1934480816

> <CNNaffinity>
5.6448526382

> <CNN_VS>
1.0919859409

> <CNNaffinity_variance>
0.0552379712

$$$$



 38 43  0  0  0  0  0  0  0  0999 V2000
   -6.3284    0.3705  -23.2152 C   0  0  0  0  0  0  0  0  0  0  0  0
   -7.7517    0.0041  -22.8666 C   0  0  0  0  0  0  0  0  0  0  0  0
   -8.4303    1.2909  -22.4984 C   0  0  0  0  0  0  0  0  0  0  0  0
   -8.8171    1.8590  -23.7666 N   0  0  0  0  0  0  0  0  0  0  0  0
   -8.7544    0.8378  -24.7545 C   0  0  0  0  0  0  0  0  0  0  0  0
   -8.9179    1.0291  -25.9920 O   0  0  0  0  0  0  0  0  0  0  0  0
   -8.4676   -0.4634  -24.0769 C   0  0  0  0  0  0  0  0  0  0  0  0
   -7.6288   -1.3720  -24.8992 C   0  0  0  0  0  0  0  0  0  0  0  0
   -7.5637   -2.6851  -24.2929 N   0  0  0  0  0  0  0  0  0  0  0  0
   -8.7873   -3.3414  -23.9799 C   0  0  0  0  0  0  0  0  0  0  0  0
   -8.8891   -4.5931  -23.9305 O   0  0  0  0  0  0  0  0  0  0  0  0
   -9.9384   -2.4869  -23.7140 C   0  0  0  0  0  0  0  0  0  0  0  0
  -11.1352   -3.0838  -23.4269 C   0  0  0  0  0  0  0  0  0  0  0  0
  -12.2613   -2.3305  -23.1833 C   0  0  0  0  0  0  0  0  0  0  0  0
  -12.1437   -0.9580  -23.2382 C   0  0  0  0  0  0  0  0  0  0  0  0
  -13.2119   -0.1408  -23.0095 F   0  0  0  0  0  0  0  0  0  0  0  0
  -10.9296   -0.3726  -23.5286 C   0  0  0  0  0  0  0  0  0  0  0  0
   -9.7785   -1.0995  -23.7781 C   0  0  0  0  0  0  0  0  0  0  0  0
   -9.2018    3.2319  -23.9090 C   0  0  0  0  0  0  0  0  0  0  0  0
   -8.2529    4.2547  -23.9795 C   0  0  0  0  0  0  0  0  0  0  0  0
   -8.5929    5.5489  -24.1097 N   0  0  0  0  0  0  0  0  0  0  0  0
   -9.8706    5.9419  -24.1806 C   0  0  0  0  0  0  0  0  0  0  0  0
  -10.8616    4.9903  -24.1179 C   0  0  0  0  0  0  0  0  0  0  0  0
  -12.1751    5.4022  -24.1913 C   0  0  0  0  0  0  0  0  0  0  0  0
  -13.2064    4.4876  -24.1329 C   0  0  0  0  0  0  0  0  0  0  0  0
  -12.8506    3.1610  -23.9992 C   0  0  0  0  0  0  0  0  0  0  0  0
  -11.5404    2.7542  -23.9264 C   0  0  0  0  0  0  0  0  0  0  0  0
  -10.5155    3.6414  -23.9824 C   0  0  0  0  0  0  0  0  0  0  0  0
   -6.3213   -3.3725  -23.9982 C   0  0  0  0  0  0  0  0  0  0  0  0
   -6.1905   -4.6267  -24.7980 C   0  0  0  0  0  0  0  0  0  0  0  0
   -5.7286   -5.6917  -24.2886 O   0  0  0  0  0  0  0  0  0  0  0  0
   -6.6126   -4.5554  -26.1569 N   0  0  0  0  0  0  0  0  0  0  0  0
   -6.9677   -3.7150  -26.5269 H   0  0  0  0  0  0  0  0  0  0  0  0
   -6.5123   -5.7228  -26.9739 C   0  0  0  0  0  0  0  0  0  0  0  0
   -7.8848   -6.4061  -27.0397 C   0  0  0  0  0  0  0  0  0  0  0  0
   -8.2015   -7.2776  -26.0190 F   0  0  0  0  0  0  0  0  0  0  0  0
   -8.5326   -6.5743  -28.3569 C   0  0  0  0  0  0  0  0  0  0  0  0
   -9.0042   -5.4864  -27.4215 C   0  0  0  0  0  0  0  0  0  0  0  0
  2  1  1  0  0  0
  2  3  1  0  0  0
  3  4  1  0  0  0
  4 19  1  0  0  0
  4  5  1  0  0  0
 19 20  2  0  0  0
 20 21  1  0  0  0
 21 22  2  0  0  0
 22 23  1  0  0  0
 23 24  2  0  0  0
 24 25  1  0  0  0
 25 26  2  0  0  0
 26 27  1  0  0  0
 27 28  2  0  0  0
 28 19  1  0  0  0
 28 23  1  0  0  0
  5  6  2  0  0  0
  7  5  1  0  0  0
  7  8  1  0  0  0
  7  2  1  0  0  0
  8  9  1  0  0  0
  9 29  1  0  0  0
  9 10  1  0  0  0
 29 30  1  0  0  0
 30 31  2  0  0  0
 30 32  1  0  0  0
 32 34  1  0  0  0
 32 33  1  0  0  0
 34 35  1  0  0  0
 35 36  1  0  0  0
 35 37  1  0  0  0
 37 38  1  0  0  0
 38 35  1  0  0  0
 10 11  2  0  0  0
 10 12  1  0  0  0
 12 13  2  0  0  0
 13 14  1  0  0  0
 14 15  2  0  0  0
 15 16  1  0  0  0
 15 17  1  0  0  0
 17 18  2  0  0  0
 18 12  1  0  0  0
 18  7  1  0  0  0
M  END
> <minimizedAffinity>
-7.74878

> <CNNscore>
0.1884999126

> <CNNaffinity>
6.1428108215

> <CNN_VS>
1.1579192877

> <CNNaffinity_variance>
0.1791488826

$$$$



 38 43  0  0  0  0  0  0  0  0999 V2000
   -8.4694   -1.4088  -25.0544 C   0  0  0  0  0  0  0  0  0  0  0  0
   -7.3401   -0.7635  -24.2866 C   0  0  0  0  0  0  0  0  0  0  0  0
   -7.3439    0.6831  -24.6857 C   0  0  0  0  0  0  0  0  0  0  0  0
   -8.3482    1.2782  -23.8385 N   0  0  0  0  0  0  0  0  0  0  0  0
   -8.6192    0.3841  -22.7661 C   0  0  0  0  0  0  0  0  0  0  0  0
   -9.5332    0.5497  -21.9108 O   0  0  0  0  0  0  0  0  0  0  0  0
   -7.6511   -0.7526  -22.8377 C   0  0  0  0  0  0  0  0  0  0  0  0
   -8.2367   -2.0411  -22.3881 C   0  0  0  0  0  0  0  0  0  0  0  0
   -7.2058   -3.0513  -22.2742 N   0  0  0  0  0  0  0  0  0  0  0  0
   -6.0640   -2.7583  -21.4765 C   0  0  0  0  0  0  0  0  0  0  0  0
   -5.3869   -3.6537  -20.9115 O   0  0  0  0  0  0  0  0  0  0  0  0
   -5.7057   -1.3516  -21.3391 C   0  0  0  0  0  0  0  0  0  0  0  0
   -4.6241   -1.0318  -20.5652 C   0  0  0  0  0  0  0  0  0  0  0  0
   -4.2465    0.2796  -20.3841 C   0  0  0  0  0  0  0  0  0  0  0  0
   -4.9924    1.2576  -21.0068 C   0  0  0  0  0  0  0  0  0  0  0  0
   -4.6845    2.5803  -20.8775 F   0  0  0  0  0  0  0  0  0  0  0  0
   -6.0795    0.9176  -21.7837 C   0  0  0  0  0  0  0  0  0  0  0  0
   -6.4862   -0.3896  -21.9870 C   0  0  0  0  0  0  0  0  0  0  0  0
   -8.9108    2.5693  -24.1029 C   0  0  0  0  0  0  0  0  0  0  0  0
  -10.0336    2.7256  -24.9191 C   0  0  0  0  0  0  0  0  0  0  0  0
  -10.5746    3.9279  -25.1823 N   0  0  0  0  0  0  0  0  0  0  0  0
  -10.0684    5.0588  -24.6755 C   0  0  0  0  0  0  0  0  0  0  0  0
   -8.9619    4.9839  -23.8620 C   0  0  0  0  0  0  0  0  0  0  0  0
   -8.4458    6.1524  -23.3438 C   0  0  0  0  0  0  0  0  0  0  0  0
   -7.3372    6.1317  -22.5228 C   0  0  0  0  0  0  0  0  0  0  0  0
   -6.7867    4.8946  -22.2567 C   0  0  0  0  0  0  0  0  0  0  0  0
   -7.3039    3.7321  -22.7749 C   0  0  0  0  0  0  0  0  0  0  0  0
   -8.3933    3.7361  -23.5836 C   0  0  0  0  0  0  0  0  0  0  0  0
   -7.2784   -4.3485  -22.9184 C   0  0  0  0  0  0  0  0  0  0  0  0
   -6.2110   -4.5034  -23.9512 C   0  0  0  0  0  0  0  0  0  0  0  0
   -5.9316   -3.5681  -24.7600 O   0  0  0  0  0  0  0  0  0  0  0  0
   -5.5308   -5.7551  -23.9729 N   0  0  0  0  0  0  0  0  0  0  0  0
   -5.7681   -6.4644  -23.3327 H   0  0  0  0  0  0  0  0  0  0  0  0
   -4.4991   -5.9643  -24.9383 C   0  0  0  0  0  0  0  0  0  0  0  0
   -4.4534   -7.4535  -25.3061 C   0  0  0  0  0  0  0  0  0  0  0  0
   -4.8360   -8.3523  -24.3327 F   0  0  0  0  0  0  0  0  0  0  0  0
   -3.5276   -7.8949  -26.3696 C   0  0  0  0  0  0  0  0  0  0  0  0
   -5.0026   -7.7612  -26.6656 C   0  0  0  0  0  0  0  0  0  0  0  0
  2  1  1  0  0  0
  2  3  1  0  0  0
  3  4  1  0  0  0
  4 19  1  0  0  0
  4  5  1  0  0  0
 19 20  2  0  0  0
 20 21  1  0  0  0
 21 22  2  0  0  0
 22 23  1  0  0  0
 23 24  2  0  0  0
 24 25  1  0  0  0
 25 26  2  0  0  0
 26 27  1  0  0  0
 27 28  2  0  0  0
 28 19  1  0  0  0
 28 23  1  0  0  0
  5  6  2  0  0  0
  7  5  1  0  0  0
  7  8  1  0  0  0
  7  2  1  0  0  0
  8  9  1  0  0  0
  9 29  1  0  0  0
  9 10  1  0  0  0
 29 30  1  0  0  0
 30 31  2  0  0  0
 30 32  1  0  0  0
 32 34  1  0  0  0
 32 33  1  0  0  0
 34 35  1  0  0  0
 35 36  1  0  0  0
 35 37  1  0  0  0
 37 38  1  0  0  0
 38 35  1  0  0  0
 10 11  2  0  0  0
 10 12  1  0  0  0
 12 13  2  0  0  0
 13 14  1  0  0  0
 14 15  2  0  0  0
 15 16  1  0  0  0
 15 17  1  0  0  0
 17 18  2  0  0  0
 18 12  1  0  0  0
 18  7  1  0  0  0
M  END
> <minimizedAffinity>
-7.55439

> <CNNscore>
0.1786898226

> <CNNaffinity>
5.7847452164

> <CNN_VS>
1.0336750746

> <CNNaffinity_variance>
0.0721151680

$$$$



 38 43  0  0  0  0  0  0  0  0999 V2000
   -5.0889   -1.8314  -24.7146 C   0  0  0  0  0  0  0  0  0  0  0  0
   -6.3690   -2.5969  -24.4767 C   0  0  0  0  0  0  0  0  0  0  0  0
   -7.2785   -1.6597  -23.7376 C   0  0  0  0  0  0  0  0  0  0  0  0
   -7.8742   -0.8562  -24.7768 N   0  0  0  0  0  0  0  0  0  0  0  0
   -7.6689   -1.5094  -26.0235 C   0  0  0  0  0  0  0  0  0  0  0  0
   -7.9638   -1.0144  -27.1471 O   0  0  0  0  0  0  0  0  0  0  0  0
   -7.0579   -2.8488  -25.7644 C   0  0  0  0  0  0  0  0  0  0  0  0
   -6.1085   -3.2675  -26.8268 C   0  0  0  0  0  0  0  0  0  0  0  0
   -5.7162   -4.6481  -26.6373 N   0  0  0  0  0  0  0  0  0  0  0  0
   -6.7423   -5.6277  -26.5211 C   0  0  0  0  0  0  0  0  0  0  0  0
   -6.5683   -6.8298  -26.8437 O   0  0  0  0  0  0  0  0  0  0  0  0
   -8.0267   -5.1712  -26.0032 C   0  0  0  0  0  0  0  0  0  0  0  0
   -9.0414   -6.0820  -25.8945 C   0  0  0  0  0  0  0  0  0  0  0  0
  -10.2813   -5.7077  -25.4280 C   0  0  0  0  0  0  0  0  0  0  0  0
  -10.4663   -4.3880  -25.0750 C   0  0  0  0  0  0  0  0  0  0  0  0
  -11.6647   -3.9367  -24.6044 F   0  0  0  0  0  0  0  0  0  0  0  0
   -9.4325   -3.4831  -25.1905 C   0  0  0  0  0  0  0  0  0  0  0  0
   -8.1744   -3.8253  -25.6550 C   0  0  0  0  0  0  0  0  0  0  0  0
   -8.5551    0.3744  -24.5026 C   0  0  0  0  0  0  0  0  0  0  0  0
   -7.9122    1.6090  -24.6203 C   0  0  0  0  0  0  0  0  0  0  0  0
   -8.5318    2.7743  -24.3646 N   0  0  0  0  0  0  0  0  0  0  0  0
   -9.8125    2.8258  -23.9783 C   0  0  0  0  0  0  0  0  0  0  0  0
  -10.5114    1.6493  -23.8404 C   0  0  0  0  0  0  0  0  0  0  0  0
  -11.8297    1.7097  -23.4422 C   0  0  0  0  0  0  0  0  0  0  0  0
  -12.5746    0.5586  -23.2886 C   0  0  0  0  0  0  0  0  0  0  0  0
  -11.9327   -0.6341  -23.5527 C   0  0  0  0  0  0  0  0  0  0  0  0
  -10.6185   -0.6905  -23.9494 C   0  0  0  0  0  0  0  0  0  0  0  0
   -9.8732    0.4325  -24.1048 C   0  0  0  0  0  0  0  0  0  0  0  0
   -4.3362   -5.0887  -26.5711 C   0  0  0  0  0  0  0  0  0  0  0  0
   -4.1404   -6.1042  -25.4940 C   0  0  0  0  0  0  0  0  0  0  0  0
   -3.4629   -7.1572  -25.6921 O   0  0  0  0  0  0  0  0  0  0  0  0
   -4.7555   -5.8211  -24.2405 N   0  0  0  0  0  0  0  0  0  0  0  0
   -5.2763   -4.9952  -24.1141 H   0  0  0  0  0  0  0  0  0  0  0  0
   -4.6044   -6.7547  -23.1700 C   0  0  0  0  0  0  0  0  0  0  0  0
   -5.8602   -6.7123  -22.2890 C   0  0  0  0  0  0  0  0  0  0  0  0
   -5.6928   -6.9710  -20.9448 F   0  0  0  0  0  0  0  0  0  0  0  0
   -7.1751   -6.9674  -22.9128 C   0  0  0  0  0  0  0  0  0  0  0  0
   -6.7653   -5.5534  -22.5756 C   0  0  0  0  0  0  0  0  0  0  0  0
  2  1  1  0  0  0
  2  3  1  0  0  0
  3  4  1  0  0  0
  4 19  1  0  0  0
  4  5  1  0  0  0
 19 20  2  0  0  0
 20 21  1  0  0  0
 21 22  2  0  0  0
 22 23  1  0  0  0
 23 24  2  0  0  0
 24 25  1  0  0  0
 25 26  2  0  0  0
 26 27  1  0  0  0
 27 28  2  0  0  0
 28 19  1  0  0  0
 28 23  1  0  0  0
  5  6  2  0  0  0
  7  5  1  0  0  0
  7  8  1  0  0  0
  7  2  1  0  0  0
  8  9  1  0  0  0
  9 29  1  0  0  0
  9 10  1  0  0  0
 29 30  1  0  0  0
 30 31  2  0  0  0
 30 32  1  0  0  0
 32 34  1  0  0  0
 32 33  1  0  0  0
 34 35  1  0  0  0
 35 36  1  0  0  0
 35 37  1  0  0  0
 37 38  1  0  0  0
 38 35  1  0  0  0
 10 11  2  0  0  0
 10 12  1  0  0  0
 12 13  2  0  0  0
 13 14  1  0  0  0
 14 15  2  0  0  0
 15 16  1  0  0  0
 15 17  1  0  0  0
 17 18  2  0  0  0
 18 12  1  0  0  0
 18  7  1  0  0  0
M  END
> <minimizedAffinity>
-7.22346

> <CNNscore>
0.1701121479

> <CNNaffinity>
5.9472208023

> <CNN_VS>
1.0116945505

> <CNNaffinity_variance>
0.4081964493

$$$$



 38 43  0  0  0  0  0  0  0  0999 V2000
   -7.0114   -0.2839  -22.6953 C   0  0  0  0  0  0  0  0  0  0  0  0
   -8.4417    0.1845  -22.5671 C   0  0  0  0  0  0  0  0  0  0  0  0
   -8.3816    1.6830  -22.5139 C   0  0  0  0  0  0  0  0  0  0  0  0
   -8.3058    2.0805  -23.8983 N   0  0  0  0  0  0  0  0  0  0  0  0
   -8.6980    0.9768  -24.7051 C   0  0  0  0  0  0  0  0  0  0  0  0
   -8.6309    0.9532  -25.9659 O   0  0  0  0  0  0  0  0  0  0  0  0
   -9.1888   -0.1160  -23.8111 C   0  0  0  0  0  0  0  0  0  0  0  0
   -8.8770   -1.4723  -24.3295 C   0  0  0  0  0  0  0  0  0  0  0  0
   -9.5562   -2.4810  -23.5439 N   0  0  0  0  0  0  0  0  0  0  0  0
  -10.9644   -2.3632  -23.3730 C   0  0  0  0  0  0  0  0  0  0  0  0
  -11.7056   -3.3574  -23.1686 O   0  0  0  0  0  0  0  0  0  0  0  0
  -11.5218   -1.0178  -23.4459 C   0  0  0  0  0  0  0  0  0  0  0  0
  -12.8740   -0.8688  -23.3035 C   0  0  0  0  0  0  0  0  0  0  0  0
  -13.4608    0.3741  -23.3793 C   0  0  0  0  0  0  0  0  0  0  0  0
  -12.6429    1.4611  -23.6029 C   0  0  0  0  0  0  0  0  0  0  0  0
  -13.1460    2.7262  -23.6915 F   0  0  0  0  0  0  0  0  0  0  0  0
  -11.2817    1.2931  -23.7438 C   0  0  0  0  0  0  0  0  0  0  0  0
  -10.6594    0.0589  -23.6728 C   0  0  0  0  0  0  0  0  0  0  0  0
   -7.9072    3.3969  -24.2998 C   0  0  0  0  0  0  0  0  0  0  0  0
   -6.5621    3.7701  -24.3540 C   0  0  0  0  0  0  0  0  0  0  0  0
   -6.1673    5.0006  -24.7246 N   0  0  0  0  0  0  0  0  0  0  0  0
   -7.0439    5.9525  -25.0675 C   0  0  0  0  0  0  0  0  0  0  0  0
   -8.3872    5.6586  -25.0384 C   0  0  0  0  0  0  0  0  0  0  0  0
   -9.2842    6.6436  -25.3926 C   0  0  0  0  0  0  0  0  0  0  0  0
  -10.6422    6.3999  -25.3797 C   0  0  0  0  0  0  0  0  0  0  0  0
  -11.0406    5.1350  -24.9983 C   0  0  0  0  0  0  0  0  0  0  0  0
  -10.1437    4.1557  -24.6460 C   0  0  0  0  0  0  0  0  0  0  0  0
   -8.8056    4.3800  -24.6537 C   0  0  0  0  0  0  0  0  0  0  0  0
   -8.8828   -3.6103  -22.9322 C   0  0  0  0  0  0  0  0  0  0  0  0
   -8.0298   -4.3354  -23.9203 C   0  0  0  0  0  0  0  0  0  0  0  0
   -6.7676   -4.2176  -23.9177 O   0  0  0  0  0  0  0  0  0  0  0  0
   -8.7138   -5.1611  -24.8585 N   0  0  0  0  0  0  0  0  0  0  0  0
   -9.6954   -5.2344  -24.8378 H   0  0  0  0  0  0  0  0  0  0  0  0
   -7.9526   -5.8808  -25.8295 C   0  0  0  0  0  0  0  0  0  0  0  0
   -8.9139   -6.6149  -26.7741 C   0  0  0  0  0  0  0  0  0  0  0  0
   -9.5998   -7.6938  -26.2570 F   0  0  0  0  0  0  0  0  0  0  0  0
   -8.6699   -6.5475  -28.2297 C   0  0  0  0  0  0  0  0  0  0  0  0
   -9.7586   -5.7034  -27.6108 C   0  0  0  0  0  0  0  0  0  0  0  0
  2  1  1  0  0  0
  2  3  1  0  0  0
  3  4  1  0  0  0
  4 19  1  0  0  0
  4  5  1  0  0  0
 19 20  2  0  0  0
 20 21  1  0  0  0
 21 22  2  0  0  0
 22 23  1  0  0  0
 23 24  2  0  0  0
 24 25  1  0  0  0
 25 26  2  0  0  0
 26 27  1  0  0  0
 27 28  2  0  0  0
 28 19  1  0  0  0
 28 23  1  0  0  0
  5  6  2  0  0  0
  7  5  1  0  0  0
  7  8  1  0  0  0
  7  2  1  0  0  0
  8  9  1  0  0  0
  9 29  1  0  0  0
  9 10  1  0  0  0
 29 30  1  0  0  0
 30 31  2  0  0  0
 30 32  1  0  0  0
 32 34  1  0  0  0
 32 33  1  0  0  0
 34 35  1  0  0  0
 35 36  1  0  0  0
 35 37  1  0  0  0
 37 38  1  0  0  0
 38 35  1  0  0  0
 10 11  2  0  0  0
 10 12  1  0  0  0
 12 13  2  0  0  0
 13 14  1  0  0  0
 14 15  2  0  0  0
 15 16  1  0  0  0
 15 17  1  0  0  0
 17 18  2  0  0  0
 18 12  1  0  0  0
 18  7  1  0  0  0
M  END
> <minimizedAffinity>
-8.05294

> <CNNscore>
0.1573667973

> <CNNaffinity>
5.8193502426

> <CNN_VS>
0.9157724977

> <CNNaffinity_variance>
0.6239260435

$$$$



 35 40  0  0  0  0  0  0  0  0999 V2000
   -6.8777   -2.7488  -22.0963 N   0  0  0  0  0  0  0  0  0  0  0  0
   -7.8383   -1.9018  -22.7588 C   0  0  0  0  0  0  0  0  0  0  0  0
   -7.4036   -0.5127  -23.0541 C   0  0  0  0  0  0  0  0  0  0  0  0
   -8.4978    0.3908  -22.5820 C   0  0  0  0  0  0  0  0  0  0  0  0
   -8.7307    0.6657  -21.3553 O   0  0  0  0  0  0  0  0  0  0  0  0
   -9.2442    0.9033  -23.6714 N   0  0  0  0  0  0  0  0  0  0  0  0
   -8.2785    0.9455  -24.7810 C   0  0  0  0  0  0  0  0  0  0  0  0
   -7.3275   -0.1881  -24.5127 C   0  0  0  0  0  0  0  0  0  0  0  0
   -6.0675   -0.3162  -25.2509 C   0  0  0  0  0  0  0  0  0  0  0  0
   -7.2287   -1.1891  -25.5879 C   0  0  0  0  0  0  0  0  0  0  0  0
   -6.2005   -0.0551  -22.3092 C   0  0  0  0  0  0  0  0  0  0  0  0
   -5.8584    1.2697  -22.4074 C   0  0  0  0  0  0  0  0  0  0  0  0
   -4.7370    1.7392  -21.7240 C   0  0  0  0  0  0  0  0  0  0  0  0
   -4.2846    3.4299  -21.8380 Cl  0  0  0  0  0  0  0  0  0  0  0  0
   -3.9484    0.9260  -20.9466 C   0  0  0  0  0  0  0  0  0  0  0  0
   -4.2978   -0.4057  -20.8518 C   0  0  0  0  0  0  0  0  0  0  0  0
   -5.4113   -0.8643  -21.5324 C   0  0  0  0  0  0  0  0  0  0  0  0
   -5.7354   -2.2788  -21.3981 C   0  0  0  0  0  0  0  0  0  0  0  0
   -5.0307   -3.0425  -20.6936 O   0  0  0  0  0  0  0  0  0  0  0  0
  -10.6141    1.2900  -23.6918 C   0  0  0  0  0  0  0  0  0  0  0  0
  -11.0014    2.6020  -23.9349 C   0  0  0  0  0  0  0  0  0  0  0  0
  -12.3229    2.8546  -23.9308 N   0  0  0  0  0  0  0  0  0  0  0  0
  -13.2653    1.9202  -23.7078 C   0  0  0  0  0  0  0  0  0  0  0  0
  -12.9127    0.6070  -23.4631 C   0  0  0  0  0  0  0  0  0  0  0  0
  -13.8526   -0.3826  -23.2294 C   0  0  0  0  0  0  0  0  0  0  0  0
  -13.4352   -1.6899  -22.9884 C   0  0  0  0  0  0  0  0  0  0  0  0
  -12.0830   -2.0238  -22.9777 C   0  0  0  0  0  0  0  0  0  0  0  0
  -11.1720   -1.0185  -23.2134 C   0  0  0  0  0  0  0  0  0  0  0  0
  -11.5665    0.3004  -23.4576 C   0  0  0  0  0  0  0  0  0  0  0  0
   -7.0753   -4.1904  -22.1268 C   0  0  0  0  0  0  0  0  0  0  0  0
   -8.4986   -5.9224  -25.2370 C   0  0  0  0  0  0  0  0  0  0  0  0
   -8.3562   -5.3838  -23.8808 N   0  0  0  0  0  0  0  0  0  0  0  0
   -7.1698   -4.7176  -23.5124 C   0  0  0  0  0  0  0  0  0  0  0  0
   -6.2660   -4.6078  -24.3687 O   0  0  0  0  0  0  0  0  0  0  0  0
   -9.0871   -5.4871  -23.2294 H   0  0  0  0  0  0  0  0  0  0  0  0
 31 32  1  0  0  0
 32 33  1  0  0  0
 32 35  1  0  0  0
 33 34  2  0  0  0
 33 30  1  0  0  0
 30  1  1  0  0  0
  1  2  1  0  0  0
  3  2  1  0  0  0
  3  4  1  0  0  0
  3 11  1  0  0  0
  4  5  2  0  0  0
  4  6  1  0  0  0
  6 20  1  0  0  0
  6  7  1  0  0  0
 20 21  2  0  0  0
 21 22  1  0  0  0
 22 23  2  0  0  0
 23 24  1  0  0  0
 24 25  2  0  0  0
 25 26  1  0  0  0
 26 27  2  0  0  0
 27 28  1  0  0  0
 28 29  2  0  0  0
 29 20  1  0  0  0
 29 24  1  0  0  0
  7  8  1  0  0  0
  8  9  1  0  0  0
  8  3  1  0  0  0
  9 10  1  0  0  0
 10  8  1  0  0  0
 11 12  2  0  0  0
 12 13  1  0  0  0
 13 14  1  0  0  0
 13 15  2  0  0  0
 15 16  1  0  0  0
 16 17  2  0  0  0
 17 18  1  0  0  0
 17 11  1  0  0  0
 18 19  2  0  0  0
 18  1  1  0  0  0
M  END
> <minimizedAffinity>
-7.93066

> <CNNscore>
0.4021890163

> <CNNaffinity>
6.3519773483

> <CNN_VS>
2.5546956062

> <CNNaffinity_variance>
0.0676413625

$$$$



 35 40  0  0  0  0  0  0  0  0999 V2000
   -5.4508   -0.9745  -20.6536 N   0  0  0  0  0  0  0  0  0  0  0  0
   -6.6595   -1.1411  -21.4218 C   0  0  0  0  0  0  0  0  0  0  0  0
   -6.8820   -0.1718  -22.5248 C   0  0  0  0  0  0  0  0  0  0  0  0
   -8.2846    0.3275  -22.3834 C   0  0  0  0  0  0  0  0  0  0  0  0
   -8.6690    1.1643  -21.4965 O   0  0  0  0  0  0  0  0  0  0  0  0
   -9.1336   -0.2477  -23.3606 N   0  0  0  0  0  0  0  0  0  0  0  0
   -8.2424   -0.5102  -24.5019 C   0  0  0  0  0  0  0  0  0  0  0  0
   -6.8964   -0.7846  -23.8896 C   0  0  0  0  0  0  0  0  0  0  0  0
   -5.6823   -0.8327  -24.7096 C   0  0  0  0  0  0  0  0  0  0  0  0
   -6.3126   -2.0941  -24.2244 C   0  0  0  0  0  0  0  0  0  0  0  0
   -6.0457    1.0565  -22.4650 C   0  0  0  0  0  0  0  0  0  0  0  0
   -6.3304    2.0627  -23.3528 C   0  0  0  0  0  0  0  0  0  0  0  0
   -5.5697    3.2313  -23.3295 C   0  0  0  0  0  0  0  0  0  0  0  0
   -5.9195    4.5283  -24.4572 Cl  0  0  0  0  0  0  0  0  0  0  0  0
   -4.5345    3.4246  -22.4470 C   0  0  0  0  0  0  0  0  0  0  0  0
   -4.2530    2.4086  -21.5563 C   0  0  0  0  0  0  0  0  0  0  0  0
   -5.0118    1.2523  -21.5854 C   0  0  0  0  0  0  0  0  0  0  0  0
   -4.6723    0.2114  -20.6235 C   0  0  0  0  0  0  0  0  0  0  0  0
   -3.7311    0.3638  -19.8068 O   0  0  0  0  0  0  0  0  0  0  0  0
  -10.5289   -0.5123  -23.2643 C   0  0  0  0  0  0  0  0  0  0  0  0
  -11.0160   -1.7833  -22.9849 C   0  0  0  0  0  0  0  0  0  0  0  0
  -12.3528   -1.9189  -22.9173 N   0  0  0  0  0  0  0  0  0  0  0  0
  -13.2205   -0.9071  -23.1029 C   0  0  0  0  0  0  0  0  0  0  0  0
  -12.7680    0.3680  -23.3822 C   0  0  0  0  0  0  0  0  0  0  0  0
  -13.6290    1.4345  -23.5793 C   0  0  0  0  0  0  0  0  0  0  0  0
  -13.1124    2.6981  -23.8581 C   0  0  0  0  0  0  0  0  0  0  0  0
  -11.7386    2.9118  -23.9432 C   0  0  0  0  0  0  0  0  0  0  0  0
  -10.9077    1.8323  -23.7423 C   0  0  0  0  0  0  0  0  0  0  0  0
  -11.4024    0.5552  -23.4614 C   0  0  0  0  0  0  0  0  0  0  0  0
   -4.9790   -2.0844  -19.8389 C   0  0  0  0  0  0  0  0  0  0  0  0
   -6.0200   -4.7485  -22.3920 C   0  0  0  0  0  0  0  0  0  0  0  0
   -5.6349   -3.4702  -21.7860 N   0  0  0  0  0  0  0  0  0  0  0  0
   -5.3652   -3.4029  -20.4040 C   0  0  0  0  0  0  0  0  0  0  0  0
   -5.4657   -4.4525  -19.7327 O   0  0  0  0  0  0  0  0  0  0  0  0
   -5.5648   -2.6612  -22.3426 H   0  0  0  0  0  0  0  0  0  0  0  0
 31 32  1  0  0  0
 32 33  1  0  0  0
 32 35  1  0  0  0
 33 34  2  0  0  0
 33 30  1  0  0  0
 30  1  1  0  0  0
  1  2  1  0  0  0
  3  2  1  0  0  0
  3  4  1  0  0  0
  3 11  1  0  0  0
  4  5  2  0  0  0
  4  6  1  0  0  0
  6 20  1  0  0  0
  6  7  1  0  0  0
 20 21  2  0  0  0
 21 22  1  0  0  0
 22 23  2  0  0  0
 23 24  1  0  0  0
 24 25  2  0  0  0
 25 26  1  0  0  0
 26 27  2  0  0  0
 27 28  1  0  0  0
 28 29  2  0  0  0
 29 20  1  0  0  0
 29 24  1  0  0  0
  7  8  1  0  0  0
  8  9  1  0  0  0
  8  3  1  0  0  0
  9 10  1  0  0  0
 10  8  1  0  0  0
 11 12  2  0  0  0
 12 13  1  0  0  0
 13 14  1  0  0  0
 13 15  2  0  0  0
 15 16  1  0  0  0
 16 17  2  0  0  0
 17 18  1  0  0  0
 17 11  1  0  0  0
 18 19  2  0  0  0
 18  1  1  0  0  0
M  END
> <minimizedAffinity>
-8.35328

> <CNNscore>
0.3984750211

> <CNNaffinity>
5.9497942924

> <CNN_VS>
2.3708443642

> <CNNaffinity_variance>
0.1193344593

$$$$



 35 40  0  0  0  0  0  0  0  0999 V2000
  -10.5637    3.4314  -24.0802 N   0  0  0  0  0  0  0  0  0  0  0  0
   -9.1899    3.1037  -23.7899 C   0  0  0  0  0  0  0  0  0  0  0  0
   -8.8278    1.6642  -23.8401 C   0  0  0  0  0  0  0  0  0  0  0  0
   -8.0694    1.3666  -22.5860 C   0  0  0  0  0  0  0  0  0  0  0  0
   -8.6010    1.2492  -21.4292 O   0  0  0  0  0  0  0  0  0  0  0  0
   -6.6834    1.2317  -22.8458 N   0  0  0  0  0  0  0  0  0  0  0  0
   -6.6235    0.7351  -24.2298 C   0  0  0  0  0  0  0  0  0  0  0  0
   -7.8358    1.3155  -24.9045 C   0  0  0  0  0  0  0  0  0  0  0  0
   -8.2743    0.8428  -26.2210 C   0  0  0  0  0  0  0  0  0  0  0  0
   -7.5557    2.1429  -26.0897 C   0  0  0  0  0  0  0  0  0  0  0  0
   -9.9777    0.7217  -23.8078 C   0  0  0  0  0  0  0  0  0  0  0  0
   -9.7000   -0.6149  -23.6741 C   0  0  0  0  0  0  0  0  0  0  0  0
  -10.7502   -1.5318  -23.6393 C   0  0  0  0  0  0  0  0  0  0  0  0
  -10.4138   -3.2447  -23.4688 Cl  0  0  0  0  0  0  0  0  0  0  0  0
  -12.0677   -1.1539  -23.7342 C   0  0  0  0  0  0  0  0  0  0  0  0
  -12.3407    0.1922  -23.8686 C   0  0  0  0  0  0  0  0  0  0  0  0
  -11.2938    1.0959  -23.9023 C   0  0  0  0  0  0  0  0  0  0  0  0
  -11.6377    2.5049  -24.0457 C   0  0  0  0  0  0  0  0  0  0  0  0
  -12.8339    2.8756  -24.1342 O   0  0  0  0  0  0  0  0  0  0  0  0
   -5.5955    1.5112  -21.9714 C   0  0  0  0  0  0  0  0  0  0  0  0
   -4.6498    2.4855  -22.2667 C   0  0  0  0  0  0  0  0  0  0  0  0
   -3.6642    2.6655  -21.3688 N   0  0  0  0  0  0  0  0  0  0  0  0
   -3.5525    1.9642  -20.2257 C   0  0  0  0  0  0  0  0  0  0  0  0
   -4.4764    0.9889  -19.9032 C   0  0  0  0  0  0  0  0  0  0  0  0
   -4.3956    0.2467  -18.7370 C   0  0  0  0  0  0  0  0  0  0  0  0
   -5.3581   -0.7239  -18.4669 C   0  0  0  0  0  0  0  0  0  0  0  0
   -6.4067   -0.9643  -19.3517 C   0  0  0  0  0  0  0  0  0  0  0  0
   -6.4605   -0.2104  -20.5027 C   0  0  0  0  0  0  0  0  0  0  0  0
   -5.5066    0.7689  -20.7956 C   0  0  0  0  0  0  0  0  0  0  0  0
  -10.8983    4.8041  -24.4297 C   0  0  0  0  0  0  0  0  0  0  0  0
  -12.4309    5.1531  -27.9266 C   0  0  0  0  0  0  0  0  0  0  0  0
  -12.2802    4.9615  -26.4809 N   0  0  0  0  0  0  0  0  0  0  0  0
  -10.9972    5.0040  -25.8984 C   0  0  0  0  0  0  0  0  0  0  0  0
  -10.0170    5.2068  -26.6471 O   0  0  0  0  0  0  0  0  0  0  0  0
  -13.0726    4.8035  -25.9186 H   0  0  0  0  0  0  0  0  0  0  0  0
 31 32  1  0  0  0
 32 33  1  0  0  0
 32 35  1  0  0  0
 33 34  2  0  0  0
 33 30  1  0  0  0
 30  1  1  0  0  0
  1  2  1  0  0  0
  3  2  1  0  0  0
  3  4  1  0  0  0
  3 11  1  0  0  0
  4  5  2  0  0  0
  4  6  1  0  0  0
  6 20  1  0  0  0
  6  7  1  0  0  0
 20 21  2  0  0  0
 21 22  1  0  0  0
 22 23  2  0  0  0
 23 24  1  0  0  0
 24 25  2  0  0  0
 25 26  1  0  0  0
 26 27  2  0  0  0
 27 28  1  0  0  0
 28 29  2  0  0  0
 29 20  1  0  0  0
 29 24  1  0  0  0
  7  8  1  0  0  0
  8  9  1  0  0  0
  8  3  1  0  0  0
  9 10  1  0  0  0
 10  8  1  0  0  0
 11 12  2  0  0  0
 12 13  1  0  0  0
 13 14  1  0  0  0
 13 15  2  0  0  0
 15 16  1  0  0  0
 16 17  2  0  0  0
 17 18  1  0  0  0
 17 11  1  0  0  0
 18 19  2  0  0  0
 18  1  1  0  0  0
M  END
> <minimizedAffinity>
-7.85284

> <CNNscore>
0.3364577889

> <CNNaffinity>
5.9216947556

> <CNN_VS>
1.9924002886

> <CNNaffinity_variance>
0.0880503803

$$$$



 35 40  0  0  0  0  0  0  0  0999 V2000
  -11.0770    0.7517  -23.2186 N   0  0  0  0  0  0  0  0  0  0  0  0
   -9.7507    0.7720  -22.6534 C   0  0  0  0  0  0  0  0  0  0  0  0
   -8.8617   -0.3631  -23.0098 C   0  0  0  0  0  0  0  0  0  0  0  0
   -8.2650   -0.8608  -21.7320 C   0  0  0  0  0  0  0  0  0  0  0  0
   -8.8938   -1.5547  -20.8615 O   0  0  0  0  0  0  0  0  0  0  0  0
   -6.9108   -0.4632  -21.6105 N   0  0  0  0  0  0  0  0  0  0  0  0
   -6.4381   -0.3666  -23.0007 C   0  0  0  0  0  0  0  0  0  0  0  0
   -7.6512    0.0267  -23.7979 C   0  0  0  0  0  0  0  0  0  0  0  0
   -7.6516   -0.0316  -25.2627 C   0  0  0  0  0  0  0  0  0  0  0  0
   -7.5183    1.2781  -24.5622 C   0  0  0  0  0  0  0  0  0  0  0  0
   -9.5509   -1.5503  -23.5817 C   0  0  0  0  0  0  0  0  0  0  0  0
   -8.8084   -2.6891  -23.7646 C   0  0  0  0  0  0  0  0  0  0  0  0
   -9.4172   -3.8246  -24.2983 C   0  0  0  0  0  0  0  0  0  0  0  0
   -8.4832   -5.2895  -24.5391 Cl  0  0  0  0  0  0  0  0  0  0  0  0
  -10.7439   -3.8565  -24.6543 C   0  0  0  0  0  0  0  0  0  0  0  0
  -11.4856   -2.7077  -24.4679 C   0  0  0  0  0  0  0  0  0  0  0  0
  -10.8749   -1.5852  -23.9380 C   0  0  0  0  0  0  0  0  0  0  0  0
  -11.7037   -0.3994  -23.7621 C   0  0  0  0  0  0  0  0  0  0  0  0
  -12.9184   -0.4032  -24.0795 O   0  0  0  0  0  0  0  0  0  0  0  0
   -6.1733   -0.2136  -20.4188 C   0  0  0  0  0  0  0  0  0  0  0  0
   -6.5453   -0.7635  -19.1982 C   0  0  0  0  0  0  0  0  0  0  0  0
   -5.7757   -0.4605  -18.1371 N   0  0  0  0  0  0  0  0  0  0  0  0
   -4.6889    0.3306  -18.1992 C   0  0  0  0  0  0  0  0  0  0  0  0
   -4.2928    0.8924  -19.3975 C   0  0  0  0  0  0  0  0  0  0  0  0
   -3.1809    1.7111  -19.5018 C   0  0  0  0  0  0  0  0  0  0  0  0
   -2.8314    2.2487  -20.7388 C   0  0  0  0  0  0  0  0  0  0  0  0
   -3.5825    1.9777  -21.8801 C   0  0  0  0  0  0  0  0  0  0  0  0
   -4.6824    1.1603  -21.7451 C   0  0  0  0  0  0  0  0  0  0  0  0
   -5.0530    0.6092  -20.5148 C   0  0  0  0  0  0  0  0  0  0  0  0
  -11.8496    1.9850  -23.2388 C   0  0  0  0  0  0  0  0  0  0  0  0
  -10.2299    5.4348  -23.6565 C   0  0  0  0  0  0  0  0  0  0  0  0
  -10.9624    4.2946  -23.0970 N   0  0  0  0  0  0  0  0  0  0  0  0
  -11.0984    3.1111  -23.8507 C   0  0  0  0  0  0  0  0  0  0  0  0
  -10.5814    3.0747  -24.9881 O   0  0  0  0  0  0  0  0  0  0  0  0
  -11.3581    4.3554  -22.1976 H   0  0  0  0  0  0  0  0  0  0  0  0
 31 32  1  0  0  0
 32 33  1  0  0  0
 32 35  1  0  0  0
 33 34  2  0  0  0
 33 30  1  0  0  0
 30  1  1  0  0  0
  1  2  1  0  0  0
  3  2  1  0  0  0
  3  4  1  0  0  0
  3 11  1  0  0  0
  4  5  2  0  0  0
  4  6  1  0  0  0
  6 20  1  0  0  0
  6  7  1  0  0  0
 20 21  2  0  0  0
 21 22  1  0  0  0
 22 23  2  0  0  0
 23 24  1  0  0  0
 24 25  2  0  0  0
 25 26  1  0  0  0
 26 27  2  0  0  0
 27 28  1  0  0  0
 28 29  2  0  0  0
 29 20  1  0  0  0
 29 24  1  0  0  0
  7  8  1  0  0  0
  8  9  1  0  0  0
  8  3  1  0  0  0
  9 10  1  0  0  0
 10  8  1  0  0  0
 11 12  2  0  0  0
 12 13  1  0  0  0
 13 14  1  0  0  0
 13 15  2  0  0  0
 15 16  1  0  0  0
 16 17  2  0  0  0
 17 18  1  0  0  0
 17 11  1  0  0  0
 18 19  2  0  0  0
 18  1  1  0  0  0
M  END
> <minimizedAffinity>
-8.91463

> <CNNscore>
0.2402599603

> <CNNaffinity>
6.0652213097

> <CNN_VS>
1.4572298527

> <CNNaffinity_variance>
0.1064495072

$$$$



 35 40  0  0  0  0  0  0  0  0999 V2000
  -10.2605    3.2783  -23.8945 N   0  0  0  0  0  0  0  0  0  0  0  0
   -8.8975    2.8804  -23.6442 C   0  0  0  0  0  0  0  0  0  0  0  0
   -8.5994    1.4300  -23.7591 C   0  0  0  0  0  0  0  0  0  0  0  0
   -7.8328    1.0491  -22.5328 C   0  0  0  0  0  0  0  0  0  0  0  0
   -8.3487    0.9073  -21.3716 O   0  0  0  0  0  0  0  0  0  0  0  0
   -6.4588    0.8656  -22.8245 N   0  0  0  0  0  0  0  0  0  0  0  0
   -6.4450    0.4239  -24.2282 C   0  0  0  0  0  0  0  0  0  0  0  0
   -7.6424    1.0829  -24.8555 C   0  0  0  0  0  0  0  0  0  0  0  0
   -8.1241    0.6837  -26.1812 C   0  0  0  0  0  0  0  0  0  0  0  0
   -7.3473    1.9453  -26.0118 C   0  0  0  0  0  0  0  0  0  0  0  0
   -9.7886    0.5371  -23.7425 C   0  0  0  0  0  0  0  0  0  0  0  0
   -9.5672   -0.8146  -23.6678 C   0  0  0  0  0  0  0  0  0  0  0  0
  -10.6556   -1.6863  -23.6497 C   0  0  0  0  0  0  0  0  0  0  0  0
  -10.3913   -3.4176  -23.5545 Cl  0  0  0  0  0  0  0  0  0  0  0  0
  -11.9568   -1.2487  -23.7038 C   0  0  0  0  0  0  0  0  0  0  0  0
  -12.1731    0.1123  -23.7788 C   0  0  0  0  0  0  0  0  0  0  0  0
  -11.0886    0.9709  -23.7964 C   0  0  0  0  0  0  0  0  0  0  0  0
  -11.3732    2.3980  -23.8766 C   0  0  0  0  0  0  0  0  0  0  0  0
  -12.5534    2.8230  -23.9270 O   0  0  0  0  0  0  0  0  0  0  0  0
   -5.3446    1.0622  -21.9607 C   0  0  0  0  0  0  0  0  0  0  0  0
   -4.9422    0.0916  -21.0516 C   0  0  0  0  0  0  0  0  0  0  0  0
   -3.8761    0.3840  -20.2848 N   0  0  0  0  0  0  0  0  0  0  0  0
   -3.1968    1.5436  -20.3540 C   0  0  0  0  0  0  0  0  0  0  0  0
   -3.5717    2.5286  -21.2473 C   0  0  0  0  0  0  0  0  0  0  0  0
   -2.8982    3.7343  -21.3483 C   0  0  0  0  0  0  0  0  0  0  0  0
   -3.3241    4.6894  -22.2691 C   0  0  0  0  0  0  0  0  0  0  0  0
   -4.4206    4.4545  -23.0954 C   0  0  0  0  0  0  0  0  0  0  0  0
   -5.0699    3.2465  -22.9721 C   0  0  0  0  0  0  0  0  0  0  0  0
   -4.6613    2.2728  -22.0557 C   0  0  0  0  0  0  0  0  0  0  0  0
  -10.5411    4.6772  -24.1822 C   0  0  0  0  0  0  0  0  0  0  0  0
  -12.2355    5.2448  -27.5743 C   0  0  0  0  0  0  0  0  0  0  0  0
  -12.0192    4.9956  -26.1457 N   0  0  0  0  0  0  0  0  0  0  0  0
  -10.7063    4.9318  -25.6364 C   0  0  0  0  0  0  0  0  0  0  0  0
   -9.7571    5.0924  -26.4336 O   0  0  0  0  0  0  0  0  0  0  0  0
  -12.7887    4.8733  -25.5439 H   0  0  0  0  0  0  0  0  0  0  0  0
 31 32  1  0  0  0
 32 33  1  0  0  0
 32 35  1  0  0  0
 33 34  2  0  0  0
 33 30  1  0  0  0
 30  1  1  0  0  0
  1  2  1  0  0  0
  3  2  1  0  0  0
  3  4  1  0  0  0
  3 11  1  0  0  0
  4  5  2  0  0  0
  4  6  1  0  0  0
  6 20  1  0  0  0
  6  7  1  0  0  0
 20 21  2  0  0  0
 21 22  1  0  0  0
 22 23  2  0  0  0
 23 24  1  0  0  0
 24 25  2  0  0  0
 25 26  1  0  0  0
 26 27  2  0  0  0
 27 28  1  0  0  0
 28 29  2  0  0  0
 29 20  1  0  0  0
 29 24  1  0  0  0
  7  8  1  0  0  0
  8  9  1  0  0  0
  8  3  1  0  0  0
  9 10  1  0  0  0
 10  8  1  0  0  0
 11 12  2  0  0  0
 12 13  1  0  0  0
 13 14  1  0  0  0
 13 15  2  0  0  0
 15 16  1  0  0  0
 16 17  2  0  0  0
 17 18  1  0  0  0
 17 11  1  0  0  0
 18 19  2  0  0  0
 18  1  1  0  0  0
M  END
> <minimizedAffinity>
-7.16040

> <CNNscore>
0.2385930419

> <CNNaffinity>
5.6955652237

> <CNN_VS>
1.3589222431

> <CNNaffinity_variance>
0.1284236312

$$$$



 35 40  0  0  0  0  0  0  0  0999 V2000
   -5.2776   -0.5916  -21.6306 N   0  0  0  0  0  0  0  0  0  0  0  0
   -6.5665   -0.5193  -22.2729 C   0  0  0  0  0  0  0  0  0  0  0  0
   -6.6536    0.3291  -23.4888 C   0  0  0  0  0  0  0  0  0  0  0  0
   -7.8555    1.2027  -23.3196 C   0  0  0  0  0  0  0  0  0  0  0  0
   -7.9101    2.2158  -22.5417 O   0  0  0  0  0  0  0  0  0  0  0  0
   -8.9276    0.7617  -24.1337 N   0  0  0  0  0  0  0  0  0  0  0  0
   -8.2672    0.1280  -25.2860 C   0  0  0  0  0  0  0  0  0  0  0  0
   -6.9776   -0.4219  -24.7417 C   0  0  0  0  0  0  0  0  0  0  0  0
   -5.9161   -0.8982  -25.6335 C   0  0  0  0  0  0  0  0  0  0  0  0
   -6.7916   -1.8715  -24.9194 C   0  0  0  0  0  0  0  0  0  0  0  0
   -5.5281    1.2828  -23.6760 C   0  0  0  0  0  0  0  0  0  0  0  0
   -5.6414    2.2100  -24.6806 C   0  0  0  0  0  0  0  0  0  0  0  0
   -4.6078    3.1228  -24.8891 C   0  0  0  0  0  0  0  0  0  0  0  0
   -4.7357    4.3153  -26.1689 Cl  0  0  0  0  0  0  0  0  0  0  0  0
   -3.4660    3.1370  -24.1251 C   0  0  0  0  0  0  0  0  0  0  0  0
   -3.3579    2.2018  -23.1160 C   0  0  0  0  0  0  0  0  0  0  0  0
   -4.3871    1.2996  -22.9151 C   0  0  0  0  0  0  0  0  0  0  0  0
   -4.2218    0.3336  -21.8364 C   0  0  0  0  0  0  0  0  0  0  0  0
   -3.1880    0.3262  -21.1241 O   0  0  0  0  0  0  0  0  0  0  0  0
  -10.3243    0.8984  -23.8952 C   0  0  0  0  0  0  0  0  0  0  0  0
  -10.9820    2.1100  -24.0687 C   0  0  0  0  0  0  0  0  0  0  0  0
  -12.3030    2.1245  -23.8144 N   0  0  0  0  0  0  0  0  0  0  0  0
  -13.0017    1.0480  -23.4097 C   0  0  0  0  0  0  0  0  0  0  0  0
  -12.3771   -0.1709  -23.2280 C   0  0  0  0  0  0  0  0  0  0  0  0
  -13.0613   -1.3009  -22.8129 C   0  0  0  0  0  0  0  0  0  0  0  0
  -12.3759   -2.5026  -22.6472 C   0  0  0  0  0  0  0  0  0  0  0  0
  -11.0076   -2.5910  -22.8922 C   0  0  0  0  0  0  0  0  0  0  0  0
  -10.3545   -1.4508  -23.3039 C   0  0  0  0  0  0  0  0  0  0  0  0
  -11.0205   -0.2338  -23.4771 C   0  0  0  0  0  0  0  0  0  0  0  0
   -5.0196   -1.6775  -20.6964 C   0  0  0  0  0  0  0  0  0  0  0  0
   -5.5715    0.3749  -17.5055 C   0  0  0  0  0  0  0  0  0  0  0  0
   -5.1937   -0.0141  -18.8677 N   0  0  0  0  0  0  0  0  0  0  0  0
   -5.4201   -1.3340  -19.3078 C   0  0  0  0  0  0  0  0  0  0  0  0
   -5.9435   -2.1397  -18.5082 O   0  0  0  0  0  0  0  0  0  0  0  0
   -4.7831    0.6446  -19.4732 H   0  0  0  0  0  0  0  0  0  0  0  0
 31 32  1  0  0  0
 32 33  1  0  0  0
 32 35  1  0  0  0
 33 34  2  0  0  0
 33 30  1  0  0  0
 30  1  1  0  0  0
  1  2  1  0  0  0
  3  2  1  0  0  0
  3  4  1  0  0  0
  3 11  1  0  0  0
  4  5  2  0  0  0
  4  6  1  0  0  0
  6 20  1  0  0  0
  6  7  1  0  0  0
 20 21  2  0  0  0
 21 22  1  0  0  0
 22 23  2  0  0  0
 23 24  1  0  0  0
 24 25  2  0  0  0
 25 26  1  0  0  0
 26 27  2  0  0  0
 27 28  1  0  0  0
 28 29  2  0  0  0
 29 20  1  0  0  0
 29 24  1  0  0  0
  7  8  1  0  0  0
  8  9  1  0  0  0
  8  3  1  0  0  0
  9 10  1  0  0  0
 10  8  1  0  0  0
 11 12  2  0  0  0
 12 13  1  0  0  0
 13 14  1  0  0  0
 13 15  2  0  0  0
 15 16  1  0  0  0
 16 17  2  0  0  0
 17 18  1  0  0  0
 17 11  1  0  0  0
 18 19  2  0  0  0
 18  1  1  0  0  0
M  END
> <minimizedAffinity>
-7.55846

> <CNNscore>
0.2156027704

> <CNNaffinity>
6.0934305191

> <CNN_VS>
1.3137605190

> <CNNaffinity_variance>
0.0197235700

$$$$



 35 40  0  0  0  0  0  0  0  0999 V2000
   -7.2164   -2.9994  -22.4266 N   0  0  0  0  0  0  0  0  0  0  0  0
   -8.1635   -2.0932  -23.0273 C   0  0  0  0  0  0  0  0  0  0  0  0
   -7.6958   -0.7022  -23.2555 C   0  0  0  0  0  0  0  0  0  0  0  0
   -8.7579    0.2032  -22.7181 C   0  0  0  0  0  0  0  0  0  0  0  0
   -8.9649    0.4181  -21.4750 O   0  0  0  0  0  0  0  0  0  0  0  0
   -9.5064    0.7927  -23.7664 N   0  0  0  0  0  0  0  0  0  0  0  0
   -8.5567    0.8688  -24.8879 C   0  0  0  0  0  0  0  0  0  0  0  0
   -7.6328   -0.3022  -24.6958 C   0  0  0  0  0  0  0  0  0  0  0  0
   -6.3881   -0.4236  -25.4605 C   0  0  0  0  0  0  0  0  0  0  0  0
   -7.5774   -1.2464  -25.8241 C   0  0  0  0  0  0  0  0  0  0  0  0
   -6.4698   -0.3168  -22.5073 C   0  0  0  0  0  0  0  0  0  0  0  0
   -6.0933    1.0018  -22.5406 C   0  0  0  0  0  0  0  0  0  0  0  0
   -4.9495    1.4045  -21.8518 C   0  0  0  0  0  0  0  0  0  0  0  0
   -4.4532    3.0864  -21.8833 Cl  0  0  0  0  0  0  0  0  0  0  0  0
   -4.1716    0.5304  -21.1317 C   0  0  0  0  0  0  0  0  0  0  0  0
   -4.5555   -0.7949  -21.1020 C   0  0  0  0  0  0  0  0  0  0  0  0
   -5.6912   -1.1869  -21.7876 C   0  0  0  0  0  0  0  0  0  0  0  0
   -6.0515   -2.5976  -21.7232 C   0  0  0  0  0  0  0  0  0  0  0  0
   -5.3572   -3.4161  -21.0720 O   0  0  0  0  0  0  0  0  0  0  0  0
  -10.8654    1.2157  -23.7437 C   0  0  0  0  0  0  0  0  0  0  0  0
  -11.9134    0.3089  -23.6441 C   0  0  0  0  0  0  0  0  0  0  0  0
  -13.1580    0.8197  -23.6316 N   0  0  0  0  0  0  0  0  0  0  0  0
  -13.4305    2.1353  -23.7091 C   0  0  0  0  0  0  0  0  0  0  0  0
  -12.4110    3.0622  -23.8089 C   0  0  0  0  0  0  0  0  0  0  0  0
  -12.6510    4.4235  -23.8906 C   0  0  0  0  0  0  0  0  0  0  0  0
  -11.5805    5.3099  -23.9897 C   0  0  0  0  0  0  0  0  0  0  0  0
  -10.2652    4.8515  -24.0084 C   0  0  0  0  0  0  0  0  0  0  0  0
  -10.0581    3.4927  -23.9256 C   0  0  0  0  0  0  0  0  0  0  0  0
  -11.1159    2.5839  -23.8255 C   0  0  0  0  0  0  0  0  0  0  0  0
   -7.4535   -4.4316  -22.5302 C   0  0  0  0  0  0  0  0  0  0  0  0
   -4.8455   -6.0824  -24.8045 C   0  0  0  0  0  0  0  0  0  0  0  0
   -5.5059   -5.4927  -23.6359 N   0  0  0  0  0  0  0  0  0  0  0  0
   -6.8297   -5.0203  -23.7431 C   0  0  0  0  0  0  0  0  0  0  0  0
   -7.4035   -5.1223  -24.8489 O   0  0  0  0  0  0  0  0  0  0  0  0
   -5.0261   -5.4267  -22.7787 H   0  0  0  0  0  0  0  0  0  0  0  0
 31 32  1  0  0  0
 32 33  1  0  0  0
 32 35  1  0  0  0
 33 34  2  0  0  0
 33 30  1  0  0  0
 30  1  1  0  0  0
  1  2  1  0  0  0
  3  2  1  0  0  0
  3  4  1  0  0  0
  3 11  1  0  0  0
  4  5  2  0  0  0
  4  6  1  0  0  0
  6 20  1  0  0  0
  6  7  1  0  0  0
 20 21  2  0  0  0
 21 22  1  0  0  0
 22 23  2  0  0  0
 23 24  1  0  0  0
 24 25  2  0  0  0
 25 26  1  0  0  0
 26 27  2  0  0  0
 27 28  1  0  0  0
 28 29  2  0  0  0
 29 20  1  0  0  0
 29 24  1  0  0  0
  7  8  1  0  0  0
  8  9  1  0  0  0
  8  3  1  0  0  0
  9 10  1  0  0  0
 10  8  1  0  0  0
 11 12  2  0  0  0
 12 13  1  0  0  0
 13 14  1  0  0  0
 13 15  2  0  0  0
 15 16  1  0  0  0
 16 17  2  0  0  0
 17 18  1  0  0  0
 17 11  1  0  0  0
 18 19  2  0  0  0
 18  1  1  0  0  0
M  END
> <minimizedAffinity>
-8.17025

> <CNNscore>
0.2112466097

> <CNNaffinity>
6.0199499130

> <CNN_VS>
1.2716940641

> <CNNaffinity_variance>
0.1676859856

$$$$



 35 40  0  0  0  0  0  0  0  0999 V2000
   -6.7811   -3.1162  -23.9672 N   0  0  0  0  0  0  0  0  0  0  0  0
   -6.9512   -1.7361  -24.3485 C   0  0  0  0  0  0  0  0  0  0  0  0
   -6.3445   -0.7213  -23.4497 C   0  0  0  0  0  0  0  0  0  0  0  0
   -7.3965    0.3098  -23.1917 C   0  0  0  0  0  0  0  0  0  0  0  0
   -8.3993    0.1425  -22.4165 O   0  0  0  0  0  0  0  0  0  0  0  0
   -7.1380    1.4978  -23.9186 N   0  0  0  0  0  0  0  0  0  0  0  0
   -5.6723    1.5294  -24.0469 C   0  0  0  0  0  0  0  0  0  0  0  0
   -5.2532    0.0855  -24.0797 C   0  0  0  0  0  0  0  0  0  0  0  0
   -3.8470   -0.3029  -23.9366 C   0  0  0  0  0  0  0  0  0  0  0  0
   -4.4990   -0.3195  -25.2776 C   0  0  0  0  0  0  0  0  0  0  0  0
   -5.9735   -1.2159  -22.0972 C   0  0  0  0  0  0  0  0  0  0  0  0
   -5.5744   -0.2882  -21.1689 C   0  0  0  0  0  0  0  0  0  0  0  0
   -5.2183   -0.7109  -19.8885 C   0  0  0  0  0  0  0  0  0  0  0  0
   -4.7055    0.4613  -18.6888 Cl  0  0  0  0  0  0  0  0  0  0  0  0
   -5.2489   -2.0308  -19.5083 C   0  0  0  0  0  0  0  0  0  0  0  0
   -5.6513   -2.9593  -20.4466 C   0  0  0  0  0  0  0  0  0  0  0  0
   -6.0031   -2.5327  -21.7147 C   0  0  0  0  0  0  0  0  0  0  0  0
   -6.4204   -3.5542  -22.6667 C   0  0  0  0  0  0  0  0  0  0  0  0
   -6.4570   -4.7668  -22.3436 O   0  0  0  0  0  0  0  0  0  0  0  0
   -8.0776    2.4460  -24.4131 C   0  0  0  0  0  0  0  0  0  0  0  0
   -8.9886    2.1225  -25.4112 C   0  0  0  0  0  0  0  0  0  0  0  0
   -9.8304    3.0964  -25.8023 N   0  0  0  0  0  0  0  0  0  0  0  0
   -9.8328    4.3390  -25.2859 C   0  0  0  0  0  0  0  0  0  0  0  0
   -8.9399    4.6919  -24.2925 C   0  0  0  0  0  0  0  0  0  0  0  0
   -8.9115    5.9597  -23.7362 C   0  0  0  0  0  0  0  0  0  0  0  0
   -7.9870    6.2558  -22.7367 C   0  0  0  0  0  0  0  0  0  0  0  0
   -7.0850    5.2964  -22.2827 C   0  0  0  0  0  0  0  0  0  0  0  0
   -7.1374    4.0449  -22.8547 C   0  0  0  0  0  0  0  0  0  0  0  0
   -8.0558    3.7241  -23.8588 C   0  0  0  0  0  0  0  0  0  0  0  0
   -6.9950   -4.1516  -24.9674 C   0  0  0  0  0  0  0  0  0  0  0  0
   -3.5490   -5.5514  -25.8970 C   0  0  0  0  0  0  0  0  0  0  0  0
   -4.7778   -5.2418  -25.1597 N   0  0  0  0  0  0  0  0  0  0  0  0
   -5.7687   -4.4358  -25.7561 C   0  0  0  0  0  0  0  0  0  0  0  0
   -5.5615   -4.0062  -26.9115 O   0  0  0  0  0  0  0  0  0  0  0  0
   -4.9106   -5.5957  -24.2507 H   0  0  0  0  0  0  0  0  0  0  0  0
 31 32  1  0  0  0
 32 33  1  0  0  0
 32 35  1  0  0  0
 33 34  2  0  0  0
 33 30  1  0  0  0
 30  1  1  0  0  0
  1  2  1  0  0  0
  3  2  1  0  0  0
  3  4  1  0  0  0
  3 11  1  0  0  0
  4  5  2  0  0  0
  4  6  1  0  0  0
  6 20  1  0  0  0
  6  7  1  0  0  0
 20 21  2  0  0  0
 21 22  1  0  0  0
 22 23  2  0  0  0
 23 24  1  0  0  0
 24 25  2  0  0  0
 25 26  1  0  0  0
 26 27  2  0  0  0
 27 28  1  0  0  0
 28 29  2  0  0  0
 29 20  1  0  0  0
 29 24  1  0  0  0
  7  8  1  0  0  0
  8  9  1  0  0  0
  8  3  1  0  0  0
  9 10  1  0  0  0
 10  8  1  0  0  0
 11 12  2  0  0  0
 12 13  1  0  0  0
 13 14  1  0  0  0
 13 15  2  0  0  0
 15 16  1  0  0  0
 16 17  2  0  0  0
 17 18  1  0  0  0
 17 11  1  0  0  0
 18 19  2  0  0  0
 18  1  1  0  0  0
M  END
> <minimizedAffinity>
-6.83203

> <CNNscore>
0.1867110580

> <CNNaffinity>
5.7552804947

> <CNN_VS>
1.0745744705

> <CNNaffinity_variance>
0.1143156439

$$$$



 35 40  0  0  0  0  0  0  0  0999 V2000
   -8.0348   -2.0211  -23.3990 N   0  0  0  0  0  0  0  0  0  0  0  0
   -8.5485   -0.7490  -23.8428 C   0  0  0  0  0  0  0  0  0  0  0  0
   -7.6025    0.3954  -23.8087 C   0  0  0  0  0  0  0  0  0  0  0  0
   -8.3158    1.5242  -23.1354 C   0  0  0  0  0  0  0  0  0  0  0  0
   -8.5333    1.5953  -21.8775 O   0  0  0  0  0  0  0  0  0  0  0  0
   -8.7201    2.5061  -24.0730 N   0  0  0  0  0  0  0  0  0  0  0  0
   -7.7173    2.4134  -25.1460 C   0  0  0  0  0  0  0  0  0  0  0  0
   -7.2858    0.9728  -25.1522 C   0  0  0  0  0  0  0  0  0  0  0  0
   -6.1067    0.5342  -25.9047 C   0  0  0  0  0  0  0  0  0  0  0  0
   -7.4765    0.2685  -26.4310 C   0  0  0  0  0  0  0  0  0  0  0  0
   -6.3842    0.1840  -22.9824 C   0  0  0  0  0  0  0  0  0  0  0  0
   -5.5646    1.2635  -22.7712 C   0  0  0  0  0  0  0  0  0  0  0  0
   -4.4121    1.1074  -22.0017 C   0  0  0  0  0  0  0  0  0  0  0  0
   -3.3526    2.4767  -21.7212 Cl  0  0  0  0  0  0  0  0  0  0  0  0
   -4.0544   -0.0932  -21.4375 C   0  0  0  0  0  0  0  0  0  0  0  0
   -4.8830   -1.1755  -21.6536 C   0  0  0  0  0  0  0  0  0  0  0  0
   -6.0245   -1.0131  -22.4180 C   0  0  0  0  0  0  0  0  0  0  0  0
   -6.8641   -2.1880  -22.6149 C   0  0  0  0  0  0  0  0  0  0  0  0
   -6.5590   -3.2962  -22.1099 O   0  0  0  0  0  0  0  0  0  0  0  0
   -9.8390    3.3830  -23.9977 C   0  0  0  0  0  0  0  0  0  0  0  0
   -9.6960    4.7623  -24.0855 C   0  0  0  0  0  0  0  0  0  0  0  0
  -10.8213    5.4949  -24.0020 N   0  0  0  0  0  0  0  0  0  0  0  0
  -12.0495    4.9690  -23.8413 C   0  0  0  0  0  0  0  0  0  0  0  0
  -12.2251    3.6017  -23.7507 C   0  0  0  0  0  0  0  0  0  0  0  0
  -13.4722    3.0229  -23.5853 C   0  0  0  0  0  0  0  0  0  0  0  0
  -13.5856    1.6368  -23.5004 C   0  0  0  0  0  0  0  0  0  0  0  0
  -12.4629    0.8161  -23.5790 C   0  0  0  0  0  0  0  0  0  0  0  0
  -11.2366    1.4205  -23.7435 C   0  0  0  0  0  0  0  0  0  0  0  0
  -11.0976    2.8089  -23.8313 C   0  0  0  0  0  0  0  0  0  0  0  0
   -8.7535   -3.2332  -23.7630 C   0  0  0  0  0  0  0  0  0  0  0  0
  -12.3539   -2.7169  -22.5506 C   0  0  0  0  0  0  0  0  0  0  0  0
  -10.9021   -2.9207  -22.5682 N   0  0  0  0  0  0  0  0  0  0  0  0
  -10.2242   -3.0273  -23.7996 C   0  0  0  0  0  0  0  0  0  0  0  0
  -10.8957   -2.9431  -24.8505 O   0  0  0  0  0  0  0  0  0  0  0  0
  -10.4021   -2.9829  -21.7224 H   0  0  0  0  0  0  0  0  0  0  0  0
 31 32  1  0  0  0
 32 33  1  0  0  0
 32 35  1  0  0  0
 33 34  2  0  0  0
 33 30  1  0  0  0
 30  1  1  0  0  0
  1  2  1  0  0  0
  3  2  1  0  0  0
  3  4  1  0  0  0
  3 11  1  0  0  0
  4  5  2  0  0  0
  4  6  1  0  0  0
  6 20  1  0  0  0
  6  7  1  0  0  0
 20 21  2  0  0  0
 21 22  1  0  0  0
 22 23  2  0  0  0
 23 24  1  0  0  0
 24 25  2  0  0  0
 25 26  1  0  0  0
 26 27  2  0  0  0
 27 28  1  0  0  0
 28 29  2  0  0  0
 29 20  1  0  0  0
 29 24  1  0  0  0
  7  8  1  0  0  0
  8  9  1  0  0  0
  8  3  1  0  0  0
  9 10  1  0  0  0
 10  8  1  0  0  0
 11 12  2  0  0  0
 12 13  1  0  0  0
 13 14  1  0  0  0
 13 15  2  0  0  0
 15 16  1  0  0  0
 16 17  2  0  0  0
 17 18  1  0  0  0
 17 11  1  0  0  0
 18 19  2  0  0  0
 18  1  1  0  0  0
M  END
> <minimizedAffinity>
-7.78540

> <CNNscore>
0.1624463350

> <CNNaffinity>
5.8099441528

> <CNN_VS>
0.9438041449

> <CNNaffinity_variance>
0.1131332740

$$$$



 21 23  0  0  0  0  0  0  0  0999 V2000
   -6.6768   -2.1414  -21.4364 C   0  0  0  0  0  0  0  0  0  0  0  0
   -5.9800   -5.9910  -26.3394 C   0  0  0  0  0  0  0  0  0  0  0  0
   -6.1045   -5.2705  -25.0149 C   0  0  0  0  0  0  0  0  0  0  0  0
   -7.5294   -4.9960  -24.6124 C   0  0  0  0  0  0  0  0  0  0  0  0
   -7.4797   -4.0376  -23.4451 C   0  0  0  0  0  0  0  0  0  0  0  0
   -6.4514   -4.4179  -22.4969 N   0  0  0  0  0  0  0  0  0  0  0  0
   -6.0448   -3.4865  -21.4946 C   0  0  0  0  0  0  0  0  0  0  0  0
   -5.1446   -3.8278  -20.6662 O   0  0  0  0  0  0  0  0  0  0  0  0
   -5.8368   -5.7314  -22.5632 C   0  0  0  0  0  0  0  0  0  0  0  0
   -6.6769   -6.7919  -21.8821 C   0  0  0  0  0  0  0  0  0  0  0  0
   -5.4706   -6.1371  -23.9588 C   0  0  0  0  0  0  0  0  0  0  0  0
   -6.1118   -1.2978  -20.3830 C   0  0  0  0  0  0  0  0  0  0  0  0
   -6.6737   -1.3994  -19.1083 C   0  0  0  0  0  0  0  0  0  0  0  0
   -6.2179   -0.6612  -18.0791 N   0  0  0  0  0  0  0  0  0  0  0  0
   -5.1979    0.2074  -18.2408 C   0  0  0  0  0  0  0  0  0  0  0  0
   -4.6216    0.3247  -19.5074 C   0  0  0  0  0  0  0  0  0  0  0  0
   -3.5819    1.2185  -19.6458 C   0  0  0  0  0  0  0  0  0  0  0  0
   -3.0104    1.3350  -20.9015 C   0  0  0  0  0  0  0  0  0  0  0  0
   -3.4608    0.5887  -21.9702 C   0  0  0  0  0  0  0  0  0  0  0  0
   -4.5032   -0.3077  -21.8323 C   0  0  0  0  0  0  0  0  0  0  0  0
   -5.0746   -0.4256  -20.5824 C   0  0  0  0  0  0  0  0  0  0  0  0
  3  2  1  0  0  0
  3  4  1  0  0  0
  4  5  1  0  0  0
  5  6  1  0  0  0
  6  7  1  0  0  0
  6  9  1  0  0  0
  7  8  2  0  0  0
  7  1  1  0  0  0
  1 12  1  0  0  0
 12 13  2  0  0  0
 13 14  1  0  0  0
 14 15  2  0  0  0
 15 16  1  0  0  0
 16 17  2  0  0  0
 17 18  1  0  0  0
 18 19  2  0  0  0
 19 20  1  0  0  0
 20 21  2  0  0  0
 21 12  1  0  0  0
 21 16  1  0  0  0
  9 10  1  0  0  0
  9 11  1  0  0  0
 11  3  1  0  0  0
M  END
> <minimizedAffinity>
-7.25987

> <CNNscore>
0.7866753340

> <CNNaffinity>
5.2042417526

> <CNN_VS>
4.0940485001

> <CNNaffinity_variance>
0.2109812945

$$$$



 21 23  0  0  0  0  0  0  0  0999 V2000
   -7.0003   -1.1390  -21.4845 C   0  0  0  0  0  0  0  0  0  0  0  0
  -12.9064   -2.8320  -22.7483 C   0  0  0  0  0  0  0  0  0  0  0  0
  -11.5415   -2.2060  -22.5634 C   0  0  0  0  0  0  0  0  0  0  0  0
  -10.5045   -2.7335  -23.5195 C   0  0  0  0  0  0  0  0  0  0  0  0
   -9.1629   -2.2405  -23.0290 C   0  0  0  0  0  0  0  0  0  0  0  0
   -9.2299   -0.8496  -22.6263 N   0  0  0  0  0  0  0  0  0  0  0  0
   -8.1626   -0.2907  -21.8605 C   0  0  0  0  0  0  0  0  0  0  0  0
   -8.2276    0.9292  -21.5133 O   0  0  0  0  0  0  0  0  0  0  0  0
  -10.3698   -0.0296  -22.9941 C   0  0  0  0  0  0  0  0  0  0  0  0
  -10.2519    0.5167  -24.4019 C   0  0  0  0  0  0  0  0  0  0  0  0
  -11.6820   -0.7230  -22.7851 C   0  0  0  0  0  0  0  0  0  0  0  0
   -6.2321   -0.5818  -20.3710 C   0  0  0  0  0  0  0  0  0  0  0  0
   -6.7181   -0.8045  -19.0806 C   0  0  0  0  0  0  0  0  0  0  0  0
   -6.0768   -0.3287  -17.9969 N   0  0  0  0  0  0  0  0  0  0  0  0
   -4.9368    0.3834  -18.1170 C   0  0  0  0  0  0  0  0  0  0  0  0
   -4.4335    0.6177  -19.3984 C   0  0  0  0  0  0  0  0  0  0  0  0
   -3.2683    1.3473  -19.4935 C   0  0  0  0  0  0  0  0  0  0  0  0
   -2.7692    1.5797  -20.7639 C   0  0  0  0  0  0  0  0  0  0  0  0
   -3.4092    1.1019  -21.8882 C   0  0  0  0  0  0  0  0  0  0  0  0
   -4.5774    0.3702  -21.7936 C   0  0  0  0  0  0  0  0  0  0  0  0
   -5.0771    0.1373  -20.5293 C   0  0  0  0  0  0  0  0  0  0  0  0
  3  2  1  0  0  0
  3  4  1  0  0  0
  4  5  1  0  0  0
  5  6  1  0  0  0
  6  7  1  0  0  0
  6  9  1  0  0  0
  7  8  2  0  0  0
  7  1  1  0  0  0
  1 12  1  0  0  0
 12 13  2  0  0  0
 13 14  1  0  0  0
 14 15  2  0  0  0
 15 16  1  0  0  0
 16 17  2  0  0  0
 17 18  1  0  0  0
 18 19  2  0  0  0
 19 20  1  0  0  0
 20 21  2  0  0  0
 21 12  1  0  0  0
 21 16  1  0  0  0
  9 10  1  0  0  0
  9 11  1  0  0  0
 11  3  1  0  0  0
M  END
> <minimizedAffinity>
-6.57997

> <CNNscore>
0.7090815306

> <CNNaffinity>
5.3205785751

> <CNN_VS>
3.7727239132

> <CNNaffinity_variance>
0.1365810633

$$$$



 21 23  0  0  0  0  0  0  0  0999 V2000
   -8.7394   -1.0585  -23.5079 C   0  0  0  0  0  0  0  0  0  0  0  0
   -9.0955   -6.9443  -25.6469 C   0  0  0  0  0  0  0  0  0  0  0  0
   -8.8437   -5.4883  -25.3219 C   0  0  0  0  0  0  0  0  0  0  0  0
   -7.9162   -5.2856  -24.1531 C   0  0  0  0  0  0  0  0  0  0  0  0
   -7.9947   -3.8240  -23.7777 C   0  0  0  0  0  0  0  0  0  0  0  0
   -7.9773   -2.9779  -24.9546 N   0  0  0  0  0  0  0  0  0  0  0  0
   -8.3436   -1.6035  -24.8338 C   0  0  0  0  0  0  0  0  0  0  0  0
   -8.3239   -0.8683  -25.8692 O   0  0  0  0  0  0  0  0  0  0  0  0
   -7.5935   -3.5189  -26.2459 C   0  0  0  0  0  0  0  0  0  0  0  0
   -6.0899   -3.5734  -26.4200 C   0  0  0  0  0  0  0  0  0  0  0  0
   -8.2258   -4.8464  -26.5361 C   0  0  0  0  0  0  0  0  0  0  0  0
  -10.0051   -0.3260  -23.5541 C   0  0  0  0  0  0  0  0  0  0  0  0
   -9.9558    1.0178  -23.9317 C   0  0  0  0  0  0  0  0  0  0  0  0
  -11.0707    1.7690  -24.0011 N   0  0  0  0  0  0  0  0  0  0  0  0
  -12.2814    1.2502  -23.7076 C   0  0  0  0  0  0  0  0  0  0  0  0
  -12.3531   -0.0917  -23.3277 C   0  0  0  0  0  0  0  0  0  0  0  0
  -13.6010   -0.5969  -23.0333 C   0  0  0  0  0  0  0  0  0  0  0  0
  -13.6723   -1.9273  -22.6565 C   0  0  0  0  0  0  0  0  0  0  0  0
  -12.5435   -2.7157  -22.5787 C   0  0  0  0  0  0  0  0  0  0  0  0
  -11.2920   -2.2099  -22.8737 C   0  0  0  0  0  0  0  0  0  0  0  0
  -11.2179   -0.8847  -23.2492 C   0  0  0  0  0  0  0  0  0  0  0  0
  3  2  1  0  0  0
  3  4  1  0  0  0
  4  5  1  0  0  0
  5  6  1  0  0  0
  6  7  1  0  0  0
  6  9  1  0  0  0
  7  8  2  0  0  0
  7  1  1  0  0  0
  1 12  1  0  0  0
 12 13  2  0  0  0
 13 14  1  0  0  0
 14 15  2  0  0  0
 15 16  1  0  0  0
 16 17  2  0  0  0
 17 18  1  0  0  0
 18 19  2  0  0  0
 19 20  1  0  0  0
 20 21  2  0  0  0
 21 12  1  0  0  0
 21 16  1  0  0  0
  9 10  1  0  0  0
  9 11  1  0  0  0
 11  3  1  0  0  0
M  END
> <minimizedAffinity>
-5.52117

> <CNNscore>
0.6061896682

> <CNNaffinity>
5.0705137253

> <CNN_VS>
3.0736930370

> <CNNaffinity_variance>
0.1394325048

$$$$



 21 23  0  0  0  0  0  0  0  0999 V2000
   -5.8336   -2.7844  -21.2371 C   0  0  0  0  0  0  0  0  0  0  0  0
   -8.8322   -6.3451  -25.4413 C   0  0  0  0  0  0  0  0  0  0  0  0
   -8.2546   -5.2962  -24.5166 C   0  0  0  0  0  0  0  0  0  0  0  0
   -6.9038   -4.7914  -24.9506 C   0  0  0  0  0  0  0  0  0  0  0  0
   -6.3441   -3.9879  -23.7997 C   0  0  0  0  0  0  0  0  0  0  0  0
   -7.3568   -3.1302  -23.2166 N   0  0  0  0  0  0  0  0  0  0  0  0
   -7.1153   -2.5261  -21.9460 C   0  0  0  0  0  0  0  0  0  0  0  0
   -8.0066   -1.7743  -21.4427 O   0  0  0  0  0  0  0  0  0  0  0  0
   -8.6068   -2.8864  -23.9134 C   0  0  0  0  0  0  0  0  0  0  0  0
   -8.4755   -1.8021  -24.9629 C   0  0  0  0  0  0  0  0  0  0  0  0
   -9.2101   -4.1325  -24.4874 C   0  0  0  0  0  0  0  0  0  0  0  0
   -5.5102   -1.7451  -20.2595 C   0  0  0  0  0  0  0  0  0  0  0  0
   -5.9335   -1.9470  -18.9439 C   0  0  0  0  0  0  0  0  0  0  0  0
   -5.6807   -1.0437  -17.9784 N   0  0  0  0  0  0  0  0  0  0  0  0
   -5.0069    0.0944  -18.2464 C   0  0  0  0  0  0  0  0  0  0  0  0
   -4.5746    0.3162  -19.5557 C   0  0  0  0  0  0  0  0  0  0  0  0
   -3.8889    1.4858  -19.8028 C   0  0  0  0  0  0  0  0  0  0  0  0
   -3.4604    1.7058  -21.1008 C   0  0  0  0  0  0  0  0  0  0  0  0
   -3.7078    0.7943  -22.1057 C   0  0  0  0  0  0  0  0  0  0  0  0
   -4.3952   -0.3785  -21.8587 C   0  0  0  0  0  0  0  0  0  0  0  0
   -4.8236   -0.6004  -20.5665 C   0  0  0  0  0  0  0  0  0  0  0  0
  3  2  1  0  0  0
  3  4  1  0  0  0
  4  5  1  0  0  0
  5  6  1  0  0  0
  6  7  1  0  0  0
  6  9  1  0  0  0
  7  8  2  0  0  0
  7  1  1  0  0  0
  1 12  1  0  0  0
 12 13  2  0  0  0
 13 14  1  0  0  0
 14 15  2  0  0  0
 15 16  1  0  0  0
 16 17  2  0  0  0
 17 18  1  0  0  0
 18 19  2  0  0  0
 19 20  1  0  0  0
 20 21  2  0  0  0
 21 12  1  0  0  0
 21 16  1  0  0  0
  9 10  1  0  0  0
  9 11  1  0  0  0
 11  3  1  0  0  0
M  END
> <minimizedAffinity>
-6.90508

> <CNNscore>
0.6006805897

> <CNNaffinity>
5.0404357910

> <CNN_VS>
3.0276918411

> <CNNaffinity_variance>
0.1904495209

$$$$



 21 23  0  0  0  0  0  0  0  0999 V2000
   -6.8786   -1.0024  -21.6892 C   0  0  0  0  0  0  0  0  0  0  0  0
   -7.8077    0.7991  -27.6252 C   0  0  0  0  0  0  0  0  0  0  0  0
   -7.7113    0.5772  -26.1317 C   0  0  0  0  0  0  0  0  0  0  0  0
   -6.3640    0.9286  -25.5582 C   0  0  0  0  0  0  0  0  0  0  0  0
   -6.3326    0.3893  -24.1469 C   0  0  0  0  0  0  0  0  0  0  0  0
   -7.5784    0.6557  -23.4553 N   0  0  0  0  0  0  0  0  0  0  0  0
   -7.8607   -0.0275  -22.2341 C   0  0  0  0  0  0  0  0  0  0  0  0
   -8.9534    0.2128  -21.6330 O   0  0  0  0  0  0  0  0  0  0  0  0
   -8.5334    1.6059  -23.9961 C   0  0  0  0  0  0  0  0  0  0  0  0
   -8.1804    3.0361  -23.6438 C   0  0  0  0  0  0  0  0  0  0  0  0
   -8.7504    1.4436  -25.4701 C   0  0  0  0  0  0  0  0  0  0  0  0
   -6.2093   -0.5145  -20.4831 C   0  0  0  0  0  0  0  0  0  0  0  0
   -6.8165   -0.7901  -19.2558 C   0  0  0  0  0  0  0  0  0  0  0  0
   -6.2720   -0.3797  -18.0952 N   0  0  0  0  0  0  0  0  0  0  0  0
   -5.1155    0.3156  -18.0739 C   0  0  0  0  0  0  0  0  0  0  0  0
   -4.4918    0.6020  -19.2901 C   0  0  0  0  0  0  0  0  0  0  0  0
   -3.3124    1.3131  -19.2407 C   0  0  0  0  0  0  0  0  0  0  0  0
   -2.6940    1.5972  -20.4465 C   0  0  0  0  0  0  0  0  0  0  0  0
   -3.2334    1.1866  -21.6474 C   0  0  0  0  0  0  0  0  0  0  0  0
   -4.4158    0.4736  -21.6977 C   0  0  0  0  0  0  0  0  0  0  0  0
   -5.0344    0.1893  -20.4981 C   0  0  0  0  0  0  0  0  0  0  0  0
  3  2  1  0  0  0
  3  4  1  0  0  0
  4  5  1  0  0  0
  5  6  1  0  0  0
  6  7  1  0  0  0
  6  9  1  0  0  0
  7  8  2  0  0  0
  7  1  1  0  0  0
  1 12  1  0  0  0
 12 13  2  0  0  0
 13 14  1  0  0  0
 14 15  2  0  0  0
 15 16  1  0  0  0
 16 17  2  0  0  0
 17 18  1  0  0  0
 18 19  2  0  0  0
 19 20  1  0  0  0
 20 21  2  0  0  0
 21 12  1  0  0  0
 21 16  1  0  0  0
  9 10  1  0  0  0
  9 11  1  0  0  0
 11  3  1  0  0  0
M  END
> <minimizedAffinity>
-6.02854

> <CNNscore>
0.5637207627

> <CNNaffinity>
4.8689475060

> <CNN_VS>
2.7447268963

> <CNNaffinity_variance>
0.0392556414

$$$$



 21 23  0  0  0  0  0  0  0  0999 V2000
   -5.6401   -1.4095  -20.9857 C   0  0  0  0  0  0  0  0  0  0  0  0
  -10.4997   -3.4973  -24.3576 C   0  0  0  0  0  0  0  0  0  0  0  0
   -9.4781   -2.7942  -23.4911 C   0  0  0  0  0  0  0  0  0  0  0  0
   -8.4073   -2.0868  -24.2790 C   0  0  0  0  0  0  0  0  0  0  0  0
   -7.3277   -1.6923  -23.2981 C   0  0  0  0  0  0  0  0  0  0  0  0
   -7.8974   -1.1521  -22.0796 N   0  0  0  0  0  0  0  0  0  0  0  0
   -7.0702   -1.0057  -20.9254 C   0  0  0  0  0  0  0  0  0  0  0  0
   -7.5761   -0.5298  -19.8621 O   0  0  0  0  0  0  0  0  0  0  0  0
   -9.2952   -0.7641  -22.0280 C   0  0  0  0  0  0  0  0  0  0  0  0
   -9.5268    0.6200  -22.5980 C   0  0  0  0  0  0  0  0  0  0  0  0
  -10.2069   -1.7738  -22.6569 C   0  0  0  0  0  0  0  0  0  0  0  0
   -4.7275   -0.2898  -20.7533 C   0  0  0  0  0  0  0  0  0  0  0  0
   -4.6453    0.2122  -19.4525 C   0  0  0  0  0  0  0  0  0  0  0  0
   -3.8327    1.2410  -19.1469 N   0  0  0  0  0  0  0  0  0  0  0  0
   -3.0647    1.8277  -20.0888 C   0  0  0  0  0  0  0  0  0  0  0  0
   -3.1317    1.3412  -21.3961 C   0  0  0  0  0  0  0  0  0  0  0  0
   -2.3377    1.9576  -22.3388 C   0  0  0  0  0  0  0  0  0  0  0  0
   -2.4041    1.4755  -23.6350 C   0  0  0  0  0  0  0  0  0  0  0  0
   -3.2291    0.4226  -23.9709 C   0  0  0  0  0  0  0  0  0  0  0  0
   -4.0255   -0.1959  -23.0263 C   0  0  0  0  0  0  0  0  0  0  0  0
   -3.9616    0.2824  -21.7342 C   0  0  0  0  0  0  0  0  0  0  0  0
  3  2  1  0  0  0
  3  4  1  0  0  0
  4  5  1  0  0  0
  5  6  1  0  0  0
  6  7  1  0  0  0
  6  9  1  0  0  0
  7  8  2  0  0  0
  7  1  1  0  0  0
  1 12  1  0  0  0
 12 13  2  0  0  0
 13 14  1  0  0  0
 14 15  2  0  0  0
 15 16  1  0  0  0
 16 17  2  0  0  0
 17 18  1  0  0  0
 18 19  2  0  0  0
 19 20  1  0  0  0
 20 21  2  0  0  0
 21 12  1  0  0  0
 21 16  1  0  0  0
  9 10  1  0  0  0
  9 11  1  0  0  0
 11  3  1  0  0  0
M  END
> <minimizedAffinity>
-6.15596

> <CNNscore>
0.5329439044

> <CNNaffinity>
4.8024926186

> <CNN_VS>
2.5594592094

> <CNNaffinity_variance>
0.3301970363

$$$$



 21 23  0  0  0  0  0  0  0  0999 V2000
   -8.9707   -1.5898  -23.4761 C   0  0  0  0  0  0  0  0  0  0  0  0
   -6.7852   -7.4013  -22.5844 C   0  0  0  0  0  0  0  0  0  0  0  0
   -7.2242   -6.0263  -23.0378 C   0  0  0  0  0  0  0  0  0  0  0  0
   -6.3173   -4.9206  -22.5660 C   0  0  0  0  0  0  0  0  0  0  0  0
   -7.0310   -3.6179  -22.8436 C   0  0  0  0  0  0  0  0  0  0  0  0
   -7.6482   -3.6265  -24.1552 N   0  0  0  0  0  0  0  0  0  0  0  0
   -8.6114   -2.6249  -24.4818 C   0  0  0  0  0  0  0  0  0  0  0  0
   -9.1463   -2.6380  -25.6337 O   0  0  0  0  0  0  0  0  0  0  0  0
   -7.2948   -4.6428  -25.1297 C   0  0  0  0  0  0  0  0  0  0  0  0
   -6.0193   -4.3044  -25.8732 C   0  0  0  0  0  0  0  0  0  0  0  0
   -7.2366   -6.0210  -24.5438 C   0  0  0  0  0  0  0  0  0  0  0  0
  -10.4147   -1.4852  -23.2653 C   0  0  0  0  0  0  0  0  0  0  0  0
  -11.0922   -2.6428  -22.8757 C   0  0  0  0  0  0  0  0  0  0  0  0
  -12.4209   -2.6397  -22.6598 N   0  0  0  0  0  0  0  0  0  0  0  0
  -13.1503   -1.5146  -22.8124 C   0  0  0  0  0  0  0  0  0  0  0  0
  -12.4925   -0.3459  -23.2017 C   0  0  0  0  0  0  0  0  0  0  0  0
  -13.2601    0.7889  -23.3503 C   0  0  0  0  0  0  0  0  0  0  0  0
  -12.6081    1.9478  -23.7364 C   0  0  0  0  0  0  0  0  0  0  0  0
  -11.2479    1.9680  -23.9627 C   0  0  0  0  0  0  0  0  0  0  0  0
  -10.4776    0.8307  -23.8138 C   0  0  0  0  0  0  0  0  0  0  0  0
  -11.1245   -0.3254  -23.4296 C   0  0  0  0  0  0  0  0  0  0  0  0
  3  2  1  0  0  0
  3  4  1  0  0  0
  4  5  1  0  0  0
  5  6  1  0  0  0
  6  7  1  0  0  0
  6  9  1  0  0  0
  7  8  2  0  0  0
  7  1  1  0  0  0
  1 12  1  0  0  0
 12 13  2  0  0  0
 13 14  1  0  0  0
 14 15  2  0  0  0
 15 16  1  0  0  0
 16 17  2  0  0  0
 17 18  1  0  0  0
 18 19  2  0  0  0
 19 20  1  0  0  0
 20 21  2  0  0  0
 21 12  1  0  0  0
 21 16  1  0  0  0
  9 10  1  0  0  0
  9 11  1  0  0  0
 11  3  1  0  0  0
M  END
> <minimizedAffinity>
-6.38132

> <CNNscore>
0.5006018281

> <CNNaffinity>
5.0332765579

> <CNN_VS>
2.5196673870

> <CNNaffinity_variance>
0.3466399312

$$$$



 21 23  0  0  0  0  0  0  0  0999 V2000
   -8.0443   -0.2331  -22.8852 C   0  0  0  0  0  0  0  0  0  0  0  0
   -3.0290    1.7480  -19.6810 C   0  0  0  0  0  0  0  0  0  0  0  0
   -4.2502    1.0844  -20.2787 C   0  0  0  0  0  0  0  0  0  0  0  0
   -3.9458    0.2519  -21.4961 C   0  0  0  0  0  0  0  0  0  0  0  0
   -5.2710   -0.0966  -22.1331 C   0  0  0  0  0  0  0  0  0  0  0  0
   -6.2471   -0.4863  -21.1347 N   0  0  0  0  0  0  0  0  0  0  0  0
   -7.6263   -0.5589  -21.4955 C   0  0  0  0  0  0  0  0  0  0  0  0
   -8.4752   -0.9030  -20.6158 O   0  0  0  0  0  0  0  0  0  0  0  0
   -5.8311   -0.7988  -19.7795 C   0  0  0  0  0  0  0  0  0  0  0  0
   -5.3213   -2.2192  -19.6501 C   0  0  0  0  0  0  0  0  0  0  0  0
   -4.8474    0.1875  -19.2266 C   0  0  0  0  0  0  0  0  0  0  0  0
   -9.3034   -0.8765  -23.2610 C   0  0  0  0  0  0  0  0  0  0  0  0
   -9.2612   -2.2376  -23.5719 C   0  0  0  0  0  0  0  0  0  0  0  0
  -10.3707   -2.9111  -23.9285 N   0  0  0  0  0  0  0  0  0  0  0  0
  -11.5691   -2.2946  -23.9994 C   0  0  0  0  0  0  0  0  0  0  0  0
  -11.6336   -0.9338  -23.6926 C   0  0  0  0  0  0  0  0  0  0  0  0
  -12.8689   -0.3282  -23.7727 C   0  0  0  0  0  0  0  0  0  0  0  0
  -12.9330    1.0211  -23.4687 C   0  0  0  0  0  0  0  0  0  0  0  0
  -11.8095    1.7310  -23.1007 C   0  0  0  0  0  0  0  0  0  0  0  0
  -10.5706    1.1246  -23.0203 C   0  0  0  0  0  0  0  0  0  0  0  0
  -10.5036   -0.2195  -23.3228 C   0  0  0  0  0  0  0  0  0  0  0  0
  3  2  1  0  0  0
  3  4  1  0  0  0
  4  5  1  0  0  0
  5  6  1  0  0  0
  6  7  1  0  0  0
  6  9  1  0  0  0
  7  8  2  0  0  0
  7  1  1  0  0  0
  1 12  1  0  0  0
 12 13  2  0  0  0
 13 14  1  0  0  0
 14 15  2  0  0  0
 15 16  1  0  0  0
 16 17  2  0  0  0
 17 18  1  0  0  0
 18 19  2  0  0  0
 19 20  1  0  0  0
 20 21  2  0  0  0
 21 12  1  0  0  0
 21 16  1  0  0  0
  9 10  1  0  0  0
  9 11  1  0  0  0
 11  3  1  0  0  0
M  END
> <minimizedAffinity>
-6.73202

> <CNNscore>
0.3971768618

> <CNNaffinity>
4.7294983864

> <CNN_VS>
1.8784472942

> <CNNaffinity_variance>
0.1730123609

$$$$



 21 23  0  0  0  0  0  0  0  0999 V2000
   -8.7409    0.7235  -23.9886 C   0  0  0  0  0  0  0  0  0  0  0  0
   -5.9470    6.3388  -24.0757 C   0  0  0  0  0  0  0  0  0  0  0  0
   -6.4769    4.9400  -23.8483 C   0  0  0  0  0  0  0  0  0  0  0  0
   -5.8865    3.9153  -24.7805 C   0  0  0  0  0  0  0  0  0  0  0  0
   -6.7097    2.6572  -24.6293 C   0  0  0  0  0  0  0  0  0  0  0  0
   -6.9978    2.3826  -23.2355 N   0  0  0  0  0  0  0  0  0  0  0  0
   -8.0027    1.4243  -22.9042 C   0  0  0  0  0  0  0  0  0  0  0  0
   -8.2480    1.1878  -21.6808 O   0  0  0  0  0  0  0  0  0  0  0  0
   -6.2754    3.0740  -22.1831 C   0  0  0  0  0  0  0  0  0  0  0  0
   -4.9309    2.4376  -21.8979 C   0  0  0  0  0  0  0  0  0  0  0  0
   -6.1414    4.5455  -22.4341 C   0  0  0  0  0  0  0  0  0  0  0  0
  -10.1895    0.7358  -23.7841 C   0  0  0  0  0  0  0  0  0  0  0  0
  -10.8573    1.9445  -23.9935 C   0  0  0  0  0  0  0  0  0  0  0  0
  -12.1892    2.0487  -23.8285 N   0  0  0  0  0  0  0  0  0  0  0  0
  -12.9314    0.9859  -23.4532 C   0  0  0  0  0  0  0  0  0  0  0  0
  -12.2834   -0.2324  -23.2384 C   0  0  0  0  0  0  0  0  0  0  0  0
  -13.0640   -1.3018  -22.8560 C   0  0  0  0  0  0  0  0  0  0  0  0
  -12.4218   -2.5097  -22.6429 C   0  0  0  0  0  0  0  0  0  0  0  0
  -11.0586   -2.6397  -22.8062 C   0  0  0  0  0  0  0  0  0  0  0  0
  -10.2753   -1.5680  -23.1896 C   0  0  0  0  0  0  0  0  0  0  0  0
  -10.9124   -0.3633  -23.4024 C   0  0  0  0  0  0  0  0  0  0  0  0
  3  2  1  0  0  0
  3  4  1  0  0  0
  4  5  1  0  0  0
  5  6  1  0  0  0
  6  7  1  0  0  0
  6  9  1  0  0  0
  7  8  2  0  0  0
  7  1  1  0  0  0
  1 12  1  0  0  0
 12 13  2  0  0  0
 13 14  1  0  0  0
 14 15  2  0  0  0
 15 16  1  0  0  0
 16 17  2  0  0  0
 17 18  1  0  0  0
 18 19  2  0  0  0
 19 20  1  0  0  0
 20 21  2  0  0  0
 21 12  1  0  0  0
 21 16  1  0  0  0
  9 10  1  0  0  0
  9 11  1  0  0  0
 11  3  1  0  0  0
M  END
> <minimizedAffinity>
-5.50101

> <CNNscore>
0.3881064057

> <CNNaffinity>
4.8208603859

> <CNN_VS>
1.8710068464

> <CNNaffinity_variance>
0.0587625876

$$$$



 35 40  0  0  0  0  0  0  0  0999 V2000
   -7.0921   -1.0491  -22.3283 C   0  0  0  0  0  0  0  0  0  0  0  0
   -7.7512   -2.3964  -22.3924 C   0  0  0  0  0  0  0  0  0  0  0  0
   -9.1058   -2.2580  -21.7301 C   0  0  0  0  0  0  0  0  0  0  0  0
  -10.0765   -2.3940  -22.8015 N   0  0  0  0  0  0  0  0  0  0  0  0
   -9.4454   -3.1838  -23.8036 C   0  0  0  0  0  0  0  0  0  0  0  0
  -10.0369   -3.9819  -24.6043 O   0  0  0  0  0  0  0  0  0  0  0  0
   -7.9569   -2.9314  -23.7747 C   0  0  0  0  0  0  0  0  0  0  0  0
   -7.7171   -1.8842  -24.8032 C   0  0  0  0  0  0  0  0  0  0  0  0
   -6.3907   -1.8684  -25.3782 N   0  0  0  0  0  0  0  0  0  0  0  0
   -5.7113   -3.0954  -25.5104 C   0  0  0  0  0  0  0  0  0  0  0  0
   -4.7246   -3.1923  -26.2582 O   0  0  0  0  0  0  0  0  0  0  0  0
   -6.1265   -4.3028  -24.7830 C   0  0  0  0  0  0  0  0  0  0  0  0
   -5.4370   -5.5104  -24.9357 C   0  0  0  0  0  0  0  0  0  0  0  0
   -5.9118   -6.5906  -24.2081 C   0  0  0  0  0  0  0  0  0  0  0  0
   -6.9973   -6.4793  -23.3855 C   0  0  0  0  0  0  0  0  0  0  0  0
   -7.4335   -7.5558  -22.6899 F   0  0  0  0  0  0  0  0  0  0  0  0
   -7.6677   -5.2960  -23.2399 C   0  0  0  0  0  0  0  0  0  0  0  0
   -7.2099   -4.1901  -23.9622 C   0  0  0  0  0  0  0  0  0  0  0  0
  -11.3838   -1.8594  -22.8564 C   0  0  0  0  0  0  0  0  0  0  0  0
  -12.5249   -2.5788  -22.5675 C   0  0  0  0  0  0  0  0  0  0  0  0
  -13.7568   -2.0248  -22.6337 N   0  0  0  0  0  0  0  0  0  0  0  0
  -13.9085   -0.7223  -22.9927 C   0  0  0  0  0  0  0  0  0  0  0  0
  -12.7858    0.0293  -23.2894 C   0  0  0  0  0  0  0  0  0  0  0  0
  -12.8868    1.3526  -23.6582 C   0  0  0  0  0  0  0  0  0  0  0  0
  -11.7752    2.1084  -23.9553 C   0  0  0  0  0  0  0  0  0  0  0  0
  -10.4962    1.5696  -23.8968 C   0  0  0  0  0  0  0  0  0  0  0  0
  -10.4025    0.2287  -23.5226 C   0  0  0  0  0  0  0  0  0  0  0  0
  -11.5193   -0.5218  -23.2266 C   0  0  0  0  0  0  0  0  0  0  0  0
   -5.8613   -0.5833  -25.7823 C   0  0  0  0  0  0  0  0  0  0  0  0
   -6.8363    0.2885  -26.4630 C   0  0  0  0  0  0  0  0  0  0  0  0
   -7.2855    1.4839  -25.9004 C   0  0  0  0  0  0  0  0  0  0  0  0
   -8.1841    2.0832  -26.7794 C   0  0  0  0  0  0  0  0  0  0  0  0
   -8.2564    1.2468  -27.8399 N   0  0  0  0  0  0  0  0  0  0  0  0
   -7.4566    0.2013  -27.6308 N   0  0  0  0  0  0  0  0  0  0  0  0
   -7.3144   -0.8645  -28.5987 C   0  0  0  0  0  0  0  0  0  0  0  0
  2  1  1  0  0  0
  2  3  1  0  0  0
  3  4  1  0  0  0
  4 19  1  0  0  0
  4  5  1  0  0  0
 19 20  2  0  0  0
 20 21  1  0  0  0
 21 22  2  0  0  0
 22 23  1  0  0  0
 23 24  2  0  0  0
 24 25  1  0  0  0
 25 26  2  0  0  0
 26 27  1  0  0  0
 27 28  2  0  0  0
 28 19  1  0  0  0
 28 23  1  0  0  0
  5  6  2  0  0  0
  7  5  1  0  0  0
  7  8  1  0  0  0
  7  2  1  0  0  0
  8  9  1  0  0  0
  9 29  1  0  0  0
  9 10  1  0  0  0
 29 30  1  0  0  0
 30 31  2  0  0  0
 31 32  1  0  0  0
 32 33  2  0  0  0
 33 34  1  0  0  0
 34 35  1  0  0  0
 34 30  1  0  0  0
 10 11  2  0  0  0
 10 12  1  0  0  0
 12 13  2  0  0  0
 13 14  1  0  0  0
 14 15  2  0  0  0
 15 16  1  0  0  0
 15 17  1  0  0  0
 17 18  2  0  0  0
 18 12  1  0  0  0
 18  7  1  0  0  0
M  END
> <minimizedAffinity>
-7.47096

> <CNNscore>
0.2550458312

> <CNNaffinity>
5.9277133942

> <CNN_VS>
1.5118385553

> <CNNaffinity_variance>
0.5711279511

$$$$



 35 40  0  0  0  0  0  0  0  0999 V2000
   -7.0799   -1.0277  -22.3426 C   0  0  0  0  0  0  0  0  0  0  0  0
   -7.7332   -2.3776  -22.4134 C   0  0  0  0  0  0  0  0  0  0  0  0
   -9.0860   -2.2497  -21.7455 C   0  0  0  0  0  0  0  0  0  0  0  0
  -10.0598   -2.3830  -22.8144 N   0  0  0  0  0  0  0  0  0  0  0  0
   -9.4288   -3.1632  -23.8239 C   0  0  0  0  0  0  0  0  0  0  0  0
  -10.0195   -3.9586  -24.6279 O   0  0  0  0  0  0  0  0  0  0  0  0
   -7.9413   -2.9043  -23.7986 C   0  0  0  0  0  0  0  0  0  0  0  0
   -7.7098   -1.8491  -24.8209 C   0  0  0  0  0  0  0  0  0  0  0  0
   -6.3856   -1.8235  -25.4004 N   0  0  0  0  0  0  0  0  0  0  0  0
   -5.7011   -3.0465  -25.5431 C   0  0  0  0  0  0  0  0  0  0  0  0
   -4.7167   -3.1339  -26.2950 O   0  0  0  0  0  0  0  0  0  0  0  0
   -6.1082   -4.2606  -24.8224 C   0  0  0  0  0  0  0  0  0  0  0  0
   -5.4138   -5.4640  -24.9855 C   0  0  0  0  0  0  0  0  0  0  0  0
   -5.8812   -6.5512  -24.2636 C   0  0  0  0  0  0  0  0  0  0  0  0
   -6.9643   -6.4503  -23.4364 C   0  0  0  0  0  0  0  0  0  0  0  0
   -7.3932   -7.5334  -22.7465 F   0  0  0  0  0  0  0  0  0  0  0  0
   -7.6395   -5.2711  -23.2806 C   0  0  0  0  0  0  0  0  0  0  0  0
   -7.1892   -4.1583  -23.9970 C   0  0  0  0  0  0  0  0  0  0  0  0
  -11.3698   -1.8540  -22.8611 C   0  0  0  0  0  0  0  0  0  0  0  0
  -12.5066   -2.5808  -22.5744 C   0  0  0  0  0  0  0  0  0  0  0  0
  -13.7413   -2.0320  -22.6325 N   0  0  0  0  0  0  0  0  0  0  0  0
  -13.9001   -0.7275  -22.9809 C   0  0  0  0  0  0  0  0  0  0  0  0
  -12.7817    0.0315  -23.2752 C   0  0  0  0  0  0  0  0  0  0  0  0
  -12.8899    1.3572  -23.6333 C   0  0  0  0  0  0  0  0  0  0  0  0
  -11.7826    2.1204  -23.9279 C   0  0  0  0  0  0  0  0  0  0  0  0
  -10.5010    1.5870  -23.8775 C   0  0  0  0  0  0  0  0  0  0  0  0
  -10.4001    0.2437  -23.5140 C   0  0  0  0  0  0  0  0  0  0  0  0
  -11.5125   -0.5142  -23.2205 C   0  0  0  0  0  0  0  0  0  0  0  0
   -5.8634   -0.5334  -25.7977 C   0  0  0  0  0  0  0  0  0  0  0  0
   -5.0905    0.1581  -24.7496 C   0  0  0  0  0  0  0  0  0  0  0  0
   -3.9034   -0.3636  -24.2338 C   0  0  0  0  0  0  0  0  0  0  0  0
   -3.4061    0.5160  -23.2756 C   0  0  0  0  0  0  0  0  0  0  0  0
   -4.2928    1.5366  -23.2348 N   0  0  0  0  0  0  0  0  0  0  0  0
   -5.2719    1.3038  -24.1086 N   0  0  0  0  0  0  0  0  0  0  0  0
   -6.3687    2.2276  -24.2996 C   0  0  0  0  0  0  0  0  0  0  0  0
  2  1  1  0  0  0
  2  3  1  0  0  0
  3  4  1  0  0  0
  4 19  1  0  0  0
  4  5  1  0  0  0
 19 20  2  0  0  0
 20 21  1  0  0  0
 21 22  2  0  0  0
 22 23  1  0  0  0
 23 24  2  0  0  0
 24 25  1  0  0  0
 25 26  2  0  0  0
 26 27  1  0  0  0
 27 28  2  0  0  0
 28 19  1  0  0  0
 28 23  1  0  0  0
  5  6  2  0  0  0
  7  5  1  0  0  0
  7  8  1  0  0  0
  7  2  1  0  0  0
  8  9  1  0  0  0
  9 29  1  0  0  0
  9 10  1  0  0  0
 29 30  1  0  0  0
 30 31  2  0  0  0
 31 32  1  0  0  0
 32 33  2  0  0  0
 33 34  1  0  0  0
 34 35  1  0  0  0
 34 30  1  0  0  0
 10 11  2  0  0  0
 10 12  1  0  0  0
 12 13  2  0  0  0
 13 14  1  0  0  0
 14 15  2  0  0  0
 15 16  1  0  0  0
 15 17  1  0  0  0
 17 18  2  0  0  0
 18 12  1  0  0  0
 18  7  1  0  0  0
M  END
> <minimizedAffinity>
-7.58025

> <CNNscore>
0.2130253911

> <CNNaffinity>
6.0001325607

> <CNN_VS>
1.2781805992

> <CNNaffinity_variance>
0.4064972997

$$$$



 35 40  0  0  0  0  0  0  0  0999 V2000
   -6.5934    1.1757  -21.5947 C   0  0  0  0  0  0  0  0  0  0  0  0
   -6.9842    0.1172  -22.5851 C   0  0  0  0  0  0  0  0  0  0  0  0
   -8.4348   -0.2248  -22.3176 C   0  0  0  0  0  0  0  0  0  0  0  0
   -9.1690    0.2776  -23.4653 N   0  0  0  0  0  0  0  0  0  0  0  0
   -8.2472    0.2789  -24.5499 C   0  0  0  0  0  0  0  0  0  0  0  0
   -8.5434    0.1053  -25.7788 O   0  0  0  0  0  0  0  0  0  0  0  0
   -6.8534    0.5193  -24.0206 C   0  0  0  0  0  0  0  0  0  0  0  0
   -6.6300    1.9834  -24.1559 C   0  0  0  0  0  0  0  0  0  0  0  0
   -5.2489    2.3942  -24.2729 N   0  0  0  0  0  0  0  0  0  0  0  0
   -4.3514    1.5238  -24.9222 C   0  0  0  0  0  0  0  0  0  0  0  0
   -3.2503    1.9365  -25.3212 O   0  0  0  0  0  0  0  0  0  0  0  0
   -4.6653    0.1075  -25.1565 C   0  0  0  0  0  0  0  0  0  0  0  0
   -3.7580   -0.7347  -25.8081 C   0  0  0  0  0  0  0  0  0  0  0  0
   -4.1522   -2.0522  -25.9830 C   0  0  0  0  0  0  0  0  0  0  0  0
   -5.3644   -2.5024  -25.5413 C   0  0  0  0  0  0  0  0  0  0  0  0
   -5.7164   -3.7961  -25.7295 F   0  0  0  0  0  0  0  0  0  0  0  0
   -6.2477   -1.6745  -24.9047 C   0  0  0  0  0  0  0  0  0  0  0  0
   -5.8755   -0.3404  -24.7149 C   0  0  0  0  0  0  0  0  0  0  0  0
  -10.5213    0.6860  -23.5150 C   0  0  0  0  0  0  0  0  0  0  0  0
  -10.9298    1.9688  -23.8158 C   0  0  0  0  0  0  0  0  0  0  0  0
  -12.2368    2.3145  -23.8514 N   0  0  0  0  0  0  0  0  0  0  0  0
  -13.2010    1.3930  -23.5875 C   0  0  0  0  0  0  0  0  0  0  0  0
  -12.8275    0.0966  -23.2819 C   0  0  0  0  0  0  0  0  0  0  0  0
  -13.7663   -0.8732  -23.0070 C   0  0  0  0  0  0  0  0  0  0  0  0
  -13.4040   -2.1658  -22.7020 C   0  0  0  0  0  0  0  0  0  0  0  0
  -12.0708   -2.5530  -22.6572 C   0  0  0  0  0  0  0  0  0  0  0  0
  -11.1263   -1.5649  -22.9368 C   0  0  0  0  0  0  0  0  0  0  0  0
  -11.4959   -0.2731  -23.2413 C   0  0  0  0  0  0  0  0  0  0  0  0
   -4.8931    3.6813  -23.7143 C   0  0  0  0  0  0  0  0  0  0  0  0
   -6.0283    4.6084  -23.5535 C   0  0  0  0  0  0  0  0  0  0  0  0
   -6.6049    4.8701  -22.3099 C   0  0  0  0  0  0  0  0  0  0  0  0
   -7.6391    5.7870  -22.4794 C   0  0  0  0  0  0  0  0  0  0  0  0
   -7.6635    6.0554  -23.8049 N   0  0  0  0  0  0  0  0  0  0  0  0
   -6.7090    5.3521  -24.4136 N   0  0  0  0  0  0  0  0  0  0  0  0
   -6.4821    5.4362  -25.8399 C   0  0  0  0  0  0  0  0  0  0  0  0
  2  1  1  0  0  0
  2  3  1  0  0  0
  3  4  1  0  0  0
  4 19  1  0  0  0
  4  5  1  0  0  0
 19 20  2  0  0  0
 20 21  1  0  0  0
 21 22  2  0  0  0
 22 23  1  0  0  0
 23 24  2  0  0  0
 24 25  1  0  0  0
 25 26  2  0  0  0
 26 27  1  0  0  0
 27 28  2  0  0  0
 28 19  1  0  0  0
 28 23  1  0  0  0
  5  6  2  0  0  0
  7  5  1  0  0  0
  7  8  1  0  0  0
  7  2  1  0  0  0
  8  9  1  0  0  0
  9 29  1  0  0  0
  9 10  1  0  0  0
 29 30  1  0  0  0
 30 31  2  0  0  0
 31 32  1  0  0  0
 32 33  2  0  0  0
 33 34  1  0  0  0
 34 35  1  0  0  0
 34 30  1  0  0  0
 10 11  2  0  0  0
 10 12  1  0  0  0
 12 13  2  0  0  0
 13 14  1  0  0  0
 14 15  2  0  0  0
 15 16  1  0  0  0
 15 17  1  0  0  0
 17 18  2  0  0  0
 18 12  1  0  0  0
 18  7  1  0  0  0
M  END
> <minimizedAffinity>
-6.49711

> <CNNscore>
0.2090340704

> <CNNaffinity>
5.8863058090

> <CNN_VS>
1.2304384708

> <CNNaffinity_variance>
0.1499456912

$$$$



 35 40  0  0  0  0  0  0  0  0999 V2000
   -6.0231   -1.7520  -22.4417 C   0  0  0  0  0  0  0  0  0  0  0  0
   -7.0929   -2.6832  -22.9339 C   0  0  0  0  0  0  0  0  0  0  0  0
   -8.4132   -2.1536  -22.4151 C   0  0  0  0  0  0  0  0  0  0  0  0
   -9.1253   -1.6743  -23.5864 N   0  0  0  0  0  0  0  0  0  0  0  0
   -8.6273   -2.4311  -24.6842 C   0  0  0  0  0  0  0  0  0  0  0  0
   -9.2871   -2.7496  -25.7289 O   0  0  0  0  0  0  0  0  0  0  0  0
   -7.1873   -2.8028  -24.4226 C   0  0  0  0  0  0  0  0  0  0  0  0
   -6.3820   -1.7541  -25.1034 C   0  0  0  0  0  0  0  0  0  0  0  0
   -5.0502   -2.1519  -25.5009 N   0  0  0  0  0  0  0  0  0  0  0  0
   -4.8439   -3.4941  -25.8760 C   0  0  0  0  0  0  0  0  0  0  0  0
   -3.8261   -3.8230  -26.5070 O   0  0  0  0  0  0  0  0  0  0  0  0
   -5.8042   -4.5560  -25.5456 C   0  0  0  0  0  0  0  0  0  0  0  0
   -5.5776   -5.8807  -25.9341 C   0  0  0  0  0  0  0  0  0  0  0  0
   -6.5468   -6.8051  -25.5766 C   0  0  0  0  0  0  0  0  0  0  0  0
   -7.6647   -6.4390  -24.8812 C   0  0  0  0  0  0  0  0  0  0  0  0
   -8.5909   -7.3690  -24.5490 F   0  0  0  0  0  0  0  0  0  0  0  0
   -7.8812   -5.1423  -24.5039 C   0  0  0  0  0  0  0  0  0  0  0  0
   -6.9194   -4.1892  -24.8514 C   0  0  0  0  0  0  0  0  0  0  0  0
  -10.1130   -0.6648  -23.6443 C   0  0  0  0  0  0  0  0  0  0  0  0
   -9.8655    0.6363  -24.0299 C   0  0  0  0  0  0  0  0  0  0  0  0
  -10.8433    1.5697  -24.0701 N   0  0  0  0  0  0  0  0  0  0  0  0
  -12.1186    1.2475  -23.7260 C   0  0  0  0  0  0  0  0  0  0  0  0
  -12.4029   -0.0483  -23.3341 C   0  0  0  0  0  0  0  0  0  0  0  0
  -13.6787   -0.4245  -22.9759 C   0  0  0  0  0  0  0  0  0  0  0  0
  -13.9712   -1.7115  -22.5847 C   0  0  0  0  0  0  0  0  0  0  0  0
  -12.9901   -2.6935  -22.5328 C   0  0  0  0  0  0  0  0  0  0  0  0
  -11.7007   -2.3044  -22.8970 C   0  0  0  0  0  0  0  0  0  0  0  0
  -11.4150   -1.0144  -23.2876 C   0  0  0  0  0  0  0  0  0  0  0  0
   -4.0244   -1.1308  -25.4882 C   0  0  0  0  0  0  0  0  0  0  0  0
   -4.5411    0.2497  -25.5270 C   0  0  0  0  0  0  0  0  0  0  0  0
   -4.5917    1.0575  -24.3903 C   0  0  0  0  0  0  0  0  0  0  0  0
   -5.1131    2.2990  -24.7454 C   0  0  0  0  0  0  0  0  0  0  0  0
   -5.3625    2.2141  -26.0721 N   0  0  0  0  0  0  0  0  0  0  0  0
   -5.0184    1.0025  -26.5077 N   0  0  0  0  0  0  0  0  0  0  0  0
   -5.1612    0.6137  -27.8939 C   0  0  0  0  0  0  0  0  0  0  0  0
  2  1  1  0  0  0
  2  3  1  0  0  0
  3  4  1  0  0  0
  4 19  1  0  0  0
  4  5  1  0  0  0
 19 20  2  0  0  0
 20 21  1  0  0  0
 21 22  2  0  0  0
 22 23  1  0  0  0
 23 24  2  0  0  0
 24 25  1  0  0  0
 25 26  2  0  0  0
 26 27  1  0  0  0
 27 28  2  0  0  0
 28 19  1  0  0  0
 28 23  1  0  0  0
  5  6  2  0  0  0
  7  5  1  0  0  0
  7  8  1  0  0  0
  7  2  1  0  0  0
  8  9  1  0  0  0
  9 29  1  0  0  0
  9 10  1  0  0  0
 29 30  1  0  0  0
 30 31  2  0  0  0
 31 32  1  0  0  0
 32 33  2  0  0  0
 33 34  1  0  0  0
 34 35  1  0  0  0
 34 30  1  0  0  0
 10 11  2  0  0  0
 10 12  1  0  0  0
 12 13  2  0  0  0
 13 14  1  0  0  0
 14 15  2  0  0  0
 15 16  1  0  0  0
 15 17  1  0  0  0
 17 18  2  0  0  0
 18 12  1  0  0  0
 18  7  1  0  0  0
M  END
> <minimizedAffinity>
-6.75647

> <CNNscore>
0.1960254014

> <CNNaffinity>
6.0197119713

> <CNN_VS>
1.1800163984

> <CNNaffinity_variance>
0.1548218429

$$$$



 35 40  0  0  0  0  0  0  0  0999 V2000
   -4.5520   -0.7923  -24.3766 C   0  0  0  0  0  0  0  0  0  0  0  0
   -4.2856   -0.1634  -23.0396 C   0  0  0  0  0  0  0  0  0  0  0  0
   -3.0927    0.7531  -23.2119 C   0  0  0  0  0  0  0  0  0  0  0  0
   -3.6165    2.1005  -23.0741 N   0  0  0  0  0  0  0  0  0  0  0  0
   -4.7767    1.9879  -22.2571 C   0  0  0  0  0  0  0  0  0  0  0  0
   -5.2121    2.8801  -21.4557 O   0  0  0  0  0  0  0  0  0  0  0  0
   -5.4193    0.6405  -22.4850 C   0  0  0  0  0  0  0  0  0  0  0  0
   -6.4703    0.8762  -23.5106 C   0  0  0  0  0  0  0  0  0  0  0  0
   -7.5759   -0.0552  -23.4945 N   0  0  0  0  0  0  0  0  0  0  0  0
   -7.9691   -0.5954  -22.2542 C   0  0  0  0  0  0  0  0  0  0  0  0
   -9.0756   -1.1448  -22.1283 O   0  0  0  0  0  0  0  0  0  0  0  0
   -7.1060   -0.5387  -21.0664 C   0  0  0  0  0  0  0  0  0  0  0  0
   -7.5225   -1.0789  -19.8450 C   0  0  0  0  0  0  0  0  0  0  0  0
   -6.6355   -0.9698  -18.7852 C   0  0  0  0  0  0  0  0  0  0  0  0
   -5.4183   -0.3654  -18.9286 C   0  0  0  0  0  0  0  0  0  0  0  0
   -4.5772   -0.2766  -17.8713 F   0  0  0  0  0  0  0  0  0  0  0  0
   -5.0162    0.1611  -20.1252 C   0  0  0  0  0  0  0  0  0  0  0  0
   -5.8914    0.0647  -21.2110 C   0  0  0  0  0  0  0  0  0  0  0  0
   -3.0956    3.2913  -23.6294 C   0  0  0  0  0  0  0  0  0  0  0  0
   -2.1768    4.1016  -22.9952 C   0  0  0  0  0  0  0  0  0  0  0  0
   -1.7058    5.2336  -23.5659 N   0  0  0  0  0  0  0  0  0  0  0  0
   -2.1310    5.6116  -24.8008 C   0  0  0  0  0  0  0  0  0  0  0  0
   -3.0523    4.8227  -25.4661 C   0  0  0  0  0  0  0  0  0  0  0  0
   -3.5140    5.1626  -26.7185 C   0  0  0  0  0  0  0  0  0  0  0  0
   -4.4307    4.3838  -27.3882 C   0  0  0  0  0  0  0  0  0  0  0  0
   -4.9338    3.2156  -26.8300 C   0  0  0  0  0  0  0  0  0  0  0  0
   -4.4611    2.8785  -25.5613 C   0  0  0  0  0  0  0  0  0  0  0  0
   -3.5437    3.6626  -24.8967 C   0  0  0  0  0  0  0  0  0  0  0  0
   -8.2023   -0.3588  -24.7635 C   0  0  0  0  0  0  0  0  0  0  0  0
   -8.4256    0.8153  -25.6270 C   0  0  0  0  0  0  0  0  0  0  0  0
   -9.2036    1.9004  -25.2210 C   0  0  0  0  0  0  0  0  0  0  0  0
   -9.2169    2.8489  -26.2405 C   0  0  0  0  0  0  0  0  0  0  0  0
   -8.4559    2.3221  -27.2269 N   0  0  0  0  0  0  0  0  0  0  0  0
   -8.0028    1.1288  -26.8433 N   0  0  0  0  0  0  0  0  0  0  0  0
   -7.1495    0.3217  -27.6878 C   0  0  0  0  0  0  0  0  0  0  0  0
  2  1  1  0  0  0
  2  3  1  0  0  0
  3  4  1  0  0  0
  4 19  1  0  0  0
  4  5  1  0  0  0
 19 20  2  0  0  0
 20 21  1  0  0  0
 21 22  2  0  0  0
 22 23  1  0  0  0
 23 24  2  0  0  0
 24 25  1  0  0  0
 25 26  2  0  0  0
 26 27  1  0  0  0
 27 28  2  0  0  0
 28 19  1  0  0  0
 28 23  1  0  0  0
  5  6  2  0  0  0
  7  5  1  0  0  0
  7  8  1  0  0  0
  7  2  1  0  0  0
  8  9  1  0  0  0
  9 29  1  0  0  0
  9 10  1  0  0  0
 29 30  1  0  0  0
 30 31  2  0  0  0
 31 32  1  0  0  0
 32 33  2  0  0  0
 33 34  1  0  0  0
 34 35  1  0  0  0
 34 30  1  0  0  0
 10 11  2  0  0  0
 10 12  1  0  0  0
 12 13  2  0  0  0
 13 14  1  0  0  0
 14 15  2  0  0  0
 15 16  1  0  0  0
 15 17  1  0  0  0
 17 18  2  0  0  0
 18 12  1  0  0  0
 18  7  1  0  0  0
M  END
> <minimizedAffinity>
-5.84377

> <CNNscore>
0.1881121397

> <CNNaffinity>
5.5823049545

> <CNN_VS>
1.0500993729

> <CNNaffinity_variance>
0.0713206083

$$$$



 35 40  0  0  0  0  0  0  0  0999 V2000
   -7.0663   -0.7424  -21.0104 C   0  0  0  0  0  0  0  0  0  0  0  0
   -7.3137   -1.5518  -22.2504 C   0  0  0  0  0  0  0  0  0  0  0  0
   -8.7029   -2.1408  -22.1241 C   0  0  0  0  0  0  0  0  0  0  0  0
   -9.5041   -1.4616  -23.1268 N   0  0  0  0  0  0  0  0  0  0  0  0
   -8.5961   -1.0581  -24.1460 C   0  0  0  0  0  0  0  0  0  0  0  0
   -8.8716   -0.9466  -25.3868 O   0  0  0  0  0  0  0  0  0  0  0  0
   -7.2457   -0.7794  -23.5303 C   0  0  0  0  0  0  0  0  0  0  0  0
   -7.2245    0.6863  -23.2791 C   0  0  0  0  0  0  0  0  0  0  0  0
   -5.9128    1.2931  -23.2445 N   0  0  0  0  0  0  0  0  0  0  0  0
   -4.9081    0.7468  -24.0673 C   0  0  0  0  0  0  0  0  0  0  0  0
   -3.8754    1.3910  -24.3133 O   0  0  0  0  0  0  0  0  0  0  0  0
   -5.0272   -0.5898  -24.6660 C   0  0  0  0  0  0  0  0  0  0  0  0
   -4.0166   -1.1072  -25.4834 C   0  0  0  0  0  0  0  0  0  0  0  0
   -4.2284   -2.3752  -26.0020 C   0  0  0  0  0  0  0  0  0  0  0  0
   -5.3659   -3.0810  -25.7277 C   0  0  0  0  0  0  0  0  0  0  0  0
   -5.5391   -4.3173  -26.2518 F   0  0  0  0  0  0  0  0  0  0  0  0
   -6.3508   -2.5703  -24.9278 C   0  0  0  0  0  0  0  0  0  0  0  0
   -6.1630   -1.2931  -24.3913 C   0  0  0  0  0  0  0  0  0  0  0  0
  -10.8996   -1.2375  -23.1116 C   0  0  0  0  0  0  0  0  0  0  0  0
  -11.8389   -2.2296  -22.9208 C   0  0  0  0  0  0  0  0  0  0  0  0
  -13.1658   -1.9681  -22.9143 N   0  0  0  0  0  0  0  0  0  0  0  0
  -13.6193   -0.6997  -23.0986 C   0  0  0  0  0  0  0  0  0  0  0  0
  -12.7053    0.3203  -23.2929 C   0  0  0  0  0  0  0  0  0  0  0  0
  -13.1145    1.6217  -23.4841 C   0  0  0  0  0  0  0  0  0  0  0  0
  -12.2123    2.6432  -23.6783 C   0  0  0  0  0  0  0  0  0  0  0  0
  -10.8434    2.4081  -23.6905 C   0  0  0  0  0  0  0  0  0  0  0  0
  -10.4373    1.0875  -23.4962 C   0  0  0  0  0  0  0  0  0  0  0  0
  -11.3457    0.0699  -23.3024 C   0  0  0  0  0  0  0  0  0  0  0  0
   -5.7331    2.4280  -22.3643 C   0  0  0  0  0  0  0  0  0  0  0  0
   -4.6089    2.2923  -21.4198 C   0  0  0  0  0  0  0  0  0  0  0  0
   -4.5904    1.3189  -20.4200 C   0  0  0  0  0  0  0  0  0  0  0  0
   -3.4021    1.4350  -19.7033 C   0  0  0  0  0  0  0  0  0  0  0  0
   -2.7378    2.4629  -20.2793 N   0  0  0  0  0  0  0  0  0  0  0  0
   -3.4660    2.9493  -21.2840 N   0  0  0  0  0  0  0  0  0  0  0  0
   -3.0113    4.0542  -22.0996 C   0  0  0  0  0  0  0  0  0  0  0  0
  2  1  1  0  0  0
  2  3  1  0  0  0
  3  4  1  0  0  0
  4 19  1  0  0  0
  4  5  1  0  0  0
 19 20  2  0  0  0
 20 21  1  0  0  0
 21 22  2  0  0  0
 22 23  1  0  0  0
 23 24  2  0  0  0
 24 25  1  0  0  0
 25 26  2  0  0  0
 26 27  1  0  0  0
 27 28  2  0  0  0
 28 19  1  0  0  0
 28 23  1  0  0  0
  5  6  2  0  0  0
  7  5  1  0  0  0
  7  8  1  0  0  0
  7  2  1  0  0  0
  8  9  1  0  0  0
  9 29  1  0  0  0
  9 10  1  0  0  0
 29 30  1  0  0  0
 30 31  2  0  0  0
 31 32  1  0  0  0
 32 33  2  0  0  0
 33 34  1  0  0  0
 34 35  1  0  0  0
 34 30  1  0  0  0
 10 11  2  0  0  0
 10 12  1  0  0  0
 12 13  2  0  0  0
 13 14  1  0  0  0
 14 15  2  0  0  0
 15 16  1  0  0  0
 15 17  1  0  0  0
 17 18  2  0  0  0
 18 12  1  0  0  0
 18  7  1  0  0  0
M  END
> <minimizedAffinity>
-7.82112

> <CNNscore>
0.1457018107

> <CNNaffinity>
5.7757678032

> <CNN_VS>
0.8415398002

> <CNNaffinity_variance>
0.2684428096

$$$$



 35 40  0  0  0  0  0  0  0  0999 V2000
   -6.9444    1.3180  -21.7742 C   0  0  0  0  0  0  0  0  0  0  0  0
   -6.8229    0.1239  -22.6761 C   0  0  0  0  0  0  0  0  0  0  0  0
   -7.8361   -0.8953  -22.1994 C   0  0  0  0  0  0  0  0  0  0  0  0
   -8.8441   -0.9566  -23.2429 N   0  0  0  0  0  0  0  0  0  0  0  0
   -8.1854   -0.5772  -24.4463 C   0  0  0  0  0  0  0  0  0  0  0  0
   -8.4767   -0.9926  -25.6171 O   0  0  0  0  0  0  0  0  0  0  0  0
   -7.0802    0.4001  -24.1242 C   0  0  0  0  0  0  0  0  0  0  0  0
   -7.6786    1.7473  -24.3217 C   0  0  0  0  0  0  0  0  0  0  0  0
   -6.7440    2.8029  -24.6412 N   0  0  0  0  0  0  0  0  0  0  0  0
   -5.5990    2.4695  -25.3913 C   0  0  0  0  0  0  0  0  0  0  0  0
   -4.9319    3.3551  -25.9505 O   0  0  0  0  0  0  0  0  0  0  0  0
   -5.1421    1.0817  -25.5479 C   0  0  0  0  0  0  0  0  0  0  0  0
   -4.0040    0.7772  -26.3022 C   0  0  0  0  0  0  0  0  0  0  0  0
   -3.6605   -0.5629  -26.3909 C   0  0  0  0  0  0  0  0  0  0  0  0
   -4.3969   -1.5341  -25.7729 C   0  0  0  0  0  0  0  0  0  0  0  0
   -4.0317   -2.8333  -25.8813 F   0  0  0  0  0  0  0  0  0  0  0  0
   -5.5088   -1.2306  -25.0365 C   0  0  0  0  0  0  0  0  0  0  0  0
   -5.8780    0.1135  -24.9304 C   0  0  0  0  0  0  0  0  0  0  0  0
  -10.2045   -1.3168  -23.1103 C   0  0  0  0  0  0  0  0  0  0  0  0
  -10.6412   -2.5959  -22.8343 C   0  0  0  0  0  0  0  0  0  0  0  0
  -11.9550   -2.8943  -22.7165 N   0  0  0  0  0  0  0  0  0  0  0  0
  -12.8980   -1.9269  -22.8691 C   0  0  0  0  0  0  0  0  0  0  0  0
  -12.4960   -0.6328  -23.1466 C   0  0  0  0  0  0  0  0  0  0  0  0
  -13.4126    0.3824  -23.3100 C   0  0  0  0  0  0  0  0  0  0  0  0
  -13.0219    1.6732  -23.5864 C   0  0  0  0  0  0  0  0  0  0  0  0
  -11.6809    2.0126  -23.7136 C   0  0  0  0  0  0  0  0  0  0  0  0
  -10.7590    0.9787  -23.5467 C   0  0  0  0  0  0  0  0  0  0  0  0
  -11.1571   -0.3110  -23.2703 C   0  0  0  0  0  0  0  0  0  0  0  0
   -7.0622    4.1328  -24.1668 C   0  0  0  0  0  0  0  0  0  0  0  0
   -8.3628    4.6486  -24.6321 C   0  0  0  0  0  0  0  0  0  0  0  0
   -9.3728    5.0278  -23.7469 C   0  0  0  0  0  0  0  0  0  0  0  0
  -10.4662    5.4799  -24.4813 C   0  0  0  0  0  0  0  0  0  0  0  0
  -10.0966    5.3651  -25.7773 N   0  0  0  0  0  0  0  0  0  0  0  0
   -8.8587    4.8754  -25.8400 N   0  0  0  0  0  0  0  0  0  0  0  0
   -8.1837    4.6483  -27.0993 C   0  0  0  0  0  0  0  0  0  0  0  0
  2  1  1  0  0  0
  2  3  1  0  0  0
  3  4  1  0  0  0
  4 19  1  0  0  0
  4  5  1  0  0  0
 19 20  2  0  0  0
 20 21  1  0  0  0
 21 22  2  0  0  0
 22 23  1  0  0  0
 23 24  2  0  0  0
 24 25  1  0  0  0
 25 26  2  0  0  0
 26 27  1  0  0  0
 27 28  2  0  0  0
 28 19  1  0  0  0
 28 23  1  0  0  0
  5  6  2  0  0  0
  7  5  1  0  0  0
  7  8  1  0  0  0
  7  2  1  0  0  0
  8  9  1  0  0  0
  9 29  1  0  0  0
  9 10  1  0  0  0
 29 30  1  0  0  0
 30 31  2  0  0  0
 31 32  1  0  0  0
 32 33  2  0  0  0
 33 34  1  0  0  0
 34 35  1  0  0  0
 34 30  1  0  0  0
 10 11  2  0  0  0
 10 12  1  0  0  0
 12 13  2  0  0  0
 13 14  1  0  0  0
 14 15  2  0  0  0
 15 16  1  0  0  0
 15 17  1  0  0  0
 17 18  2  0  0  0
 18 12  1  0  0  0
 18  7  1  0  0  0
M  END
> <minimizedAffinity>
-6.53192

> <CNNscore>
0.1416620761

> <CNNaffinity>
5.6526985168

> <CNN_VS>
0.8007730246

> <CNNaffinity_variance>
0.3099342585

$$$$



 35 40  0  0  0  0  0  0  0  0999 V2000
   -7.2552    2.6371  -22.2726 C   0  0  0  0  0  0  0  0  0  0  0  0
   -6.8107    1.7483  -23.3979 C   0  0  0  0  0  0  0  0  0  0  0  0
   -7.2411    0.3400  -23.0457 C   0  0  0  0  0  0  0  0  0  0  0  0
   -8.2920    0.0083  -23.9913 N   0  0  0  0  0  0  0  0  0  0  0  0
   -8.0408    0.7978  -25.1487 C   0  0  0  0  0  0  0  0  0  0  0  0
   -8.3233    0.4701  -26.3490 O   0  0  0  0  0  0  0  0  0  0  0  0
   -7.3836    2.0935  -24.7366 C   0  0  0  0  0  0  0  0  0  0  0  0
   -8.4945    3.0748  -24.6148 C   0  0  0  0  0  0  0  0  0  0  0  0
   -8.1245    4.4601  -24.7997 N   0  0  0  0  0  0  0  0  0  0  0  0
   -7.0769    4.7522  -25.6952 C   0  0  0  0  0  0  0  0  0  0  0  0
   -6.9184    5.9065  -26.1248 O   0  0  0  0  0  0  0  0  0  0  0  0
   -6.1338    3.7253  -26.1588 C   0  0  0  0  0  0  0  0  0  0  0  0
   -5.1046    4.0410  -27.0523 C   0  0  0  0  0  0  0  0  0  0  0  0
   -4.2720    2.9992  -27.4306 C   0  0  0  0  0  0  0  0  0  0  0  0
   -4.4494    1.7307  -26.9545 C   0  0  0  0  0  0  0  0  0  0  0  0
   -3.6168    0.7374  -27.3459 F   0  0  0  0  0  0  0  0  0  0  0  0
   -5.4574    1.4276  -26.0810 C   0  0  0  0  0  0  0  0  0  0  0  0
   -6.3120    2.4597  -25.6826 C   0  0  0  0  0  0  0  0  0  0  0  0
   -9.3544   -0.9075  -23.8166 C   0  0  0  0  0  0  0  0  0  0  0  0
   -9.1963   -2.2777  -23.7904 C   0  0  0  0  0  0  0  0  0  0  0  0
  -10.2434   -3.1164  -23.6206 N   0  0  0  0  0  0  0  0  0  0  0  0
  -11.5022   -2.6256  -23.4686 C   0  0  0  0  0  0  0  0  0  0  0  0
  -11.6979   -1.2564  -23.4898 C   0  0  0  0  0  0  0  0  0  0  0  0
  -12.9535   -0.7100  -23.3402 C   0  0  0  0  0  0  0  0  0  0  0  0
  -13.1578    0.6512  -23.3599 C   0  0  0  0  0  0  0  0  0  0  0  0
  -12.1039    1.5395  -23.5322 C   0  0  0  0  0  0  0  0  0  0  0  0
  -10.8355    0.9781  -23.6831 C   0  0  0  0  0  0  0  0  0  0  0  0
  -10.6382   -0.3852  -23.6624 C   0  0  0  0  0  0  0  0  0  0  0  0
   -8.8689    5.4485  -24.0486 C   0  0  0  0  0  0  0  0  0  0  0  0
  -10.3161    5.4625  -24.3308 C   0  0  0  0  0  0  0  0  0  0  0  0
  -11.2644    5.0972  -23.3744 C   0  0  0  0  0  0  0  0  0  0  0  0
  -12.5344    5.2233  -23.9313 C   0  0  0  0  0  0  0  0  0  0  0  0
  -12.3273    5.6565  -25.1958 N   0  0  0  0  0  0  0  0  0  0  0  0
  -11.0180    5.7895  -25.4063 N   0  0  0  0  0  0  0  0  0  0  0  0
  -10.4844    6.2477  -26.6705 C   0  0  0  0  0  0  0  0  0  0  0  0
  2  1  1  0  0  0
  2  3  1  0  0  0
  3  4  1  0  0  0
  4 19  1  0  0  0
  4  5  1  0  0  0
 19 20  2  0  0  0
 20 21  1  0  0  0
 21 22  2  0  0  0
 22 23  1  0  0  0
 23 24  2  0  0  0
 24 25  1  0  0  0
 25 26  2  0  0  0
 26 27  1  0  0  0
 27 28  2  0  0  0
 28 19  1  0  0  0
 28 23  1  0  0  0
  5  6  2  0  0  0
  7  5  1  0  0  0
  7  8  1  0  0  0
  7  2  1  0  0  0
  8  9  1  0  0  0
  9 29  1  0  0  0
  9 10  1  0  0  0
 29 30  1  0  0  0
 30 31  2  0  0  0
 31 32  1  0  0  0
 32 33  2  0  0  0
 33 34  1  0  0  0
 34 35  1  0  0  0
 34 30  1  0  0  0
 10 11  2  0  0  0
 10 12  1  0  0  0
 12 13  2  0  0  0
 13 14  1  0  0  0
 14 15  2  0  0  0
 15 16  1  0  0  0
 15 17  1  0  0  0
 17 18  2  0  0  0
 18 12  1  0  0  0
 18  7  1  0  0  0
M  END
> <minimizedAffinity>
-6.46087

> <CNNscore>
0.1200707853

> <CNNaffinity>
5.5936155319

> <CNN_VS>
0.6716297865

> <CNNaffinity_variance>
0.1819287986

$$$$



 35 40  0  0  0  0  0  0  0  0999 V2000
   -8.5135   -0.3195  -21.6278 C   0  0  0  0  0  0  0  0  0  0  0  0
   -8.7642    0.9085  -22.4543 C   0  0  0  0  0  0  0  0  0  0  0  0
   -7.4116    1.4344  -22.8865 C   0  0  0  0  0  0  0  0  0  0  0  0
   -7.3483    1.2089  -24.3196 N   0  0  0  0  0  0  0  0  0  0  0  0
   -8.6967    1.2069  -24.7756 C   0  0  0  0  0  0  0  0  0  0  0  0
   -9.0934    1.5854  -25.9277 O   0  0  0  0  0  0  0  0  0  0  0  0
   -9.5940    0.6841  -23.6792 C   0  0  0  0  0  0  0  0  0  0  0  0
   -9.7582   -0.7660  -23.9654 C   0  0  0  0  0  0  0  0  0  0  0  0
  -10.9689   -1.3684  -23.4542 N   0  0  0  0  0  0  0  0  0  0  0  0
  -12.1281   -0.5706  -23.3860 C   0  0  0  0  0  0  0  0  0  0  0  0
  -13.2464   -1.0938  -23.2531 O   0  0  0  0  0  0  0  0  0  0  0  0
  -12.0755    0.8956  -23.4663 C   0  0  0  0  0  0  0  0  0  0  0  0
  -13.2424    1.6645  -23.4006 C   0  0  0  0  0  0  0  0  0  0  0  0
  -13.0841    3.0388  -23.4900 C   0  0  0  0  0  0  0  0  0  0  0  0
  -11.8513    3.6103  -23.6351 C   0  0  0  0  0  0  0  0  0  0  0  0
  -11.7344    4.9566  -23.7193 F   0  0  0  0  0  0  0  0  0  0  0  0
  -10.7137    2.8538  -23.6987 C   0  0  0  0  0  0  0  0  0  0  0  0
  -10.8445    1.4647  -23.6109 C   0  0  0  0  0  0  0  0  0  0  0  0
   -6.1947    1.0268  -25.1157 C   0  0  0  0  0  0  0  0  0  0  0  0
   -5.6941   -0.2063  -25.4790 C   0  0  0  0  0  0  0  0  0  0  0  0
   -4.5854   -0.3324  -26.2431 N   0  0  0  0  0  0  0  0  0  0  0  0
   -3.9218    0.7700  -26.6822 C   0  0  0  0  0  0  0  0  0  0  0  0
   -4.3956    2.0229  -26.3369 C   0  0  0  0  0  0  0  0  0  0  0  0
   -3.7589    3.1700  -26.7566 C   0  0  0  0  0  0  0  0  0  0  0  0
   -4.2231    4.4210  -26.4180 C   0  0  0  0  0  0  0  0  0  0  0  0
   -5.3587    4.5848  -25.6350 C   0  0  0  0  0  0  0  0  0  0  0  0
   -5.9976    3.4181  -25.2140 C   0  0  0  0  0  0  0  0  0  0  0  0
   -5.5275    2.1692  -25.5565 C   0  0  0  0  0  0  0  0  0  0  0  0
  -10.8975   -2.7575  -23.0540 C   0  0  0  0  0  0  0  0  0  0  0  0
  -10.1291   -3.6160  -23.9742 C   0  0  0  0  0  0  0  0  0  0  0  0
  -10.6601   -4.0777  -25.1793 C   0  0  0  0  0  0  0  0  0  0  0  0
   -9.6982   -4.8489  -25.8267 C   0  0  0  0  0  0  0  0  0  0  0  0
   -8.6213   -4.8357  -25.0084 N   0  0  0  0  0  0  0  0  0  0  0  0
   -8.8985   -4.1057  -23.9283 N   0  0  0  0  0  0  0  0  0  0  0  0
   -7.9332   -3.8988  -22.8708 C   0  0  0  0  0  0  0  0  0  0  0  0
  2  1  1  0  0  0
  2  3  1  0  0  0
  3  4  1  0  0  0
  4 19  1  0  0  0
  4  5  1  0  0  0
 19 20  2  0  0  0
 20 21  1  0  0  0
 21 22  2  0  0  0
 22 23  1  0  0  0
 23 24  2  0  0  0
 24 25  1  0  0  0
 25 26  2  0  0  0
 26 27  1  0  0  0
 27 28  2  0  0  0
 28 19  1  0  0  0
 28 23  1  0  0  0
  5  6  2  0  0  0
  7  5  1  0  0  0
  7  8  1  0  0  0
  7  2  1  0  0  0
  8  9  1  0  0  0
  9 29  1  0  0  0
  9 10  1  0  0  0
 29 30  1  0  0  0
 30 31  2  0  0  0
 31 32  1  0  0  0
 32 33  2  0  0  0
 33 34  1  0  0  0
 34 35  1  0  0  0
 34 30  1  0  0  0
 10 11  2  0  0  0
 10 12  1  0  0  0
 12 13  2  0  0  0
 13 14  1  0  0  0
 14 15  2  0  0  0
 15 16  1  0  0  0
 15 17  1  0  0  0
 17 18  2  0  0  0
 18 12  1  0  0  0
 18  7  1  0  0  0
M  END
> <minimizedAffinity>
-7.27239

> <CNNscore>
0.1044611707

> <CNNaffinity>
5.7890763283

> <CNN_VS>
0.6047337055

> <CNNaffinity_variance>
0.1972385943

$$$$



 22 24  0  0  0  0  0  0  0  0999 V2000
   -8.1833   -0.6234  -25.8036 O   0  0  0  0  0  0  0  0  0  0  0  0
   -8.5503   -1.4695  -24.9418 C   0  0  0  0  0  0  0  0  0  0  0  0
   -8.5855   -2.8326  -25.3329 N   0  0  0  0  0  0  0  0  0  0  0  0
   -8.1765   -3.1474  -26.6878 C   0  0  0  0  0  0  0  0  0  0  0  0
   -8.9689   -4.3316  -27.1856 C   0  0  0  0  0  0  0  0  0  0  0  0
   -8.7732   -5.5319  -26.3109 C   0  0  0  0  0  0  0  0  0  0  0  0
   -8.4100   -5.2222  -24.8950 C   0  0  0  0  0  0  0  0  0  0  0  0
   -9.0137   -3.8903  -24.4351 C   0  0  0  0  0  0  0  0  0  0  0  0
  -10.0037   -6.4335  -26.3019 C   0  0  0  0  0  0  0  0  0  0  0  0
   -9.6220   -7.7531  -26.2272 F   0  0  0  0  0  0  0  0  0  0  0  0
  -10.7005   -6.2416  -27.4887 F   0  0  0  0  0  0  0  0  0  0  0  0
   -8.9208   -0.9997  -23.5765 C   0  0  0  0  0  0  0  0  0  0  0  0
  -10.1990   -0.2338  -23.6054 C   0  0  0  0  0  0  0  0  0  0  0  0
  -10.2179    1.1086  -23.9953 C   0  0  0  0  0  0  0  0  0  0  0  0
  -11.3637    1.8190  -24.0410 N   0  0  0  0  0  0  0  0  0  0  0  0
  -12.5269    1.2358  -23.7061 C   0  0  0  0  0  0  0  0  0  0  0  0
  -12.5878   -0.0983  -23.3068 C   0  0  0  0  0  0  0  0  0  0  0  0
  -13.8080   -0.6384  -22.9705 C   0  0  0  0  0  0  0  0  0  0  0  0
  -13.8444   -1.9654  -22.5708 C   0  0  0  0  0  0  0  0  0  0  0  0
  -12.6844   -2.7138  -22.5163 C   0  0  0  0  0  0  0  0  0  0  0  0
  -11.4578   -2.1463  -22.8616 C   0  0  0  0  0  0  0  0  0  0  0  0
  -11.4042   -0.8123  -23.2656 C   0  0  0  0  0  0  0  0  0  0  0  0
  1  2  2  0  0  0
  2 12  1  0  0  0
  2  3  1  0  0  0
 12 13  1  0  0  0
 13 14  2  0  0  0
 14 15  1  0  0  0
 15 16  2  0  0  0
 16 17  1  0  0  0
 17 18  2  0  0  0
 18 19  1  0  0  0
 19 20  2  0  0  0
 20 21  1  0  0  0
 21 22  2  0  0  0
 22 13  1  0  0  0
 22 17  1  0  0  0
  3  4  1  0  0  0
  4  5  1  0  0  0
  5  6  1  0  0  0
  6  9  1  0  0  0
  6  7  1  0  0  0
  9 10  1  0  0  0
  9 11  1  0  0  0
  7  8  1  0  0  0
  8  3  1  0  0  0
M  END
> <minimizedAffinity>
-5.94652

> <CNNscore>
0.7082560062

> <CNNaffinity>
5.1087341309

> <CNN_VS>
3.6182916164

> <CNNaffinity_variance>
0.1710943133

$$$$



 22 24  0  0  0  0  0  0  0  0999 V2000
   -5.0859   -3.7098  -20.3932 O   0  0  0  0  0  0  0  0  0  0  0  0
   -5.8725   -3.4440  -21.3439 C   0  0  0  0  0  0  0  0  0  0  0  0
   -6.2244   -4.5021  -22.2208 N   0  0  0  0  0  0  0  0  0  0  0  0
   -5.6674   -5.8114  -21.9418 C   0  0  0  0  0  0  0  0  0  0  0  0
   -5.4423   -6.5451  -23.2414 C   0  0  0  0  0  0  0  0  0  0  0  0
   -6.7158   -6.6963  -24.0158 C   0  0  0  0  0  0  0  0  0  0  0  0
   -7.7449   -5.6489  -23.7393 C   0  0  0  0  0  0  0  0  0  0  0  0
   -7.1011   -4.3098  -23.3620 C   0  0  0  0  0  0  0  0  0  0  0  0
   -6.4638   -6.7328  -25.5198 C   0  0  0  0  0  0  0  0  0  0  0  0
   -7.6391   -6.9823  -26.1899 F   0  0  0  0  0  0  0  0  0  0  0  0
   -5.5720   -7.7627  -25.7934 F   0  0  0  0  0  0  0  0  0  0  0  0
   -6.3851   -2.0523  -21.4932 C   0  0  0  0  0  0  0  0  0  0  0  0
   -5.9242   -1.1913  -20.3674 C   0  0  0  0  0  0  0  0  0  0  0  0
   -6.5232   -1.2826  -19.1076 C   0  0  0  0  0  0  0  0  0  0  0  0
   -6.1155   -0.5228  -18.0703 N   0  0  0  0  0  0  0  0  0  0  0  0
   -5.1077    0.3503  -18.2353 C   0  0  0  0  0  0  0  0  0  0  0  0
   -4.4616    0.4982  -19.4616 C   0  0  0  0  0  0  0  0  0  0  0  0
   -3.4394    1.4131  -19.5705 C   0  0  0  0  0  0  0  0  0  0  0  0
   -2.8149    1.5477  -20.8008 C   0  0  0  0  0  0  0  0  0  0  0  0
   -3.2143    0.7804  -21.8782 C   0  0  0  0  0  0  0  0  0  0  0  0
   -4.2529   -0.1413  -21.7457 C   0  0  0  0  0  0  0  0  0  0  0  0
   -4.8918   -0.2885  -20.5145 C   0  0  0  0  0  0  0  0  0  0  0  0
  1  2  2  0  0  0
  2 12  1  0  0  0
  2  3  1  0  0  0
 12 13  1  0  0  0
 13 14  2  0  0  0
 14 15  1  0  0  0
 15 16  2  0  0  0
 16 17  1  0  0  0
 17 18  2  0  0  0
 18 19  1  0  0  0
 19 20  2  0  0  0
 20 21  1  0  0  0
 21 22  2  0  0  0
 22 13  1  0  0  0
 22 17  1  0  0  0
  3  4  1  0  0  0
  4  5  1  0  0  0
  5  6  1  0  0  0
  6  9  1  0  0  0
  6  7  1  0  0  0
  9 10  1  0  0  0
  9 11  1  0  0  0
  7  8  1  0  0  0
  8  3  1  0  0  0
M  END
> <minimizedAffinity>
-7.52585

> <CNNscore>
0.7076798081

> <CNNaffinity>
5.1187419891

> <CNN_VS>
3.6224303246

> <CNNaffinity_variance>
0.3640929759

$$$$



 22 24  0  0  0  0  0  0  0  0999 V2000
   -8.1444   -1.4200  -21.3023 O   0  0  0  0  0  0  0  0  0  0  0  0
   -7.4272   -2.2553  -21.9197 C   0  0  0  0  0  0  0  0  0  0  0  0
   -7.9563   -2.8254  -23.1061 N   0  0  0  0  0  0  0  0  0  0  0  0
   -9.2729   -2.3865  -23.5261 C   0  0  0  0  0  0  0  0  0  0  0  0
   -9.9858   -3.5292  -24.2073 C   0  0  0  0  0  0  0  0  0  0  0  0
   -9.2200   -4.0260  -25.3951 C   0  0  0  0  0  0  0  0  0  0  0  0
   -7.7451   -3.7950  -25.3305 C   0  0  0  0  0  0  0  0  0  0  0  0
   -7.2330   -3.8137  -23.8858 C   0  0  0  0  0  0  0  0  0  0  0  0
   -9.4602   -5.5117  -25.6435 C   0  0  0  0  0  0  0  0  0  0  0  0
   -8.4396   -6.0348  -26.4035 F   0  0  0  0  0  0  0  0  0  0  0  0
  -10.6513   -5.6555  -26.3443 F   0  0  0  0  0  0  0  0  0  0  0  0
   -6.0798   -2.5934  -21.3793 C   0  0  0  0  0  0  0  0  0  0  0  0
   -5.6884   -1.6487  -20.2950 C   0  0  0  0  0  0  0  0  0  0  0  0
   -6.1172   -1.8541  -18.9804 C   0  0  0  0  0  0  0  0  0  0  0  0
   -5.7662   -1.0201  -17.9801 N   0  0  0  0  0  0  0  0  0  0  0  0
   -4.9837    0.0415  -18.2371 C   0  0  0  0  0  0  0  0  0  0  0  0
   -4.5172    0.3122  -19.5224 C   0  0  0  0  0  0  0  0  0  0  0  0
   -3.7234    1.4180  -19.7244 C   0  0  0  0  0  0  0  0  0  0  0  0
   -3.2755    1.6712  -21.0117 C   0  0  0  0  0  0  0  0  0  0  0  0
   -3.6212    0.8313  -22.0528 C   0  0  0  0  0  0  0  0  0  0  0  0
   -4.4271   -0.2843  -21.8258 C   0  0  0  0  0  0  0  0  0  0  0  0
   -4.8863   -0.5529  -20.5363 C   0  0  0  0  0  0  0  0  0  0  0  0
  1  2  2  0  0  0
  2 12  1  0  0  0
  2  3  1  0  0  0
 12 13  1  0  0  0
 13 14  2  0  0  0
 14 15  1  0  0  0
 15 16  2  0  0  0
 16 17  1  0  0  0
 17 18  2  0  0  0
 18 19  1  0  0  0
 19 20  2  0  0  0
 20 21  1  0  0  0
 21 22  2  0  0  0
 22 13  1  0  0  0
 22 17  1  0  0  0
  3  4  1  0  0  0
  4  5  1  0  0  0
  5  6  1  0  0  0
  6  9  1  0  0  0
  6  7  1  0  0  0
  9 10  1  0  0  0
  9 11  1  0  0  0
  7  8  1  0  0  0
  8  3  1  0  0  0
M  END
> <minimizedAffinity>
-6.85150

> <CNNscore>
0.6212088466

> <CNNaffinity>
5.1024360657

> <CNN_VS>
3.1696784496

> <CNNaffinity_variance>
0.2755893767

$$$$



 22 24  0  0  0  0  0  0  0  0999 V2000
   -7.5847   -0.7850  -19.7029 O   0  0  0  0  0  0  0  0  0  0  0  0
   -6.9825   -1.3800  -20.6391 C   0  0  0  0  0  0  0  0  0  0  0  0
   -7.7423   -1.7495  -21.7786 N   0  0  0  0  0  0  0  0  0  0  0  0
   -9.1482   -1.3949  -21.7853 C   0  0  0  0  0  0  0  0  0  0  0  0
   -9.9246   -2.4478  -22.5381 C   0  0  0  0  0  0  0  0  0  0  0  0
   -9.4363   -2.5894  -23.9472 C   0  0  0  0  0  0  0  0  0  0  0  0
   -8.0090   -2.2006  -24.1573 C   0  0  0  0  0  0  0  0  0  0  0  0
   -7.1629   -2.4586  -22.9054 C   0  0  0  0  0  0  0  0  0  0  0  0
   -9.6271   -4.0085  -24.4733 C   0  0  0  0  0  0  0  0  0  0  0  0
   -8.6694   -4.2946  -25.4186 F   0  0  0  0  0  0  0  0  0  0  0  0
  -10.8781   -4.0932  -25.0720 F   0  0  0  0  0  0  0  0  0  0  0  0
   -5.5246   -1.6582  -20.5019 C   0  0  0  0  0  0  0  0  0  0  0  0
   -4.7454   -0.3901  -20.4240 C   0  0  0  0  0  0  0  0  0  0  0  0
   -4.5660    0.2632  -19.2012 C   0  0  0  0  0  0  0  0  0  0  0  0
   -3.8548    1.4052  -19.1035 N   0  0  0  0  0  0  0  0  0  0  0  0
   -3.2970    1.9426  -20.2014 C   0  0  0  0  0  0  0  0  0  0  0  0
   -3.4324    1.3494  -21.4555 C   0  0  0  0  0  0  0  0  0  0  0  0
   -2.8428    1.9500  -22.5442 C   0  0  0  0  0  0  0  0  0  0  0  0
   -2.9952    1.3459  -23.7826 C   0  0  0  0  0  0  0  0  0  0  0  0
   -3.7187    0.1756  -23.9082 C   0  0  0  0  0  0  0  0  0  0  0  0
   -4.3082   -0.4165  -22.7912 C   0  0  0  0  0  0  0  0  0  0  0  0
   -4.1645    0.1791  -21.5380 C   0  0  0  0  0  0  0  0  0  0  0  0
  1  2  2  0  0  0
  2 12  1  0  0  0
  2  3  1  0  0  0
 12 13  1  0  0  0
 13 14  2  0  0  0
 14 15  1  0  0  0
 15 16  2  0  0  0
 16 17  1  0  0  0
 17 18  2  0  0  0
 18 19  1  0  0  0
 19 20  2  0  0  0
 20 21  1  0  0  0
 21 22  2  0  0  0
 22 13  1  0  0  0
 22 17  1  0  0  0
  3  4  1  0  0  0
  4  5  1  0  0  0
  5  6  1  0  0  0
  6  9  1  0  0  0
  6  7  1  0  0  0
  9 10  1  0  0  0
  9 11  1  0  0  0
  7  8  1  0  0  0
  8  3  1  0  0  0
M  END
> <minimizedAffinity>
-6.15687

> <CNNscore>
0.5767536163

> <CNNaffinity>
4.8656754494

> <CNN_VS>
2.8062958717

> <CNNaffinity_variance>
0.3028760552

$$$$



 22 24  0  0  0  0  0  0  0  0999 V2000
   -7.5679    1.0394  -23.4646 O   0  0  0  0  0  0  0  0  0  0  0  0
   -7.8856   -0.1461  -23.1696 C   0  0  0  0  0  0  0  0  0  0  0  0
   -9.2336   -0.5360  -23.3774 N   0  0  0  0  0  0  0  0  0  0  0  0
  -10.1354    0.4545  -23.9324 C   0  0  0  0  0  0  0  0  0  0  0  0
  -11.5207    0.2360  -23.3745 C   0  0  0  0  0  0  0  0  0  0  0  0
  -12.0300   -1.1376  -23.6879 C   0  0  0  0  0  0  0  0  0  0  0  0
  -10.9673   -2.1684  -23.8897 C   0  0  0  0  0  0  0  0  0  0  0  0
   -9.7195   -1.8650  -23.0524 C   0  0  0  0  0  0  0  0  0  0  0  0
  -12.9897   -1.6445  -22.6162 C   0  0  0  0  0  0  0  0  0  0  0  0
  -12.9520   -3.0186  -22.5599 F   0  0  0  0  0  0  0  0  0  0  0  0
  -14.2785   -1.2514  -22.9556 F   0  0  0  0  0  0  0  0  0  0  0  0
   -6.8425   -1.0627  -22.6277 C   0  0  0  0  0  0  0  0  0  0  0  0
   -6.5342   -0.7375  -21.2062 C   0  0  0  0  0  0  0  0  0  0  0  0
   -7.3904   -1.1452  -20.1791 C   0  0  0  0  0  0  0  0  0  0  0  0
   -7.1266   -0.8735  -18.8844 N   0  0  0  0  0  0  0  0  0  0  0  0
   -6.0151   -0.1937  -18.5560 C   0  0  0  0  0  0  0  0  0  0  0  0
   -5.1139    0.2461  -19.5242 C   0  0  0  0  0  0  0  0  0  0  0  0
   -3.9956    0.9426  -19.1267 C   0  0  0  0  0  0  0  0  0  0  0  0
   -3.1160    1.3755  -20.1069 C   0  0  0  0  0  0  0  0  0  0  0  0
   -3.3642    1.1092  -21.4396 C   0  0  0  0  0  0  0  0  0  0  0  0
   -4.5041    0.4013  -21.8206 C   0  0  0  0  0  0  0  0  0  0  0  0
   -5.3994   -0.0409  -20.8466 C   0  0  0  0  0  0  0  0  0  0  0  0
  1  2  2  0  0  0
  2 12  1  0  0  0
  2  3  1  0  0  0
 12 13  1  0  0  0
 13 14  2  0  0  0
 14 15  1  0  0  0
 15 16  2  0  0  0
 16 17  1  0  0  0
 17 18  2  0  0  0
 18 19  1  0  0  0
 19 20  2  0  0  0
 20 21  1  0  0  0
 21 22  2  0  0  0
 22 13  1  0  0  0
 22 17  1  0  0  0
  3  4  1  0  0  0
  4  5  1  0  0  0
  5  6  1  0  0  0
  6  9  1  0  0  0
  6  7  1  0  0  0
  9 10  1  0  0  0
  9 11  1  0  0  0
  7  8  1  0  0  0
  8  3  1  0  0  0
M  END
> <minimizedAffinity>
-6.82534

> <CNNscore>
0.5026919246

> <CNNaffinity>
5.1443543434

> <CNN_VS>
2.5860254765

> <CNNaffinity_variance>
0.2284772843

$$$$



 22 24  0  0  0  0  0  0  0  0999 V2000
   -7.8507   -0.5805  -20.2900 O   0  0  0  0  0  0  0  0  0  0  0  0
   -7.2241   -0.0044  -21.2222 C   0  0  0  0  0  0  0  0  0  0  0  0
   -5.8617    0.3194  -20.9959 N   0  0  0  0  0  0  0  0  0  0  0  0
   -5.2914   -0.0565  -19.7169 C   0  0  0  0  0  0  0  0  0  0  0  0
   -4.2519    0.9616  -19.3157 C   0  0  0  0  0  0  0  0  0  0  0  0
   -3.1627    1.0687  -20.3386 C   0  0  0  0  0  0  0  0  0  0  0  0
   -3.5690    0.6956  -21.7273 C   0  0  0  0  0  0  0  0  0  0  0  0
   -5.0484    1.0034  -21.9852 C   0  0  0  0  0  0  0  0  0  0  0  0
   -2.5577    2.4684  -20.3780 C   0  0  0  0  0  0  0  0  0  0  0  0
   -2.3169    2.8426  -21.6798 F   0  0  0  0  0  0  0  0  0  0  0  0
   -1.3485    2.4464  -19.6937 F   0  0  0  0  0  0  0  0  0  0  0  0
   -7.9374    0.2998  -22.4952 C   0  0  0  0  0  0  0  0  0  0  0  0
   -9.0357   -0.6781  -22.7372 C   0  0  0  0  0  0  0  0  0  0  0  0
   -8.7865   -2.0533  -22.7056 C   0  0  0  0  0  0  0  0  0  0  0  0
   -9.7663   -2.9577  -22.9096 N   0  0  0  0  0  0  0  0  0  0  0  0
  -11.0212   -2.5424  -23.1507 C   0  0  0  0  0  0  0  0  0  0  0  0
  -11.3469   -1.1879  -23.1980 C   0  0  0  0  0  0  0  0  0  0  0  0
  -12.6490   -0.8240  -23.4548 C   0  0  0  0  0  0  0  0  0  0  0  0
  -12.9492    0.5286  -23.5030 C   0  0  0  0  0  0  0  0  0  0  0  0
  -11.9630    1.4740  -23.2971 C   0  0  0  0  0  0  0  0  0  0  0  0
  -10.6493    1.0830  -23.0382 C   0  0  0  0  0  0  0  0  0  0  0  0
  -10.3307   -0.2741  -22.9867 C   0  0  0  0  0  0  0  0  0  0  0  0
  1  2  2  0  0  0
  2 12  1  0  0  0
  2  3  1  0  0  0
 12 13  1  0  0  0
 13 14  2  0  0  0
 14 15  1  0  0  0
 15 16  2  0  0  0
 16 17  1  0  0  0
 17 18  2  0  0  0
 18 19  1  0  0  0
 19 20  2  0  0  0
 20 21  1  0  0  0
 21 22  2  0  0  0
 22 13  1  0  0  0
 22 17  1  0  0  0
  3  4  1  0  0  0
  4  5  1  0  0  0
  5  6  1  0  0  0
  6  9  1  0  0  0
  6  7  1  0  0  0
  9 10  1  0  0  0
  9 11  1  0  0  0
  7  8  1  0  0  0
  8  3  1  0  0  0
M  END
> <minimizedAffinity>
-6.50234

> <CNNscore>
0.4468283355

> <CNNaffinity>
4.8214621544

> <CNN_VS>
2.1543660164

> <CNNaffinity_variance>
0.1275645047

$$$$



 22 24  0  0  0  0  0  0  0  0999 V2000
   -8.5904   -0.5658  -25.4499 O   0  0  0  0  0  0  0  0  0  0  0  0
   -8.8474   -1.4283  -24.5648 C   0  0  0  0  0  0  0  0  0  0  0  0
   -8.6529   -2.7927  -24.9009 N   0  0  0  0  0  0  0  0  0  0  0  0
   -8.1539   -3.0865  -26.2302 C   0  0  0  0  0  0  0  0  0  0  0  0
   -8.7314   -4.3990  -26.7010 C   0  0  0  0  0  0  0  0  0  0  0  0
   -8.3774   -5.5206  -25.7730 C   0  0  0  0  0  0  0  0  0  0  0  0
   -8.1157   -5.1064  -24.3615 C   0  0  0  0  0  0  0  0  0  0  0  0
   -8.9379   -3.8723  -23.9729 C   0  0  0  0  0  0  0  0  0  0  0  0
   -9.4490   -6.6061  -25.7612 C   0  0  0  0  0  0  0  0  0  0  0  0
   -9.1982   -7.5284  -26.7508 F   0  0  0  0  0  0  0  0  0  0  0  0
  -10.6808   -6.0137  -26.0113 F   0  0  0  0  0  0  0  0  0  0  0  0
   -9.3333   -0.9751  -23.2305 C   0  0  0  0  0  0  0  0  0  0  0  0
  -10.7977   -0.6995  -23.2623 C   0  0  0  0  0  0  0  0  0  0  0  0
  -11.7222   -1.7311  -23.0744 C   0  0  0  0  0  0  0  0  0  0  0  0
  -13.0518   -1.5045  -23.0868 N   0  0  0  0  0  0  0  0  0  0  0  0
  -13.5170   -0.2595  -23.2837 C   0  0  0  0  0  0  0  0  0  0  0  0
  -12.6571    0.8202  -23.4788 C   0  0  0  0  0  0  0  0  0  0  0  0
  -13.1932    2.0713  -23.6811 C   0  0  0  0  0  0  0  0  0  0  0  0
  -12.3197    3.1295  -23.8787 C   0  0  0  0  0  0  0  0  0  0  0  0
  -10.9537    2.9227  -23.8700 C   0  0  0  0  0  0  0  0  0  0  0  0
  -10.4314    1.6459  -23.6631 C   0  0  0  0  0  0  0  0  0  0  0  0
  -11.2970    0.5705  -23.4630 C   0  0  0  0  0  0  0  0  0  0  0  0
  1  2  2  0  0  0
  2 12  1  0  0  0
  2  3  1  0  0  0
 12 13  1  0  0  0
 13 14  2  0  0  0
 14 15  1  0  0  0
 15 16  2  0  0  0
 16 17  1  0  0  0
 17 18  2  0  0  0
 18 19  1  0  0  0
 19 20  2  0  0  0
 20 21  1  0  0  0
 21 22  2  0  0  0
 22 13  1  0  0  0
 22 17  1  0  0  0
  3  4  1  0  0  0
  4  5  1  0  0  0
  5  6  1  0  0  0
  6  9  1  0  0  0
  6  7  1  0  0  0
  9 10  1  0  0  0
  9 11  1  0  0  0
  7  8  1  0  0  0
  8  3  1  0  0  0
M  END
> <minimizedAffinity>
-6.19086

> <CNNscore>
0.3597750664

> <CNNaffinity>
4.9403600693

> <CNN_VS>
1.7774183750

> <CNNaffinity_variance>
0.3208408952

$$$$



 22 24  0  0  0  0  0  0  0  0999 V2000
   -9.3014   -1.1766  -21.7687 O   0  0  0  0  0  0  0  0  0  0  0  0
   -8.2870   -0.5357  -22.1603 C   0  0  0  0  0  0  0  0  0  0  0  0
   -8.5024    0.7283  -22.7670 N   0  0  0  0  0  0  0  0  0  0  0  0
   -9.8721    1.1928  -22.8701 C   0  0  0  0  0  0  0  0  0  0  0  0
  -10.0260    2.0174  -24.1249 C   0  0  0  0  0  0  0  0  0  0  0  0
   -9.0963    3.1921  -24.1291 C   0  0  0  0  0  0  0  0  0  0  0  0
   -7.8553    3.0113  -23.3167 C   0  0  0  0  0  0  0  0  0  0  0  0
   -7.4147    1.5437  -23.2771 C   0  0  0  0  0  0  0  0  0  0  0  0
   -8.6871    3.5860  -25.5448 C   0  0  0  0  0  0  0  0  0  0  0  0
   -7.6144    4.4465  -25.5044 F   0  0  0  0  0  0  0  0  0  0  0  0
   -9.7551    4.2393  -26.1477 F   0  0  0  0  0  0  0  0  0  0  0  0
   -6.9342   -1.1307  -21.9663 C   0  0  0  0  0  0  0  0  0  0  0  0
   -6.3288   -0.6708  -20.6844 C   0  0  0  0  0  0  0  0  0  0  0  0
   -6.9014   -1.0219  -19.4584 C   0  0  0  0  0  0  0  0  0  0  0  0
   -6.3651   -0.6279  -18.2850 N   0  0  0  0  0  0  0  0  0  0  0  0
   -5.2506    0.1225  -18.2767 C   0  0  0  0  0  0  0  0  0  0  0  0
   -4.6227    0.5126  -19.4585 C   0  0  0  0  0  0  0  0  0  0  0  0
   -3.4868    1.2860  -19.3860 C   0  0  0  0  0  0  0  0  0  0  0  0
   -2.8822    1.6673  -20.5739 C   0  0  0  0  0  0  0  0  0  0  0  0
   -3.4124    1.2760  -21.7882 C   0  0  0  0  0  0  0  0  0  0  0  0
   -4.5649    0.4918  -21.8388 C   0  0  0  0  0  0  0  0  0  0  0  0
   -5.1855    0.1001  -20.6525 C   0  0  0  0  0  0  0  0  0  0  0  0
  1  2  2  0  0  0
  2 12  1  0  0  0
  2  3  1  0  0  0
 12 13  1  0  0  0
 13 14  2  0  0  0
 14 15  1  0  0  0
 15 16  2  0  0  0
 16 17  1  0  0  0
 17 18  2  0  0  0
 18 19  1  0  0  0
 19 20  2  0  0  0
 20 21  1  0  0  0
 21 22  2  0  0  0
 22 13  1  0  0  0
 22 17  1  0  0  0
  3  4  1  0  0  0
  4  5  1  0  0  0
  5  6  1  0  0  0
  6  9  1  0  0  0
  6  7  1  0  0  0
  9 10  1  0  0  0
  9 11  1  0  0  0
  7  8  1  0  0  0
  8  3  1  0  0  0
M  END
> <minimizedAffinity>
-5.89988

> <CNNscore>
0.3570354283

> <CNNaffinity>
4.7414641380

> <CNN_VS>
1.6928707361

> <CNNaffinity_variance>
0.0256841592

$$$$



 22 24  0  0  0  0  0  0  0  0999 V2000
   -7.2600   -1.1819  -18.9401 O   0  0  0  0  0  0  0  0  0  0  0  0
   -7.0481   -0.7754  -20.1162 C   0  0  0  0  0  0  0  0  0  0  0  0
   -5.7884   -0.1832  -20.3896 N   0  0  0  0  0  0  0  0  0  0  0  0
   -4.8358   -0.1109  -19.2989 C   0  0  0  0  0  0  0  0  0  0  0  0
   -3.9961    1.1339  -19.4517 C   0  0  0  0  0  0  0  0  0  0  0  0
   -3.2641    1.1471  -20.7588 C   0  0  0  0  0  0  0  0  0  0  0  0
   -3.9160    0.3608  -21.8494 C   0  0  0  0  0  0  0  0  0  0  0  0
   -5.4413    0.3417  -21.6980 C   0  0  0  0  0  0  0  0  0  0  0  0
   -3.0346    2.5674  -21.2656 C   0  0  0  0  0  0  0  0  0  0  0  0
   -4.2294    3.2470  -21.3239 F   0  0  0  0  0  0  0  0  0  0  0  0
   -2.5026    2.4985  -22.5474 F   0  0  0  0  0  0  0  0  0  0  0  0
   -8.1164   -0.9380  -21.1429 C   0  0  0  0  0  0  0  0  0  0  0  0
   -7.8917   -2.1671  -21.9554 C   0  0  0  0  0  0  0  0  0  0  0  0
   -6.7127   -2.9059  -21.8206 C   0  0  0  0  0  0  0  0  0  0  0  0
   -6.4918   -4.0281  -22.5358 N   0  0  0  0  0  0  0  0  0  0  0  0
   -7.4199   -4.4613  -23.4055 C   0  0  0  0  0  0  0  0  0  0  0  0
   -8.6200   -3.7780  -23.5950 C   0  0  0  0  0  0  0  0  0  0  0  0
   -9.5296   -4.2678  -24.5042 C   0  0  0  0  0  0  0  0  0  0  0  0
  -10.7138   -3.5691  -24.6808 C   0  0  0  0  0  0  0  0  0  0  0  0
  -10.9633   -2.4174  -23.9596 C   0  0  0  0  0  0  0  0  0  0  0  0
  -10.0273   -1.9384  -23.0429 C   0  0  0  0  0  0  0  0  0  0  0  0
   -8.8305   -2.6297  -22.8538 C   0  0  0  0  0  0  0  0  0  0  0  0
  1  2  2  0  0  0
  2 12  1  0  0  0
  2  3  1  0  0  0
 12 13  1  0  0  0
 13 14  2  0  0  0
 14 15  1  0  0  0
 15 16  2  0  0  0
 16 17  1  0  0  0
 17 18  2  0  0  0
 18 19  1  0  0  0
 19 20  2  0  0  0
 20 21  1  0  0  0
 21 22  2  0  0  0
 22 13  1  0  0  0
 22 17  1  0  0  0
  3  4  1  0  0  0
  4  5  1  0  0  0
  5  6  1  0  0  0
  6  9  1  0  0  0
  6  7  1  0  0  0
  9 10  1  0  0  0
  9 11  1  0  0  0
  7  8  1  0  0  0
  8  3  1  0  0  0
M  END
> <minimizedAffinity>
-6.28611

> <CNNscore>
0.3417848945

> <CNNaffinity>
4.8481159210

> <CNN_VS>
1.6570128202

> <CNNaffinity_variance>
0.5342158079

$$$$



 21 23  0  0  0  0  0  0  0  0999 V2000
   -6.4577   -1.8423  -21.5214 C   0  0  0  0  0  0  0  0  0  0  0  0
   -6.0728   -6.6119  -25.3545 C   0  0  0  0  0  0  0  0  0  0  0  0
   -7.2064   -6.0396  -24.5272 C   0  0  0  0  0  0  0  0  0  0  0  0
   -8.4465   -6.8152  -24.9882 C   0  0  0  0  0  0  0  0  0  0  0  0
   -7.0623   -6.3755  -23.0684 C   0  0  0  0  0  0  0  0  0  0  0  0
   -5.9227   -5.5604  -22.5012 C   0  0  0  0  0  0  0  0  0  0  0  0
   -6.3687   -4.1782  -22.5723 N   0  0  0  0  0  0  0  0  0  0  0  0
   -5.9886   -3.2383  -21.5379 C   0  0  0  0  0  0  0  0  0  0  0  0
   -5.2216   -3.5911  -20.5954 O   0  0  0  0  0  0  0  0  0  0  0  0
   -7.1612   -3.6549  -23.6546 C   0  0  0  0  0  0  0  0  0  0  0  0
   -7.4602   -4.6015  -24.7618 C   0  0  0  0  0  0  0  0  0  0  0  0
   -6.0482   -1.0837  -20.3239 C   0  0  0  0  0  0  0  0  0  0  0  0
   -6.6903   -1.2245  -19.1183 C   0  0  0  0  0  0  0  0  0  0  0  0
   -6.2098   -0.4917  -18.0755 N   0  0  0  0  0  0  0  0  0  0  0  0
   -5.1581    0.3402  -18.1769 C   0  0  0  0  0  0  0  0  0  0  0  0
   -4.5007    0.4940  -19.3800 C   0  0  0  0  0  0  0  0  0  0  0  0
   -3.4253    1.3214  -19.5512 C   0  0  0  0  0  0  0  0  0  0  0  0
   -2.7647    1.4794  -20.7436 C   0  0  0  0  0  0  0  0  0  0  0  0
   -3.2162    0.7584  -21.8328 C   0  0  0  0  0  0  0  0  0  0  0  0
   -4.3095   -0.0907  -21.6819 C   0  0  0  0  0  0  0  0  0  0  0  0
   -4.9549   -0.2320  -20.4747 C   0  0  0  0  0  0  0  0  0  0  0  0
  2  3  1  0  0  0
  3  4  1  0  0  0
  3  5  1  0  0  0
  5  6  1  0  0  0
  6  7  1  0  0  0
  7  8  1  0  0  0
  7 10  1  0  0  0
  8  9  2  0  0  0
  8  1  1  0  0  0
  1 12  1  0  0  0
 12 13  2  0  0  0
 13 14  1  0  0  0
 14 15  2  0  0  0
 15 16  1  0  0  0
 16 17  2  0  0  0
 17 18  1  0  0  0
 18 19  2  0  0  0
 19 20  1  0  0  0
 20 21  2  0  0  0
 21 12  1  0  0  0
 21 16  1  0  0  0
 10 11  1  0  0  0
 11  3  1  0  0  0
M  END
> <minimizedAffinity>
-7.48502

> <CNNscore>
0.7201929092

> <CNNaffinity>
5.1476211548

> <CNN_VS>
3.7072801590

> <CNNaffinity_variance>
0.3202596307

$$$$



 21 23  0  0  0  0  0  0  0  0999 V2000
   -5.9586   -2.4850  -21.2433 C   0  0  0  0  0  0  0  0  0  0  0  0
   -9.6885   -4.8927  -25.4718 C   0  0  0  0  0  0  0  0  0  0  0  0
   -8.4360   -4.0440  -25.5612 C   0  0  0  0  0  0  0  0  0  0  0  0
   -8.0908   -4.0268  -27.0554 C   0  0  0  0  0  0  0  0  0  0  0  0
   -8.7056   -2.6063  -25.2117 C   0  0  0  0  0  0  0  0  0  0  0  0
   -8.9461   -2.5143  -23.7221 C   0  0  0  0  0  0  0  0  0  0  0  0
   -7.6760   -2.8654  -23.1074 N   0  0  0  0  0  0  0  0  0  0  0  0
   -7.2590   -2.2173  -21.8811 C   0  0  0  0  0  0  0  0  0  0  0  0
   -8.0150   -1.3842  -21.3019 O   0  0  0  0  0  0  0  0  0  0  0  0
   -6.7905   -3.8711  -23.6344 C   0  0  0  0  0  0  0  0  0  0  0  0
   -7.2743   -4.6021  -24.8357 C   0  0  0  0  0  0  0  0  0  0  0  0
   -5.6367   -1.5747  -20.1275 C   0  0  0  0  0  0  0  0  0  0  0  0
   -6.0815   -1.8047  -18.8489 C   0  0  0  0  0  0  0  0  0  0  0  0
   -5.7017   -0.9101  -17.8946 N   0  0  0  0  0  0  0  0  0  0  0  0
   -4.9272    0.1595  -18.1481 C   0  0  0  0  0  0  0  0  0  0  0  0
   -4.4708    0.4061  -19.4263 C   0  0  0  0  0  0  0  0  0  0  0  0
   -3.6799    1.4734  -19.7517 C   0  0  0  0  0  0  0  0  0  0  0  0
   -3.2204    1.7256  -21.0200 C   0  0  0  0  0  0  0  0  0  0  0  0
   -3.5807    0.8471  -22.0243 C   0  0  0  0  0  0  0  0  0  0  0  0
   -4.3852   -0.2469  -21.7162 C   0  0  0  0  0  0  0  0  0  0  0  0
   -4.8329   -0.4781  -20.4356 C   0  0  0  0  0  0  0  0  0  0  0  0
  2  3  1  0  0  0
  3  4  1  0  0  0
  3  5  1  0  0  0
  5  6  1  0  0  0
  6  7  1  0  0  0
  7  8  1  0  0  0
  7 10  1  0  0  0
  8  9  2  0  0  0
  8  1  1  0  0  0
  1 12  1  0  0  0
 12 13  2  0  0  0
 13 14  1  0  0  0
 14 15  2  0  0  0
 15 16  1  0  0  0
 16 17  2  0  0  0
 17 18  1  0  0  0
 18 19  2  0  0  0
 19 20  1  0  0  0
 20 21  2  0  0  0
 21 12  1  0  0  0
 21 16  1  0  0  0
 10 11  1  0  0  0
 11  3  1  0  0  0
M  END
> <minimizedAffinity>
-6.81599

> <CNNscore>
0.6433669329

> <CNNaffinity>
4.9708123207

> <CNN_VS>
3.1980562210

> <CNNaffinity_variance>
0.1704338044

$$$$



 21 23  0  0  0  0  0  0  0  0999 V2000
   -7.6465   -0.4321  -21.7419 C   0  0  0  0  0  0  0  0  0  0  0  0
   -5.4157   -1.4485  -27.3614 C   0  0  0  0  0  0  0  0  0  0  0  0
   -6.7767   -1.0186  -26.8518 C   0  0  0  0  0  0  0  0  0  0  0  0
   -7.5611   -0.6513  -28.1174 C   0  0  0  0  0  0  0  0  0  0  0  0
   -7.5378   -2.1658  -26.2465 C   0  0  0  0  0  0  0  0  0  0  0  0
   -6.8940   -2.5217  -24.9259 C   0  0  0  0  0  0  0  0  0  0  0  0
   -7.1184   -1.3691  -24.0682 N   0  0  0  0  0  0  0  0  0  0  0  0
   -7.3531   -1.5532  -22.6509 C   0  0  0  0  0  0  0  0  0  0  0  0
   -7.3099   -2.7074  -22.1341 O   0  0  0  0  0  0  0  0  0  0  0  0
   -7.0887   -0.0098  -24.5421 C   0  0  0  0  0  0  0  0  0  0  0  0
   -6.7461    0.1738  -25.9775 C   0  0  0  0  0  0  0  0  0  0  0  0
   -6.8343   -0.4277  -20.5099 C   0  0  0  0  0  0  0  0  0  0  0  0
   -7.1521   -1.2080  -19.4257 C   0  0  0  0  0  0  0  0  0  0  0  0
   -6.3163   -1.1406  -18.3524 N   0  0  0  0  0  0  0  0  0  0  0  0
   -5.2203   -0.3624  -18.3146 C   0  0  0  0  0  0  0  0  0  0  0  0
   -4.8853    0.4278  -19.3946 C   0  0  0  0  0  0  0  0  0  0  0  0
   -3.7854    1.2402  -19.4221 C   0  0  0  0  0  0  0  0  0  0  0  0
   -3.4439    2.0284  -20.4923 C   0  0  0  0  0  0  0  0  0  0  0  0
   -4.2625    1.9964  -21.6054 C   0  0  0  0  0  0  0  0  0  0  0  0
   -5.3879    1.1763  -21.6001 C   0  0  0  0  0  0  0  0  0  0  0  0
   -5.7085    0.3947  -20.5139 C   0  0  0  0  0  0  0  0  0  0  0  0
  2  3  1  0  0  0
  3  4  1  0  0  0
  3  5  1  0  0  0
  5  6  1  0  0  0
  6  7  1  0  0  0
  7  8  1  0  0  0
  7 10  1  0  0  0
  8  9  2  0  0  0
  8  1  1  0  0  0
  1 12  1  0  0  0
 12 13  2  0  0  0
 13 14  1  0  0  0
 14 15  2  0  0  0
 15 16  1  0  0  0
 16 17  2  0  0  0
 17 18  1  0  0  0
 18 19  2  0  0  0
 19 20  1  0  0  0
 20 21  2  0  0  0
 21 12  1  0  0  0
 21 16  1  0  0  0
 10 11  1  0  0  0
 11  3  1  0  0  0
M  END
> <minimizedAffinity>
-5.69571

> <CNNscore>
0.4007817209

> <CNNaffinity>
4.6923732758

> <CNN_VS>
1.8806173801

> <CNNaffinity_variance>
0.0778038353

$$$$



 21 23  0  0  0  0  0  0  0  0999 V2000
   -7.3031   -0.4656  -22.1669 C   0  0  0  0  0  0  0  0  0  0  0  0
   -7.6444   -6.4929  -23.2366 C   0  0  0  0  0  0  0  0  0  0  0  0
   -7.3510   -5.3005  -24.1249 C   0  0  0  0  0  0  0  0  0  0  0  0
   -6.9165   -5.9157  -25.4608 C   0  0  0  0  0  0  0  0  0  0  0  0
   -8.5956   -4.5202  -24.4469 C   0  0  0  0  0  0  0  0  0  0  0  0
   -9.0327   -3.7835  -23.2014 C   0  0  0  0  0  0  0  0  0  0  0  0
   -7.9822   -2.8117  -22.9434 N   0  0  0  0  0  0  0  0  0  0  0  0
   -8.3131   -1.5133  -22.3935 C   0  0  0  0  0  0  0  0  0  0  0  0
   -9.5057   -1.2303  -22.0793 O   0  0  0  0  0  0  0  0  0  0  0  0
   -6.5852   -3.0736  -23.1739 C   0  0  0  0  0  0  0  0  0  0  0  0
   -6.2463   -4.4438  -23.6418 C   0  0  0  0  0  0  0  0  0  0  0  0
   -6.7294   -0.4664  -20.8074 C   0  0  0  0  0  0  0  0  0  0  0  0
   -7.2752   -1.2064  -19.7875 C   0  0  0  0  0  0  0  0  0  0  0  0
   -6.6465   -1.1491  -18.5806 N   0  0  0  0  0  0  0  0  0  0  0  0
   -5.5408   -0.4178  -18.3551 C   0  0  0  0  0  0  0  0  0  0  0  0
   -4.9785    0.3314  -19.3678 C   0  0  0  0  0  0  0  0  0  0  0  0
   -3.8555    1.0952  -19.2064 C   0  0  0  0  0  0  0  0  0  0  0  0
   -3.2887    1.8423  -20.2083 C   0  0  0  0  0  0  0  0  0  0  0  0
   -3.8916    1.8188  -21.4517 C   0  0  0  0  0  0  0  0  0  0  0  0
   -5.0360    1.0479  -21.6395 C   0  0  0  0  0  0  0  0  0  0  0  0
   -5.5849    0.3068  -20.6182 C   0  0  0  0  0  0  0  0  0  0  0  0
  2  3  1  0  0  0
  3  4  1  0  0  0
  3  5  1  0  0  0
  5  6  1  0  0  0
  6  7  1  0  0  0
  7  8  1  0  0  0
  7 10  1  0  0  0
  8  9  2  0  0  0
  8  1  1  0  0  0
  1 12  1  0  0  0
 12 13  2  0  0  0
 13 14  1  0  0  0
 14 15  2  0  0  0
 15 16  1  0  0  0
 16 17  2  0  0  0
 17 18  1  0  0  0
 18 19  2  0  0  0
 19 20  1  0  0  0
 20 21  2  0  0  0
 21 12  1  0  0  0
 21 16  1  0  0  0
 10 11  1  0  0  0
 11  3  1  0  0  0
M  END
> <minimizedAffinity>
-6.60938

> <CNNscore>
0.4000193179

> <CNNaffinity>
5.0520415306

> <CNN_VS>
2.0209143162

> <CNNaffinity_variance>
0.2067108452

$$$$



 21 23  0  0  0  0  0  0  0  0999 V2000
   -5.4294   -1.2402  -23.0399 C   0  0  0  0  0  0  0  0  0  0  0  0
   -8.8815    2.5443  -26.4089 C   0  0  0  0  0  0  0  0  0  0  0  0
   -8.7267    2.3409  -24.9150 C   0  0  0  0  0  0  0  0  0  0  0  0
   -9.5241    3.4906  -24.2872 C   0  0  0  0  0  0  0  0  0  0  0  0
   -9.4174    1.0908  -24.4439 C   0  0  0  0  0  0  0  0  0  0  0  0
   -8.6257   -0.1029  -24.9269 C   0  0  0  0  0  0  0  0  0  0  0  0
   -7.3570   -0.0316  -24.2200 N   0  0  0  0  0  0  0  0  0  0  0  0
   -6.6844   -1.2474  -23.8108 C   0  0  0  0  0  0  0  0  0  0  0  0
   -7.1603   -2.3807  -24.1111 O   0  0  0  0  0  0  0  0  0  0  0  0
   -6.6850    1.2057  -23.9186 C   0  0  0  0  0  0  0  0  0  0  0  0
   -7.3324    2.4420  -24.4322 C   0  0  0  0  0  0  0  0  0  0  0  0
   -5.6140   -1.0283  -21.5913 C   0  0  0  0  0  0  0  0  0  0  0  0
   -6.5804   -1.6915  -20.8760 C   0  0  0  0  0  0  0  0  0  0  0  0
   -6.6423   -1.4349  -19.5398 N   0  0  0  0  0  0  0  0  0  0  0  0
   -5.8149   -0.5821  -18.9100 C   0  0  0  0  0  0  0  0  0  0  0  0
   -4.8380    0.0926  -19.6125 C   0  0  0  0  0  0  0  0  0  0  0  0
   -3.9644    0.9715  -19.0339 C   0  0  0  0  0  0  0  0  0  0  0  0
   -2.9889    1.6459  -19.7246 C   0  0  0  0  0  0  0  0  0  0  0  0
   -2.8872    1.4208  -21.0844 C   0  0  0  0  0  0  0  0  0  0  0  0
   -3.7660    0.5297  -21.6950 C   0  0  0  0  0  0  0  0  0  0  0  0
   -4.7358   -0.1348  -20.9797 C   0  0  0  0  0  0  0  0  0  0  0  0
  2  3  1  0  0  0
  3  4  1  0  0  0
  3  5  1  0  0  0
  5  6  1  0  0  0
  6  7  1  0  0  0
  7  8  1  0  0  0
  7 10  1  0  0  0
  8  9  2  0  0  0
  8  1  1  0  0  0
  1 12  1  0  0  0
 12 13  2  0  0  0
 13 14  1  0  0  0
 14 15  2  0  0  0
 15 16  1  0  0  0
 16 17  2  0  0  0
 17 18  1  0  0  0
 18 19  2  0  0  0
 19 20  1  0  0  0
 20 21  2  0  0  0
 21 12  1  0  0  0
 21 16  1  0  0  0
 10 11  1  0  0  0
 11  3  1  0  0  0
M  END
> <minimizedAffinity>
-5.35855

> <CNNscore>
0.3978218138

> <CNNaffinity>
4.5861511230

> <CNN_VS>
1.8244709969

> <CNNaffinity_variance>
0.1707859784

$$$$



 21 23  0  0  0  0  0  0  0  0999 V2000
   -8.9217    1.1217  -23.9614 C   0  0  0  0  0  0  0  0  0  0  0  0
   -5.3063    5.9027  -22.6729 C   0  0  0  0  0  0  0  0  0  0  0  0
   -5.0913    4.6279  -23.4639 C   0  0  0  0  0  0  0  0  0  0  0  0
   -3.7243    4.8179  -24.1326 C   0  0  0  0  0  0  0  0  0  0  0  0
   -4.9187    3.4330  -22.5673 C   0  0  0  0  0  0  0  0  0  0  0  0
   -6.2580    3.1028  -21.9489 C   0  0  0  0  0  0  0  0  0  0  0  0
   -7.0972    2.6785  -23.0580 N   0  0  0  0  0  0  0  0  0  0  0  0
   -8.0846    1.6368  -22.8645 C   0  0  0  0  0  0  0  0  0  0  0  0
   -8.2680    1.1256  -21.7216 O   0  0  0  0  0  0  0  0  0  0  0  0
   -7.0340    3.2665  -24.3709 C   0  0  0  0  0  0  0  0  0  0  0  0
   -6.0893    4.4036  -24.5322 C   0  0  0  0  0  0  0  0  0  0  0  0
  -10.3364    1.5337  -23.8836 C   0  0  0  0  0  0  0  0  0  0  0  0
  -10.7305    2.8298  -24.1079 C   0  0  0  0  0  0  0  0  0  0  0  0
  -12.0655    3.0891  -24.0333 N   0  0  0  0  0  0  0  0  0  0  0  0
  -12.9884    2.1504  -23.7581 C   0  0  0  0  0  0  0  0  0  0  0  0
  -12.6109    0.8433  -23.5303 C   0  0  0  0  0  0  0  0  0  0  0  0
  -13.4972   -0.1590  -23.2470 C   0  0  0  0  0  0  0  0  0  0  0  0
  -13.1307   -1.4620  -23.0204 C   0  0  0  0  0  0  0  0  0  0  0  0
  -11.7861   -1.7751  -23.0830 C   0  0  0  0  0  0  0  0  0  0  0  0
  -10.8654   -0.7707  -23.3703 C   0  0  0  0  0  0  0  0  0  0  0  0
  -11.2585    0.5290  -23.5941 C   0  0  0  0  0  0  0  0  0  0  0  0
  2  3  1  0  0  0
  3  4  1  0  0  0
  3  5  1  0  0  0
  5  6  1  0  0  0
  6  7  1  0  0  0
  7  8  1  0  0  0
  7 10  1  0  0  0
  8  9  2  0  0  0
  8  1  1  0  0  0
  1 12  1  0  0  0
 12 13  2  0  0  0
 13 14  1  0  0  0
 14 15  2  0  0  0
 15 16  1  0  0  0
 16 17  2  0  0  0
 17 18  1  0  0  0
 18 19  2  0  0  0
 19 20  1  0  0  0
 20 21  2  0  0  0
 21 12  1  0  0  0
 21 16  1  0  0  0
 10 11  1  0  0  0
 11  3  1  0  0  0
M  END
> <minimizedAffinity>
-5.30844

> <CNNscore>
0.3282810450

> <CNNaffinity>
4.6525316238

> <CNN_VS>
1.5273379087

> <CNNaffinity_variance>
0.0666719973

$$$$



 21 23  0  0  0  0  0  0  0  0999 V2000
   -6.9158   -1.7550  -23.8682 C   0  0  0  0  0  0  0  0  0  0  0  0
   -9.1633   -5.8222  -27.8678 C   0  0  0  0  0  0  0  0  0  0  0  0
   -8.8212   -5.9029  -26.3936 C   0  0  0  0  0  0  0  0  0  0  0  0
   -9.3591   -7.2688  -25.9498 C   0  0  0  0  0  0  0  0  0  0  0  0
   -7.3368   -5.9808  -26.1649 C   0  0  0  0  0  0  0  0  0  0  0  0
   -6.7349   -4.6286  -26.4722 C   0  0  0  0  0  0  0  0  0  0  0  0
   -7.2700   -3.7329  -25.4593 N   0  0  0  0  0  0  0  0  0  0  0  0
   -6.4533   -2.6568  -24.9369 C   0  0  0  0  0  0  0  0  0  0  0  0
   -5.2915   -2.4484  -25.3929 O   0  0  0  0  0  0  0  0  0  0  0  0
   -8.6127   -3.8255  -24.9476 C   0  0  0  0  0  0  0  0  0  0  0  0
   -9.4755   -4.8684  -25.5634 C   0  0  0  0  0  0  0  0  0  0  0  0
   -6.3095   -2.0231  -22.5500 C   0  0  0  0  0  0  0  0  0  0  0  0
   -6.2137   -3.2934  -22.0375 C   0  0  0  0  0  0  0  0  0  0  0  0
   -5.6127   -3.4234  -20.8222 N   0  0  0  0  0  0  0  0  0  0  0  0
   -5.1207   -2.3847  -20.1240 C   0  0  0  0  0  0  0  0  0  0  0  0
   -5.2078   -1.1017  -20.6233 C   0  0  0  0  0  0  0  0  0  0  0  0
   -4.7274   -0.0027  -19.9661 C   0  0  0  0  0  0  0  0  0  0  0  0
   -4.8086    1.2768  -20.4558 C   0  0  0  0  0  0  0  0  0  0  0  0
   -5.4122    1.4608  -21.6854 C   0  0  0  0  0  0  0  0  0  0  0  0
   -5.9084    0.3562  -22.3729 C   0  0  0  0  0  0  0  0  0  0  0  0
   -5.8143   -0.9174  -21.8602 C   0  0  0  0  0  0  0  0  0  0  0  0
  2  3  1  0  0  0
  3  4  1  0  0  0
  3  5  1  0  0  0
  5  6  1  0  0  0
  6  7  1  0  0  0
  7  8  1  0  0  0
  7 10  1  0  0  0
  8  9  2  0  0  0
  8  1  1  0  0  0
  1 12  1  0  0  0
 12 13  2  0  0  0
 13 14  1  0  0  0
 14 15  2  0  0  0
 15 16  1  0  0  0
 16 17  2  0  0  0
 17 18  1  0  0  0
 18 19  2  0  0  0
 19 20  1  0  0  0
 20 21  2  0  0  0
 21 12  1  0  0  0
 21 16  1  0  0  0
 10 11  1  0  0  0
 11  3  1  0  0  0
M  END
> <minimizedAffinity>
-5.37531

> <CNNscore>
0.3244511187

> <CNNaffinity>
4.7526245117

> <CNN_VS>
1.5419943333

> <CNNaffinity_variance>
0.2323357314

$$$$



 21 23  0  0  0  0  0  0  0  0999 V2000
   -7.4012   -1.2023  -23.6687 C   0  0  0  0  0  0  0  0  0  0  0  0
   -9.0053   -6.7874  -25.6239 C   0  0  0  0  0  0  0  0  0  0  0  0
   -8.7829   -5.4677  -26.3351 C   0  0  0  0  0  0  0  0  0  0  0  0
   -8.8469   -5.8206  -27.8262 C   0  0  0  0  0  0  0  0  0  0  0  0
   -9.9236   -4.5124  -26.1161 C   0  0  0  0  0  0  0  0  0  0  0  0
   -9.8676   -4.0218  -24.6874 C   0  0  0  0  0  0  0  0  0  0  0  0
   -8.6433   -3.2422  -24.5985 N   0  0  0  0  0  0  0  0  0  0  0  0
   -8.5907   -2.0666  -23.7541 C   0  0  0  0  0  0  0  0  0  0  0  0
   -9.5845   -1.7372  -23.0436 O   0  0  0  0  0  0  0  0  0  0  0  0
   -7.4292   -3.5902  -25.2899 C   0  0  0  0  0  0  0  0  0  0  0  0
   -7.4630   -4.8542  -26.0726 C   0  0  0  0  0  0  0  0  0  0  0  0
   -6.6306   -1.3604  -22.4203 C   0  0  0  0  0  0  0  0  0  0  0  0
   -6.5410   -2.5653  -21.7678 C   0  0  0  0  0  0  0  0  0  0  0  0
   -5.7819   -2.5983  -20.6375 N   0  0  0  0  0  0  0  0  0  0  0  0
   -5.1323   -1.5267  -20.1495 C   0  0  0  0  0  0  0  0  0  0  0  0
   -5.2107   -0.3084  -20.7918 C   0  0  0  0  0  0  0  0  0  0  0  0
   -4.5748    0.8190  -20.3502 C   0  0  0  0  0  0  0  0  0  0  0  0
   -4.6461    2.0345  -20.9835 C   0  0  0  0  0  0  0  0  0  0  0  0
   -5.4065    2.1196  -22.1344 C   0  0  0  0  0  0  0  0  0  0  0  0
   -6.0627    0.9843  -22.6029 C   0  0  0  0  0  0  0  0  0  0  0  0
   -5.9750   -0.2236  -21.9496 C   0  0  0  0  0  0  0  0  0  0  0  0
  2  3  1  0  0  0
  3  4  1  0  0  0
  3  5  1  0  0  0
  5  6  1  0  0  0
  6  7  1  0  0  0
  7  8  1  0  0  0
  7 10  1  0  0  0
  8  9  2  0  0  0
  8  1  1  0  0  0
  1 12  1  0  0  0
 12 13  2  0  0  0
 13 14  1  0  0  0
 14 15  2  0  0  0
 15 16  1  0  0  0
 16 17  2  0  0  0
 17 18  1  0  0  0
 18 19  2  0  0  0
 19 20  1  0  0  0
 20 21  2  0  0  0
 21 12  1  0  0  0
 21 16  1  0  0  0
 10 11  1  0  0  0
 11  3  1  0  0  0
M  END
> <minimizedAffinity>
-5.33125

> <CNNscore>
0.3220455348

> <CNNaffinity>
4.7517704964

> <CNN_VS>
1.5302864313

> <CNNaffinity_variance>
0.2829861641

$$$$



 21 23  0  0  0  0  0  0  0  0999 V2000
   -6.7709   -2.4239  -21.9095 C   0  0  0  0  0  0  0  0  0  0  0  0
   -6.6942   -6.7914  -26.2116 C   0  0  0  0  0  0  0  0  0  0  0  0
   -7.7585   -6.3109  -25.2454 C   0  0  0  0  0  0  0  0  0  0  0  0
   -9.0318   -7.0459  -25.6815 C   0  0  0  0  0  0  0  0  0  0  0  0
   -7.4999   -6.7874  -23.8427 C   0  0  0  0  0  0  0  0  0  0  0  0
   -6.3183   -6.0241  -23.2894 C   0  0  0  0  0  0  0  0  0  0  0  0
   -6.7673   -4.6447  -23.1888 N   0  0  0  0  0  0  0  0  0  0  0  0
   -6.3058   -3.8083  -22.1001 C   0  0  0  0  0  0  0  0  0  0  0  0
   -5.4671   -4.2467  -21.2602 O   0  0  0  0  0  0  0  0  0  0  0  0
   -7.6423   -4.0232  -24.1487 C   0  0  0  0  0  0  0  0  0  0  0  0
   -8.0286   -4.8585  -25.3168 C   0  0  0  0  0  0  0  0  0  0  0  0
   -5.6953   -1.4150  -21.9607 C   0  0  0  0  0  0  0  0  0  0  0  0
   -5.0533   -1.0944  -23.1313 C   0  0  0  0  0  0  0  0  0  0  0  0
   -4.0932   -0.1307  -23.0630 N   0  0  0  0  0  0  0  0  0  0  0  0
   -3.7598    0.5037  -21.9251 C   0  0  0  0  0  0  0  0  0  0  0  0
   -4.3944    0.1948  -20.7398 C   0  0  0  0  0  0  0  0  0  0  0  0
   -4.1047    0.8019  -19.5490 C   0  0  0  0  0  0  0  0  0  0  0  0
   -4.7316    0.5019  -18.3657 C   0  0  0  0  0  0  0  0  0  0  0  0
   -5.7125   -0.4716  -18.3830 C   0  0  0  0  0  0  0  0  0  0  0  0
   -6.0244   -1.1031  -19.5842 C   0  0  0  0  0  0  0  0  0  0  0  0
   -5.3811   -0.7838  -20.7580 C   0  0  0  0  0  0  0  0  0  0  0  0
  2  3  1  0  0  0
  3  4  1  0  0  0
  3  5  1  0  0  0
  5  6  1  0  0  0
  6  7  1  0  0  0
  7  8  1  0  0  0
  7 10  1  0  0  0
  8  9  2  0  0  0
  8  1  1  0  0  0
  1 12  1  0  0  0
 12 13  2  0  0  0
 13 14  1  0  0  0
 14 15  2  0  0  0
 15 16  1  0  0  0
 16 17  2  0  0  0
 17 18  1  0  0  0
 18 19  2  0  0  0
 19 20  1  0  0  0
 20 21  2  0  0  0
 21 12  1  0  0  0
 21 16  1  0  0  0
 10 11  1  0  0  0
 11  3  1  0  0  0
M  END
> <minimizedAffinity>
-6.75226

> <CNNscore>
0.2798834443

> <CNNaffinity>
4.8414735794

> <CNN_VS>
1.3550482988

> <CNNaffinity_variance>
0.1212661862

$$$$



 40 44  0  0  0  0  0  0  0  0999 V2000
   -6.2767   -2.7168  -26.5531 N   0  0  0  0  0  0  0  0  0  0  0  0
   -6.3833   -2.9363  -25.1336 C   0  0  0  0  0  0  0  0  0  0  0  0
   -7.5945   -3.7003  -24.7861 C   0  0  0  0  0  0  0  0  0  0  0  0
   -8.7996   -2.7945  -24.9266 C   0  0  0  0  0  0  0  0  0  0  0  0
   -9.7153   -2.8491  -25.7777 O   0  0  0  0  0  0  0  0  0  0  0  0
   -8.6278   -1.8617  -23.8407 N   0  0  0  0  0  0  0  0  0  0  0  0
   -7.9006   -2.5390  -22.7866 C   0  0  0  0  0  0  0  0  0  0  0  0
   -7.7075   -3.9809  -23.2950 C   0  0  0  0  0  0  0  0  0  0  0  0
   -7.8171   -4.8355  -25.6622 C   0  0  0  0  0  0  0  0  0  0  0  0
   -8.5668   -5.9519  -25.2627 C   0  0  0  0  0  0  0  0  0  0  0  0
   -8.7820   -7.0203  -26.1374 C   0  0  0  0  0  0  0  0  0  0  0  0
   -9.5109   -8.0966  -25.7368 F   0  0  0  0  0  0  0  0  0  0  0  0
   -8.2786   -7.0363  -27.4179 C   0  0  0  0  0  0  0  0  0  0  0  0
   -7.5434   -5.9440  -27.8119 C   0  0  0  0  0  0  0  0  0  0  0  0
   -7.3319   -4.8947  -26.9522 C   0  0  0  0  0  0  0  0  0  0  0  0
   -6.5189   -3.7905  -27.4468 C   0  0  0  0  0  0  0  0  0  0  0  0
   -6.0508   -3.7727  -28.5950 O   0  0  0  0  0  0  0  0  0  0  0  0
   -9.1061   -0.5263  -23.8451 C   0  0  0  0  0  0  0  0  0  0  0  0
   -8.3140    0.5783  -24.0169 C   0  0  0  0  0  0  0  0  0  0  0  0
   -8.7958    1.8409  -24.0170 N   0  0  0  0  0  0  0  0  0  0  0  0
  -10.1063    2.0861  -23.8449 C   0  0  0  0  0  0  0  0  0  0  0  0
  -10.9579    1.0151  -23.6665 C   0  0  0  0  0  0  0  0  0  0  0  0
  -12.2991    1.3109  -23.4928 C   0  0  0  0  0  0  0  0  0  0  0  0
  -13.1857    0.2757  -23.3114 C   0  0  0  0  0  0  0  0  0  0  0  0
  -12.7145   -1.0182  -23.3080 C   0  0  0  0  0  0  0  0  0  0  0  0
  -11.3699   -1.3276  -23.4816 C   0  0  0  0  0  0  0  0  0  0  0  0
  -10.4720   -0.2801  -23.6653 C   0  0  0  0  0  0  0  0  0  0  0  0
   -5.8906   -1.4440  -27.0632 C   0  0  0  0  0  0  0  0  0  0  0  0
   -7.7596    1.8352  -27.5266 C   0  0  0  0  0  0  0  0  0  0  0  0
   -6.7512    0.8729  -27.1638 N   0  0  0  0  0  0  0  0  0  0  0  0
   -6.9471   -0.5241  -27.4557 C   0  0  0  0  0  0  0  0  0  0  0  0
   -8.0233   -0.8102  -28.0263 O   0  0  0  0  0  0  0  0  0  0  0  0
   -5.9266    1.1704  -26.7156 H   0  0  0  0  0  0  0  0  0  0  0  0
   -6.4683   -4.5086  -22.6825 C   0  0  0  0  0  0  0  0  0  0  0  0
   -6.3939   -6.2394  -22.3870 S   0  0  0  0  0  0  0  0  0  0  0  0
   -5.6376   -6.5115  -21.0860 O   0  0  0  0  0  0  0  0  0  0  0  0
   -7.7976   -6.7904  -22.2652 O   0  0  0  0  0  0  0  0  0  0  0  0
   -5.5543   -7.0580  -23.6163 N   0  0  0  0  0  0  0  0  0  0  0  0
   -4.7298   -6.2671  -24.4544 C   0  0  0  0  0  0  0  0  0  0  0  0
   -6.2447   -7.5203  -24.2081 H   0  0  0  0  0  0  0  0  0  0  0  0
 29 30  1  0  0  0
 30 31  1  0  0  0
 30 33  1  0  0  0
 31 32  2  0  0  0
 31 28  1  0  0  0
 28  1  1  0  0  0
  1  2  1  0  0  0
  3  2  1  0  0  0
  3  4  1  0  0  0
  3  9  1  0  0  0
  4  5  2  0  0  0
  4  6  1  0  0  0
  6 18  1  0  0  0
  6  7  1  0  0  0
 18 19  2  0  0  0
 19 20  1  0  0  0
 20 21  2  0  0  0
 21 22  1  0  0  0
 22 23  2  0  0  0
 23 24  1  0  0  0
 24 25  2  0  0  0
 25 26  1  0  0  0
 26 27  2  0  0  0
 27 18  1  0  0  0
 27 22  1  0  0  0
  7  8  1  0  0  0
  8 34  1  0  0  0
  8  3  1  0  0  0
 34 35  1  0  0  0
 35 36  2  0  0  0
 35 37  2  0  0  0
 35 38  1  0  0  0
 38 39  1  0  0  0
 38 40  1  0  0  0
  9 10  2  0  0  0
 10 11  1  0  0  0
 11 12  1  0  0  0
 11 13  2  0  0  0
 13 14  1  0  0  0
 14 15  2  0  0  0
 15 16  1  0  0  0
 15  9  1  0  0  0
 16 17  2  0  0  0
 16  1  1  0  0  0
M  END
> <minimizedAffinity>
-7.45734

> <CNNscore>
0.5266910195

> <CNNaffinity>
6.3534693718

> <CNN_VS>
3.3463151455

> <CNNaffinity_variance>
0.1649460495

$$$$



 40 44  0  0  0  0  0  0  0  0999 V2000
  -10.2010   -2.1939  -23.4634 N   0  0  0  0  0  0  0  0  0  0  0  0
   -9.1323   -2.2043  -22.4978 C   0  0  0  0  0  0  0  0  0  0  0  0
   -8.1359   -1.1537  -22.7710 C   0  0  0  0  0  0  0  0  0  0  0  0
   -7.3087   -1.5661  -23.9704 C   0  0  0  0  0  0  0  0  0  0  0  0
   -7.2975   -1.0606  -25.1150 O   0  0  0  0  0  0  0  0  0  0  0  0
   -6.5429   -2.6780  -23.4645 N   0  0  0  0  0  0  0  0  0  0  0  0
   -6.3602   -2.4783  -22.0413 C   0  0  0  0  0  0  0  0  0  0  0  0
   -7.0182   -1.1180  -21.7393 C   0  0  0  0  0  0  0  0  0  0  0  0
   -8.7385    0.1258  -23.0956 C   0  0  0  0  0  0  0  0  0  0  0  0
   -8.0607    1.3398  -22.9088 C   0  0  0  0  0  0  0  0  0  0  0  0
   -8.6601    2.5547  -23.2517 C   0  0  0  0  0  0  0  0  0  0  0  0
   -7.9913    3.7245  -23.0653 F   0  0  0  0  0  0  0  0  0  0  0  0
   -9.9275    2.6265  -23.7827 C   0  0  0  0  0  0  0  0  0  0  0  0
  -10.5940    1.4387  -23.9664 C   0  0  0  0  0  0  0  0  0  0  0  0
  -10.0051    0.2454  -23.6291 C   0  0  0  0  0  0  0  0  0  0  0  0
  -10.7960   -0.9617  -23.8345 C   0  0  0  0  0  0  0  0  0  0  0  0
  -11.9404   -0.9328  -24.3115 O   0  0  0  0  0  0  0  0  0  0  0  0
   -6.0694   -3.7546  -24.2574 C   0  0  0  0  0  0  0  0  0  0  0  0
   -5.5018   -3.6115  -25.4962 C   0  0  0  0  0  0  0  0  0  0  0  0
   -5.0583   -4.6552  -26.2313 N   0  0  0  0  0  0  0  0  0  0  0  0
   -5.1522   -5.9169  -25.7768 C   0  0  0  0  0  0  0  0  0  0  0  0
   -5.7148   -6.1283  -24.5347 C   0  0  0  0  0  0  0  0  0  0  0  0
   -5.7925   -7.4417  -24.1041 C   0  0  0  0  0  0  0  0  0  0  0  0
   -6.3457   -7.7014  -22.8724 C   0  0  0  0  0  0  0  0  0  0  0  0
   -6.8036   -6.6515  -22.1080 C   0  0  0  0  0  0  0  0  0  0  0  0
   -6.7308   -5.3284  -22.5298 C   0  0  0  0  0  0  0  0  0  0  0  0
   -6.1709   -5.0650  -23.7765 C   0  0  0  0  0  0  0  0  0  0  0  0
  -10.6912   -3.4121  -24.0158 C   0  0  0  0  0  0  0  0  0  0  0  0
   -8.8829   -5.7960  -26.3627 C   0  0  0  0  0  0  0  0  0  0  0  0
   -9.5230   -5.2456  -25.1956 N   0  0  0  0  0  0  0  0  0  0  0  0
  -10.0574   -3.9082  -25.2276 C   0  0  0  0  0  0  0  0  0  0  0  0
   -9.9205   -3.2984  -26.3115 O   0  0  0  0  0  0  0  0  0  0  0  0
   -9.5953   -5.7842  -24.3747 H   0  0  0  0  0  0  0  0  0  0  0  0
   -7.4876   -1.1500  -20.3366 C   0  0  0  0  0  0  0  0  0  0  0  0
   -6.2674   -1.0139  -19.0792 S   0  0  0  0  0  0  0  0  0  0  0  0
   -6.7155    0.0038  -18.0294 O   0  0  0  0  0  0  0  0  0  0  0  0
   -6.0793   -2.3589  -18.4124 O   0  0  0  0  0  0  0  0  0  0  0  0
   -4.7835   -0.4578  -19.6916 N   0  0  0  0  0  0  0  0  0  0  0  0
   -4.3174    0.7830  -19.1909 C   0  0  0  0  0  0  0  0  0  0  0  0
   -4.8803   -0.3671  -20.7030 H   0  0  0  0  0  0  0  0  0  0  0  0
 29 30  1  0  0  0
 30 31  1  0  0  0
 30 33  1  0  0  0
 31 32  2  0  0  0
 31 28  1  0  0  0
 28  1  1  0  0  0
  1  2  1  0  0  0
  3  2  1  0  0  0
  3  4  1  0  0  0
  3  9  1  0  0  0
  4  5  2  0  0  0
  4  6  1  0  0  0
  6 18  1  0  0  0
  6  7  1  0  0  0
 18 19  2  0  0  0
 19 20  1  0  0  0
 20 21  2  0  0  0
 21 22  1  0  0  0
 22 23  2  0  0  0
 23 24  1  0  0  0
 24 25  2  0  0  0
 25 26  1  0  0  0
 26 27  2  0  0  0
 27 18  1  0  0  0
 27 22  1  0  0  0
  7  8  1  0  0  0
  8 34  1  0  0  0
  8  3  1  0  0  0
 34 35  1  0  0  0
 35 36  2  0  0  0
 35 37  2  0  0  0
 35 38  1  0  0  0
 38 39  1  0  0  0
 38 40  1  0  0  0
  9 10  2  0  0  0
 10 11  1  0  0  0
 11 12  1  0  0  0
 11 13  2  0  0  0
 13 14  1  0  0  0
 14 15  2  0  0  0
 15 16  1  0  0  0
 15  9  1  0  0  0
 16 17  2  0  0  0
 16  1  1  0  0  0
M  END
> <minimizedAffinity>
-8.85246

> <CNNscore>
0.4343113005

> <CNNaffinity>
6.3691134453

> <CNN_VS>
2.7661778927

> <CNNaffinity_variance>
0.5230416059

$$$$



 40 44  0  0  0  0  0  0  0  0999 V2000
   -8.0121   -1.9500  -23.9174 N   0  0  0  0  0  0  0  0  0  0  0  0
   -7.5292   -0.6393  -24.2684 C   0  0  0  0  0  0  0  0  0  0  0  0
   -7.2250    0.1709  -23.0757 C   0  0  0  0  0  0  0  0  0  0  0  0
   -8.5269    0.6143  -22.4423 C   0  0  0  0  0  0  0  0  0  0  0  0
   -9.0219    0.2505  -21.3521 O   0  0  0  0  0  0  0  0  0  0  0  0
   -9.0472    1.5543  -23.4037 N   0  0  0  0  0  0  0  0  0  0  0  0
   -7.9213    2.1507  -24.0933 C   0  0  0  0  0  0  0  0  0  0  0  0
   -6.6733    1.5460  -23.4215 C   0  0  0  0  0  0  0  0  0  0  0  0
   -6.4944   -0.5676  -22.0625 C   0  0  0  0  0  0  0  0  0  0  0  0
   -5.6872    0.0709  -21.1092 C   0  0  0  0  0  0  0  0  0  0  0  0
   -5.0132   -0.6666  -20.1321 C   0  0  0  0  0  0  0  0  0  0  0  0
   -4.2338   -0.0345  -19.2137 F   0  0  0  0  0  0  0  0  0  0  0  0
   -5.1024   -2.0374  -20.0522 C   0  0  0  0  0  0  0  0  0  0  0  0
   -5.8922   -2.6656  -20.9852 C   0  0  0  0  0  0  0  0  0  0  0  0
   -6.5539   -1.9408  -21.9452 C   0  0  0  0  0  0  0  0  0  0  0  0
   -7.3480   -2.6929  -22.9088 C   0  0  0  0  0  0  0  0  0  0  0  0
   -7.4505   -3.9280  -22.8651 O   0  0  0  0  0  0  0  0  0  0  0  0
  -10.4263    1.8195  -23.6032 C   0  0  0  0  0  0  0  0  0  0  0  0
  -10.9382    3.0472  -23.9318 C   0  0  0  0  0  0  0  0  0  0  0  0
  -12.2577    3.2727  -24.1165 N   0  0  0  0  0  0  0  0  0  0  0  0
  -13.1584    2.2835  -23.9848 C   0  0  0  0  0  0  0  0  0  0  0  0
  -12.7064    1.0223  -23.6547 C   0  0  0  0  0  0  0  0  0  0  0  0
  -13.6659    0.0323  -23.5289 C   0  0  0  0  0  0  0  0  0  0  0  0
  -13.2628   -1.2407  -23.2011 C   0  0  0  0  0  0  0  0  0  0  0  0
  -11.9224   -1.4910  -23.0087 C   0  0  0  0  0  0  0  0  0  0  0  0
  -10.9495   -0.5050  -23.1323 C   0  0  0  0  0  0  0  0  0  0  0  0
  -11.3572    0.7837  -23.4642 C   0  0  0  0  0  0  0  0  0  0  0  0
   -9.1230   -2.5211  -24.6023 C   0  0  0  0  0  0  0  0  0  0  0  0
   -8.3216   -5.4431  -26.9002 C   0  0  0  0  0  0  0  0  0  0  0  0
   -8.5928   -4.6630  -25.7201 N   0  0  0  0  0  0  0  0  0  0  0  0
   -8.8566   -3.2512  -25.8320 C   0  0  0  0  0  0  0  0  0  0  0  0
   -8.8295   -2.7878  -26.9939 O   0  0  0  0  0  0  0  0  0  0  0  0
   -8.5979   -5.0953  -24.8356 H   0  0  0  0  0  0  0  0  0  0  0  0
   -5.5886    1.5278  -24.4275 C   0  0  0  0  0  0  0  0  0  0  0  0
   -3.9979    2.0584  -23.9016 S   0  0  0  0  0  0  0  0  0  0  0  0
   -3.1704    0.8526  -23.4544 O   0  0  0  0  0  0  0  0  0  0  0  0
   -3.2900    2.7428  -25.0502 O   0  0  0  0  0  0  0  0  0  0  0  0
   -4.0870    3.1071  -22.5679 N   0  0  0  0  0  0  0  0  0  0  0  0
   -3.4221    2.6889  -21.3887 C   0  0  0  0  0  0  0  0  0  0  0  0
   -5.0728    3.2343  -22.3392 H   0  0  0  0  0  0  0  0  0  0  0  0
 29 30  1  0  0  0
 30 31  1  0  0  0
 30 33  1  0  0  0
 31 32  2  0  0  0
 31 28  1  0  0  0
 28  1  1  0  0  0
  1  2  1  0  0  0
  3  2  1  0  0  0
  3  4  1  0  0  0
  3  9  1  0  0  0
  4  5  2  0  0  0
  4  6  1  0  0  0
  6 18  1  0  0  0
  6  7  1  0  0  0
 18 19  2  0  0  0
 19 20  1  0  0  0
 20 21  2  0  0  0
 21 22  1  0  0  0
 22 23  2  0  0  0
 23 24  1  0  0  0
 24 25  2  0  0  0
 25 26  1  0  0  0
 26 27  2  0  0  0
 27 18  1  0  0  0
 27 22  1  0  0  0
  7  8  1  0  0  0
  8 34  1  0  0  0
  8  3  1  0  0  0
 34 35  1  0  0  0
 35 36  2  0  0  0
 35 37  2  0  0  0
 35 38  1  0  0  0
 38 39  1  0  0  0
 38 40  1  0  0  0
  9 10  2  0  0  0
 10 11  1  0  0  0
 11 12  1  0  0  0
 11 13  2  0  0  0
 13 14  1  0  0  0
 14 15  2  0  0  0
 15 16  1  0  0  0
 15  9  1  0  0  0
 16 17  2  0  0  0
 16  1  1  0  0  0
M  END
> <minimizedAffinity>
-7.44677

> <CNNscore>
0.3323151171

> <CNNaffinity>
6.4111123085

> <CNN_VS>
2.1305096149

> <CNNaffinity_variance>
0.0654650182

$$$$



 40 44  0  0  0  0  0  0  0  0999 V2000
   -8.1247    0.9097  -24.3827 N   0  0  0  0  0  0  0  0  0  0  0  0
   -7.5396   -0.3978  -24.2327 C   0  0  0  0  0  0  0  0  0  0  0  0
   -8.1958   -1.1733  -23.1653 C   0  0  0  0  0  0  0  0  0  0  0  0
   -7.7635   -0.6197  -21.8239 C   0  0  0  0  0  0  0  0  0  0  0  0
   -8.4495    0.0094  -20.9875 O   0  0  0  0  0  0  0  0  0  0  0  0
   -6.3741   -0.9981  -21.7538 N   0  0  0  0  0  0  0  0  0  0  0  0
   -6.2062   -2.2107  -22.5286 C   0  0  0  0  0  0  0  0  0  0  0  0
   -7.6220   -2.5745  -23.0160 C   0  0  0  0  0  0  0  0  0  0  0  0
   -9.6435   -1.0839  -23.2105 C   0  0  0  0  0  0  0  0  0  0  0  0
  -10.4707   -2.0730  -22.6578 C   0  0  0  0  0  0  0  0  0  0  0  0
  -11.8619   -1.9474  -22.6978 C   0  0  0  0  0  0  0  0  0  0  0  0
  -12.6522   -2.9141  -22.1580 F   0  0  0  0  0  0  0  0  0  0  0  0
  -12.4873   -0.8646  -23.2721 C   0  0  0  0  0  0  0  0  0  0  0  0
  -11.6793    0.1058  -23.8147 C   0  0  0  0  0  0  0  0  0  0  0  0
  -10.3125   -0.0181  -23.7755 C   0  0  0  0  0  0  0  0  0  0  0  0
   -9.5358    1.0467  -24.3983 C   0  0  0  0  0  0  0  0  0  0  0  0
  -10.0672    2.0364  -24.9237 O   0  0  0  0  0  0  0  0  0  0  0  0
   -5.3813   -0.2817  -21.0374 C   0  0  0  0  0  0  0  0  0  0  0  0
   -5.4235   -0.0396  -19.6896 C   0  0  0  0  0  0  0  0  0  0  0  0
   -4.4632    0.6464  -19.0311 N   0  0  0  0  0  0  0  0  0  0  0  0
   -3.3919    1.1386  -19.6771 C   0  0  0  0  0  0  0  0  0  0  0  0
   -3.2902    0.9284  -21.0370 C   0  0  0  0  0  0  0  0  0  0  0  0
   -2.1721    1.4514  -21.6639 C   0  0  0  0  0  0  0  0  0  0  0  0
   -2.0275    1.2671  -23.0188 C   0  0  0  0  0  0  0  0  0  0  0  0
   -2.9952    0.5708  -23.7079 C   0  0  0  0  0  0  0  0  0  0  0  0
   -4.1224    0.0409  -23.0893 C   0  0  0  0  0  0  0  0  0  0  0  0
   -4.2691    0.2272  -21.7178 C   0  0  0  0  0  0  0  0  0  0  0  0
   -7.2996    2.0579  -24.5564 C   0  0  0  0  0  0  0  0  0  0  0  0
   -4.8342    3.9690  -22.3815 C   0  0  0  0  0  0  0  0  0  0  0  0
   -5.4643    3.3534  -23.5210 N   0  0  0  0  0  0  0  0  0  0  0  0
   -6.7161    2.6575  -23.3662 C   0  0  0  0  0  0  0  0  0  0  0  0
   -7.1828    2.6384  -22.2055 O   0  0  0  0  0  0  0  0  0  0  0  0
   -5.0388    3.4083  -24.4072 H   0  0  0  0  0  0  0  0  0  0  0  0
   -7.4802   -3.3099  -24.2920 C   0  0  0  0  0  0  0  0  0  0  0  0
   -7.2397   -5.0480  -24.1936 S   0  0  0  0  0  0  0  0  0  0  0  0
   -8.1602   -5.7563  -25.1884 O   0  0  0  0  0  0  0  0  0  0  0  0
   -5.8024   -5.3775  -24.5319 O   0  0  0  0  0  0  0  0  0  0  0  0
   -7.6274   -5.6568  -22.6556 N   0  0  0  0  0  0  0  0  0  0  0  0
   -7.1945   -6.9752  -22.3694 C   0  0  0  0  0  0  0  0  0  0  0  0
   -8.6429   -5.6369  -22.5616 H   0  0  0  0  0  0  0  0  0  0  0  0
 29 30  1  0  0  0
 30 31  1  0  0  0
 30 33  1  0  0  0
 31 32  2  0  0  0
 31 28  1  0  0  0
 28  1  1  0  0  0
  1  2  1  0  0  0
  3  2  1  0  0  0
  3  4  1  0  0  0
  3  9  1  0  0  0
  4  5  2  0  0  0
  4  6  1  0  0  0
  6 18  1  0  0  0
  6  7  1  0  0  0
 18 19  2  0  0  0
 19 20  1  0  0  0
 20 21  2  0  0  0
 21 22  1  0  0  0
 22 23  2  0  0  0
 23 24  1  0  0  0
 24 25  2  0  0  0
 25 26  1  0  0  0
 26 27  2  0  0  0
 27 18  1  0  0  0
 27 22  1  0  0  0
  7  8  1  0  0  0
  8 34  1  0  0  0
  8  3  1  0  0  0
 34 35  1  0  0  0
 35 36  2  0  0  0
 35 37  2  0  0  0
 35 38  1  0  0  0
 38 39  1  0  0  0
 38 40  1  0  0  0
  9 10  2  0  0  0
 10 11  1  0  0  0
 11 12  1  0  0  0
 11 13  2  0  0  0
 13 14  1  0  0  0
 14 15  2  0  0  0
 15 16  1  0  0  0
 15  9  1  0  0  0
 16 17  2  0  0  0
 16  1  1  0  0  0
M  END
> <minimizedAffinity>
-8.13548

> <CNNscore>
0.3308680654

> <CNNaffinity>
6.1879158020

> <CNN_VS>
2.0473837852

> <CNNaffinity_variance>
0.1052439362

$$$$



 40 44  0  0  0  0  0  0  0  0999 V2000
   -6.6524   -2.1336  -22.2853 N   0  0  0  0  0  0  0  0  0  0  0  0
   -6.7469   -1.3119  -23.4645 C   0  0  0  0  0  0  0  0  0  0  0  0
   -6.7414    0.1242  -23.1342 C   0  0  0  0  0  0  0  0  0  0  0  0
   -8.0846    0.4932  -22.5406 C   0  0  0  0  0  0  0  0  0  0  0  0
   -8.3479    0.8184  -21.3613 O   0  0  0  0  0  0  0  0  0  0  0  0
   -8.9759    0.3775  -23.6680 N   0  0  0  0  0  0  0  0  0  0  0  0
   -8.2107    0.6525  -24.8670 C   0  0  0  0  0  0  0  0  0  0  0  0
   -6.7983    1.0134  -24.3675 C   0  0  0  0  0  0  0  0  0  0  0  0
   -5.7356    0.4733  -22.1482 C   0  0  0  0  0  0  0  0  0  0  0  0
   -5.2108    1.7700  -22.0431 C   0  0  0  0  0  0  0  0  0  0  0  0
   -4.2588    2.0805  -21.0684 C   0  0  0  0  0  0  0  0  0  0  0  0
   -3.7583    3.3421  -20.9777 F   0  0  0  0  0  0  0  0  0  0  0  0
   -3.7910    1.1468  -20.1724 C   0  0  0  0  0  0  0  0  0  0  0  0
   -4.3031   -0.1246  -20.2733 C   0  0  0  0  0  0  0  0  0  0  0  0
   -5.2381   -0.4293  -21.2313 C   0  0  0  0  0  0  0  0  0  0  0  0
   -5.7060   -1.8090  -21.2808 C   0  0  0  0  0  0  0  0  0  0  0  0
   -5.3059   -2.6749  -20.4883 O   0  0  0  0  0  0  0  0  0  0  0  0
  -10.3534    0.0528  -23.5733 C   0  0  0  0  0  0  0  0  0  0  0  0
  -10.8409   -1.2217  -23.4498 C   0  0  0  0  0  0  0  0  0  0  0  0
  -12.1596   -1.5036  -23.3613 N   0  0  0  0  0  0  0  0  0  0  0  0
  -13.0838   -0.5277  -23.3902 C   0  0  0  0  0  0  0  0  0  0  0  0
  -12.6570    0.7787  -23.5131 C   0  0  0  0  0  0  0  0  0  0  0  0
  -13.6403    1.7529  -23.5389 C   0  0  0  0  0  0  0  0  0  0  0  0
  -13.2627    3.0695  -23.6600 C   0  0  0  0  0  0  0  0  0  0  0  0
  -11.9237    3.3775  -23.7517 C   0  0  0  0  0  0  0  0  0  0  0  0
  -10.9272    2.4078  -23.7269 C   0  0  0  0  0  0  0  0  0  0  0  0
  -11.3089    1.0750  -23.6042 C   0  0  0  0  0  0  0  0  0  0  0  0
   -7.4713   -3.2902  -22.1398 C   0  0  0  0  0  0  0  0  0  0  0  0
   -5.3856   -6.3108  -23.1335 C   0  0  0  0  0  0  0  0  0  0  0  0
   -5.8351   -5.1165  -22.4653 N   0  0  0  0  0  0  0  0  0  0  0  0
   -7.0744   -4.4938  -22.8543 C   0  0  0  0  0  0  0  0  0  0  0  0
   -7.6946   -5.0595  -23.7821 O   0  0  0  0  0  0  0  0  0  0  0  0
   -5.2943   -4.7252  -21.7416 H   0  0  0  0  0  0  0  0  0  0  0  0
   -5.8390    0.6379  -25.4295 C   0  0  0  0  0  0  0  0  0  0  0  0
   -4.5456    1.7748  -25.7806 S   0  0  0  0  0  0  0  0  0  0  0  0
   -4.3047    1.8367  -27.2894 O   0  0  0  0  0  0  0  0  0  0  0  0
   -4.9367    3.1505  -25.2874 O   0  0  0  0  0  0  0  0  0  0  0  0
   -3.0750    1.3017  -25.0736 N   0  0  0  0  0  0  0  0  0  0  0  0
   -3.0129   -0.0199  -24.5666 C   0  0  0  0  0  0  0  0  0  0  0  0
   -2.8836    1.9393  -24.3007 H   0  0  0  0  0  0  0  0  0  0  0  0
 29 30  1  0  0  0
 30 31  1  0  0  0
 30 33  1  0  0  0
 31 32  2  0  0  0
 31 28  1  0  0  0
 28  1  1  0  0  0
  1  2  1  0  0  0
  3  2  1  0  0  0
  3  4  1  0  0  0
  3  9  1  0  0  0
  4  5  2  0  0  0
  4  6  1  0  0  0
  6 18  1  0  0  0
  6  7  1  0  0  0
 18 19  2  0  0  0
 19 20  1  0  0  0
 20 21  2  0  0  0
 21 22  1  0  0  0
 22 23  2  0  0  0
 23 24  1  0  0  0
 24 25  2  0  0  0
 25 26  1  0  0  0
 26 27  2  0  0  0
 27 18  1  0  0  0
 27 22  1  0  0  0
  7  8  1  0  0  0
  8 34  1  0  0  0
  8  3  1  0  0  0
 34 35  1  0  0  0
 35 36  2  0  0  0
 35 37  2  0  0  0
 35 38  1  0  0  0
 38 39  1  0  0  0
 38 40  1  0  0  0
  9 10  2  0  0  0
 10 11  1  0  0  0
 11 12  1  0  0  0
 11 13  2  0  0  0
 13 14  1  0  0  0
 14 15  2  0  0  0
 15 16  1  0  0  0
 15  9  1  0  0  0
 16 17  2  0  0  0
 16  1  1  0  0  0
M  END
> <minimizedAffinity>
-7.55548

> <CNNscore>
0.3229525089

> <CNNaffinity>
6.1736273766

> <CNN_VS>
1.9937884808

> <CNNaffinity_variance>
0.0642014891

$$$$



 40 44  0  0  0  0  0  0  0  0999 V2000
  -10.4191   -1.8918  -23.2494 N   0  0  0  0  0  0  0  0  0  0  0  0
   -9.3131   -2.0439  -22.3394 C   0  0  0  0  0  0  0  0  0  0  0  0
   -8.1834   -1.1682  -22.6977 C   0  0  0  0  0  0  0  0  0  0  0  0
   -7.4971   -1.7343  -23.9230 C   0  0  0  0  0  0  0  0  0  0  0  0
   -7.4714   -1.2657  -25.0830 O   0  0  0  0  0  0  0  0  0  0  0  0
   -6.8848   -2.9386  -23.4196 N   0  0  0  0  0  0  0  0  0  0  0  0
   -6.5952   -2.7339  -22.0150 C   0  0  0  0  0  0  0  0  0  0  0  0
   -7.0183   -1.2807  -21.7257 C   0  0  0  0  0  0  0  0  0  0  0  0
   -8.5990    0.1808  -23.0340 C   0  0  0  0  0  0  0  0  0  0  0  0
   -7.7332    1.2790  -22.9224 C   0  0  0  0  0  0  0  0  0  0  0  0
   -8.1564    2.5633  -23.2750 C   0  0  0  0  0  0  0  0  0  0  0  0
   -7.3063    3.6192  -23.1619 F   0  0  0  0  0  0  0  0  0  0  0  0
   -9.4250    2.8179  -23.7432 C   0  0  0  0  0  0  0  0  0  0  0  0
  -10.2755    1.7439  -23.8531 C   0  0  0  0  0  0  0  0  0  0  0  0
   -9.8595    0.4824  -23.5063 C   0  0  0  0  0  0  0  0  0  0  0  0
  -10.8370   -0.5919  -23.6310 C   0  0  0  0  0  0  0  0  0  0  0  0
  -11.9878   -0.3974  -24.0500 O   0  0  0  0  0  0  0  0  0  0  0  0
   -6.6271   -4.0954  -24.1991 C   0  0  0  0  0  0  0  0  0  0  0  0
   -7.2796   -5.2906  -24.0485 C   0  0  0  0  0  0  0  0  0  0  0  0
   -7.0144   -6.3783  -24.8053 N   0  0  0  0  0  0  0  0  0  0  0  0
   -6.0760   -6.3452  -25.7673 C   0  0  0  0  0  0  0  0  0  0  0  0
   -5.3824   -5.1696  -25.9693 C   0  0  0  0  0  0  0  0  0  0  0  0
   -4.4250   -5.1779  -26.9693 C   0  0  0  0  0  0  0  0  0  0  0  0
   -3.7083   -4.0288  -27.2071 C   0  0  0  0  0  0  0  0  0  0  0  0
   -3.9636   -2.9096  -26.4466 C   0  0  0  0  0  0  0  0  0  0  0  0
   -4.9226   -2.8892  -25.4396 C   0  0  0  0  0  0  0  0  0  0  0  0
   -5.6484   -4.0522  -25.1986 C   0  0  0  0  0  0  0  0  0  0  0  0
  -11.1207   -3.0325  -23.7352 C   0  0  0  0  0  0  0  0  0  0  0  0
  -10.3032   -5.7660  -26.2494 C   0  0  0  0  0  0  0  0  0  0  0  0
  -10.7661   -5.0869  -25.0665 N   0  0  0  0  0  0  0  0  0  0  0  0
  -10.6334   -3.6568  -24.9556 C   0  0  0  0  0  0  0  0  0  0  0  0
  -10.1041   -3.0865  -25.9355 O   0  0  0  0  0  0  0  0  0  0  0  0
  -11.1738   -5.6011  -24.3325 H   0  0  0  0  0  0  0  0  0  0  0  0
   -7.4089   -1.2040  -20.3008 C   0  0  0  0  0  0  0  0  0  0  0  0
   -6.1125   -1.1262  -19.1168 S   0  0  0  0  0  0  0  0  0  0  0  0
   -6.4405   -0.0739  -18.0567 O   0  0  0  0  0  0  0  0  0  0  0  0
   -5.9632   -2.4731  -18.4441 O   0  0  0  0  0  0  0  0  0  0  0  0
   -4.6371   -0.6627  -19.8201 N   0  0  0  0  0  0  0  0  0  0  0  0
   -4.2667    0.6972  -19.6753 C   0  0  0  0  0  0  0  0  0  0  0  0
   -4.6931   -0.8639  -20.8185 H   0  0  0  0  0  0  0  0  0  0  0  0
 29 30  1  0  0  0
 30 31  1  0  0  0
 30 33  1  0  0  0
 31 32  2  0  0  0
 31 28  1  0  0  0
 28  1  1  0  0  0
  1  2  1  0  0  0
  3  2  1  0  0  0
  3  4  1  0  0  0
  3  9  1  0  0  0
  4  5  2  0  0  0
  4  6  1  0  0  0
  6 18  1  0  0  0
  6  7  1  0  0  0
 18 19  2  0  0  0
 19 20  1  0  0  0
 20 21  2  0  0  0
 21 22  1  0  0  0
 22 23  2  0  0  0
 23 24  1  0  0  0
 24 25  2  0  0  0
 25 26  1  0  0  0
 26 27  2  0  0  0
 27 18  1  0  0  0
 27 22  1  0  0  0
  7  8  1  0  0  0
  8 34  1  0  0  0
  8  3  1  0  0  0
 34 35  1  0  0  0
 35 36  2  0  0  0
 35 37  2  0  0  0
 35 38  1  0  0  0
 38 39  1  0  0  0
 38 40  1  0  0  0
  9 10  2  0  0  0
 10 11  1  0  0  0
 11 12  1  0  0  0
 11 13  2  0  0  0
 13 14  1  0  0  0
 14 15  2  0  0  0
 15 16  1  0  0  0
 15  9  1  0  0  0
 16 17  2  0  0  0
 16  1  1  0  0  0
M  END
> <minimizedAffinity>
-8.10849

> <CNNscore>
0.3193770945

> <CNNaffinity>
6.3788285255

> <CNN_VS>
2.0372517109

> <CNNaffinity_variance>
0.5969370008

$$$$



 40 44  0  0  0  0  0  0  0  0999 V2000
   -9.4438    1.9845  -24.6384 N   0  0  0  0  0  0  0  0  0  0  0  0
   -8.7266    0.7498  -24.8268 C   0  0  0  0  0  0  0  0  0  0  0  0
   -9.1040   -0.2623  -23.8245 C   0  0  0  0  0  0  0  0  0  0  0  0
   -8.4845    0.1133  -22.4949 C   0  0  0  0  0  0  0  0  0  0  0  0
   -9.0590    0.5108  -21.4568 O   0  0  0  0  0  0  0  0  0  0  0  0
   -7.0775   -0.1021  -22.7248 N   0  0  0  0  0  0  0  0  0  0  0  0
   -6.9467   -1.1432  -23.7237 C   0  0  0  0  0  0  0  0  0  0  0  0
   -8.3896   -1.5900  -24.0288 C   0  0  0  0  0  0  0  0  0  0  0  0
  -10.5375   -0.3410  -23.6133 C   0  0  0  0  0  0  0  0  0  0  0  0
  -11.1577   -1.4989  -23.1206 C   0  0  0  0  0  0  0  0  0  0  0  0
  -12.5382   -1.5363  -22.9071 C   0  0  0  0  0  0  0  0  0  0  0  0
  -13.1265   -2.6657  -22.4289 F   0  0  0  0  0  0  0  0  0  0  0  0
  -13.3525   -0.4573  -23.1643 C   0  0  0  0  0  0  0  0  0  0  0  0
  -12.7477    0.6783  -23.6474 C   0  0  0  0  0  0  0  0  0  0  0  0
  -11.3914    0.7146  -23.8574 C   0  0  0  0  0  0  0  0  0  0  0  0
  -10.8404    1.9520  -24.3960 C   0  0  0  0  0  0  0  0  0  0  0  0
  -11.5454    2.9430  -24.6381 O   0  0  0  0  0  0  0  0  0  0  0  0
   -6.0383    0.6019  -22.0641 C   0  0  0  0  0  0  0  0  0  0  0  0
   -5.2806    1.5855  -22.6434 C   0  0  0  0  0  0  0  0  0  0  0  0
   -4.2957    2.2411  -21.9906 N   0  0  0  0  0  0  0  0  0  0  0  0
   -4.0000    1.9574  -20.7102 C   0  0  0  0  0  0  0  0  0  0  0  0
   -4.7274    0.9756  -20.0693 C   0  0  0  0  0  0  0  0  0  0  0  0
   -4.3914    0.7143  -18.7520 C   0  0  0  0  0  0  0  0  0  0  0  0
   -5.0890   -0.2561  -18.0722 C   0  0  0  0  0  0  0  0  0  0  0  0
   -6.0965   -0.9357  -18.7198 C   0  0  0  0  0  0  0  0  0  0  0  0
   -6.4431   -0.6821  -20.0425 C   0  0  0  0  0  0  0  0  0  0  0  0
   -5.7372    0.3002  -20.7310 C   0  0  0  0  0  0  0  0  0  0  0  0
   -8.7706    3.2363  -24.7346 C   0  0  0  0  0  0  0  0  0  0  0  0
   -9.4073    3.9140  -28.4219 C   0  0  0  0  0  0  0  0  0  0  0  0
   -9.5142    3.3773  -27.0895 N   0  0  0  0  0  0  0  0  0  0  0  0
   -8.6094    3.8173  -26.0586 C   0  0  0  0  0  0  0  0  0  0  0  0
   -7.7626    4.6683  -26.4111 O   0  0  0  0  0  0  0  0  0  0  0  0
  -10.2067    2.7087  -26.8831 H   0  0  0  0  0  0  0  0  0  0  0  0
   -8.4189   -2.0853  -25.4226 C   0  0  0  0  0  0  0  0  0  0  0  0
   -8.7931   -3.7857  -25.6619 S   0  0  0  0  0  0  0  0  0  0  0  0
   -7.8728   -4.6463  -24.7953 O   0  0  0  0  0  0  0  0  0  0  0  0
  -10.2294   -4.0461  -25.2644 O   0  0  0  0  0  0  0  0  0  0  0  0
   -8.5393   -4.2716  -27.2700 N   0  0  0  0  0  0  0  0  0  0  0  0
   -9.5581   -5.0591  -27.8612 C   0  0  0  0  0  0  0  0  0  0  0  0
   -7.6747   -4.8120  -27.2975 H   0  0  0  0  0  0  0  0  0  0  0  0
 29 30  1  0  0  0
 30 31  1  0  0  0
 30 33  1  0  0  0
 31 32  2  0  0  0
 31 28  1  0  0  0
 28  1  1  0  0  0
  1  2  1  0  0  0
  3  2  1  0  0  0
  3  4  1  0  0  0
  3  9  1  0  0  0
  4  5  2  0  0  0
  4  6  1  0  0  0
  6 18  1  0  0  0
  6  7  1  0  0  0
 18 19  2  0  0  0
 19 20  1  0  0  0
 20 21  2  0  0  0
 21 22  1  0  0  0
 22 23  2  0  0  0
 23 24  1  0  0  0
 24 25  2  0  0  0
 25 26  1  0  0  0
 26 27  2  0  0  0
 27 18  1  0  0  0
 27 22  1  0  0  0
  7  8  1  0  0  0
  8 34  1  0  0  0
  8  3  1  0  0  0
 34 35  1  0  0  0
 35 36  2  0  0  0
 35 37  2  0  0  0
 35 38  1  0  0  0
 38 39  1  0  0  0
 38 40  1  0  0  0
  9 10  2  0  0  0
 10 11  1  0  0  0
 11 12  1  0  0  0
 11 13  2  0  0  0
 13 14  1  0  0  0
 14 15  2  0  0  0
 15 16  1  0  0  0
 15  9  1  0  0  0
 16 17  2  0  0  0
 16  1  1  0  0  0
M  END
> <minimizedAffinity>
-8.23210

> <CNNscore>
0.2872783244

> <CNNaffinity>
6.2266130447

> <CNN_VS>
1.7887709141

> <CNNaffinity_variance>
0.1820430756

$$$$



 40 44  0  0  0  0  0  0  0  0999 V2000
   -6.5053   -1.6619  -25.3270 N   0  0  0  0  0  0  0  0  0  0  0  0
   -5.9829   -2.7648  -24.5621 C   0  0  0  0  0  0  0  0  0  0  0  0
   -7.0577   -3.6185  -24.0259 C   0  0  0  0  0  0  0  0  0  0  0  0
   -7.7282   -2.8947  -22.8772 C   0  0  0  0  0  0  0  0  0  0  0  0
   -8.8827   -2.4142  -22.8321 O   0  0  0  0  0  0  0  0  0  0  0  0
   -6.7095   -2.8999  -21.8570 N   0  0  0  0  0  0  0  0  0  0  0  0
   -5.8837   -4.0724  -22.0623 C   0  0  0  0  0  0  0  0  0  0  0  0
   -6.5288   -4.8147  -23.2486 C   0  0  0  0  0  0  0  0  0  0  0  0
   -8.0915   -3.9055  -25.0029 C   0  0  0  0  0  0  0  0  0  0  0  0
   -8.9127   -5.0393  -24.9106 C   0  0  0  0  0  0  0  0  0  0  0  0
   -9.9145   -5.2767  -25.8554 C   0  0  0  0  0  0  0  0  0  0  0  0
  -10.7035   -6.3801  -25.7538 F   0  0  0  0  0  0  0  0  0  0  0  0
  -10.1472   -4.4258  -26.9115 C   0  0  0  0  0  0  0  0  0  0  0  0
   -9.3440   -3.3145  -27.0046 C   0  0  0  0  0  0  0  0  0  0  0  0
   -8.3596   -3.0817  -26.0764 C   0  0  0  0  0  0  0  0  0  0  0  0
   -7.5396   -1.8920  -26.2690 C   0  0  0  0  0  0  0  0  0  0  0  0
   -7.7228   -1.1041  -27.2090 O   0  0  0  0  0  0  0  0  0  0  0  0
   -6.5784   -1.9124  -20.8472 C   0  0  0  0  0  0  0  0  0  0  0  0
   -7.3688   -1.8383  -19.7306 C   0  0  0  0  0  0  0  0  0  0  0  0
   -7.2223   -0.8862  -18.7829 N   0  0  0  0  0  0  0  0  0  0  0  0
   -6.2729    0.0598  -18.8871 C   0  0  0  0  0  0  0  0  0  0  0  0
   -5.4433    0.0403  -19.9895 C   0  0  0  0  0  0  0  0  0  0  0  0
   -4.4794    1.0316  -20.0584 C   0  0  0  0  0  0  0  0  0  0  0  0
   -3.6294    1.0525  -21.1390 C   0  0  0  0  0  0  0  0  0  0  0  0
   -3.7624    0.0908  -22.1156 C   0  0  0  0  0  0  0  0  0  0  0  0
   -4.7266   -0.9096  -22.0574 C   0  0  0  0  0  0  0  0  0  0  0  0
   -5.5871   -0.9312  -20.9636 C   0  0  0  0  0  0  0  0  0  0  0  0
   -5.9642   -0.3530  -25.1748 C   0  0  0  0  0  0  0  0  0  0  0  0
   -8.5575    1.3469  -22.9734 C   0  0  0  0  0  0  0  0  0  0  0  0
   -7.6647    0.3612  -23.5265 N   0  0  0  0  0  0  0  0  0  0  0  0
   -6.8440    0.6873  -24.6647 C   0  0  0  0  0  0  0  0  0  0  0  0
   -6.9726    1.8507  -25.1069 O   0  0  0  0  0  0  0  0  0  0  0  0
   -7.6153   -0.5369  -23.1262 H   0  0  0  0  0  0  0  0  0  0  0  0
   -5.4581   -5.5629  -23.9434 C   0  0  0  0  0  0  0  0  0  0  0  0
   -4.9336   -7.0741  -23.2157 S   0  0  0  0  0  0  0  0  0  0  0  0
   -3.6027   -6.8669  -22.4916 O   0  0  0  0  0  0  0  0  0  0  0  0
   -5.9705   -7.5387  -22.2168 O   0  0  0  0  0  0  0  0  0  0  0  0
   -4.6690   -8.2819  -24.3808 N   0  0  0  0  0  0  0  0  0  0  0  0
   -3.9192   -7.9060  -25.5228 C   0  0  0  0  0  0  0  0  0  0  0  0
   -5.5807   -8.6074  -24.7022 H   0  0  0  0  0  0  0  0  0  0  0  0
 29 30  1  0  0  0
 30 31  1  0  0  0
 30 33  1  0  0  0
 31 32  2  0  0  0
 31 28  1  0  0  0
 28  1  1  0  0  0
  1  2  1  0  0  0
  3  2  1  0  0  0
  3  4  1  0  0  0
  3  9  1  0  0  0
  4  5  2  0  0  0
  4  6  1  0  0  0
  6 18  1  0  0  0
  6  7  1  0  0  0
 18 19  2  0  0  0
 19 20  1  0  0  0
 20 21  2  0  0  0
 21 22  1  0  0  0
 22 23  2  0  0  0
 23 24  1  0  0  0
 24 25  2  0  0  0
 25 26  1  0  0  0
 26 27  2  0  0  0
 27 18  1  0  0  0
 27 22  1  0  0  0
  7  8  1  0  0  0
  8 34  1  0  0  0
  8  3  1  0  0  0
 34 35  1  0  0  0
 35 36  2  0  0  0
 35 37  2  0  0  0
 35 38  1  0  0  0
 38 39  1  0  0  0
 38 40  1  0  0  0
  9 10  2  0  0  0
 10 11  1  0  0  0
 11 12  1  0  0  0
 11 13  2  0  0  0
 13 14  1  0  0  0
 14 15  2  0  0  0
 15 16  1  0  0  0
 15  9  1  0  0  0
 16 17  2  0  0  0
 16  1  1  0  0  0
M  END
> <minimizedAffinity>
-6.76011

> <CNNscore>
0.2827428281

> <CNNaffinity>
5.9810152054

> <CNN_VS>
1.6910891533

> <CNNaffinity_variance>
0.3049837053

$$$$



 40 44  0  0  0  0  0  0  0  0999 V2000
   -7.3381   -0.4775  -22.3826 N   0  0  0  0  0  0  0  0  0  0  0  0
   -6.4021   -0.7947  -23.4303 C   0  0  0  0  0  0  0  0  0  0  0  0
   -7.0131   -0.6770  -24.7661 C   0  0  0  0  0  0  0  0  0  0  0  0
   -7.9422   -1.8529  -24.9826 C   0  0  0  0  0  0  0  0  0  0  0  0
   -9.1917   -1.8512  -25.0510 O   0  0  0  0  0  0  0  0  0  0  0  0
   -7.0314   -2.9653  -25.0905 N   0  0  0  0  0  0  0  0  0  0  0  0
   -5.7804   -2.4629  -25.6209 C   0  0  0  0  0  0  0  0  0  0  0  0
   -6.0313   -0.9668  -25.8917 C   0  0  0  0  0  0  0  0  0  0  0  0
   -7.8128    0.5244  -24.9176 C   0  0  0  0  0  0  0  0  0  0  0  0
   -8.0695    1.0977  -26.1719 C   0  0  0  0  0  0  0  0  0  0  0  0
   -8.8620    2.2430  -26.2872 C   0  0  0  0  0  0  0  0  0  0  0  0
   -9.1028    2.7885  -27.5098 F   0  0  0  0  0  0  0  0  0  0  0  0
   -9.4250    2.8618  -25.1946 C   0  0  0  0  0  0  0  0  0  0  0  0
   -9.1748    2.3024  -23.9644 C   0  0  0  0  0  0  0  0  0  0  0  0
   -8.3959    1.1775  -23.8516 C   0  0  0  0  0  0  0  0  0  0  0  0
   -8.1630    0.6690  -22.5054 C   0  0  0  0  0  0  0  0  0  0  0  0
   -8.6556    1.2017  -21.4997 O   0  0  0  0  0  0  0  0  0  0  0  0
   -7.3479   -4.3007  -24.7320 C   0  0  0  0  0  0  0  0  0  0  0  0
   -6.9933   -4.8879  -23.5460 C   0  0  0  0  0  0  0  0  0  0  0  0
   -7.3080   -6.1633  -23.2292 N   0  0  0  0  0  0  0  0  0  0  0  0
   -8.0008   -6.9412  -24.0790 C   0  0  0  0  0  0  0  0  0  0  0  0
   -8.3880   -6.4084  -25.2915 C   0  0  0  0  0  0  0  0  0  0  0  0
   -9.0993   -7.2423  -26.1371 C   0  0  0  0  0  0  0  0  0  0  0  0
   -9.5066   -6.7550  -27.3566 C   0  0  0  0  0  0  0  0  0  0  0  0
   -9.1958   -5.4577  -27.6982 C   0  0  0  0  0  0  0  0  0  0  0  0
   -8.4819   -4.6107  -26.8573 C   0  0  0  0  0  0  0  0  0  0  0  0
   -8.0696   -5.1036  -25.6227 C   0  0  0  0  0  0  0  0  0  0  0  0
   -7.4122   -1.2810  -21.2086 C   0  0  0  0  0  0  0  0  0  0  0  0
   -4.7903    0.3097  -18.9600 C   0  0  0  0  0  0  0  0  0  0  0  0
   -5.4640   -0.2136  -20.1205 N   0  0  0  0  0  0  0  0  0  0  0  0
   -6.7875   -0.7692  -19.9985 C   0  0  0  0  0  0  0  0  0  0  0  0
   -7.2742   -0.7556  -18.8459 O   0  0  0  0  0  0  0  0  0  0  0  0
   -5.0193   -0.1917  -20.9986 H   0  0  0  0  0  0  0  0  0  0  0  0
   -4.7354   -0.2652  -25.7604 C   0  0  0  0  0  0  0  0  0  0  0  0
   -4.3840    0.9963  -26.9324 S   0  0  0  0  0  0  0  0  0  0  0  0
   -2.8820    1.0365  -27.2168 O   0  0  0  0  0  0  0  0  0  0  0  0
   -5.1217    0.7062  -28.2210 O   0  0  0  0  0  0  0  0  0  0  0  0
   -4.8096    2.5363  -26.3547 N   0  0  0  0  0  0  0  0  0  0  0  0
   -4.8055    2.7078  -24.9482 C   0  0  0  0  0  0  0  0  0  0  0  0
   -5.7507    2.7434  -26.6893 H   0  0  0  0  0  0  0  0  0  0  0  0
 29 30  1  0  0  0
 30 31  1  0  0  0
 30 33  1  0  0  0
 31 32  2  0  0  0
 31 28  1  0  0  0
 28  1  1  0  0  0
  1  2  1  0  0  0
  3  2  1  0  0  0
  3  4  1  0  0  0
  3  9  1  0  0  0
  4  5  2  0  0  0
  4  6  1  0  0  0
  6 18  1  0  0  0
  6  7  1  0  0  0
 18 19  2  0  0  0
 19 20  1  0  0  0
 20 21  2  0  0  0
 21 22  1  0  0  0
 22 23  2  0  0  0
 23 24  1  0  0  0
 24 25  2  0  0  0
 25 26  1  0  0  0
 26 27  2  0  0  0
 27 18  1  0  0  0
 27 22  1  0  0  0
  7  8  1  0  0  0
  8 34  1  0  0  0
  8  3  1  0  0  0
 34 35  1  0  0  0
 35 36  2  0  0  0
 35 37  2  0  0  0
 35 38  1  0  0  0
 38 39  1  0  0  0
 38 40  1  0  0  0
  9 10  2  0  0  0
 10 11  1  0  0  0
 11 12  1  0  0  0
 11 13  2  0  0  0
 13 14  1  0  0  0
 14 15  2  0  0  0
 15 16  1  0  0  0
 15  9  1  0  0  0
 16 17  2  0  0  0
 16  1  1  0  0  0
M  END
> <minimizedAffinity>
-6.74212

> <CNNscore>
0.2717541456

> <CNNaffinity>
6.1340384483

> <CNN_VS>
1.6669503450

> <CNNaffinity_variance>
0.0621144660

$$$$



 42 47  0  0  0  0  0  0  0  0999 V2000
   -5.2338   -0.9916  -21.5294 N   0  0  0  0  0  0  0  0  0  0  0  0
   -6.3928   -1.3263  -22.2905 C   0  0  0  0  0  0  0  0  0  0  0  0
   -6.9039   -0.3301  -23.2631 C   0  0  0  0  0  0  0  0  0  0  0  0
   -8.2112    0.1482  -22.7352 C   0  0  0  0  0  0  0  0  0  0  0  0
   -8.4334    0.6997  -21.6148 O   0  0  0  0  0  0  0  0  0  0  0  0
   -9.2321   -0.0908  -23.6700 N   0  0  0  0  0  0  0  0  0  0  0  0
   -8.7146   -0.9166  -24.7204 C   0  0  0  0  0  0  0  0  0  0  0  0
   -7.2319   -0.8465  -24.6278 C   0  0  0  0  0  0  0  0  0  0  0  0
   -6.0728    0.9158  -23.3666 C   0  0  0  0  0  0  0  0  0  0  0  0
   -6.4871    1.9081  -24.2529 C   0  0  0  0  0  0  0  0  0  0  0  0
   -5.7415    3.0678  -24.4002 C   0  0  0  0  0  0  0  0  0  0  0  0
   -6.2479    4.3199  -25.5135 Cl  0  0  0  0  0  0  0  0  0  0  0  0
   -4.5866    3.2812  -23.6913 C   0  0  0  0  0  0  0  0  0  0  0  0
   -4.1700    2.3012  -22.8091 C   0  0  0  0  0  0  0  0  0  0  0  0
   -4.9246    1.1508  -22.6741 C   0  0  0  0  0  0  0  0  0  0  0  0
   -4.4460    0.1759  -21.7013 C   0  0  0  0  0  0  0  0  0  0  0  0
   -3.3982    0.3542  -21.0513 O   0  0  0  0  0  0  0  0  0  0  0  0
  -10.5850    0.3698  -23.6429 C   0  0  0  0  0  0  0  0  0  0  0  0
  -10.8056    1.6985  -24.0182 C   0  0  0  0  0  0  0  0  0  0  0  0
  -12.0711    2.2095  -24.0285 N   0  0  0  0  0  0  0  0  0  0  0  0
  -13.1135    1.4088  -23.6695 C   0  0  0  0  0  0  0  0  0  0  0  0
  -12.9276    0.1129  -23.2999 C   0  0  0  0  0  0  0  0  0  0  0  0
  -14.0347   -0.6484  -22.9508 C   0  0  0  0  0  0  0  0  0  0  0  0
  -13.8110   -1.9639  -22.5849 C   0  0  0  0  0  0  0  0  0  0  0  0
  -12.5378   -2.4895  -22.5706 C   0  0  0  0  0  0  0  0  0  0  0  0
  -11.4490   -1.7165  -22.9217 C   0  0  0  0  0  0  0  0  0  0  0  0
  -11.6534   -0.3947  -23.2907 C   0  0  0  0  0  0  0  0  0  0  0  0
   -4.7857   -1.9193  -20.4870 C   0  0  0  0  0  0  0  0  0  0  0  0
   -5.4751    0.2379  -17.3649 C   0  0  0  0  0  0  0  0  0  0  0  0
   -5.0421   -0.2642  -18.6518 N   0  0  0  0  0  0  0  0  0  0  0  0
   -5.3133   -1.5586  -19.1408 C   0  0  0  0  0  0  0  0  0  0  0  0
   -5.9851   -2.3958  -18.4574 O   0  0  0  0  0  0  0  0  0  0  0  0
   -4.5210    0.3416  -19.2268 H   0  0  0  0  0  0  0  0  0  0  0  0
   -6.5618   -2.1590  -24.9810 C   0  0  0  0  0  0  0  0  0  0  0  0
   -7.4472   -3.2253  -25.3524 N   0  0  0  0  0  0  0  0  0  0  0  0
   -8.0987   -3.0273  -26.0635 H   0  0  0  0  0  0  0  0  0  0  0  0
   -7.4854   -4.5234  -24.8104 C   0  0  0  0  0  0  0  0  0  0  0  0
   -7.4285   -4.5946  -23.4094 C   0  0  0  0  0  0  0  0  0  0  0  0
   -7.4446   -5.7878  -22.7709 N   0  0  0  0  0  0  0  0  0  0  0  0
   -7.5150   -6.9194  -23.4736 C   0  0  0  0  0  0  0  0  0  0  0  0
   -7.5714   -6.8731  -24.8478 C   0  0  0  0  0  0  0  0  0  0  0  0
   -7.5555   -5.6703  -25.4973 N   0  0  0  0  0  0  0  0  0  0  0  0
 29 30  1  0  0  0
 30 31  1  0  0  0
 30 33  1  0  0  0
 31 32  2  0  0  0
 31 28  1  0  0  0
 28  1  1  0  0  0
  1  2  1  0  0  0
  3  2  1  0  0  0
  3  4  1  0  0  0
  3  9  1  0  0  0
  4  5  2  0  0  0
  4  6  1  0  0  0
  6 18  1  0  0  0
  6  7  1  0  0  0
 18 19  2  0  0  0
 19 20  1  0  0  0
 20 21  2  0  0  0
 21 22  1  0  0  0
 22 23  2  0  0  0
 23 24  1  0  0  0
 24 25  2  0  0  0
 25 26  1  0  0  0
 26 27  2  0  0  0
 27 18  1  0  0  0
 27 22  1  0  0  0
  7  8  1  0  0  0
  8 34  1  0  0  0
  8  3  1  0  0  0
 34 35  1  0  0  0
 35 37  1  0  0  0
 35 36  1  0  0  0
 37 38  2  0  0  0
 38 39  1  0  0  0
 39 40  2  0  0  0
 40 41  1  0  0  0
 41 42  2  0  0  0
 42 37  1  0  0  0
  9 10  2  0  0  0
 10 11  1  0  0  0
 11 12  1  0  0  0
 11 13  2  0  0  0
 13 14  1  0  0  0
 14 15  2  0  0  0
 15 16  1  0  0  0
 15  9  1  0  0  0
 16 17  2  0  0  0
 16  1  1  0  0  0
M  END
> <minimizedAffinity>
-8.06607

> <CNNscore>
0.5211232305

> <CNNaffinity>
7.0769653320

> <CNN_VS>
3.6879711151

> <CNNaffinity_variance>
0.0085527152

$$$$



 42 47  0  0  0  0  0  0  0  0999 V2000
   -5.2267   -0.3023  -21.6275 N   0  0  0  0  0  0  0  0  0  0  0  0
   -6.3212   -0.6266  -22.4826 C   0  0  0  0  0  0  0  0  0  0  0  0
   -6.9429    0.4659  -23.2697 C   0  0  0  0  0  0  0  0  0  0  0  0
   -8.3088    0.6677  -22.7128 C   0  0  0  0  0  0  0  0  0  0  0  0
   -8.6170    0.9623  -21.5182 O   0  0  0  0  0  0  0  0  0  0  0  0
   -9.2763    0.4870  -23.7150 N   0  0  0  0  0  0  0  0  0  0  0  0
   -8.6408   -0.0514  -24.8809 C   0  0  0  0  0  0  0  0  0  0  0  0
   -7.1812    0.1838  -24.7189 C   0  0  0  0  0  0  0  0  0  0  0  0
   -6.2790    1.8022  -23.1044 C   0  0  0  0  0  0  0  0  0  0  0  0
   -6.8055    2.8865  -23.8037 C   0  0  0  0  0  0  0  0  0  0  0  0
   -6.2145    4.1365  -23.7010 C   0  0  0  0  0  0  0  0  0  0  0  0
   -6.8627    5.5057  -24.5778 Cl  0  0  0  0  0  0  0  0  0  0  0  0
   -5.1075    4.3523  -22.9201 C   0  0  0  0  0  0  0  0  0  0  0  0
   -4.5803    3.2810  -22.2224 C   0  0  0  0  0  0  0  0  0  0  0  0
   -5.1813    2.0413  -22.3357 C   0  0  0  0  0  0  0  0  0  0  0  0
   -4.5945    0.9654  -21.5458 C   0  0  0  0  0  0  0  0  0  0  0  0
   -3.5883    1.1449  -20.8334 O   0  0  0  0  0  0  0  0  0  0  0  0
  -10.6778    0.7618  -23.6546 C   0  0  0  0  0  0  0  0  0  0  0  0
  -11.0777    2.0658  -23.9618 C   0  0  0  0  0  0  0  0  0  0  0  0
  -12.3998    2.4039  -23.9370 N   0  0  0  0  0  0  0  0  0  0  0  0
  -13.3217    1.4553  -23.6101 C   0  0  0  0  0  0  0  0  0  0  0  0
  -12.9606    0.1794  -23.3067 C   0  0  0  0  0  0  0  0  0  0  0  0
  -13.9520   -0.7383  -22.9873 C   0  0  0  0  0  0  0  0  0  0  0  0
  -13.5509   -2.0284  -22.6889 C   0  0  0  0  0  0  0  0  0  0  0  0
  -12.2192   -2.3801  -22.7105 C   0  0  0  0  0  0  0  0  0  0  0  0
  -11.2475   -1.4532  -23.0313 C   0  0  0  0  0  0  0  0  0  0  0  0
  -11.6304   -0.1541  -23.3326 C   0  0  0  0  0  0  0  0  0  0  0  0
   -4.6773   -1.3493  -20.7615 C   0  0  0  0  0  0  0  0  0  0  0  0
   -5.5415    0.1825  -17.3288 C   0  0  0  0  0  0  0  0  0  0  0  0
   -5.0838   -0.0515  -18.6821 N   0  0  0  0  0  0  0  0  0  0  0  0
   -5.2107   -1.2747  -19.3720 C   0  0  0  0  0  0  0  0  0  0  0  0
   -5.7607   -2.2856  -18.8291 O   0  0  0  0  0  0  0  0  0  0  0  0
   -4.6530    0.6970  -19.1546 H   0  0  0  0  0  0  0  0  0  0  0  0
   -6.3415   -0.9430  -25.2862 C   0  0  0  0  0  0  0  0  0  0  0  0
   -5.0148   -0.5804  -25.6951 N   0  0  0  0  0  0  0  0  0  0  0  0
   -4.2891   -1.1844  -25.4163 H   0  0  0  0  0  0  0  0  0  0  0  0
   -4.6384    0.5450  -26.4514 C   0  0  0  0  0  0  0  0  0  0  0  0
   -3.8350    1.4815  -25.7814 C   0  0  0  0  0  0  0  0  0  0  0  0
   -3.4192    2.6117  -26.3989 N   0  0  0  0  0  0  0  0  0  0  0  0
   -3.7726    2.8496  -27.6629 C   0  0  0  0  0  0  0  0  0  0  0  0
   -4.5598    1.9456  -28.3387 C   0  0  0  0  0  0  0  0  0  0  0  0
   -4.9822    0.8025  -27.7192 N   0  0  0  0  0  0  0  0  0  0  0  0
 29 30  1  0  0  0
 30 31  1  0  0  0
 30 33  1  0  0  0
 31 32  2  0  0  0
 31 28  1  0  0  0
 28  1  1  0  0  0
  1  2  1  0  0  0
  3  2  1  0  0  0
  3  4  1  0  0  0
  3  9  1  0  0  0
  4  5  2  0  0  0
  4  6  1  0  0  0
  6 18  1  0  0  0
  6  7  1  0  0  0
 18 19  2  0  0  0
 19 20  1  0  0  0
 20 21  2  0  0  0
 21 22  1  0  0  0
 22 23  2  0  0  0
 23 24  1  0  0  0
 24 25  2  0  0  0
 25 26  1  0  0  0
 26 27  2  0  0  0
 27 18  1  0  0  0
 27 22  1  0  0  0
  7  8  1  0  0  0
  8 34  1  0  0  0
  8  3  1  0  0  0
 34 35  1  0  0  0
 35 37  1  0  0  0
 35 36  1  0  0  0
 37 38  2  0  0  0
 38 39  1  0  0  0
 39 40  2  0  0  0
 40 41  1  0  0  0
 41 42  2  0  0  0
 42 37  1  0  0  0
  9 10  2  0  0  0
 10 11  1  0  0  0
 11 12  1  0  0  0
 11 13  2  0  0  0
 13 14  1  0  0  0
 14 15  2  0  0  0
 15 16  1  0  0  0
 15  9  1  0  0  0
 16 17  2  0  0  0
 16  1  1  0  0  0
M  END
> <minimizedAffinity>
-6.63183

> <CNNscore>
0.4033092558

> <CNNaffinity>
6.6608214378

> <CNN_VS>
2.6863708496

> <CNNaffinity_variance>
0.0799672753

$$$$



 42 47  0  0  0  0  0  0  0  0999 V2000
  -10.4895   -2.7178  -23.8972 N   0  0  0  0  0  0  0  0  0  0  0  0
  -10.1008   -1.6082  -23.0897 C   0  0  0  0  0  0  0  0  0  0  0  0
   -8.7626   -1.0106  -23.3175 C   0  0  0  0  0  0  0  0  0  0  0  0
   -7.9486   -1.3162  -22.1091 C   0  0  0  0  0  0  0  0  0  0  0  0
   -7.6758   -2.4602  -21.6340 O   0  0  0  0  0  0  0  0  0  0  0  0
   -7.4871   -0.1283  -21.5182 N   0  0  0  0  0  0  0  0  0  0  0  0
   -8.1391    0.9840  -22.1432 C   0  0  0  0  0  0  0  0  0  0  0  0
   -8.7131    0.4806  -23.4195 C   0  0  0  0  0  0  0  0  0  0  0  0
   -7.9915   -1.6329  -24.4453 C   0  0  0  0  0  0  0  0  0  0  0  0
   -6.7196   -1.1355  -24.7225 C   0  0  0  0  0  0  0  0  0  0  0  0
   -5.9767   -1.6624  -25.7679 C   0  0  0  0  0  0  0  0  0  0  0  0
   -4.3800   -1.0435  -26.1298 Cl  0  0  0  0  0  0  0  0  0  0  0  0
   -6.4555   -2.6771  -26.5572 C   0  0  0  0  0  0  0  0  0  0  0  0
   -7.7165   -3.1764  -26.2872 C   0  0  0  0  0  0  0  0  0  0  0  0
   -8.4443   -2.6400  -25.2415 C   0  0  0  0  0  0  0  0  0  0  0  0
   -9.7506   -3.2374  -24.9914 C   0  0  0  0  0  0  0  0  0  0  0  0
  -10.2002   -4.1580  -25.7004 O   0  0  0  0  0  0  0  0  0  0  0  0
   -6.5360    0.0256  -20.4622 C   0  0  0  0  0  0  0  0  0  0  0  0
   -6.8872   -0.5025  -19.2162 C   0  0  0  0  0  0  0  0  0  0  0  0
   -6.0278   -0.4049  -18.1605 N   0  0  0  0  0  0  0  0  0  0  0  0
   -4.8259    0.2121  -18.3376 C   0  0  0  0  0  0  0  0  0  0  0  0
   -4.4587    0.7349  -19.5385 C   0  0  0  0  0  0  0  0  0  0  0  0
   -3.2172    1.3458  -19.6505 C   0  0  0  0  0  0  0  0  0  0  0  0
   -2.8728    1.8623  -20.8870 C   0  0  0  0  0  0  0  0  0  0  0  0
   -3.7330    1.7697  -21.9590 C   0  0  0  0  0  0  0  0  0  0  0  0
   -4.9636    1.1578  -21.8280 C   0  0  0  0  0  0  0  0  0  0  0  0
   -5.3270    0.6345  -20.5955 C   0  0  0  0  0  0  0  0  0  0  0  0
  -11.7606   -3.3870  -23.6069 C   0  0  0  0  0  0  0  0  0  0  0  0
  -14.0226   -0.3273  -22.9762 C   0  0  0  0  0  0  0  0  0  0  0  0
  -13.1070   -1.3001  -23.5337 N   0  0  0  0  0  0  0  0  0  0  0  0
  -12.7214   -2.4971  -22.8959 C   0  0  0  0  0  0  0  0  0  0  0  0
  -13.1754   -2.8106  -21.7492 O   0  0  0  0  0  0  0  0  0  0  0  0
  -12.7262   -1.1126  -24.4220 H   0  0  0  0  0  0  0  0  0  0  0  0
  -10.0383    1.1316  -23.7610 C   0  0  0  0  0  0  0  0  0  0  0  0
  -10.4530    2.1880  -22.8830 N   0  0  0  0  0  0  0  0  0  0  0  0
   -9.9560    2.2768  -22.0378 H   0  0  0  0  0  0  0  0  0  0  0  0
  -11.4932    3.1108  -23.0989 C   0  0  0  0  0  0  0  0  0  0  0  0
  -12.6655    2.8827  -22.3606 C   0  0  0  0  0  0  0  0  0  0  0  0
  -13.7406    3.6944  -22.4913 N   0  0  0  0  0  0  0  0  0  0  0  0
  -13.6965    4.7294  -23.3316 C   0  0  0  0  0  0  0  0  0  0  0  0
  -12.5578    4.9714  -24.0654 C   0  0  0  0  0  0  0  0  0  0  0  0
  -11.4693    4.1544  -23.9368 N   0  0  0  0  0  0  0  0  0  0  0  0
 29 30  1  0  0  0
 30 31  1  0  0  0
 30 33  1  0  0  0
 31 32  2  0  0  0
 31 28  1  0  0  0
 28  1  1  0  0  0
  1  2  1  0  0  0
  3  2  1  0  0  0
  3  4  1  0  0  0
  3  9  1  0  0  0
  4  5  2  0  0  0
  4  6  1  0  0  0
  6 18  1  0  0  0
  6  7  1  0  0  0
 18 19  2  0  0  0
 19 20  1  0  0  0
 20 21  2  0  0  0
 21 22  1  0  0  0
 22 23  2  0  0  0
 23 24  1  0  0  0
 24 25  2  0  0  0
 25 26  1  0  0  0
 26 27  2  0  0  0
 27 18  1  0  0  0
 27 22  1  0  0  0
  7  8  1  0  0  0
  8 34  1  0  0  0
  8  3  1  0  0  0
 34 35  1  0  0  0
 35 37  1  0  0  0
 35 36  1  0  0  0
 37 38  2  0  0  0
 38 39  1  0  0  0
 39 40  2  0  0  0
 40 41  1  0  0  0
 41 42  2  0  0  0
 42 37  1  0  0  0
  9 10  2  0  0  0
 10 11  1  0  0  0
 11 12  1  0  0  0
 11 13  2  0  0  0
 13 14  1  0  0  0
 14 15  2  0  0  0
 15 16  1  0  0  0
 15  9  1  0  0  0
 16 17  2  0  0  0
 16  1  1  0  0  0
M  END
> <minimizedAffinity>
-8.29522

> <CNNscore>
0.2949722707

> <CNNaffinity>
6.6967940331

> <CNN_VS>
1.9753684998

> <CNNaffinity_variance>
0.0813292265

$$$$



 42 47  0  0  0  0  0  0  0  0999 V2000
   -5.3868   -1.1946  -21.5263 N   0  0  0  0  0  0  0  0  0  0  0  0
   -6.5573   -1.6438  -22.2065 C   0  0  0  0  0  0  0  0  0  0  0  0
   -7.1564   -0.7550  -23.2316 C   0  0  0  0  0  0  0  0  0  0  0  0
   -8.4636   -0.2968  -22.6861 C   0  0  0  0  0  0  0  0  0  0  0  0
   -8.6679    0.3331  -21.6043 O   0  0  0  0  0  0  0  0  0  0  0  0
   -9.5081   -0.6584  -23.5530 N   0  0  0  0  0  0  0  0  0  0  0  0
   -8.9927   -1.5420  -24.5563 C   0  0  0  0  0  0  0  0  0  0  0  0
   -7.5128   -1.3955  -24.5352 C   0  0  0  0  0  0  0  0  0  0  0  0
   -6.3935    0.5157  -23.4702 C   0  0  0  0  0  0  0  0  0  0  0  0
   -6.8923    1.4123  -24.4133 C   0  0  0  0  0  0  0  0  0  0  0  0
   -6.2122    2.5896  -24.6849 C   0  0  0  0  0  0  0  0  0  0  0  0
   -6.8250    3.7219  -25.8706 Cl  0  0  0  0  0  0  0  0  0  0  0  0
   -5.0417    2.9136  -24.0469 C   0  0  0  0  0  0  0  0  0  0  0  0
   -4.5415    2.0291  -23.1090 C   0  0  0  0  0  0  0  0  0  0  0  0
   -5.2316    0.8596  -22.8499 C   0  0  0  0  0  0  0  0  0  0  0  0
   -4.6660   -0.0095  -21.8250 C   0  0  0  0  0  0  0  0  0  0  0  0
   -3.6031    0.2697  -21.2381 O   0  0  0  0  0  0  0  0  0  0  0  0
  -10.8802   -0.2607  -23.5028 C   0  0  0  0  0  0  0  0  0  0  0  0
  -11.8113   -1.2507  -23.1744 C   0  0  0  0  0  0  0  0  0  0  0  0
  -13.1396   -0.9470  -23.0958 N   0  0  0  0  0  0  0  0  0  0  0  0
  -13.5442    0.3308  -23.3405 C   0  0  0  0  0  0  0  0  0  0  0  0
  -12.6602    1.3134  -23.6622 C   0  0  0  0  0  0  0  0  0  0  0  0
  -13.1400    2.5952  -23.8941 C   0  0  0  0  0  0  0  0  0  0  0  0
  -12.2136    3.5719  -24.2139 C   0  0  0  0  0  0  0  0  0  0  0  0
  -10.8708    3.2761  -24.2965 C   0  0  0  0  0  0  0  0  0  0  0  0
  -10.4126    1.9950  -24.0617 C   0  0  0  0  0  0  0  0  0  0  0  0
  -11.3266    1.0019  -23.7405 C   0  0  0  0  0  0  0  0  0  0  0  0
   -4.8512   -2.0125  -20.4344 C   0  0  0  0  0  0  0  0  0  0  0  0
   -5.4537    0.3113  -17.4156 C   0  0  0  0  0  0  0  0  0  0  0  0
   -5.0505   -0.2624  -18.6820 N   0  0  0  0  0  0  0  0  0  0  0  0
   -5.3503   -1.5753  -19.1001 C   0  0  0  0  0  0  0  0  0  0  0  0
   -6.0235   -2.3656  -18.3642 O   0  0  0  0  0  0  0  0  0  0  0  0
   -4.5297    0.3047  -19.2955 H   0  0  0  0  0  0  0  0  0  0  0  0
   -6.7927   -2.6997  -24.8124 C   0  0  0  0  0  0  0  0  0  0  0  0
   -7.5371   -3.8914  -24.5213 N   0  0  0  0  0  0  0  0  0  0  0  0
   -8.4295   -3.9624  -24.9309 H   0  0  0  0  0  0  0  0  0  0  0  0
   -7.1300   -4.9695  -23.7139 C   0  0  0  0  0  0  0  0  0  0  0  0
   -7.8375   -6.1672  -23.9041 C   0  0  0  0  0  0  0  0  0  0  0  0
   -7.5471   -7.2714  -23.1774 N   0  0  0  0  0  0  0  0  0  0  0  0
   -6.5761   -7.2320  -22.2637 C   0  0  0  0  0  0  0  0  0  0  0  0
   -5.8699   -6.0686  -22.0604 C   0  0  0  0  0  0  0  0  0  0  0  0
   -6.1595   -4.9507  -22.7920 N   0  0  0  0  0  0  0  0  0  0  0  0
 29 30  1  0  0  0
 30 31  1  0  0  0
 30 33  1  0  0  0
 31 32  2  0  0  0
 31 28  1  0  0  0
 28  1  1  0  0  0
  1  2  1  0  0  0
  3  2  1  0  0  0
  3  4  1  0  0  0
  3  9  1  0  0  0
  4  5  2  0  0  0
  4  6  1  0  0  0
  6 18  1  0  0  0
  6  7  1  0  0  0
 18 19  2  0  0  0
 19 20  1  0  0  0
 20 21  2  0  0  0
 21 22  1  0  0  0
 22 23  2  0  0  0
 23 24  1  0  0  0
 24 25  2  0  0  0
 25 26  1  0  0  0
 26 27  2  0  0  0
 27 18  1  0  0  0
 27 22  1  0  0  0
  7  8  1  0  0  0
  8 34  1  0  0  0
  8  3  1  0  0  0
 34 35  1  0  0  0
 35 37  1  0  0  0
 35 36  1  0  0  0
 37 38  2  0  0  0
 38 39  1  0  0  0
 39 40  2  0  0  0
 40 41  1  0  0  0
 41 42  2  0  0  0
 42 37  1  0  0  0
  9 10  2  0  0  0
 10 11  1  0  0  0
 11 12  1  0  0  0
 11 13  2  0  0  0
 13 14  1  0  0  0
 14 15  2  0  0  0
 15 16  1  0  0  0
 15  9  1  0  0  0
 16 17  2  0  0  0
 16  1  1  0  0  0
M  END
> <minimizedAffinity>
-8.66112

> <CNNscore>
0.2879853249

> <CNNaffinity>
6.6433286667

> <CNN_VS>
1.9131811857

> <CNNaffinity_variance>
0.2514581084

$$$$



 42 47  0  0  0  0  0  0  0  0999 V2000
   -5.5500   -1.4755  -21.5881 N   0  0  0  0  0  0  0  0  0  0  0  0
   -6.7576   -1.9342  -22.1928 C   0  0  0  0  0  0  0  0  0  0  0  0
   -7.3690   -1.1008  -23.2565 C   0  0  0  0  0  0  0  0  0  0  0  0
   -8.6411   -0.5649  -22.6989 C   0  0  0  0  0  0  0  0  0  0  0  0
   -8.7865    0.1450  -21.6579 O   0  0  0  0  0  0  0  0  0  0  0  0
   -9.7273   -0.9534  -23.5004 N   0  0  0  0  0  0  0  0  0  0  0  0
   -9.2755   -1.9205  -24.4562 C   0  0  0  0  0  0  0  0  0  0  0  0
   -7.7924   -1.8192  -24.4980 C   0  0  0  0  0  0  0  0  0  0  0  0
   -6.5794    0.1257  -23.6115 C   0  0  0  0  0  0  0  0  0  0  0  0
   -7.0873    0.9694  -24.5974 C   0  0  0  0  0  0  0  0  0  0  0  0
   -6.3843    2.1031  -24.9758 C   0  0  0  0  0  0  0  0  0  0  0  0
   -7.0085    3.1685  -26.2162 Cl  0  0  0  0  0  0  0  0  0  0  0  0
   -5.1820    2.4341  -24.4042 C   0  0  0  0  0  0  0  0  0  0  0  0
   -4.6725    1.6020  -23.4242 C   0  0  0  0  0  0  0  0  0  0  0  0
   -5.3856    0.4756  -23.0586 C   0  0  0  0  0  0  0  0  0  0  0  0
   -4.8072   -0.3372  -21.9953 C   0  0  0  0  0  0  0  0  0  0  0  0
   -3.7154   -0.0510  -21.4677 O   0  0  0  0  0  0  0  0  0  0  0  0
  -11.0846   -0.5104  -23.4300 C   0  0  0  0  0  0  0  0  0  0  0  0
  -12.0428   -1.4686  -23.0859 C   0  0  0  0  0  0  0  0  0  0  0  0
  -13.3590   -1.1211  -22.9875 N   0  0  0  0  0  0  0  0  0  0  0  0
  -13.7248    0.1692  -23.2280 C   0  0  0  0  0  0  0  0  0  0  0  0
  -12.8138    1.1215  -23.5648 C   0  0  0  0  0  0  0  0  0  0  0  0
  -13.2544    2.4183  -23.7915 C   0  0  0  0  0  0  0  0  0  0  0  0
  -12.3013    3.3634  -24.1269 C   0  0  0  0  0  0  0  0  0  0  0  0
  -10.9703    3.0232  -24.2295 C   0  0  0  0  0  0  0  0  0  0  0  0
  -10.5512    1.7280  -23.9996 C   0  0  0  0  0  0  0  0  0  0  0  0
  -11.4926    0.7660  -23.6629 C   0  0  0  0  0  0  0  0  0  0  0  0
   -4.9975   -2.2314  -20.4606 C   0  0  0  0  0  0  0  0  0  0  0  0
   -5.3750    0.2967  -17.5723 C   0  0  0  0  0  0  0  0  0  0  0  0
   -5.0415   -0.3739  -18.8111 N   0  0  0  0  0  0  0  0  0  0  0  0
   -5.4334   -1.6869  -19.1438 C   0  0  0  0  0  0  0  0  0  0  0  0
   -6.1354   -2.3887  -18.3475 O   0  0  0  0  0  0  0  0  0  0  0  0
   -4.5023    0.1224  -19.4685 H   0  0  0  0  0  0  0  0  0  0  0  0
   -7.1209   -3.1615  -24.7073 C   0  0  0  0  0  0  0  0  0  0  0  0
   -8.0037   -4.2903  -24.7794 N   0  0  0  0  0  0  0  0  0  0  0  0
   -8.4506   -4.5521  -23.9422 H   0  0  0  0  0  0  0  0  0  0  0  0
   -8.3000   -5.0638  -25.9170 C   0  0  0  0  0  0  0  0  0  0  0  0
   -7.4722   -6.1793  -26.1209 C   0  0  0  0  0  0  0  0  0  0  0  0
   -7.6494   -6.9931  -27.1877 N   0  0  0  0  0  0  0  0  0  0  0  0
   -8.6220   -6.7405  -28.0649 C   0  0  0  0  0  0  0  0  0  0  0  0
   -9.4450   -5.6524  -27.8848 C   0  0  0  0  0  0  0  0  0  0  0  0
   -9.2700   -4.8275  -26.8088 N   0  0  0  0  0  0  0  0  0  0  0  0
 29 30  1  0  0  0
 30 31  1  0  0  0
 30 33  1  0  0  0
 31 32  2  0  0  0
 31 28  1  0  0  0
 28  1  1  0  0  0
  1  2  1  0  0  0
  3  2  1  0  0  0
  3  4  1  0  0  0
  3  9  1  0  0  0
  4  5  2  0  0  0
  4  6  1  0  0  0
  6 18  1  0  0  0
  6  7  1  0  0  0
 18 19  2  0  0  0
 19 20  1  0  0  0
 20 21  2  0  0  0
 21 22  1  0  0  0
 22 23  2  0  0  0
 23 24  1  0  0  0
 24 25  2  0  0  0
 25 26  1  0  0  0
 26 27  2  0  0  0
 27 18  1  0  0  0
 27 22  1  0  0  0
  7  8  1  0  0  0
  8 34  1  0  0  0
  8  3  1  0  0  0
 34 35  1  0  0  0
 35 37  1  0  0  0
 35 36  1  0  0  0
 37 38  2  0  0  0
 38 39  1  0  0  0
 39 40  2  0  0  0
 40 41  1  0  0  0
 41 42  2  0  0  0
 42 37  1  0  0  0
  9 10  2  0  0  0
 10 11  1  0  0  0
 11 12  1  0  0  0
 11 13  2  0  0  0
 13 14  1  0  0  0
 14 15  2  0  0  0
 15 16  1  0  0  0
 15  9  1  0  0  0
 16 17  2  0  0  0
 16  1  1  0  0  0
M  END
> <minimizedAffinity>
-8.90572

> <CNNscore>
0.2276575267

> <CNNaffinity>
6.7027983665

> <CNN_VS>
1.5259424448

> <CNNaffinity_variance>
0.1236893311

$$$$



 42 47  0  0  0  0  0  0  0  0999 V2000
   -5.5806   -1.4808  -21.6003 N   0  0  0  0  0  0  0  0  0  0  0  0
   -6.7972   -1.9358  -22.1896 C   0  0  0  0  0  0  0  0  0  0  0  0
   -7.4045   -1.1150  -23.2652 C   0  0  0  0  0  0  0  0  0  0  0  0
   -8.6668   -0.5532  -22.7108 C   0  0  0  0  0  0  0  0  0  0  0  0
   -8.7975    0.1777  -21.6824 O   0  0  0  0  0  0  0  0  0  0  0  0
   -9.7623   -0.9432  -23.4988 N   0  0  0  0  0  0  0  0  0  0  0  0
   -9.3278   -1.9334  -24.4388 C   0  0  0  0  0  0  0  0  0  0  0  0
   -7.8438   -1.8512  -24.4907 C   0  0  0  0  0  0  0  0  0  0  0  0
   -6.6022    0.0949  -23.6475 C   0  0  0  0  0  0  0  0  0  0  0  0
   -7.1054    0.9262  -24.6463 C   0  0  0  0  0  0  0  0  0  0  0  0
   -6.3909    2.0439  -25.0497 C   0  0  0  0  0  0  0  0  0  0  0  0
   -7.0092    3.0935  -26.3064 Cl  0  0  0  0  0  0  0  0  0  0  0  0
   -5.1813    2.3707  -24.4911 C   0  0  0  0  0  0  0  0  0  0  0  0
   -4.6763    1.5508  -23.4986 C   0  0  0  0  0  0  0  0  0  0  0  0
   -5.4010    0.4403  -23.1080 C   0  0  0  0  0  0  0  0  0  0  0  0
   -4.8263   -0.3595  -22.0329 C   0  0  0  0  0  0  0  0  0  0  0  0
   -3.7281   -0.0770  -21.5168 O   0  0  0  0  0  0  0  0  0  0  0  0
  -11.1136   -0.4823  -23.4291 C   0  0  0  0  0  0  0  0  0  0  0  0
  -12.0850   -1.4286  -23.0888 C   0  0  0  0  0  0  0  0  0  0  0  0
  -13.3966   -1.0638  -22.9913 N   0  0  0  0  0  0  0  0  0  0  0  0
  -13.7448    0.2319  -23.2291 C   0  0  0  0  0  0  0  0  0  0  0  0
  -12.8207    1.1729  -23.5622 C   0  0  0  0  0  0  0  0  0  0  0  0
  -13.2437    2.4760  -23.7862 C   0  0  0  0  0  0  0  0  0  0  0  0
  -12.2775    3.4091  -24.1178 C   0  0  0  0  0  0  0  0  0  0  0  0
  -10.9511    3.0515  -24.2194 C   0  0  0  0  0  0  0  0  0  0  0  0
  -10.5496    1.7502  -23.9923 C   0  0  0  0  0  0  0  0  0  0  0  0
  -11.5043    0.8000  -23.6593 C   0  0  0  0  0  0  0  0  0  0  0  0
   -5.0308   -2.2223  -20.4619 C   0  0  0  0  0  0  0  0  0  0  0  0
   -5.3649    0.3505  -17.6080 C   0  0  0  0  0  0  0  0  0  0  0  0
   -5.0423   -0.3426  -18.8373 N   0  0  0  0  0  0  0  0  0  0  0  0
   -5.4583   -1.6523  -19.1531 C   0  0  0  0  0  0  0  0  0  0  0  0
   -6.1743   -2.3302  -18.3487 O   0  0  0  0  0  0  0  0  0  0  0  0
   -4.4931    0.1348  -19.5003 H   0  0  0  0  0  0  0  0  0  0  0  0
   -7.1899   -3.2053  -24.6786 C   0  0  0  0  0  0  0  0  0  0  0  0
   -6.7635   -3.5062  -26.0151 N   0  0  0  0  0  0  0  0  0  0  0  0
   -7.4382   -3.4036  -26.7247 H   0  0  0  0  0  0  0  0  0  0  0  0
   -5.4855   -3.9322  -26.4217 C   0  0  0  0  0  0  0  0  0  0  0  0
   -4.4608   -2.9820  -26.2860 C   0  0  0  0  0  0  0  0  0  0  0  0
   -3.1908   -3.2688  -26.6553 N   0  0  0  0  0  0  0  0  0  0  0  0
   -2.8972   -4.4692  -27.1573 C   0  0  0  0  0  0  0  0  0  0  0  0
   -3.8859   -5.4157  -27.2994 C   0  0  0  0  0  0  0  0  0  0  0  0
   -5.1703   -5.1308  -26.9278 N   0  0  0  0  0  0  0  0  0  0  0  0
 29 30  1  0  0  0
 30 31  1  0  0  0
 30 33  1  0  0  0
 31 32  2  0  0  0
 31 28  1  0  0  0
 28  1  1  0  0  0
  1  2  1  0  0  0
  3  2  1  0  0  0
  3  4  1  0  0  0
  3  9  1  0  0  0
  4  5  2  0  0  0
  4  6  1  0  0  0
  6 18  1  0  0  0
  6  7  1  0  0  0
 18 19  2  0  0  0
 19 20  1  0  0  0
 20 21  2  0  0  0
 21 22  1  0  0  0
 22 23  2  0  0  0
 23 24  1  0  0  0
 24 25  2  0  0  0
 25 26  1  0  0  0
 26 27  2  0  0  0
 27 18  1  0  0  0
 27 22  1  0  0  0
  7  8  1  0  0  0
  8 34  1  0  0  0
  8  3  1  0  0  0
 34 35  1  0  0  0
 35 37  1  0  0  0
 35 36  1  0  0  0
 37 38  2  0  0  0
 38 39  1  0  0  0
 39 40  2  0  0  0
 40 41  1  0  0  0
 41 42  2  0  0  0
 42 37  1  0  0  0
  9 10  2  0  0  0
 10 11  1  0  0  0
 11 12  1  0  0  0
 11 13  2  0  0  0
 13 14  1  0  0  0
 14 15  2  0  0  0
 15 16  1  0  0  0
 15  9  1  0  0  0
 16 17  2  0  0  0
 16  1  1  0  0  0
M  END
> <minimizedAffinity>
-7.94475

> <CNNscore>
0.2181875110

> <CNNaffinity>
6.5337433815

> <CNN_VS>
1.4255812168

> <CNNaffinity_variance>
0.1435654312

$$$$



 42 47  0  0  0  0  0  0  0  0999 V2000
   -7.5044   -1.4823  -21.5860 N   0  0  0  0  0  0  0  0  0  0  0  0
   -8.8824   -1.1513  -21.7463 C   0  0  0  0  0  0  0  0  0  0  0  0
   -9.3069   -0.5153  -23.0172 C   0  0  0  0  0  0  0  0  0  0  0  0
   -9.7021    0.8806  -22.6833 C   0  0  0  0  0  0  0  0  0  0  0  0
   -8.9849    1.7745  -22.1397 O   0  0  0  0  0  0  0  0  0  0  0  0
  -11.0351    1.1140  -23.0600 N   0  0  0  0  0  0  0  0  0  0  0  0
  -11.6367   -0.1323  -23.4312 C   0  0  0  0  0  0  0  0  0  0  0  0
  -10.5238   -1.0896  -23.6697 C   0  0  0  0  0  0  0  0  0  0  0  0
   -8.2063   -0.3531  -24.0252 C   0  0  0  0  0  0  0  0  0  0  0  0
   -8.5179    0.2433  -25.2454 C   0  0  0  0  0  0  0  0  0  0  0  0
   -7.5408    0.3958  -26.2173 C   0  0  0  0  0  0  0  0  0  0  0  0
   -7.9200    1.1387  -27.7561 Cl  0  0  0  0  0  0  0  0  0  0  0  0
   -6.2507   -0.0265  -26.0198 C   0  0  0  0  0  0  0  0  0  0  0  0
   -5.9340   -0.6183  -24.8107 C   0  0  0  0  0  0  0  0  0  0  0  0
   -6.9197   -0.7630  -23.8524 C   0  0  0  0  0  0  0  0  0  0  0  0
   -6.5079   -1.3630  -22.5890 C   0  0  0  0  0  0  0  0  0  0  0  0
   -5.3407   -1.7533  -22.3949 O   0  0  0  0  0  0  0  0  0  0  0  0
  -11.7450    2.3544  -23.0867 C   0  0  0  0  0  0  0  0  0  0  0  0
  -12.7612    2.5190  -22.1406 C   0  0  0  0  0  0  0  0  0  0  0  0
  -13.4777    3.6797  -22.0952 N   0  0  0  0  0  0  0  0  0  0  0  0
  -13.1891    4.6732  -22.9819 C   0  0  0  0  0  0  0  0  0  0  0  0
  -12.2062    4.5399  -23.9127 C   0  0  0  0  0  0  0  0  0  0  0  0
  -11.9612    5.5937  -24.7825 C   0  0  0  0  0  0  0  0  0  0  0  0
  -10.9513    5.4273  -25.7134 C   0  0  0  0  0  0  0  0  0  0  0  0
  -10.2225    4.2596  -25.7683 C   0  0  0  0  0  0  0  0  0  0  0  0
  -10.4806    3.2226  -24.8941 C   0  0  0  0  0  0  0  0  0  0  0  0
  -11.4902    3.3707  -23.9540 C   0  0  0  0  0  0  0  0  0  0  0  0
   -7.0535   -2.0070  -20.2939 C   0  0  0  0  0  0  0  0  0  0  0  0
   -4.5725    0.5905  -18.8890 C   0  0  0  0  0  0  0  0  0  0  0  0
   -5.2320   -0.4388  -19.6642 N   0  0  0  0  0  0  0  0  0  0  0  0
   -6.5241   -0.9382  -19.4006 C   0  0  0  0  0  0  0  0  0  0  0  0
   -7.2187   -0.4947  -18.4310 O   0  0  0  0  0  0  0  0  0  0  0  0
   -4.7434   -0.8174  -20.4305 H   0  0  0  0  0  0  0  0  0  0  0  0
  -10.8637   -2.5008  -23.2343 C   0  0  0  0  0  0  0  0  0  0  0  0
  -10.5451   -3.5332  -24.1785 N   0  0  0  0  0  0  0  0  0  0  0  0
  -11.1923   -4.2709  -24.2573 H   0  0  0  0  0  0  0  0  0  0  0  0
   -9.4078   -3.6057  -25.0039 C   0  0  0  0  0  0  0  0  0  0  0  0
   -8.2608   -4.1507  -24.4050 C   0  0  0  0  0  0  0  0  0  0  0  0
   -7.1007   -4.2612  -25.0932 N   0  0  0  0  0  0  0  0  0  0  0  0
   -7.0349   -3.8489  -26.3601 C   0  0  0  0  0  0  0  0  0  0  0  0
   -8.1469   -3.3113  -26.9669 C   0  0  0  0  0  0  0  0  0  0  0  0
   -9.3210   -3.1977  -26.2759 N   0  0  0  0  0  0  0  0  0  0  0  0
 29 30  1  0  0  0
 30 31  1  0  0  0
 30 33  1  0  0  0
 31 32  2  0  0  0
 31 28  1  0  0  0
 28  1  1  0  0  0
  1  2  1  0  0  0
  3  2  1  0  0  0
  3  4  1  0  0  0
  3  9  1  0  0  0
  4  5  2  0  0  0
  4  6  1  0  0  0
  6 18  1  0  0  0
  6  7  1  0  0  0
 18 19  2  0  0  0
 19 20  1  0  0  0
 20 21  2  0  0  0
 21 22  1  0  0  0
 22 23  2  0  0  0
 23 24  1  0  0  0
 24 25  2  0  0  0
 25 26  1  0  0  0
 26 27  2  0  0  0
 27 18  1  0  0  0
 27 22  1  0  0  0
  7  8  1  0  0  0
  8 34  1  0  0  0
  8  3  1  0  0  0
 34 35  1  0  0  0
 35 37  1  0  0  0
 35 36  1  0  0  0
 37 38  2  0  0  0
 38 39  1  0  0  0
 39 40  2  0  0  0
 40 41  1  0  0  0
 41 42  2  0  0  0
 42 37  1  0  0  0
  9 10  2  0  0  0
 10 11  1  0  0  0
 11 12  1  0  0  0
 11 13  2  0  0  0
 13 14  1  0  0  0
 14 15  2  0  0  0
 15 16  1  0  0  0
 15  9  1  0  0  0
 16 17  2  0  0  0
 16  1  1  0  0  0
M  END
> <minimizedAffinity>
-8.39381

> <CNNscore>
0.2144122869

> <CNNaffinity>
6.6022210121

> <CNN_VS>
1.4155973196

> <CNNaffinity_variance>
0.2020992488

$$$$



 42 47  0  0  0  0  0  0  0  0999 V2000
   -6.5886   -2.5818  -22.0585 N   0  0  0  0  0  0  0  0  0  0  0  0
   -7.2829   -1.8742  -23.0840 C   0  0  0  0  0  0  0  0  0  0  0  0
   -6.9635   -0.4399  -23.2851 C   0  0  0  0  0  0  0  0  0  0  0  0
   -8.1696    0.3271  -22.8688 C   0  0  0  0  0  0  0  0  0  0  0  0
   -8.7357    0.3148  -21.7338 O   0  0  0  0  0  0  0  0  0  0  0  0
   -8.6391    1.1141  -23.9333 N   0  0  0  0  0  0  0  0  0  0  0  0
   -7.9379    0.7449  -25.1270 C   0  0  0  0  0  0  0  0  0  0  0  0
   -6.7286   -0.0065  -24.6970 C   0  0  0  0  0  0  0  0  0  0  0  0
   -5.8728    0.0813  -22.3949 C   0  0  0  0  0  0  0  0  0  0  0  0
   -5.5151    1.4229  -22.5136 C   0  0  0  0  0  0  0  0  0  0  0  0
   -4.4988    1.9462  -21.7289 C   0  0  0  0  0  0  0  0  0  0  0  0
   -4.0364    3.6283  -21.8714 Cl  0  0  0  0  0  0  0  0  0  0  0  0
   -3.8168    1.1777  -20.8199 C   0  0  0  0  0  0  0  0  0  0  0  0
   -4.1672   -0.1543  -20.6960 C   0  0  0  0  0  0  0  0  0  0  0  0
   -5.1826   -0.6605  -21.4858 C   0  0  0  0  0  0  0  0  0  0  0  0
   -5.5231   -2.0629  -21.2781 C   0  0  0  0  0  0  0  0  0  0  0  0
   -4.9120   -2.7744  -20.4580 O   0  0  0  0  0  0  0  0  0  0  0  0
   -9.6486    2.1259  -23.9104 C   0  0  0  0  0  0  0  0  0  0  0  0
   -9.2182    3.4485  -24.0529 C   0  0  0  0  0  0  0  0  0  0  0  0
  -10.1229    4.4704  -24.0519 N   0  0  0  0  0  0  0  0  0  0  0  0
  -11.4476    4.1843  -23.9110 C   0  0  0  0  0  0  0  0  0  0  0  0
  -11.8940    2.9071  -23.7703 C   0  0  0  0  0  0  0  0  0  0  0  0
  -13.2579    2.6862  -23.6362 C   0  0  0  0  0  0  0  0  0  0  0  0
  -13.6786    1.3751  -23.5004 C   0  0  0  0  0  0  0  0  0  0  0  0
  -12.7739    0.3363  -23.4995 C   0  0  0  0  0  0  0  0  0  0  0  0
  -11.4210    0.5760  -23.6348 C   0  0  0  0  0  0  0  0  0  0  0  0
  -10.9799    1.8844  -23.7713 C   0  0  0  0  0  0  0  0  0  0  0  0
   -6.9745   -3.9670  -21.7756 C   0  0  0  0  0  0  0  0  0  0  0  0
   -5.3023   -5.7107  -24.7821 C   0  0  0  0  0  0  0  0  0  0  0  0
   -5.5902   -4.9119  -23.6097 N   0  0  0  0  0  0  0  0  0  0  0  0
   -6.8455   -4.8478  -22.9707 C   0  0  0  0  0  0  0  0  0  0  0  0
   -7.8396   -5.5174  -23.3982 O   0  0  0  0  0  0  0  0  0  0  0  0
   -4.8570   -4.3748  -23.2314 H   0  0  0  0  0  0  0  0  0  0  0  0
   -6.3704   -1.1306  -25.6482 C   0  0  0  0  0  0  0  0  0  0  0  0
   -7.4218   -1.5559  -26.5271 N   0  0  0  0  0  0  0  0  0  0  0  0
   -7.5811   -0.9985  -27.3228 H   0  0  0  0  0  0  0  0  0  0  0  0
   -8.2500   -2.6833  -26.3751 C   0  0  0  0  0  0  0  0  0  0  0  0
   -7.8211   -3.8419  -27.0420 C   0  0  0  0  0  0  0  0  0  0  0  0
   -8.5399   -4.9871  -26.9823 N   0  0  0  0  0  0  0  0  0  0  0  0
   -9.6747   -5.0264  -26.2824 C   0  0  0  0  0  0  0  0  0  0  0  0
  -10.1141   -3.9025  -25.6212 C   0  0  0  0  0  0  0  0  0  0  0  0
   -9.3915   -2.7434  -25.6784 N   0  0  0  0  0  0  0  0  0  0  0  0
 29 30  1  0  0  0
 30 31  1  0  0  0
 30 33  1  0  0  0
 31 32  2  0  0  0
 31 28  1  0  0  0
 28  1  1  0  0  0
  1  2  1  0  0  0
  3  2  1  0  0  0
  3  4  1  0  0  0
  3  9  1  0  0  0
  4  5  2  0  0  0
  4  6  1  0  0  0
  6 18  1  0  0  0
  6  7  1  0  0  0
 18 19  2  0  0  0
 19 20  1  0  0  0
 20 21  2  0  0  0
 21 22  1  0  0  0
 22 23  2  0  0  0
 23 24  1  0  0  0
 24 25  2  0  0  0
 25 26  1  0  0  0
 26 27  2  0  0  0
 27 18  1  0  0  0
 27 22  1  0  0  0
  7  8  1  0  0  0
  8 34  1  0  0  0
  8  3  1  0  0  0
 34 35  1  0  0  0
 35 37  1  0  0  0
 35 36  1  0  0  0
 37 38  2  0  0  0
 38 39  1  0  0  0
 39 40  2  0  0  0
 40 41  1  0  0  0
 41 42  2  0  0  0
 42 37  1  0  0  0
  9 10  2  0  0  0
 10 11  1  0  0  0
 11 12  1  0  0  0
 11 13  2  0  0  0
 13 14  1  0  0  0
 14 15  2  0  0  0
 15 16  1  0  0  0
 15  9  1  0  0  0
 16 17  2  0  0  0
 16  1  1  0  0  0
M  END
> <minimizedAffinity>
-7.73320

> <CNNscore>
0.1790197045

> <CNNaffinity>
6.2055435181

> <CNN_VS>
1.1109145880

> <CNNaffinity_variance>
0.3169338703

$$$$



 42 47  0  0  0  0  0  0  0  0999 V2000
   -4.8774    1.0950  -22.1059 N   0  0  0  0  0  0  0  0  0  0  0  0
   -5.9123    0.5157  -22.8982 C   0  0  0  0  0  0  0  0  0  0  0  0
   -6.8594    1.4253  -23.5875 C   0  0  0  0  0  0  0  0  0  0  0  0
   -8.1818    1.2414  -22.9289 C   0  0  0  0  0  0  0  0  0  0  0  0
   -8.4613    1.4100  -21.7031 O   0  0  0  0  0  0  0  0  0  0  0  0
   -9.1439    0.8382  -23.8696 N   0  0  0  0  0  0  0  0  0  0  0  0
   -8.4835    0.5209  -25.1009 C   0  0  0  0  0  0  0  0  0  0  0  0
   -7.1290    1.1307  -25.0287 C   0  0  0  0  0  0  0  0  0  0  0  0
   -6.5591    2.8848  -23.4045 C   0  0  0  0  0  0  0  0  0  0  0  0
   -7.4055    3.8094  -24.0132 C   0  0  0  0  0  0  0  0  0  0  0  0
   -7.1576    5.1682  -23.8916 C   0  0  0  0  0  0  0  0  0  0  0  0
   -8.2100    6.3399  -24.6552 Cl  0  0  0  0  0  0  0  0  0  0  0  0
   -6.0881    5.6483  -23.1793 C   0  0  0  0  0  0  0  0  0  0  0  0
   -5.2445    4.7365  -22.5716 C   0  0  0  0  0  0  0  0  0  0  0  0
   -5.5055    3.3853  -22.7026 C   0  0  0  0  0  0  0  0  0  0  0  0
   -4.5961    2.4823  -22.0073 C   0  0  0  0  0  0  0  0  0  0  0  0
   -3.6194    2.9027  -21.3581 O   0  0  0  0  0  0  0  0  0  0  0  0
  -10.5590    0.7290  -23.6999 C   0  0  0  0  0  0  0  0  0  0  0  0
  -11.3128    1.8824  -23.9376 C   0  0  0  0  0  0  0  0  0  0  0  0
  -12.6711    1.8558  -23.8071 N   0  0  0  0  0  0  0  0  0  0  0  0
  -13.2805    0.6926  -23.4435 C   0  0  0  0  0  0  0  0  0  0  0  0
  -12.5719   -0.4439  -23.2058 C   0  0  0  0  0  0  0  0  0  0  0  0
  -13.2568   -1.5958  -22.8436 C   0  0  0  0  0  0  0  0  0  0  0  0
  -12.5064   -2.7353  -22.6144 C   0  0  0  0  0  0  0  0  0  0  0  0
  -11.1349   -2.7193  -22.7428 C   0  0  0  0  0  0  0  0  0  0  0  0
  -10.4715   -1.5638  -23.1045 C   0  0  0  0  0  0  0  0  0  0  0  0
  -11.2070   -0.4107  -23.3379 C   0  0  0  0  0  0  0  0  0  0  0  0
   -4.0055    0.2078  -21.3309 C   0  0  0  0  0  0  0  0  0  0  0  0
   -6.0234   -1.8978  -18.8069 C   0  0  0  0  0  0  0  0  0  0  0  0
   -5.3655   -1.3794  -19.9875 N   0  0  0  0  0  0  0  0  0  0  0  0
   -4.6119   -0.1883  -20.0285 C   0  0  0  0  0  0  0  0  0  0  0  0
   -4.4533    0.5294  -18.9898 O   0  0  0  0  0  0  0  0  0  0  0  0
   -5.4502   -1.8954  -20.8216 H   0  0  0  0  0  0  0  0  0  0  0  0
   -6.0702    0.2838  -25.7058 C   0  0  0  0  0  0  0  0  0  0  0  0
   -6.5632   -0.8075  -26.4962 N   0  0  0  0  0  0  0  0  0  0  0  0
   -6.9241   -0.5791  -27.3832 H   0  0  0  0  0  0  0  0  0  0  0  0
   -6.5867   -2.1689  -26.1410 C   0  0  0  0  0  0  0  0  0  0  0  0
   -7.3633   -2.9955  -26.9686 C   0  0  0  0  0  0  0  0  0  0  0  0
   -7.4750   -4.3215  -26.7220 N   0  0  0  0  0  0  0  0  0  0  0  0
   -6.8422   -4.8616  -25.6793 C   0  0  0  0  0  0  0  0  0  0  0  0
   -6.0759   -4.0701  -24.8548 C   0  0  0  0  0  0  0  0  0  0  0  0
   -5.9599   -2.7302  -25.0998 N   0  0  0  0  0  0  0  0  0  0  0  0
 29 30  1  0  0  0
 30 31  1  0  0  0
 30 33  1  0  0  0
 31 32  2  0  0  0
 31 28  1  0  0  0
 28  1  1  0  0  0
  1  2  1  0  0  0
  3  2  1  0  0  0
  3  4  1  0  0  0
  3  9  1  0  0  0
  4  5  2  0  0  0
  4  6  1  0  0  0
  6 18  1  0  0  0
  6  7  1  0  0  0
 18 19  2  0  0  0
 19 20  1  0  0  0
 20 21  2  0  0  0
 21 22  1  0  0  0
 22 23  2  0  0  0
 23 24  1  0  0  0
 24 25  2  0  0  0
 25 26  1  0  0  0
 26 27  2  0  0  0
 27 18  1  0  0  0
 27 22  1  0  0  0
  7  8  1  0  0  0
  8 34  1  0  0  0
  8  3  1  0  0  0
 34 35  1  0  0  0
 35 37  1  0  0  0
 35 36  1  0  0  0
 37 38  2  0  0  0
 38 39  1  0  0  0
 39 40  2  0  0  0
 40 41  1  0  0  0
 41 42  2  0  0  0
 42 37  1  0  0  0
  9 10  2  0  0  0
 10 11  1  0  0  0
 11 12  1  0  0  0
 11 13  2  0  0  0
 13 14  1  0  0  0
 14 15  2  0  0  0
 15 16  1  0  0  0
 15  9  1  0  0  0
 16 17  2  0  0  0
 16  1  1  0  0  0
M  END
> <minimizedAffinity>
-7.31703

> <CNNscore>
0.1740707010

> <CNNaffinity>
6.1629858017

> <CNN_VS>
1.0727952719

> <CNNaffinity_variance>
0.2643799484

$$$$



 37 42  0  0  0  0  0  0  0  0999 V2000
  -11.3803   -1.7899  -23.5646 C   0  0  0  0  0  0  0  0  0  0  0  0
  -11.6080   -0.3321  -23.4966 C   0  0  0  0  0  0  0  0  0  0  0  0
  -10.3198    0.2779  -23.9020 N   0  0  0  0  0  0  0  0  0  0  0  0
   -9.4808   -0.7769  -24.3675 C   0  0  0  0  0  0  0  0  0  0  0  0
   -8.6197   -0.6527  -25.2653 O   0  0  0  0  0  0  0  0  0  0  0  0
   -9.8804   -1.9574  -23.5600 C   0  0  0  0  0  0  0  0  0  0  0  0
   -9.3027   -1.7072  -22.1780 C   0  0  0  0  0  0  0  0  0  0  0  0
   -7.8444   -1.8196  -22.2866 N   0  0  0  0  0  0  0  0  0  0  0  0
   -7.3693   -3.0614  -22.7994 C   0  0  0  0  0  0  0  0  0  0  0  0
   -6.2483   -3.4875  -22.4350 O   0  0  0  0  0  0  0  0  0  0  0  0
   -8.2427   -3.7627  -23.7331 C   0  0  0  0  0  0  0  0  0  0  0  0
   -7.7780   -4.9716  -24.2139 C   0  0  0  0  0  0  0  0  0  0  0  0
   -8.5125   -5.7383  -25.0940 C   0  0  0  0  0  0  0  0  0  0  0  0
   -9.7334   -5.2476  -25.4759 C   0  0  0  0  0  0  0  0  0  0  0  0
  -10.6833   -6.2005  -26.5903 Cl  0  0  0  0  0  0  0  0  0  0  0  0
  -10.2053   -4.0206  -24.9883 C   0  0  0  0  0  0  0  0  0  0  0  0
   -9.4921   -3.2461  -24.1154 C   0  0  0  0  0  0  0  0  0  0  0  0
  -10.0293    1.6743  -23.8282 C   0  0  0  0  0  0  0  0  0  0  0  0
   -8.7504    2.1793  -23.7651 C   0  0  0  0  0  0  0  0  0  0  0  0
   -8.5389    3.5036  -23.6984 N   0  0  0  0  0  0  0  0  0  0  0  0
   -9.5923    4.3444  -23.6933 C   0  0  0  0  0  0  0  0  0  0  0  0
  -10.8929    3.9081  -23.7539 C   0  0  0  0  0  0  0  0  0  0  0  0
  -11.9646    4.8014  -23.7469 C   0  0  0  0  0  0  0  0  0  0  0  0
  -13.2460    4.2824  -23.8106 C   0  0  0  0  0  0  0  0  0  0  0  0
  -13.4837    2.9132  -23.8801 C   0  0  0  0  0  0  0  0  0  0  0  0
  -12.3999    2.0412  -23.8858 C   0  0  0  0  0  0  0  0  0  0  0  0
  -11.1140    2.5323  -23.8232 C   0  0  0  0  0  0  0  0  0  0  0  0
  -12.0597   -2.5963  -22.5387 C   0  0  0  0  0  0  0  0  0  0  0  0
  -14.0458   -2.7548  -21.2423 C   0  0  0  0  0  0  0  0  0  0  0  0
  -13.3150   -2.2464  -22.2380 O   0  0  0  0  0  0  0  0  0  0  0  0
   -6.9461   -0.7611  -21.9028 C   0  0  0  0  0  0  0  0  0  0  0  0
   -6.4862   -0.9918  -20.4947 C   0  0  0  0  0  0  0  0  0  0  0  0
   -7.2450   -1.1607  -19.3582 C   0  0  0  0  0  0  0  0  0  0  0  0
   -6.3988   -1.3389  -18.3172 N   0  0  0  0  0  0  0  0  0  0  0  0
   -5.1503   -1.2917  -18.7339 N   0  0  0  0  0  0  0  0  0  0  0  0
   -5.1751   -1.0779  -20.0776 C   0  0  0  0  0  0  0  0  0  0  0  0
   -4.3459   -1.3927  -18.1754 H   0  0  0  0  0  0  0  0  0  0  0  0
 29 30  1  0  0  0
 30 28  1  0  0  0
  1 28  1  0  0  0
  1  2  1  0  0  0
  2  3  1  0  0  0
  3 18  1  0  0  0
  3  4  1  0  0  0
 18 19  2  0  0  0
 19 20  1  0  0  0
 20 21  2  0  0  0
 21 22  1  0  0  0
 22 23  2  0  0  0
 23 24  1  0  0  0
 24 25  2  0  0  0
 25 26  1  0  0  0
 26 27  2  0  0  0
 27 18  1  0  0  0
 27 22  1  0  0  0
  4  5  2  0  0  0
  6  4  1  0  0  0
  6  7  1  0  0  0
  6  1  1  0  0  0
  7  8  1  0  0  0
  8 31  1  0  0  0
  8  9  1  0  0  0
 31 32  1  0  0  0
 32 33  1  0  0  0
 33 34  2  0  0  0
 34 35  1  0  0  0
 35 36  1  0  0  0
 35 37  1  0  0  0
 36 32  2  0  0  0
  9 10  2  0  0  0
  9 11  1  0  0  0
 11 12  2  0  0  0
 12 13  1  0  0  0
 13 14  2  0  0  0
 14 15  1  0  0  0
 14 16  1  0  0  0
 16 17  2  0  0  0
 17 11  1  0  0  0
 17  6  1  0  0  0
M  END
> <minimizedAffinity>
-9.37355

> <CNNscore>
0.6191754341

> <CNNaffinity>
6.9465370178

> <CNN_VS>
4.3011250496

> <CNNaffinity_variance>
0.3067110181

$$$$



 37 42  0  0  0  0  0  0  0  0999 V2000
  -10.1324   -2.1847  -24.2957 C   0  0  0  0  0  0  0  0  0  0  0  0
   -9.8224   -0.7405  -24.2932 C   0  0  0  0  0  0  0  0  0  0  0  0
   -8.3937   -0.6529  -24.6764 N   0  0  0  0  0  0  0  0  0  0  0  0
   -7.9809   -1.9599  -25.0698 C   0  0  0  0  0  0  0  0  0  0  0  0
   -7.1157   -2.1967  -25.9406 O   0  0  0  0  0  0  0  0  0  0  0  0
   -8.7932   -2.8776  -24.2312 C   0  0  0  0  0  0  0  0  0  0  0  0
   -8.1906   -2.7827  -22.8405 C   0  0  0  0  0  0  0  0  0  0  0  0
   -6.8683   -3.4148  -22.8927 N   0  0  0  0  0  0  0  0  0  0  0  0
   -6.8613   -4.7682  -23.3389 C   0  0  0  0  0  0  0  0  0  0  0  0
   -5.9753   -5.5487  -22.9185 O   0  0  0  0  0  0  0  0  0  0  0  0
   -7.9104   -5.1556  -24.2747 C   0  0  0  0  0  0  0  0  0  0  0  0
   -7.9019   -6.4730  -24.6908 C   0  0  0  0  0  0  0  0  0  0  0  0
   -8.8458   -6.9685  -25.5656 C   0  0  0  0  0  0  0  0  0  0  0  0
   -9.8015   -6.0928  -26.0096 C   0  0  0  0  0  0  0  0  0  0  0  0
  -11.0089   -6.6965  -27.1187 Cl  0  0  0  0  0  0  0  0  0  0  0  0
   -9.8103   -4.7557  -25.5878 C   0  0  0  0  0  0  0  0  0  0  0  0
   -8.8833   -4.2457  -24.7213 C   0  0  0  0  0  0  0  0  0  0  0  0
   -7.6224    0.5488  -24.6473 C   0  0  0  0  0  0  0  0  0  0  0  0
   -7.3407    1.2950  -25.7691 C   0  0  0  0  0  0  0  0  0  0  0  0
   -6.6106    2.4183  -25.6795 N   0  0  0  0  0  0  0  0  0  0  0  0
   -6.1503    2.8164  -24.4769 C   0  0  0  0  0  0  0  0  0  0  0  0
   -6.3942    2.1199  -23.3190 C   0  0  0  0  0  0  0  0  0  0  0  0
   -5.9050    2.5554  -22.0872 C   0  0  0  0  0  0  0  0  0  0  0  0
   -6.1944    1.7973  -20.9660 C   0  0  0  0  0  0  0  0  0  0  0  0
   -6.9493    0.6308  -21.0403 C   0  0  0  0  0  0  0  0  0  0  0  0
   -7.4268    0.2156  -22.2791 C   0  0  0  0  0  0  0  0  0  0  0  0
   -7.1527    0.9525  -23.4107 C   0  0  0  0  0  0  0  0  0  0  0  0
  -11.0755   -2.6426  -23.2636 C   0  0  0  0  0  0  0  0  0  0  0  0
  -13.2091   -2.0074  -22.4301 C   0  0  0  0  0  0  0  0  0  0  0  0
  -11.9595   -1.7423  -22.8201 O   0  0  0  0  0  0  0  0  0  0  0  0
   -5.6571   -2.7305  -22.5192 C   0  0  0  0  0  0  0  0  0  0  0  0
   -5.4709   -2.8334  -21.0352 C   0  0  0  0  0  0  0  0  0  0  0  0
   -5.4230   -3.9635  -20.2500 C   0  0  0  0  0  0  0  0  0  0  0  0
   -5.2395   -3.5704  -18.9681 N   0  0  0  0  0  0  0  0  0  0  0  0
   -5.1692   -2.2569  -18.9018 N   0  0  0  0  0  0  0  0  0  0  0  0
   -5.3094   -1.7751  -20.1667 C   0  0  0  0  0  0  0  0  0  0  0  0
   -5.0389   -1.7214  -18.0860 H   0  0  0  0  0  0  0  0  0  0  0  0
 29 30  1  0  0  0
 30 28  1  0  0  0
  1 28  1  0  0  0
  1  2  1  0  0  0
  2  3  1  0  0  0
  3 18  1  0  0  0
  3  4  1  0  0  0
 18 19  2  0  0  0
 19 20  1  0  0  0
 20 21  2  0  0  0
 21 22  1  0  0  0
 22 23  2  0  0  0
 23 24  1  0  0  0
 24 25  2  0  0  0
 25 26  1  0  0  0
 26 27  2  0  0  0
 27 18  1  0  0  0
 27 22  1  0  0  0
  4  5  2  0  0  0
  6  4  1  0  0  0
  6  7  1  0  0  0
  6  1  1  0  0  0
  7  8  1  0  0  0
  8 31  1  0  0  0
  8  9  1  0  0  0
 31 32  1  0  0  0
 32 33  1  0  0  0
 33 34  2  0  0  0
 34 35  1  0  0  0
 35 36  1  0  0  0
 35 37  1  0  0  0
 36 32  2  0  0  0
  9 10  2  0  0  0
  9 11  1  0  0  0
 11 12  2  0  0  0
 12 13  1  0  0  0
 13 14  2  0  0  0
 14 15  1  0  0  0
 14 16  1  0  0  0
 16 17  2  0  0  0
 17 11  1  0  0  0
 17  6  1  0  0  0
M  END
> <minimizedAffinity>
-6.57759

> <CNNscore>
0.5047515631

> <CNNaffinity>
6.4349107742

> <CNN_VS>
3.2480313778

> <CNNaffinity_variance>
0.0896934047

$$$$



 37 42  0  0  0  0  0  0  0  0999 V2000
   -8.3564   -2.2391  -23.3888 C   0  0  0  0  0  0  0  0  0  0  0  0
   -6.9523   -2.1874  -22.9334 C   0  0  0  0  0  0  0  0  0  0  0  0
   -6.8145   -0.8751  -22.2591 N   0  0  0  0  0  0  0  0  0  0  0  0
   -8.1203   -0.3105  -22.1628 C   0  0  0  0  0  0  0  0  0  0  0  0
   -8.5033    0.4325  -21.2331 O   0  0  0  0  0  0  0  0  0  0  0  0
   -8.8331   -0.8073  -23.3671 C   0  0  0  0  0  0  0  0  0  0  0  0
   -8.2531   -0.0162  -24.5264 C   0  0  0  0  0  0  0  0  0  0  0  0
   -8.7095    1.3700  -24.3817 N   0  0  0  0  0  0  0  0  0  0  0  0
  -10.1235    1.5398  -24.3307 C   0  0  0  0  0  0  0  0  0  0  0  0
  -10.6300    2.6031  -24.7596 O   0  0  0  0  0  0  0  0  0  0  0  0
  -10.8966    0.4380  -23.7697 C   0  0  0  0  0  0  0  0  0  0  0  0
  -12.2672    0.6079  -23.7370 C   0  0  0  0  0  0  0  0  0  0  0  0
  -13.1117   -0.3634  -23.2416 C   0  0  0  0  0  0  0  0  0  0  0  0
  -12.5306   -1.5145  -22.7786 C   0  0  0  0  0  0  0  0  0  0  0  0
  -13.5792   -2.7605  -22.1460 Cl  0  0  0  0  0  0  0  0  0  0  0  0
  -11.1394   -1.6872  -22.8115 C   0  0  0  0  0  0  0  0  0  0  0  0
  -10.2858   -0.7363  -23.2985 C   0  0  0  0  0  0  0  0  0  0  0  0
   -5.5768   -0.3288  -21.8014 C   0  0  0  0  0  0  0  0  0  0  0  0
   -5.2841   -0.1267  -20.4717 C   0  0  0  0  0  0  0  0  0  0  0  0
   -4.1014    0.3899  -20.1010 N   0  0  0  0  0  0  0  0  0  0  0  0
   -3.1937    0.7127  -21.0435 C   0  0  0  0  0  0  0  0  0  0  0  0
   -3.4207    0.5373  -22.3864 C   0  0  0  0  0  0  0  0  0  0  0  0
   -2.4626    0.8806  -23.3406 C   0  0  0  0  0  0  0  0  0  0  0  0
   -2.7677    0.6730  -24.6745 C   0  0  0  0  0  0  0  0  0  0  0  0
   -3.9880    0.1389  -25.0766 C   0  0  0  0  0  0  0  0  0  0  0  0
   -4.9283   -0.1961  -24.1078 C   0  0  0  0  0  0  0  0  0  0  0  0
   -4.6492    0.0007  -22.7729 C   0  0  0  0  0  0  0  0  0  0  0  0
   -8.5915   -2.9119  -24.6759 C   0  0  0  0  0  0  0  0  0  0  0  0
  -10.2351   -4.4259  -25.4862 C   0  0  0  0  0  0  0  0  0  0  0  0
   -9.2739   -4.0613  -24.6335 O   0  0  0  0  0  0  0  0  0  0  0  0
   -7.8053    2.4883  -24.2999 C   0  0  0  0  0  0  0  0  0  0  0  0
   -7.1950    2.7278  -25.6481 C   0  0  0  0  0  0  0  0  0  0  0  0
   -7.7693    2.5821  -26.8911 C   0  0  0  0  0  0  0  0  0  0  0  0
   -6.8401    2.9110  -27.8184 N   0  0  0  0  0  0  0  0  0  0  0  0
   -5.7135    3.2556  -27.2297 N   0  0  0  0  0  0  0  0  0  0  0  0
   -5.9050    3.1512  -25.8865 C   0  0  0  0  0  0  0  0  0  0  0  0
   -4.8841    3.5372  -27.6793 H   0  0  0  0  0  0  0  0  0  0  0  0
 29 30  1  0  0  0
 30 28  1  0  0  0
  1 28  1  0  0  0
  1  2  1  0  0  0
  2  3  1  0  0  0
  3 18  1  0  0  0
  3  4  1  0  0  0
 18 19  2  0  0  0
 19 20  1  0  0  0
 20 21  2  0  0  0
 21 22  1  0  0  0
 22 23  2  0  0  0
 23 24  1  0  0  0
 24 25  2  0  0  0
 25 26  1  0  0  0
 26 27  2  0  0  0
 27 18  1  0  0  0
 27 22  1  0  0  0
  4  5  2  0  0  0
  6  4  1  0  0  0
  6  7  1  0  0  0
  6  1  1  0  0  0
  7  8  1  0  0  0
  8 31  1  0  0  0
  8  9  1  0  0  0
 31 32  1  0  0  0
 32 33  1  0  0  0
 33 34  2  0  0  0
 34 35  1  0  0  0
 35 36  1  0  0  0
 35 37  1  0  0  0
 36 32  2  0  0  0
  9 10  2  0  0  0
  9 11  1  0  0  0
 11 12  2  0  0  0
 12 13  1  0  0  0
 13 14  2  0  0  0
 14 15  1  0  0  0
 14 16  1  0  0  0
 16 17  2  0  0  0
 17 11  1  0  0  0
 17  6  1  0  0  0
M  END
> <minimizedAffinity>
-6.87690

> <CNNscore>
0.4726721644

> <CNNaffinity>
6.2949490547

> <CNN_VS>
2.9754471779

> <CNNaffinity_variance>
0.0313552581

$$$$



 37 42  0  0  0  0  0  0  0  0999 V2000
   -8.6744   -1.6877  -23.7873 C   0  0  0  0  0  0  0  0  0  0  0  0
   -7.2539   -1.5176  -23.4201 C   0  0  0  0  0  0  0  0  0  0  0  0
   -7.2018   -0.2446  -22.6634 N   0  0  0  0  0  0  0  0  0  0  0  0
   -8.5479    0.1714  -22.4433 C   0  0  0  0  0  0  0  0  0  0  0  0
   -8.9370    0.8078  -21.4400 O   0  0  0  0  0  0  0  0  0  0  0  0
   -9.2906   -0.3188  -23.6322 C   0  0  0  0  0  0  0  0  0  0  0  0
   -8.8774    0.6028  -24.7663 C   0  0  0  0  0  0  0  0  0  0  0  0
   -9.4601    1.9207  -24.4934 N   0  0  0  0  0  0  0  0  0  0  0  0
  -10.8768    1.9364  -24.3399 C   0  0  0  0  0  0  0  0  0  0  0  0
  -11.5173    2.9657  -24.6579 O   0  0  0  0  0  0  0  0  0  0  0  0
  -11.4927    0.7249  -23.8114 C   0  0  0  0  0  0  0  0  0  0  0  0
  -12.8677    0.7465  -23.6788 C   0  0  0  0  0  0  0  0  0  0  0  0
  -13.5723   -0.3387  -23.2016 C   0  0  0  0  0  0  0  0  0  0  0  0
  -12.8464   -1.4496  -22.8608 C   0  0  0  0  0  0  0  0  0  0  0  0
  -13.7161   -2.8378  -22.2536 Cl  0  0  0  0  0  0  0  0  0  0  0  0
  -11.4508   -1.4717  -22.9949 C   0  0  0  0  0  0  0  0  0  0  0  0
  -10.7344   -0.4063  -23.4659 C   0  0  0  0  0  0  0  0  0  0  0  0
   -5.9963    0.3986  -22.2477 C   0  0  0  0  0  0  0  0  0  0  0  0
   -5.1840    1.1095  -23.1017 C   0  0  0  0  0  0  0  0  0  0  0  0
   -4.0620    1.6945  -22.6524 N   0  0  0  0  0  0  0  0  0  0  0  0
   -3.7307    1.5823  -21.3508 C   0  0  0  0  0  0  0  0  0  0  0  0
   -4.4952    0.8884  -20.4455 C   0  0  0  0  0  0  0  0  0  0  0  0
   -4.1279    0.7885  -19.1033 C   0  0  0  0  0  0  0  0  0  0  0  0
   -4.9520    0.0713  -18.2537 C   0  0  0  0  0  0  0  0  0  0  0  0
   -6.1182   -0.5413  -18.7020 C   0  0  0  0  0  0  0  0  0  0  0  0
   -6.4647   -0.4284  -20.0444 C   0  0  0  0  0  0  0  0  0  0  0  0
   -5.6613    0.2801  -20.9111 C   0  0  0  0  0  0  0  0  0  0  0  0
   -8.9312   -2.2966  -25.1017 C   0  0  0  0  0  0  0  0  0  0  0  0
  -10.3023   -4.2171  -25.3885 C   0  0  0  0  0  0  0  0  0  0  0  0
   -9.1398   -3.6175  -25.1180 O   0  0  0  0  0  0  0  0  0  0  0  0
   -8.6700    3.1206  -24.3893 C   0  0  0  0  0  0  0  0  0  0  0  0
   -8.0912    3.4472  -25.7332 C   0  0  0  0  0  0  0  0  0  0  0  0
   -8.7504    3.7234  -26.9102 C   0  0  0  0  0  0  0  0  0  0  0  0
   -7.8179    3.9591  -27.8622 N   0  0  0  0  0  0  0  0  0  0  0  0
   -6.6091    3.8470  -27.3513 N   0  0  0  0  0  0  0  0  0  0  0  0
   -6.7488    3.5307  -26.0352 C   0  0  0  0  0  0  0  0  0  0  0  0
   -5.7596    3.9696  -27.8335 H   0  0  0  0  0  0  0  0  0  0  0  0
 29 30  1  0  0  0
 30 28  1  0  0  0
  1 28  1  0  0  0
  1  2  1  0  0  0
  2  3  1  0  0  0
  3 18  1  0  0  0
  3  4  1  0  0  0
 18 19  2  0  0  0
 19 20  1  0  0  0
 20 21  2  0  0  0
 21 22  1  0  0  0
 22 23  2  0  0  0
 23 24  1  0  0  0
 24 25  2  0  0  0
 25 26  1  0  0  0
 26 27  2  0  0  0
 27 18  1  0  0  0
 27 22  1  0  0  0
  4  5  2  0  0  0
  6  4  1  0  0  0
  6  7  1  0  0  0
  6  1  1  0  0  0
  7  8  1  0  0  0
  8 31  1  0  0  0
  8  9  1  0  0  0
 31 32  1  0  0  0
 32 33  1  0  0  0
 33 34  2  0  0  0
 34 35  1  0  0  0
 35 36  1  0  0  0
 35 37  1  0  0  0
 36 32  2  0  0  0
  9 10  2  0  0  0
  9 11  1  0  0  0
 11 12  2  0  0  0
 12 13  1  0  0  0
 13 14  2  0  0  0
 14 15  1  0  0  0
 14 16  1  0  0  0
 16 17  2  0  0  0
 17 11  1  0  0  0
 17  6  1  0  0  0
M  END
> <minimizedAffinity>
-7.78930

> <CNNscore>
0.4120575190

> <CNNaffinity>
6.4379243851

> <CNN_VS>
2.6527950764

> <CNNaffinity_variance>
0.0540320203

$$$$



 37 42  0  0  0  0  0  0  0  0999 V2000
  -10.3385   -1.7993  -23.6963 C   0  0  0  0  0  0  0  0  0  0  0  0
  -10.2026   -0.3384  -23.5255 C   0  0  0  0  0  0  0  0  0  0  0  0
   -8.7903   -0.0414  -23.8615 N   0  0  0  0  0  0  0  0  0  0  0  0
   -8.2206   -1.2380  -24.3878 C   0  0  0  0  0  0  0  0  0  0  0  0
   -7.3238   -1.2716  -25.2582 O   0  0  0  0  0  0  0  0  0  0  0  0
   -8.9272   -2.3336  -23.6766 C   0  0  0  0  0  0  0  0  0  0  0  0
   -8.3556   -2.3272  -22.2697 C   0  0  0  0  0  0  0  0  0  0  0  0
   -6.9669   -2.7904  -22.3597 N   0  0  0  0  0  0  0  0  0  0  0  0
   -6.7941   -4.0742  -22.9536 C   0  0  0  0  0  0  0  0  0  0  0  0
   -5.8262   -4.7884  -22.6011 O   0  0  0  0  0  0  0  0  0  0  0  0
   -7.7792   -4.4730  -23.9520 C   0  0  0  0  0  0  0  0  0  0  0  0
   -7.6094   -5.7245  -24.5119 C   0  0  0  0  0  0  0  0  0  0  0  0
   -8.4780   -6.2245  -25.4592 C   0  0  0  0  0  0  0  0  0  0  0  0
   -9.5261   -5.4220  -25.8262 C   0  0  0  0  0  0  0  0  0  0  0  0
  -10.6408   -6.0329  -27.0247 Cl  0  0  0  0  0  0  0  0  0  0  0  0
   -9.6986   -4.1516  -25.2584 C   0  0  0  0  0  0  0  0  0  0  0  0
   -8.8485   -3.6383  -24.3181 C   0  0  0  0  0  0  0  0  0  0  0  0
   -8.1678    1.2311  -23.6799 C   0  0  0  0  0  0  0  0  0  0  0  0
   -7.5437    1.6091  -22.5127 C   0  0  0  0  0  0  0  0  0  0  0  0
   -6.9740    2.8199  -22.4011 N   0  0  0  0  0  0  0  0  0  0  0  0
   -7.0156    3.6715  -23.4449 C   0  0  0  0  0  0  0  0  0  0  0  0
   -7.6212    3.3587  -24.6369 C   0  0  0  0  0  0  0  0  0  0  0  0
   -7.6493    4.2603  -25.7012 C   0  0  0  0  0  0  0  0  0  0  0  0
   -8.2796    3.8696  -26.8698 C   0  0  0  0  0  0  0  0  0  0  0  0
   -8.8751    2.6191  -27.0031 C   0  0  0  0  0  0  0  0  0  0  0  0
   -8.8348    1.7364  -25.9288 C   0  0  0  0  0  0  0  0  0  0  0  0
   -8.2136    2.1010  -24.7542 C   0  0  0  0  0  0  0  0  0  0  0  0
  -11.2318   -2.4784  -22.7449 C   0  0  0  0  0  0  0  0  0  0  0  0
  -13.4850   -2.6158  -22.0002 C   0  0  0  0  0  0  0  0  0  0  0  0
  -12.5041   -2.0668  -22.7216 O   0  0  0  0  0  0  0  0  0  0  0  0
   -5.8500   -2.0159  -21.8829 C   0  0  0  0  0  0  0  0  0  0  0  0
   -5.8503   -2.0226  -20.3837 C   0  0  0  0  0  0  0  0  0  0  0  0
   -6.2511   -1.0291  -19.5186 C   0  0  0  0  0  0  0  0  0  0  0  0
   -6.0717   -1.4815  -18.2558 N   0  0  0  0  0  0  0  0  0  0  0  0
   -5.5807   -2.7034  -18.2769 N   0  0  0  0  0  0  0  0  0  0  0  0
   -5.4337   -3.0630  -19.5811 C   0  0  0  0  0  0  0  0  0  0  0  0
   -5.3603   -3.2559  -17.4924 H   0  0  0  0  0  0  0  0  0  0  0  0
 29 30  1  0  0  0
 30 28  1  0  0  0
  1 28  1  0  0  0
  1  2  1  0  0  0
  2  3  1  0  0  0
  3 18  1  0  0  0
  3  4  1  0  0  0
 18 19  2  0  0  0
 19 20  1  0  0  0
 20 21  2  0  0  0
 21 22  1  0  0  0
 22 23  2  0  0  0
 23 24  1  0  0  0
 24 25  2  0  0  0
 25 26  1  0  0  0
 26 27  2  0  0  0
 27 18  1  0  0  0
 27 22  1  0  0  0
  4  5  2  0  0  0
  6  4  1  0  0  0
  6  7  1  0  0  0
  6  1  1  0  0  0
  7  8  1  0  0  0
  8 31  1  0  0  0
  8  9  1  0  0  0
 31 32  1  0  0  0
 32 33  1  0  0  0
 33 34  2  0  0  0
 34 35  1  0  0  0
 35 36  1  0  0  0
 35 37  1  0  0  0
 36 32  2  0  0  0
  9 10  2  0  0  0
  9 11  1  0  0  0
 11 12  2  0  0  0
 12 13  1  0  0  0
 13 14  2  0  0  0
 14 15  1  0  0  0
 14 16  1  0  0  0
 16 17  2  0  0  0
 17 11  1  0  0  0
 17  6  1  0  0  0
M  END
> <minimizedAffinity>
-7.89177

> <CNNscore>
0.3804958463

> <CNNaffinity>
6.4775238037

> <CNN_VS>
2.4646708965

> <CNNaffinity_variance>
0.2785731256

$$$$



 37 42  0  0  0  0  0  0  0  0999 V2000
   -7.3095   -2.2915  -22.2848 C   0  0  0  0  0  0  0  0  0  0  0  0
   -6.0203   -2.0075  -21.6221 C   0  0  0  0  0  0  0  0  0  0  0  0
   -5.9973   -0.5372  -21.4391 N   0  0  0  0  0  0  0  0  0  0  0  0
   -7.2886   -0.0471  -21.7937 C   0  0  0  0  0  0  0  0  0  0  0  0
   -7.8345    0.9502  -21.2738 O   0  0  0  0  0  0  0  0  0  0  0  0
   -7.7604   -0.9699  -22.8573 C   0  0  0  0  0  0  0  0  0  0  0  0
   -6.9543   -0.6001  -24.0901 C   0  0  0  0  0  0  0  0  0  0  0  0
   -7.4100    0.7226  -24.5300 N   0  0  0  0  0  0  0  0  0  0  0  0
   -8.8042    0.8214  -24.8078 C   0  0  0  0  0  0  0  0  0  0  0  0
   -9.2020    1.6398  -25.6697 O   0  0  0  0  0  0  0  0  0  0  0  0
   -9.6877   -0.0577  -24.0508 C   0  0  0  0  0  0  0  0  0  0  0  0
  -11.0358    0.0371  -24.3372 C   0  0  0  0  0  0  0  0  0  0  0  0
  -11.9746   -0.7465  -23.6996 C   0  0  0  0  0  0  0  0  0  0  0  0
  -11.5115   -1.6312  -22.7615 C   0  0  0  0  0  0  0  0  0  0  0  0
  -12.6812   -2.6356  -21.9398 Cl  0  0  0  0  0  0  0  0  0  0  0  0
  -10.1433   -1.7276  -22.4704 C   0  0  0  0  0  0  0  0  0  0  0  0
   -9.1974   -0.9597  -23.0915 C   0  0  0  0  0  0  0  0  0  0  0  0
   -4.8647    0.2014  -20.9793 C   0  0  0  0  0  0  0  0  0  0  0  0
   -4.7386    0.6705  -19.6914 C   0  0  0  0  0  0  0  0  0  0  0  0
   -3.6483    1.3587  -19.3163 N   0  0  0  0  0  0  0  0  0  0  0  0
   -2.6692    1.5909  -20.2128 C   0  0  0  0  0  0  0  0  0  0  0  0
   -2.7308    1.1520  -21.5125 C   0  0  0  0  0  0  0  0  0  0  0  0
   -1.7020    1.4069  -22.4197 C   0  0  0  0  0  0  0  0  0  0  0  0
   -1.8395    0.9306  -23.7118 C   0  0  0  0  0  0  0  0  0  0  0  0
   -2.9621    0.2157  -24.1179 C   0  0  0  0  0  0  0  0  0  0  0  0
   -3.9755   -0.0267  -23.1963 C   0  0  0  0  0  0  0  0  0  0  0  0
   -3.8631    0.4367  -21.9036 C   0  0  0  0  0  0  0  0  0  0  0  0
   -7.2992   -3.3813  -23.2729 C   0  0  0  0  0  0  0  0  0  0  0  0
   -7.2931   -5.7151  -22.8215 C   0  0  0  0  0  0  0  0  0  0  0  0
   -7.8910   -4.5239  -22.9086 O   0  0  0  0  0  0  0  0  0  0  0  0
   -6.5229    1.8477  -24.6786 C   0  0  0  0  0  0  0  0  0  0  0  0
   -6.8477    2.8723  -23.6335 C   0  0  0  0  0  0  0  0  0  0  0  0
   -6.0720    3.3040  -22.5809 C   0  0  0  0  0  0  0  0  0  0  0  0
   -6.7771    4.2385  -21.9020 N   0  0  0  0  0  0  0  0  0  0  0  0
   -7.9527    4.4196  -22.4675 N   0  0  0  0  0  0  0  0  0  0  0  0
   -8.0230    3.5867  -23.5413 C   0  0  0  0  0  0  0  0  0  0  0  0
   -8.6528    5.0437  -22.1680 H   0  0  0  0  0  0  0  0  0  0  0  0
 29 30  1  0  0  0
 30 28  1  0  0  0
  1 28  1  0  0  0
  1  2  1  0  0  0
  2  3  1  0  0  0
  3 18  1  0  0  0
  3  4  1  0  0  0
 18 19  2  0  0  0
 19 20  1  0  0  0
 20 21  2  0  0  0
 21 22  1  0  0  0
 22 23  2  0  0  0
 23 24  1  0  0  0
 24 25  2  0  0  0
 25 26  1  0  0  0
 26 27  2  0  0  0
 27 18  1  0  0  0
 27 22  1  0  0  0
  4  5  2  0  0  0
  6  4  1  0  0  0
  6  7  1  0  0  0
  6  1  1  0  0  0
  7  8  1  0  0  0
  8 31  1  0  0  0
  8  9  1  0  0  0
 31 32  1  0  0  0
 32 33  1  0  0  0
 33 34  2  0  0  0
 34 35  1  0  0  0
 35 36  1  0  0  0
 35 37  1  0  0  0
 36 32  2  0  0  0
  9 10  2  0  0  0
  9 11  1  0  0  0
 11 12  2  0  0  0
 12 13  1  0  0  0
 13 14  2  0  0  0
 14 15  1  0  0  0
 14 16  1  0  0  0
 16 17  2  0  0  0
 17 11  1  0  0  0
 17  6  1  0  0  0
M  END
> <minimizedAffinity>
-7.49159

> <CNNscore>
0.3202824295

> <CNNaffinity>
6.0284204483

> <CNN_VS>
1.9307971001

> <CNNaffinity_variance>
0.1817036420

$$$$



 37 42  0  0  0  0  0  0  0  0999 V2000
   -6.3271   -1.0538  -25.9563 C   0  0  0  0  0  0  0  0  0  0  0  0
   -6.1927   -2.5248  -25.9636 C   0  0  0  0  0  0  0  0  0  0  0  0
   -7.3706   -3.0226  -25.2148 N   0  0  0  0  0  0  0  0  0  0  0  0
   -8.2236   -1.9048  -24.9775 C   0  0  0  0  0  0  0  0  0  0  0  0
   -9.4705   -1.9673  -24.9118 O   0  0  0  0  0  0  0  0  0  0  0  0
   -7.2994   -0.7502  -24.8426 C   0  0  0  0  0  0  0  0  0  0  0  0
   -6.6479   -0.9200  -23.4814 C   0  0  0  0  0  0  0  0  0  0  0  0
   -7.6808   -0.6773  -22.4688 N   0  0  0  0  0  0  0  0  0  0  0  0
   -8.3224    0.5926  -22.5506 C   0  0  0  0  0  0  0  0  0  0  0  0
   -8.7634    1.1260  -21.5057 O   0  0  0  0  0  0  0  0  0  0  0  0
   -8.4216    1.1931  -23.8757 C   0  0  0  0  0  0  0  0  0  0  0  0
   -9.0338    2.4298  -23.9417 C   0  0  0  0  0  0  0  0  0  0  0  0
   -9.1808    3.1092  -25.1328 C   0  0  0  0  0  0  0  0  0  0  0  0
   -8.6904    2.5020  -26.2588 C   0  0  0  0  0  0  0  0  0  0  0  0
   -8.8642    3.3426  -27.7805 Cl  0  0  0  0  0  0  0  0  0  0  0  0
   -8.0692    1.2467  -26.1923 C   0  0  0  0  0  0  0  0  0  0  0  0
   -7.9141    0.5575  -25.0214 C   0  0  0  0  0  0  0  0  0  0  0  0
   -7.5688   -4.3849  -24.8349 C   0  0  0  0  0  0  0  0  0  0  0  0
   -7.0715   -4.9266  -23.6713 C   0  0  0  0  0  0  0  0  0  0  0  0
   -7.2916   -6.2156  -23.3664 N   0  0  0  0  0  0  0  0  0  0  0  0
   -8.0075   -6.9843  -24.2109 C   0  0  0  0  0  0  0  0  0  0  0  0
   -8.5320   -6.5082  -25.3872 C   0  0  0  0  0  0  0  0  0  0  0  0
   -9.2694   -7.3270  -26.2430 C   0  0  0  0  0  0  0  0  0  0  0  0
   -9.7645   -6.7718  -27.4101 C   0  0  0  0  0  0  0  0  0  0  0  0
   -9.5461   -5.4383  -27.7420 C   0  0  0  0  0  0  0  0  0  0  0  0
   -8.8080   -4.6406  -26.8737 C   0  0  0  0  0  0  0  0  0  0  0  0
   -8.3039   -5.1691  -25.7053 C   0  0  0  0  0  0  0  0  0  0  0  0
   -5.0718   -0.2931  -25.8572 C   0  0  0  0  0  0  0  0  0  0  0  0
   -2.7167   -0.5317  -26.0740 C   0  0  0  0  0  0  0  0  0  0  0  0
   -3.9761   -0.8813  -26.3491 O   0  0  0  0  0  0  0  0  0  0  0  0
   -8.0286   -1.6419  -21.4572 C   0  0  0  0  0  0  0  0  0  0  0  0
   -6.9840   -1.6263  -20.3820 C   0  0  0  0  0  0  0  0  0  0  0  0
   -6.9696   -0.9096  -19.2063 C   0  0  0  0  0  0  0  0  0  0  0  0
   -5.8261   -1.2135  -18.5494 N   0  0  0  0  0  0  0  0  0  0  0  0
   -5.1199   -2.0808  -19.2449 N   0  0  0  0  0  0  0  0  0  0  0  0
   -5.8130   -2.3536  -20.3837 C   0  0  0  0  0  0  0  0  0  0  0  0
   -4.2494   -2.4621  -18.9878 H   0  0  0  0  0  0  0  0  0  0  0  0
 29 30  1  0  0  0
 30 28  1  0  0  0
  1 28  1  0  0  0
  1  2  1  0  0  0
  2  3  1  0  0  0
  3 18  1  0  0  0
  3  4  1  0  0  0
 18 19  2  0  0  0
 19 20  1  0  0  0
 20 21  2  0  0  0
 21 22  1  0  0  0
 22 23  2  0  0  0
 23 24  1  0  0  0
 24 25  2  0  0  0
 25 26  1  0  0  0
 26 27  2  0  0  0
 27 18  1  0  0  0
 27 22  1  0  0  0
  4  5  2  0  0  0
  6  4  1  0  0  0
  6  7  1  0  0  0
  6  1  1  0  0  0
  7  8  1  0  0  0
  8 31  1  0  0  0
  8  9  1  0  0  0
 31 32  1  0  0  0
 32 33  1  0  0  0
 33 34  2  0  0  0
 34 35  1  0  0  0
 35 36  1  0  0  0
 35 37  1  0  0  0
 36 32  2  0  0  0
  9 10  2  0  0  0
  9 11  1  0  0  0
 11 12  2  0  0  0
 12 13  1  0  0  0
 13 14  2  0  0  0
 14 15  1  0  0  0
 14 16  1  0  0  0
 16 17  2  0  0  0
 17 11  1  0  0  0
 17  6  1  0  0  0
M  END
> <minimizedAffinity>
-7.31906

> <CNNscore>
0.2638538182

> <CNNaffinity>
6.1412715912

> <CNN_VS>
1.6203979254

> <CNNaffinity_variance>
0.1017007604

$$$$



 37 42  0  0  0  0  0  0  0  0999 V2000
   -7.4434   -0.8046  -24.9989 C   0  0  0  0  0  0  0  0  0  0  0  0
   -7.2081   -2.2429  -24.7588 C   0  0  0  0  0  0  0  0  0  0  0  0
   -6.9881   -2.3584  -23.2980 N   0  0  0  0  0  0  0  0  0  0  0  0
   -7.2855   -1.0873  -22.7242 C   0  0  0  0  0  0  0  0  0  0  0  0
   -7.7594   -0.9209  -21.5794 O   0  0  0  0  0  0  0  0  0  0  0  0
   -6.9087   -0.1055  -23.7728 C   0  0  0  0  0  0  0  0  0  0  0  0
   -5.3902   -0.0841  -23.7695 C   0  0  0  0  0  0  0  0  0  0  0  0
   -4.9644    0.5447  -22.5148 N   0  0  0  0  0  0  0  0  0  0  0  0
   -5.4740    1.8568  -22.2917 C   0  0  0  0  0  0  0  0  0  0  0  0
   -4.7990    2.6714  -21.6195 O   0  0  0  0  0  0  0  0  0  0  0  0
   -6.7746    2.1633  -22.8755 C   0  0  0  0  0  0  0  0  0  0  0  0
   -7.2531    3.4419  -22.6639 C   0  0  0  0  0  0  0  0  0  0  0  0
   -8.4647    3.8614  -23.1718 C   0  0  0  0  0  0  0  0  0  0  0  0
   -9.1814    2.9499  -23.9016 C   0  0  0  0  0  0  0  0  0  0  0  0
  -10.7198    3.4572  -24.5561 Cl  0  0  0  0  0  0  0  0  0  0  0  0
   -8.6962    1.6520  -24.1163 C   0  0  0  0  0  0  0  0  0  0  0  0
   -7.4979    1.2173  -23.6212 C   0  0  0  0  0  0  0  0  0  0  0  0
   -6.5649   -3.5517  -22.6373 C   0  0  0  0  0  0  0  0  0  0  0  0
   -5.7086   -3.5576  -21.5596 C   0  0  0  0  0  0  0  0  0  0  0  0
   -5.3467   -4.7124  -20.9779 N   0  0  0  0  0  0  0  0  0  0  0  0
   -5.8288   -5.8763  -21.4570 C   0  0  0  0  0  0  0  0  0  0  0  0
   -6.6858   -5.9422  -22.5278 C   0  0  0  0  0  0  0  0  0  0  0  0
   -7.1695   -7.1616  -23.0029 C   0  0  0  0  0  0  0  0  0  0  0  0
   -8.0297   -7.1437  -24.0870 C   0  0  0  0  0  0  0  0  0  0  0  0
   -8.4153   -5.9566  -24.7020 C   0  0  0  0  0  0  0  0  0  0  0  0
   -7.9206   -4.7527  -24.2113 C   0  0  0  0  0  0  0  0  0  0  0  0
   -7.0627   -4.7430  -23.1331 C   0  0  0  0  0  0  0  0  0  0  0  0
   -6.9059   -0.2655  -26.2577 C   0  0  0  0  0  0  0  0  0  0  0  0
   -7.8340    1.2393  -27.8466 C   0  0  0  0  0  0  0  0  0  0  0  0
   -7.8001    0.0756  -27.1919 O   0  0  0  0  0  0  0  0  0  0  0  0
   -4.0919   -0.1036  -21.5698 C   0  0  0  0  0  0  0  0  0  0  0  0
   -4.6459    0.0711  -20.1878 C   0  0  0  0  0  0  0  0  0  0  0  0
   -5.7518   -0.5233  -19.6223 C   0  0  0  0  0  0  0  0  0  0  0  0
   -5.8663   -0.0646  -18.3542 N   0  0  0  0  0  0  0  0  0  0  0  0
   -4.8952    0.7848  -18.0894 N   0  0  0  0  0  0  0  0  0  0  0  0
   -4.1252    0.8875  -19.2067 C   0  0  0  0  0  0  0  0  0  0  0  0
   -4.7525    1.2589  -17.2384 H   0  0  0  0  0  0  0  0  0  0  0  0
 29 30  1  0  0  0
 30 28  1  0  0  0
  1 28  1  0  0  0
  1  2  1  0  0  0
  2  3  1  0  0  0
  3 18  1  0  0  0
  3  4  1  0  0  0
 18 19  2  0  0  0
 19 20  1  0  0  0
 20 21  2  0  0  0
 21 22  1  0  0  0
 22 23  2  0  0  0
 23 24  1  0  0  0
 24 25  2  0  0  0
 25 26  1  0  0  0
 26 27  2  0  0  0
 27 18  1  0  0  0
 27 22  1  0  0  0
  4  5  2  0  0  0
  6  4  1  0  0  0
  6  7  1  0  0  0
  6  1  1  0  0  0
  7  8  1  0  0  0
  8 31  1  0  0  0
  8  9  1  0  0  0
 31 32  1  0  0  0
 32 33  1  0  0  0
 33 34  2  0  0  0
 34 35  1  0  0  0
 35 36  1  0  0  0
 35 37  1  0  0  0
 36 32  2  0  0  0
  9 10  2  0  0  0
  9 11  1  0  0  0
 11 12  2  0  0  0
 12 13  1  0  0  0
 13 14  2  0  0  0
 14 15  1  0  0  0
 14 16  1  0  0  0
 16 17  2  0  0  0
 17 11  1  0  0  0
 17  6  1  0  0  0
M  END
> <minimizedAffinity>
-7.76328

> <CNNscore>
0.1988747418

> <CNNaffinity>
6.0079421997

> <CNN_VS>
1.1948279142

> <CNNaffinity_variance>
0.2063105404

$$$$



 37 42  0  0  0  0  0  0  0  0999 V2000
   -6.3489   -1.1128  -26.2878 C   0  0  0  0  0  0  0  0  0  0  0  0
   -6.5924   -2.5493  -26.5304 C   0  0  0  0  0  0  0  0  0  0  0  0
   -7.7817   -2.8818  -25.7115 N   0  0  0  0  0  0  0  0  0  0  0  0
   -8.2979   -1.6554  -25.1988 C   0  0  0  0  0  0  0  0  0  0  0  0
   -9.5080   -1.4352  -24.9755 O   0  0  0  0  0  0  0  0  0  0  0  0
   -7.1032   -0.7916  -25.0207 C   0  0  0  0  0  0  0  0  0  0  0  0
   -6.3904   -1.3464  -23.7999 C   0  0  0  0  0  0  0  0  0  0  0  0
   -7.2279   -1.0514  -22.6326 N   0  0  0  0  0  0  0  0  0  0  0  0
   -7.5321    0.3273  -22.4386 C   0  0  0  0  0  0  0  0  0  0  0  0
   -7.7232    0.7561  -21.2764 O   0  0  0  0  0  0  0  0  0  0  0  0
   -7.6008    1.1585  -23.6348 C   0  0  0  0  0  0  0  0  0  0  0  0
   -7.8836    2.4957  -23.4340 C   0  0  0  0  0  0  0  0  0  0  0  0
   -7.9656    3.3898  -24.4808 C   0  0  0  0  0  0  0  0  0  0  0  0
   -7.7534    2.8932  -25.7400 C   0  0  0  0  0  0  0  0  0  0  0  0
   -7.8516    4.0060  -27.0832 Cl  0  0  0  0  0  0  0  0  0  0  0  0
   -7.4665    1.5359  -25.9441 C   0  0  0  0  0  0  0  0  0  0  0  0
   -7.3810    0.6341  -24.9196 C   0  0  0  0  0  0  0  0  0  0  0  0
   -8.2814   -4.2051  -25.5139 C   0  0  0  0  0  0  0  0  0  0  0  0
   -9.4095   -4.6893  -26.1365 C   0  0  0  0  0  0  0  0  0  0  0  0
   -9.8309   -5.9443  -25.9123 N   0  0  0  0  0  0  0  0  0  0  0  0
   -9.1396   -6.7355  -25.0681 C   0  0  0  0  0  0  0  0  0  0  0  0
   -8.0071   -6.3163  -24.4146 C   0  0  0  0  0  0  0  0  0  0  0  0
   -7.3110   -7.1572  -23.5456 C   0  0  0  0  0  0  0  0  0  0  0  0
   -6.1783   -6.6597  -22.9252 C   0  0  0  0  0  0  0  0  0  0  0  0
   -5.7273   -5.3620  -23.1458 C   0  0  0  0  0  0  0  0  0  0  0  0
   -6.4371   -4.5414  -24.0162 C   0  0  0  0  0  0  0  0  0  0  0  0
   -7.5682   -5.0125  -24.6466 C   0  0  0  0  0  0  0  0  0  0  0  0
   -4.9384   -0.6966  -26.2475 C   0  0  0  0  0  0  0  0  0  0  0  0
   -5.0417    0.1728  -28.4575 C   0  0  0  0  0  0  0  0  0  0  0  0
   -4.5272    0.1169  -27.2261 O   0  0  0  0  0  0  0  0  0  0  0  0
   -7.7114   -2.0707  -21.7371 C   0  0  0  0  0  0  0  0  0  0  0  0
   -6.7011   -2.2924  -20.6519 C   0  0  0  0  0  0  0  0  0  0  0  0
   -5.6619   -3.1951  -20.6147 C   0  0  0  0  0  0  0  0  0  0  0  0
   -5.0154   -3.0348  -19.4367 N   0  0  0  0  0  0  0  0  0  0  0  0
   -5.5885   -2.0824  -18.7302 N   0  0  0  0  0  0  0  0  0  0  0  0
   -6.6345   -1.6057  -19.4585 C   0  0  0  0  0  0  0  0  0  0  0  0
   -5.3109   -1.7721  -17.8381 H   0  0  0  0  0  0  0  0  0  0  0  0
 29 30  1  0  0  0
 30 28  1  0  0  0
  1 28  1  0  0  0
  1  2  1  0  0  0
  2  3  1  0  0  0
  3 18  1  0  0  0
  3  4  1  0  0  0
 18 19  2  0  0  0
 19 20  1  0  0  0
 20 21  2  0  0  0
 21 22  1  0  0  0
 22 23  2  0  0  0
 23 24  1  0  0  0
 24 25  2  0  0  0
 25 26  1  0  0  0
 26 27  2  0  0  0
 27 18  1  0  0  0
 27 22  1  0  0  0
  4  5  2  0  0  0
  6  4  1  0  0  0
  6  7  1  0  0  0
  6  1  1  0  0  0
  7  8  1  0  0  0
  8 31  1  0  0  0
  8  9  1  0  0  0
 31 32  1  0  0  0
 32 33  1  0  0  0
 33 34  2  0  0  0
 34 35  1  0  0  0
 35 36  1  0  0  0
 35 37  1  0  0  0
 36 32  2  0  0  0
  9 10  2  0  0  0
  9 11  1  0  0  0
 11 12  2  0  0  0
 12 13  1  0  0  0
 13 14  2  0  0  0
 14 15  1  0  0  0
 14 16  1  0  0  0
 16 17  2  0  0  0
 17 11  1  0  0  0
 17  6  1  0  0  0
M  END
> <minimizedAffinity>
-6.31946

> <CNNscore>
0.1458840072

> <CNNaffinity>
5.8550772667

> <CNN_VS>
0.8541621566

> <CNNaffinity_variance>
0.3155035377

$$$$



 36 41  0  0  0  0  0  0  0  0999 V2000
   -8.0916   -0.8457  -24.8331 N   0  0  0  0  0  0  0  0  0  0  0  0
   -8.3469   -2.0834  -25.5190 C   0  0  0  0  0  0  0  0  0  0  0  0
   -9.0633   -3.0440  -24.6340 C   0  0  0  0  0  0  0  0  0  0  0  0
   -8.1212   -3.5312  -23.5930 C   0  0  0  0  0  0  0  0  0  0  0  0
   -7.8677   -2.9677  -22.4989 O   0  0  0  0  0  0  0  0  0  0  0  0
   -7.5105   -4.7548  -23.9793 N   0  0  0  0  0  0  0  0  0  0  0  0
   -7.9984   -5.0008  -25.3355 C   0  0  0  0  0  0  0  0  0  0  0  0
   -9.3864   -4.3325  -25.3486 C   0  0  0  0  0  0  0  0  0  0  0  0
   -9.8297   -4.1430  -26.7646 C   0  0  0  0  0  0  0  0  0  0  0  0
  -10.2149   -2.3838  -23.9857 C   0  0  0  0  0  0  0  0  0  0  0  0
  -11.3285   -3.1057  -23.5267 C   0  0  0  0  0  0  0  0  0  0  0  0
  -12.3995   -2.4764  -22.9176 C   0  0  0  0  0  0  0  0  0  0  0  0
  -13.4745   -3.1974  -22.4778 F   0  0  0  0  0  0  0  0  0  0  0  0
  -12.4360   -1.1141  -22.7267 C   0  0  0  0  0  0  0  0  0  0  0  0
  -11.3520   -0.3918  -23.1707 C   0  0  0  0  0  0  0  0  0  0  0  0
  -10.2971   -1.0197  -23.7718 C   0  0  0  0  0  0  0  0  0  0  0  0
   -9.1855   -0.1934  -24.2131 C   0  0  0  0  0  0  0  0  0  0  0  0
   -9.1934    1.0524  -24.0532 O   0  0  0  0  0  0  0  0  0  0  0  0
   -6.6367   -5.6171  -23.3082 C   0  0  0  0  0  0  0  0  0  0  0  0
   -6.8717   -6.2008  -22.0827 C   0  0  0  0  0  0  0  0  0  0  0  0
   -6.0142   -7.0246  -21.4677 N   0  0  0  0  0  0  0  0  0  0  0  0
   -4.8393   -7.3486  -22.0107 C   0  0  0  0  0  0  0  0  0  0  0  0
   -4.5444   -6.7904  -23.2482 C   0  0  0  0  0  0  0  0  0  0  0  0
   -3.3106   -7.1477  -23.7894 C   0  0  0  0  0  0  0  0  0  0  0  0
   -2.9686   -6.6192  -25.0207 C   0  0  0  0  0  0  0  0  0  0  0  0
   -3.8168   -5.7591  -25.7072 C   0  0  0  0  0  0  0  0  0  0  0  0
   -5.0265   -5.4417  -25.1196 C   0  0  0  0  0  0  0  0  0  0  0  0
   -5.4095   -5.9409  -23.9004 C   0  0  0  0  0  0  0  0  0  0  0  0
   -6.7670   -0.3012  -24.8037 C   0  0  0  0  0  0  0  0  0  0  0  0
   -6.0356    0.7536  -22.5722 N   0  0  0  0  0  0  0  0  0  0  0  0
   -5.3173    0.3350  -21.5300 N   0  0  0  0  0  0  0  0  0  0  0  0
   -4.8979   -0.9243  -21.7231 C   0  0  0  0  0  0  0  0  0  0  0  0
   -5.3918   -1.2890  -22.9546 C   0  0  0  0  0  0  0  0  0  0  0  0
   -6.1181   -0.2120  -23.4915 C   0  0  0  0  0  0  0  0  0  0  0  0
   -5.6037    3.0531  -22.0323 C   0  0  0  0  0  0  0  0  0  0  0  0
   -6.6043    2.0733  -22.6386 C   0  0  0  0  0  0  0  0  0  0  0  0
 35 36  1  0  0  0
 36 30  1  0  0  0
 30 31  1  0  0  0
 31 32  2  0  0  0
 32 33  1  0  0  0
 33 34  2  0  0  0
 34 29  1  0  0  0
 34 30  1  0  0  0
 29  1  1  0  0  0
  1  2  1  0  0  0
  3  2  1  0  0  0
  3  4  1  0  0  0
  3 10  1  0  0  0
  4  5  2  0  0  0
  4  6  1  0  0  0
  6 19  1  0  0  0
  6  7  1  0  0  0
 19 20  2  0  0  0
 20 21  1  0  0  0
 21 22  2  0  0  0
 22 23  1  0  0  0
 23 24  2  0  0  0
 24 25  1  0  0  0
 25 26  2  0  0  0
 26 27  1  0  0  0
 27 28  2  0  0  0
 28 19  1  0  0  0
 28 23  1  0  0  0
  7  8  1  0  0  0
  8  9  1  0  0  0
  8  3  1  0  0  0
 10 11  2  0  0  0
 11 12  1  0  0  0
 12 13  1  0  0  0
 12 14  2  0  0  0
 14 15  1  0  0  0
 15 16  2  0  0  0
 16 17  1  0  0  0
 16 10  1  0  0  0
 17 18  2  0  0  0
 17  1  1  0  0  0
M  END
> <minimizedAffinity>
-7.10705

> <CNNscore>
0.3727658093

> <CNNaffinity>
6.5309724808

> <CNN_VS>
2.4345233440

> <CNNaffinity_variance>
0.3059985936

$$$$



 36 41  0  0  0  0  0  0  0  0999 V2000
  -10.6170    0.3043  -23.5277 N   0  0  0  0  0  0  0  0  0  0  0  0
   -9.2667    0.4626  -23.9958 C   0  0  0  0  0  0  0  0  0  0  0  0
   -8.4486   -0.7410  -23.6771 C   0  0  0  0  0  0  0  0  0  0  0  0
   -8.1974   -0.7760  -22.2128 C   0  0  0  0  0  0  0  0  0  0  0  0
   -8.9578   -1.2658  -21.3406 O   0  0  0  0  0  0  0  0  0  0  0  0
   -6.9527   -0.1728  -21.8866 N   0  0  0  0  0  0  0  0  0  0  0  0
   -6.4472    0.3449  -23.1572 C   0  0  0  0  0  0  0  0  0  0  0  0
   -7.0403   -0.6183  -24.2031 C   0  0  0  0  0  0  0  0  0  0  0  0
   -6.9541    0.0102  -25.5578 C   0  0  0  0  0  0  0  0  0  0  0  0
   -9.1623   -1.9689  -24.0837 C   0  0  0  0  0  0  0  0  0  0  0  0
   -8.4852   -3.1633  -24.3785 C   0  0  0  0  0  0  0  0  0  0  0  0
   -9.1651   -4.3081  -24.7546 C   0  0  0  0  0  0  0  0  0  0  0  0
   -8.4873   -5.4611  -25.0376 F   0  0  0  0  0  0  0  0  0  0  0  0
  -10.5366   -4.3432  -24.8610 C   0  0  0  0  0  0  0  0  0  0  0  0
  -11.2154   -3.1807  -24.5753 C   0  0  0  0  0  0  0  0  0  0  0  0
  -10.5377   -2.0531  -24.2044 C   0  0  0  0  0  0  0  0  0  0  0  0
  -11.3204   -0.8628  -23.9150 C   0  0  0  0  0  0  0  0  0  0  0  0
  -12.5731   -0.8662  -24.0060 O   0  0  0  0  0  0  0  0  0  0  0  0
   -6.2636   -0.0454  -20.6757 C   0  0  0  0  0  0  0  0  0  0  0  0
   -6.6350   -0.6179  -19.4789 C   0  0  0  0  0  0  0  0  0  0  0  0
   -5.9511   -0.4780  -18.3366 N   0  0  0  0  0  0  0  0  0  0  0  0
   -4.8313    0.2446  -18.2721 C   0  0  0  0  0  0  0  0  0  0  0  0
   -4.4050    0.8480  -19.4487 C   0  0  0  0  0  0  0  0  0  0  0  0
   -3.2329    1.5956  -19.3495 C   0  0  0  0  0  0  0  0  0  0  0  0
   -2.7650    2.2169  -20.4930 C   0  0  0  0  0  0  0  0  0  0  0  0
   -3.4311    2.1085  -21.7075 C   0  0  0  0  0  0  0  0  0  0  0  0
   -4.5881    1.3537  -21.7431 C   0  0  0  0  0  0  0  0  0  0  0  0
   -5.0907    0.7190  -20.6355 C   0  0  0  0  0  0  0  0  0  0  0  0
  -11.2162    1.3153  -22.7087 C   0  0  0  0  0  0  0  0  0  0  0  0
  -11.4497    3.5296  -24.0009 N   0  0  0  0  0  0  0  0  0  0  0  0
  -12.4768    4.2214  -24.4946 N   0  0  0  0  0  0  0  0  0  0  0  0
  -13.6334    3.5907  -24.2421 C   0  0  0  0  0  0  0  0  0  0  0  0
  -13.2853    2.4502  -23.5555 C   0  0  0  0  0  0  0  0  0  0  0  0
  -11.8881    2.4174  -23.4050 C   0  0  0  0  0  0  0  0  0  0  0  0
  -10.0110    5.4073  -23.5889 C   0  0  0  0  0  0  0  0  0  0  0  0
  -10.0880    3.9783  -24.1187 C   0  0  0  0  0  0  0  0  0  0  0  0
 35 36  1  0  0  0
 36 30  1  0  0  0
 30 31  1  0  0  0
 31 32  2  0  0  0
 32 33  1  0  0  0
 33 34  2  0  0  0
 34 29  1  0  0  0
 34 30  1  0  0  0
 29  1  1  0  0  0
  1  2  1  0  0  0
  3  2  1  0  0  0
  3  4  1  0  0  0
  3 10  1  0  0  0
  4  5  2  0  0  0
  4  6  1  0  0  0
  6 19  1  0  0  0
  6  7  1  0  0  0
 19 20  2  0  0  0
 20 21  1  0  0  0
 21 22  2  0  0  0
 22 23  1  0  0  0
 23 24  2  0  0  0
 24 25  1  0  0  0
 25 26  2  0  0  0
 26 27  1  0  0  0
 27 28  2  0  0  0
 28 19  1  0  0  0
 28 23  1  0  0  0
  7  8  1  0  0  0
  8  9  1  0  0  0
  8  3  1  0  0  0
 10 11  2  0  0  0
 11 12  1  0  0  0
 12 13  1  0  0  0
 12 14  2  0  0  0
 14 15  1  0  0  0
 15 16  2  0  0  0
 16 17  1  0  0  0
 16 10  1  0  0  0
 17 18  2  0  0  0
 17  1  1  0  0  0
M  END
> <minimizedAffinity>
-8.91362

> <CNNscore>
0.3487473130

> <CNNaffinity>
6.3772497177

> <CNN_VS>
2.2240486145

> <CNNaffinity_variance>
0.0820330456

$$$$



 36 41  0  0  0  0  0  0  0  0999 V2000
   -6.9368   -2.1374  -22.3528 N   0  0  0  0  0  0  0  0  0  0  0  0
   -7.0216   -1.3967  -23.5823 C   0  0  0  0  0  0  0  0  0  0  0  0
   -7.1052    0.0669  -23.3169 C   0  0  0  0  0  0  0  0  0  0  0  0
   -8.4447    0.3760  -22.7524 C   0  0  0  0  0  0  0  0  0  0  0  0
   -8.7745    0.3054  -21.5420 O   0  0  0  0  0  0  0  0  0  0  0  0
   -9.3539    0.7788  -23.7676 N   0  0  0  0  0  0  0  0  0  0  0  0
   -8.6071    0.6279  -25.0154 C   0  0  0  0  0  0  0  0  0  0  0  0
   -7.1447    0.8680  -24.5943 C   0  0  0  0  0  0  0  0  0  0  0  0
   -6.2326    0.3499  -25.6606 C   0  0  0  0  0  0  0  0  0  0  0  0
   -6.0599    0.4748  -22.3561 C   0  0  0  0  0  0  0  0  0  0  0  0
   -5.5689    1.7893  -22.3000 C   0  0  0  0  0  0  0  0  0  0  0  0
   -4.5922    2.1601  -21.3929 C   0  0  0  0  0  0  0  0  0  0  0  0
   -4.1274    3.4452  -21.3544 F   0  0  0  0  0  0  0  0  0  0  0  0
   -4.0481    1.2681  -20.4975 C   0  0  0  0  0  0  0  0  0  0  0  0
   -4.5187   -0.0245  -20.5393 C   0  0  0  0  0  0  0  0  0  0  0  0
   -5.4836   -0.3845  -21.4380 C   0  0  0  0  0  0  0  0  0  0  0  0
   -5.9346   -1.7664  -21.4230 C   0  0  0  0  0  0  0  0  0  0  0  0
   -5.4538   -2.6021  -20.6179 O   0  0  0  0  0  0  0  0  0  0  0  0
  -10.6746    1.2374  -23.7125 C   0  0  0  0  0  0  0  0  0  0  0  0
  -11.7912    0.4459  -23.5559 C   0  0  0  0  0  0  0  0  0  0  0  0
  -13.0433    0.9171  -23.5047 N   0  0  0  0  0  0  0  0  0  0  0  0
  -13.3077    2.2211  -23.6044 C   0  0  0  0  0  0  0  0  0  0  0  0
  -12.2208    3.0716  -23.7642 C   0  0  0  0  0  0  0  0  0  0  0  0
  -12.5290    4.4272  -23.8651 C   0  0  0  0  0  0  0  0  0  0  0  0
  -11.4823    5.3168  -24.0251 C   0  0  0  0  0  0  0  0  0  0  0  0
  -10.1622    4.8878  -24.0852 C   0  0  0  0  0  0  0  0  0  0  0  0
   -9.9196    3.5315  -23.9794 C   0  0  0  0  0  0  0  0  0  0  0  0
  -10.9245    2.6113  -23.8196 C   0  0  0  0  0  0  0  0  0  0  0  0
   -7.8389   -3.2220  -22.1044 C   0  0  0  0  0  0  0  0  0  0  0  0
   -9.0276   -4.0601  -24.2286 N   0  0  0  0  0  0  0  0  0  0  0  0
  -10.2555   -3.9236  -24.7296 N   0  0  0  0  0  0  0  0  0  0  0  0
  -11.0150   -3.1748  -23.9162 C   0  0  0  0  0  0  0  0  0  0  0  0
  -10.1984   -2.8385  -22.8609 C   0  0  0  0  0  0  0  0  0  0  0  0
   -8.9297   -3.4078  -23.0669 C   0  0  0  0  0  0  0  0  0  0  0  0
   -8.0151   -6.2336  -24.3546 C   0  0  0  0  0  0  0  0  0  0  0  0
   -7.9981   -4.8082  -24.8992 C   0  0  0  0  0  0  0  0  0  0  0  0
 35 36  1  0  0  0
 36 30  1  0  0  0
 30 31  1  0  0  0
 31 32  2  0  0  0
 32 33  1  0  0  0
 33 34  2  0  0  0
 34 29  1  0  0  0
 34 30  1  0  0  0
 29  1  1  0  0  0
  1  2  1  0  0  0
  3  2  1  0  0  0
  3  4  1  0  0  0
  3 10  1  0  0  0
  4  5  2  0  0  0
  4  6  1  0  0  0
  6 19  1  0  0  0
  6  7  1  0  0  0
 19 20  2  0  0  0
 20 21  1  0  0  0
 21 22  2  0  0  0
 22 23  1  0  0  0
 23 24  2  0  0  0
 24 25  1  0  0  0
 25 26  2  0  0  0
 26 27  1  0  0  0
 27 28  2  0  0  0
 28 19  1  0  0  0
 28 23  1  0  0  0
  7  8  1  0  0  0
  8  9  1  0  0  0
  8  3  1  0  0  0
 10 11  2  0  0  0
 11 12  1  0  0  0
 12 13  1  0  0  0
 12 14  2  0  0  0
 14 15  1  0  0  0
 15 16  2  0  0  0
 16 17  1  0  0  0
 16 10  1  0  0  0
 17 18  2  0  0  0
 17  1  1  0  0  0
M  END
> <minimizedAffinity>
-8.69238

> <CNNscore>
0.2731866241

> <CNNaffinity>
6.3128342628

> <CNN_VS>
1.7245818377

> <CNNaffinity_variance>
0.1742234975

$$$$



 36 41  0  0  0  0  0  0  0  0999 V2000
   -6.7402   -1.6558  -22.1950 N   0  0  0  0  0  0  0  0  0  0  0  0
   -6.5986   -0.8989  -23.4095 C   0  0  0  0  0  0  0  0  0  0  0  0
   -6.4908    0.5582  -23.1187 C   0  0  0  0  0  0  0  0  0  0  0  0
   -7.8176    1.0575  -22.6726 C   0  0  0  0  0  0  0  0  0  0  0  0
   -8.2669    1.0251  -21.4996 O   0  0  0  0  0  0  0  0  0  0  0  0
   -8.5577    1.6006  -23.7574 N   0  0  0  0  0  0  0  0  0  0  0  0
   -7.7267    1.3524  -24.9345 C   0  0  0  0  0  0  0  0  0  0  0  0
   -6.2913    1.3684  -24.3752 C   0  0  0  0  0  0  0  0  0  0  0  0
   -5.3687    0.7307  -25.3649 C   0  0  0  0  0  0  0  0  0  0  0  0
   -5.4923    0.7970  -22.0565 C   0  0  0  0  0  0  0  0  0  0  0  0
   -4.8208    2.0233  -21.9247 C   0  0  0  0  0  0  0  0  0  0  0  0
   -3.8903    2.2362  -20.9232 C   0  0  0  0  0  0  0  0  0  0  0  0
   -3.2473    3.4376  -20.8121 F   0  0  0  0  0  0  0  0  0  0  0  0
   -3.5703    1.2647  -20.0028 C   0  0  0  0  0  0  0  0  0  0  0  0
   -4.2197    0.0569  -20.1180 C   0  0  0  0  0  0  0  0  0  0  0  0
   -5.1379   -0.1471  -21.1097 C   0  0  0  0  0  0  0  0  0  0  0  0
   -5.7866   -1.4467  -21.1686 C   0  0  0  0  0  0  0  0  0  0  0  0
   -5.5121   -2.3522  -20.3425 O   0  0  0  0  0  0  0  0  0  0  0  0
   -9.7958    2.2498  -23.8132 C   0  0  0  0  0  0  0  0  0  0  0  0
   -9.9826    3.6063  -23.9646 C   0  0  0  0  0  0  0  0  0  0  0  0
  -11.1830    4.1967  -24.0167 N   0  0  0  0  0  0  0  0  0  0  0  0
  -12.3150    3.4965  -23.9231 C   0  0  0  0  0  0  0  0  0  0  0  0
  -12.1915    2.1214  -23.7687 C   0  0  0  0  0  0  0  0  0  0  0  0
  -13.3910    1.4178  -23.6740 C   0  0  0  0  0  0  0  0  0  0  0  0
  -13.3235    0.0451  -23.5196 C   0  0  0  0  0  0  0  0  0  0  0  0
  -12.1073   -0.6239  -23.4589 C   0  0  0  0  0  0  0  0  0  0  0  0
  -10.9523    0.1280  -23.5584 C   0  0  0  0  0  0  0  0  0  0  0  0
  -10.9688    1.4911  -23.7125 C   0  0  0  0  0  0  0  0  0  0  0  0
   -7.8114   -2.5966  -22.0562 C   0  0  0  0  0  0  0  0  0  0  0  0
   -8.4669   -3.9603  -24.1390 N   0  0  0  0  0  0  0  0  0  0  0  0
   -8.1343   -5.1604  -24.6148 N   0  0  0  0  0  0  0  0  0  0  0  0
   -7.2586   -5.7642  -23.7977 C   0  0  0  0  0  0  0  0  0  0  0  0
   -7.0491   -4.8769  -22.7669 C   0  0  0  0  0  0  0  0  0  0  0  0
   -7.8243   -3.7260  -22.9916 C   0  0  0  0  0  0  0  0  0  0  0  0
  -10.7387   -3.8197  -24.9037 C   0  0  0  0  0  0  0  0  0  0  0  0
   -9.3993   -3.0943  -24.8099 C   0  0  0  0  0  0  0  0  0  0  0  0
 35 36  1  0  0  0
 36 30  1  0  0  0
 30 31  1  0  0  0
 31 32  2  0  0  0
 32 33  1  0  0  0
 33 34  2  0  0  0
 34 29  1  0  0  0
 34 30  1  0  0  0
 29  1  1  0  0  0
  1  2  1  0  0  0
  3  2  1  0  0  0
  3  4  1  0  0  0
  3 10  1  0  0  0
  4  5  2  0  0  0
  4  6  1  0  0  0
  6 19  1  0  0  0
  6  7  1  0  0  0
 19 20  2  0  0  0
 20 21  1  0  0  0
 21 22  2  0  0  0
 22 23  1  0  0  0
 23 24  2  0  0  0
 24 25  1  0  0  0
 25 26  2  0  0  0
 26 27  1  0  0  0
 27 28  2  0  0  0
 28 19  1  0  0  0
 28 23  1  0  0  0
  7  8  1  0  0  0
  8  9  1  0  0  0
  8  3  1  0  0  0
 10 11  2  0  0  0
 11 12  1  0  0  0
 12 13  1  0  0  0
 12 14  2  0  0  0
 14 15  1  0  0  0
 15 16  2  0  0  0
 16 17  1  0  0  0
 16 10  1  0  0  0
 17 18  2  0  0  0
 17  1  1  0  0  0
M  END
> <minimizedAffinity>
-8.63085

> <CNNscore>
0.2427211106

> <CNNaffinity>
6.2767109871

> <CNN_VS>
1.5234903097

> <CNNaffinity_variance>
0.1606993973

$$$$



 36 41  0  0  0  0  0  0  0  0999 V2000
  -10.5016    2.5838  -24.2980 N   0  0  0  0  0  0  0  0  0  0  0  0
   -9.4091    1.8743  -24.9069 C   0  0  0  0  0  0  0  0  0  0  0  0
   -9.0317    0.6823  -24.0969 C   0  0  0  0  0  0  0  0  0  0  0  0
   -8.3617    1.1410  -22.8522 C   0  0  0  0  0  0  0  0  0  0  0  0
   -8.9309    1.4804  -21.7846 O   0  0  0  0  0  0  0  0  0  0  0  0
   -6.9485    1.1557  -23.0002 N   0  0  0  0  0  0  0  0  0  0  0  0
   -6.7182    0.7941  -24.3981 C   0  0  0  0  0  0  0  0  0  0  0  0
   -7.9198   -0.1064  -24.7426 C   0  0  0  0  0  0  0  0  0  0  0  0
   -8.0429   -0.2180  -26.2292 C   0  0  0  0  0  0  0  0  0  0  0  0
  -10.2335   -0.1030  -23.7486 C   0  0  0  0  0  0  0  0  0  0  0  0
  -10.1700   -1.4745  -23.4538 C   0  0  0  0  0  0  0  0  0  0  0  0
  -11.3022   -2.1985  -23.1251 C   0  0  0  0  0  0  0  0  0  0  0  0
  -11.2191   -3.5332  -22.8415 F   0  0  0  0  0  0  0  0  0  0  0  0
  -12.5496   -1.6204  -23.0678 C   0  0  0  0  0  0  0  0  0  0  0  0
  -12.6292   -0.2766  -23.3538 C   0  0  0  0  0  0  0  0  0  0  0  0
  -11.5068    0.4329  -23.6780 C   0  0  0  0  0  0  0  0  0  0  0  0
  -11.6660    1.8490  -23.9652 C   0  0  0  0  0  0  0  0  0  0  0  0
  -12.7930    2.4019  -23.9223 O   0  0  0  0  0  0  0  0  0  0  0  0
   -5.9160    1.4288  -22.0965 C   0  0  0  0  0  0  0  0  0  0  0  0
   -4.9632    2.4131  -22.2427 C   0  0  0  0  0  0  0  0  0  0  0  0
   -3.9880    2.6504  -21.3567 N   0  0  0  0  0  0  0  0  0  0  0  0
   -3.8645    1.9324  -20.2389 C   0  0  0  0  0  0  0  0  0  0  0  0
   -4.7972    0.9232  -20.0347 C   0  0  0  0  0  0  0  0  0  0  0  0
   -4.6421    0.1913  -18.8587 C   0  0  0  0  0  0  0  0  0  0  0  0
   -5.5454   -0.8253  -18.6074 C   0  0  0  0  0  0  0  0  0  0  0  0
   -6.5783   -1.1187  -19.4891 C   0  0  0  0  0  0  0  0  0  0  0  0
   -6.6806   -0.3582  -20.6383 C   0  0  0  0  0  0  0  0  0  0  0  0
   -5.8088    0.6600  -20.9307 C   0  0  0  0  0  0  0  0  0  0  0  0
  -10.3982    3.9923  -24.0587 C   0  0  0  0  0  0  0  0  0  0  0  0
  -11.2362    5.1610  -26.1939 N   0  0  0  0  0  0  0  0  0  0  0  0
  -12.2107    6.0296  -26.4645 N   0  0  0  0  0  0  0  0  0  0  0  0
  -12.8858    6.3419  -25.3483 C   0  0  0  0  0  0  0  0  0  0  0  0
  -12.2842    5.6196  -24.3434 C   0  0  0  0  0  0  0  0  0  0  0  0
  -11.2309    4.8669  -24.8909 C   0  0  0  0  0  0  0  0  0  0  0  0
  -11.1294    4.5338  -28.5092 C   0  0  0  0  0  0  0  0  0  0  0  0
  -10.3455    4.6590  -27.2059 C   0  0  0  0  0  0  0  0  0  0  0  0
 35 36  1  0  0  0
 36 30  1  0  0  0
 30 31  1  0  0  0
 31 32  2  0  0  0
 32 33  1  0  0  0
 33 34  2  0  0  0
 34 29  1  0  0  0
 34 30  1  0  0  0
 29  1  1  0  0  0
  1  2  1  0  0  0
  3  2  1  0  0  0
  3  4  1  0  0  0
  3 10  1  0  0  0
  4  5  2  0  0  0
  4  6  1  0  0  0
  6 19  1  0  0  0
  6  7  1  0  0  0
 19 20  2  0  0  0
 20 21  1  0  0  0
 21 22  2  0  0  0
 22 23  1  0  0  0
 23 24  2  0  0  0
 24 25  1  0  0  0
 25 26  2  0  0  0
 26 27  1  0  0  0
 27 28  2  0  0  0
 28 19  1  0  0  0
 28 23  1  0  0  0
  7  8  1  0  0  0
  8  9  1  0  0  0
  8  3  1  0  0  0
 10 11  2  0  0  0
 11 12  1  0  0  0
 12 13  1  0  0  0
 12 14  2  0  0  0
 14 15  1  0  0  0
 15 16  2  0  0  0
 16 17  1  0  0  0
 16 10  1  0  0  0
 17 18  2  0  0  0
 17  1  1  0  0  0
M  END
> <minimizedAffinity>
-8.11810

> <CNNscore>
0.2219105363

> <CNNaffinity>
6.1467914581

> <CNN_VS>
1.3640377522

> <CNNaffinity_variance>
0.0979773402

$$$$



 36 41  0  0  0  0  0  0  0  0999 V2000
   -7.1685   -3.9243  -22.4796 N   0  0  0  0  0  0  0  0  0  0  0  0
   -8.3392   -3.0906  -22.5237 C   0  0  0  0  0  0  0  0  0  0  0  0
   -8.8492   -2.9630  -23.9176 C   0  0  0  0  0  0  0  0  0  0  0  0
   -7.9124   -2.1103  -24.6947 C   0  0  0  0  0  0  0  0  0  0  0  0
   -6.8734   -2.4970  -25.2862 O   0  0  0  0  0  0  0  0  0  0  0  0
   -8.3322   -0.7527  -24.7011 N   0  0  0  0  0  0  0  0  0  0  0  0
   -9.5050   -0.7231  -23.8285 C   0  0  0  0  0  0  0  0  0  0  0  0
  -10.1069   -2.1329  -23.9818 C   0  0  0  0  0  0  0  0  0  0  0  0
  -11.0576   -2.3888  -22.8557 C   0  0  0  0  0  0  0  0  0  0  0  0
   -8.9460   -4.2934  -24.5525 C   0  0  0  0  0  0  0  0  0  0  0  0
   -9.8270   -4.5516  -25.6151 C   0  0  0  0  0  0  0  0  0  0  0  0
   -9.9058   -5.8010  -26.2041 C   0  0  0  0  0  0  0  0  0  0  0  0
  -10.7703   -6.0319  -27.2376 F   0  0  0  0  0  0  0  0  0  0  0  0
   -9.1299   -6.8577  -25.7858 C   0  0  0  0  0  0  0  0  0  0  0  0
   -8.2609   -6.6212  -24.7453 C   0  0  0  0  0  0  0  0  0  0  0  0
   -8.1879   -5.3845  -24.1676 C   0  0  0  0  0  0  0  0  0  0  0  0
   -7.2453   -5.2072  -23.0753 C   0  0  0  0  0  0  0  0  0  0  0  0
   -6.5264   -6.1549  -22.6720 O   0  0  0  0  0  0  0  0  0  0  0  0
   -7.8296    0.3789  -25.3525 C   0  0  0  0  0  0  0  0  0  0  0  0
   -7.6401    0.5025  -26.7115 C   0  0  0  0  0  0  0  0  0  0  0  0
   -7.1585    1.6019  -27.3045 N   0  0  0  0  0  0  0  0  0  0  0  0
   -6.8181    2.6858  -26.6047 C   0  0  0  0  0  0  0  0  0  0  0  0
   -6.9867    2.6221  -25.2272 C   0  0  0  0  0  0  0  0  0  0  0  0
   -6.6227    3.7692  -24.5242 C   0  0  0  0  0  0  0  0  0  0  0  0
   -6.7714    3.7579  -23.1493 C   0  0  0  0  0  0  0  0  0  0  0  0
   -7.2658    2.6468  -22.4775 C   0  0  0  0  0  0  0  0  0  0  0  0
   -7.6095    1.5392  -23.2290 C   0  0  0  0  0  0  0  0  0  0  0  0
   -7.4799    1.5034  -24.5943 C   0  0  0  0  0  0  0  0  0  0  0  0
   -5.9779   -3.4564  -21.8349 C   0  0  0  0  0  0  0  0  0  0  0  0
   -5.5694   -0.9269  -21.5863 N   0  0  0  0  0  0  0  0  0  0  0  0
   -5.8915   -0.0122  -20.6715 N   0  0  0  0  0  0  0  0  0  0  0  0
   -6.5846   -0.5730  -19.6693 C   0  0  0  0  0  0  0  0  0  0  0  0
   -6.6879   -1.9054  -19.9974 C   0  0  0  0  0  0  0  0  0  0  0  0
   -6.0370   -2.1245  -21.2239 C   0  0  0  0  0  0  0  0  0  0  0  0
   -3.9466    0.6114  -22.4612 C   0  0  0  0  0  0  0  0  0  0  0  0
   -4.8150   -0.6053  -22.7682 C   0  0  0  0  0  0  0  0  0  0  0  0
 35 36  1  0  0  0
 36 30  1  0  0  0
 30 31  1  0  0  0
 31 32  2  0  0  0
 32 33  1  0  0  0
 33 34  2  0  0  0
 34 29  1  0  0  0
 34 30  1  0  0  0
 29  1  1  0  0  0
  1  2  1  0  0  0
  3  2  1  0  0  0
  3  4  1  0  0  0
  3 10  1  0  0  0
  4  5  2  0  0  0
  4  6  1  0  0  0
  6 19  1  0  0  0
  6  7  1  0  0  0
 19 20  2  0  0  0
 20 21  1  0  0  0
 21 22  2  0  0  0
 22 23  1  0  0  0
 23 24  2  0  0  0
 24 25  1  0  0  0
 25 26  2  0  0  0
 26 27  1  0  0  0
 27 28  2  0  0  0
 28 19  1  0  0  0
 28 23  1  0  0  0
  7  8  1  0  0  0
  8  9  1  0  0  0
  8  3  1  0  0  0
 10 11  2  0  0  0
 11 12  1  0  0  0
 12 13  1  0  0  0
 12 14  2  0  0  0
 14 15  1  0  0  0
 15 16  2  0  0  0
 16 17  1  0  0  0
 16 10  1  0  0  0
 17 18  2  0  0  0
 17  1  1  0  0  0
M  END
> <minimizedAffinity>
-7.17209

> <CNNscore>
0.1752853990

> <CNNaffinity>
6.0534224510

> <CNN_VS>
1.0610765219

> <CNNaffinity_variance>
0.1498767436

$$$$



 36 41  0  0  0  0  0  0  0  0999 V2000
  -10.4845    2.4888  -24.0205 N   0  0  0  0  0  0  0  0  0  0  0  0
   -9.3933    2.0366  -24.8405 C   0  0  0  0  0  0  0  0  0  0  0  0
   -8.7908    0.7923  -24.2854 C   0  0  0  0  0  0  0  0  0  0  0  0
   -8.0420    1.1329  -23.0478 C   0  0  0  0  0  0  0  0  0  0  0  0
   -8.5220    1.2199  -21.8898 O   0  0  0  0  0  0  0  0  0  0  0  0
   -6.6658    1.3588  -23.3211 N   0  0  0  0  0  0  0  0  0  0  0  0
   -6.5551    1.2574  -24.7754 C   0  0  0  0  0  0  0  0  0  0  0  0
   -7.6754    0.2711  -25.1567 C   0  0  0  0  0  0  0  0  0  0  0  0
   -7.9523    0.3813  -26.6226 C   0  0  0  0  0  0  0  0  0  0  0  0
   -9.8463   -0.1912  -23.9673 C   0  0  0  0  0  0  0  0  0  0  0  0
   -9.5912   -1.5713  -23.9193 C   0  0  0  0  0  0  0  0  0  0  0  0
  -10.5874   -2.4824  -23.6164 C   0  0  0  0  0  0  0  0  0  0  0  0
  -10.3185   -3.8222  -23.5749 F   0  0  0  0  0  0  0  0  0  0  0  0
  -11.8788   -2.0921  -23.3457 C   0  0  0  0  0  0  0  0  0  0  0  0
  -12.1454   -0.7426  -23.3884 C   0  0  0  0  0  0  0  0  0  0  0  0
  -11.1568    0.1524  -23.6884 C   0  0  0  0  0  0  0  0  0  0  0  0
  -11.5107    1.5621  -23.7125 C   0  0  0  0  0  0  0  0  0  0  0  0
  -12.6820    1.9462  -23.4713 O   0  0  0  0  0  0  0  0  0  0  0  0
   -5.5763    1.6202  -22.4833 C   0  0  0  0  0  0  0  0  0  0  0  0
   -5.0266    0.7330  -21.5841 C   0  0  0  0  0  0  0  0  0  0  0  0
   -3.9806    1.0141  -20.7972 N   0  0  0  0  0  0  0  0  0  0  0  0
   -3.3789    2.2047  -20.8271 C   0  0  0  0  0  0  0  0  0  0  0  0
   -3.8887    3.1435  -21.7153 C   0  0  0  0  0  0  0  0  0  0  0  0
   -3.2393    4.3768  -21.7235 C   0  0  0  0  0  0  0  0  0  0  0  0
   -3.7077    5.3470  -22.5906 C   0  0  0  0  0  0  0  0  0  0  0  0
   -4.7891    5.1143  -23.4314 C   0  0  0  0  0  0  0  0  0  0  0  0
   -5.3917    3.8719  -23.3777 C   0  0  0  0  0  0  0  0  0  0  0  0
   -4.9629    2.8783  -22.5345 C   0  0  0  0  0  0  0  0  0  0  0  0
  -10.5187    3.8426  -23.5537 C   0  0  0  0  0  0  0  0  0  0  0  0
  -11.9360    5.1846  -25.2323 N   0  0  0  0  0  0  0  0  0  0  0  0
  -13.0605    5.8959  -25.1496 N   0  0  0  0  0  0  0  0  0  0  0  0
  -13.5309    5.8878  -23.8935 C   0  0  0  0  0  0  0  0  0  0  0  0
  -12.6384    5.1267  -23.1741 C   0  0  0  0  0  0  0  0  0  0  0  0
  -11.6217    4.6802  -24.0359 C   0  0  0  0  0  0  0  0  0  0  0  0
  -12.2159    4.9763  -27.6079 C   0  0  0  0  0  0  0  0  0  0  0  0
  -11.2080    5.0303  -26.4634 C   0  0  0  0  0  0  0  0  0  0  0  0
 35 36  1  0  0  0
 36 30  1  0  0  0
 30 31  1  0  0  0
 31 32  2  0  0  0
 32 33  1  0  0  0
 33 34  2  0  0  0
 34 29  1  0  0  0
 34 30  1  0  0  0
 29  1  1  0  0  0
  1  2  1  0  0  0
  3  2  1  0  0  0
  3  4  1  0  0  0
  3 10  1  0  0  0
  4  5  2  0  0  0
  4  6  1  0  0  0
  6 19  1  0  0  0
  6  7  1  0  0  0
 19 20  2  0  0  0
 20 21  1  0  0  0
 21 22  2  0  0  0
 22 23  1  0  0  0
 23 24  2  0  0  0
 24 25  1  0  0  0
 25 26  2  0  0  0
 26 27  1  0  0  0
 27 28  2  0  0  0
 28 19  1  0  0  0
 28 23  1  0  0  0
  7  8  1  0  0  0
  8  9  1  0  0  0
  8  3  1  0  0  0
 10 11  2  0  0  0
 11 12  1  0  0  0
 12 13  1  0  0  0
 12 14  2  0  0  0
 14 15  1  0  0  0
 15 16  2  0  0  0
 16 17  1  0  0  0
 16 10  1  0  0  0
 17 18  2  0  0  0
 17  1  1  0  0  0
M  END
> <minimizedAffinity>
-6.93259

> <CNNscore>
0.1669328958

> <CNNaffinity>
6.0791316032

> <CNN_VS>
1.0148069859

> <CNNaffinity_variance>
0.1665233821

$$$$



 36 41  0  0  0  0  0  0  0  0999 V2000
   -5.3942   -1.7105  -25.2700 N   0  0  0  0  0  0  0  0  0  0  0  0
   -5.7473   -1.4861  -23.8943 C   0  0  0  0  0  0  0  0  0  0  0  0
   -6.9441   -2.2879  -23.5147 C   0  0  0  0  0  0  0  0  0  0  0  0
   -8.1414   -1.7032  -24.1730 C   0  0  0  0  0  0  0  0  0  0  0  0
   -8.5466   -1.9548  -25.3354 O   0  0  0  0  0  0  0  0  0  0  0  0
   -8.8110   -0.7909  -23.3134 N   0  0  0  0  0  0  0  0  0  0  0  0
   -7.9681   -0.7181  -22.1209 C   0  0  0  0  0  0  0  0  0  0  0  0
   -7.3036   -2.1067  -22.0611 C   0  0  0  0  0  0  0  0  0  0  0  0
   -6.1196   -2.0484  -21.1488 C   0  0  0  0  0  0  0  0  0  0  0  0
   -6.7802   -3.6909  -23.9473 C   0  0  0  0  0  0  0  0  0  0  0  0
   -7.4579   -4.7495  -23.3212 C   0  0  0  0  0  0  0  0  0  0  0  0
   -7.2991   -6.0592  -23.7380 C   0  0  0  0  0  0  0  0  0  0  0  0
   -7.9680   -7.0757  -23.1149 F   0  0  0  0  0  0  0  0  0  0  0  0
   -6.4729   -6.3992  -24.7845 C   0  0  0  0  0  0  0  0  0  0  0  0
   -5.8014   -5.3731  -25.4091 C   0  0  0  0  0  0  0  0  0  0  0  0
   -5.9626   -4.0813  -24.9924 C   0  0  0  0  0  0  0  0  0  0  0  0
   -5.2239   -3.0491  -25.7009 C   0  0  0  0  0  0  0  0  0  0  0  0
   -4.4613   -3.3315  -26.6582 O   0  0  0  0  0  0  0  0  0  0  0  0
  -10.0030   -0.0728  -23.4575 C   0  0  0  0  0  0  0  0  0  0  0  0
  -10.1021    1.2444  -23.8489 C   0  0  0  0  0  0  0  0  0  0  0  0
  -11.2605    1.9028  -23.9795 N   0  0  0  0  0  0  0  0  0  0  0  0
  -12.4335    1.3163  -23.7336 C   0  0  0  0  0  0  0  0  0  0  0  0
  -12.3987   -0.0139  -23.3344 C   0  0  0  0  0  0  0  0  0  0  0  0
  -13.6392   -0.5985  -23.0853 C   0  0  0  0  0  0  0  0  0  0  0  0
  -13.6602   -1.9222  -22.6852 C   0  0  0  0  0  0  0  0  0  0  0  0
  -12.4912   -2.6573  -22.5322 C   0  0  0  0  0  0  0  0  0  0  0  0
  -11.2918   -2.0228  -22.7938 C   0  0  0  0  0  0  0  0  0  0  0  0
  -11.2207   -0.7122  -23.1930 C   0  0  0  0  0  0  0  0  0  0  0  0
   -5.2113   -0.5989  -26.1547 C   0  0  0  0  0  0  0  0  0  0  0  0
   -7.2520    0.6718  -27.0757 N   0  0  0  0  0  0  0  0  0  0  0  0
   -8.0513    0.5190  -28.1317 N   0  0  0  0  0  0  0  0  0  0  0  0
   -7.6773   -0.5473  -28.8544 C   0  0  0  0  0  0  0  0  0  0  0  0
   -6.5875   -1.0702  -28.1968 C   0  0  0  0  0  0  0  0  0  0  0  0
   -6.3210   -0.2861  -27.0610 C   0  0  0  0  0  0  0  0  0  0  0  0
   -8.3248    2.7951  -26.7499 C   0  0  0  0  0  0  0  0  0  0  0  0
   -7.4282    1.7327  -26.1203 C   0  0  0  0  0  0  0  0  0  0  0  0
 35 36  1  0  0  0
 36 30  1  0  0  0
 30 31  1  0  0  0
 31 32  2  0  0  0
 32 33  1  0  0  0
 33 34  2  0  0  0
 34 29  1  0  0  0
 34 30  1  0  0  0
 29  1  1  0  0  0
  1  2  1  0  0  0
  3  2  1  0  0  0
  3  4  1  0  0  0
  3 10  1  0  0  0
  4  5  2  0  0  0
  4  6  1  0  0  0
  6 19  1  0  0  0
  6  7  1  0  0  0
 19 20  2  0  0  0
 20 21  1  0  0  0
 21 22  2  0  0  0
 22 23  1  0  0  0
 23 24  2  0  0  0
 24 25  1  0  0  0
 25 26  2  0  0  0
 26 27  1  0  0  0
 27 28  2  0  0  0
 28 19  1  0  0  0
 28 23  1  0  0  0
  7  8  1  0  0  0
  8  9  1  0  0  0
  8  3  1  0  0  0
 10 11  2  0  0  0
 11 12  1  0  0  0
 12 13  1  0  0  0
 12 14  2  0  0  0
 14 15  1  0  0  0
 15 16  2  0  0  0
 16 17  1  0  0  0
 16 10  1  0  0  0
 17 18  2  0  0  0
 17  1  1  0  0  0
M  END
> <minimizedAffinity>
-6.89197

> <CNNscore>
0.1501490176

> <CNNaffinity>
5.9560632706

> <CNN_VS>
0.8942970634

> <CNNaffinity_variance>
0.2899091244

$$$$



 36 41  0  0  0  0  0  0  0  0999 V2000
   -3.4563    2.4071  -21.4418 N   0  0  0  0  0  0  0  0  0  0  0  0
   -4.6896    2.5998  -22.1557 C   0  0  0  0  0  0  0  0  0  0  0  0
   -5.4820    1.3390  -22.1986 C   0  0  0  0  0  0  0  0  0  0  0  0
   -4.8131    0.3835  -23.1195 C   0  0  0  0  0  0  0  0  0  0  0  0
   -3.8822   -0.4063  -22.8219 O   0  0  0  0  0  0  0  0  0  0  0  0
   -5.3601    0.4576  -24.4291 N   0  0  0  0  0  0  0  0  0  0  0  0
   -6.3283    1.5513  -24.3652 C   0  0  0  0  0  0  0  0  0  0  0  0
   -6.8037    1.5298  -22.8999 C   0  0  0  0  0  0  0  0  0  0  0  0
   -7.4754    2.8275  -22.5798 C   0  0  0  0  0  0  0  0  0  0  0  0
   -5.5710    0.7426  -20.8500 C   0  0  0  0  0  0  0  0  0  0  0  0
   -6.6187   -0.1165  -20.4809 C   0  0  0  0  0  0  0  0  0  0  0  0
   -6.6892   -0.6720  -19.2157 C   0  0  0  0  0  0  0  0  0  0  0  0
   -7.7177   -1.5061  -18.8761 F   0  0  0  0  0  0  0  0  0  0  0  0
   -5.7421   -0.4169  -18.2506 C   0  0  0  0  0  0  0  0  0  0  0  0
   -4.7084    0.4232  -18.5963 C   0  0  0  0  0  0  0  0  0  0  0  0
   -4.6447    0.9688  -19.8479 C   0  0  0  0  0  0  0  0  0  0  0  0
   -3.5228    1.8448  -20.1434 C   0  0  0  0  0  0  0  0  0  0  0  0
   -2.6452    2.0964  -19.2807 O   0  0  0  0  0  0  0  0  0  0  0  0
   -5.1168   -0.2873  -25.5881 C   0  0  0  0  0  0  0  0  0  0  0  0
   -4.2919    0.0909  -26.6247 C   0  0  0  0  0  0  0  0  0  0  0  0
   -4.0785   -0.6475  -27.7208 N   0  0  0  0  0  0  0  0  0  0  0  0
   -4.6643   -1.8338  -27.8938 C   0  0  0  0  0  0  0  0  0  0  0  0
   -5.5092   -2.2703  -26.8811 C   0  0  0  0  0  0  0  0  0  0  0  0
   -6.1058   -3.5124  -27.0906 C   0  0  0  0  0  0  0  0  0  0  0  0
   -6.9561   -3.9933  -26.1117 C   0  0  0  0  0  0  0  0  0  0  0  0
   -7.2166   -3.2729  -24.9526 C   0  0  0  0  0  0  0  0  0  0  0  0
   -6.5956   -2.0477  -24.8017 C   0  0  0  0  0  0  0  0  0  0  0  0
   -5.7446   -1.5295  -25.7448 C   0  0  0  0  0  0  0  0  0  0  0  0
   -2.2130    2.7930  -22.0395 C   0  0  0  0  0  0  0  0  0  0  0  0
   -2.5314    4.0494  -24.2638 N   0  0  0  0  0  0  0  0  0  0  0  0
   -2.3641    3.7352  -25.5485 N   0  0  0  0  0  0  0  0  0  0  0  0
   -1.9314    2.4715  -25.6712 C   0  0  0  0  0  0  0  0  0  0  0  0
   -1.8308    1.9933  -24.3848 C   0  0  0  0  0  0  0  0  0  0  0  0
   -2.2156    3.0071  -23.4903 C   0  0  0  0  0  0  0  0  0  0  0  0
   -2.7122    6.3415  -24.9561 C   0  0  0  0  0  0  0  0  0  0  0  0
   -2.9983    5.3420  -23.8389 C   0  0  0  0  0  0  0  0  0  0  0  0
 35 36  1  0  0  0
 36 30  1  0  0  0
 30 31  1  0  0  0
 31 32  2  0  0  0
 32 33  1  0  0  0
 33 34  2  0  0  0
 34 29  1  0  0  0
 34 30  1  0  0  0
 29  1  1  0  0  0
  1  2  1  0  0  0
  3  2  1  0  0  0
  3  4  1  0  0  0
  3 10  1  0  0  0
  4  5  2  0  0  0
  4  6  1  0  0  0
  6 19  1  0  0  0
  6  7  1  0  0  0
 19 20  2  0  0  0
 20 21  1  0  0  0
 21 22  2  0  0  0
 22 23  1  0  0  0
 23 24  2  0  0  0
 24 25  1  0  0  0
 25 26  2  0  0  0
 26 27  1  0  0  0
 27 28  2  0  0  0
 28 19  1  0  0  0
 28 23  1  0  0  0
  7  8  1  0  0  0
  8  9  1  0  0  0
  8  3  1  0  0  0
 10 11  2  0  0  0
 11 12  1  0  0  0
 12 13  1  0  0  0
 12 14  2  0  0  0
 14 15  1  0  0  0
 15 16  2  0  0  0
 16 17  1  0  0  0
 16 10  1  0  0  0
 17 18  2  0  0  0
 17  1  1  0  0  0
M  END
> <minimizedAffinity>
-6.19020

> <CNNscore>
0.1475387514

> <CNNaffinity>
5.5714712143

> <CNN_VS>
0.8220078945

> <CNNaffinity_variance>
0.1055401787

$$$$



 33 34  0  0  0  0  0  0  0  0999 V2000
  -10.1433   -1.4873  -22.9039 C   0  0  0  0  0  0  0  0  0  0  0  0
  -11.1941   -2.3455  -22.5554 C   0  0  0  0  0  0  0  0  0  0  0  0
  -12.5106   -1.8838  -22.6240 C   0  0  0  0  0  0  0  0  0  0  0  0
  -13.8508   -2.9268  -22.1965 Cl  0  0  0  0  0  0  0  0  0  0  0  0
  -12.8170   -0.6008  -23.0264 C   0  0  0  0  0  0  0  0  0  0  0  0
  -11.7783    0.2484  -23.3711 C   0  0  0  0  0  0  0  0  0  0  0  0
  -10.4733   -0.1937  -23.3083 C   0  0  0  0  0  0  0  0  0  0  0  0
  -12.0389    1.6184  -23.8065 C   0  0  0  0  0  0  0  0  0  0  0  0
  -13.3502    2.0871  -23.7344 C   0  0  0  0  0  0  0  0  0  0  0  0
  -13.6955    3.3670  -24.1224 C   0  0  0  0  0  0  0  0  0  0  0  0
  -12.7139    4.2122  -24.5973 C   0  0  0  0  0  0  0  0  0  0  0  0
  -11.4054    3.7528  -24.6721 C   0  0  0  0  0  0  0  0  0  0  0  0
  -11.0632    2.4606  -24.2792 C   0  0  0  0  0  0  0  0  0  0  0  0
  -13.0512    5.8520  -25.1146 S   0  0  0  0  0  0  0  0  0  0  0  0
  -14.0934    6.6476  -23.9682 N   0  0  0  0  0  0  0  0  0  0  0  0
  -13.7254    5.7889  -26.4460 O   0  0  0  0  0  0  0  0  0  0  0  0
  -11.7871    6.6573  -25.2073 O   0  0  0  0  0  0  0  0  0  0  0  0
  -14.9647    6.1246  -23.8809 H   0  0  0  0  0  0  0  0  0  0  0  0
  -14.2956    7.5935  -24.2920 H   0  0  0  0  0  0  0  0  0  0  0  0
   -8.7335   -1.9344  -22.8493 C   0  0  0  0  0  0  0  0  0  0  0  0
   -8.5587   -3.4059  -22.9300 C   0  0  0  0  0  0  0  0  0  0  0  0
   -7.0585   -0.3608  -21.8376 C   0  0  0  0  0  0  0  0  0  0  0  0
   -6.8429    0.1510  -22.9817 O   0  0  0  0  0  0  0  0  0  0  0  0
   -8.0118   -1.4298  -21.6969 N   0  0  0  0  0  0  0  0  0  0  0  0
   -8.1758   -1.8226  -20.8092 H   0  0  0  0  0  0  0  0  0  0  0  0
   -6.3180    0.1562  -20.6580 C   0  0  0  0  0  0  0  0  0  0  0  0
   -5.3125   -0.6755  -20.2367 O   0  0  0  0  0  0  0  0  0  0  0  0
   -5.8082   -1.5090  -18.8677 S   0  0  0  0  0  0  0  0  0  0  0  0
   -5.2009   -0.8445  -17.6673 O   0  0  0  0  0  0  0  0  0  0  0  0
   -7.3007   -1.4798  -18.7118 O   0  0  0  0  0  0  0  0  0  0  0  0
   -5.3222   -3.6809  -20.2693 C   0  0  0  0  0  0  0  0  0  0  0  0
   -5.2515   -3.1555  -18.9285 N   0  0  0  0  0  0  0  0  0  0  0  0
   -4.2840   -3.1917  -18.6076 H   0  0  0  0  0  0  0  0  0  0  0  0
 31 32  1  0  0  0
 32 28  1  0  0  0
 32 33  1  0  0  0
 28 29  2  0  0  0
 28 30  2  0  0  0
 28 27  1  0  0  0
 27 26  1  0  0  0
 26 22  1  0  0  0
 22 23  2  0  0  0
 22 24  1  0  0  0
 24 20  1  0  0  0
 24 25  1  0  0  0
 20 21  1  0  0  0
 20  1  1  0  0  0
  1  2  2  0  0  0
  2  3  1  0  0  0
  3  4  1  0  0  0
  3  5  2  0  0  0
  5  6  1  0  0  0
  6  8  1  0  0  0
  6  7  2  0  0  0
  8  9  2  0  0  0
  9 10  1  0  0  0
 10 11  2  0  0  0
 11 14  1  0  0  0
 11 12  1  0  0  0
 14 15  1  0  0  0
 14 16  2  0  0  0
 14 17  2  0  0  0
 15 18  1  0  0  0
 15 19  1  0  0  0
 12 13  2  0  0  0
 13  8  1  0  0  0
  7  1  1  0  0  0
M  END
> <minimizedAffinity>
-8.14550

> <CNNscore>
0.8463497162

> <CNNaffinity>
6.4307570457

> <CNN_VS>
5.4426693916

> <CNNaffinity_variance>
0.2365255803

$$$$



 33 34  0  0  0  0  0  0  0  0999 V2000
  -10.0663   -1.3508  -23.0423 C   0  0  0  0  0  0  0  0  0  0  0  0
  -11.0527   -2.2661  -22.6530 C   0  0  0  0  0  0  0  0  0  0  0  0
  -12.3931   -1.8733  -22.6521 C   0  0  0  0  0  0  0  0  0  0  0  0
  -13.6548   -2.9890  -22.1720 Cl  0  0  0  0  0  0  0  0  0  0  0  0
  -12.7852   -0.6047  -23.0241 C   0  0  0  0  0  0  0  0  0  0  0  0
  -11.8102    0.3009  -23.4092 C   0  0  0  0  0  0  0  0  0  0  0  0
  -10.4825   -0.0727  -23.4150 C   0  0  0  0  0  0  0  0  0  0  0  0
  -12.1626    1.6593  -23.8154 C   0  0  0  0  0  0  0  0  0  0  0  0
  -11.1488    2.4723  -24.3210 C   0  0  0  0  0  0  0  0  0  0  0  0
  -11.3835    3.7702  -24.7312 C   0  0  0  0  0  0  0  0  0  0  0  0
  -12.6612    4.2826  -24.6392 C   0  0  0  0  0  0  0  0  0  0  0  0
  -13.6763    3.4791  -24.1366 C   0  0  0  0  0  0  0  0  0  0  0  0
  -13.4335    2.1705  -23.7244 C   0  0  0  0  0  0  0  0  0  0  0  0
  -13.0595    5.9161  -25.1323 S   0  0  0  0  0  0  0  0  0  0  0  0
  -13.9512    5.8980  -26.6282 N   0  0  0  0  0  0  0  0  0  0  0  0
  -11.7827    6.6688  -25.3183 O   0  0  0  0  0  0  0  0  0  0  0  0
  -13.9196    6.5933  -24.1044 O   0  0  0  0  0  0  0  0  0  0  0  0
  -13.3935    5.4431  -27.3510 H   0  0  0  0  0  0  0  0  0  0  0  0
  -14.1593    6.8555  -26.9116 H   0  0  0  0  0  0  0  0  0  0  0  0
   -8.6342   -1.7239  -23.0615 C   0  0  0  0  0  0  0  0  0  0  0  0
   -8.3659   -3.0781  -23.6062 C   0  0  0  0  0  0  0  0  0  0  0  0
   -6.6543   -1.0517  -21.6711 C   0  0  0  0  0  0  0  0  0  0  0  0
   -6.0363   -0.6867  -22.7210 O   0  0  0  0  0  0  0  0  0  0  0  0
   -7.9851   -1.5904  -21.7714 N   0  0  0  0  0  0  0  0  0  0  0  0
   -8.4598   -1.8711  -20.9559 H   0  0  0  0  0  0  0  0  0  0  0  0
   -5.9882   -0.9152  -20.3502 C   0  0  0  0  0  0  0  0  0  0  0  0
   -4.6268   -0.7751  -20.4369 O   0  0  0  0  0  0  0  0  0  0  0  0
   -4.1990    0.8041  -20.0660 S   0  0  0  0  0  0  0  0  0  0  0  0
   -4.5770    1.0705  -18.6385 O   0  0  0  0  0  0  0  0  0  0  0  0
   -2.7211    1.0249  -20.2060 O   0  0  0  0  0  0  0  0  0  0  0  0
   -4.1559    2.7635  -21.8201 C   0  0  0  0  0  0  0  0  0  0  0  0
   -5.0631    1.9189  -21.0835 N   0  0  0  0  0  0  0  0  0  0  0  0
   -5.6363    1.3921  -21.7424 H   0  0  0  0  0  0  0  0  0  0  0  0
 31 32  1  0  0  0
 32 28  1  0  0  0
 32 33  1  0  0  0
 28 29  2  0  0  0
 28 30  2  0  0  0
 28 27  1  0  0  0
 27 26  1  0  0  0
 26 22  1  0  0  0
 22 23  2  0  0  0
 22 24  1  0  0  0
 24 20  1  0  0  0
 24 25  1  0  0  0
 20 21  1  0  0  0
 20  1  1  0  0  0
  1  2  2  0  0  0
  2  3  1  0  0  0
  3  4  1  0  0  0
  3  5  2  0  0  0
  5  6  1  0  0  0
  6  8  1  0  0  0
  6  7  2  0  0  0
  8  9  2  0  0  0
  9 10  1  0  0  0
 10 11  2  0  0  0
 11 14  1  0  0  0
 11 12  1  0  0  0
 14 15  1  0  0  0
 14 16  2  0  0  0
 14 17  2  0  0  0
 15 18  1  0  0  0
 15 19  1  0  0  0
 12 13  2  0  0  0
 13  8  1  0  0  0
  7  1  1  0  0  0
M  END
> <minimizedAffinity>
-7.05073

> <CNNscore>
0.6949380636

> <CNNaffinity>
6.0297164917

> <CNN_VS>
4.1902794838

> <CNNaffinity_variance>
0.0809641331

$$$$



 33 34  0  0  0  0  0  0  0  0999 V2000
  -10.0619   -1.2672  -23.0317 C   0  0  0  0  0  0  0  0  0  0  0  0
  -11.0487   -2.1889  -22.6588 C   0  0  0  0  0  0  0  0  0  0  0  0
  -12.3915   -1.8053  -22.6815 C   0  0  0  0  0  0  0  0  0  0  0  0
  -13.6537   -2.9291  -22.2222 Cl  0  0  0  0  0  0  0  0  0  0  0  0
  -12.7858   -0.5396  -23.0615 C   0  0  0  0  0  0  0  0  0  0  0  0
  -11.8104    0.3722  -23.4304 C   0  0  0  0  0  0  0  0  0  0  0  0
  -10.4803    0.0077  -23.4129 C   0  0  0  0  0  0  0  0  0  0  0  0
  -12.1650    1.7279  -23.8440 C   0  0  0  0  0  0  0  0  0  0  0  0
  -11.1561    2.5338  -24.3704 C   0  0  0  0  0  0  0  0  0  0  0  0
  -11.3932    3.8286  -24.7889 C   0  0  0  0  0  0  0  0  0  0  0  0
  -12.6683    4.3449  -24.6845 C   0  0  0  0  0  0  0  0  0  0  0  0
  -13.6785    3.5485  -24.1613 C   0  0  0  0  0  0  0  0  0  0  0  0
  -13.4333    2.2430  -23.7407 C   0  0  0  0  0  0  0  0  0  0  0  0
  -13.0692    5.9750  -25.1867 S   0  0  0  0  0  0  0  0  0  0  0  0
  -14.1309    6.7236  -24.0265 N   0  0  0  0  0  0  0  0  0  0  0  0
  -13.7510    5.8970  -26.5135 O   0  0  0  0  0  0  0  0  0  0  0  0
  -11.8362    6.8267  -25.2827 O   0  0  0  0  0  0  0  0  0  0  0  0
  -14.9818    6.1684  -23.9366 H   0  0  0  0  0  0  0  0  0  0  0  0
  -14.3700    7.6637  -24.3415 H   0  0  0  0  0  0  0  0  0  0  0  0
   -8.6272   -1.6305  -23.0258 C   0  0  0  0  0  0  0  0  0  0  0  0
   -7.7209   -0.5219  -22.6358 C   0  0  0  0  0  0  0  0  0  0  0  0
   -8.0773   -3.6294  -24.4426 C   0  0  0  0  0  0  0  0  0  0  0  0
   -8.3970   -4.4014  -23.4838 O   0  0  0  0  0  0  0  0  0  0  0  0
   -8.1710   -2.2027  -24.2780 N   0  0  0  0  0  0  0  0  0  0  0  0
   -7.9230   -1.6090  -25.0231 H   0  0  0  0  0  0  0  0  0  0  0  0
   -7.6094   -4.2166  -25.7245 C   0  0  0  0  0  0  0  0  0  0  0  0
   -8.6198   -4.4385  -26.6246 O   0  0  0  0  0  0  0  0  0  0  0  0
   -8.4836   -5.9883  -27.2525 S   0  0  0  0  0  0  0  0  0  0  0  0
   -9.3841   -6.8949  -26.4661 O   0  0  0  0  0  0  0  0  0  0  0  0
   -8.9085   -6.0422  -28.6910 O   0  0  0  0  0  0  0  0  0  0  0  0
   -6.1334   -6.4437  -28.3422 C   0  0  0  0  0  0  0  0  0  0  0  0
   -6.8491   -6.5618  -27.0962 N   0  0  0  0  0  0  0  0  0  0  0  0
   -6.3700   -6.0110  -26.3838 H   0  0  0  0  0  0  0  0  0  0  0  0
 31 32  1  0  0  0
 32 28  1  0  0  0
 32 33  1  0  0  0
 28 29  2  0  0  0
 28 30  2  0  0  0
 28 27  1  0  0  0
 27 26  1  0  0  0
 26 22  1  0  0  0
 22 23  2  0  0  0
 22 24  1  0  0  0
 24 20  1  0  0  0
 24 25  1  0  0  0
 20 21  1  0  0  0
 20  1  1  0  0  0
  1  2  2  0  0  0
  2  3  1  0  0  0
  3  4  1  0  0  0
  3  5  2  0  0  0
  5  6  1  0  0  0
  6  8  1  0  0  0
  6  7  2  0  0  0
  8  9  2  0  0  0
  9 10  1  0  0  0
 10 11  2  0  0  0
 11 14  1  0  0  0
 11 12  1  0  0  0
 14 15  1  0  0  0
 14 16  2  0  0  0
 14 17  2  0  0  0
 15 18  1  0  0  0
 15 19  1  0  0  0
 12 13  2  0  0  0
 13  8  1  0  0  0
  7  1  1  0  0  0
M  END
> <minimizedAffinity>
-6.82327

> <CNNscore>
0.5977051258

> <CNNaffinity>
5.8642578125

> <CNN_VS>
3.5050969124

> <CNNaffinity_variance>
0.0144993188

$$$$



 33 34  0  0  0  0  0  0  0  0999 V2000
   -9.1004   -0.3945  -22.3774 C   0  0  0  0  0  0  0  0  0  0  0  0
   -9.9165   -1.5330  -22.3746 C   0  0  0  0  0  0  0  0  0  0  0  0
  -11.2203   -1.4455  -22.8680 C   0  0  0  0  0  0  0  0  0  0  0  0
  -12.2707   -2.8467  -22.8812 Cl  0  0  0  0  0  0  0  0  0  0  0  0
  -11.7390   -0.2675  -23.3630 C   0  0  0  0  0  0  0  0  0  0  0  0
  -10.9324    0.8587  -23.3660 C   0  0  0  0  0  0  0  0  0  0  0  0
   -9.6428    0.7875  -22.8819 C   0  0  0  0  0  0  0  0  0  0  0  0
  -11.4240    2.1355  -23.8785 C   0  0  0  0  0  0  0  0  0  0  0  0
  -12.7789    2.4239  -23.7186 C   0  0  0  0  0  0  0  0  0  0  0  0
  -13.3370    3.6043  -24.1692 C   0  0  0  0  0  0  0  0  0  0  0  0
  -12.5312    4.5306  -24.7985 C   0  0  0  0  0  0  0  0  0  0  0  0
  -11.1807    4.2507  -24.9615 C   0  0  0  0  0  0  0  0  0  0  0  0
  -10.6234    3.0582  -24.5048 C   0  0  0  0  0  0  0  0  0  0  0  0
  -13.1444    6.0555  -25.4057 S   0  0  0  0  0  0  0  0  0  0  0  0
  -14.2621    6.7562  -24.2685 N   0  0  0  0  0  0  0  0  0  0  0  0
  -13.8436    5.7922  -26.6992 O   0  0  0  0  0  0  0  0  0  0  0  0
  -12.0298    7.0417  -25.6062 O   0  0  0  0  0  0  0  0  0  0  0  0
  -15.0347    6.1097  -24.1090 H   0  0  0  0  0  0  0  0  0  0  0  0
  -14.6242    7.6328  -24.6438 H   0  0  0  0  0  0  0  0  0  0  0  0
   -7.7118   -0.4412  -21.8674 C   0  0  0  0  0  0  0  0  0  0  0  0
   -6.8296    0.6230  -22.4076 C   0  0  0  0  0  0  0  0  0  0  0  0
   -6.2347   -2.2865  -21.0202 C   0  0  0  0  0  0  0  0  0  0  0  0
   -6.0497   -1.6461  -19.9371 O   0  0  0  0  0  0  0  0  0  0  0  0
   -7.0726   -1.7302  -22.0496 N   0  0  0  0  0  0  0  0  0  0  0  0
   -7.2133   -2.2298  -22.8861 H   0  0  0  0  0  0  0  0  0  0  0  0
   -5.5787   -3.6065  -21.2061 C   0  0  0  0  0  0  0  0  0  0  0  0
   -6.0784   -4.3205  -22.2648 O   0  0  0  0  0  0  0  0  0  0  0  0
   -5.8948   -5.9623  -21.9729 S   0  0  0  0  0  0  0  0  0  0  0  0
   -4.8013   -6.4782  -22.8614 O   0  0  0  0  0  0  0  0  0  0  0  0
   -5.5045   -6.2313  -20.5489 O   0  0  0  0  0  0  0  0  0  0  0  0
   -7.7057   -6.6624  -23.7473 C   0  0  0  0  0  0  0  0  0  0  0  0
   -7.3638   -6.8116  -22.3546 N   0  0  0  0  0  0  0  0  0  0  0  0
   -7.2388   -7.8023  -22.1470 H   0  0  0  0  0  0  0  0  0  0  0  0
 31 32  1  0  0  0
 32 28  1  0  0  0
 32 33  1  0  0  0
 28 29  2  0  0  0
 28 30  2  0  0  0
 28 27  1  0  0  0
 27 26  1  0  0  0
 26 22  1  0  0  0
 22 23  2  0  0  0
 22 24  1  0  0  0
 24 20  1  0  0  0
 24 25  1  0  0  0
 20 21  1  0  0  0
 20  1  1  0  0  0
  1  2  2  0  0  0
  2  3  1  0  0  0
  3  4  1  0  0  0
  3  5  2  0  0  0
  5  6  1  0  0  0
  6  8  1  0  0  0
  6  7  2  0  0  0
  8  9  2  0  0  0
  9 10  1  0  0  0
 10 11  2  0  0  0
 11 14  1  0  0  0
 11 12  1  0  0  0
 14 15  1  0  0  0
 14 16  2  0  0  0
 14 17  2  0  0  0
 15 18  1  0  0  0
 15 19  1  0  0  0
 12 13  2  0  0  0
 13  8  1  0  0  0
  7  1  1  0  0  0
M  END
> <minimizedAffinity>
-7.17109

> <CNNscore>
0.5621471405

> <CNNaffinity>
5.8356351852

> <CNN_VS>
3.2804856300

> <CNNaffinity_variance>
0.0575380698

$$$$



 33 34  0  0  0  0  0  0  0  0999 V2000
   -8.0638   -3.2559  -23.6525 C   0  0  0  0  0  0  0  0  0  0  0  0
   -8.6298   -4.3149  -24.3739 C   0  0  0  0  0  0  0  0  0  0  0  0
   -9.9222   -4.1840  -24.8871 C   0  0  0  0  0  0  0  0  0  0  0  0
  -10.6637   -5.4857  -25.7941 Cl  0  0  0  0  0  0  0  0  0  0  0  0
  -10.6693   -3.0388  -24.7079 C   0  0  0  0  0  0  0  0  0  0  0  0
  -10.1101   -1.9912  -23.9946 C   0  0  0  0  0  0  0  0  0  0  0  0
   -8.8349   -2.1061  -23.4818 C   0  0  0  0  0  0  0  0  0  0  0  0
  -10.8509   -0.7517  -23.7723 C   0  0  0  0  0  0  0  0  0  0  0  0
  -10.1190    0.4191  -23.5771 C   0  0  0  0  0  0  0  0  0  0  0  0
  -10.7289    1.6392  -23.3597 C   0  0  0  0  0  0  0  0  0  0  0  0
  -12.1067    1.7059  -23.3341 C   0  0  0  0  0  0  0  0  0  0  0  0
  -12.8426    0.5442  -23.5278 C   0  0  0  0  0  0  0  0  0  0  0  0
  -12.2218   -0.6838  -23.7466 C   0  0  0  0  0  0  0  0  0  0  0  0
  -12.9731    3.2049  -23.0648 S   0  0  0  0  0  0  0  0  0  0  0  0
  -14.3399    3.3171  -24.1384 N   0  0  0  0  0  0  0  0  0  0  0  0
  -12.0344    4.3368  -23.3275 O   0  0  0  0  0  0  0  0  0  0  0  0
  -13.4979    3.2775  -21.6597 O   0  0  0  0  0  0  0  0  0  0  0  0
  -14.0176    3.2708  -25.1050 H   0  0  0  0  0  0  0  0  0  0  0  0
  -14.8226    4.2021  -23.9829 H   0  0  0  0  0  0  0  0  0  0  0  0
   -6.6968   -3.3490  -23.0930 C   0  0  0  0  0  0  0  0  0  0  0  0
   -6.4367   -4.5932  -22.3269 C   0  0  0  0  0  0  0  0  0  0  0  0
   -5.5313   -1.1391  -22.8419 C   0  0  0  0  0  0  0  0  0  0  0  0
   -5.1513   -1.1977  -24.0542 O   0  0  0  0  0  0  0  0  0  0  0  0
   -6.3240   -2.2035  -22.2853 N   0  0  0  0  0  0  0  0  0  0  0  0
   -6.6163   -2.1536  -21.3465 H   0  0  0  0  0  0  0  0  0  0  0  0
   -5.1482    0.0343  -22.0152 C   0  0  0  0  0  0  0  0  0  0  0  0
   -4.3671   -0.2897  -20.9357 O   0  0  0  0  0  0  0  0  0  0  0  0
   -3.8626    1.1126  -20.1652 S   0  0  0  0  0  0  0  0  0  0  0  0
   -2.3649    1.1732  -20.2327 O   0  0  0  0  0  0  0  0  0  0  0  0
   -4.4097    2.3396  -20.8343 O   0  0  0  0  0  0  0  0  0  0  0  0
   -5.0945   -0.1009  -18.1832 C   0  0  0  0  0  0  0  0  0  0  0  0
   -4.3397    1.0879  -18.4929 N   0  0  0  0  0  0  0  0  0  0  0  0
   -3.5043    1.1132  -17.9082 H   0  0  0  0  0  0  0  0  0  0  0  0
 31 32  1  0  0  0
 32 28  1  0  0  0
 32 33  1  0  0  0
 28 29  2  0  0  0
 28 30  2  0  0  0
 28 27  1  0  0  0
 27 26  1  0  0  0
 26 22  1  0  0  0
 22 23  2  0  0  0
 22 24  1  0  0  0
 24 20  1  0  0  0
 24 25  1  0  0  0
 20 21  1  0  0  0
 20  1  1  0  0  0
  1  2  2  0  0  0
  2  3  1  0  0  0
  3  4  1  0  0  0
  3  5  2  0  0  0
  5  6  1  0  0  0
  6  8  1  0  0  0
  6  7  2  0  0  0
  8  9  2  0  0  0
  9 10  1  0  0  0
 10 11  2  0  0  0
 11 14  1  0  0  0
 11 12  1  0  0  0
 14 15  1  0  0  0
 14 16  2  0  0  0
 14 17  2  0  0  0
 15 18  1  0  0  0
 15 19  1  0  0  0
 12 13  2  0  0  0
 13  8  1  0  0  0
  7  1  1  0  0  0
M  END
> <minimizedAffinity>
-7.46179

> <CNNscore>
0.3255713880

> <CNNaffinity>
5.6839456558

> <CNN_VS>
1.8505300283

> <CNNaffinity_variance>
0.1327484399

$$$$



 33 34  0  0  0  0  0  0  0  0999 V2000
   -9.9433   -0.9917  -22.9890 C   0  0  0  0  0  0  0  0  0  0  0  0
  -10.9583   -1.8809  -22.6129 C   0  0  0  0  0  0  0  0  0  0  0  0
  -12.2917   -1.4705  -22.6805 C   0  0  0  0  0  0  0  0  0  0  0  0
  -13.5885   -2.5533  -22.2191 Cl  0  0  0  0  0  0  0  0  0  0  0  0
  -12.6494   -0.2092  -23.1083 C   0  0  0  0  0  0  0  0  0  0  0  0
  -11.6461    0.6705  -23.4803 C   0  0  0  0  0  0  0  0  0  0  0  0
  -10.3249    0.2793  -23.4188 C   0  0  0  0  0  0  0  0  0  0  0  0
  -11.9615    2.0198  -23.9433 C   0  0  0  0  0  0  0  0  0  0  0  0
  -13.2846    2.4496  -23.8470 C   0  0  0  0  0  0  0  0  0  0  0  0
  -13.6804    3.7074  -24.2581 C   0  0  0  0  0  0  0  0  0  0  0  0
  -12.7391    4.5696  -24.7816 C   0  0  0  0  0  0  0  0  0  0  0  0
  -11.4193    4.1490  -24.8807 C   0  0  0  0  0  0  0  0  0  0  0  0
  -11.0260    2.8789  -24.4644 C   0  0  0  0  0  0  0  0  0  0  0  0
  -13.1418    6.1839  -25.3313 S   0  0  0  0  0  0  0  0  0  0  0  0
  -11.6937    7.1190  -25.5803 N   0  0  0  0  0  0  0  0  0  0  0  0
  -13.9849    6.8338  -24.2834 O   0  0  0  0  0  0  0  0  0  0  0  0
  -13.8780    6.1384  -26.6394 O   0  0  0  0  0  0  0  0  0  0  0  0
  -11.1679    7.1701  -24.7078 H   0  0  0  0  0  0  0  0  0  0  0  0
  -11.9446    8.0606  -25.8816 H   0  0  0  0  0  0  0  0  0  0  0  0
   -8.5173   -1.3842  -22.9364 C   0  0  0  0  0  0  0  0  0  0  0  0
   -8.2836   -2.7603  -22.4320 C   0  0  0  0  0  0  0  0  0  0  0  0
   -6.6625    0.3063  -22.8523 C   0  0  0  0  0  0  0  0  0  0  0  0
   -6.4745    0.1676  -24.1024 O   0  0  0  0  0  0  0  0  0  0  0  0
   -7.6896   -0.4551  -22.1914 N   0  0  0  0  0  0  0  0  0  0  0  0
   -7.8318   -0.3440  -21.2236 H   0  0  0  0  0  0  0  0  0  0  0  0
   -5.8135    1.2577  -22.0900 C   0  0  0  0  0  0  0  0  0  0  0  0
   -6.3454    2.5189  -22.0072 O   0  0  0  0  0  0  0  0  0  0  0  0
   -5.5100    3.5503  -23.0333 S   0  0  0  0  0  0  0  0  0  0  0  0
   -4.2484    2.8627  -23.4658 O   0  0  0  0  0  0  0  0  0  0  0  0
   -6.3085    3.8755  -24.2619 O   0  0  0  0  0  0  0  0  0  0  0  0
   -5.9293    6.1110  -22.6032 C   0  0  0  0  0  0  0  0  0  0  0  0
   -5.0827    5.0158  -22.2000 N   0  0  0  0  0  0  0  0  0  0  0  0
   -5.1842    4.8691  -21.1957 H   0  0  0  0  0  0  0  0  0  0  0  0
 31 32  1  0  0  0
 32 28  1  0  0  0
 32 33  1  0  0  0
 28 29  2  0  0  0
 28 30  2  0  0  0
 28 27  1  0  0  0
 27 26  1  0  0  0
 26 22  1  0  0  0
 22 23  2  0  0  0
 22 24  1  0  0  0
 24 20  1  0  0  0
 24 25  1  0  0  0
 20 21  1  0  0  0
 20  1  1  0  0  0
  1  2  2  0  0  0
  2  3  1  0  0  0
  3  4  1  0  0  0
  3  5  2  0  0  0
  5  6  1  0  0  0
  6  8  1  0  0  0
  6  7  2  0  0  0
  8  9  2  0  0  0
  9 10  1  0  0  0
 10 11  2  0  0  0
 11 14  1  0  0  0
 11 12  1  0  0  0
 14 15  1  0  0  0
 14 16  2  0  0  0
 14 17  2  0  0  0
 15 18  1  0  0  0
 15 19  1  0  0  0
 12 13  2  0  0  0
 13  8  1  0  0  0
  7  1  1  0  0  0
M  END
> <minimizedAffinity>
-5.79420

> <CNNscore>
0.3024216294

> <CNNaffinity>
5.4542360306

> <CNN_VS>
1.6494789124

> <CNNaffinity_variance>
0.1477904916

$$$$



 33 34  0  0  0  0  0  0  0  0999 V2000
   -9.4764   -0.7409  -22.8762 C   0  0  0  0  0  0  0  0  0  0  0  0
  -10.3646   -1.7763  -22.5575 C   0  0  0  0  0  0  0  0  0  0  0  0
  -11.7398   -1.5635  -22.6771 C   0  0  0  0  0  0  0  0  0  0  0  0
  -12.8815   -2.8333  -22.2881 Cl  0  0  0  0  0  0  0  0  0  0  0  0
  -12.2609   -0.3594  -23.1016 C   0  0  0  0  0  0  0  0  0  0  0  0
  -11.3831    0.6649  -23.4169 C   0  0  0  0  0  0  0  0  0  0  0  0
  -10.0224    0.4694  -23.3037 C   0  0  0  0  0  0  0  0  0  0  0  0
  -11.8737    1.9630  -23.8736 C   0  0  0  0  0  0  0  0  0  0  0  0
  -10.9443    2.8683  -24.3846 C   0  0  0  0  0  0  0  0  0  0  0  0
  -11.3112    4.1193  -24.8409 C   0  0  0  0  0  0  0  0  0  0  0  0
  -12.6394    4.4890  -24.7912 C   0  0  0  0  0  0  0  0  0  0  0  0
  -13.5712    3.5929  -24.2836 C   0  0  0  0  0  0  0  0  0  0  0  0
  -13.1950    2.3323  -23.8248 C   0  0  0  0  0  0  0  0  0  0  0  0
  -13.2040    6.0527  -25.3444 S   0  0  0  0  0  0  0  0  0  0  0  0
  -14.3262    6.7327  -24.1991 N   0  0  0  0  0  0  0  0  0  0  0  0
  -13.8844    5.8612  -26.6603 O   0  0  0  0  0  0  0  0  0  0  0  0
  -12.0624    7.0184  -25.4828 O   0  0  0  0  0  0  0  0  0  0  0  0
  -15.1171    6.0995  -24.0811 H   0  0  0  0  0  0  0  0  0  0  0  0
  -14.6599    7.6329  -24.5434 H   0  0  0  0  0  0  0  0  0  0  0  0
   -8.0116   -0.9222  -22.7674 C   0  0  0  0  0  0  0  0  0  0  0  0
   -7.6018   -2.2185  -22.1725 C   0  0  0  0  0  0  0  0  0  0  0  0
   -6.6011    1.1552  -22.7861 C   0  0  0  0  0  0  0  0  0  0  0  0
   -6.5216    1.0941  -24.0540 O   0  0  0  0  0  0  0  0  0  0  0  0
   -7.3466    0.1580  -22.0642 N   0  0  0  0  0  0  0  0  0  0  0  0
   -7.4058    0.2095  -21.0829 H   0  0  0  0  0  0  0  0  0  0  0  0
   -5.9188    2.2616  -22.0667 C   0  0  0  0  0  0  0  0  0  0  0  0
   -5.2654    1.8543  -20.9320 O   0  0  0  0  0  0  0  0  0  0  0  0
   -3.8446    1.0677  -21.3526 S   0  0  0  0  0  0  0  0  0  0  0  0
   -2.9302    1.0809  -20.1631 O   0  0  0  0  0  0  0  0  0  0  0  0
   -4.0950   -0.3625  -21.7326 O   0  0  0  0  0  0  0  0  0  0  0  0
   -3.0126    1.0796  -23.8478 C   0  0  0  0  0  0  0  0  0  0  0  0
   -3.0589    1.8993  -22.6626 N   0  0  0  0  0  0  0  0  0  0  0  0
   -3.5738    2.7550  -22.8698 H   0  0  0  0  0  0  0  0  0  0  0  0
 31 32  1  0  0  0
 32 28  1  0  0  0
 32 33  1  0  0  0
 28 29  2  0  0  0
 28 30  2  0  0  0
 28 27  1  0  0  0
 27 26  1  0  0  0
 26 22  1  0  0  0
 22 23  2  0  0  0
 22 24  1  0  0  0
 24 20  1  0  0  0
 24 25  1  0  0  0
 20 21  1  0  0  0
 20  1  1  0  0  0
  1  2  2  0  0  0
  2  3  1  0  0  0
  3  4  1  0  0  0
  3  5  2  0  0  0
  5  6  1  0  0  0
  6  8  1  0  0  0
  6  7  2  0  0  0
  8  9  2  0  0  0
  9 10  1  0  0  0
 10 11  2  0  0  0
 11 14  1  0  0  0
 11 12  1  0  0  0
 14 15  1  0  0  0
 14 16  2  0  0  0
 14 17  2  0  0  0
 15 18  1  0  0  0
 15 19  1  0  0  0
 12 13  2  0  0  0
 13  8  1  0  0  0
  7  1  1  0  0  0
M  END
> <minimizedAffinity>
-6.24998

> <CNNscore>
0.2565990984

> <CNNaffinity>
5.5121273994

> <CNN_VS>
1.4144068956

> <CNNaffinity_variance>
0.0777520761

$$$$



 33 34  0  0  0  0  0  0  0  0999 V2000
   -9.6091   -3.5413  -24.6559 C   0  0  0  0  0  0  0  0  0  0  0  0
  -10.9046   -3.4959  -24.1250 C   0  0  0  0  0  0  0  0  0  0  0  0
  -11.1558   -2.7213  -22.9902 C   0  0  0  0  0  0  0  0  0  0  0  0
  -12.7621   -2.6391  -22.2973 Cl  0  0  0  0  0  0  0  0  0  0  0  0
  -10.1652   -1.9921  -22.3668 C   0  0  0  0  0  0  0  0  0  0  0  0
   -8.8839   -2.0366  -22.8913 C   0  0  0  0  0  0  0  0  0  0  0  0
   -8.6208   -2.7972  -24.0115 C   0  0  0  0  0  0  0  0  0  0  0  0
   -7.7922   -1.2850  -22.2766 C   0  0  0  0  0  0  0  0  0  0  0  0
   -6.6618   -1.0261  -23.0511 C   0  0  0  0  0  0  0  0  0  0  0  0
   -5.5791   -0.3237  -22.5590 C   0  0  0  0  0  0  0  0  0  0  0  0
   -5.6132    0.1385  -21.2596 C   0  0  0  0  0  0  0  0  0  0  0  0
   -6.7356   -0.1152  -20.4819 C   0  0  0  0  0  0  0  0  0  0  0  0
   -7.8248   -0.8243  -20.9838 C   0  0  0  0  0  0  0  0  0  0  0  0
   -4.2905    1.0376  -20.5438 S   0  0  0  0  0  0  0  0  0  0  0  0
   -4.3480    0.9219  -18.8069 N   0  0  0  0  0  0  0  0  0  0  0  0
   -4.4246    2.4670  -20.9562 O   0  0  0  0  0  0  0  0  0  0  0  0
   -2.9651    0.4885  -20.9873 O   0  0  0  0  0  0  0  0  0  0  0  0
   -5.2388    1.2879  -18.4711 H   0  0  0  0  0  0  0  0  0  0  0  0
   -3.5840    1.4648  -18.4046 H   0  0  0  0  0  0  0  0  0  0  0  0
   -9.2975   -4.3459  -25.8584 C   0  0  0  0  0  0  0  0  0  0  0  0
  -10.2196   -5.4870  -26.0822 C   0  0  0  0  0  0  0  0  0  0  0  0
   -7.0156   -4.3596  -26.9063 C   0  0  0  0  0  0  0  0  0  0  0  0
   -7.4076   -3.5220  -27.7793 O   0  0  0  0  0  0  0  0  0  0  0  0
   -7.9285   -4.8234  -25.8949 N   0  0  0  0  0  0  0  0  0  0  0  0
   -7.6205   -5.4715  -25.2209 H   0  0  0  0  0  0  0  0  0  0  0  0
   -5.6133   -4.8487  -26.9452 C   0  0  0  0  0  0  0  0  0  0  0  0
   -5.2980   -5.5115  -28.1035 O   0  0  0  0  0  0  0  0  0  0  0  0
   -5.5697   -7.1549  -27.9031 S   0  0  0  0  0  0  0  0  0  0  0  0
   -4.2553   -7.8674  -28.0296 O   0  0  0  0  0  0  0  0  0  0  0  0
   -6.1377   -7.4610  -26.5480 O   0  0  0  0  0  0  0  0  0  0  0  0
   -7.9299   -7.1069  -29.0629 C   0  0  0  0  0  0  0  0  0  0  0  0
   -6.6396   -7.7455  -29.1406 N   0  0  0  0  0  0  0  0  0  0  0  0
   -6.2286   -7.5550  -30.0544 H   0  0  0  0  0  0  0  0  0  0  0  0
 31 32  1  0  0  0
 32 28  1  0  0  0
 32 33  1  0  0  0
 28 29  2  0  0  0
 28 30  2  0  0  0
 28 27  1  0  0  0
 27 26  1  0  0  0
 26 22  1  0  0  0
 22 23  2  0  0  0
 22 24  1  0  0  0
 24 20  1  0  0  0
 24 25  1  0  0  0
 20 21  1  0  0  0
 20  1  1  0  0  0
  1  2  2  0  0  0
  2  3  1  0  0  0
  3  4  1  0  0  0
  3  5  2  0  0  0
  5  6  1  0  0  0
  6  8  1  0  0  0
  6  7  2  0  0  0
  8  9  2  0  0  0
  9 10  1  0  0  0
 10 11  2  0  0  0
 11 14  1  0  0  0
 11 12  1  0  0  0
 14 15  1  0  0  0
 14 16  2  0  0  0
 14 17  2  0  0  0
 15 18  1  0  0  0
 15 19  1  0  0  0
 12 13  2  0  0  0
 13  8  1  0  0  0
  7  1  1  0  0  0
M  END
> <minimizedAffinity>
-6.60284

> <CNNscore>
0.2511985600

> <CNNaffinity>
5.2045984268

> <CNN_VS>
1.3073875904

> <CNNaffinity_variance>
0.2257810384

$$$$



 33 34  0  0  0  0  0  0  0  0999 V2000
   -5.0973    3.7380  -23.8141 C   0  0  0  0  0  0  0  0  0  0  0  0
   -4.5877    5.0282  -23.6197 C   0  0  0  0  0  0  0  0  0  0  0  0
   -5.4700    6.1022  -23.4809 C   0  0  0  0  0  0  0  0  0  0  0  0
   -4.8712    7.7296  -23.2364 Cl  0  0  0  0  0  0  0  0  0  0  0  0
   -6.8383    5.9373  -23.5286 C   0  0  0  0  0  0  0  0  0  0  0  0
   -7.3428    4.6616  -23.7208 C   0  0  0  0  0  0  0  0  0  0  0  0
   -6.4838    3.5914  -23.8596 C   0  0  0  0  0  0  0  0  0  0  0  0
   -8.7829    4.4224  -23.7792 C   0  0  0  0  0  0  0  0  0  0  0  0
   -9.6328    5.4761  -23.4448 C   0  0  0  0  0  0  0  0  0  0  0  0
  -11.0079    5.3474  -23.4699 C   0  0  0  0  0  0  0  0  0  0  0  0
  -11.5623    4.1387  -23.8373 C   0  0  0  0  0  0  0  0  0  0  0  0
  -10.7224    3.0845  -24.1718 C   0  0  0  0  0  0  0  0  0  0  0  0
   -9.3360    3.2203  -24.1446 C   0  0  0  0  0  0  0  0  0  0  0  0
  -13.2935    3.8756  -23.8991 S   0  0  0  0  0  0  0  0  0  0  0  0
  -13.6629    2.1980  -23.6117 N   0  0  0  0  0  0  0  0  0  0  0  0
  -13.7743    4.2698  -25.2572 O   0  0  0  0  0  0  0  0  0  0  0  0
  -13.9973    4.6782  -22.8429 O   0  0  0  0  0  0  0  0  0  0  0  0
  -13.1987    1.6225  -24.3143 H   0  0  0  0  0  0  0  0  0  0  0  0
  -14.6715    2.0573  -23.6693 H   0  0  0  0  0  0  0  0  0  0  0  0
   -4.2004    2.5701  -23.9630 C   0  0  0  0  0  0  0  0  0  0  0  0
   -4.0413    2.1002  -25.3617 C   0  0  0  0  0  0  0  0  0  0  0  0
   -4.0110    1.3066  -21.8014 C   0  0  0  0  0  0  0  0  0  0  0  0
   -3.1876    2.1714  -21.3639 O   0  0  0  0  0  0  0  0  0  0  0  0
   -4.5682    1.4482  -23.1208 N   0  0  0  0  0  0  0  0  0  0  0  0
   -5.2057    0.7766  -23.4550 H   0  0  0  0  0  0  0  0  0  0  0  0
   -4.3865    0.1573  -20.9380 C   0  0  0  0  0  0  0  0  0  0  0  0
   -4.3327    0.4408  -19.5974 O   0  0  0  0  0  0  0  0  0  0  0  0
   -5.6025   -0.3218  -18.8098 S   0  0  0  0  0  0  0  0  0  0  0  0
   -5.7970    0.3429  -17.4787 O   0  0  0  0  0  0  0  0  0  0  0  0
   -6.8841   -0.2034  -19.5819 O   0  0  0  0  0  0  0  0  0  0  0  0
   -6.3190   -2.8491  -18.9422 C   0  0  0  0  0  0  0  0  0  0  0  0
   -5.2265   -1.9984  -18.5404 N   0  0  0  0  0  0  0  0  0  0  0  0
   -4.3972   -2.2443  -19.0808 H   0  0  0  0  0  0  0  0  0  0  0  0
 31 32  1  0  0  0
 32 28  1  0  0  0
 32 33  1  0  0  0
 28 29  2  0  0  0
 28 30  2  0  0  0
 28 27  1  0  0  0
 27 26  1  0  0  0
 26 22  1  0  0  0
 22 23  2  0  0  0
 22 24  1  0  0  0
 24 20  1  0  0  0
 24 25  1  0  0  0
 20 21  1  0  0  0
 20  1  1  0  0  0
  1  2  2  0  0  0
  2  3  1  0  0  0
  3  4  1  0  0  0
  3  5  2  0  0  0
  5  6  1  0  0  0
  6  8  1  0  0  0
  6  7  2  0  0  0
  8  9  2  0  0  0
  9 10  1  0  0  0
 10 11  2  0  0  0
 11 14  1  0  0  0
 11 12  1  0  0  0
 14 15  1  0  0  0
 14 16  2  0  0  0
 14 17  2  0  0  0
 15 18  1  0  0  0
 15 19  1  0  0  0
 12 13  2  0  0  0
 13  8  1  0  0  0
  7  1  1  0  0  0
M  END
> <minimizedAffinity>
-5.63828

> <CNNscore>
0.2484333813

> <CNNaffinity>
5.3429212570

> <CNN_VS>
1.3273600340

> <CNNaffinity_variance>
0.2950533032

$$$$



 42 47  0  0  0  0  0  0  0  0999 V2000
   -9.3562    2.3109  -24.7744 N   0  0  0  0  0  0  0  0  0  0  0  0
   -8.7667    1.0394  -25.1245 C   0  0  0  0  0  0  0  0  0  0  0  0
   -8.9735    0.0706  -23.9818 C   0  0  0  0  0  0  0  0  0  0  0  0
   -8.3282    0.6569  -22.7415 C   0  0  0  0  0  0  0  0  0  0  0  0
   -8.6719    1.7365  -22.1581 O   0  0  0  0  0  0  0  0  0  0  0  0
   -7.2629   -0.2018  -22.3271 N   0  0  0  0  0  0  0  0  0  0  0  0
   -6.8228   -0.8429  -23.5750 C   0  0  0  0  0  0  0  0  0  0  0  0
   -8.2143   -1.1891  -24.1351 C   0  0  0  0  0  0  0  0  0  0  0  0
  -10.4028   -0.0376  -23.7011 C   0  0  0  0  0  0  0  0  0  0  0  0
  -11.0129   -1.1758  -23.1889 C   0  0  0  0  0  0  0  0  0  0  0  0
  -12.3783   -1.2223  -22.9195 C   0  0  0  0  0  0  0  0  0  0  0  0
  -13.1039   -2.7012  -22.2667 Cl  0  0  0  0  0  0  0  0  0  0  0  0
  -13.2019   -0.1407  -23.1464 C   0  0  0  0  0  0  0  0  0  0  0  0
  -12.6079    0.9938  -23.6547 C   0  0  0  0  0  0  0  0  0  0  0  0
  -11.2682    1.0388  -23.9192 C   0  0  0  0  0  0  0  0  0  0  0  0
  -10.7559    2.3059  -24.4854 C   0  0  0  0  0  0  0  0  0  0  0  0
  -11.4990    3.2964  -24.6931 O   0  0  0  0  0  0  0  0  0  0  0  0
   -6.7627   -0.3767  -21.0132 C   0  0  0  0  0  0  0  0  0  0  0  0
   -7.4427   -1.2507  -20.1534 C   0  0  0  0  0  0  0  0  0  0  0  0
   -6.9893   -1.4352  -18.8971 N   0  0  0  0  0  0  0  0  0  0  0  0
   -5.8764   -0.7783  -18.4604 C   0  0  0  0  0  0  0  0  0  0  0  0
   -5.1871    0.0911  -19.2931 C   0  0  0  0  0  0  0  0  0  0  0  0
   -4.0484    0.7465  -18.8153 C   0  0  0  0  0  0  0  0  0  0  0  0
   -3.3995    1.6028  -19.6990 C   0  0  0  0  0  0  0  0  0  0  0  0
   -3.8502    1.8053  -20.9938 C   0  0  0  0  0  0  0  0  0  0  0  0
   -4.9580    1.1618  -21.4443 C   0  0  0  0  0  0  0  0  0  0  0  0
   -5.6413    0.2910  -20.5877 C   0  0  0  0  0  0  0  0  0  0  0  0
   -8.6268    3.5584  -24.7100 C   0  0  0  0  0  0  0  0  0  0  0  0
   -4.8333    2.8561  -24.6785 C   0  0  0  0  0  0  0  0  0  0  0  0
   -6.2225    3.0243  -24.2268 N   0  0  0  0  0  0  0  0  0  0  0  0
   -7.2163    3.3864  -25.1814 C   0  0  0  0  0  0  0  0  0  0  0  0
   -6.9224    3.5624  -26.4062 O   0  0  0  0  0  0  0  0  0  0  0  0
   -6.4617    2.8892  -23.2814 H   0  0  0  0  0  0  0  0  0  0  0  0
   -8.1378   -1.7528  -25.5212 C   0  0  0  0  0  0  0  0  0  0  0  0
   -8.8041   -3.0263  -25.6727 N   0  0  0  0  0  0  0  0  0  0  0  0
   -9.7301   -3.0480  -26.0063 H   0  0  0  0  0  0  0  0  0  0  0  0
   -8.1531   -4.2481  -25.3510 C   0  0  0  0  0  0  0  0  0  0  0  0
   -7.1762   -4.7326  -26.1595 C   0  0  0  0  0  0  0  0  0  0  0  0
   -6.4915   -5.9218  -25.9078 C   0  0  0  0  0  0  0  0  0  0  0  0
   -6.8485   -6.6046  -24.7842 N   0  0  0  0  0  0  0  0  0  0  0  0
   -7.8145   -6.1316  -23.9787 C   0  0  0  0  0  0  0  0  0  0  0  0
   -8.4656   -4.9708  -24.2469 N   0  0  0  0  0  0  0  0  0  0  0  0
 29 30  1  0  0  0
 30 31  1  0  0  0
 30 33  1  0  0  0
 31 32  2  0  0  0
 31 28  1  0  0  0
 28  1  1  0  0  0
  1  2  1  0  0  0
  3  2  1  0  0  0
  3  4  1  0  0  0
  3  9  1  0  0  0
  4  5  2  0  0  0
  4  6  1  0  0  0
  6 18  1  0  0  0
  6  7  1  0  0  0
 18 19  2  0  0  0
 19 20  1  0  0  0
 20 21  2  0  0  0
 21 22  1  0  0  0
 22 23  2  0  0  0
 23 24  1  0  0  0
 24 25  2  0  0  0
 25 26  1  0  0  0
 26 27  2  0  0  0
 27 18  1  0  0  0
 27 22  1  0  0  0
  7  8  1  0  0  0
  8 34  1  0  0  0
  8  3  1  0  0  0
 34 35  1  0  0  0
 35 37  1  0  0  0
 35 36  1  0  0  0
 37 38  2  0  0  0
 38 39  1  0  0  0
 39 40  2  0  0  0
 40 41  1  0  0  0
 41 42  2  0  0  0
 42 37  1  0  0  0
  9 10  2  0  0  0
 10 11  1  0  0  0
 11 12  1  0  0  0
 11 13  2  0  0  0
 13 14  1  0  0  0
 14 15  2  0  0  0
 15 16  1  0  0  0
 15  9  1  0  0  0
 16 17  2  0  0  0
 16  1  1  0  0  0
M  END
> <minimizedAffinity>
-8.37129

> <CNNscore>
0.1714861989

> <CNNaffinity>
6.4572629929

> <CNN_VS>
1.1073315144

> <CNNaffinity_variance>
0.2126826346

$$$$



 42 47  0  0  0  0  0  0  0  0999 V2000
   -6.9851   -1.7762  -22.0621 N   0  0  0  0  0  0  0  0  0  0  0  0
   -6.9567   -1.3733  -23.4491 C   0  0  0  0  0  0  0  0  0  0  0  0
   -7.2602    0.1056  -23.5375 C   0  0  0  0  0  0  0  0  0  0  0  0
   -8.6232    0.3470  -22.9190 C   0  0  0  0  0  0  0  0  0  0  0  0
   -8.9382    0.1468  -21.7005 O   0  0  0  0  0  0  0  0  0  0  0  0
   -9.5067    0.8390  -23.9296 N   0  0  0  0  0  0  0  0  0  0  0  0
   -8.9693    0.2690  -25.1738 C   0  0  0  0  0  0  0  0  0  0  0  0
   -7.4824    0.5778  -24.9211 C   0  0  0  0  0  0  0  0  0  0  0  0
   -6.2937    0.8401  -22.7253 C   0  0  0  0  0  0  0  0  0  0  0  0
   -5.8740    2.1368  -22.9949 C   0  0  0  0  0  0  0  0  0  0  0  0
   -4.9640    2.8020  -22.1774 C   0  0  0  0  0  0  0  0  0  0  0  0
   -4.4633    4.4559  -22.5694 Cl  0  0  0  0  0  0  0  0  0  0  0  0
   -4.4277    2.2105  -21.0539 C   0  0  0  0  0  0  0  0  0  0  0  0
   -4.8363    0.9243  -20.7766 C   0  0  0  0  0  0  0  0  0  0  0  0
   -5.7290    0.2719  -21.5792 C   0  0  0  0  0  0  0  0  0  0  0  0
   -6.0691   -1.1136  -21.1876 C   0  0  0  0  0  0  0  0  0  0  0  0
   -5.5866   -1.6588  -20.1647 O   0  0  0  0  0  0  0  0  0  0  0  0
  -10.6338    1.6782  -23.7501 C   0  0  0  0  0  0  0  0  0  0  0  0
  -11.8685    1.0808  -23.4597 C   0  0  0  0  0  0  0  0  0  0  0  0
  -12.9580    1.8556  -23.2850 N   0  0  0  0  0  0  0  0  0  0  0  0
  -12.8653    3.2125  -23.3890 C   0  0  0  0  0  0  0  0  0  0  0  0
  -11.6544    3.8260  -23.6754 C   0  0  0  0  0  0  0  0  0  0  0  0
  -11.5930    5.2193  -23.7723 C   0  0  0  0  0  0  0  0  0  0  0  0
  -10.3501    5.7747  -24.0585 C   0  0  0  0  0  0  0  0  0  0  0  0
   -9.2191    4.9951  -24.2412 C   0  0  0  0  0  0  0  0  0  0  0  0
   -9.2937    3.6426  -24.1441 C   0  0  0  0  0  0  0  0  0  0  0  0
  -10.5252    3.0425  -23.8575 C   0  0  0  0  0  0  0  0  0  0  0  0
   -7.8623   -2.7935  -21.5257 C   0  0  0  0  0  0  0  0  0  0  0  0
  -11.2881   -2.9613  -23.2921 C   0  0  0  0  0  0  0  0  0  0  0  0
  -10.2306   -2.6044  -22.3349 N   0  0  0  0  0  0  0  0  0  0  0  0
   -8.9305   -3.1609  -22.5082 C   0  0  0  0  0  0  0  0  0  0  0  0
   -8.6738   -3.9522  -23.4701 O   0  0  0  0  0  0  0  0  0  0  0  0
  -10.4176   -1.9917  -21.5873 H   0  0  0  0  0  0  0  0  0  0  0  0
   -6.5981   -0.0162  -25.9747 C   0  0  0  0  0  0  0  0  0  0  0  0
   -7.3163   -0.7200  -27.0129 N   0  0  0  0  0  0  0  0  0  0  0  0
   -7.7192   -0.2079  -27.7509 H   0  0  0  0  0  0  0  0  0  0  0  0
   -7.4541   -2.1344  -26.9927 C   0  0  0  0  0  0  0  0  0  0  0  0
   -6.3585   -2.9234  -26.8514 C   0  0  0  0  0  0  0  0  0  0  0  0
   -6.4154   -4.3170  -26.8201 C   0  0  0  0  0  0  0  0  0  0  0  0
   -7.6505   -4.8794  -26.9403 N   0  0  0  0  0  0  0  0  0  0  0  0
   -8.7399   -4.1053  -27.0804 C   0  0  0  0  0  0  0  0  0  0  0  0
   -8.6566   -2.7505  -27.1079 N   0  0  0  0  0  0  0  0  0  0  0  0
 29 30  1  0  0  0
 30 31  1  0  0  0
 30 33  1  0  0  0
 31 32  2  0  0  0
 31 28  1  0  0  0
 28  1  1  0  0  0
  1  2  1  0  0  0
  3  2  1  0  0  0
  3  4  1  0  0  0
  3  9  1  0  0  0
  4  5  2  0  0  0
  4  6  1  0  0  0
  6 18  1  0  0  0
  6  7  1  0  0  0
 18 19  2  0  0  0
 19 20  1  0  0  0
 20 21  2  0  0  0
 21 22  1  0  0  0
 22 23  2  0  0  0
 23 24  1  0  0  0
 24 25  2  0  0  0
 25 26  1  0  0  0
 26 27  2  0  0  0
 27 18  1  0  0  0
 27 22  1  0  0  0
  7  8  1  0  0  0
  8 34  1  0  0  0
  8  3  1  0  0  0
 34 35  1  0  0  0
 35 37  1  0  0  0
 35 36  1  0  0  0
 37 38  2  0  0  0
 38 39  1  0  0  0
 39 40  2  0  0  0
 40 41  1  0  0  0
 41 42  2  0  0  0
 42 37  1  0  0  0
  9 10  2  0  0  0
 10 11  1  0  0  0
 11 12  1  0  0  0
 11 13  2  0  0  0
 13 14  1  0  0  0
 14 15  2  0  0  0
 15 16  1  0  0  0
 15  9  1  0  0  0
 16 17  2  0  0  0
 16  1  1  0  0  0
M  END
> <minimizedAffinity>
-7.33068

> <CNNscore>
0.1690466404

> <CNNaffinity>
6.0594935417

> <CNN_VS>
1.0243370533

> <CNNaffinity_variance>
0.1613607854

$$$$



 42 47  0  0  0  0  0  0  0  0999 V2000
   -7.4599   -1.6801  -21.4693 N   0  0  0  0  0  0  0  0  0  0  0  0
   -6.7973   -1.4226  -22.7269 C   0  0  0  0  0  0  0  0  0  0  0  0
   -6.4656    0.0503  -22.8149 C   0  0  0  0  0  0  0  0  0  0  0  0
   -7.7582    0.8343  -22.6998 C   0  0  0  0  0  0  0  0  0  0  0  0
   -8.5305    0.8596  -21.6864 O   0  0  0  0  0  0  0  0  0  0  0  0
   -7.9747    1.5468  -23.9202 N   0  0  0  0  0  0  0  0  0  0  0  0
   -7.2949    0.7249  -24.9322 C   0  0  0  0  0  0  0  0  0  0  0  0
   -5.9926    0.4668  -24.1527 C   0  0  0  0  0  0  0  0  0  0  0  0
   -5.6436    0.4235  -21.6667 C   0  0  0  0  0  0  0  0  0  0  0  0
   -4.6982    1.4414  -21.6824 C   0  0  0  0  0  0  0  0  0  0  0  0
   -3.9527    1.7724  -20.5539 C   0  0  0  0  0  0  0  0  0  0  0  0
   -2.7596    3.0802  -20.6309 Cl  0  0  0  0  0  0  0  0  0  0  0  0
   -4.1109    1.1077  -19.3568 C   0  0  0  0  0  0  0  0  0  0  0  0
   -5.0456    0.0959  -19.3293 C   0  0  0  0  0  0  0  0  0  0  0  0
   -5.7765   -0.2287  -20.4371 C   0  0  0  0  0  0  0  0  0  0  0  0
   -6.7302   -1.3496  -20.2856 C   0  0  0  0  0  0  0  0  0  0  0  0
   -6.8817   -1.9587  -19.1982 O   0  0  0  0  0  0  0  0  0  0  0  0
   -8.6849    2.7607  -24.0913 C   0  0  0  0  0  0  0  0  0  0  0  0
   -9.9099    2.7243  -24.7721 C   0  0  0  0  0  0  0  0  0  0  0  0
  -10.6065    3.8649  -24.9501 N   0  0  0  0  0  0  0  0  0  0  0  0
  -10.1269    5.0494  -24.4729 C   0  0  0  0  0  0  0  0  0  0  0  0
   -8.9175    5.1099  -23.7961 C   0  0  0  0  0  0  0  0  0  0  0  0
   -8.4558    6.3395  -23.3172 C   0  0  0  0  0  0  0  0  0  0  0  0
   -7.2383    6.3342  -22.6443 C   0  0  0  0  0  0  0  0  0  0  0  0
   -6.5080    5.1723  -22.4513 C   0  0  0  0  0  0  0  0  0  0  0  0
   -6.9689    3.9848  -22.9222 C   0  0  0  0  0  0  0  0  0  0  0  0
   -8.1899    3.9453  -23.6051 C   0  0  0  0  0  0  0  0  0  0  0  0
   -8.7848   -2.2473  -21.3462 C   0  0  0  0  0  0  0  0  0  0  0  0
   -9.7125   -4.1149  -24.5921 C   0  0  0  0  0  0  0  0  0  0  0  0
   -9.1391   -3.8187  -23.2709 N   0  0  0  0  0  0  0  0  0  0  0  0
   -9.3762   -2.5395  -22.6901 C   0  0  0  0  0  0  0  0  0  0  0  0
  -10.0711   -1.6600  -23.2910 O   0  0  0  0  0  0  0  0  0  0  0  0
   -8.6008   -4.4924  -22.7960 H   0  0  0  0  0  0  0  0  0  0  0  0
   -5.0915   -0.4942  -24.8664 C   0  0  0  0  0  0  0  0  0  0  0  0
   -4.0359    0.1431  -25.6201 N   0  0  0  0  0  0  0  0  0  0  0  0
   -3.9867    0.0016  -26.5932 H   0  0  0  0  0  0  0  0  0  0  0  0
   -3.0671    0.9694  -24.9888 C   0  0  0  0  0  0  0  0  0  0  0  0
   -2.2013    0.4377  -24.0885 C   0  0  0  0  0  0  0  0  0  0  0  0
   -1.2230    1.1845  -23.4313 C   0  0  0  0  0  0  0  0  0  0  0  0
   -1.1636    2.5115  -23.7338 N   0  0  0  0  0  0  0  0  0  0  0  0
   -2.0171    3.0455  -24.6239 C   0  0  0  0  0  0  0  0  0  0  0  0
   -2.9604    2.2959  -25.2496 N   0  0  0  0  0  0  0  0  0  0  0  0
 29 30  1  0  0  0
 30 31  1  0  0  0
 30 33  1  0  0  0
 31 32  2  0  0  0
 31 28  1  0  0  0
 28  1  1  0  0  0
  1  2  1  0  0  0
  3  2  1  0  0  0
  3  4  1  0  0  0
  3  9  1  0  0  0
  4  5  2  0  0  0
  4  6  1  0  0  0
  6 18  1  0  0  0
  6  7  1  0  0  0
 18 19  2  0  0  0
 19 20  1  0  0  0
 20 21  2  0  0  0
 21 22  1  0  0  0
 22 23  2  0  0  0
 23 24  1  0  0  0
 24 25  2  0  0  0
 25 26  1  0  0  0
 26 27  2  0  0  0
 27 18  1  0  0  0
 27 22  1  0  0  0
  7  8  1  0  0  0
  8 34  1  0  0  0
  8  3  1  0  0  0
 34 35  1  0  0  0
 35 37  1  0  0  0
 35 36  1  0  0  0
 37 38  2  0  0  0
 38 39  1  0  0  0
 39 40  2  0  0  0
 40 41  1  0  0  0
 41 42  2  0  0  0
 42 37  1  0  0  0
  9 10  2  0  0  0
 10 11  1  0  0  0
 11 12  1  0  0  0
 11 13  2  0  0  0
 13 14  1  0  0  0
 14 15  2  0  0  0
 15 16  1  0  0  0
 15  9  1  0  0  0
 16 17  2  0  0  0
 16  1  1  0  0  0
M  END
> <minimizedAffinity>
-6.91614

> <CNNscore>
0.1647078246

> <CNNaffinity>
6.0482454300

> <CNN_VS>
0.9961933494

> <CNNaffinity_variance>
0.0724308416

$$$$



 42 47  0  0  0  0  0  0  0  0999 V2000
   -5.6703   -1.3330  -21.9632 N   0  0  0  0  0  0  0  0  0  0  0  0
   -6.0341   -1.9032  -23.2397 C   0  0  0  0  0  0  0  0  0  0  0  0
   -7.1274   -1.0623  -23.8599 C   0  0  0  0  0  0  0  0  0  0  0  0
   -8.3065   -1.0413  -22.9071 C   0  0  0  0  0  0  0  0  0  0  0  0
   -8.3109   -0.5471  -21.7325 O   0  0  0  0  0  0  0  0  0  0  0  0
   -9.4226   -1.6701  -23.5419 N   0  0  0  0  0  0  0  0  0  0  0  0
   -8.8045   -2.6217  -24.4770 C   0  0  0  0  0  0  0  0  0  0  0  0
   -7.7347   -1.6798  -25.0585 C   0  0  0  0  0  0  0  0  0  0  0  0
   -6.6590    0.3160  -23.9799 C   0  0  0  0  0  0  0  0  0  0  0  0
   -7.0793    1.1994  -24.9663 C   0  0  0  0  0  0  0  0  0  0  0  0
   -6.6172    2.5116  -25.0261 C   0  0  0  0  0  0  0  0  0  0  0  0
   -7.1870    3.5953  -26.3069 Cl  0  0  0  0  0  0  0  0  0  0  0  0
   -5.7158    3.0080  -24.1091 C   0  0  0  0  0  0  0  0  0  0  0  0
   -5.2915    2.1407  -23.1262 C   0  0  0  0  0  0  0  0  0  0  0  0
   -5.7449    0.8532  -23.0683 C   0  0  0  0  0  0  0  0  0  0  0  0
   -5.1954    0.0150  -21.9800 C   0  0  0  0  0  0  0  0  0  0  0  0
   -4.3757    0.4601  -21.1396 O   0  0  0  0  0  0  0  0  0  0  0  0
  -10.7971   -1.4199  -23.3069 C   0  0  0  0  0  0  0  0  0  0  0  0
  -11.6011   -2.4817  -22.8691 C   0  0  0  0  0  0  0  0  0  0  0  0
  -12.9129   -2.2721  -22.6386 N   0  0  0  0  0  0  0  0  0  0  0  0
  -13.4594   -1.0367  -22.8285 C   0  0  0  0  0  0  0  0  0  0  0  0
  -12.6835    0.0289  -23.2609 C   0  0  0  0  0  0  0  0  0  0  0  0
  -13.2742    1.2830  -23.4428 C   0  0  0  0  0  0  0  0  0  0  0  0
  -12.4432    2.3116  -23.8748 C   0  0  0  0  0  0  0  0  0  0  0  0
  -11.0928    2.1157  -24.1168 C   0  0  0  0  0  0  0  0  0  0  0  0
  -10.5328    0.8919  -23.9358 C   0  0  0  0  0  0  0  0  0  0  0  0
  -11.3330   -0.1712  -23.5020 C   0  0  0  0  0  0  0  0  0  0  0  0
   -5.7512   -2.0370  -20.7022 C   0  0  0  0  0  0  0  0  0  0  0  0
   -5.3230    0.2058  -17.5923 C   0  0  0  0  0  0  0  0  0  0  0  0
   -5.0188   -0.7105  -18.7014 N   0  0  0  0  0  0  0  0  0  0  0  0
   -6.0714   -1.1010  -19.5786 C   0  0  0  0  0  0  0  0  0  0  0  0
   -7.2577   -0.6712  -19.4188 O   0  0  0  0  0  0  0  0  0  0  0  0
   -4.1038   -1.0484  -18.8354 H   0  0  0  0  0  0  0  0  0  0  0  0
   -6.7977   -2.3960  -25.9826 C   0  0  0  0  0  0  0  0  0  0  0  0
   -7.4320   -2.9132  -27.1737 N   0  0  0  0  0  0  0  0  0  0  0  0
   -7.6628   -2.2938  -27.9033 H   0  0  0  0  0  0  0  0  0  0  0  0
   -7.7301   -4.2955  -27.3160 C   0  0  0  0  0  0  0  0  0  0  0  0
   -6.7900   -5.2289  -27.0196 C   0  0  0  0  0  0  0  0  0  0  0  0
   -7.0099   -6.6020  -27.1320 C   0  0  0  0  0  0  0  0  0  0  0  0
   -8.2428   -6.9885  -27.5642 N   0  0  0  0  0  0  0  0  0  0  0  0
   -9.1789   -6.0706  -27.8595 C   0  0  0  0  0  0  0  0  0  0  0  0
   -8.9387   -4.7396  -27.7414 N   0  0  0  0  0  0  0  0  0  0  0  0
 29 30  1  0  0  0
 30 31  1  0  0  0
 30 33  1  0  0  0
 31 32  2  0  0  0
 31 28  1  0  0  0
 28  1  1  0  0  0
  1  2  1  0  0  0
  3  2  1  0  0  0
  3  4  1  0  0  0
  3  9  1  0  0  0
  4  5  2  0  0  0
  4  6  1  0  0  0
  6 18  1  0  0  0
  6  7  1  0  0  0
 18 19  2  0  0  0
 19 20  1  0  0  0
 20 21  2  0  0  0
 21 22  1  0  0  0
 22 23  2  0  0  0
 23 24  1  0  0  0
 24 25  2  0  0  0
 25 26  1  0  0  0
 26 27  2  0  0  0
 27 18  1  0  0  0
 27 22  1  0  0  0
  7  8  1  0  0  0
  8 34  1  0  0  0
  8  3  1  0  0  0
 34 35  1  0  0  0
 35 37  1  0  0  0
 35 36  1  0  0  0
 37 38  2  0  0  0
 38 39  1  0  0  0
 39 40  2  0  0  0
 40 41  1  0  0  0
 41 42  2  0  0  0
 42 37  1  0  0  0
  9 10  2  0  0  0
 10 11  1  0  0  0
 11 12  1  0  0  0
 11 13  2  0  0  0
 13 14  1  0  0  0
 14 15  2  0  0  0
 15 16  1  0  0  0
 15  9  1  0  0  0
 16 17  2  0  0  0
 16  1  1  0  0  0
M  END
> <minimizedAffinity>
-8.60279

> <CNNscore>
0.1638749242

> <CNNaffinity>
6.2606797218

> <CNN_VS>
1.0259684324

> <CNNaffinity_variance>
0.5256451964

$$$$



 42 47  0  0  0  0  0  0  0  0999 V2000
   -7.2067   -1.5299  -21.4502 N   0  0  0  0  0  0  0  0  0  0  0  0
   -6.8841   -1.2624  -22.8327 C   0  0  0  0  0  0  0  0  0  0  0  0
   -6.7529    0.2317  -23.0265 C   0  0  0  0  0  0  0  0  0  0  0  0
   -8.0659    0.8775  -22.6297 C   0  0  0  0  0  0  0  0  0  0  0  0
   -8.5830    0.8678  -21.4650 O   0  0  0  0  0  0  0  0  0  0  0  0
   -8.6367    1.5046  -23.7808 N   0  0  0  0  0  0  0  0  0  0  0  0
   -8.1171    0.7134  -24.9059 C   0  0  0  0  0  0  0  0  0  0  0  0
   -6.6501    0.6329  -24.4460 C   0  0  0  0  0  0  0  0  0  0  0  0
   -5.7381    0.7442  -22.1095 C   0  0  0  0  0  0  0  0  0  0  0  0
   -4.9448    1.8554  -22.3664 C   0  0  0  0  0  0  0  0  0  0  0  0
   -4.0036    2.3169  -21.4498 C   0  0  0  0  0  0  0  0  0  0  0  0
   -3.0183    3.7396  -21.8302 Cl  0  0  0  0  0  0  0  0  0  0  0  0
   -3.8057    1.6962  -20.2351 C   0  0  0  0  0  0  0  0  0  0  0  0
   -4.5867    0.5927  -19.9694 C   0  0  0  0  0  0  0  0  0  0  0  0
   -5.5098    0.1401  -20.8693 C   0  0  0  0  0  0  0  0  0  0  0  0
   -6.2681   -1.0679  -20.4763 C   0  0  0  0  0  0  0  0  0  0  0  0
   -6.0954   -1.6379  -19.3710 O   0  0  0  0  0  0  0  0  0  0  0  0
   -9.5018    2.6262  -23.8071 C   0  0  0  0  0  0  0  0  0  0  0  0
   -8.9343    3.9011  -23.9421 C   0  0  0  0  0  0  0  0  0  0  0  0
   -9.7341    4.9862  -23.9690 N   0  0  0  0  0  0  0  0  0  0  0  0
  -11.0875    4.8502  -23.8660 C   0  0  0  0  0  0  0  0  0  0  0  0
  -11.6716    3.5991  -23.7319 C   0  0  0  0  0  0  0  0  0  0  0  0
  -13.0621    3.4943  -23.6316 C   0  0  0  0  0  0  0  0  0  0  0  0
  -13.5875    2.2127  -23.5022 C   0  0  0  0  0  0  0  0  0  0  0  0
  -12.7819    1.0855  -23.4727 C   0  0  0  0  0  0  0  0  0  0  0  0
  -11.4325    1.2026  -23.5711 C   0  0  0  0  0  0  0  0  0  0  0  0
  -10.8622    2.4739  -23.7027 C   0  0  0  0  0  0  0  0  0  0  0  0
   -8.3940   -2.2291  -21.0098 C   0  0  0  0  0  0  0  0  0  0  0  0
  -11.2049   -2.6884  -23.6122 C   0  0  0  0  0  0  0  0  0  0  0  0
  -10.4315   -2.1699  -22.4742 N   0  0  0  0  0  0  0  0  0  0  0  0
   -9.1714   -2.7625  -22.1728 C   0  0  0  0  0  0  0  0  0  0  0  0
   -8.7098   -3.7223  -22.8680 O   0  0  0  0  0  0  0  0  0  0  0  0
  -10.7783   -1.4263  -21.9300 H   0  0  0  0  0  0  0  0  0  0  0  0
   -5.8323   -0.2587  -25.3298 C   0  0  0  0  0  0  0  0  0  0  0  0
   -6.5763   -0.8399  -26.4240 N   0  0  0  0  0  0  0  0  0  0  0  0
   -6.7177   -0.3126  -27.2432 H   0  0  0  0  0  0  0  0  0  0  0  0
   -7.1085   -2.1554  -26.3445 C   0  0  0  0  0  0  0  0  0  0  0  0
   -6.3151   -3.1891  -25.9642 C   0  0  0  0  0  0  0  0  0  0  0  0
   -6.7666   -4.5052  -25.8606 C   0  0  0  0  0  0  0  0  0  0  0  0
   -8.0762   -4.7259  -26.1645 N   0  0  0  0  0  0  0  0  0  0  0  0
   -8.8682   -3.7079  -26.5416 C   0  0  0  0  0  0  0  0  0  0  0  0
   -8.4033   -2.4357  -26.6344 N   0  0  0  0  0  0  0  0  0  0  0  0
 29 30  1  0  0  0
 30 31  1  0  0  0
 30 33  1  0  0  0
 31 32  2  0  0  0
 31 28  1  0  0  0
 28  1  1  0  0  0
  1  2  1  0  0  0
  3  2  1  0  0  0
  3  4  1  0  0  0
  3  9  1  0  0  0
  4  5  2  0  0  0
  4  6  1  0  0  0
  6 18  1  0  0  0
  6  7  1  0  0  0
 18 19  2  0  0  0
 19 20  1  0  0  0
 20 21  2  0  0  0
 21 22  1  0  0  0
 22 23  2  0  0  0
 23 24  1  0  0  0
 24 25  2  0  0  0
 25 26  1  0  0  0
 26 27  2  0  0  0
 27 18  1  0  0  0
 27 22  1  0  0  0
  7  8  1  0  0  0
  8 34  1  0  0  0
  8  3  1  0  0  0
 34 35  1  0  0  0
 35 37  1  0  0  0
 35 36  1  0  0  0
 37 38  2  0  0  0
 38 39  1  0  0  0
 39 40  2  0  0  0
 40 41  1  0  0  0
 41 42  2  0  0  0
 42 37  1  0  0  0
  9 10  2  0  0  0
 10 11  1  0  0  0
 11 12  1  0  0  0
 11 13  2  0  0  0
 13 14  1  0  0  0
 14 15  2  0  0  0
 15 16  1  0  0  0
 15  9  1  0  0  0
 16 17  2  0  0  0
 16  1  1  0  0  0
M  END
> <minimizedAffinity>
-8.02609

> <CNNscore>
0.1616156399

> <CNNaffinity>
6.1638441086

> <CNN_VS>
0.9961736202

> <CNNaffinity_variance>
0.1976321787

$$$$



 42 47  0  0  0  0  0  0  0  0999 V2000
   -7.1236   -1.6536  -21.1440 N   0  0  0  0  0  0  0  0  0  0  0  0
   -6.5678   -1.4314  -22.4588 C   0  0  0  0  0  0  0  0  0  0  0  0
   -6.3072    0.0474  -22.6387 C   0  0  0  0  0  0  0  0  0  0  0  0
   -7.6202    0.7845  -22.4611 C   0  0  0  0  0  0  0  0  0  0  0  0
   -8.3155    0.8284  -21.3940 O   0  0  0  0  0  0  0  0  0  0  0  0
   -7.9570    1.4279  -23.6926 N   0  0  0  0  0  0  0  0  0  0  0  0
   -7.3196    0.5852  -24.7150 C   0  0  0  0  0  0  0  0  0  0  0  0
   -5.9532    0.4168  -24.0261 C   0  0  0  0  0  0  0  0  0  0  0  0
   -5.4191    0.5080  -21.5745 C   0  0  0  0  0  0  0  0  0  0  0  0
   -4.5221    1.5604  -21.7084 C   0  0  0  0  0  0  0  0  0  0  0  0
   -3.7097    1.9749  -20.6561 C   0  0  0  0  0  0  0  0  0  0  0  0
   -2.5830    3.3235  -20.8831 Cl  0  0  0  0  0  0  0  0  0  0  0  0
   -3.7499    1.3634  -19.4215 C   0  0  0  0  0  0  0  0  0  0  0  0
   -4.6356    0.3180  -19.2770 C   0  0  0  0  0  0  0  0  0  0  0  0
   -5.4322   -0.0885  -20.3100 C   0  0  0  0  0  0  0  0  0  0  0  0
   -6.3229   -1.2374  -20.0356 C   0  0  0  0  0  0  0  0  0  0  0  0
   -6.3670   -1.7986  -18.9132 O   0  0  0  0  0  0  0  0  0  0  0  0
   -8.7295    2.6030  -23.8640 C   0  0  0  0  0  0  0  0  0  0  0  0
  -10.0558    2.4698  -24.2983 C   0  0  0  0  0  0  0  0  0  0  0  0
  -10.8135    3.5716  -24.4709 N   0  0  0  0  0  0  0  0  0  0  0  0
  -10.2979    4.8105  -24.2259 C   0  0  0  0  0  0  0  0  0  0  0  0
   -8.9885    4.9670  -23.7953 C   0  0  0  0  0  0  0  0  0  0  0  0
   -8.4917    6.2506  -23.5503 C   0  0  0  0  0  0  0  0  0  0  0  0
   -7.1727    6.3415  -23.1177 C   0  0  0  0  0  0  0  0  0  0  0  0
   -6.3784    5.2208  -22.9344 C   0  0  0  0  0  0  0  0  0  0  0  0
   -6.8745    3.9799  -23.1763 C   0  0  0  0  0  0  0  0  0  0  0  0
   -8.1971    3.8433  -23.6131 C   0  0  0  0  0  0  0  0  0  0  0  0
   -8.4101   -2.2659  -20.8947 C   0  0  0  0  0  0  0  0  0  0  0  0
  -10.7646   -1.9208  -23.9314 C   0  0  0  0  0  0  0  0  0  0  0  0
  -10.0585   -1.6259  -22.6758 N   0  0  0  0  0  0  0  0  0  0  0  0
   -9.1206   -2.5747  -22.1757 C   0  0  0  0  0  0  0  0  0  0  0  0
   -8.8863   -3.6608  -22.7945 O   0  0  0  0  0  0  0  0  0  0  0  0
  -10.2309   -0.7877  -22.1891 H   0  0  0  0  0  0  0  0  0  0  0  0
   -5.0671   -0.5414  -24.7620 C   0  0  0  0  0  0  0  0  0  0  0  0
   -5.6942   -1.1539  -25.9110 N   0  0  0  0  0  0  0  0  0  0  0  0
   -5.9082   -0.5986  -26.6952 H   0  0  0  0  0  0  0  0  0  0  0  0
   -6.0090   -2.5397  -25.9346 C   0  0  0  0  0  0  0  0  0  0  0  0
   -5.0147   -3.4637  -25.9535 C   0  0  0  0  0  0  0  0  0  0  0  0
   -5.2459   -4.8394  -25.9745 C   0  0  0  0  0  0  0  0  0  0  0  0
   -6.5485   -5.2385  -25.9756 N   0  0  0  0  0  0  0  0  0  0  0  0
   -7.5385   -4.3301  -25.9569 C   0  0  0  0  0  0  0  0  0  0  0  0
   -7.2859   -2.9963  -25.9367 N   0  0  0  0  0  0  0  0  0  0  0  0
 29 30  1  0  0  0
 30 31  1  0  0  0
 30 33  1  0  0  0
 31 32  2  0  0  0
 31 28  1  0  0  0
 28  1  1  0  0  0
  1  2  1  0  0  0
  3  2  1  0  0  0
  3  4  1  0  0  0
  3  9  1  0  0  0
  4  5  2  0  0  0
  4  6  1  0  0  0
  6 18  1  0  0  0
  6  7  1  0  0  0
 18 19  2  0  0  0
 19 20  1  0  0  0
 20 21  2  0  0  0
 21 22  1  0  0  0
 22 23  2  0  0  0
 23 24  1  0  0  0
 24 25  2  0  0  0
 25 26  1  0  0  0
 26 27  2  0  0  0
 27 18  1  0  0  0
 27 22  1  0  0  0
  7  8  1  0  0  0
  8 34  1  0  0  0
  8  3  1  0  0  0
 34 35  1  0  0  0
 35 37  1  0  0  0
 35 36  1  0  0  0
 37 38  2  0  0  0
 38 39  1  0  0  0
 39 40  2  0  0  0
 40 41  1  0  0  0
 41 42  2  0  0  0
 42 37  1  0  0  0
  9 10  2  0  0  0
 10 11  1  0  0  0
 11 12  1  0  0  0
 11 13  2  0  0  0
 13 14  1  0  0  0
 14 15  2  0  0  0
 15 16  1  0  0  0
 15  9  1  0  0  0
 16 17  2  0  0  0
 16  1  1  0  0  0
M  END
> <minimizedAffinity>
-7.07410

> <CNNscore>
0.1580325067

> <CNNaffinity>
6.0250840187

> <CNN_VS>
0.9521591067

> <CNNaffinity_variance>
0.0705283433

$$$$



 42 47  0  0  0  0  0  0  0  0999 V2000
   -6.7894   -2.9168  -25.3244 N   0  0  0  0  0  0  0  0  0  0  0  0
   -7.8926   -2.1460  -24.7993 C   0  0  0  0  0  0  0  0  0  0  0  0
   -7.3468   -0.9260  -24.0915 C   0  0  0  0  0  0  0  0  0  0  0  0
   -6.4228   -1.3948  -22.9846 C   0  0  0  0  0  0  0  0  0  0  0  0
   -5.3367   -2.0429  -23.1406 O   0  0  0  0  0  0  0  0  0  0  0  0
   -6.9692   -0.9906  -21.7268 N   0  0  0  0  0  0  0  0  0  0  0  0
   -8.4173   -0.9332  -21.9750 C   0  0  0  0  0  0  0  0  0  0  0  0
   -8.3701   -0.1873  -23.3209 C   0  0  0  0  0  0  0  0  0  0  0  0
   -6.5278   -0.1589  -25.0264 C   0  0  0  0  0  0  0  0  0  0  0  0
   -6.3603    1.2190  -24.9673 C   0  0  0  0  0  0  0  0  0  0  0  0
   -5.5516    1.9026  -25.8716 C   0  0  0  0  0  0  0  0  0  0  0  0
   -5.3744    3.6614  -25.7496 Cl  0  0  0  0  0  0  0  0  0  0  0  0
   -4.8715    1.2499  -26.8772 C   0  0  0  0  0  0  0  0  0  0  0  0
   -5.0303   -0.1170  -26.9459 C   0  0  0  0  0  0  0  0  0  0  0  0
   -5.8242   -0.7872  -26.0586 C   0  0  0  0  0  0  0  0  0  0  0  0
   -5.9316   -2.2499  -26.2529 C   0  0  0  0  0  0  0  0  0  0  0  0
   -5.3138   -2.8522  -27.1650 O   0  0  0  0  0  0  0  0  0  0  0  0
   -6.2605   -0.7166  -20.5311 C   0  0  0  0  0  0  0  0  0  0  0  0
   -6.5761   -1.4604  -19.3854 C   0  0  0  0  0  0  0  0  0  0  0  0
   -5.9180   -1.2199  -18.2335 N   0  0  0  0  0  0  0  0  0  0  0  0
   -4.9503   -0.2602  -18.1777 C   0  0  0  0  0  0  0  0  0  0  0  0
   -4.6207    0.4881  -19.2984 C   0  0  0  0  0  0  0  0  0  0  0  0
   -3.6219    1.4622  -19.2080 C   0  0  0  0  0  0  0  0  0  0  0  0
   -3.3352    2.1768  -20.3666 C   0  0  0  0  0  0  0  0  0  0  0  0
   -4.0005    1.9440  -21.5597 C   0  0  0  0  0  0  0  0  0  0  0  0
   -4.9686    0.9944  -21.6326 C   0  0  0  0  0  0  0  0  0  0  0  0
   -5.2887    0.2521  -20.4901 C   0  0  0  0  0  0  0  0  0  0  0  0
   -6.5176   -4.2942  -24.9764 C   0  0  0  0  0  0  0  0  0  0  0  0
   -9.1073   -6.2736  -27.0405 C   0  0  0  0  0  0  0  0  0  0  0  0
   -7.9692   -5.4096  -26.6934 N   0  0  0  0  0  0  0  0  0  0  0  0
   -7.6764   -5.1784  -25.3184 C   0  0  0  0  0  0  0  0  0  0  0  0
   -8.3768   -5.7047  -24.3965 O   0  0  0  0  0  0  0  0  0  0  0  0
   -7.4193   -4.9981  -27.3988 H   0  0  0  0  0  0  0  0  0  0  0  0
   -9.7251   -0.0791  -23.9512 C   0  0  0  0  0  0  0  0  0  0  0  0
  -10.4572   -1.3248  -23.9824 N   0  0  0  0  0  0  0  0  0  0  0  0
  -10.0334   -2.1220  -24.3748 H   0  0  0  0  0  0  0  0  0  0  0  0
  -11.7749   -1.4251  -23.4595 C   0  0  0  0  0  0  0  0  0  0  0  0
  -12.1077   -2.4594  -22.6458 C   0  0  0  0  0  0  0  0  0  0  0  0
  -13.3783   -2.6230  -22.0932 C   0  0  0  0  0  0  0  0  0  0  0  0
  -14.3064   -1.6767  -22.4085 N   0  0  0  0  0  0  0  0  0  0  0  0
  -13.9848   -0.6497  -23.2133 C   0  0  0  0  0  0  0  0  0  0  0  0
  -12.7401   -0.5141  -23.7381 N   0  0  0  0  0  0  0  0  0  0  0  0
 29 30  1  0  0  0
 30 31  1  0  0  0
 30 33  1  0  0  0
 31 32  2  0  0  0
 31 28  1  0  0  0
 28  1  1  0  0  0
  1  2  1  0  0  0
  3  2  1  0  0  0
  3  4  1  0  0  0
  3  9  1  0  0  0
  4  5  2  0  0  0
  4  6  1  0  0  0
  6 18  1  0  0  0
  6  7  1  0  0  0
 18 19  2  0  0  0
 19 20  1  0  0  0
 20 21  2  0  0  0
 21 22  1  0  0  0
 22 23  2  0  0  0
 23 24  1  0  0  0
 24 25  2  0  0  0
 25 26  1  0  0  0
 26 27  2  0  0  0
 27 18  1  0  0  0
 27 22  1  0  0  0
  7  8  1  0  0  0
  8 34  1  0  0  0
  8  3  1  0  0  0
 34 35  1  0  0  0
 35 37  1  0  0  0
 35 36  1  0  0  0
 37 38  2  0  0  0
 38 39  1  0  0  0
 39 40  2  0  0  0
 40 41  1  0  0  0
 41 42  2  0  0  0
 42 37  1  0  0  0
  9 10  2  0  0  0
 10 11  1  0  0  0
 11 12  1  0  0  0
 11 13  2  0  0  0
 13 14  1  0  0  0
 14 15  2  0  0  0
 15 16  1  0  0  0
 15  9  1  0  0  0
 16 17  2  0  0  0
 16  1  1  0  0  0
M  END
> <minimizedAffinity>
-7.55882

> <CNNscore>
0.1555483639

> <CNNaffinity>
6.5278959274

> <CNN_VS>
1.0154035091

> <CNNaffinity_variance>
0.0849573091

$$$$



 42 47  0  0  0  0  0  0  0  0999 V2000
   -7.3696   -1.4892  -21.8572 N   0  0  0  0  0  0  0  0  0  0  0  0
   -6.9674   -1.0861  -23.1848 C   0  0  0  0  0  0  0  0  0  0  0  0
   -6.7847    0.4150  -23.2084 C   0  0  0  0  0  0  0  0  0  0  0  0
   -8.0984    1.0580  -22.8091 C   0  0  0  0  0  0  0  0  0  0  0  0
   -8.6761    0.9408  -21.6793 O   0  0  0  0  0  0  0  0  0  0  0  0
   -8.5902    1.8234  -23.9119 N   0  0  0  0  0  0  0  0  0  0  0  0
   -8.0343    1.1404  -25.0893 C   0  0  0  0  0  0  0  0  0  0  0  0
   -6.5963    0.9623  -24.5692 C   0  0  0  0  0  0  0  0  0  0  0  0
   -5.8057    0.7923  -22.1923 C   0  0  0  0  0  0  0  0  0  0  0  0
   -4.9695    1.8976  -22.2874 C   0  0  0  0  0  0  0  0  0  0  0  0
   -4.0654    2.2267  -21.2809 C   0  0  0  0  0  0  0  0  0  0  0  0
   -3.0223    3.6484  -21.4553 Cl  0  0  0  0  0  0  0  0  0  0  0  0
   -3.9491    1.4733  -20.1325 C   0  0  0  0  0  0  0  0  0  0  0  0
   -4.7732    0.3742  -20.0272 C   0  0  0  0  0  0  0  0  0  0  0  0
   -5.6599    0.0516  -21.0153 C   0  0  0  0  0  0  0  0  0  0  0  0
   -6.4711   -1.1656  -20.7938 C   0  0  0  0  0  0  0  0  0  0  0  0
   -6.3727   -1.8562  -19.7498 O   0  0  0  0  0  0  0  0  0  0  0  0
   -9.4213    2.9695  -23.8588 C   0  0  0  0  0  0  0  0  0  0  0  0
   -8.8155    4.2331  -23.9037 C   0  0  0  0  0  0  0  0  0  0  0  0
   -9.5824    5.3409  -23.8539 N   0  0  0  0  0  0  0  0  0  0  0  0
  -10.9394    5.2387  -23.7604 C   0  0  0  0  0  0  0  0  0  0  0  0
  -11.5610    3.9994  -23.7147 C   0  0  0  0  0  0  0  0  0  0  0  0
  -12.9543    3.9296  -23.6217 C   0  0  0  0  0  0  0  0  0  0  0  0
  -13.5181    2.6584  -23.5829 C   0  0  0  0  0  0  0  0  0  0  0  0
  -12.7466    1.5083  -23.6332 C   0  0  0  0  0  0  0  0  0  0  0  0
  -11.3941    1.5914  -23.7234 C   0  0  0  0  0  0  0  0  0  0  0  0
  -10.7857    2.8511  -23.7652 C   0  0  0  0  0  0  0  0  0  0  0  0
   -8.5973   -2.1916  -21.5545 C   0  0  0  0  0  0  0  0  0  0  0  0
  -10.5374   -3.6517  -24.5527 C   0  0  0  0  0  0  0  0  0  0  0  0
  -10.1390   -2.7634  -23.4508 N   0  0  0  0  0  0  0  0  0  0  0  0
   -8.9919   -3.1013  -22.6762 C   0  0  0  0  0  0  0  0  0  0  0  0
   -8.3135   -4.1483  -22.9229 O   0  0  0  0  0  0  0  0  0  0  0  0
  -10.6558   -1.9494  -23.2517 H   0  0  0  0  0  0  0  0  0  0  0  0
   -5.7582    0.1437  -25.5032 C   0  0  0  0  0  0  0  0  0  0  0  0
   -4.7128    0.8938  -26.1613 N   0  0  0  0  0  0  0  0  0  0  0  0
   -4.8173    1.1335  -27.1104 H   0  0  0  0  0  0  0  0  0  0  0  0
   -3.5373    1.2934  -25.4695 C   0  0  0  0  0  0  0  0  0  0  0  0
   -2.8253    0.3846  -24.7554 C   0  0  0  0  0  0  0  0  0  0  0  0
   -1.6617    0.7014  -24.0538 C   0  0  0  0  0  0  0  0  0  0  0  0
   -1.2494    1.9987  -24.1112 N   0  0  0  0  0  0  0  0  0  0  0  0
   -1.9487    2.9043  -24.8161 C   0  0  0  0  0  0  0  0  0  0  0  0
   -3.0785    2.5694  -25.4903 N   0  0  0  0  0  0  0  0  0  0  0  0
 29 30  1  0  0  0
 30 31  1  0  0  0
 30 33  1  0  0  0
 31 32  2  0  0  0
 31 28  1  0  0  0
 28  1  1  0  0  0
  1  2  1  0  0  0
  3  2  1  0  0  0
  3  4  1  0  0  0
  3  9  1  0  0  0
  4  5  2  0  0  0
  4  6  1  0  0  0
  6 18  1  0  0  0
  6  7  1  0  0  0
 18 19  2  0  0  0
 19 20  1  0  0  0
 20 21  2  0  0  0
 21 22  1  0  0  0
 22 23  2  0  0  0
 23 24  1  0  0  0
 24 25  2  0  0  0
 25 26  1  0  0  0
 26 27  2  0  0  0
 27 18  1  0  0  0
 27 22  1  0  0  0
  7  8  1  0  0  0
  8 34  1  0  0  0
  8  3  1  0  0  0
 34 35  1  0  0  0
 35 37  1  0  0  0
 35 36  1  0  0  0
 37 38  2  0  0  0
 38 39  1  0  0  0
 39 40  2  0  0  0
 40 41  1  0  0  0
 41 42  2  0  0  0
 42 37  1  0  0  0
  9 10  2  0  0  0
 10 11  1  0  0  0
 11 12  1  0  0  0
 11 13  2  0  0  0
 13 14  1  0  0  0
 14 15  2  0  0  0
 15 16  1  0  0  0
 15  9  1  0  0  0
 16 17  2  0  0  0
 16  1  1  0  0  0
M  END
> <minimizedAffinity>
-7.54116

> <CNNscore>
0.1435369551

> <CNNaffinity>
6.1453199387

> <CNN_VS>
0.8820804954

> <CNNaffinity_variance>
0.1032294780

$$$$



 42 47  0  0  0  0  0  0  0  0999 V2000
   -7.4489   -1.2422  -21.4963 N   0  0  0  0  0  0  0  0  0  0  0  0
   -7.4461    0.1888  -21.6939 C   0  0  0  0  0  0  0  0  0  0  0  0
   -6.4870    0.5285  -22.8128 C   0  0  0  0  0  0  0  0  0  0  0  0
   -5.1114    0.0204  -22.4277 C   0  0  0  0  0  0  0  0  0  0  0  0
   -4.7879   -1.1986  -22.2451 O   0  0  0  0  0  0  0  0  0  0  0  0
   -4.2273    1.1367  -22.3008 N   0  0  0  0  0  0  0  0  0  0  0  0
   -5.1148    2.2467  -21.9237 C   0  0  0  0  0  0  0  0  0  0  0  0
   -6.2325    1.9789  -22.9480 C   0  0  0  0  0  0  0  0  0  0  0  0
   -6.8820   -0.1982  -24.0166 C   0  0  0  0  0  0  0  0  0  0  0  0
   -6.6611    0.2574  -25.3103 C   0  0  0  0  0  0  0  0  0  0  0  0
   -7.0394   -0.4830  -26.4272 C   0  0  0  0  0  0  0  0  0  0  0  0
   -6.7332    0.1472  -28.0547 Cl  0  0  0  0  0  0  0  0  0  0  0  0
   -7.6551   -1.7108  -26.3118 C   0  0  0  0  0  0  0  0  0  0  0  0
   -7.8797   -2.1728  -25.0334 C   0  0  0  0  0  0  0  0  0  0  0  0
   -7.5087   -1.4457  -23.9378 C   0  0  0  0  0  0  0  0  0  0  0  0
   -7.8268   -2.0396  -22.6206 C   0  0  0  0  0  0  0  0  0  0  0  0
   -8.3855   -3.1582  -22.5069 O   0  0  0  0  0  0  0  0  0  0  0  0
   -2.8241    1.1471  -22.4956 C   0  0  0  0  0  0  0  0  0  0  0  0
   -1.9959    1.1962  -21.3655 C   0  0  0  0  0  0  0  0  0  0  0  0
   -0.6568    1.2082  -21.5217 N   0  0  0  0  0  0  0  0  0  0  0  0
   -0.1060    1.1728  -22.7692 C   0  0  0  0  0  0  0  0  0  0  0  0
   -0.9053    1.1238  -23.9019 C   0  0  0  0  0  0  0  0  0  0  0  0
   -0.3089    1.0854  -25.1658 C   0  0  0  0  0  0  0  0  0  0  0  0
   -1.1636    1.0339  -26.2621 C   0  0  0  0  0  0  0  0  0  0  0  0
   -2.5422    1.0207  -26.1218 C   0  0  0  0  0  0  0  0  0  0  0  0
   -3.1076    1.0584  -24.8876 C   0  0  0  0  0  0  0  0  0  0  0  0
   -2.2841    1.1107  -23.7572 C   0  0  0  0  0  0  0  0  0  0  0  0
   -7.1063   -1.8948  -20.2517 C   0  0  0  0  0  0  0  0  0  0  0  0
   -4.6864    0.4203  -18.3361 C   0  0  0  0  0  0  0  0  0  0  0  0
   -5.2102   -0.5418  -19.3170 N   0  0  0  0  0  0  0  0  0  0  0  0
   -6.5845   -0.9119  -19.2502 C   0  0  0  0  0  0  0  0  0  0  0  0
   -7.3570   -0.4256  -18.3647 O   0  0  0  0  0  0  0  0  0  0  0  0
   -4.6217   -0.9235  -20.0078 H   0  0  0  0  0  0  0  0  0  0  0  0
   -7.4110    2.8811  -22.7425 C   0  0  0  0  0  0  0  0  0  0  0  0
   -8.2524    3.0195  -23.9094 N   0  0  0  0  0  0  0  0  0  0  0  0
   -7.8546    3.3282  -24.7554 H   0  0  0  0  0  0  0  0  0  0  0  0
   -9.6410    2.7202  -23.8634 C   0  0  0  0  0  0  0  0  0  0  0  0
  -10.5565    3.7078  -24.0348 C   0  0  0  0  0  0  0  0  0  0  0  0
  -11.9343    3.4904  -24.0054 C   0  0  0  0  0  0  0  0  0  0  0  0
  -12.3447    2.2090  -23.7915 N   0  0  0  0  0  0  0  0  0  0  0  0
  -11.4447    1.2257  -23.6211 C   0  0  0  0  0  0  0  0  0  0  0  0
  -10.1087    1.4646  -23.6543 N   0  0  0  0  0  0  0  0  0  0  0  0
 29 30  1  0  0  0
 30 31  1  0  0  0
 30 33  1  0  0  0
 31 32  2  0  0  0
 31 28  1  0  0  0
 28  1  1  0  0  0
  1  2  1  0  0  0
  3  2  1  0  0  0
  3  4  1  0  0  0
  3  9  1  0  0  0
  4  5  2  0  0  0
  4  6  1  0  0  0
  6 18  1  0  0  0
  6  7  1  0  0  0
 18 19  2  0  0  0
 19 20  1  0  0  0
 20 21  2  0  0  0
 21 22  1  0  0  0
 22 23  2  0  0  0
 23 24  1  0  0  0
 24 25  2  0  0  0
 25 26  1  0  0  0
 26 27  2  0  0  0
 27 18  1  0  0  0
 27 22  1  0  0  0
  7  8  1  0  0  0
  8 34  1  0  0  0
  8  3  1  0  0  0
 34 35  1  0  0  0
 35 37  1  0  0  0
 35 36  1  0  0  0
 37 38  2  0  0  0
 38 39  1  0  0  0
 39 40  2  0  0  0
 40 41  1  0  0  0
 41 42  2  0  0  0
 42 37  1  0  0  0
  9 10  2  0  0  0
 10 11  1  0  0  0
 11 12  1  0  0  0
 11 13  2  0  0  0
 13 14  1  0  0  0
 14 15  2  0  0  0
 15 16  1  0  0  0
 15  9  1  0  0  0
 16 17  2  0  0  0
 16  1  1  0  0  0
M  END
> <minimizedAffinity>
-6.53807

> <CNNscore>
0.1399738044

> <CNNaffinity>
6.2158889771

> <CNN_VS>
0.8700616360

> <CNNaffinity_variance>
0.0846366584

$$$$



 38 42  0  0  0  0  0  0  0  0999 V2000
   -8.7737    1.3128  -24.3767 N   0  0  0  0  0  0  0  0  0  0  0  0
   -8.2684   -0.0491  -24.3678 C   0  0  0  0  0  0  0  0  0  0  0  0
   -8.9031   -0.7730  -23.2078 C   0  0  0  0  0  0  0  0  0  0  0  0
   -8.3465   -0.1453  -21.9785 C   0  0  0  0  0  0  0  0  0  0  0  0
   -8.8396    0.8587  -21.3700 O   0  0  0  0  0  0  0  0  0  0  0  0
   -7.1789   -0.8851  -21.6375 N   0  0  0  0  0  0  0  0  0  0  0  0
   -6.9686   -1.9173  -22.6373 C   0  0  0  0  0  0  0  0  0  0  0  0
   -8.4170   -2.1867  -23.0316 C   0  0  0  0  0  0  0  0  0  0  0  0
  -10.3739   -0.6729  -23.2653 C   0  0  0  0  0  0  0  0  0  0  0  0
  -11.2356   -1.6156  -22.7404 C   0  0  0  0  0  0  0  0  0  0  0  0
  -12.6176   -1.4879  -22.8103 C   0  0  0  0  0  0  0  0  0  0  0  0
  -13.6766   -2.7245  -22.1219 Cl  0  0  0  0  0  0  0  0  0  0  0  0
  -13.2007   -0.3957  -23.4171 C   0  0  0  0  0  0  0  0  0  0  0  0
  -12.3567    0.5542  -23.9460 C   0  0  0  0  0  0  0  0  0  0  0  0
  -11.0037    0.4230  -23.8741 C   0  0  0  0  0  0  0  0  0  0  0  0
  -10.1844    1.4780  -24.4643 C   0  0  0  0  0  0  0  0  0  0  0  0
  -10.6667    2.4943  -25.0285 O   0  0  0  0  0  0  0  0  0  0  0  0
   -6.3595   -0.6399  -20.4943 C   0  0  0  0  0  0  0  0  0  0  0  0
   -6.6700   -1.4119  -19.3676 C   0  0  0  0  0  0  0  0  0  0  0  0
   -5.9588   -1.2526  -18.2529 N   0  0  0  0  0  0  0  0  0  0  0  0
   -4.9486   -0.3620  -18.1951 C   0  0  0  0  0  0  0  0  0  0  0  0
   -4.6314    0.3971  -19.2786 C   0  0  0  0  0  0  0  0  0  0  0  0
   -3.5944    1.3061  -19.2084 C   0  0  0  0  0  0  0  0  0  0  0  0
   -3.2942    2.0668  -20.3318 C   0  0  0  0  0  0  0  0  0  0  0  0
   -4.0276    1.9154  -21.5107 C   0  0  0  0  0  0  0  0  0  0  0  0
   -5.0638    1.0082  -21.5830 C   0  0  0  0  0  0  0  0  0  0  0  0
   -5.3408    0.2714  -20.4667 C   0  0  0  0  0  0  0  0  0  0  0  0
   -7.9056    2.4777  -24.3035 C   0  0  0  0  0  0  0  0  0  0  0  0
   -6.2093    2.6863  -27.7635 C   0  0  0  0  0  0  0  0  0  0  0  0
   -7.1819    2.6842  -26.6713 N   0  0  0  0  0  0  0  0  0  0  0  0
   -6.8255    2.4538  -25.3234 C   0  0  0  0  0  0  0  0  0  0  0  0
   -5.6241    2.2363  -25.0137 O   0  0  0  0  0  0  0  0  0  0  0  0
   -8.1284    2.8511  -26.8849 H   0  0  0  0  0  0  0  0  0  0  0  0
   -8.5553   -3.0548  -24.2095 C   0  0  0  0  0  0  0  0  0  0  0  0
   -8.8677   -4.3278  -23.8339 O   0  0  0  0  0  0  0  0  0  0  0  0
   -8.0136   -5.3346  -24.1271 C   0  0  0  0  0  0  0  0  0  0  0  0
   -7.0259   -5.0057  -25.2314 C   0  0  0  0  0  0  0  0  0  0  0  0
   -7.2832   -5.7636  -22.8734 C   0  0  0  0  0  0  0  0  0  0  0  0
 29 30  1  0  0  0
 30 31  1  0  0  0
 30 33  1  0  0  0
 31 32  2  0  0  0
 31 28  1  0  0  0
 28  1  1  0  0  0
  1  2  1  0  0  0
  3  2  1  0  0  0
  3  4  1  0  0  0
  3  9  1  0  0  0
  4  5  2  0  0  0
  4  6  1  0  0  0
  6 18  1  0  0  0
  6  7  1  0  0  0
 18 19  2  0  0  0
 19 20  1  0  0  0
 20 21  2  0  0  0
 21 22  1  0  0  0
 22 23  2  0  0  0
 23 24  1  0  0  0
 24 25  2  0  0  0
 25 26  1  0  0  0
 26 27  2  0  0  0
 27 18  1  0  0  0
 27 22  1  0  0  0
  7  8  1  0  0  0
  8 34  1  0  0  0
  8  3  1  0  0  0
 34 35  1  0  0  0
 35 36  1  0  0  0
 36 37  1  0  0  0
 36 38  1  0  0  0
  9 10  2  0  0  0
 10 11  1  0  0  0
 11 12  1  0  0  0
 11 13  2  0  0  0
 13 14  1  0  0  0
 14 15  2  0  0  0
 15 16  1  0  0  0
 15  9  1  0  0  0
 16 17  2  0  0  0
 16  1  1  0  0  0
M  END
> <minimizedAffinity>
-8.24739

> <CNNscore>
0.8593904972

> <CNNaffinity>
6.9272398949

> <CNN_VS>
5.9532041550

> <CNNaffinity_variance>
0.0378797054

$$$$



 38 42  0  0  0  0  0  0  0  0999 V2000
   -6.3065   -2.7036  -21.3815 N   0  0  0  0  0  0  0  0  0  0  0  0
   -7.6110   -2.1276  -21.6584 C   0  0  0  0  0  0  0  0  0  0  0  0
   -7.9177   -2.3510  -23.1173 C   0  0  0  0  0  0  0  0  0  0  0  0
   -6.9530   -1.5065  -23.8732 C   0  0  0  0  0  0  0  0  0  0  0  0
   -5.7956   -1.8688  -24.2612 O   0  0  0  0  0  0  0  0  0  0  0  0
   -7.5818   -0.2437  -24.0646 N   0  0  0  0  0  0  0  0  0  0  0  0
   -8.8804   -0.2624  -23.4146 C   0  0  0  0  0  0  0  0  0  0  0  0
   -9.2186   -1.7417  -23.5673 C   0  0  0  0  0  0  0  0  0  0  0  0
   -7.7990   -3.7791  -23.4681 C   0  0  0  0  0  0  0  0  0  0  0  0
   -8.5057   -4.3879  -24.4863 C   0  0  0  0  0  0  0  0  0  0  0  0
   -8.3671   -5.7366  -24.7912 C   0  0  0  0  0  0  0  0  0  0  0  0
   -9.2961   -6.4672  -26.1058 Cl  0  0  0  0  0  0  0  0  0  0  0  0
   -7.5035   -6.5415  -24.0789 C   0  0  0  0  0  0  0  0  0  0  0  0
   -6.7908   -5.9511  -23.0600 C   0  0  0  0  0  0  0  0  0  0  0  0
   -6.9311   -4.6293  -22.7666 C   0  0  0  0  0  0  0  0  0  0  0  0
   -6.1372   -4.0872  -21.6673 C   0  0  0  0  0  0  0  0  0  0  0  0
   -5.3350   -4.7784  -20.9870 O   0  0  0  0  0  0  0  0  0  0  0  0
   -7.0147    0.8526  -24.7825 C   0  0  0  0  0  0  0  0  0  0  0  0
   -6.4146    1.8349  -23.9844 C   0  0  0  0  0  0  0  0  0  0  0  0
   -5.8582    2.8960  -24.5660 N   0  0  0  0  0  0  0  0  0  0  0  0
   -5.8650    3.0363  -25.9067 C   0  0  0  0  0  0  0  0  0  0  0  0
   -6.4428    2.0932  -26.6989 C   0  0  0  0  0  0  0  0  0  0  0  0
   -6.4438    2.2470  -28.0712 C   0  0  0  0  0  0  0  0  0  0  0  0
   -7.0414    1.2666  -28.8538 C   0  0  0  0  0  0  0  0  0  0  0  0
   -7.6306    0.1461  -28.2641 C   0  0  0  0  0  0  0  0  0  0  0  0
   -7.6308   -0.0094  -26.8938 C   0  0  0  0  0  0  0  0  0  0  0  0
   -7.0375    0.9666  -26.1446 C   0  0  0  0  0  0  0  0  0  0  0  0
   -5.2021   -1.9308  -20.8344 C   0  0  0  0  0  0  0  0  0  0  0  0
   -5.4194    0.3422  -17.7233 C   0  0  0  0  0  0  0  0  0  0  0  0
   -5.2294   -0.1729  -19.0789 N   0  0  0  0  0  0  0  0  0  0  0  0
   -5.4265   -1.5296  -19.4216 C   0  0  0  0  0  0  0  0  0  0  0  0
   -5.7816   -2.3600  -18.5436 O   0  0  0  0  0  0  0  0  0  0  0  0
   -4.9515    0.4543  -19.7851 H   0  0  0  0  0  0  0  0  0  0  0  0
  -10.4071   -2.1558  -22.8084 C   0  0  0  0  0  0  0  0  0  0  0  0
  -11.3631   -1.1842  -22.8454 O   0  0  0  0  0  0  0  0  0  0  0  0
  -12.6133   -1.4987  -23.2544 C   0  0  0  0  0  0  0  0  0  0  0  0
  -13.4015   -2.3246  -22.2546 C   0  0  0  0  0  0  0  0  0  0  0  0
  -13.3660   -0.2346  -23.6078 C   0  0  0  0  0  0  0  0  0  0  0  0
 29 30  1  0  0  0
 30 31  1  0  0  0
 30 33  1  0  0  0
 31 32  2  0  0  0
 31 28  1  0  0  0
 28  1  1  0  0  0
  1  2  1  0  0  0
  3  2  1  0  0  0
  3  4  1  0  0  0
  3  9  1  0  0  0
  4  5  2  0  0  0
  4  6  1  0  0  0
  6 18  1  0  0  0
  6  7  1  0  0  0
 18 19  2  0  0  0
 19 20  1  0  0  0
 20 21  2  0  0  0
 21 22  1  0  0  0
 22 23  2  0  0  0
 23 24  1  0  0  0
 24 25  2  0  0  0
 25 26  1  0  0  0
 26 27  2  0  0  0
 27 18  1  0  0  0
 27 22  1  0  0  0
  7  8  1  0  0  0
  8 34  1  0  0  0
  8  3  1  0  0  0
 34 35  1  0  0  0
 35 36  1  0  0  0
 36 37  1  0  0  0
 36 38  1  0  0  0
  9 10  2  0  0  0
 10 11  1  0  0  0
 11 12  1  0  0  0
 11 13  2  0  0  0
 13 14  1  0  0  0
 14 15  2  0  0  0
 15 16  1  0  0  0
 15  9  1  0  0  0
 16 17  2  0  0  0
 16  1  1  0  0  0
M  END
> <minimizedAffinity>
-7.23080

> <CNNscore>
0.4330190718

> <CNNaffinity>
6.5808591843

> <CNN_VS>
2.8496375084

> <CNNaffinity_variance>
0.2263326645

$$$$



 38 42  0  0  0  0  0  0  0  0999 V2000
   -6.3061   -2.8557  -21.3707 N   0  0  0  0  0  0  0  0  0  0  0  0
   -7.6231   -2.2646  -21.5329 C   0  0  0  0  0  0  0  0  0  0  0  0
   -7.9937   -2.3478  -22.9917 C   0  0  0  0  0  0  0  0  0  0  0  0
   -7.0657   -1.4275  -23.7038 C   0  0  0  0  0  0  0  0  0  0  0  0
   -5.9257   -1.7427  -24.1756 O   0  0  0  0  0  0  0  0  0  0  0  0
   -7.7055   -0.1564  -23.7440 N   0  0  0  0  0  0  0  0  0  0  0  0
   -8.9739   -0.2469  -23.0424 C   0  0  0  0  0  0  0  0  0  0  0  0
   -9.3148   -1.7067  -23.3229 C   0  0  0  0  0  0  0  0  0  0  0  0
   -7.8871   -3.7344  -23.4842 C   0  0  0  0  0  0  0  0  0  0  0  0
   -8.6367   -4.2467  -24.5246 C   0  0  0  0  0  0  0  0  0  0  0  0
   -8.5085   -5.5585  -24.9646 C   0  0  0  0  0  0  0  0  0  0  0  0
   -9.4930   -6.1648  -26.3018 Cl  0  0  0  0  0  0  0  0  0  0  0  0
   -7.6120   -6.4226  -24.3723 C   0  0  0  0  0  0  0  0  0  0  0  0
   -6.8563   -5.9288  -23.3333 C   0  0  0  0  0  0  0  0  0  0  0  0
   -6.9868   -4.6426  -22.9072 C   0  0  0  0  0  0  0  0  0  0  0  0
   -6.1462   -4.2040  -21.7965 C   0  0  0  0  0  0  0  0  0  0  0  0
   -5.3129   -4.9523  -21.2224 O   0  0  0  0  0  0  0  0  0  0  0  0
   -7.1736    1.0079  -24.3764 C   0  0  0  0  0  0  0  0  0  0  0  0
   -7.5031    1.1482  -25.7306 C   0  0  0  0  0  0  0  0  0  0  0  0
   -7.0517    2.2044  -26.4046 N   0  0  0  0  0  0  0  0  0  0  0  0
   -6.2852    3.1360  -25.8033 C   0  0  0  0  0  0  0  0  0  0  0  0
   -5.9543    3.0179  -24.4890 C   0  0  0  0  0  0  0  0  0  0  0  0
   -5.1687    3.9783  -23.8831 C   0  0  0  0  0  0  0  0  0  0  0  0
   -4.8478    3.8300  -22.5393 C   0  0  0  0  0  0  0  0  0  0  0  0
   -5.3108    2.7299  -21.8141 C   0  0  0  0  0  0  0  0  0  0  0  0
   -6.0954    1.7694  -22.4174 C   0  0  0  0  0  0  0  0  0  0  0  0
   -6.3982    1.9360  -23.7389 C   0  0  0  0  0  0  0  0  0  0  0  0
   -5.1805   -2.1320  -20.8003 C   0  0  0  0  0  0  0  0  0  0  0  0
   -5.4478    0.3707  -17.8750 C   0  0  0  0  0  0  0  0  0  0  0  0
   -5.2109   -0.2510  -19.1774 N   0  0  0  0  0  0  0  0  0  0  0  0
   -5.4610   -1.6178  -19.4349 C   0  0  0  0  0  0  0  0  0  0  0  0
   -5.9080   -2.3632  -18.5233 O   0  0  0  0  0  0  0  0  0  0  0  0
   -4.8611    0.3083  -19.9083 H   0  0  0  0  0  0  0  0  0  0  0  0
  -10.4674   -2.2004  -22.5562 C   0  0  0  0  0  0  0  0  0  0  0  0
  -11.6202   -2.0430  -23.2673 O   0  0  0  0  0  0  0  0  0  0  0  0
  -12.6935   -1.4732  -22.6736 C   0  0  0  0  0  0  0  0  0  0  0  0
  -13.4143   -0.4587  -23.5420 C   0  0  0  0  0  0  0  0  0  0  0  0
  -13.6505   -2.5501  -22.2113 C   0  0  0  0  0  0  0  0  0  0  0  0
 29 30  1  0  0  0
 30 31  1  0  0  0
 30 33  1  0  0  0
 31 32  2  0  0  0
 31 28  1  0  0  0
 28  1  1  0  0  0
  1  2  1  0  0  0
  3  2  1  0  0  0
  3  4  1  0  0  0
  3  9  1  0  0  0
  4  5  2  0  0  0
  4  6  1  0  0  0
  6 18  1  0  0  0
  6  7  1  0  0  0
 18 19  2  0  0  0
 19 20  1  0  0  0
 20 21  2  0  0  0
 21 22  1  0  0  0
 22 23  2  0  0  0
 23 24  1  0  0  0
 24 25  2  0  0  0
 25 26  1  0  0  0
 26 27  2  0  0  0
 27 18  1  0  0  0
 27 22  1  0  0  0
  7  8  1  0  0  0
  8 34  1  0  0  0
  8  3  1  0  0  0
 34 35  1  0  0  0
 35 36  1  0  0  0
 36 37  1  0  0  0
 36 38  1  0  0  0
  9 10  2  0  0  0
 10 11  1  0  0  0
 11 12  1  0  0  0
 11 13  2  0  0  0
 13 14  1  0  0  0
 14 15  2  0  0  0
 15 16  1  0  0  0
 15  9  1  0  0  0
 16 17  2  0  0  0
 16  1  1  0  0  0
M  END
> <minimizedAffinity>
-7.75609

> <CNNscore>
0.4109203219

> <CNNaffinity>
6.5391793251

> <CNN_VS>
2.6870815754

> <CNNaffinity_variance>
0.2592868209

$$$$



 38 42  0  0  0  0  0  0  0  0999 V2000
   -5.5252   -1.4151  -22.1174 N   0  0  0  0  0  0  0  0  0  0  0  0
   -5.9589   -1.8447  -23.4355 C   0  0  0  0  0  0  0  0  0  0  0  0
   -6.6505   -0.6813  -24.0995 C   0  0  0  0  0  0  0  0  0  0  0  0
   -7.9061   -0.4583  -23.3321 C   0  0  0  0  0  0  0  0  0  0  0  0
   -8.0297    0.2992  -22.3160 O   0  0  0  0  0  0  0  0  0  0  0  0
   -8.9107   -1.2494  -23.9580 N   0  0  0  0  0  0  0  0  0  0  0  0
   -8.3107   -1.9881  -25.0550 C   0  0  0  0  0  0  0  0  0  0  0  0
   -7.2180   -1.0027  -25.4562 C   0  0  0  0  0  0  0  0  0  0  0  0
   -5.7842    0.5128  -24.1060 C   0  0  0  0  0  0  0  0  0  0  0  0
   -5.8488    1.5115  -25.0574 C   0  0  0  0  0  0  0  0  0  0  0  0
   -5.0179    2.6251  -25.0314 C   0  0  0  0  0  0  0  0  0  0  0  0
   -5.1417    3.8758  -26.2745 Cl  0  0  0  0  0  0  0  0  0  0  0  0
   -4.0755    2.7858  -24.0378 C   0  0  0  0  0  0  0  0  0  0  0  0
   -3.9970    1.7997  -23.0808 C   0  0  0  0  0  0  0  0  0  0  0  0
   -4.8141    0.7113  -23.1121 C   0  0  0  0  0  0  0  0  0  0  0  0
   -4.6598   -0.2871  -22.0576 C   0  0  0  0  0  0  0  0  0  0  0  0
   -3.8163   -0.1875  -21.1288 O   0  0  0  0  0  0  0  0  0  0  0  0
  -10.2811   -1.2967  -23.5602 C   0  0  0  0  0  0  0  0  0  0  0  0
  -10.7220   -2.5459  -23.1051 C   0  0  0  0  0  0  0  0  0  0  0  0
  -11.9867   -2.6866  -22.7121 N   0  0  0  0  0  0  0  0  0  0  0  0
  -12.8441   -1.6470  -22.7463 C   0  0  0  0  0  0  0  0  0  0  0  0
  -12.4352   -0.4259  -23.1849 C   0  0  0  0  0  0  0  0  0  0  0  0
  -13.3220    0.6322  -23.2154 C   0  0  0  0  0  0  0  0  0  0  0  0
  -12.8745    1.8673  -23.6682 C   0  0  0  0  0  0  0  0  0  0  0  0
  -11.5523    2.0363  -24.0851 C   0  0  0  0  0  0  0  0  0  0  0  0
  -10.6650    0.9809  -24.0554 C   0  0  0  0  0  0  0  0  0  0  0  0
  -11.1269   -0.2236  -23.6065 C   0  0  0  0  0  0  0  0  0  0  0  0
   -5.9353   -2.0861  -20.8935 C   0  0  0  0  0  0  0  0  0  0  0  0
   -5.3969    0.0017  -17.6929 C   0  0  0  0  0  0  0  0  0  0  0  0
   -5.2247   -0.9096  -18.8239 N   0  0  0  0  0  0  0  0  0  0  0  0
   -6.2310   -1.1366  -19.7897 C   0  0  0  0  0  0  0  0  0  0  0  0
   -7.3389   -0.5439  -19.7022 O   0  0  0  0  0  0  0  0  0  0  0  0
   -4.3685   -1.3867  -18.9166 H   0  0  0  0  0  0  0  0  0  0  0  0
   -6.2610   -1.5481  -26.4292 C   0  0  0  0  0  0  0  0  0  0  0  0
   -6.5552   -2.8485  -26.7151 O   0  0  0  0  0  0  0  0  0  0  0  0
   -5.5622   -3.7667  -26.7247 C   0  0  0  0  0  0  0  0  0  0  0  0
   -4.1771   -3.1817  -26.5193 C   0  0  0  0  0  0  0  0  0  0  0  0
   -5.8457   -4.8335  -25.6899 C   0  0  0  0  0  0  0  0  0  0  0  0
 29 30  1  0  0  0
 30 31  1  0  0  0
 30 33  1  0  0  0
 31 32  2  0  0  0
 31 28  1  0  0  0
 28  1  1  0  0  0
  1  2  1  0  0  0
  3  2  1  0  0  0
  3  4  1  0  0  0
  3  9  1  0  0  0
  4  5  2  0  0  0
  4  6  1  0  0  0
  6 18  1  0  0  0
  6  7  1  0  0  0
 18 19  2  0  0  0
 19 20  1  0  0  0
 20 21  2  0  0  0
 21 22  1  0  0  0
 22 23  2  0  0  0
 23 24  1  0  0  0
 24 25  2  0  0  0
 25 26  1  0  0  0
 26 27  2  0  0  0
 27 18  1  0  0  0
 27 22  1  0  0  0
  7  8  1  0  0  0
  8 34  1  0  0  0
  8  3  1  0  0  0
 34 35  1  0  0  0
 35 36  1  0  0  0
 36 37  1  0  0  0
 36 38  1  0  0  0
  9 10  2  0  0  0
 10 11  1  0  0  0
 11 12  1  0  0  0
 11 13  2  0  0  0
 13 14  1  0  0  0
 14 15  2  0  0  0
 15 16  1  0  0  0
 15  9  1  0  0  0
 16 17  2  0  0  0
 16  1  1  0  0  0
M  END
> <minimizedAffinity>
-7.19393

> <CNNscore>
0.3312557936

> <CNNaffinity>
6.0152978897

> <CNN_VS>
1.9926022291

> <CNNaffinity_variance>
0.4207461774

$$$$



 38 42  0  0  0  0  0  0  0  0999 V2000
   -6.9135   -1.5632  -21.9671 N   0  0  0  0  0  0  0  0  0  0  0  0
   -6.6380   -0.9244  -23.2423 C   0  0  0  0  0  0  0  0  0  0  0  0
   -6.4763    0.5541  -22.9965 C   0  0  0  0  0  0  0  0  0  0  0  0
   -7.8203    1.0526  -22.5958 C   0  0  0  0  0  0  0  0  0  0  0  0
   -8.2685    1.1011  -21.4050 O   0  0  0  0  0  0  0  0  0  0  0  0
   -8.4788    1.4522  -23.7930 N   0  0  0  0  0  0  0  0  0  0  0  0
   -7.6086    1.1756  -24.9223 C   0  0  0  0  0  0  0  0  0  0  0  0
   -6.2529    1.3596  -24.2483 C   0  0  0  0  0  0  0  0  0  0  0  0
   -5.4582    0.8075  -21.9594 C   0  0  0  0  0  0  0  0  0  0  0  0
   -4.6940    1.9554  -21.8883 C   0  0  0  0  0  0  0  0  0  0  0  0
   -3.7444    2.1623  -20.8949 C   0  0  0  0  0  0  0  0  0  0  0  0
   -2.7921    3.6509  -20.8493 Cl  0  0  0  0  0  0  0  0  0  0  0  0
   -3.5185    1.2148  -19.9191 C   0  0  0  0  0  0  0  0  0  0  0  0
   -4.2715    0.0639  -19.9745 C   0  0  0  0  0  0  0  0  0  0  0  0
   -5.2001   -0.1324  -20.9503 C   0  0  0  0  0  0  0  0  0  0  0  0
   -5.9518   -1.3843  -20.9337 C   0  0  0  0  0  0  0  0  0  0  0  0
   -5.7842   -2.2802  -20.0658 O   0  0  0  0  0  0  0  0  0  0  0  0
   -9.7828    2.0304  -23.8559 C   0  0  0  0  0  0  0  0  0  0  0  0
   -9.8061    3.4167  -24.0551 C   0  0  0  0  0  0  0  0  0  0  0  0
  -10.9783    4.0446  -24.1274 N   0  0  0  0  0  0  0  0  0  0  0  0
  -12.1375    3.3664  -24.0118 C   0  0  0  0  0  0  0  0  0  0  0  0
  -12.1360    2.0199  -23.8180 C   0  0  0  0  0  0  0  0  0  0  0  0
  -13.3295    1.3352  -23.7013 C   0  0  0  0  0  0  0  0  0  0  0  0
  -13.2954   -0.0399  -23.5042 C   0  0  0  0  0  0  0  0  0  0  0  0
  -12.0769   -0.7177  -23.4254 C   0  0  0  0  0  0  0  0  0  0  0  0
  -10.8838   -0.0358  -23.5416 C   0  0  0  0  0  0  0  0  0  0  0  0
  -10.9415    1.3151  -23.7350 C   0  0  0  0  0  0  0  0  0  0  0  0
   -8.1068   -2.3588  -21.7239 C   0  0  0  0  0  0  0  0  0  0  0  0
   -7.6231   -5.5316  -23.8668 C   0  0  0  0  0  0  0  0  0  0  0  0
   -7.4827   -4.4761  -22.8642 N   0  0  0  0  0  0  0  0  0  0  0  0
   -8.3528   -3.3652  -22.7888 C   0  0  0  0  0  0  0  0  0  0  0  0
   -9.3027   -3.2474  -23.6075 O   0  0  0  0  0  0  0  0  0  0  0  0
   -6.7483   -4.5426  -22.2118 H   0  0  0  0  0  0  0  0  0  0  0  0
   -5.1186    0.9342  -25.0804 C   0  0  0  0  0  0  0  0  0  0  0  0
   -4.2241    1.9524  -25.2299 O   0  0  0  0  0  0  0  0  0  0  0  0
   -2.9001    1.6906  -25.1423 C   0  0  0  0  0  0  0  0  0  0  0  0
   -2.1075    2.7525  -24.4025 C   0  0  0  0  0  0  0  0  0  0  0  0
   -2.6908    0.3339  -24.5062 C   0  0  0  0  0  0  0  0  0  0  0  0
 29 30  1  0  0  0
 30 31  1  0  0  0
 30 33  1  0  0  0
 31 32  2  0  0  0
 31 28  1  0  0  0
 28  1  1  0  0  0
  1  2  1  0  0  0
  3  2  1  0  0  0
  3  4  1  0  0  0
  3  9  1  0  0  0
  4  5  2  0  0  0
  4  6  1  0  0  0
  6 18  1  0  0  0
  6  7  1  0  0  0
 18 19  2  0  0  0
 19 20  1  0  0  0
 20 21  2  0  0  0
 21 22  1  0  0  0
 22 23  2  0  0  0
 23 24  1  0  0  0
 24 25  2  0  0  0
 25 26  1  0  0  0
 26 27  2  0  0  0
 27 18  1  0  0  0
 27 22  1  0  0  0
  7  8  1  0  0  0
  8 34  1  0  0  0
  8  3  1  0  0  0
 34 35  1  0  0  0
 35 36  1  0  0  0
 36 37  1  0  0  0
 36 38  1  0  0  0
  9 10  2  0  0  0
 10 11  1  0  0  0
 11 12  1  0  0  0
 11 13  2  0  0  0
 13 14  1  0  0  0
 14 15  2  0  0  0
 15 16  1  0  0  0
 15  9  1  0  0  0
 16 17  2  0  0  0
 16  1  1  0  0  0
M  END
> <minimizedAffinity>
-7.29085

> <CNNscore>
0.3197607398

> <CNNaffinity>
6.1553964615

> <CNN_VS>
1.9682540894

> <CNNaffinity_variance>
0.0728269741

$$$$



 38 42  0  0  0  0  0  0  0  0999 V2000
   -5.9105   -0.9345  -21.9286 N   0  0  0  0  0  0  0  0  0  0  0  0
   -6.1466   -0.7047  -23.3434 C   0  0  0  0  0  0  0  0  0  0  0  0
   -6.5667    0.7326  -23.5172 C   0  0  0  0  0  0  0  0  0  0  0  0
   -7.9054    0.8488  -22.8772 C   0  0  0  0  0  0  0  0  0  0  0  0
   -8.1209    1.1368  -21.6557 O   0  0  0  0  0  0  0  0  0  0  0  0
   -8.8659    0.5776  -23.8923 N   0  0  0  0  0  0  0  0  0  0  0  0
   -8.1684    0.2526  -25.1239 C   0  0  0  0  0  0  0  0  0  0  0  0
   -6.9139    1.0992  -24.9353 C   0  0  0  0  0  0  0  0  0  0  0  0
   -5.5802    1.6469  -22.9112 C   0  0  0  0  0  0  0  0  0  0  0  0
   -5.3553    2.9395  -23.3418 C   0  0  0  0  0  0  0  0  0  0  0  0
   -4.4187    3.7749  -22.7453 C   0  0  0  0  0  0  0  0  0  0  0  0
   -4.1697    5.4225  -23.3357 Cl  0  0  0  0  0  0  0  0  0  0  0  0
   -3.6586    3.3438  -21.6788 C   0  0  0  0  0  0  0  0  0  0  0  0
   -3.8695    2.0576  -21.2362 C   0  0  0  0  0  0  0  0  0  0  0  0
   -4.7887    1.2444  -21.8250 C   0  0  0  0  0  0  0  0  0  0  0  0
   -4.9446   -0.1062  -21.2918 C   0  0  0  0  0  0  0  0  0  0  0  0
   -4.2766   -0.5478  -20.3208 O   0  0  0  0  0  0  0  0  0  0  0  0
  -10.2817    0.6228  -23.7125 C   0  0  0  0  0  0  0  0  0  0  0  0
  -10.8644    1.8794  -23.9206 C   0  0  0  0  0  0  0  0  0  0  0  0
  -12.1809    2.0188  -23.7757 N   0  0  0  0  0  0  0  0  0  0  0  0
  -12.9565    0.9709  -23.4330 C   0  0  0  0  0  0  0  0  0  0  0  0
  -12.4096   -0.2575  -23.2266 C   0  0  0  0  0  0  0  0  0  0  0  0
  -13.2136   -1.3240  -22.8760 C   0  0  0  0  0  0  0  0  0  0  0  0
  -12.6257   -2.5665  -22.6722 C   0  0  0  0  0  0  0  0  0  0  0  0
  -11.2470   -2.7343  -22.8189 C   0  0  0  0  0  0  0  0  0  0  0  0
  -10.4421   -1.6704  -23.1688 C   0  0  0  0  0  0  0  0  0  0  0  0
  -11.0418   -0.4588  -23.3642 C   0  0  0  0  0  0  0  0  0  0  0  0
   -6.6099   -1.9580  -21.1673 C   0  0  0  0  0  0  0  0  0  0  0  0
   -6.4707   -5.3827  -22.9406 C   0  0  0  0  0  0  0  0  0  0  0  0
   -6.8289   -4.0268  -22.5255 N   0  0  0  0  0  0  0  0  0  0  0  0
   -6.1523   -3.3324  -21.4975 C   0  0  0  0  0  0  0  0  0  0  0  0
   -5.1927   -3.8768  -20.8899 O   0  0  0  0  0  0  0  0  0  0  0  0
   -7.5757   -3.5773  -22.9833 H   0  0  0  0  0  0  0  0  0  0  0  0
   -5.8675    0.8321  -25.9321 C   0  0  0  0  0  0  0  0  0  0  0  0
   -6.4182    0.4030  -27.1034 O   0  0  0  0  0  0  0  0  0  0  0  0
   -5.8245    0.7284  -28.2742 C   0  0  0  0  0  0  0  0  0  0  0  0
   -4.8670    1.9017  -28.1768 C   0  0  0  0  0  0  0  0  0  0  0  0
   -5.1203   -0.4845  -28.8419 C   0  0  0  0  0  0  0  0  0  0  0  0
 29 30  1  0  0  0
 30 31  1  0  0  0
 30 33  1  0  0  0
 31 32  2  0  0  0
 31 28  1  0  0  0
 28  1  1  0  0  0
  1  2  1  0  0  0
  3  2  1  0  0  0
  3  4  1  0  0  0
  3  9  1  0  0  0
  4  5  2  0  0  0
  4  6  1  0  0  0
  6 18  1  0  0  0
  6  7  1  0  0  0
 18 19  2  0  0  0
 19 20  1  0  0  0
 20 21  2  0  0  0
 21 22  1  0  0  0
 22 23  2  0  0  0
 23 24  1  0  0  0
 24 25  2  0  0  0
 25 26  1  0  0  0
 26 27  2  0  0  0
 27 18  1  0  0  0
 27 22  1  0  0  0
  7  8  1  0  0  0
  8 34  1  0  0  0
  8  3  1  0  0  0
 34 35  1  0  0  0
 35 36  1  0  0  0
 36 37  1  0  0  0
 36 38  1  0  0  0
  9 10  2  0  0  0
 10 11  1  0  0  0
 11 12  1  0  0  0
 11 13  2  0  0  0
 13 14  1  0  0  0
 14 15  2  0  0  0
 15 16  1  0  0  0
 15  9  1  0  0  0
 16 17  2  0  0  0
 16  1  1  0  0  0
M  END
> <minimizedAffinity>
-6.79951

> <CNNscore>
0.2986449599

> <CNNaffinity>
6.1721801758

> <CNN_VS>
1.8432904482

> <CNNaffinity_variance>
0.0467084721

$$$$



 38 42  0  0  0  0  0  0  0  0999 V2000
   -7.3020   -1.4115  -21.6882 N   0  0  0  0  0  0  0  0  0  0  0  0
   -6.8958   -0.9222  -22.9942 C   0  0  0  0  0  0  0  0  0  0  0  0
   -6.5681    0.5432  -22.8604 C   0  0  0  0  0  0  0  0  0  0  0  0
   -7.8585    1.2275  -22.5744 C   0  0  0  0  0  0  0  0  0  0  0  0
   -8.3495    1.4310  -21.4173 O   0  0  0  0  0  0  0  0  0  0  0  0
   -8.4109    1.5958  -23.8338 N   0  0  0  0  0  0  0  0  0  0  0  0
   -7.5316    1.1228  -24.8885 C   0  0  0  0  0  0  0  0  0  0  0  0
   -6.1945    1.2056  -24.1595 C   0  0  0  0  0  0  0  0  0  0  0  0
   -5.5733    0.7654  -21.7939 C   0  0  0  0  0  0  0  0  0  0  0  0
   -4.6803    1.8184  -21.7748 C   0  0  0  0  0  0  0  0  0  0  0  0
   -3.7573    1.9987  -20.7517 C   0  0  0  0  0  0  0  0  0  0  0  0
   -2.6354    3.3647  -20.7755 Cl  0  0  0  0  0  0  0  0  0  0  0  0
   -3.6902    1.1196  -19.6917 C   0  0  0  0  0  0  0  0  0  0  0  0
   -4.5732    0.0637  -19.6943 C   0  0  0  0  0  0  0  0  0  0  0  0
   -5.4749   -0.1071  -20.6996 C   0  0  0  0  0  0  0  0  0  0  0  0
   -6.3721   -1.2568  -20.6223 C   0  0  0  0  0  0  0  0  0  0  0  0
   -6.3519   -2.0875  -19.6770 O   0  0  0  0  0  0  0  0  0  0  0  0
   -9.6317    2.3141  -24.0134 C   0  0  0  0  0  0  0  0  0  0  0  0
  -10.7955    1.5502  -23.8587 C   0  0  0  0  0  0  0  0  0  0  0  0
  -11.9828    2.1350  -24.0075 N   0  0  0  0  0  0  0  0  0  0  0  0
  -12.0786    3.4465  -24.3039 C   0  0  0  0  0  0  0  0  0  0  0  0
  -10.9601    4.2054  -24.4580 C   0  0  0  0  0  0  0  0  0  0  0  0
  -11.0699    5.5481  -24.7613 C   0  0  0  0  0  0  0  0  0  0  0  0
   -9.9093    6.2969  -24.9123 C   0  0  0  0  0  0  0  0  0  0  0  0
   -8.6542    5.7033  -24.7605 C   0  0  0  0  0  0  0  0  0  0  0  0
   -8.5422    4.3625  -24.4578 C   0  0  0  0  0  0  0  0  0  0  0  0
   -9.6964    3.6462  -24.3138 C   0  0  0  0  0  0  0  0  0  0  0  0
   -8.5920   -2.0388  -21.4461 C   0  0  0  0  0  0  0  0  0  0  0  0
   -9.5235   -4.2524  -24.4668 C   0  0  0  0  0  0  0  0  0  0  0  0
   -8.9268   -3.7244  -23.2404 N   0  0  0  0  0  0  0  0  0  0  0  0
   -9.2677   -2.4644  -22.6990 C   0  0  0  0  0  0  0  0  0  0  0  0
  -10.1203   -1.7371  -23.2739 O   0  0  0  0  0  0  0  0  0  0  0  0
   -8.2569   -4.2718  -22.7705 H   0  0  0  0  0  0  0  0  0  0  0  0
   -5.0843    0.5805  -24.8921 C   0  0  0  0  0  0  0  0  0  0  0  0
   -4.0489    1.4564  -25.0338 O   0  0  0  0  0  0  0  0  0  0  0  0
   -2.7955    0.9793  -25.2088 C   0  0  0  0  0  0  0  0  0  0  0  0
   -1.9629    0.9488  -23.9404 C   0  0  0  0  0  0  0  0  0  0  0  0
   -2.8577   -0.3967  -25.8350 C   0  0  0  0  0  0  0  0  0  0  0  0
 29 30  1  0  0  0
 30 31  1  0  0  0
 30 33  1  0  0  0
 31 32  2  0  0  0
 31 28  1  0  0  0
 28  1  1  0  0  0
  1  2  1  0  0  0
  3  2  1  0  0  0
  3  4  1  0  0  0
  3  9  1  0  0  0
  4  5  2  0  0  0
  4  6  1  0  0  0
  6 18  1  0  0  0
  6  7  1  0  0  0
 18 19  2  0  0  0
 19 20  1  0  0  0
 20 21  2  0  0  0
 21 22  1  0  0  0
 22 23  2  0  0  0
 23 24  1  0  0  0
 24 25  2  0  0  0
 25 26  1  0  0  0
 26 27  2  0  0  0
 27 18  1  0  0  0
 27 22  1  0  0  0
  7  8  1  0  0  0
  8 34  1  0  0  0
  8  3  1  0  0  0
 34 35  1  0  0  0
 35 36  1  0  0  0
 36 37  1  0  0  0
 36 38  1  0  0  0
  9 10  2  0  0  0
 10 11  1  0  0  0
 11 12  1  0  0  0
 11 13  2  0  0  0
 13 14  1  0  0  0
 14 15  2  0  0  0
 15 16  1  0  0  0
 15  9  1  0  0  0
 16 17  2  0  0  0
 16  1  1  0  0  0
M  END
> <minimizedAffinity>
-6.47298

> <CNNscore>
0.2978194952

> <CNNaffinity>
6.0177831650

> <CNN_VS>
1.7922132015

> <CNNaffinity_variance>
0.0685114339

$$$$



 38 42  0  0  0  0  0  0  0  0999 V2000
   -5.5134   -0.9304  -21.0785 N   0  0  0  0  0  0  0  0  0  0  0  0
   -5.7022   -1.1496  -22.5020 C   0  0  0  0  0  0  0  0  0  0  0  0
   -6.3625    0.0772  -23.0778 C   0  0  0  0  0  0  0  0  0  0  0  0
   -7.7360    0.1105  -22.5054 C   0  0  0  0  0  0  0  0  0  0  0  0
   -8.0721    0.6787  -21.4166 O   0  0  0  0  0  0  0  0  0  0  0  0
   -8.5700   -0.6074  -23.4086 N   0  0  0  0  0  0  0  0  0  0  0  0
   -7.7534   -1.1221  -24.4936 C   0  0  0  0  0  0  0  0  0  0  0  0
   -6.6848   -0.0351  -24.5439 C   0  0  0  0  0  0  0  0  0  0  0  0
   -5.5941    1.2927  -22.7486 C   0  0  0  0  0  0  0  0  0  0  0  0
   -5.5798    2.4342  -23.5256 C   0  0  0  0  0  0  0  0  0  0  0  0
   -4.8456    3.5634  -23.1836 C   0  0  0  0  0  0  0  0  0  0  0  0
   -4.8619    4.9997  -24.2140 Cl  0  0  0  0  0  0  0  0  0  0  0  0
   -4.0854    3.5957  -22.0338 C   0  0  0  0  0  0  0  0  0  0  0  0
   -4.0878    2.4663  -21.2470 C   0  0  0  0  0  0  0  0  0  0  0  0
   -4.8093    1.3635  -21.5878 C   0  0  0  0  0  0  0  0  0  0  0  0
   -4.7516    0.2088  -20.6956 C   0  0  0  0  0  0  0  0  0  0  0  0
   -4.0742    0.1874  -19.6351 O   0  0  0  0  0  0  0  0  0  0  0  0
   -9.9790   -0.7828  -23.2581 C   0  0  0  0  0  0  0  0  0  0  0  0
  -10.3788   -2.0760  -22.8981 C   0  0  0  0  0  0  0  0  0  0  0  0
  -11.6749   -2.3351  -22.7345 N   0  0  0  0  0  0  0  0  0  0  0  0
  -12.6028   -1.3733  -22.9102 C   0  0  0  0  0  0  0  0  0  0  0  0
  -12.2347   -0.1111  -23.2598 C   0  0  0  0  0  0  0  0  0  0  0  0
  -13.1937    0.8665  -23.4369 C   0  0  0  0  0  0  0  0  0  0  0  0
  -12.7865    2.1463  -23.7937 C   0  0  0  0  0  0  0  0  0  0  0  0
  -11.4324    2.4391  -23.9703 C   0  0  0  0  0  0  0  0  0  0  0  0
  -10.4730    1.4642  -23.7941 C   0  0  0  0  0  0  0  0  0  0  0  0
  -10.8963    0.2138  -23.4434 C   0  0  0  0  0  0  0  0  0  0  0  0
   -6.0617   -1.8166  -20.0635 C   0  0  0  0  0  0  0  0  0  0  0  0
   -5.4764   -5.2357  -21.7544 C   0  0  0  0  0  0  0  0  0  0  0  0
   -5.8661   -3.8550  -21.4704 N   0  0  0  0  0  0  0  0  0  0  0  0
   -5.6180   -3.2247  -20.2302 C   0  0  0  0  0  0  0  0  0  0  0  0
   -5.0372   -3.8520  -19.3052 O   0  0  0  0  0  0  0  0  0  0  0  0
   -6.3222   -3.3411  -22.1755 H   0  0  0  0  0  0  0  0  0  0  0  0
   -5.5499   -0.3644  -25.4178 C   0  0  0  0  0  0  0  0  0  0  0  0
   -5.5945    0.3757  -26.5622 O   0  0  0  0  0  0  0  0  0  0  0  0
   -4.5030    1.0792  -26.9403 C   0  0  0  0  0  0  0  0  0  0  0  0
   -4.7453    2.5711  -27.0755 C   0  0  0  0  0  0  0  0  0  0  0  0
   -3.3669    0.8120  -25.9775 C   0  0  0  0  0  0  0  0  0  0  0  0
 29 30  1  0  0  0
 30 31  1  0  0  0
 30 33  1  0  0  0
 31 32  2  0  0  0
 31 28  1  0  0  0
 28  1  1  0  0  0
  1  2  1  0  0  0
  3  2  1  0  0  0
  3  4  1  0  0  0
  3  9  1  0  0  0
  4  5  2  0  0  0
  4  6  1  0  0  0
  6 18  1  0  0  0
  6  7  1  0  0  0
 18 19  2  0  0  0
 19 20  1  0  0  0
 20 21  2  0  0  0
 21 22  1  0  0  0
 22 23  2  0  0  0
 23 24  1  0  0  0
 24 25  2  0  0  0
 25 26  1  0  0  0
 26 27  2  0  0  0
 27 18  1  0  0  0
 27 22  1  0  0  0
  7  8  1  0  0  0
  8 34  1  0  0  0
  8  3  1  0  0  0
 34 35  1  0  0  0
 35 36  1  0  0  0
 36 37  1  0  0  0
 36 38  1  0  0  0
  9 10  2  0  0  0
 10 11  1  0  0  0
 11 12  1  0  0  0
 11 13  2  0  0  0
 13 14  1  0  0  0
 14 15  2  0  0  0
 15 16  1  0  0  0
 15  9  1  0  0  0
 16 17  2  0  0  0
 16  1  1  0  0  0
M  END
> <minimizedAffinity>
-7.68042

> <CNNscore>
0.2859067619

> <CNNaffinity>
6.0078530312

> <CNN_VS>
1.7176858187

> <CNNaffinity_variance>
0.1265573651

$$$$



 38 42  0  0  0  0  0  0  0  0999 V2000
   -5.8020   -0.9045  -23.2396 N   0  0  0  0  0  0  0  0  0  0  0  0
   -6.5423   -2.0377  -22.7124 C   0  0  0  0  0  0  0  0  0  0  0  0
   -7.3606   -2.6219  -23.8356 C   0  0  0  0  0  0  0  0  0  0  0  0
   -8.3943   -1.6024  -24.1631 C   0  0  0  0  0  0  0  0  0  0  0  0
   -8.2640   -0.6592  -25.0086 O   0  0  0  0  0  0  0  0  0  0  0  0
   -9.5272   -1.8980  -23.3533 N   0  0  0  0  0  0  0  0  0  0  0  0
   -9.2141   -3.0340  -22.5045 C   0  0  0  0  0  0  0  0  0  0  0  0
   -8.2388   -3.7705  -23.4169 C   0  0  0  0  0  0  0  0  0  0  0  0
   -6.5088   -2.9419  -24.9968 C   0  0  0  0  0  0  0  0  0  0  0  0
   -6.7886   -3.9377  -25.9117 C   0  0  0  0  0  0  0  0  0  0  0  0
   -5.9642   -4.2106  -26.9967 C   0  0  0  0  0  0  0  0  0  0  0  0
   -6.3687   -5.4974  -28.1393 Cl  0  0  0  0  0  0  0  0  0  0  0  0
   -4.8103   -3.4875  -27.2124 C   0  0  0  0  0  0  0  0  0  0  0  0
   -4.5156   -2.4907  -26.3100 C   0  0  0  0  0  0  0  0  0  0  0  0
   -5.3275   -2.2285  -25.2494 C   0  0  0  0  0  0  0  0  0  0  0  0
   -4.9360   -1.1543  -24.3407 C   0  0  0  0  0  0  0  0  0  0  0  0
   -3.8942   -0.4648  -24.4931 O   0  0  0  0  0  0  0  0  0  0  0  0
  -10.7634   -1.1841  -23.3835 C   0  0  0  0  0  0  0  0  0  0  0  0
  -11.9102   -1.9833  -23.2927 C   0  0  0  0  0  0  0  0  0  0  0  0
  -13.1099   -1.4054  -23.3125 N   0  0  0  0  0  0  0  0  0  0  0  0
  -13.2344   -0.0674  -23.4184 C   0  0  0  0  0  0  0  0  0  0  0  0
  -12.1329    0.7260  -23.5077 C   0  0  0  0  0  0  0  0  0  0  0  0
  -12.2721    2.0956  -23.6156 C   0  0  0  0  0  0  0  0  0  0  0  0
  -11.1283    2.8794  -23.7048 C   0  0  0  0  0  0  0  0  0  0  0  0
   -9.8606    2.2935  -23.6859 C   0  0  0  0  0  0  0  0  0  0  0  0
   -9.7193    0.9258  -23.5784 C   0  0  0  0  0  0  0  0  0  0  0  0
  -10.8573    0.1754  -23.4918 C   0  0  0  0  0  0  0  0  0  0  0  0
   -5.9148    0.4374  -22.6895 C   0  0  0  0  0  0  0  0  0  0  0  0
   -4.7370    0.4445  -19.0146 C   0  0  0  0  0  0  0  0  0  0  0  0
   -4.7860    0.4376  -20.4763 N   0  0  0  0  0  0  0  0  0  0  0  0
   -5.9961    0.4449  -21.2060 C   0  0  0  0  0  0  0  0  0  0  0  0
   -7.1009    0.4572  -20.6014 O   0  0  0  0  0  0  0  0  0  0  0  0
   -3.9370    0.4275  -20.9747 H   0  0  0  0  0  0  0  0  0  0  0  0
   -7.5475   -4.8888  -22.7601 C   0  0  0  0  0  0  0  0  0  0  0  0
   -7.8015   -6.0595  -23.4114 O   0  0  0  0  0  0  0  0  0  0  0  0
   -6.8888   -7.0565  -23.3644 C   0  0  0  0  0  0  0  0  0  0  0  0
   -5.7150   -6.8652  -24.3070 C   0  0  0  0  0  0  0  0  0  0  0  0
   -6.4031   -7.2349  -21.9426 C   0  0  0  0  0  0  0  0  0  0  0  0
 29 30  1  0  0  0
 30 31  1  0  0  0
 30 33  1  0  0  0
 31 32  2  0  0  0
 31 28  1  0  0  0
 28  1  1  0  0  0
  1  2  1  0  0  0
  3  2  1  0  0  0
  3  4  1  0  0  0
  3  9  1  0  0  0
  4  5  2  0  0  0
  4  6  1  0  0  0
  6 18  1  0  0  0
  6  7  1  0  0  0
 18 19  2  0  0  0
 19 20  1  0  0  0
 20 21  2  0  0  0
 21 22  1  0  0  0
 22 23  2  0  0  0
 23 24  1  0  0  0
 24 25  2  0  0  0
 25 26  1  0  0  0
 26 27  2  0  0  0
 27 18  1  0  0  0
 27 22  1  0  0  0
  7  8  1  0  0  0
  8 34  1  0  0  0
  8  3  1  0  0  0
 34 35  1  0  0  0
 35 36  1  0  0  0
 36 37  1  0  0  0
 36 38  1  0  0  0
  9 10  2  0  0  0
 10 11  1  0  0  0
 11 12  1  0  0  0
 11 13  2  0  0  0
 13 14  1  0  0  0
 14 15  2  0  0  0
 15 16  1  0  0  0
 15  9  1  0  0  0
 16 17  2  0  0  0
 16  1  1  0  0  0
M  END
> <minimizedAffinity>
-7.22617

> <CNNscore>
0.1600044668

> <CNNaffinity>
5.9776062965

> <CNN_VS>
0.9564437270

> <CNNaffinity_variance>
0.4276794791

$$$$



 24 27  0  0  0  0  0  0  0  0999 V2000
  -12.0558   -2.6866  -22.8462 C   0  0  0  0  0  0  0  0  0  0  0  0
  -10.6551   -2.3199  -23.2817 C   0  0  0  0  0  0  0  0  0  0  0  0
  -10.3794   -2.8420  -24.6714 C   0  0  0  0  0  0  0  0  0  0  0  0
   -9.0434   -2.8083  -24.9826 O   0  0  0  0  0  0  0  0  0  0  0  0
   -8.3108   -1.9502  -24.1774 C   0  0  0  0  0  0  0  0  0  0  0  0
   -8.2814   -2.3908  -22.7400 C   0  0  0  0  0  0  0  0  0  0  0  0
   -9.6316   -2.9315  -22.3485 C   0  0  0  0  0  0  0  0  0  0  0  0
   -7.2232   -3.3548  -22.5166 N   0  0  0  0  0  0  0  0  0  0  0  0
   -6.3615   -2.8981  -21.4800 C   0  0  0  0  0  0  0  0  0  0  0  0
   -5.3898   -3.5550  -21.0094 O   0  0  0  0  0  0  0  0  0  0  0  0
   -6.7715   -1.5912  -21.0651 N   0  0  0  0  0  0  0  0  0  0  0  0
   -7.8899   -1.2698  -21.8657 C   0  0  0  0  0  0  0  0  0  0  0  0
   -8.4703   -0.1523  -21.8234 O   0  0  0  0  0  0  0  0  0  0  0  0
   -7.1159   -4.2006  -23.0090 H   0  0  0  0  0  0  0  0  0  0  0  0
   -6.1107   -0.8699  -20.0490 C   0  0  0  0  0  0  0  0  0  0  0  0
   -6.4612   -0.8496  -18.7341 C   0  0  0  0  0  0  0  0  0  0  0  0
   -5.7614   -0.1228  -17.8292 N   0  0  0  0  0  0  0  0  0  0  0  0
   -4.6857    0.6146  -18.1857 C   0  0  0  0  0  0  0  0  0  0  0  0
   -4.2875    0.6283  -19.5105 C   0  0  0  0  0  0  0  0  0  0  0  0
   -3.1828    1.3736  -19.9312 C   0  0  0  0  0  0  0  0  0  0  0  0
   -2.7932    1.3771  -21.2727 C   0  0  0  0  0  0  0  0  0  0  0  0
   -3.5205    0.6298  -22.1763 C   0  0  0  0  0  0  0  0  0  0  0  0
   -4.6052   -0.1024  -21.7649 C   0  0  0  0  0  0  0  0  0  0  0  0
   -5.0030   -0.1153  -20.4380 C   0  0  0  0  0  0  0  0  0  0  0  0
  2  1  1  0  0  0
  2  3  1  0  0  0
  3  4  1  0  0  0
  4  5  1  0  0  0
  6  5  1  0  0  0
  6  7  1  0  0  0
  6  8  1  0  0  0
  6 12  1  0  0  0
  7  2  1  0  0  0
  8  9  1  0  0  0
  8 14  1  0  0  0
  9 10  2  0  0  0
  9 11  1  0  0  0
 11 15  1  0  0  0
 11 12  1  0  0  0
 15 16  2  0  0  0
 16 17  1  0  0  0
 17 18  2  0  0  0
 18 19  1  0  0  0
 19 20  2  0  0  0
 20 21  1  0  0  0
 21 22  2  0  0  0
 22 23  1  0  0  0
 23 24  2  0  0  0
 24 15  1  0  0  0
 24 19  1  0  0  0
 12 13  2  0  0  0
M  END
> <minimizedAffinity>
-7.72244

> <CNNscore>
0.7984681726

> <CNNaffinity>
5.3149824142

> <CNN_VS>
4.2438445091

> <CNNaffinity_variance>
0.1322064996

$$$$



 24 27  0  0  0  0  0  0  0  0999 V2000
   -4.8995   -5.0574  -25.7202 C   0  0  0  0  0  0  0  0  0  0  0  0
   -5.9012   -4.9975  -24.5893 C   0  0  0  0  0  0  0  0  0  0  0  0
   -7.1607   -5.7444  -24.9580 C   0  0  0  0  0  0  0  0  0  0  0  0
   -8.1998   -5.4604  -24.1080 O   0  0  0  0  0  0  0  0  0  0  0  0
   -7.7916   -4.9176  -22.8996 C   0  0  0  0  0  0  0  0  0  0  0  0
   -7.1476   -3.5683  -23.0606 C   0  0  0  0  0  0  0  0  0  0  0  0
   -6.2858   -3.5628  -24.2960 C   0  0  0  0  0  0  0  0  0  0  0  0
   -8.1464   -2.5192  -23.0887 N   0  0  0  0  0  0  0  0  0  0  0  0
   -7.8684   -1.5572  -22.0773 C   0  0  0  0  0  0  0  0  0  0  0  0
   -8.5194   -0.4884  -21.9013 O   0  0  0  0  0  0  0  0  0  0  0  0
   -6.7462   -1.9942  -21.3040 N   0  0  0  0  0  0  0  0  0  0  0  0
   -6.3546   -3.2303  -21.8643 C   0  0  0  0  0  0  0  0  0  0  0  0
   -5.4344   -3.9447  -21.3843 O   0  0  0  0  0  0  0  0  0  0  0  0
   -8.9051   -2.4777  -23.7148 H   0  0  0  0  0  0  0  0  0  0  0  0
   -6.2276   -1.2514  -20.2229 C   0  0  0  0  0  0  0  0  0  0  0  0
   -6.6857   -1.2894  -18.9419 C   0  0  0  0  0  0  0  0  0  0  0  0
   -6.1196   -0.5356  -17.9683 N   0  0  0  0  0  0  0  0  0  0  0  0
   -5.0769    0.2877  -18.2196 C   0  0  0  0  0  0  0  0  0  0  0  0
   -4.5733    0.3633  -19.5058 C   0  0  0  0  0  0  0  0  0  0  0  0
   -3.4972    1.1983  -19.8186 C   0  0  0  0  0  0  0  0  0  0  0  0
   -3.0000    1.2636  -21.1224 C   0  0  0  0  0  0  0  0  0  0  0  0
   -3.5919    0.4872  -22.0974 C   0  0  0  0  0  0  0  0  0  0  0  0
   -4.6484   -0.3329  -21.7921 C   0  0  0  0  0  0  0  0  0  0  0  0
   -5.1519   -0.4078  -20.5037 C   0  0  0  0  0  0  0  0  0  0  0  0
  2  1  1  0  0  0
  2  3  1  0  0  0
  3  4  1  0  0  0
  4  5  1  0  0  0
  6  5  1  0  0  0
  6  7  1  0  0  0
  6  8  1  0  0  0
  6 12  1  0  0  0
  7  2  1  0  0  0
  8  9  1  0  0  0
  8 14  1  0  0  0
  9 10  2  0  0  0
  9 11  1  0  0  0
 11 15  1  0  0  0
 11 12  1  0  0  0
 15 16  2  0  0  0
 16 17  1  0  0  0
 17 18  2  0  0  0
 18 19  1  0  0  0
 19 20  2  0  0  0
 20 21  1  0  0  0
 21 22  2  0  0  0
 22 23  1  0  0  0
 23 24  2  0  0  0
 24 15  1  0  0  0
 24 19  1  0  0  0
 12 13  2  0  0  0
M  END
> <minimizedAffinity>
-7.52404

> <CNNscore>
0.6983617544

> <CNNaffinity>
5.2761712074

> <CNN_VS>
3.6846761703

> <CNNaffinity_variance>
0.1845474988

$$$$



 24 27  0  0  0  0  0  0  0  0999 V2000
   -3.6689    1.6224  -19.8795 C   0  0  0  0  0  0  0  0  0  0  0  0
   -4.8191    0.6589  -19.6926 C   0  0  0  0  0  0  0  0  0  0  0  0
   -5.0093    0.3396  -18.2291 C   0  0  0  0  0  0  0  0  0  0  0  0
   -5.8209   -0.7501  -18.0371 O   0  0  0  0  0  0  0  0  0  0  0  0
   -6.6062   -1.0539  -19.1382 C   0  0  0  0  0  0  0  0  0  0  0  0
   -5.7923   -1.4817  -20.3280 C   0  0  0  0  0  0  0  0  0  0  0  0
   -4.5445   -0.6425  -20.4160 C   0  0  0  0  0  0  0  0  0  0  0  0
   -5.4928   -2.8979  -20.2670 N   0  0  0  0  0  0  0  0  0  0  0  0
   -5.9484   -3.5418  -21.4516 C   0  0  0  0  0  0  0  0  0  0  0  0
   -5.7659   -4.7624  -21.7237 O   0  0  0  0  0  0  0  0  0  0  0  0
   -6.6372   -2.5923  -22.2714 N   0  0  0  0  0  0  0  0  0  0  0  0
   -6.5890   -1.3708  -21.5637 C   0  0  0  0  0  0  0  0  0  0  0  0
   -7.1652   -0.3219  -21.9580 O   0  0  0  0  0  0  0  0  0  0  0  0
   -5.0411   -3.3482  -19.5170 H   0  0  0  0  0  0  0  0  0  0  0  0
   -7.2071   -2.9296  -23.5169 C   0  0  0  0  0  0  0  0  0  0  0  0
   -6.5163   -3.2165  -24.6538 C   0  0  0  0  0  0  0  0  0  0  0  0
   -7.1557   -3.5305  -25.8067 N   0  0  0  0  0  0  0  0  0  0  0  0
   -8.5048   -3.5742  -25.8847 C   0  0  0  0  0  0  0  0  0  0  0  0
   -9.2542   -3.2906  -24.7568 C   0  0  0  0  0  0  0  0  0  0  0  0
  -10.6510   -3.3218  -24.7838 C   0  0  0  0  0  0  0  0  0  0  0  0
  -11.3936   -3.0330  -23.6364 C   0  0  0  0  0  0  0  0  0  0  0  0
  -10.7214   -2.7159  -22.4740 C   0  0  0  0  0  0  0  0  0  0  0  0
   -9.3502   -2.6848  -22.4458 C   0  0  0  0  0  0  0  0  0  0  0  0
   -8.6009   -2.9689  -23.5758 C   0  0  0  0  0  0  0  0  0  0  0  0
  2  1  1  0  0  0
  2  3  1  0  0  0
  3  4  1  0  0  0
  4  5  1  0  0  0
  6  5  1  0  0  0
  6  7  1  0  0  0
  6  8  1  0  0  0
  6 12  1  0  0  0
  7  2  1  0  0  0
  8  9  1  0  0  0
  8 14  1  0  0  0
  9 10  2  0  0  0
  9 11  1  0  0  0
 11 15  1  0  0  0
 11 12  1  0  0  0
 15 16  2  0  0  0
 16 17  1  0  0  0
 17 18  2  0  0  0
 18 19  1  0  0  0
 19 20  2  0  0  0
 20 21  1  0  0  0
 21 22  2  0  0  0
 22 23  1  0  0  0
 23 24  2  0  0  0
 24 15  1  0  0  0
 24 19  1  0  0  0
 12 13  2  0  0  0
M  END
> <minimizedAffinity>
-7.33029

> <CNNscore>
0.4965935051

> <CNNaffinity>
5.1016449928

> <CNN_VS>
2.5334436893

> <CNNaffinity_variance>
0.2063952982

$$$$



 24 27  0  0  0  0  0  0  0  0999 V2000
   -7.0867   -6.7070  -25.9450 C   0  0  0  0  0  0  0  0  0  0  0  0
   -7.0997   -5.2063  -25.7609 C   0  0  0  0  0  0  0  0  0  0  0  0
   -5.7007   -4.6481  -25.8667 C   0  0  0  0  0  0  0  0  0  0  0  0
   -5.6203   -3.3586  -25.4046 O   0  0  0  0  0  0  0  0  0  0  0  0
   -6.8475   -2.7168  -25.3437 C   0  0  0  0  0  0  0  0  0  0  0  0
   -7.7790   -3.3449  -24.3443 C   0  0  0  0  0  0  0  0  0  0  0  0
   -7.6379   -4.8438  -24.3929 C   0  0  0  0  0  0  0  0  0  0  0  0
   -7.5421   -2.8186  -23.0154 N   0  0  0  0  0  0  0  0  0  0  0  0
   -8.7476   -2.2790  -22.4851 C   0  0  0  0  0  0  0  0  0  0  0  0
   -8.8759   -1.8136  -21.3171 O   0  0  0  0  0  0  0  0  0  0  0  0
   -9.7752   -2.3498  -23.4787 N   0  0  0  0  0  0  0  0  0  0  0  0
   -9.1710   -2.9386  -24.6116 C   0  0  0  0  0  0  0  0  0  0  0  0
   -9.7673   -3.0897  -25.7111 O   0  0  0  0  0  0  0  0  0  0  0  0
   -6.6755   -2.8321  -22.5484 H   0  0  0  0  0  0  0  0  0  0  0  0
  -11.0895   -1.8907  -23.2524 C   0  0  0  0  0  0  0  0  0  0  0  0
  -12.1398   -2.6576  -22.8513 C   0  0  0  0  0  0  0  0  0  0  0  0
  -13.3704   -2.1232  -22.6599 N   0  0  0  0  0  0  0  0  0  0  0  0
  -13.6150   -0.8081  -22.8569 C   0  0  0  0  0  0  0  0  0  0  0  0
  -12.5811    0.0155  -23.2652 C   0  0  0  0  0  0  0  0  0  0  0  0
  -12.7807    1.3814  -23.4829 C   0  0  0  0  0  0  0  0  0  0  0  0
  -11.7265    2.2000  -23.8951 C   0  0  0  0  0  0  0  0  0  0  0  0
  -10.4823    1.6340  -24.0837 C   0  0  0  0  0  0  0  0  0  0  0  0
  -10.2846    0.2934  -23.8704 C   0  0  0  0  0  0  0  0  0  0  0  0
  -11.3207   -0.5304  -23.4616 C   0  0  0  0  0  0  0  0  0  0  0  0
  2  1  1  0  0  0
  2  3  1  0  0  0
  3  4  1  0  0  0
  4  5  1  0  0  0
  6  5  1  0  0  0
  6  7  1  0  0  0
  6  8  1  0  0  0
  6 12  1  0  0  0
  7  2  1  0  0  0
  8  9  1  0  0  0
  8 14  1  0  0  0
  9 10  2  0  0  0
  9 11  1  0  0  0
 11 15  1  0  0  0
 11 12  1  0  0  0
 15 16  2  0  0  0
 16 17  1  0  0  0
 17 18  2  0  0  0
 18 19  1  0  0  0
 19 20  2  0  0  0
 20 21  1  0  0  0
 21 22  2  0  0  0
 22 23  1  0  0  0
 23 24  2  0  0  0
 24 15  1  0  0  0
 24 19  1  0  0  0
 12 13  2  0  0  0
M  END
> <minimizedAffinity>
-6.46202

> <CNNscore>
0.4756892025

> <CNNaffinity>
5.0651249886

> <CNN_VS>
2.4094252586

> <CNNaffinity_variance>
0.1622109562

$$$$



 24 27  0  0  0  0  0  0  0  0999 V2000
  -10.6004   -6.2263  -26.7265 C   0  0  0  0  0  0  0  0  0  0  0  0
   -9.4280   -5.5085  -26.0968 C   0  0  0  0  0  0  0  0  0  0  0  0
   -8.3772   -6.4984  -25.6543 C   0  0  0  0  0  0  0  0  0  0  0  0
   -7.4539   -5.9328  -24.8115 O   0  0  0  0  0  0  0  0  0  0  0  0
   -7.4207   -4.5486  -24.8785 C   0  0  0  0  0  0  0  0  0  0  0  0
   -8.6997   -3.9164  -24.4034 C   0  0  0  0  0  0  0  0  0  0  0  0
   -9.8740   -4.7333  -24.8751 C   0  0  0  0  0  0  0  0  0  0  0  0
   -8.6923   -3.7545  -22.9637 N   0  0  0  0  0  0  0  0  0  0  0  0
   -8.9206   -2.3905  -22.6276 C   0  0  0  0  0  0  0  0  0  0  0  0
   -9.0426   -1.9497  -21.4494 O   0  0  0  0  0  0  0  0  0  0  0  0
   -8.9882   -1.6124  -23.8267 N   0  0  0  0  0  0  0  0  0  0  0  0
   -8.7975   -2.5267  -24.8864 C   0  0  0  0  0  0  0  0  0  0  0  0
   -8.7226   -2.1767  -26.0945 O   0  0  0  0  0  0  0  0  0  0  0  0
   -8.5502   -4.4805  -22.3140 H   0  0  0  0  0  0  0  0  0  0  0  0
   -9.2062   -0.2188  -23.8220 C   0  0  0  0  0  0  0  0  0  0  0  0
   -8.2390    0.7358  -23.8938 C   0  0  0  0  0  0  0  0  0  0  0  0
   -8.5486    2.0552  -23.8822 N   0  0  0  0  0  0  0  0  0  0  0  0
   -9.8272    2.4867  -23.7992 C   0  0  0  0  0  0  0  0  0  0  0  0
  -10.8485    1.5565  -23.7238 C   0  0  0  0  0  0  0  0  0  0  0  0
  -12.1867    1.9497  -23.6365 C   0  0  0  0  0  0  0  0  0  0  0  0
  -13.2066    0.9982  -23.5611 C   0  0  0  0  0  0  0  0  0  0  0  0
  -12.8679   -0.3393  -23.5745 C   0  0  0  0  0  0  0  0  0  0  0  0
  -11.5548   -0.7270  -23.6602 C   0  0  0  0  0  0  0  0  0  0  0  0
  -10.5330    0.2054  -23.7355 C   0  0  0  0  0  0  0  0  0  0  0  0
  2  1  1  0  0  0
  2  3  1  0  0  0
  3  4  1  0  0  0
  4  5  1  0  0  0
  6  5  1  0  0  0
  6  7  1  0  0  0
  6  8  1  0  0  0
  6 12  1  0  0  0
  7  2  1  0  0  0
  8  9  1  0  0  0
  8 14  1  0  0  0
  9 10  2  0  0  0
  9 11  1  0  0  0
 11 15  1  0  0  0
 11 12  1  0  0  0
 15 16  2  0  0  0
 16 17  1  0  0  0
 17 18  2  0  0  0
 18 19  1  0  0  0
 19 20  2  0  0  0
 20 21  1  0  0  0
 21 22  2  0  0  0
 22 23  1  0  0  0
 23 24  2  0  0  0
 24 15  1  0  0  0
 24 19  1  0  0  0
 12 13  2  0  0  0
M  END
> <minimizedAffinity>
-6.81522

> <CNNscore>
0.4562554359

> <CNNaffinity>
5.0446214676

> <CNN_VS>
2.3016359806

> <CNNaffinity_variance>
0.1108925790

$$$$



 24 27  0  0  0  0  0  0  0  0999 V2000
   -6.4667   -3.7775  -26.3601 C   0  0  0  0  0  0  0  0  0  0  0  0
   -7.3442   -3.7184  -25.1301 C   0  0  0  0  0  0  0  0  0  0  0  0
   -8.7509   -4.1552  -25.4623 C   0  0  0  0  0  0  0  0  0  0  0  0
   -9.6432   -3.8268  -24.4730 O   0  0  0  0  0  0  0  0  0  0  0  0
   -9.0418   -3.5677  -23.2513 C   0  0  0  0  0  0  0  0  0  0  0  0
   -8.1605   -2.3498  -23.2879 C   0  0  0  0  0  0  0  0  0  0  0  0
   -7.4153   -2.3034  -24.5961 C   0  0  0  0  0  0  0  0  0  0  0  0
   -8.9330   -1.1459  -23.0583 N   0  0  0  0  0  0  0  0  0  0  0  0
   -8.3923   -0.4250  -21.9567 C   0  0  0  0  0  0  0  0  0  0  0  0
   -8.8049    0.7022  -21.5612 O   0  0  0  0  0  0  0  0  0  0  0  0
   -7.3199   -1.1767  -21.3797 N   0  0  0  0  0  0  0  0  0  0  0  0
   -7.2241   -2.3575  -22.1490 C   0  0  0  0  0  0  0  0  0  0  0  0
   -6.4268   -3.2946  -21.8779 O   0  0  0  0  0  0  0  0  0  0  0  0
   -9.7162   -0.8676  -23.5861 H   0  0  0  0  0  0  0  0  0  0  0  0
   -6.5814   -0.7233  -20.2668 C   0  0  0  0  0  0  0  0  0  0  0  0
   -6.9077   -0.9276  -18.9614 C   0  0  0  0  0  0  0  0  0  0  0  0
   -6.1317   -0.4507  -17.9579 N   0  0  0  0  0  0  0  0  0  0  0  0
   -5.0005    0.2484  -18.2021 C   0  0  0  0  0  0  0  0  0  0  0  0
   -4.6239    0.4839  -19.5123 C   0  0  0  0  0  0  0  0  0  0  0  0
   -3.4641    1.2008  -19.8190 C   0  0  0  0  0  0  0  0  0  0  0  0
   -3.0972    1.4303  -21.1472 C   0  0  0  0  0  0  0  0  0  0  0  0
   -3.9024    0.9353  -22.1524 C   0  0  0  0  0  0  0  0  0  0  0  0
   -5.0412    0.2315  -21.8531 C   0  0  0  0  0  0  0  0  0  0  0  0
   -5.4174   -0.0037  -20.5407 C   0  0  0  0  0  0  0  0  0  0  0  0
  2  1  1  0  0  0
  2  3  1  0  0  0
  3  4  1  0  0  0
  4  5  1  0  0  0
  6  5  1  0  0  0
  6  7  1  0  0  0
  6  8  1  0  0  0
  6 12  1  0  0  0
  7  2  1  0  0  0
  8  9  1  0  0  0
  8 14  1  0  0  0
  9 10  2  0  0  0
  9 11  1  0  0  0
 11 15  1  0  0  0
 11 12  1  0  0  0
 15 16  2  0  0  0
 16 17  1  0  0  0
 17 18  2  0  0  0
 18 19  1  0  0  0
 19 20  2  0  0  0
 20 21  1  0  0  0
 21 22  2  0  0  0
 22 23  1  0  0  0
 23 24  2  0  0  0
 24 15  1  0  0  0
 24 19  1  0  0  0
 12 13  2  0  0  0
M  END
> <minimizedAffinity>
-7.39435

> <CNNscore>
0.4544990063

> <CNNaffinity>
5.0228624344

> <CNN_VS>
2.2828860283

> <CNNaffinity_variance>
0.1900894195

$$$$



 24 27  0  0  0  0  0  0  0  0999 V2000
   -4.4820    4.2216  -26.0706 C   0  0  0  0  0  0  0  0  0  0  0  0
   -4.1192    4.4543  -24.6213 C   0  0  0  0  0  0  0  0  0  0  0  0
   -3.1912    5.6383  -24.4917 C   0  0  0  0  0  0  0  0  0  0  0  0
   -2.5951    5.6976  -23.2572 O   0  0  0  0  0  0  0  0  0  0  0  0
   -3.2551    4.9561  -22.2896 C   0  0  0  0  0  0  0  0  0  0  0  0
   -3.2278    3.4799  -22.5745 C   0  0  0  0  0  0  0  0  0  0  0  0
   -3.4063    3.2460  -24.0518 C   0  0  0  0  0  0  0  0  0  0  0  0
   -2.0092    2.8791  -22.0715 N   0  0  0  0  0  0  0  0  0  0  0  0
   -2.3247    1.8118  -21.1843 C   0  0  0  0  0  0  0  0  0  0  0  0
   -1.4741    1.0495  -20.6434 O   0  0  0  0  0  0  0  0  0  0  0  0
   -3.7434    1.7459  -21.0088 N   0  0  0  0  0  0  0  0  0  0  0  0
   -4.2751    2.7869  -21.8018 C   0  0  0  0  0  0  0  0  0  0  0  0
   -5.5016    3.0738  -21.8317 O   0  0  0  0  0  0  0  0  0  0  0  0
   -1.0978    3.1665  -22.3082 H   0  0  0  0  0  0  0  0  0  0  0  0
   -4.3673    0.7877  -20.1829 C   0  0  0  0  0  0  0  0  0  0  0  0
   -4.4111    0.8203  -18.8231 C   0  0  0  0  0  0  0  0  0  0  0  0
   -5.0371   -0.1506  -18.1145 N   0  0  0  0  0  0  0  0  0  0  0  0
   -5.6463   -1.1948  -18.7199 C   0  0  0  0  0  0  0  0  0  0  0  0
   -5.6307   -1.2753  -20.1010 C   0  0  0  0  0  0  0  0  0  0  0  0
   -6.2452   -2.3335  -20.7758 C   0  0  0  0  0  0  0  0  0  0  0  0
   -6.2208   -2.4006  -22.1709 C   0  0  0  0  0  0  0  0  0  0  0  0
   -5.5776   -1.4010  -22.8715 C   0  0  0  0  0  0  0  0  0  0  0  0
   -4.9738   -0.3615  -22.2106 C   0  0  0  0  0  0  0  0  0  0  0  0
   -4.9901   -0.2820  -20.8277 C   0  0  0  0  0  0  0  0  0  0  0  0
  2  1  1  0  0  0
  2  3  1  0  0  0
  3  4  1  0  0  0
  4  5  1  0  0  0
  6  5  1  0  0  0
  6  7  1  0  0  0
  6  8  1  0  0  0
  6 12  1  0  0  0
  7  2  1  0  0  0
  8  9  1  0  0  0
  8 14  1  0  0  0
  9 10  2  0  0  0
  9 11  1  0  0  0
 11 15  1  0  0  0
 11 12  1  0  0  0
 15 16  2  0  0  0
 16 17  1  0  0  0
 17 18  2  0  0  0
 18 19  1  0  0  0
 19 20  2  0  0  0
 20 21  1  0  0  0
 21 22  2  0  0  0
 22 23  1  0  0  0
 23 24  2  0  0  0
 24 15  1  0  0  0
 24 19  1  0  0  0
 12 13  2  0  0  0
M  END
> <minimizedAffinity>
-5.58821

> <CNNscore>
0.4418311715

> <CNNaffinity>
4.5799117088

> <CNN_VS>
2.0235476494

> <CNNaffinity_variance>
0.1002025828

$$$$



 24 27  0  0  0  0  0  0  0  0999 V2000
   -9.0317   -7.1127  -25.6867 C   0  0  0  0  0  0  0  0  0  0  0  0
   -7.7565   -6.3237  -25.4932 C   0  0  0  0  0  0  0  0  0  0  0  0
   -6.5558   -7.1577  -25.8711 C   0  0  0  0  0  0  0  0  0  0  0  0
   -5.3807   -6.6072  -25.4253 O   0  0  0  0  0  0  0  0  0  0  0  0
   -5.4846   -5.2597  -25.1172 C   0  0  0  0  0  0  0  0  0  0  0  0
   -6.4055   -5.0017  -23.9569 C   0  0  0  0  0  0  0  0  0  0  0  0
   -7.5976   -5.9184  -24.0431 C   0  0  0  0  0  0  0  0  0  0  0  0
   -5.7019   -5.1403  -22.6980 N   0  0  0  0  0  0  0  0  0  0  0  0
   -5.8327   -3.9461  -21.9349 C   0  0  0  0  0  0  0  0  0  0  0  0
   -5.3902   -3.7890  -20.7615 O   0  0  0  0  0  0  0  0  0  0  0  0
   -6.5378   -2.9672  -22.7048 N   0  0  0  0  0  0  0  0  0  0  0  0
   -6.8283   -3.5892  -23.9393 C   0  0  0  0  0  0  0  0  0  0  0  0
   -7.3833   -2.9911  -24.8993 O   0  0  0  0  0  0  0  0  0  0  0  0
   -5.2066   -5.9419  -22.4127 H   0  0  0  0  0  0  0  0  0  0  0  0
   -6.8249   -1.6747  -22.2185 C   0  0  0  0  0  0  0  0  0  0  0  0
   -7.8858   -1.3394  -21.4348 C   0  0  0  0  0  0  0  0  0  0  0  0
   -8.0779   -0.0648  -21.0161 N   0  0  0  0  0  0  0  0  0  0  0  0
   -7.2296    0.9322  -21.3544 C   0  0  0  0  0  0  0  0  0  0  0  0
   -6.1350    0.6443  -22.1500 C   0  0  0  0  0  0  0  0  0  0  0  0
   -5.2281    1.6381  -22.5281 C   0  0  0  0  0  0  0  0  0  0  0  0
   -4.1275    1.3315  -23.3319 C   0  0  0  0  0  0  0  0  0  0  0  0
   -3.9520    0.0272  -23.7463 C   0  0  0  0  0  0  0  0  0  0  0  0
   -4.8413   -0.9496  -23.3760 C   0  0  0  0  0  0  0  0  0  0  0  0
   -5.9371   -0.6601  -22.5793 C   0  0  0  0  0  0  0  0  0  0  0  0
  2  1  1  0  0  0
  2  3  1  0  0  0
  3  4  1  0  0  0
  4  5  1  0  0  0
  6  5  1  0  0  0
  6  7  1  0  0  0
  6  8  1  0  0  0
  6 12  1  0  0  0
  7  2  1  0  0  0
  8  9  1  0  0  0
  8 14  1  0  0  0
  9 10  2  0  0  0
  9 11  1  0  0  0
 11 15  1  0  0  0
 11 12  1  0  0  0
 15 16  2  0  0  0
 16 17  1  0  0  0
 17 18  2  0  0  0
 18 19  1  0  0  0
 19 20  2  0  0  0
 20 21  1  0  0  0
 21 22  2  0  0  0
 22 23  1  0  0  0
 23 24  2  0  0  0
 24 15  1  0  0  0
 24 19  1  0  0  0
 12 13  2  0  0  0
M  END
> <minimizedAffinity>
-5.82487

> <CNNscore>
0.4227975309

> <CNNaffinity>
4.9550409317

> <CNN_VS>
2.0949790478

> <CNNaffinity_variance>
0.0961197987

$$$$



 24 27  0  0  0  0  0  0  0  0999 V2000
  -12.0730   -2.2796  -22.7005 C   0  0  0  0  0  0  0  0  0  0  0  0
  -10.7833   -2.5614  -23.4378 C   0  0  0  0  0  0  0  0  0  0  0  0
  -10.9517   -3.7396  -24.3670 C   0  0  0  0  0  0  0  0  0  0  0  0
   -9.7483   -4.2220  -24.8163 O   0  0  0  0  0  0  0  0  0  0  0  0
   -8.7068   -3.3168  -24.6837 C   0  0  0  0  0  0  0  0  0  0  0  0
   -8.3952   -3.0011  -23.2469 C   0  0  0  0  0  0  0  0  0  0  0  0
   -9.6765   -2.8993  -22.4615 C   0  0  0  0  0  0  0  0  0  0  0  0
   -7.4898   -3.9836  -22.6867 N   0  0  0  0  0  0  0  0  0  0  0  0
   -6.3344   -3.3369  -22.1647 C   0  0  0  0  0  0  0  0  0  0  0  0
   -5.3992   -3.9210  -21.5471 O   0  0  0  0  0  0  0  0  0  0  0  0
   -6.4058   -1.9366  -22.4510 N   0  0  0  0  0  0  0  0  0  0  0  0
   -7.6186   -1.7514  -23.1511 C   0  0  0  0  0  0  0  0  0  0  0  0
   -7.9766   -0.6420  -23.6294 O   0  0  0  0  0  0  0  0  0  0  0  0
   -7.6500   -4.9549  -22.6695 H   0  0  0  0  0  0  0  0  0  0  0  0
   -5.4033   -1.0247  -22.0599 C   0  0  0  0  0  0  0  0  0  0  0  0
   -4.4409   -0.5075  -22.8713 C   0  0  0  0  0  0  0  0  0  0  0  0
   -3.5171    0.3656  -22.4013 N   0  0  0  0  0  0  0  0  0  0  0  0
   -3.5055    0.7645  -21.1095 C   0  0  0  0  0  0  0  0  0  0  0  0
   -4.4626    0.2681  -20.2427 C   0  0  0  0  0  0  0  0  0  0  0  0
   -4.4948    0.6482  -18.8983 C   0  0  0  0  0  0  0  0  0  0  0  0
   -5.4678    0.1381  -18.0355 C   0  0  0  0  0  0  0  0  0  0  0  0
   -6.3981   -0.7494  -18.5359 C   0  0  0  0  0  0  0  0  0  0  0  0
   -6.3680   -1.1236  -19.8554 C   0  0  0  0  0  0  0  0  0  0  0  0
   -5.4090   -0.6259  -20.7225 C   0  0  0  0  0  0  0  0  0  0  0  0
  2  1  1  0  0  0
  2  3  1  0  0  0
  3  4  1  0  0  0
  4  5  1  0  0  0
  6  5  1  0  0  0
  6  7  1  0  0  0
  6  8  1  0  0  0
  6 12  1  0  0  0
  7  2  1  0  0  0
  8  9  1  0  0  0
  8 14  1  0  0  0
  9 10  2  0  0  0
  9 11  1  0  0  0
 11 15  1  0  0  0
 11 12  1  0  0  0
 15 16  2  0  0  0
 16 17  1  0  0  0
 17 18  2  0  0  0
 18 19  1  0  0  0
 19 20  2  0  0  0
 20 21  1  0  0  0
 21 22  2  0  0  0
 22 23  1  0  0  0
 23 24  2  0  0  0
 24 15  1  0  0  0
 24 19  1  0  0  0
 12 13  2  0  0  0
M  END
> <minimizedAffinity>
-7.37034

> <CNNscore>
0.4137803912

> <CNNaffinity>
4.8866491318

> <CNN_VS>
2.0219995975

> <CNNaffinity_variance>
0.2364735305

$$$$
