
     RDKit          3D

 40 45  0  0  0  0  0  0  0  0999 V2000
   -6.2293    1.1359    1.8309 C   0  0  0  0  0  0  0  0  0  0  0  0
   -4.8428    0.8345    2.1921 N   0  0  0  0  0  0  0  0  0  0  0  0
   -4.0547    0.1695    1.2079 C   0  0  0  0  0  0  0  0  0  0  0  0
   -4.5479   -0.1416    0.0715 O   0  0  0  0  0  0  0  0  0  0  0  0
   -2.6144   -0.1922    1.4659 C   0  0  0  0  0  0  0  0  0  0  0  0
   -2.1300   -0.8449    0.2732 N   0  0  0  0  0  0  0  0  0  0  0  0
   -1.5131   -0.1205   -0.8418 C   0  0  0  0  0  0  0  0  0  0  0  0
   -0.1170   -0.6654   -1.0299 C   0  0  2  0  0  0  0  0  0  0  0  0
    0.5088   -0.6675    0.3476 C   0  0  0  0  0  0  0  0  0  0  0  0
   -0.0105   -1.1019    1.4170 O   0  0  0  0  0  0  0  0  0  0  0  0
    1.8034   -0.1029    0.3086 N   0  0  0  0  0  0  0  0  0  0  0  0
    2.6169    0.3013    1.4116 C   0  0  0  0  0  0  0  0  0  0  0  0
    2.5822    1.5701    1.9436 C   0  0  0  0  0  0  0  0  0  0  0  0
    3.4077    1.8090    2.9864 N   0  0  0  0  0  0  0  0  0  0  0  0
    4.2294    0.8951    3.5058 C   0  0  0  0  0  0  0  0  0  0  0  0
    4.3058   -0.3931    3.0122 C   0  0  0  0  0  0  0  0  0  0  0  0
    5.1547   -1.3503    3.5429 C   0  0  0  0  0  0  0  0  0  0  0  0
    5.1752   -2.6158    2.9964 C   0  0  0  0  0  0  0  0  0  0  0  0
    4.3592   -2.9324    1.9294 C   0  0  0  0  0  0  0  0  0  0  0  0
    3.5089   -1.9553    1.4060 C   0  0  0  0  0  0  0  0  0  0  0  0
    3.4660   -0.6760    1.9333 C   0  0  0  0  0  0  0  0  0  0  0  0
    2.1561   -0.0094   -1.0761 C   0  0  0  0  0  0  0  0  0  0  0  0
    0.8198    0.1185   -1.8265 C   0  0  2  0  0  0  0  0  0  0  0  0
    0.5537    1.5719   -1.9073 C   0  0  0  0  0  0  0  0  0  0  0  0
   -0.6605    2.0184   -2.4795 N   0  0  0  0  0  0  0  0  0  0  0  0
   -0.9104    3.4473   -2.4682 C   0  0  0  0  0  0  0  0  0  0  0  0
   -1.5681    4.0449   -1.4061 C   0  0  0  0  0  0  0  0  0  0  0  0
   -1.7548    5.4119   -1.4962 C   0  0  0  0  0  0  0  0  0  0  0  0
   -1.3331    6.1448   -2.5423 N   0  0  0  0  0  0  0  0  0  0  0  0
   -0.6942    5.5174   -3.5587 C   0  0  0  0  0  0  0  0  0  0  0  0
   -0.4851    4.1723   -3.5186 N   0  0  0  0  0  0  0  0  0  0  0  0
   -0.2126   -2.1113   -1.3763 C   0  0  0  0  0  0  0  0  0  0  0  0
    0.6469   -2.7616   -2.2157 C   0  0  0  0  0  0  0  0  0  0  0  0
    0.5269   -4.1153   -2.4546 C   0  0  0  0  0  0  0  0  0  0  0  0
    1.6325   -4.9425   -3.5318 Cl  0  0  0  0  0  0  0  0  0  0  0  0
   -0.4685   -4.8814   -1.8572 C   0  0  0  0  0  0  0  0  0  0  0  0
   -1.3376   -4.2242   -1.0103 C   0  0  0  0  0  0  0  0  0  0  0  0
   -1.2201   -2.8708   -0.7708 C   0  0  0  0  0  0  0  0  0  0  0  0
   -2.2291   -2.2660    0.0905 C   0  0  0  0  0  0  0  0  0  0  0  0
   -3.1465   -2.9200    0.6579 O   0  0  0  0  0  0  0  0  0  0  0  0
  1  2  1  0
  2  3  1  0
  3  4  2  0
  3  5  1  0
  5  6  1  0
  6  7  1  0
  8  7  1  1
  8  9  1  0
  9 10  2  0
  9 11  1  0
 11 12  1  0
 12 13  2  0
 13 14  1  0
 14 15  2  0
 15 16  1  0
 16 17  2  0
 17 18  1  0
 18 19  2  0
 19 20  1  0
 20 21  2  0
 11 22  1  0
 22 23  1  0
 23 24  1  1
 24 25  1  0
 25 26  1  0
 26 27  2  0
 27 28  1  0
 28 29  2  0
 29 30  1  0
 30 31  2  0
  8 32  1  0
 32 33  2  0
 33 34  1  0
 34 35  1  0
 34 36  2  0
 36 37  1  0
 37 38  2  0
 38 39  1  0
 39 40  2  0
 39  6  1  0
 23  8  1  0
 31 26  1  0
 38 32  1  0
 21 12  1  0
 21 16  1  0
M  END
$$$$

     RDKit          3D

 40 45  0  0  0  0  0  0  0  0999 V2000
    5.8777   -1.9876   -1.3106 C   0  0  0  0  0  0  0  0  0  0  0  0
    4.7571   -1.1912   -0.8215 N   0  0  0  0  0  0  0  0  0  0  0  0
    4.1947   -0.2270   -1.6959 C   0  0  0  0  0  0  0  0  0  0  0  0
    4.6939   -0.1162   -2.8373 O   0  0  0  0  0  0  0  0  0  0  0  0
    3.0536    0.6470   -1.3229 C   0  0  0  0  0  0  0  0  0  0  0  0
    2.5732    0.4205    0.0133 N   0  0  0  0  0  0  0  0  0  0  0  0
    1.5277   -0.5550    0.2620 C   0  0  0  0  0  0  0  0  0  0  0  0
    0.4260   -0.0652    1.1352 C   0  0  2  0  0  0  0  0  0  0  0  0
   -0.3356   -1.2899    1.5552 C   0  0  0  0  0  0  0  0  0  0  0  0
   -0.0434   -2.0498    2.5423 O   0  0  0  0  0  0  0  0  0  0  0  0
   -1.4501   -1.4746    0.6688 N   0  0  0  0  0  0  0  0  0  0  0  0
   -2.4959   -2.4411    0.7649 C   0  0  0  0  0  0  0  0  0  0  0  0
   -3.6478   -2.1215    1.4746 C   0  0  0  0  0  0  0  0  0  0  0  0
   -4.6645   -2.9943    1.5972 N   0  0  0  0  0  0  0  0  0  0  0  0
   -4.5827   -4.2017    1.0302 C   0  0  0  0  0  0  0  0  0  0  0  0
   -3.4672   -4.5945    0.3067 C   0  0  0  0  0  0  0  0  0  0  0  0
   -3.3860   -5.8490   -0.2806 C   0  0  0  0  0  0  0  0  0  0  0  0
   -2.2604   -6.2004   -0.9911 C   0  0  0  0  0  0  0  0  0  0  0  0
   -1.2422   -5.2771   -1.0925 C   0  0  0  0  0  0  0  0  0  0  0  0
   -1.2678   -4.0308   -0.5363 C   0  0  0  0  0  0  0  0  0  0  0  0
   -2.4134   -3.6877    0.1804 C   0  0  0  0  0  0  0  0  0  0  0  0
   -1.2874   -0.4496   -0.3693 C   0  0  0  0  0  0  0  0  0  0  0  0
   -0.6920    0.6483    0.4393 C   0  0  2  0  0  0  0  0  0  0  0  0
   -0.3576    1.8957   -0.2769 C   0  0  0  0  0  0  0  0  0  0  0  0
   -1.5857    2.4031   -0.8664 N   0  0  0  0  0  0  0  0  0  0  0  0
   -1.4982    3.6043   -1.6073 C   0  0  0  0  0  0  0  0  0  0  0  0
   -0.3281    4.3396   -1.8167 C   0  0  0  0  0  0  0  0  0  0  0  0
   -0.6458    5.4077   -2.5619 N   0  0  0  0  0  0  0  0  0  0  0  0
   -1.9395    5.4111   -2.8470 N   0  0  0  0  0  0  0  0  0  0  0  0
   -2.7198    6.3541   -3.6141 C   0  0  0  0  0  0  0  0  0  0  0  0
   -2.4745    4.3178   -2.2722 C   0  0  0  0  0  0  0  0  0  0  0  0
    0.9820    0.6694    2.2747 C   0  0  0  0  0  0  0  0  0  0  0  0
    0.1842    0.7951    3.4109 C   0  0  0  0  0  0  0  0  0  0  0  0
    0.6461    1.4740    4.5185 C   0  0  0  0  0  0  0  0  0  0  0  0
   -0.4099    1.5907    5.9058 Cl  0  0  0  0  0  0  0  0  0  0  0  0
    1.9188    2.0451    4.5184 C   0  0  0  0  0  0  0  0  0  0  0  0
    2.7189    1.9321    3.4096 C   0  0  0  0  0  0  0  0  0  0  0  0
    2.2352    1.2450    2.3057 C   0  0  0  0  0  0  0  0  0  0  0  0
    3.0908    1.1285    1.1303 C   0  0  0  0  0  0  0  0  0  0  0  0
    4.2480    1.6199    1.0645 O   0  0  0  0  0  0  0  0  0  0  0  0
  1  2  1  0
  2  3  1  0
  3  4  2  0
  3  5  1  0
  5  6  1  0
  6  7  1  0
  8  7  1  6
  8  9  1  0
  9 10  2  0
  9 11  1  0
 11 12  1  0
 12 13  2  0
 13 14  1  0
 14 15  2  0
 15 16  1  0
 16 17  2  0
 17 18  1  0
 18 19  2  0
 19 20  1  0
 20 21  2  0
 11 22  1  0
 22 23  1  0
 23 24  1  6
 24 25  1  0
 25 26  1  0
 26 27  1  0
 27 28  2  0
 28 29  1  0
 29 30  1  0
 29 31  1  0
  8 32  1  0
 32 33  2  0
 33 34  1  0
 34 35  1  0
 34 36  2  0
 36 37  1  0
 37 38  2  0
 38 39  1  0
 39 40  2  0
 39  6  1  0
 23  8  1  0
 31 26  2  0
 38 32  1  0
 21 12  1  0
 21 16  1  0
M  END
$$$$

     RDKit          3D

 36 41  0  0  0  0  0  0  0  0999 V2000
    7.3527    2.0638    1.5959 C   0  0  0  0  0  0  0  0  0  0  0  0
    6.1021    1.8006    0.8370 C   0  0  0  0  0  0  0  0  0  0  0  0
    4.8664    2.2706    1.2301 C   0  0  0  0  0  0  0  0  0  0  0  0
    3.7631    1.9944    0.4914 N   0  0  0  0  0  0  0  0  0  0  0  0
    3.8208    1.2551   -0.6505 C   0  0  0  0  0  0  0  0  0  0  0  0
    2.5825    1.0007   -1.3974 C   0  0  0  0  0  0  0  0  0  0  0  0
    1.8757   -0.1989   -0.9800 N   0  0  0  0  0  0  0  0  0  0  0  0
    0.9136   -0.0834    0.0668 C   0  0  0  0  0  0  0  0  0  0  0  0
   -0.2046   -1.0662    0.0524 C   0  0  2  0  0  0  0  0  0  0  0  0
   -1.3854   -0.3987   -0.6084 C   0  0  0  0  0  0  0  0  0  0  0  0
   -1.7736   -0.5147   -1.7970 O   0  0  0  0  0  0  0  0  0  0  0  0
   -2.0416    0.4281    0.3441 N   0  0  0  0  0  0  0  0  0  0  0  0
   -2.8832    1.5518    0.1189 C   0  0  0  0  0  0  0  0  0  0  0  0
   -2.4003    2.8481    0.0323 C   0  0  0  0  0  0  0  0  0  0  0  0
   -3.2517    3.8588   -0.1818 N   0  0  0  0  0  0  0  0  0  0  0  0
   -4.5612    3.5982   -0.3091 C   0  0  0  0  0  0  0  0  0  0  0  0
   -5.1014    2.3312   -0.2326 C   0  0  0  0  0  0  0  0  0  0  0  0
   -6.4581    2.0821   -0.3670 C   0  0  0  0  0  0  0  0  0  0  0  0
   -6.9764    0.7967   -0.2859 C   0  0  0  0  0  0  0  0  0  0  0  0
   -6.0823   -0.2275   -0.0652 C   0  0  0  0  0  0  0  0  0  0  0  0
   -4.7254   -0.0185    0.0737 C   0  0  0  0  0  0  0  0  0  0  0  0
   -4.2450    1.2744   -0.0128 C   0  0  0  0  0  0  0  0  0  0  0  0
   -1.7176   -0.0579    1.6665 C   0  0  0  0  0  0  0  0  0  0  0  0
   -0.7482   -1.2165    1.4499 C   0  0  2  0  0  0  0  0  0  0  0  0
    0.3046   -1.0725    2.5254 C   0  0  0  0  0  0  0  0  0  0  0  0
    0.0941   -2.3279   -0.6290 C   0  0  0  0  0  0  0  0  0  0  0  0
   -0.7413   -3.4186   -0.5111 C   0  0  0  0  0  0  0  0  0  0  0  0
   -0.4683   -4.6326   -1.1537 C   0  0  0  0  0  0  0  0  0  0  0  0
   -1.3135   -5.6941   -1.0184 F   0  0  0  0  0  0  0  0  0  0  0  0
    0.6578   -4.7830   -1.9361 C   0  0  0  0  0  0  0  0  0  0  0  0
    1.4910   -3.7088   -2.0592 C   0  0  0  0  0  0  0  0  0  0  0  0
    1.2245   -2.5215   -1.4311 C   0  0  0  0  0  0  0  0  0  0  0  0
    2.1833   -1.4211   -1.6368 C   0  0  0  0  0  0  0  0  0  0  0  0
    3.1821   -1.6105   -2.3523 O   0  0  0  0  0  0  0  0  0  0  0  0
    5.0691    0.8006   -1.0160 C   0  0  0  0  0  0  0  0  0  0  0  0
    6.1860    1.0594   -0.3006 N   0  0  0  0  0  0  0  0  0  0  0  0
  1  2  1  0
  2  3  2  0
  3  4  1  0
  4  5  2  0
  5  6  1  0
  6  7  1  0
  7  8  1  0
  9  8  1  1
  9 10  1  0
 10 11  2  0
 10 12  1  0
 12 13  1  0
 13 14  2  0
 14 15  1  0
 15 16  2  0
 16 17  1  0
 17 18  2  0
 18 19  1  0
 19 20  2  0
 20 21  1  0
 21 22  2  0
 12 23  1  0
 23 24  1  0
 24 25  1  1
  9 26  1  0
 26 27  2  0
 27 28  1  0
 28 29  1  0
 28 30  2  0
 30 31  1  0
 31 32  2  0
 32 33  1  0
 33 34  2  0
  5 35  1  0
 35 36  2  0
 36  2  1  0
 33  7  1  0
 24  9  1  0
 32 26  1  0
 22 13  1  0
 22 17  1  0
M  END
$$$$

     RDKit          3D

 37 41  0  0  0  0  0  0  0  0999 V2000
    2.9202   -3.9637    1.7288 C   0  0  0  0  0  0  0  0  0  0  0  0
    2.5547   -3.0241    0.6809 N   0  0  0  0  0  0  0  0  0  0  0  0
    2.4841   -3.4681   -0.6628 C   0  0  0  0  0  0  0  0  0  0  0  0
    2.7582   -4.7014   -0.8539 O   0  0  0  0  0  0  0  0  0  0  0  0
    2.1350   -2.6617   -1.8218 C   0  0  0  0  0  0  0  0  0  0  0  0
    1.8275   -1.2589   -1.4942 N   0  0  0  0  0  0  0  0  0  0  0  0
    0.4638   -0.9434   -1.2386 C   0  0  0  0  0  0  0  0  0  0  0  0
    0.2760    0.3027   -0.4869 C   0  0  2  0  0  0  0  0  0  0  0  0
    0.1167   -0.1627    0.9556 C   0  0  0  0  0  0  0  0  0  0  0  0
    0.8908    0.0153    1.9133 O   0  0  0  0  0  0  0  0  0  0  0  0
   -1.1510   -0.8520    0.9137 N   0  0  0  0  0  0  0  0  0  0  0  0
   -1.5470   -1.8419    1.8665 C   0  0  0  0  0  0  0  0  0  0  0  0
   -1.2959   -3.1721    1.7224 C   0  0  0  0  0  0  0  0  0  0  0  0
   -1.7278   -3.9988    2.7021 N   0  0  0  0  0  0  0  0  0  0  0  0
   -2.3903   -3.5449    3.8004 C   0  0  0  0  0  0  0  0  0  0  0  0
   -2.6606   -2.2086    3.9781 C   0  0  0  0  0  0  0  0  0  0  0  0
   -3.3284   -1.7018    5.0736 C   0  0  0  0  0  0  0  0  0  0  0  0
   -3.5665   -0.3529    5.1898 C   0  0  0  0  0  0  0  0  0  0  0  0
   -3.1453    0.5336    4.2153 C   0  0  0  0  0  0  0  0  0  0  0  0
   -2.4790    0.0098    3.1265 C   0  0  0  0  0  0  0  0  0  0  0  0
   -2.2262   -1.3474    2.9856 C   0  0  0  0  0  0  0  0  0  0  0  0
   -1.9140   -0.3619   -0.2390 C   0  0  0  0  0  0  0  0  0  0  0  0
   -1.0944    0.8933   -0.6009 C   0  0  2  0  0  0  0  0  0  0  0  0
   -1.5202    1.4560   -1.8843 C   0  0  0  0  0  0  0  0  0  0  0  0
   -0.7196    2.5036   -2.3316 O   0  0  0  0  0  0  0  0  0  0  0  0
   -1.0953    3.0508   -3.5328 C   0  0  0  0  0  0  0  0  0  0  0  0
   -1.2909    4.5673   -3.4055 C   0  0  0  0  0  0  0  0  0  0  0  0
    0.0545    2.8632   -4.5039 C   0  0  0  0  0  0  0  0  0  0  0  0
    1.3899    1.2055   -0.5056 C   0  0  0  0  0  0  0  0  0  0  0  0
    1.1950    2.5076   -0.0027 C   0  0  0  0  0  0  0  0  0  0  0  0
    2.2194    3.4316    0.0210 C   0  0  0  0  0  0  0  0  0  0  0  0
    1.9456    5.0535    0.6563 Cl  0  0  0  0  0  0  0  0  0  0  0  0
    3.4876    3.1489   -0.4395 C   0  0  0  0  0  0  0  0  0  0  0  0
    3.6940    1.8784   -0.9351 C   0  0  0  0  0  0  0  0  0  0  0  0
    2.6720    0.9656   -0.9556 C   0  0  0  0  0  0  0  0  0  0  0  0
    2.9256   -0.3663   -1.4941 C   0  0  0  0  0  0  0  0  0  0  0  0
    4.0503   -0.7017   -1.9316 O   0  0  0  0  0  0  0  0  0  0  0  0
  1  2  1  0
  2  3  1  0
  3  4  2  0
  3  5  1  0
  5  6  1  0
  6  7  1  0
  8  7  1  6
  8  9  1  0
  9 10  2  0
  9 11  1  0
 11 12  1  0
 12 13  2  0
 13 14  1  0
 14 15  2  0
 15 16  1  0
 16 17  2  0
 17 18  1  0
 18 19  2  0
 19 20  1  0
 20 21  2  0
 11 22  1  0
 22 23  1  0
 23 24  1  6
 24 25  1  0
 25 26  1  0
 26 27  1  0
 26 28  1  0
  8 29  1  0
 29 30  2  0
 30 31  1  0
 31 32  1  0
 31 33  2  0
 33 34  1  0
 34 35  2  0
 35 36  1  0
 36 37  2  0
 36  6  1  0
 23  8  1  0
 35 29  1  0
 21 12  1  0
 21 16  1  0
M  END
$$$$

     RDKit          3D

 35 40  0  0  0  0  0  0  0  0999 V2000
    0.0474    1.6957   -0.4579 C   0  0  0  0  0  0  0  0  0  0  0  0
   -0.1492    0.2123   -0.6772 C   0  0  1  0  0  0  0  0  0  0  0  0
    1.1829   -0.2904   -1.1850 C   0  0  0  0  0  0  0  0  0  0  0  0
    1.9659   -0.4725    0.0154 N   0  0  0  0  0  0  0  0  0  0  0  0
    3.3903   -0.6188   -0.0065 C   0  0  0  0  0  0  0  0  0  0  0  0
    4.0175   -1.8369   -0.2020 C   0  0  0  0  0  0  0  0  0  0  0  0
    5.3632   -1.9702   -0.2162 N   0  0  0  0  0  0  0  0  0  0  0  0
    6.1728   -0.9375   -0.0429 C   0  0  0  0  0  0  0  0  0  0  0  0
    5.6335    0.3012    0.1566 C   0  0  0  0  0  0  0  0  0  0  0  0
    6.4852    1.3737    0.3398 C   0  0  0  0  0  0  0  0  0  0  0  0
    5.9685    2.6307    0.5460 C   0  0  0  0  0  0  0  0  0  0  0  0
    4.6007    2.8184    0.5697 C   0  0  0  0  0  0  0  0  0  0  0  0
    3.7851    1.7250    0.3831 C   0  0  0  0  0  0  0  0  0  0  0  0
    4.2456    0.4654    0.1757 C   0  0  0  0  0  0  0  0  0  0  0  0
    1.0829   -0.4885    1.1328 C   0  0  0  0  0  0  0  0  0  0  0  0
    1.4789   -0.5085    2.3316 O   0  0  0  0  0  0  0  0  0  0  0  0
   -0.3371   -0.4774    0.6332 C   0  0  1  0  0  0  0  0  0  0  0  0
   -1.2581    0.1711    1.5906 C   0  0  0  0  0  0  0  0  0  0  0  0
   -2.6452   -0.0349    1.2669 N   0  0  0  0  0  0  0  0  0  0  0  0
   -3.6786    0.9624    1.3656 C   0  0  0  0  0  0  0  0  0  0  0  0
   -3.9573    1.7466    0.1605 C   0  0  0  0  0  0  0  0  0  0  0  0
   -3.3865    2.9320   -0.1153 N   0  0  0  0  0  0  0  0  0  0  0  0
   -3.8243    3.4366   -1.2728 C   0  0  0  0  0  0  0  0  0  0  0  0
   -4.7230    2.5319   -1.7694 C   0  0  0  0  0  0  0  0  0  0  0  0
   -4.7858    1.5095   -0.8748 N   0  0  0  0  0  0  0  0  0  0  0  0
   -5.6463    0.3752   -1.0756 C   0  0  0  0  0  0  0  0  0  0  0  0
   -3.0869   -1.3488    0.8665 C   0  0  0  0  0  0  0  0  0  0  0  0
   -4.2805   -1.7012    0.9025 O   0  0  0  0  0  0  0  0  0  0  0  0
   -2.0901   -2.2917    0.4062 C   0  0  0  0  0  0  0  0  0  0  0  0
   -2.5082   -3.5718    0.1157 C   0  0  0  0  0  0  0  0  0  0  0  0
   -1.5978   -4.5373   -0.2332 C   0  0  0  0  0  0  0  0  0  0  0  0
   -0.2727   -4.1667   -0.2760 C   0  0  0  0  0  0  0  0  0  0  0  0
    0.6315   -5.1112   -0.6169 F   0  0  0  0  0  0  0  0  0  0  0  0
    0.1392   -2.8764    0.0168 C   0  0  0  0  0  0  0  0  0  0  0  0
   -0.7824   -1.8781    0.3725 C   0  0  0  0  0  0  0  0  0  0  0  0
  2  1  1  1
  2  3  1  0
  3  4  1  0
  4  5  1  0
  5  6  2  0
  6  7  1  0
  7  8  2  0
  8  9  1  0
  9 10  2  0
 10 11  1  0
 11 12  2  0
 12 13  1  0
 13 14  2  0
  4 15  1  0
 15 16  2  0
 15 17  1  0
 17 18  1  1
 18 19  1  0
 19 20  1  0
 20 21  1  0
 21 22  2  0
 22 23  1  0
 23 24  2  0
 24 25  1  0
 25 26  1  0
 19 27  1  0
 27 28  2  0
 27 29  1  0
 29 30  2  0
 30 31  1  0
 31 32  2  0
 32 33  1  0
 32 34  1  0
 34 35  2  0
 17  2  1  0
 25 21  1  0
 35 29  1  0
 14  5  1  0
 35 17  1  0
 14  9  1  0
M  END
$$$$

     RDKit          3D

 36 39  0  0  0  0  0  0  0  0999 V2000
   -2.2218   -0.1278    3.5093 C   0  0  0  0  0  0  0  0  0  0  0  0
   -1.2196    0.1112    2.6115 C   0  0  0  0  0  0  0  0  0  0  0  0
   -1.3026   -0.6295    1.3655 C   0  0  0  0  0  0  0  0  0  0  0  0
   -1.4820   -0.0049    0.1279 N   0  0  0  0  0  0  0  0  0  0  0  0
   -0.6546    0.4849   -0.8820 C   0  0  0  0  0  0  0  0  0  0  0  0
   -1.3731    0.8737   -1.9360 O   0  0  0  0  0  0  0  0  0  0  0  0
    0.7552    0.6616   -1.0554 C   0  0  2  0  0  0  0  0  0  0  0  0
    1.6559   -0.4493   -0.5517 C   0  0  0  0  0  0  0  0  0  0  0  0
    3.0539   -0.1667   -0.9259 N   0  0  0  0  0  0  0  0  0  0  0  0
    3.8686   -1.0795   -1.6665 C   0  0  0  0  0  0  0  0  0  0  0  0
    4.6238   -2.0192   -0.7792 C   0  0  0  0  0  0  0  0  0  0  0  0
    5.3724   -2.8646   -1.3483 O   0  0  0  0  0  0  0  0  0  0  0  0
    4.5007   -1.9597    0.6515 N   0  0  0  0  0  0  0  0  0  0  0  0
    5.2184   -2.8547    1.5265 C   0  0  0  0  0  0  0  0  0  0  0  0
    3.5479    1.1148   -0.4817 C   0  0  0  0  0  0  0  0  0  0  0  0
    4.7836    1.2647   -0.2721 O   0  0  0  0  0  0  0  0  0  0  0  0
    2.5694    2.1811   -0.2995 C   0  0  0  0  0  0  0  0  0  0  0  0
    3.0447    3.3978    0.1514 C   0  0  0  0  0  0  0  0  0  0  0  0
    2.1226    4.4030    0.3488 C   0  0  0  0  0  0  0  0  0  0  0  0
    0.7642    4.2320    0.1134 C   0  0  0  0  0  0  0  0  0  0  0  0
   -0.3672    5.5403    0.3800 Cl  0  0  0  0  0  0  0  0  0  0  0  0
    0.2830    2.9996   -0.3438 C   0  0  0  0  0  0  0  0  0  0  0  0
    1.2049    1.9813   -0.5458 C   0  0  0  0  0  0  0  0  0  0  0  0
   -2.9277    0.1679   -0.2392 C   0  0  0  0  0  0  0  0  0  0  0  0
   -3.5527    1.3376    0.1314 C   0  0  0  0  0  0  0  0  0  0  0  0
   -4.8487    1.4751   -0.2061 N   0  0  0  0  0  0  0  0  0  0  0  0
   -5.4820    0.4941   -0.8777 C   0  0  0  0  0  0  0  0  0  0  0  0
   -4.8728   -0.6736   -1.2523 C   0  0  0  0  0  0  0  0  0  0  0  0
   -5.5944   -1.6425   -1.9456 C   0  0  0  0  0  0  0  0  0  0  0  0
   -4.9281   -2.8023   -2.2985 C   0  0  0  0  0  0  0  0  0  0  0  0
   -3.6046   -2.9900   -1.9767 C   0  0  0  0  0  0  0  0  0  0  0  0
   -2.9036   -2.0120   -1.2854 C   0  0  0  0  0  0  0  0  0  0  0  0
   -3.5470   -0.8515   -0.9250 C   0  0  0  0  0  0  0  0  0  0  0  0
   -0.2262    1.0367    3.0781 C   0  0  0  0  0  0  0  0  0  0  0  0
   -0.4293    1.5206    4.2569 O   0  0  0  0  0  0  0  0  0  0  0  0
    0.9027    1.4721    2.4501 O   0  0  0  0  0  0  0  0  0  0  0  0
  1  2  2  0
  2  3  1  0
  3  4  1  0
  4  5  1  0
  5  6  2  0
  7  5  1  1
  7  8  1  0
  8  9  1  0
  9 10  1  0
 10 11  1  0
 11 12  2  0
 11 13  1  0
 13 14  1  0
  9 15  1  0
 15 16  2  0
 15 17  1  0
 17 18  2  0
 18 19  1  0
 19 20  2  0
 20 21  1  0
 20 22  1  0
 22 23  2  0
  4 24  1  0
 24 25  2  0
 25 26  1  0
 26 27  2  0
 27 28  1  0
 28 29  2  0
 29 30  1  0
 30 31  2  0
 31 32  1  0
 32 33  2  0
  2 34  1  0
 34 35  2  0
 34 36  1  0
 23  7  1  0
 33 24  1  0
 23 17  1  0
 33 28  1  0
M  CHG  1  36  -1
M  END
$$$$

     RDKit          3D

 21 23  0  0  0  0  0  0  0  0999 V2000
    5.7568    0.8629    0.0082 C   0  0  0  0  0  0  0  0  0  0  0  0
    5.0097   -0.4362   -0.0884 C   0  0  0  0  0  0  0  0  0  0  0  0
    3.6596   -0.2467   -0.7369 C   0  0  0  0  0  0  0  0  0  0  0  0
    2.9312   -1.5665   -0.8213 C   0  0  0  0  0  0  0  0  0  0  0  0
    1.4769   -1.4029   -1.1555 C   0  0  0  0  0  0  0  0  0  0  0  0
    0.8419   -0.6096   -0.0934 N   0  0  0  0  0  0  0  0  0  0  0  0
   -0.5610   -0.7481    0.0935 C   0  0  0  0  0  0  0  0  0  0  0  0
   -1.1890   -1.5263   -0.6407 O   0  0  0  0  0  0  0  0  0  0  0  0
   -1.2362    0.0269    1.1444 C   0  0  0  0  0  0  0  0  0  0  0  0
   -2.6837   -0.2268    1.2120 C   0  0  0  0  0  0  0  0  0  0  0  0
   -3.2651   -1.0092    2.1880 C   0  0  0  0  0  0  0  0  0  0  0  0
   -4.5830   -1.2505    2.2624 N   0  0  0  0  0  0  0  0  0  0  0  0
   -5.4244   -0.7065    1.3360 C   0  0  0  0  0  0  0  0  0  0  0  0
   -4.8733    0.0818    0.3456 C   0  0  0  0  0  0  0  0  0  0  0  0
   -5.6949    0.6478   -0.6072 C   0  0  0  0  0  0  0  0  0  0  0  0
   -5.2328    1.4474   -1.6304 C   0  0  0  0  0  0  0  0  0  0  0  0
   -3.8783    1.6914   -1.7014 C   0  0  0  0  0  0  0  0  0  0  0  0
   -3.0445    1.1383   -0.7641 C   0  0  0  0  0  0  0  0  0  0  0  0
   -3.5214    0.3409    0.2531 C   0  0  0  0  0  0  0  0  0  0  0  0
    1.6727    0.2663    0.7028 C   0  0  0  0  0  0  0  0  0  0  0  0
    2.8277    0.8299   -0.0921 C   0  0  0  0  0  0  0  0  0  0  0  0
  1  2  1  0
  2  3  1  0
  3  4  1  0
  4  5  1  0
  5  6  1  0
  6  7  1  0
  7  8  2  0
  7  9  1  0
  9 10  1  0
 10 11  2  0
 11 12  1  0
 12 13  2  0
 13 14  1  0
 14 15  2  0
 15 16  1  0
 16 17  2  0
 17 18  1  0
 18 19  2  0
  6 20  1  0
 20 21  1  0
 21  3  1  0
 19 10  1  0
 19 14  1  0
M  END
$$$$

     RDKit          3D

 26 29  0  0  0  0  0  0  0  0999 V2000
    4.8902    0.7931    1.2163 C   0  0  0  0  0  0  0  0  0  0  0  0
    5.1044   -0.0445    0.0078 C   0  0  0  0  0  0  0  0  0  0  0  0
    4.2619   -1.5905   -0.0213 S   0  0  0  0  0  0  0  0  0  0  0  0
    4.6193   -2.3026   -1.3230 O   0  0  0  0  0  0  0  0  0  0  0  0
    4.6987   -2.4454    1.1477 O   0  0  0  0  0  0  0  0  0  0  0  0
    2.5869   -1.4620    0.0420 N   0  0  0  0  0  0  0  0  0  0  0  0
    2.0144   -0.8610    1.2077 C   0  0  0  0  0  0  0  0  0  0  0  0
    1.0546   -0.1527    0.2924 C   0  0  0  0  0  0  0  0  0  0  0  0
    2.1208   -0.2992   -0.7318 C   0  0  0  0  0  0  0  0  0  0  0  0
   -0.2203   -0.8516    0.0128 C   0  0  0  0  0  0  0  0  0  0  0  0
   -0.5267   -2.0425    0.1991 O   0  0  0  0  0  0  0  0  0  0  0  0
   -1.0776    0.1675   -0.5441 N   0  0  0  0  0  0  0  0  0  0  0  0
   -2.2528   -0.0710   -1.3094 C   0  0  0  0  0  0  0  0  0  0  0  0
   -2.1225   -0.1781   -2.6766 C   0  0  0  0  0  0  0  0  0  0  0  0
   -3.2086   -0.4052   -3.4557 N   0  0  0  0  0  0  0  0  0  0  0  0
   -4.4415   -0.5336   -2.9340 C   0  0  0  0  0  0  0  0  0  0  0  0
   -4.5968   -0.4294   -1.5583 C   0  0  0  0  0  0  0  0  0  0  0  0
   -5.8597   -0.5575   -0.9859 C   0  0  0  0  0  0  0  0  0  0  0  0
   -5.9714   -0.4474    0.3857 C   0  0  0  0  0  0  0  0  0  0  0  0
   -4.9023   -0.2196    1.1989 C   0  0  0  0  0  0  0  0  0  0  0  0
   -3.6426   -0.0901    0.6465 C   0  0  0  0  0  0  0  0  0  0  0  0
   -3.5085   -0.1978   -0.7337 C   0  0  0  0  0  0  0  0  0  0  0  0
   -0.5114    1.4423   -0.1741 C   0  0  0  0  0  0  0  0  0  0  0  0
   -1.0012    2.5521   -0.4918 O   0  0  0  0  0  0  0  0  0  0  0  0
    0.6775    1.1799    0.5996 N   0  0  0  0  0  0  0  0  0  0  0  0
    1.2504    2.1836    1.4729 C   0  0  0  0  0  0  0  0  0  0  0  0
  1  2  1  0
  2  3  1  0
  3  4  2  0
  3  5  2  0
  3  6  1  0
  6  7  1  0
  7  8  1  0
  8  9  1  0
  8 10  1  0
 10 11  2  0
 10 12  1  0
 12 13  1  0
 13 14  2  0
 14 15  1  0
 15 16  2  0
 16 17  1  0
 17 18  2  0
 18 19  1  0
 19 20  2  0
 20 21  1  0
 21 22  2  0
 12 23  1  0
 23 24  2  0
 23 25  1  0
 25 26  1  0
  9  6  1  0
 22 13  1  0
 25  8  1  0
 22 17  1  0
M  END
$$$$

     RDKit          3D

 35 39  0  0  0  0  0  0  0  0999 V2000
    4.2788   -3.9083    1.5363 C   0  0  0  0  0  0  0  0  0  0  0  0
    3.6516   -2.8437    0.7692 N   0  0  0  0  0  0  0  0  0  0  0  0
    3.4781   -2.9539   -0.6169 C   0  0  0  0  0  0  0  0  0  0  0  0
    3.8835   -4.0094   -1.1874 O   0  0  0  0  0  0  0  0  0  0  0  0
    2.8504   -1.9213   -1.4794 C   0  0  0  0  0  0  0  0  0  0  0  0
    2.4295   -0.7730   -0.7279 N   0  0  0  0  0  0  0  0  0  0  0  0
    1.1411   -0.6128   -0.1316 C   0  0  0  0  0  0  0  0  0  0  0  0
    0.5413    0.7507   -0.2449 C   0  0  2  0  0  0  0  0  0  0  0  0
   -0.5232    0.8146    0.8119 C   0  0  0  0  0  0  0  0  0  0  0  0
   -0.3410    1.1352    2.0161 O   0  0  0  0  0  0  0  0  0  0  0  0
   -1.7822    0.4564    0.2504 N   0  0  0  0  0  0  0  0  0  0  0  0
   -3.0472    0.4388    0.9048 C   0  0  0  0  0  0  0  0  0  0  0  0
   -3.7720    1.6341    0.8430 C   0  0  0  0  0  0  0  0  0  0  0  0
   -4.9856    1.7438    1.4249 N   0  0  0  0  0  0  0  0  0  0  0  0
   -5.5105    0.6883    2.0761 C   0  0  0  0  0  0  0  0  0  0  0  0
   -4.8088   -0.5126    2.1517 C   0  0  0  0  0  0  0  0  0  0  0  0
   -5.3464   -1.5943    2.8190 C   0  0  0  0  0  0  0  0  0  0  0  0
   -4.6430   -2.7907    2.8921 C   0  0  0  0  0  0  0  0  0  0  0  0
   -3.3895   -2.8828    2.2834 C   0  0  0  0  0  0  0  0  0  0  0  0
   -2.8313   -1.8067    1.6077 C   0  0  0  0  0  0  0  0  0  0  0  0
   -3.5530   -0.6539    1.5597 C   0  0  0  0  0  0  0  0  0  0  0  0
   -1.5157    0.1084   -1.1405 C   0  0  0  0  0  0  0  0  0  0  0  0
   -0.3229    0.9432   -1.4789 C   0  0  2  0  0  0  0  0  0  0  0  0
    0.3643    0.5647   -2.7362 C   0  0  0  0  0  0  0  0  0  0  0  0
   -0.4639    0.7545   -3.8168 O   0  0  0  0  0  0  0  0  0  0  0  0
   -0.8996    2.0436   -4.0159 C   0  0  0  0  0  0  0  0  0  0  0  0
    1.5443    1.8040   -0.0903 C   0  0  0  0  0  0  0  0  0  0  0  0
    1.1153    3.0771    0.2244 C   0  0  0  0  0  0  0  0  0  0  0  0
    1.9700    4.1459    0.3938 C   0  0  0  0  0  0  0  0  0  0  0  0
    1.3076    5.7200    0.7931 Cl  0  0  0  0  0  0  0  0  0  0  0  0
    3.3259    3.9392    0.2423 C   0  0  0  0  0  0  0  0  0  0  0  0
    3.7936    2.6708   -0.0743 C   0  0  0  0  0  0  0  0  0  0  0  0
    2.9059    1.6285   -0.2353 C   0  0  0  0  0  0  0  0  0  0  0  0
    3.3752    0.2884   -0.5676 C   0  0  0  0  0  0  0  0  0  0  0  0
    4.6266    0.0775   -0.7118 O   0  0  0  0  0  0  0  0  0  0  0  0
  1  2  1  0
  2  3  1  0
  3  4  2  0
  3  5  1  0
  5  6  1  0
  6  7  1  0
  8  7  1  6
  8  9  1  0
  9 10  2  0
  9 11  1  0
 11 12  1  0
 12 13  2  0
 13 14  1  0
 14 15  2  0
 15 16  1  0
 16 17  2  0
 17 18  1  0
 18 19  2  0
 19 20  1  0
 20 21  2  0
 11 22  1  0
 22 23  1  0
 23 24  1  6
 24 25  1  0
 25 26  1  0
  8 27  1  0
 27 28  2  0
 28 29  1  0
 29 30  1  0
 29 31  2  0
 31 32  1  0
 32 33  2  0
 33 34  1  0
 34 35  2  0
 34  6  1  0
 23  8  1  0
 33 27  1  0
 21 12  1  0
 21 16  1  0
M  END
$$$$

     RDKit          3D

 21 23  0  0  0  0  0  0  0  0999 V2000
   -5.6324   -0.1394   -0.4218 C   0  0  0  0  0  0  0  0  0  0  0  0
   -4.1567    0.2156   -0.4266 C   0  0  1  0  0  0  0  0  0  0  0  0
   -3.9289    1.4664    0.3238 C   0  0  0  0  0  0  0  0  0  0  0  0
   -2.7643    2.1234    0.4139 C   0  0  0  0  0  0  0  0  0  0  0  0
   -1.5120    1.6507   -0.2580 C   0  0  0  0  0  0  0  0  0  0  0  0
   -1.2120    0.2831    0.1806 N   0  0  0  0  0  0  0  0  0  0  0  0
    0.0750   -0.2413   -0.1005 C   0  0  0  0  0  0  0  0  0  0  0  0
    0.4407   -1.4011    0.2395 O   0  0  0  0  0  0  0  0  0  0  0  0
    1.0668    0.5869   -0.8285 C   0  0  0  0  0  0  0  0  0  0  0  0
    2.3545   -0.1338   -1.0071 C   0  0  0  0  0  0  0  0  0  0  0  0
    2.7299   -0.6978   -2.2133 C   0  0  0  0  0  0  0  0  0  0  0  0
    3.8990   -1.3514   -2.3719 N   0  0  0  0  0  0  0  0  0  0  0  0
    4.7710   -1.4835   -1.3297 C   0  0  0  0  0  0  0  0  0  0  0  0
    4.4505   -0.9420   -0.1035 C   0  0  0  0  0  0  0  0  0  0  0  0
    5.2978   -1.0453    0.9921 C   0  0  0  0  0  0  0  0  0  0  0  0
    4.9695   -0.4979    2.2251 C   0  0  0  0  0  0  0  0  0  0  0  0
    3.7656    0.1734    2.3829 C   0  0  0  0  0  0  0  0  0  0  0  0
    2.9037    0.2853    1.2910 C   0  0  0  0  0  0  0  0  0  0  0  0
    3.2398   -0.2621    0.0705 C   0  0  0  0  0  0  0  0  0  0  0  0
   -2.1458   -0.5889    0.8920 C   0  0  0  0  0  0  0  0  0  0  0  0
   -3.3665   -0.9171    0.1085 C   0  0  0  0  0  0  0  0  0  0  0  0
  2  1  1  1
  2  3  1  0
  3  4  2  0
  4  5  1  0
  5  6  1  0
  6  7  1  0
  7  8  2  0
  7  9  1  0
  9 10  1  0
 10 11  2  0
 11 12  1  0
 12 13  2  0
 13 14  1  0
 14 15  2  0
 15 16  1  0
 16 17  2  0
 17 18  1  0
 18 19  2  0
  6 20  1  0
 20 21  1  0
 21  2  1  0
 19 10  1  0
 19 14  1  0
M  END
$$$$

     RDKit          3D

 34 39  0  0  0  0  0  0  0  0999 V2000
   -0.7939   -1.2434   -2.5152 C   0  0  0  0  0  0  0  0  0  0  0  0
    0.2886   -1.3113   -1.4917 C   0  0  1  0  0  0  0  0  0  0  0  0
    1.2286   -0.0993   -1.5653 C   0  0  0  0  0  0  0  0  0  0  0  0
    1.9981   -0.3210   -0.3546 N   0  0  0  0  0  0  0  0  0  0  0  0
    3.3707   -0.0285   -0.1156 C   0  0  0  0  0  0  0  0  0  0  0  0
    4.2701   -1.0550   -0.4265 C   0  0  0  0  0  0  0  0  0  0  0  0
    5.6053   -0.8857   -0.2381 N   0  0  0  0  0  0  0  0  0  0  0  0
    6.0561    0.2808    0.2513 C   0  0  0  0  0  0  0  0  0  0  0  0
    5.1895    1.3186    0.5696 C   0  0  0  0  0  0  0  0  0  0  0  0
    5.6518    2.5155    1.0717 C   0  0  0  0  0  0  0  0  0  0  0  0
    4.7445    3.5198    1.3734 C   0  0  0  0  0  0  0  0  0  0  0  0
    3.3875    3.3568    1.1854 C   0  0  0  0  0  0  0  0  0  0  0  0
    2.9149    2.1601    0.6824 C   0  0  0  0  0  0  0  0  0  0  0  0
    3.8103    1.1780    0.3882 C   0  0  0  0  0  0  0  0  0  0  0  0
    1.1069   -0.9125    0.6100 C   0  0  0  0  0  0  0  0  0  0  0  0
    1.3788   -1.2355    1.8060 O   0  0  0  0  0  0  0  0  0  0  0  0
   -0.2328   -1.0850   -0.0617 C   0  0  1  0  0  0  0  0  0  0  0  0
   -0.9881    0.1916    0.0132 C   0  0  0  0  0  0  0  0  0  0  0  0
   -2.1936    0.1728    0.8025 N   0  0  0  0  0  0  0  0  0  0  0  0
   -2.7634    1.4477    1.1984 C   0  0  0  0  0  0  0  0  0  0  0  0
   -3.7386    1.9695    0.2058 C   0  0  0  0  0  0  0  0  0  0  0  0
   -5.0987    1.6903    0.2363 C   0  0  0  0  0  0  0  0  0  0  0  0
   -5.6302    2.3392   -0.8169 N   0  0  0  0  0  0  0  0  0  0  0  0
   -4.6529    2.9882   -1.4687 C   0  0  0  0  0  0  0  0  0  0  0  0
   -3.4713    2.7659   -0.8420 N   0  0  0  0  0  0  0  0  0  0  0  0
   -2.8665   -1.0005    1.2219 C   0  0  0  0  0  0  0  0  0  0  0  0
   -3.9911   -0.9468    1.7564 O   0  0  0  0  0  0  0  0  0  0  0  0
   -2.1882   -2.2727    1.0019 C   0  0  0  0  0  0  0  0  0  0  0  0
   -2.8246   -3.4072    1.4183 C   0  0  0  0  0  0  0  0  0  0  0  0
   -2.2504   -4.6447    1.2640 C   0  0  0  0  0  0  0  0  0  0  0  0
   -1.0076   -4.6918    0.6726 C   0  0  0  0  0  0  0  0  0  0  0  0
   -0.4180   -5.9192    0.5103 F   0  0  0  0  0  0  0  0  0  0  0  0
   -0.3546   -3.5276    0.2451 C   0  0  0  0  0  0  0  0  0  0  0  0
   -0.9258   -2.2832    0.3966 C   0  0  0  0  0  0  0  0  0  0  0  0
  2  1  1  6
  2  3  1  0
  3  4  1  0
  4  5  1  0
  5  6  2  0
  6  7  1  0
  7  8  2  0
  8  9  1  0
  9 10  2  0
 10 11  1  0
 11 12  2  0
 12 13  1  0
 13 14  2  0
  4 15  1  0
 15 16  2  0
 15 17  1  0
 17 18  1  6
 18 19  1  0
 19 20  1  0
 20 21  1  0
 21 22  2  0
 22 23  1  0
 23 24  2  0
 24 25  1  0
 19 26  1  0
 26 27  2  0
 26 28  1  0
 28 29  2  0
 29 30  1  0
 30 31  2  0
 31 32  1  0
 31 33  1  0
 33 34  2  0
 17  2  1  0
 25 21  1  0
 34 28  1  0
 14  5  1  0
 34 17  1  0
 14  9  1  0
M  CHG  1  23   1
M  END
$$$$

     RDKit          3D

 30 34  0  0  0  0  0  0  0  0999 V2000
    1.4357   -2.5038    0.6458 C   0  0  0  0  0  0  0  0  0  0  0  0
    0.3198   -1.6611    0.2332 N   0  0  0  0  0  0  0  0  0  0  0  0
   -0.8617   -1.4129    1.0261 C   0  0  0  0  0  0  0  0  0  0  0  0
   -0.9461   -1.5541    2.2924 O   0  0  0  0  0  0  0  0  0  0  0  0
   -1.8992   -0.9881    0.1492 N   0  0  0  0  0  0  0  0  0  0  0  0
   -3.2163   -0.6499    0.5628 C   0  0  0  0  0  0  0  0  0  0  0  0
   -4.1845   -1.6495    0.6050 C   0  0  0  0  0  0  0  0  0  0  0  0
   -5.4417   -1.3570    0.9935 N   0  0  0  0  0  0  0  0  0  0  0  0
   -5.8268   -0.1197    1.3532 C   0  0  0  0  0  0  0  0  0  0  0  0
   -4.9027    0.9145    1.3297 C   0  0  0  0  0  0  0  0  0  0  0  0
   -5.2160    2.2073    1.6824 C   0  0  0  0  0  0  0  0  0  0  0  0
   -4.2764    3.2155    1.6494 C   0  0  0  0  0  0  0  0  0  0  0  0
   -2.9763    2.9252    1.2502 C   0  0  0  0  0  0  0  0  0  0  0  0
   -2.6932    1.6324    0.9054 C   0  0  0  0  0  0  0  0  0  0  0  0
   -3.6121    0.6058    0.9291 C   0  0  0  0  0  0  0  0  0  0  0  0
   -1.3348   -0.9841   -1.1624 C   0  0  0  0  0  0  0  0  0  0  0  0
   -2.0191   -1.0270   -2.2226 O   0  0  0  0  0  0  0  0  0  0  0  0
    0.1269   -0.9221   -0.9727 C   0  0  0  0  0  0  0  0  0  0  0  0
    0.9850   -1.2800   -2.1590 C   0  0  0  0  0  0  0  0  0  0  0  0
    1.1494    0.1318   -2.3926 N   0  0  0  0  0  0  0  0  0  0  0  0
    2.7525    0.6618   -2.6411 S   0  0  0  0  0  0  0  0  0  0  0  0
    3.4054   -0.0238   -3.8126 O   0  0  0  0  0  0  0  0  0  0  0  0
    2.8216    2.1330   -2.9309 O   0  0  0  0  0  0  0  0  0  0  0  0
    3.8014    0.3728   -1.2714 C   0  0  0  0  0  0  0  0  0  0  0  0
    3.9151    1.3364   -0.2903 C   0  0  0  0  0  0  0  0  0  0  0  0
    4.7178    1.1943    0.8223 C   0  0  0  0  0  0  0  0  0  0  0  0
    5.4295    0.0025    0.9166 C   0  0  0  0  0  0  0  0  0  0  0  0
    5.3221   -0.9704   -0.0626 C   0  0  0  0  0  0  0  0  0  0  0  0
    4.5029   -0.7951   -1.1727 C   0  0  0  0  0  0  0  0  0  0  0  0
    0.7045    0.4755   -1.0306 C   0  0  0  0  0  0  0  0  0  0  0  0
  1  2  1  0
  2  3  1  0
  3  4  2  0
  3  5  1  0
  5  6  1  0
  6  7  2  0
  7  8  1  0
  8  9  2  0
  9 10  1  0
 10 11  2  0
 11 12  1  0
 12 13  2  0
 13 14  1  0
 14 15  2  0
  5 16  1  0
 16 17  2  0
 16 18  1  0
 18 19  1  0
 19 20  1  0
 20 21  1  0
 21 22  2  0
 21 23  2  0
 21 24  1  0
 24 25  2  0
 25 26  1  0
 26 27  2  0
 27 28  1  0
 28 29  2  0
 20 30  1  0
 18  2  1  0
 29 24  1  0
 15  6  1  0
 30 18  1  0
 15 10  1  0
M  END
$$$$

     RDKit          3D

 43 49  0  0  0  0  0  0  0  0999 V2000
    3.8571   -0.0229   -1.9162 O   0  0  0  0  0  0  0  0  0  0  0  0
    2.6413    0.2570   -1.7586 C   0  0  0  0  0  0  0  0  0  0  0  0
    2.0596    1.5571   -2.0720 C   0  0  0  0  0  0  0  0  0  0  0  0
    2.8884    2.5123   -2.5907 C   0  0  0  0  0  0  0  0  0  0  0  0
    2.4179    3.7584   -2.9370 C   0  0  0  0  0  0  0  0  0  0  0  0
    1.0757    3.9984   -2.7372 C   0  0  0  0  0  0  0  0  0  0  0  0
    0.4427    5.5688   -3.1656 Cl  0  0  0  0  0  0  0  0  0  0  0  0
    0.2292    3.0168   -2.2049 C   0  0  0  0  0  0  0  0  0  0  0  0
    0.6956    1.7671   -1.8559 C   0  0  0  0  0  0  0  0  0  0  0  0
   -0.1408    0.7335   -1.2842 C   0  0  1  0  0  0  0  0  0  0  0  0
    0.3589   -0.6187   -1.6996 C   0  0  0  0  0  0  0  0  0  0  0  0
    1.7374   -0.7280   -1.2426 N   0  0  0  0  0  0  0  0  0  0  0  0
    2.1883   -1.7615   -0.3345 C   0  0  0  0  0  0  0  0  0  0  0  0
    2.6490   -2.9927   -1.0782 C   0  0  0  0  0  0  0  0  0  0  0  0
    3.1095   -4.0583   -0.2553 N   0  0  0  0  0  0  0  0  0  0  0  0
    2.6867   -3.9934    1.1177 C   0  0  0  0  0  0  0  0  0  0  0  0
    3.4497   -5.0617    1.8782 C   0  0  0  0  0  0  0  0  0  0  0  0
    4.7586   -4.6513    2.0771 O   0  0  0  0  0  0  0  0  0  0  0  0
    5.1559   -3.7797    1.0912 C   0  0  0  0  0  0  0  0  0  0  0  0
    4.5580   -4.1101   -0.2619 C   0  0  0  0  0  0  0  0  0  0  0  0
    0.1052    0.7781    0.2104 C   0  0  0  0  0  0  0  0  0  0  0  0
    1.0929    1.2535    0.8123 O   0  0  0  0  0  0  0  0  0  0  0  0
   -1.0330    0.1574    0.8433 N   0  0  0  0  0  0  0  0  0  0  0  0
   -1.1654   -0.2529    2.1985 C   0  0  0  0  0  0  0  0  0  0  0  0
   -0.8247   -1.5115    2.6479 C   0  0  0  0  0  0  0  0  0  0  0  0
   -0.9436   -1.9105    3.9191 N   0  0  0  0  0  0  0  0  0  0  0  0
   -1.4236   -1.0356    4.8164 C   0  0  0  0  0  0  0  0  0  0  0  0
   -1.7828    0.2375    4.4338 C   0  0  0  0  0  0  0  0  0  0  0  0
   -2.2702    1.0734    5.4340 C   0  0  0  0  0  0  0  0  0  0  0  0
   -2.6398    2.3478    5.1008 C   0  0  0  0  0  0  0  0  0  0  0  0
   -2.5224    2.7731    3.7928 C   0  0  0  0  0  0  0  0  0  0  0  0
   -2.0333    1.9209    2.8118 C   0  0  0  0  0  0  0  0  0  0  0  0
   -1.6583    0.6418    3.1260 C   0  0  0  0  0  0  0  0  0  0  0  0
   -2.0542    0.0119   -0.1446 C   0  0  0  0  0  0  0  0  0  0  0  0
   -1.5954    0.8957   -1.3176 C   0  0  2  0  0  0  0  0  0  0  0  0
   -2.2909    0.3036   -2.5120 C   0  0  0  0  0  0  0  0  0  0  0  0
   -3.7085    0.5733   -2.3480 N   0  0  0  0  0  0  0  0  0  0  0  0
   -4.1547    1.9270   -2.2611 C   0  0  0  0  0  0  0  0  0  0  0  0
   -4.4734    2.5272   -3.4219 N   0  0  0  0  0  0  0  0  0  0  0  0
   -4.8998    3.8001   -3.4082 C   0  0  0  0  0  0  0  0  0  0  0  0
   -5.0283    4.5299   -2.2492 C   0  0  0  0  0  0  0  0  0  0  0  0
   -4.6921    3.8836   -1.0683 C   0  0  0  0  0  0  0  0  0  0  0  0
   -4.2678    2.6046   -1.1235 N   0  0  0  0  0  0  0  0  0  0  0  0
  1  2  2  0
  2  3  1  0
  3  4  2  0
  4  5  1  0
  5  6  2  0
  6  7  1  0
  6  8  1  0
  8  9  2  0
  9 10  1  0
 10 11  1  6
 11 12  1  0
 12 13  1  0
 13 14  1  0
 14 15  1  0
 15 16  1  0
 16 17  1  0
 17 18  1  0
 18 19  1  0
 19 20  1  0
 10 21  1  0
 21 22  2  0
 21 23  1  0
 23 24  1  0
 24 25  2  0
 25 26  1  0
 26 27  2  0
 27 28  1  0
 28 29  2  0
 29 30  1  0
 30 31  2  0
 31 32  1  0
 32 33  2  0
 23 34  1  0
 34 35  1  0
 35 36  1  6
 36 37  1  0
 37 38  1  0
 38 39  2  0
 39 40  1  0
 40 41  2  0
 41 42  1  0
 42 43  2  0
 12  2  1  0
 20 15  1  0
 33 24  1  0
 43 38  1  0
  9  3  1  0
 35 10  1  0
 33 28  1  0
M  CHG  1  15   1
M  END
$$$$

     RDKit          3D

 41 46  0  0  0  0  0  0  0  0999 V2000
    6.2559   -0.7416    3.7714 C   0  0  0  0  0  0  0  0  0  0  0  0
    5.0813   -1.5913    3.5430 N   0  0  0  0  0  0  0  0  0  0  0  0
    4.3227   -1.3006    2.3801 C   0  0  0  0  0  0  0  0  0  0  0  0
    4.6285   -0.3617    1.5762 O   0  0  0  0  0  0  0  0  0  0  0  0
    3.1104   -2.0874    2.0310 C   0  0  0  0  0  0  0  0  0  0  0  0
    2.5145   -1.5822    0.7884 N   0  0  0  0  0  0  0  0  0  0  0  0
    1.5181   -0.5621    0.8544 C   0  0  0  0  0  0  0  0  0  0  0  0
    0.8771   -0.1455   -0.4061 C   0  0  2  0  0  0  0  0  0  0  0  0
    0.9699    1.3573   -0.6167 C   0  0  0  0  0  0  0  0  0  0  0  0
    2.0001    2.0266   -0.8667 O   0  0  0  0  0  0  0  0  0  0  0  0
   -0.3538    1.9113   -0.4793 N   0  0  0  0  0  0  0  0  0  0  0  0
   -0.8688    3.1178   -1.0074 C   0  0  0  0  0  0  0  0  0  0  0  0
   -1.4543    3.0321   -2.2776 C   0  0  0  0  0  0  0  0  0  0  0  0
   -1.9804    4.1104   -2.8872 N   0  0  0  0  0  0  0  0  0  0  0  0
   -1.9598    5.3141   -2.2915 C   0  0  0  0  0  0  0  0  0  0  0  0
   -1.3854    5.4062   -1.0423 C   0  0  0  0  0  0  0  0  0  0  0  0
   -1.3810    6.6690   -0.4516 C   0  0  0  0  0  0  0  0  0  0  0  0
   -0.8013    6.7732    0.8170 C   0  0  0  0  0  0  0  0  0  0  0  0
   -0.2557    5.6755    1.4612 C   0  0  0  0  0  0  0  0  0  0  0  0
   -0.2660    4.4195    0.8615 C   0  0  0  0  0  0  0  0  0  0  0  0
   -0.8363    4.3310   -0.3805 C   0  0  0  0  0  0  0  0  0  0  0  0
   -1.0508    0.8993    0.3381 C   0  0  0  0  0  0  0  0  0  0  0  0
   -0.5975   -0.3204   -0.4881 C   0  0  2  0  0  0  0  0  0  0  0  0
   -1.1994   -1.5760   -0.0094 C   0  0  0  0  0  0  0  0  0  0  0  0
   -2.6501   -1.4556   -0.2528 N   0  0  0  0  0  0  0  0  0  0  0  0
   -3.5474   -2.5217   -0.0031 C   0  0  0  0  0  0  0  0  0  0  0  0
   -3.5385   -3.5556   -0.9484 C   0  0  0  0  0  0  0  0  0  0  0  0
   -4.3985   -4.6183   -0.7875 C   0  0  0  0  0  0  0  0  0  0  0  0
   -5.2285   -4.6502    0.2657 N   0  0  0  0  0  0  0  0  0  0  0  0
   -5.2364   -3.6530    1.1753 C   0  0  0  0  0  0  0  0  0  0  0  0
   -6.1888   -3.7363    2.3247 C   0  0  0  0  0  0  0  0  0  0  0  0
   -4.3910   -2.5873    1.0366 N   0  0  0  0  0  0  0  0  0  0  0  0
    1.4582   -0.7318   -1.6467 C   0  0  0  0  0  0  0  0  0  0  0  0
    1.0041   -0.3131   -2.8959 C   0  0  0  0  0  0  0  0  0  0  0  0
    1.5064   -0.8550   -4.0728 C   0  0  0  0  0  0  0  0  0  0  0  0
    0.9065   -0.3037   -5.6341 Cl  0  0  0  0  0  0  0  0  0  0  0  0
    2.4815   -1.8337   -4.0419 C   0  0  0  0  0  0  0  0  0  0  0  0
    2.9420   -2.2586   -2.8197 C   0  0  0  0  0  0  0  0  0  0  0  0
    2.4288   -1.7054   -1.6561 C   0  0  0  0  0  0  0  0  0  0  0  0
    3.0019   -2.1755   -0.4068 C   0  0  0  0  0  0  0  0  0  0  0  0
    3.8894   -3.0695   -0.4084 O   0  0  0  0  0  0  0  0  0  0  0  0
  1  2  1  0
  2  3  1  0
  3  4  2  0
  3  5  1  0
  5  6  1  0
  6  7  1  0
  8  7  1  1
  8  9  1  0
  9 10  2  0
  9 11  1  0
 11 12  1  0
 12 13  2  0
 13 14  1  0
 14 15  2  0
 15 16  1  0
 16 17  2  0
 17 18  1  0
 18 19  2  0
 19 20  1  0
 20 21  2  0
 11 22  1  0
 22 23  1  0
 23 24  1  1
 24 25  1  0
 25 26  1  0
 26 27  2  0
 27 28  1  0
 28 29  2  0
 29 30  1  0
 30 31  1  0
 30 32  2  0
  8 33  1  0
 33 34  2  0
 34 35  1  0
 35 36  1  0
 35 37  2  0
 37 38  1  0
 38 39  2  0
 39 40  1  0
 40 41  2  0
 40  6  1  0
 23  8  1  0
 32 26  1  0
 39 33  1  0
 21 12  1  0
 21 16  1  0
M  END
$$$$

     RDKit          3D

 40 45  0  0  0  0  0  0  0  0999 V2000
   -3.5812    2.0500   -2.4865 C   0  0  0  0  0  0  0  0  0  0  0  0
   -2.9221    1.5714   -1.2335 C   0  0  1  0  0  0  0  0  0  0  0  0
   -3.5074    0.2113   -0.8181 C   0  0  0  0  0  0  0  0  0  0  0  0
   -2.4701   -0.3368    0.0355 N   0  0  0  0  0  0  0  0  0  0  0  0
   -2.6578   -1.4767    0.8597 C   0  0  0  0  0  0  0  0  0  0  0  0
   -2.4043   -2.7685    0.4427 C   0  0  0  0  0  0  0  0  0  0  0  0
   -2.6131   -3.7653    1.2899 N   0  0  0  0  0  0  0  0  0  0  0  0
   -3.0568   -3.5457    2.5185 C   0  0  0  0  0  0  0  0  0  0  0  0
   -3.3325   -2.2831    3.0067 C   0  0  0  0  0  0  0  0  0  0  0  0
   -3.7949   -2.0515    4.2859 C   0  0  0  0  0  0  0  0  0  0  0  0
   -4.0528   -0.7453    4.7113 C   0  0  0  0  0  0  0  0  0  0  0  0
   -3.8410    0.3256    3.8378 C   0  0  0  0  0  0  0  0  0  0  0  0
   -3.3780    0.0518    2.5673 C   0  0  0  0  0  0  0  0  0  0  0  0
   -3.1252   -1.2266    2.1497 C   0  0  0  0  0  0  0  0  0  0  0  0
   -1.2728    0.4581   -0.1028 C   0  0  0  0  0  0  0  0  0  0  0  0
   -0.3268    0.5063    0.6890 O   0  0  0  0  0  0  0  0  0  0  0  0
   -1.4753    1.1816   -1.4122 C   0  0  1  0  0  0  0  0  0  0  0  0
   -1.3750    0.1098   -2.4757 C   0  0  0  0  0  0  0  0  0  0  0  0
    0.0365   -0.1193   -2.7101 N   0  0  0  0  0  0  0  0  0  0  0  0
    0.5705   -1.4672   -2.7663 C   0  0  0  0  0  0  0  0  0  0  0  0
    1.0305   -1.9914   -1.4690 C   0  0  0  0  0  0  0  0  0  0  0  0
    2.0729   -1.2848   -0.7963 N   0  0  0  0  0  0  0  0  0  0  0  0
    2.0795   -1.7360    0.5875 C   0  0  0  0  0  0  0  0  0  0  0  0
    2.9467   -0.8497    1.4189 C   0  0  0  0  0  0  0  0  0  0  0  0
    4.2550   -0.7438    0.8564 N   0  0  0  0  0  0  0  0  0  0  0  0
    5.2439    0.4428    1.5855 S   0  0  0  0  0  0  0  0  0  0  0  0
    5.5367    0.1134    3.3035 C   0  0  0  0  0  0  0  0  0  0  0  0
    4.6067    1.8217    1.4792 O   0  0  0  0  0  0  0  0  0  0  0  0
    6.5355    0.5217    0.8264 O   0  0  0  0  0  0  0  0  0  0  0  0
    4.3193   -0.5883   -0.5588 C   0  0  0  0  0  0  0  0  0  0  0  0
    3.3974   -1.5748   -1.2896 C   0  0  0  0  0  0  0  0  0  0  0  0
    0.9502    0.9535   -2.9018 C   0  0  0  0  0  0  0  0  0  0  0  0
    2.0113    0.7814   -3.5716 O   0  0  0  0  0  0  0  0  0  0  0  0
    0.6214    2.2416   -2.3047 C   0  0  0  0  0  0  0  0  0  0  0  0
    1.4680    3.3044   -2.4657 C   0  0  0  0  0  0  0  0  0  0  0  0
    1.1755    4.5164   -1.9185 C   0  0  0  0  0  0  0  0  0  0  0  0
    0.0036    4.6356   -1.2007 C   0  0  0  0  0  0  0  0  0  0  0  0
   -0.3937    6.2018   -0.4832 Cl  0  0  0  0  0  0  0  0  0  0  0  0
   -0.8582    3.5495   -1.0380 C   0  0  0  0  0  0  0  0  0  0  0  0
   -0.5695    2.3077   -1.5922 C   0  0  0  0  0  0  0  0  0  0  0  0
  2  1  1  6
  2  3  1  0
  3  4  1  0
  4  5  1  0
  5  6  2  0
  6  7  1  0
  7  8  2  0
  8  9  1  0
  9 10  2  0
 10 11  1  0
 11 12  2  0
 12 13  1  0
 13 14  2  0
  4 15  1  0
 15 16  2  0
 15 17  1  0
 17 18  1  6
 18 19  1  0
 19 20  1  0
 20 21  1  0
 21 22  1  0
 22 23  1  0
 23 24  1  0
 24 25  1  0
 25 26  1  0
 26 27  1  0
 26 28  2  0
 26 29  2  0
 25 30  1  0
 30 31  1  0
 19 32  1  0
 32 33  2  0
 32 34  1  0
 34 35  2  0
 35 36  1  0
 36 37  2  0
 37 38  1  0
 37 39  1  0
 39 40  2  0
 17  2  1  0
 31 22  1  0
 40 34  1  0
 14  5  1  0
 40 17  1  0
 14  9  1  0
M  CHG  1  22   1
M  END
$$$$

     RDKit          3D

 38 43  0  0  0  0  0  0  0  0999 V2000
    6.5882   -0.7657   -1.5615 C   0  0  0  0  0  0  0  0  0  0  0  0
    5.1726   -0.9530   -1.3419 N   0  0  0  0  0  0  0  0  0  0  0  0
    4.3182   -1.4100   -2.3846 C   0  0  0  0  0  0  0  0  0  0  0  0
    4.7658   -1.6683   -3.5389 O   0  0  0  0  0  0  0  0  0  0  0  0
    2.8663   -1.6052   -2.1700 C   0  0  0  0  0  0  0  0  0  0  0  0
    2.4548   -1.2827   -0.8183 N   0  0  0  0  0  0  0  0  0  0  0  0
    2.0268    0.0228   -0.3891 C   0  0  0  0  0  0  0  0  0  0  0  0
    0.6260   -0.0078    0.1957 C   0  0  2  0  0  0  0  0  0  0  0  0
   -0.3615   -0.4598   -0.8100 C   0  0  0  0  0  0  0  0  0  0  0  0
   -0.1620   -1.4081   -1.6229 O   0  0  0  0  0  0  0  0  0  0  0  0
   -1.5474    0.3011   -0.7435 N   0  0  0  0  0  0  0  0  0  0  0  0
   -2.7936    0.1242   -1.4054 C   0  0  0  0  0  0  0  0  0  0  0  0
   -3.0116    0.7187   -2.6339 C   0  0  0  0  0  0  0  0  0  0  0  0
   -4.1817    0.5694   -3.2854 N   0  0  0  0  0  0  0  0  0  0  0  0
   -5.1739   -0.1624   -2.7612 C   0  0  0  0  0  0  0  0  0  0  0  0
   -5.0361   -0.7925   -1.5321 C   0  0  0  0  0  0  0  0  0  0  0  0
   -6.0380   -1.5488   -0.9720 C   0  0  0  0  0  0  0  0  0  0  0  0
   -5.8575   -2.1499    0.2388 C   0  0  0  0  0  0  0  0  0  0  0  0
   -4.6589   -2.0085    0.9266 C   0  0  0  0  0  0  0  0  0  0  0  0
   -3.6729   -1.2429    0.3376 C   0  0  0  0  0  0  0  0  0  0  0  0
   -3.8289   -0.6250   -0.8841 C   0  0  0  0  0  0  0  0  0  0  0  0
   -1.2894    1.3816    0.1752 C   0  0  0  0  0  0  0  0  0  0  0  0
    0.1344    1.3227    0.6024 C   0  0  2  0  0  0  0  0  0  0  0  0
    0.8958    2.3814   -0.2059 C   0  0  0  0  0  0  0  0  0  0  0  0
    0.4796    3.7267    0.1290 N   0  0  0  0  0  0  0  0  0  0  0  0
    1.0707    4.4539    1.1182 C   0  0  0  0  0  0  0  0  0  0  0  0
    0.4634    5.6895    1.1992 C   0  0  0  0  0  0  0  0  0  0  0  0
   -0.5131    5.6808    0.2250 C   0  0  0  0  0  0  0  0  0  0  0  0
   -0.4604    4.4903   -0.3815 N   0  0  0  0  0  0  0  0  0  0  0  0
    0.6168   -1.0371    1.2675 C   0  0  0  0  0  0  0  0  0  0  0  0
   -0.2602   -0.9790    2.3486 C   0  0  0  0  0  0  0  0  0  0  0  0
   -0.2762   -1.9378    3.3398 C   0  0  0  0  0  0  0  0  0  0  0  0
   -1.4214   -1.7899    4.6784 Cl  0  0  0  0  0  0  0  0  0  0  0  0
    0.5888   -3.0112    3.3022 C   0  0  0  0  0  0  0  0  0  0  0  0
    1.4685   -3.0930    2.2423 C   0  0  0  0  0  0  0  0  0  0  0  0
    1.4733   -2.1318    1.2634 C   0  0  0  0  0  0  0  0  0  0  0  0
    2.4666   -2.3143    0.1838 C   0  0  0  0  0  0  0  0  0  0  0  0
    3.2517   -3.2697    0.1296 O   0  0  0  0  0  0  0  0  0  0  0  0
  1  2  1  0
  2  3  1  0
  3  4  2  0
  3  5  1  0
  5  6  1  0
  6  7  1  0
  8  7  1  6
  8  9  1  0
  9 10  2  0
  9 11  1  0
 11 12  1  0
 12 13  2  0
 13 14  1  0
 14 15  2  0
 15 16  1  0
 16 17  2  0
 17 18  1  0
 18 19  2  0
 19 20  1  0
 20 21  2  0
 11 22  1  0
 22 23  1  0
 23 24  1  6
 24 25  1  0
 25 26  1  0
 26 27  2  0
 27 28  1  0
 28 29  2  0
  8 30  1  0
 30 31  2  0
 31 32  1  0
 32 33  1  0
 32 34  2  0
 34 35  1  0
 35 36  2  0
 36 37  1  0
 37 38  2  0
 37  6  1  0
 23  8  1  0
 29 25  1  0
 36 30  1  0
 21 12  1  0
 21 16  1  0
M  END
$$$$

     RDKit          3D

 38 43  0  0  0  0  0  0  0  0999 V2000
    3.1657   -5.1037   -3.0991 C   0  0  0  0  0  0  0  0  0  0  0  0
    2.5931   -4.3596   -1.9947 N   0  0  0  0  0  0  0  0  0  0  0  0
    2.7089   -2.9486   -1.8602 C   0  0  0  0  0  0  0  0  0  0  0  0
    3.3417   -2.3155   -2.7471 O   0  0  0  0  0  0  0  0  0  0  0  0
    2.0821   -2.2929   -0.6879 C   0  0  0  0  0  0  0  0  0  0  0  0
    2.2774   -0.8793   -0.6824 N   0  0  0  0  0  0  0  0  0  0  0  0
    1.3515    0.0682   -1.3243 C   0  0  0  0  0  0  0  0  0  0  0  0
    0.8488    0.9682   -0.2466 C   0  0  2  0  0  0  0  0  0  0  0  0
    0.2535    0.0666    0.8087 C   0  0  0  0  0  0  0  0  0  0  0  0
    0.8087   -0.3545    1.8577 O   0  0  0  0  0  0  0  0  0  0  0  0
   -1.0777   -0.2065    0.3603 N   0  0  0  0  0  0  0  0  0  0  0  0
   -1.9559   -1.1982    0.8561 C   0  0  0  0  0  0  0  0  0  0  0  0
   -2.0274   -2.4829    0.3621 C   0  0  0  0  0  0  0  0  0  0  0  0
   -2.8817   -3.4030    0.8647 N   0  0  0  0  0  0  0  0  0  0  0  0
   -3.7168   -3.1260    1.8780 C   0  0  0  0  0  0  0  0  0  0  0  0
   -3.6689   -1.8455    2.3953 C   0  0  0  0  0  0  0  0  0  0  0  0
   -4.5318   -1.5663    3.4392 C   0  0  0  0  0  0  0  0  0  0  0  0
   -4.5353   -0.3064    4.0021 C   0  0  0  0  0  0  0  0  0  0  0  0
   -3.6796    0.6679    3.5221 C   0  0  0  0  0  0  0  0  0  0  0  0
   -2.8130    0.3759    2.4685 C   0  0  0  0  0  0  0  0  0  0  0  0
   -2.8006   -0.8809    1.8975 C   0  0  0  0  0  0  0  0  0  0  0  0
   -1.4320    0.7007   -0.7139 C   0  0  0  0  0  0  0  0  0  0  0  0
   -0.3387    1.7844   -0.6453 C   0  0  2  0  0  0  0  0  0  0  0  0
   -0.2579    2.3507   -2.0381 C   0  0  0  0  0  0  0  0  0  0  0  0
   -1.4773    3.1059   -2.2581 N   0  0  0  0  0  0  0  0  0  0  0  0
   -1.7288    4.3823   -2.0176 N   0  0  0  0  0  0  0  0  0  0  0  0
   -3.0006    4.6720   -2.3741 C   0  0  0  0  0  0  0  0  0  0  0  0
   -3.5180    3.5278   -2.8410 N   0  0  0  0  0  0  0  0  0  0  0  0
   -2.5863    2.5949   -2.7637 N   0  0  0  0  0  0  0  0  0  0  0  0
    1.9520    1.6813    0.3799 C   0  0  0  0  0  0  0  0  0  0  0  0
    1.8702    2.9538    0.9093 C   0  0  0  0  0  0  0  0  0  0  0  0
    2.9606    3.5810    1.5118 C   0  0  0  0  0  0  0  0  0  0  0  0
    2.8007    5.1933    2.1656 Cl  0  0  0  0  0  0  0  0  0  0  0  0
    4.1791    2.9513    1.6057 C   0  0  0  0  0  0  0  0  0  0  0  0
    4.2772    1.6852    1.0836 C   0  0  0  0  0  0  0  0  0  0  0  0
    3.2071    1.0719    0.4930 C   0  0  0  0  0  0  0  0  0  0  0  0
    3.4105   -0.2652   -0.0497 C   0  0  0  0  0  0  0  0  0  0  0  0
    4.4987   -0.8899    0.0077 O   0  0  0  0  0  0  0  0  0  0  0  0
  1  2  1  0
  2  3  1  0
  3  4  2  0
  3  5  1  0
  5  6  1  0
  6  7  1  0
  8  7  1  6
  8  9  1  0
  9 10  2  0
  9 11  1  0
 11 12  1  0
 12 13  2  0
 13 14  1  0
 14 15  2  0
 15 16  1  0
 16 17  2  0
 17 18  1  0
 18 19  2  0
 19 20  1  0
 20 21  2  0
 11 22  1  0
 22 23  1  0
 23 24  1  6
 24 25  1  0
 25 26  1  0
 26 27  2  0
 27 28  1  0
 28 29  2  0
  8 30  1  0
 30 31  2  0
 31 32  1  0
 32 33  1  0
 32 34  2  0
 34 35  1  0
 35 36  2  0
 36 37  1  0
 37 38  2  0
 37  6  1  0
 23  8  1  0
 29 25  1  0
 36 30  1  0
 21 12  1  0
 21 16  1  0
M  END
$$$$

     RDKit          3D

 22 25  0  0  0  0  0  0  0  0999 V2000
   -5.2129    0.8790    0.4246 C   0  0  0  0  0  0  0  0  0  0  0  0
   -3.8634    0.3293   -0.0256 C   0  0  2  0  0  0  0  0  0  0  0  0
   -3.7032   -1.0514    0.5239 C   0  0  0  0  0  0  0  0  0  0  0  0
   -2.5534   -1.1513    1.5050 C   0  0  0  0  0  0  0  0  0  0  0  0
   -1.3534   -0.6861    0.7202 C   0  0  0  0  0  0  0  0  0  0  0  0
   -0.1361   -1.2198    0.4023 C   0  0  0  0  0  0  0  0  0  0  0  0
    0.3153   -2.4574    0.7788 O   0  0  0  0  0  0  0  0  0  0  0  0
    0.4861   -0.2678   -0.3426 N   0  0  0  0  0  0  0  0  0  0  0  0
    1.8036   -0.3935   -0.9016 C   0  0  0  0  0  0  0  0  0  0  0  0
    1.9415   -0.9117   -2.1790 C   0  0  0  0  0  0  0  0  0  0  0  0
    3.1726   -1.0321   -2.7083 N   0  0  0  0  0  0  0  0  0  0  0  0
    4.3004   -0.6755   -2.0668 C   0  0  0  0  0  0  0  0  0  0  0  0
    4.1544   -0.1584   -0.7905 C   0  0  0  0  0  0  0  0  0  0  0  0
    5.3129    0.2176   -0.1080 C   0  0  0  0  0  0  0  0  0  0  0  0
    5.1837    0.7401    1.1778 C   0  0  0  0  0  0  0  0  0  0  0  0
    3.9434    0.8749    1.7438 C   0  0  0  0  0  0  0  0  0  0  0  0
    2.7829    0.5094    1.0871 C   0  0  0  0  0  0  0  0  0  0  0  0
    2.9221   -0.0076   -0.1875 C   0  0  0  0  0  0  0  0  0  0  0  0
   -0.3489    0.8065   -0.4613 C   0  0  0  0  0  0  0  0  0  0  0  0
   -0.1013    1.8691   -1.0828 O   0  0  0  0  0  0  0  0  0  0  0  0
   -1.4825    0.5625    0.1871 N   0  0  0  0  0  0  0  0  0  0  0  0
   -2.7355    1.2401    0.4535 C   0  0  0  0  0  0  0  0  0  0  0  0
  2  1  1  1
  2  3  1  0
  3  4  1  0
  4  5  1  0
  5  6  2  0
  6  7  1  0
  6  8  1  0
  8  9  1  0
  9 10  2  0
 10 11  1  0
 11 12  2  0
 12 13  1  0
 13 14  2  0
 14 15  1  0
 15 16  2  0
 16 17  1  0
 17 18  2  0
  8 19  1  0
 19 20  2  0
 19 21  1  0
 21 22  1  0
 22  2  1  0
 21  5  1  0
 18  9  1  0
 18 13  1  0
M  CHG  1   7  -1
M  END
$$$$

     RDKit          3D

 34 39  0  0  0  0  0  0  0  0999 V2000
   -0.4578   -3.3370   -0.6880 C   0  0  0  0  0  0  0  0  0  0  0  0
    0.2220   -2.1990   -0.0012 C   0  0  1  0  0  0  0  0  0  0  0  0
    1.1297   -1.4372   -0.9804 C   0  0  0  0  0  0  0  0  0  0  0  0
    1.3282   -0.1744   -0.2979 N   0  0  0  0  0  0  0  0  0  0  0  0
    2.3234    0.7748   -0.6451 C   0  0  0  0  0  0  0  0  0  0  0  0
    2.1313    1.7910   -1.5533 C   0  0  0  0  0  0  0  0  0  0  0  0
    3.1440    2.6571   -1.8249 N   0  0  0  0  0  0  0  0  0  0  0  0
    4.3459    2.5529   -1.2270 C   0  0  0  0  0  0  0  0  0  0  0  0
    4.5610    1.5413   -0.3128 C   0  0  0  0  0  0  0  0  0  0  0  0
    5.7973    1.4309    0.3048 C   0  0  0  0  0  0  0  0  0  0  0  0
    6.0359    0.4325    1.2184 C   0  0  0  0  0  0  0  0  0  0  0  0
    5.0415   -0.4743    1.5310 C   0  0  0  0  0  0  0  0  0  0  0  0
    3.8090   -0.3493    0.9031 C   0  0  0  0  0  0  0  0  0  0  0  0
    3.5527    0.6447   -0.0145 C   0  0  0  0  0  0  0  0  0  0  0  0
    0.3706   -0.0408    0.7700 C   0  0  0  0  0  0  0  0  0  0  0  0
    0.3847    0.7771    1.7251 O   0  0  0  0  0  0  0  0  0  0  0  0
   -0.6574   -1.1088    0.4823 C   0  0  1  0  0  0  0  0  0  0  0  0
   -1.5701   -0.5320   -0.5425 C   0  0  0  0  0  0  0  0  0  0  0  0
   -2.1596    0.6914    0.0285 N   0  0  0  0  0  0  0  0  0  0  0  0
   -2.0193    1.9606   -0.6134 C   0  0  0  0  0  0  0  0  0  0  0  0
   -3.1286    2.2096   -1.5717 C   0  0  0  0  0  0  0  0  0  0  0  0
   -3.1469    1.8691   -2.9203 C   0  0  0  0  0  0  0  0  0  0  0  0
   -4.3580    2.2893   -3.3927 C   0  0  0  0  0  0  0  0  0  0  0  0
   -5.0052    2.8474   -2.3550 N   0  0  0  0  0  0  0  0  0  0  0  0
   -4.2937    2.8122   -1.2590 N   0  0  0  0  0  0  0  0  0  0  0  0
   -2.8737    0.5154    1.2465 C   0  0  0  0  0  0  0  0  0  0  0  0
   -3.8297    1.2873    1.5049 O   0  0  0  0  0  0  0  0  0  0  0  0
   -2.4414   -0.5644    2.1264 C   0  0  0  0  0  0  0  0  0  0  0  0
   -3.1259   -0.7584    3.2996 C   0  0  0  0  0  0  0  0  0  0  0  0
   -2.7606   -1.7750    4.1570 C   0  0  0  0  0  0  0  0  0  0  0  0
   -1.6968   -2.5768    3.7946 C   0  0  0  0  0  0  0  0  0  0  0  0
   -1.3307   -3.5831    4.6367 F   0  0  0  0  0  0  0  0  0  0  0  0
   -1.0113   -2.3637    2.5950 C   0  0  0  0  0  0  0  0  0  0  0  0
   -1.3703   -1.3449    1.7267 C   0  0  0  0  0  0  0  0  0  0  0  0
  2  1  1  6
  2  3  1  0
  3  4  1  0
  4  5  1  0
  5  6  2  0
  6  7  1  0
  7  8  2  0
  8  9  1  0
  9 10  2  0
 10 11  1  0
 11 12  2  0
 12 13  1  0
 13 14  2  0
  4 15  1  0
 15 16  2  0
 15 17  1  0
 17 18  1  6
 18 19  1  0
 19 20  1  0
 20 21  1  0
 21 22  1  0
 22 23  2  0
 23 24  1  0
 24 25  1  0
 19 26  1  0
 26 27  2  0
 26 28  1  0
 28 29  2  0
 29 30  1  0
 30 31  2  0
 31 32  1  0
 31 33  1  0
 33 34  2  0
 17  2  1  0
 25 21  2  0
 34 28  1  0
 14  5  1  0
 34 17  1  0
 14  9  1  0
M  END
$$$$

     RDKit          3D

 26 29  0  0  0  0  0  0  0  0999 V2000
   -0.4347    0.5629    1.4322 O   0  0  0  0  0  0  0  0  0  0  0  0
   -0.5316   -0.3689    0.5916 C   0  0  0  0  0  0  0  0  0  0  0  0
   -1.8254   -1.0767    0.3234 C   0  0  1  0  0  0  0  0  0  0  0  0
   -2.8711   -0.0746    0.0696 C   0  0  0  0  0  0  0  0  0  0  0  0
   -4.0249    0.0453    0.8365 C   0  0  0  0  0  0  0  0  0  0  0  0
   -4.9472    1.0202    0.5160 C   0  0  0  0  0  0  0  0  0  0  0  0
   -4.7081    1.8563   -0.5572 C   0  0  0  0  0  0  0  0  0  0  0  0
   -5.8700    3.0952   -0.9724 Cl  0  0  0  0  0  0  0  0  0  0  0  0
   -3.5748    1.7670   -1.3407 C   0  0  0  0  0  0  0  0  0  0  0  0
   -3.3322    2.8582   -2.6875 Cl  0  0  0  0  0  0  0  0  0  0  0  0
   -2.6634    0.7900   -1.0096 C   0  0  0  0  0  0  0  0  0  0  0  0
   -1.5550   -1.9308   -0.9216 C   0  0  0  0  0  0  0  0  0  0  0  0
   -0.4720   -2.9074   -0.5153 C   0  0  2  0  0  0  0  0  0  0  0  0
   -0.7758   -3.3399    0.7776 O   0  0  0  0  0  0  0  0  0  0  0  0
    0.8422   -2.1646   -0.4942 C   0  0  0  0  0  0  0  0  0  0  0  0
    0.6483   -0.7659   -0.1372 N   0  0  0  0  0  0  0  0  0  0  0  0
    1.6065    0.2326   -0.4940 C   0  0  0  0  0  0  0  0  0  0  0  0
    1.3988    0.8429   -1.7318 C   0  0  0  0  0  0  0  0  0  0  0  0
    2.2663    1.7927   -2.1277 N   0  0  0  0  0  0  0  0  0  0  0  0
    3.3145    2.1577   -1.3608 C   0  0  0  0  0  0  0  0  0  0  0  0
    3.5444    1.5619   -0.1174 C   0  0  0  0  0  0  0  0  0  0  0  0
    4.6169    1.9423    0.6562 C   0  0  0  0  0  0  0  0  0  0  0  0
    4.7992    1.3171    1.8852 C   0  0  0  0  0  0  0  0  0  0  0  0
    3.9039    0.3326    2.3005 C   0  0  0  0  0  0  0  0  0  0  0  0
    2.8300   -0.0550    1.5365 C   0  0  0  0  0  0  0  0  0  0  0  0
    2.6657    0.5772    0.3195 C   0  0  0  0  0  0  0  0  0  0  0  0
  1  2  2  0
  2  3  1  0
  3  4  1  6
  4  5  2  0
  5  6  1  0
  6  7  2  0
  7  8  1  0
  7  9  1  0
  9 10  1  0
  9 11  2  0
  3 12  1  0
 12 13  1  0
 13 14  1  1
 13 15  1  0
 15 16  1  0
 16 17  1  0
 17 18  2  0
 18 19  1  0
 19 20  2  0
 20 21  1  0
 21 22  2  0
 22 23  1  0
 23 24  2  0
 24 25  1  0
 25 26  2  0
 16  2  1  0
 26 17  1  0
 11  4  1  0
 26 21  1  0
M  END
$$$$

     RDKit          3D

 39 44  0  0  0  0  0  0  0  0999 V2000
    3.4923   -4.5764   -3.3221 C   0  0  0  0  0  0  0  0  0  0  0  0
    2.8735   -4.1133   -2.0871 N   0  0  0  0  0  0  0  0  0  0  0  0
    2.9033   -2.7322   -1.7049 C   0  0  0  0  0  0  0  0  0  0  0  0
    3.4603   -1.8481   -2.4074 O   0  0  0  0  0  0  0  0  0  0  0  0
    2.2246   -2.3940   -0.4037 C   0  0  0  0  0  0  0  0  0  0  0  0
    2.3889   -0.9694   -0.2447 N   0  0  0  0  0  0  0  0  0  0  0  0
    1.4423   -0.0002   -0.7558 C   0  0  0  0  0  0  0  0  0  0  0  0
    0.9761    0.8522    0.3808 C   0  0  2  0  0  0  0  0  0  0  0  0
    0.2856   -0.0886    1.3371 C   0  0  0  0  0  0  0  0  0  0  0  0
    0.8468   -0.7507    2.2473 O   0  0  0  0  0  0  0  0  0  0  0  0
   -1.1094   -0.1205    1.0588 N   0  0  0  0  0  0  0  0  0  0  0  0
   -2.1545   -0.8380    1.6659 C   0  0  0  0  0  0  0  0  0  0  0  0
   -2.8015   -0.2512    2.7361 C   0  0  0  0  0  0  0  0  0  0  0  0
   -3.8220   -0.9021    3.3619 N   0  0  0  0  0  0  0  0  0  0  0  0
   -4.2353   -2.1146    2.9759 C   0  0  0  0  0  0  0  0  0  0  0  0
   -3.6210   -2.7498    1.9071 C   0  0  0  0  0  0  0  0  0  0  0  0
   -3.9993   -3.9936    1.4621 C   0  0  0  0  0  0  0  0  0  0  0  0
   -3.3686   -4.6049    0.3906 C   0  0  0  0  0  0  0  0  0  0  0  0
   -2.3344   -3.9486   -0.2461 C   0  0  0  0  0  0  0  0  0  0  0  0
   -1.9678   -2.6987    0.2152 C   0  0  0  0  0  0  0  0  0  0  0  0
   -2.5889   -2.0823    1.2803 C   0  0  0  0  0  0  0  0  0  0  0  0
   -1.3455    0.7965   -0.0719 C   0  0  0  0  0  0  0  0  0  0  0  0
   -0.1484    1.7694    0.0257 C   0  0  2  0  0  0  0  0  0  0  0  0
   -0.0456    2.4566   -1.2892 C   0  0  0  0  0  0  0  0  0  0  0  0
   -1.2502    3.3292   -1.4772 C   0  0  0  0  0  0  0  0  0  0  0  0
   -1.1655    4.6453   -1.0185 C   0  0  0  0  0  0  0  0  0  0  0  0
   -2.2525    5.5041   -1.1651 C   0  0  0  0  0  0  0  0  0  0  0  0
   -3.4094    5.0441   -1.7654 C   0  0  0  0  0  0  0  0  0  0  0  0
   -3.4808    3.7401   -2.2149 C   0  0  0  0  0  0  0  0  0  0  0  0
   -2.4009    2.8615   -2.0775 C   0  0  0  0  0  0  0  0  0  0  0  0
    2.1158    1.4516    1.0668 C   0  0  0  0  0  0  0  0  0  0  0  0
    2.0515    2.6828    1.7344 C   0  0  0  0  0  0  0  0  0  0  0  0
    3.1476    3.2126    2.3855 C   0  0  0  0  0  0  0  0  0  0  0  0
    3.0270    4.7709    3.2180 Cl  0  0  0  0  0  0  0  0  0  0  0  0
    4.3633    2.5645    2.4167 C   0  0  0  0  0  0  0  0  0  0  0  0
    4.4414    1.3527    1.7640 C   0  0  0  0  0  0  0  0  0  0  0  0
    3.3491    0.8302    1.1179 C   0  0  0  0  0  0  0  0  0  0  0  0
    3.5346   -0.4530    0.4380 C   0  0  0  0  0  0  0  0  0  0  0  0
    4.6252   -1.0813    0.4412 O   0  0  0  0  0  0  0  0  0  0  0  0
  1  2  1  0
  2  3  1  0
  3  4  2  0
  3  5  1  0
  5  6  1  0
  6  7  1  0
  8  7  1  6
  8  9  1  0
  9 10  2  0
  9 11  1  0
 11 12  1  0
 12 13  2  0
 13 14  1  0
 14 15  2  0
 15 16  1  0
 16 17  2  0
 17 18  1  0
 18 19  2  0
 19 20  1  0
 20 21  2  0
 11 22  1  0
 22 23  1  0
 23 24  1  6
 24 25  1  0
 25 26  2  0
 26 27  1  0
 27 28  2  0
 28 29  1  0
 29 30  2  0
  8 31  1  0
 31 32  2  0
 32 33  1  0
 33 34  1  0
 33 35  2  0
 35 36  1  0
 36 37  2  0
 37 38  1  0
 38 39  2  0
 38  6  1  0
 23  8  1  0
 30 25  1  0
 37 31  1  0
 21 12  1  0
 21 16  1  0
M  END
$$$$

     RDKit          3D

 36 41  0  0  0  0  0  0  0  0999 V2000
   -0.8466    1.5537    0.4742 C   0  0  0  0  0  0  0  0  0  0  0  0
   -0.9461    0.2270    1.1471 C   0  0  1  0  0  0  0  0  0  0  0  0
   -2.4043   -0.0418    1.3989 C   0  0  0  0  0  0  0  0  0  0  0  0
   -2.8924   -0.5655    0.1479 N   0  0  0  0  0  0  0  0  0  0  0  0
   -4.2881   -0.5977   -0.1777 C   0  0  0  0  0  0  0  0  0  0  0  0
   -5.1034   -1.6636    0.2127 C   0  0  0  0  0  0  0  0  0  0  0  0
   -6.4155   -1.7081   -0.0904 N   0  0  0  0  0  0  0  0  0  0  0  0
   -7.0150   -0.7294   -0.7857 C   0  0  0  0  0  0  0  0  0  0  0  0
   -6.2741    0.3529   -1.2040 C   0  0  0  0  0  0  0  0  0  0  0  0
   -6.8968    1.3500   -1.9181 C   0  0  0  0  0  0  0  0  0  0  0  0
   -6.1780    2.4486   -2.3542 C   0  0  0  0  0  0  0  0  0  0  0  0
   -4.8478    2.4912   -2.0460 C   0  0  0  0  0  0  0  0  0  0  0  0
   -4.2322    1.5023   -1.3382 C   0  0  0  0  0  0  0  0  0  0  0  0
   -4.9162    0.3978   -0.8898 C   0  0  0  0  0  0  0  0  0  0  0  0
   -1.7848   -1.0198   -0.6140 C   0  0  0  0  0  0  0  0  0  0  0  0
   -1.8600   -1.4556   -1.7851 O   0  0  0  0  0  0  0  0  0  0  0  0
   -0.5592   -0.8872    0.2080 C   0  0  1  0  0  0  0  0  0  0  0  0
    0.6621   -0.5931   -0.5851 C   0  0  0  0  0  0  0  0  0  0  0  0
    1.8208   -0.6046    0.2807 N   0  0  0  0  0  0  0  0  0  0  0  0
    2.7484    0.5009    0.4026 C   0  0  0  0  0  0  0  0  0  0  0  0
    3.8480    0.3823   -0.5919 C   0  0  0  0  0  0  0  0  0  0  0  0
    3.9123   -0.5874   -1.4173 O   0  0  0  0  0  0  0  0  0  0  0  0
    4.8399    1.4172   -0.5791 N   0  0  0  0  0  0  0  0  0  0  0  0
    5.9386    1.3507   -1.5313 C   0  0  0  0  0  0  0  0  0  0  0  0
    6.8227    2.5430   -1.3049 C   0  0  0  0  0  0  0  0  0  0  0  0
    7.4103    2.6049    0.0937 C   0  0  0  0  0  0  0  0  0  0  0  0
    8.2783    2.3295   -1.1183 C   0  0  0  0  0  0  0  0  0  0  0  0
    2.0635   -1.7895    1.0466 C   0  0  0  0  0  0  0  0  0  0  0  0
    3.2401   -2.1152    1.4152 O   0  0  0  0  0  0  0  0  0  0  0  0
    0.8941   -2.5937    1.3770 C   0  0  0  0  0  0  0  0  0  0  0  0
    1.1056   -3.7553    2.0771 C   0  0  0  0  0  0  0  0  0  0  0  0
    0.0349   -4.5706    2.3806 C   0  0  0  0  0  0  0  0  0  0  0  0
   -1.2241   -4.1891    1.9669 C   0  0  0  0  0  0  0  0  0  0  0  0
   -2.2852   -4.9875    2.2613 F   0  0  0  0  0  0  0  0  0  0  0  0
   -1.4072   -3.0169    1.2657 C   0  0  0  0  0  0  0  0  0  0  0  0
   -0.3439   -2.1691    0.9436 C   0  0  0  0  0  0  0  0  0  0  0  0
  2  1  1  6
  2  3  1  0
  3  4  1  0
  4  5  1  0
  5  6  2  0
  6  7  1  0
  7  8  2  0
  8  9  1  0
  9 10  2  0
 10 11  1  0
 11 12  2  0
 12 13  1  0
 13 14  2  0
  4 15  1  0
 15 16  2  0
 15 17  1  0
 17 18  1  6
 18 19  1  0
 19 20  1  0
 20 21  1  0
 21 22  2  0
 21 23  1  0
 23 24  1  0
 24 25  1  0
 25 26  1  0
 26 27  1  0
 19 28  1  0
 28 29  2  0
 28 30  1  0
 30 31  2  0
 31 32  1  0
 32 33  2  0
 33 34  1  0
 33 35  1  0
 35 36  2  0
 17  2  1  0
 27 25  1  0
 36 30  1  0
 14  5  1  0
 36 17  1  0
 14  9  1  0
M  END
$$$$

     RDKit          3D

 26 30  0  0  0  0  0  0  0  0999 V2000
   -0.1585    1.8812    2.1359 O   0  0  0  0  0  0  0  0  0  0  0  0
    0.2682    0.8464    1.5472 C   0  0  0  0  0  0  0  0  0  0  0  0
    1.4555    0.0909    1.8658 N   0  0  0  0  0  0  0  0  0  0  0  0
    1.7918   -0.6225    0.6742 C   0  0  2  0  0  0  0  0  0  0  0  0
    2.5558   -1.9032    0.9179 C   0  0  0  0  0  0  0  0  0  0  0  0
    2.8248   -2.5683   -0.3988 C   0  0  0  0  0  0  0  0  0  0  0  0
    3.0507   -1.6749   -1.4665 O   0  0  0  0  0  0  0  0  0  0  0  0
    3.2612   -0.3149   -1.2752 C   0  0  0  0  0  0  0  0  0  0  0  0
    4.0350    0.4626   -2.0819 C   0  0  0  0  0  0  0  0  0  0  0  0
    4.1750    1.8059   -1.7979 C   0  0  0  0  0  0  0  0  0  0  0  0
    3.5663    2.3912   -0.7355 N   0  0  0  0  0  0  0  0  0  0  0  0
    2.8013    1.6042    0.0554 C   0  0  0  0  0  0  0  0  0  0  0  0
    2.6282    0.2563   -0.1838 C   0  0  0  0  0  0  0  0  0  0  0  0
    0.4563   -0.9035    0.0957 C   0  0  0  0  0  0  0  0  0  0  0  0
    0.0515   -1.8956   -0.5644 O   0  0  0  0  0  0  0  0  0  0  0  0
   -0.3547    0.2158    0.4339 N   0  0  0  0  0  0  0  0  0  0  0  0
   -1.5575    0.6757   -0.1703 C   0  0  0  0  0  0  0  0  0  0  0  0
   -1.3983    1.5937   -1.2113 C   0  0  0  0  0  0  0  0  0  0  0  0
   -2.4865    2.0679   -1.8245 N   0  0  0  0  0  0  0  0  0  0  0  0
   -3.7360    1.6851   -1.4668 C   0  0  0  0  0  0  0  0  0  0  0  0
   -3.9206    0.7667   -0.4270 C   0  0  0  0  0  0  0  0  0  0  0  0
   -5.1949    0.3621   -0.0458 C   0  0  0  0  0  0  0  0  0  0  0  0
   -5.3298   -0.5489    0.9889 C   0  0  0  0  0  0  0  0  0  0  0  0
   -4.1908   -1.0409    1.6257 C   0  0  0  0  0  0  0  0  0  0  0  0
   -2.9250   -0.6429    1.2515 C   0  0  0  0  0  0  0  0  0  0  0  0
   -2.8111    0.2638    0.2205 C   0  0  0  0  0  0  0  0  0  0  0  0
  1  2  2  0
  2  3  1  0
  3  4  1  0
  4  5  1  1
  5  6  1  0
  6  7  1  0
  7  8  1  0
  8  9  2  0
  9 10  1  0
 10 11  2  0
 11 12  1  0
 12 13  2  0
  4 14  1  0
 14 15  2  0
 14 16  1  0
 16 17  1  0
 17 18  2  0
 18 19  1  0
 19 20  2  0
 20 21  1  0
 21 22  2  0
 22 23  1  0
 23 24  2  0
 24 25  1  0
 25 26  2  0
 16  2  1  0
 26 17  1  0
 13  4  1  0
 26 21  1  0
 13  8  1  0
M  END
$$$$

     RDKit          3D

 40 45  0  0  0  0  0  0  0  0999 V2000
    4.1338    4.7221   -3.1598 C   0  0  0  0  0  0  0  0  0  0  0  0
    3.3458    4.7589   -1.9451 N   0  0  0  0  0  0  0  0  0  0  0  0
    3.0771    3.5613   -1.2331 C   0  0  0  0  0  0  0  0  0  0  0  0
    3.5102    2.4476   -1.6290 O   0  0  0  0  0  0  0  0  0  0  0  0
    2.2690    3.5716    0.0161 C   0  0  0  0  0  0  0  0  0  0  0  0
    2.1498    2.1930    0.5338 N   0  0  0  0  0  0  0  0  0  0  0  0
    1.0348    1.4400    0.0385 C   0  0  0  0  0  0  0  0  0  0  0  0
    0.8551    0.0623    0.5628 C   0  0  2  0  0  0  0  0  0  0  0  0
    0.9006   -0.9447   -0.5743 C   0  0  0  0  0  0  0  0  0  0  0  0
    1.9516   -1.1445   -1.2623 O   0  0  0  0  0  0  0  0  0  0  0  0
   -0.3296   -1.5785   -0.7301 N   0  0  0  0  0  0  0  0  0  0  0  0
   -0.8058   -2.3295   -1.8398 C   0  0  0  0  0  0  0  0  0  0  0  0
   -1.5274   -1.7307   -2.8783 C   0  0  0  0  0  0  0  0  0  0  0  0
   -1.9741   -2.4343   -3.9315 N   0  0  0  0  0  0  0  0  0  0  0  0
   -1.7542   -3.7663   -4.0544 C   0  0  0  0  0  0  0  0  0  0  0  0
   -1.0403   -4.4163   -3.0488 C   0  0  0  0  0  0  0  0  0  0  0  0
   -0.8154   -5.7881   -3.1736 C   0  0  0  0  0  0  0  0  0  0  0  0
   -0.1023   -6.4167   -2.1604 C   0  0  0  0  0  0  0  0  0  0  0  0
    0.3594   -5.7020   -1.0800 C   0  0  0  0  0  0  0  0  0  0  0  0
    0.1319   -4.3332   -0.9585 C   0  0  0  0  0  0  0  0  0  0  0  0
   -0.5747   -3.7027   -1.9594 C   0  0  0  0  0  0  0  0  0  0  0  0
   -1.1120   -1.3514    0.4655 C   0  0  0  0  0  0  0  0  0  0  0  0
   -0.4942   -0.2028    1.1788 C   0  0  2  0  0  0  0  0  0  0  0  0
   -1.4447    0.9704    1.1165 C   0  0  0  0  0  0  0  0  0  0  0  0
   -2.6936    0.5058    1.7541 N   0  0  0  0  0  0  0  0  0  0  0  0
   -3.7443    1.4728    1.7831 C   0  0  0  0  0  0  0  0  0  0  0  0
   -3.5880    2.7323    1.2579 C   0  0  0  0  0  0  0  0  0  0  0  0
   -4.5621    3.7003    1.2565 C   0  0  0  0  0  0  0  0  0  0  0  0
   -5.7802    3.3890    1.8200 C   0  0  0  0  0  0  0  0  0  0  0  0
   -5.9827    2.1164    2.3675 C   0  0  0  0  0  0  0  0  0  0  0  0
   -4.9880    1.1709    2.3530 C   0  0  0  0  0  0  0  0  0  0  0  0
    1.8922   -0.3843    1.5272 C   0  0  0  0  0  0  0  0  0  0  0  0
    1.7931   -1.6694    2.0461 C   0  0  0  0  0  0  0  0  0  0  0  0
    2.7301   -2.1468    2.9470 C   0  0  0  0  0  0  0  0  0  0  0  0
    2.5638   -3.7938    3.5825 Cl  0  0  0  0  0  0  0  0  0  0  0  0
    3.7866   -1.3836    3.3643 C   0  0  0  0  0  0  0  0  0  0  0  0
    3.8991   -0.0991    2.8558 C   0  0  0  0  0  0  0  0  0  0  0  0
    2.9532    0.3668    1.9537 C   0  0  0  0  0  0  0  0  0  0  0  0
    3.1194    1.7222    1.4530 C   0  0  0  0  0  0  0  0  0  0  0  0
    4.0964    2.4566    1.8249 O   0  0  0  0  0  0  0  0  0  0  0  0
  1  2  1  0
  2  3  1  0
  3  4  2  0
  3  5  1  0
  5  6  1  0
  6  7  1  0
  8  7  1  6
  8  9  1  0
  9 10  2  0
  9 11  1  0
 11 12  1  0
 12 13  2  0
 13 14  1  0
 14 15  2  0
 15 16  1  0
 16 17  2  0
 17 18  1  0
 18 19  2  0
 19 20  1  0
 20 21  2  0
 11 22  1  0
 22 23  1  0
 23 24  1  6
 24 25  1  0
 25 26  1  0
 26 27  2  0
 27 28  1  0
 28 29  2  0
 29 30  1  0
 30 31  2  0
  8 32  1  0
 32 33  2  0
 33 34  1  0
 34 35  1  0
 34 36  2  0
 36 37  1  0
 37 38  2  0
 38 39  1  0
 39 40  2  0
 39  6  1  0
 23  8  1  0
 31 26  1  0
 38 32  1  0
 21 12  1  0
 21 16  1  0
M  END
$$$$

     RDKit          3D

 36 41  0  0  0  0  0  0  0  0999 V2000
    3.4927    1.4196    0.3447 O   0  0  0  0  0  0  0  0  0  0  0  0
    3.4460    0.1681    0.2346 C   0  0  0  0  0  0  0  0  0  0  0  0
    2.2003   -0.4782   -0.3121 C   0  0  0  0  0  0  0  0  0  0  0  0
    1.2066    0.5223   -0.6373 N   0  0  1  0  0  0  0  0  0  0  0  0
    0.6815    0.3084   -1.9805 C   0  0  0  0  0  0  0  0  0  0  0  0
   -0.0352   -1.0173   -1.9037 C   0  0  0  0  0  0  0  0  0  0  0  0
    0.0969   -1.9598   -2.9017 C   0  0  0  0  0  0  0  0  0  0  0  0
   -0.5661   -3.1655   -2.8053 C   0  0  0  0  0  0  0  0  0  0  0  0
   -1.3511   -3.3864   -1.6928 C   0  0  0  0  0  0  0  0  0  0  0  0
   -2.1978   -4.9338   -1.5760 Cl  0  0  0  0  0  0  0  0  0  0  0  0
   -1.4744   -2.4264   -0.6950 C   0  0  0  0  0  0  0  0  0  0  0  0
   -0.8096   -1.2019   -0.7788 C   0  0  0  0  0  0  0  0  0  0  0  0
   -0.9721   -0.2149    0.2988 C   0  0  2  0  0  0  0  0  0  0  0  0
   -1.3756   -0.8011    1.6036 C   0  0  0  0  0  0  0  0  0  0  0  0
   -2.8491   -0.6617    1.7244 C   0  0  0  0  0  0  0  0  0  0  0  0
   -3.3109   -0.0651    0.4890 N   0  0  0  0  0  0  0  0  0  0  0  0
   -4.6175   -0.1015   -0.0968 C   0  0  0  0  0  0  0  0  0  0  0  0
   -5.0076   -1.0914   -0.9762 C   0  0  0  0  0  0  0  0  0  0  0  0
   -6.2543   -1.0740   -1.4977 N   0  0  0  0  0  0  0  0  0  0  0  0
   -7.0922   -0.0830   -1.1436 C   0  0  0  0  0  0  0  0  0  0  0  0
   -6.7482    0.9270   -0.2695 C   0  0  0  0  0  0  0  0  0  0  0  0
   -7.6526    1.9091    0.0498 C   0  0  0  0  0  0  0  0  0  0  0  0
   -7.2739    2.9194    0.9389 C   0  0  0  0  0  0  0  0  0  0  0  0
   -6.0002    2.8983    1.4693 C   0  0  0  0  0  0  0  0  0  0  0  0
   -5.1091    1.9013    1.1337 C   0  0  0  0  0  0  0  0  0  0  0  0
   -5.4763    0.9136    0.2657 C   0  0  0  0  0  0  0  0  0  0  0  0
   -2.1877    0.5982   -0.0723 C   0  0  0  0  0  0  0  0  0  0  0  0
   -2.2044    1.6702   -0.7557 O   0  0  0  0  0  0  0  0  0  0  0  0
    0.2130    0.6838    0.3677 C   0  0  0  0  0  0  0  0  0  0  0  0
    4.5119   -0.6972    0.5987 N   0  0  0  0  0  0  0  0  0  0  0  0
    5.7423   -0.1546    1.1313 C   0  0  0  0  0  0  0  0  0  0  0  0
    6.4042    0.7877    0.1397 C   0  0  1  0  0  0  0  0  0  0  0  0
    7.6836    1.3380    0.7214 C   0  0  0  0  0  0  0  0  0  0  0  0
    8.4091    0.8999   -0.5118 C   0  0  1  0  0  0  0  0  0  0  0  0
    9.6127    0.2410   -0.2417 F   0  0  0  0  0  0  0  0  0  0  0  0
    7.2533   -0.0194   -0.8361 C   0  0  0  0  0  0  0  0  0  0  0  0
  1  2  2  0
  2  3  1  0
  4  3  1  1
  4  5  1  0
  5  6  1  0
  6  7  2  0
  7  8  1  0
  8  9  2  0
  9 10  1  0
  9 11  1  0
 11 12  2  0
 12 13  1  0
 13 14  1  1
 14 15  1  0
 15 16  1  0
 16 17  1  0
 17 18  2  0
 18 19  1  0
 19 20  2  0
 20 21  1  0
 21 22  2  0
 22 23  1  0
 23 24  2  0
 24 25  1  0
 25 26  2  0
 16 27  1  0
 27 28  2  0
 13 29  1  0
  2 30  1  0
 30 31  1  0
 32 31  1  1
 32 33  1  0
 33 34  1  0
 34 35  1  1
 34 36  1  0
 29  4  1  0
 36 32  1  0
 12  6  1  0
 27 13  1  0
 26 17  1  0
 26 21  1  0
M  CHG  1   4   1
M  END
$$$$

     RDKit          3D

 41 46  0  0  0  0  0  0  0  0999 V2000
    2.5377   -0.1104    2.5342 O   0  0  0  0  0  0  0  0  0  0  0  0
    1.8231   -0.5283    1.5609 C   0  0  0  0  0  0  0  0  0  0  0  0
    0.4230   -0.8862    1.8858 C   0  0  0  0  0  0  0  0  0  0  0  0
   -0.3491   -1.3511    0.7682 N   0  0  1  0  0  0  0  0  0  0  0  0
   -1.4458   -2.1623    1.2863 C   0  0  0  0  0  0  0  0  0  0  0  0
   -2.2234   -1.2319    2.1590 C   0  0  0  0  0  0  0  0  0  0  0  0
   -2.6057   -1.5517    3.4420 C   0  0  0  0  0  0  0  0  0  0  0  0
   -3.3148   -0.6575    4.2165 C   0  0  0  0  0  0  0  0  0  0  0  0
   -3.6313    0.5775    3.6604 C   0  0  0  0  0  0  0  0  0  0  0  0
   -4.5383    1.7295    4.6429 Cl  0  0  0  0  0  0  0  0  0  0  0  0
   -3.2369    0.8757    2.3706 C   0  0  0  0  0  0  0  0  0  0  0  0
   -2.5289    0.0023    1.5755 C   0  0  0  0  0  0  0  0  0  0  0  0
   -2.1046    0.3116    0.1885 C   0  0  2  0  0  0  0  0  0  0  0  0
   -3.1786   -0.1792   -0.7522 C   0  0  0  0  0  0  0  0  0  0  0  0
   -2.8291   -1.0246   -1.5929 O   0  0  0  0  0  0  0  0  0  0  0  0
   -4.5083    0.3098   -0.6660 N   0  0  0  0  0  0  0  0  0  0  0  0
   -5.5796   -0.0858   -1.4968 C   0  0  0  0  0  0  0  0  0  0  0  0
   -5.4874   -1.0145   -2.5076 C   0  0  0  0  0  0  0  0  0  0  0  0
   -6.5497   -1.3641   -3.2865 N   0  0  0  0  0  0  0  0  0  0  0  0
   -7.7619   -0.8311   -3.1274 C   0  0  0  0  0  0  0  0  0  0  0  0
   -7.9042    0.1108   -2.1200 C   0  0  0  0  0  0  0  0  0  0  0  0
   -9.1605    0.6498   -1.9709 C   0  0  0  0  0  0  0  0  0  0  0  0
   -9.3760    1.5895   -0.9930 C   0  0  0  0  0  0  0  0  0  0  0  0
   -8.3666    1.9898   -0.1764 C   0  0  0  0  0  0  0  0  0  0  0  0
   -7.0993    1.4257   -0.3498 C   0  0  0  0  0  0  0  0  0  0  0  0
   -6.8282    0.4855   -1.3079 C   0  0  0  0  0  0  0  0  0  0  0  0
   -0.7899   -0.3189   -0.1057 C   0  0  0  0  0  0  0  0  0  0  0  0
    2.3966   -0.6197    0.2753 N   0  0  0  0  0  0  0  0  0  0  0  0
    3.7492   -0.2694   -0.0175 C   0  0  0  0  0  0  0  0  0  0  0  0
    4.7012   -1.2617    0.0887 C   0  0  0  0  0  0  0  0  0  0  0  0
    6.0254   -0.9882   -0.1812 C   0  0  0  0  0  0  0  0  0  0  0  0
    6.3658    0.3147   -0.5619 C   0  0  0  0  0  0  0  0  0  0  0  0
    7.7460    0.5345   -0.8273 N   0  0  0  0  0  0  0  0  0  0  0  0
    8.2232    0.3293   -2.1865 C   0  0  0  0  0  0  0  0  0  0  0  0
    9.6726   -0.0969   -2.1904 C   0  0  0  0  0  0  0  0  0  0  0  0
   10.4315    0.7653   -1.4072 O   0  0  0  0  0  0  0  0  0  0  0  0
   10.1006    0.6226   -0.0579 C   0  0  0  0  0  0  0  0  0  0  0  0
    8.6637    0.9425    0.1778 C   0  0  0  0  0  0  0  0  0  0  0  0
    8.2311    1.5319    1.1793 O   0  0  0  0  0  0  0  0  0  0  0  0
    5.4088    1.3036   -0.6665 C   0  0  0  0  0  0  0  0  0  0  0  0
    4.0808    1.0324   -0.3967 C   0  0  0  0  0  0  0  0  0  0  0  0
  1  2  2  0
  2  3  1  0
  4  3  1  1
  4  5  1  0
  5  6  1  0
  6  7  2  0
  7  8  1  0
  8  9  2  0
  9 10  1  0
  9 11  1  0
 11 12  2  0
 12 13  1  0
 13 14  1  6
 14 15  2  0
 14 16  1  0
 16 17  1  0
 17 18  2  0
 18 19  1  0
 19 20  2  0
 20 21  1  0
 21 22  2  0
 22 23  1  0
 23 24  2  0
 24 25  1  0
 25 26  2  0
 13 27  1  0
  2 28  1  0
 28 29  1  0
 29 30  2  0
 30 31  1  0
 31 32  2  0
 32 33  1  0
 33 34  1  0
 34 35  1  0
 35 36  1  0
 36 37  1  0
 37 38  1  0
 38 39  2  0
 32 40  1  0
 40 41  2  0
 27  4  1  0
 41 29  1  0
 12  6  1  0
 26 17  1  0
 38 33  1  0
 26 21  1  0
M  CHG  1   4   1
M  END
$$$$

     RDKit          3D

 34 39  0  0  0  0  0  0  0  0999 V2000
   -1.1968    0.1274   -1.9342 C   0  0  0  0  0  0  0  0  0  0  0  0
   -0.1127   -0.0503   -0.9321 C   0  0  1  0  0  0  0  0  0  0  0  0
    0.6660    1.1615   -0.5700 C   0  0  0  0  0  0  0  0  0  0  0  0
    1.3810    0.6983    0.6253 N   0  0  0  0  0  0  0  0  0  0  0  0
    2.5513    1.3671    1.1027 C   0  0  0  0  0  0  0  0  0  0  0  0
    2.4551    2.4059    2.0214 C   0  0  0  0  0  0  0  0  0  0  0  0
    3.5795    2.9859    2.4253 N   0  0  0  0  0  0  0  0  0  0  0  0
    4.7819    2.6132    1.9875 C   0  0  0  0  0  0  0  0  0  0  0  0
    4.9210    1.5960    1.0837 C   0  0  0  0  0  0  0  0  0  0  0  0
    6.1504    1.1742    0.6004 C   0  0  0  0  0  0  0  0  0  0  0  0
    6.2124    0.1446   -0.3071 C   0  0  0  0  0  0  0  0  0  0  0  0
    5.0810   -0.5115   -0.7769 C   0  0  0  0  0  0  0  0  0  0  0  0
    3.8742   -0.0803   -0.2875 C   0  0  0  0  0  0  0  0  0  0  0  0
    3.7871    0.9549    0.6272 C   0  0  0  0  0  0  0  0  0  0  0  0
    0.7273   -0.4482    1.1595 C   0  0  0  0  0  0  0  0  0  0  0  0
    1.1880   -1.1763    2.0485 O   0  0  0  0  0  0  0  0  0  0  0  0
   -0.5834   -0.5500    0.4210 C   0  0  1  0  0  0  0  0  0  0  0  0
   -1.5631    0.3260    1.0982 C   0  0  0  0  0  0  0  0  0  0  0  0
   -2.9344   -0.0798    1.0247 N   0  0  0  0  0  0  0  0  0  0  0  0
   -4.0279    0.8649    1.1392 C   0  0  0  0  0  0  0  0  0  0  0  0
   -4.4582    1.4348   -0.1528 C   0  0  0  0  0  0  0  0  0  0  0  0
   -3.9308    2.5895   -0.7028 C   0  0  0  0  0  0  0  0  0  0  0  0
   -4.5472    2.8258   -1.8857 N   0  0  0  0  0  0  0  0  0  0  0  0
   -5.4139    1.8604   -2.0549 N   0  0  0  0  0  0  0  0  0  0  0  0
   -5.3846    1.0078   -1.0302 N   0  0  0  0  0  0  0  0  0  0  0  0
   -3.2941   -1.4628    0.8310 C   0  0  0  0  0  0  0  0  0  0  0  0
   -4.4838   -1.8210    1.0193 O   0  0  0  0  0  0  0  0  0  0  0  0
   -2.2913   -2.4053    0.4276 C   0  0  0  0  0  0  0  0  0  0  0  0
   -2.6116   -3.7314    0.2364 C   0  0  0  0  0  0  0  0  0  0  0  0
   -1.6550   -4.6169   -0.1458 C   0  0  0  0  0  0  0  0  0  0  0  0
   -0.3576   -4.2079   -0.3476 C   0  0  0  0  0  0  0  0  0  0  0  0
    0.5806   -5.1102   -0.7291 F   0  0  0  0  0  0  0  0  0  0  0  0
   -0.0364   -2.8620   -0.1527 C   0  0  0  0  0  0  0  0  0  0  0  0
   -1.0009   -1.9452    0.2374 C   0  0  0  0  0  0  0  0  0  0  0  0
  2  1  1  6
  2  3  1  0
  3  4  1  0
  4  5  1  0
  5  6  2  0
  6  7  1  0
  7  8  2  0
  8  9  1  0
  9 10  2  0
 10 11  1  0
 11 12  2  0
 12 13  1  0
 13 14  2  0
  4 15  1  0
 15 16  2  0
 15 17  1  0
 17 18  1  1
 18 19  1  0
 19 20  1  0
 20 21  1  0
 21 22  1  0
 22 23  2  0
 23 24  1  0
 24 25  1  0
 19 26  1  0
 26 27  2  0
 26 28  1  0
 28 29  2  0
 29 30  1  0
 30 31  2  0
 31 32  1  0
 31 33  1  0
 33 34  2  0
 17  2  1  0
 25 21  2  0
 34 28  1  0
 14  5  1  0
 34 17  1  0
 14  9  1  0
M  END
$$$$

     RDKit          3D

 32 36  0  0  0  0  0  0  0  0999 V2000
    4.0365   -1.8918   -1.4349 C   0  0  0  0  0  0  0  0  0  0  0  0
    2.8621   -2.7315   -1.2098 N   0  0  0  0  0  0  0  0  0  0  0  0
    2.6010   -2.7760    0.2052 C   0  0  0  0  0  0  0  0  0  0  0  0
    1.5541   -1.8255    0.6706 C   0  0  0  0  0  0  0  0  0  0  0  0
    1.8105   -0.4412    0.4383 N   0  0  0  0  0  0  0  0  0  0  0  0
    1.4136    0.3030   -0.7359 C   0  0  0  0  0  0  0  0  0  0  0  0
    0.5306    1.4446   -0.2953 C   0  0  2  0  0  0  0  0  0  0  0  0
   -0.6446    0.8372    0.4316 C   0  0  0  0  0  0  0  0  0  0  0  0
   -0.6625    0.5067    1.6548 O   0  0  0  0  0  0  0  0  0  0  0  0
   -1.7350    0.6940   -0.4805 N   0  0  0  0  0  0  0  0  0  0  0  0
   -3.0641    0.2258   -0.2014 C   0  0  0  0  0  0  0  0  0  0  0  0
   -4.0264    1.1474    0.1778 C   0  0  0  0  0  0  0  0  0  0  0  0
   -5.2969    0.7941    0.4586 N   0  0  0  0  0  0  0  0  0  0  0  0
   -5.6381   -0.5031    0.3656 C   0  0  0  0  0  0  0  0  0  0  0  0
   -4.7192   -1.4543   -0.0064 C   0  0  0  0  0  0  0  0  0  0  0  0
   -5.1021   -2.7803   -0.0929 C   0  0  0  0  0  0  0  0  0  0  0  0
   -4.1507   -3.7250   -0.4733 C   0  0  0  0  0  0  0  0  0  0  0  0
   -2.8721   -3.3568   -0.7542 C   0  0  0  0  0  0  0  0  0  0  0  0
   -2.5259   -2.0316   -0.6581 C   0  0  0  0  0  0  0  0  0  0  0  0
   -3.4392   -1.0786   -0.2865 C   0  0  0  0  0  0  0  0  0  0  0  0
   -1.2474    1.1174   -1.7777 C   0  0  0  0  0  0  0  0  0  0  0  0
   -0.1485    2.1286   -1.4124 C   0  0  2  0  0  0  0  0  0  0  0  0
    0.6843    2.2974   -2.6593 C   0  0  0  0  0  0  0  0  0  0  0  0
    1.2435    2.2643    0.6754 C   0  0  0  0  0  0  0  0  0  0  0  0
    1.0116    3.6386    0.8242 C   0  0  0  0  0  0  0  0  0  0  0  0
    1.6938    4.3884    1.7662 C   0  0  0  0  0  0  0  0  0  0  0  0
    1.4497    5.7328    1.8941 F   0  0  0  0  0  0  0  0  0  0  0  0
    2.6329    3.8306    2.6052 C   0  0  0  0  0  0  0  0  0  0  0  0
    2.8694    2.4801    2.4678 C   0  0  0  0  0  0  0  0  0  0  0  0
    2.1917    1.7400    1.5330 C   0  0  0  0  0  0  0  0  0  0  0  0
    2.5243    0.3070    1.4446 C   0  0  0  0  0  0  0  0  0  0  0  0
    3.3750   -0.2342    2.1963 O   0  0  0  0  0  0  0  0  0  0  0  0
  1  2  1  0
  2  3  1  0
  3  4  1  0
  4  5  1  0
  5  6  1  0
  7  6  1  6
  7  8  1  0
  8  9  2  0
  8 10  1  0
 10 11  1  0
 11 12  2  0
 12 13  1  0
 13 14  2  0
 14 15  1  0
 15 16  2  0
 16 17  1  0
 17 18  2  0
 18 19  1  0
 19 20  2  0
 10 21  1  0
 21 22  1  0
 22 23  1  6
  7 24  1  0
 24 25  2  0
 25 26  1  0
 26 27  1  0
 26 28  2  0
 28 29  1  0
 29 30  2  0
 30 31  1  0
 31 32  2  0
 31  5  1  0
 22  7  1  0
 30 24  1  0
 20 11  1  0
 20 15  1  0
M  CHG  1   2   1
M  END
$$$$

     RDKit          3D

 38 42  0  0  0  0  0  0  0  0999 V2000
    2.0968   -5.4090   -1.0117 C   0  0  0  0  0  0  0  0  0  0  0  0
    2.6407   -4.1951   -1.5869 N   0  0  0  0  0  0  0  0  0  0  0  0
    2.4394   -2.9431   -0.9048 C   0  0  0  0  0  0  0  0  0  0  0  0
    1.7894   -3.0041    0.1633 O   0  0  0  0  0  0  0  0  0  0  0  0
    3.0042   -1.7469   -1.5167 C   0  0  0  0  0  0  0  0  0  0  0  0
    2.7733   -0.5117   -0.7984 N   0  0  0  0  0  0  0  0  0  0  0  0
    1.6503    0.3524   -1.0578 C   0  0  0  0  0  0  0  0  0  0  0  0
    0.9698    0.9126    0.1519 C   0  0  2  0  0  0  0  0  0  0  0  0
    0.0603   -0.1596    0.7053 C   0  0  0  0  0  0  0  0  0  0  0  0
    0.2350   -0.8787    1.7189 O   0  0  0  0  0  0  0  0  0  0  0  0
   -1.0453   -0.1779   -0.1765 N   0  0  0  0  0  0  0  0  0  0  0  0
   -1.8417   -1.3264   -0.5159 C   0  0  0  0  0  0  0  0  0  0  0  0
   -1.5082   -2.1396   -1.5984 C   0  0  0  0  0  0  0  0  0  0  0  0
   -2.2422   -3.2150   -1.9275 N   0  0  0  0  0  0  0  0  0  0  0  0
   -3.3402   -3.5707   -1.2340 C   0  0  0  0  0  0  0  0  0  0  0  0
   -3.7043   -2.7850   -0.1486 C   0  0  0  0  0  0  0  0  0  0  0  0
   -4.8433   -3.1403    0.5823 C   0  0  0  0  0  0  0  0  0  0  0  0
   -5.2275   -2.3804    1.6606 C   0  0  0  0  0  0  0  0  0  0  0  0
   -4.4823   -1.2727    2.0090 C   0  0  0  0  0  0  0  0  0  0  0  0
   -3.3537   -0.8997    1.3039 C   0  0  0  0  0  0  0  0  0  0  0  0
   -2.9715   -1.6633    0.2253 C   0  0  0  0  0  0  0  0  0  0  0  0
   -1.2768    1.1298   -0.7007 C   0  0  0  0  0  0  0  0  0  0  0  0
   -0.0523    1.9442   -0.2388 C   0  0  2  0  0  0  0  0  0  0  0  0
    0.3648    2.7734   -1.4233 C   0  0  0  0  0  0  0  0  0  0  0  0
   -0.8589    3.9830   -1.8162 S   0  0  0  0  0  0  0  0  0  0  0  0
   -0.4752    4.6984   -3.1133 O   0  0  0  0  0  0  0  0  0  0  0  0
   -2.1682    3.2709   -2.1377 O   0  0  0  0  0  0  0  0  0  0  0  0
   -1.1957    5.1212   -0.6231 N   0  0  0  0  0  0  0  0  0  0  0  0
   -1.7158    4.6925    0.6130 C   0  0  0  0  0  0  0  0  0  0  0  0
    1.9628    1.3267    1.1390 C   0  0  0  0  0  0  0  0  0  0  0  0
    1.6397    2.2534    2.1397 C   0  0  0  0  0  0  0  0  0  0  0  0
    2.5633    2.6462    3.0920 C   0  0  0  0  0  0  0  0  0  0  0  0
    2.0967    3.8236    4.3340 Cl  0  0  0  0  0  0  0  0  0  0  0  0
    3.8455    2.1505    3.1103 C   0  0  0  0  0  0  0  0  0  0  0  0
    4.1807    1.2388    2.1341 C   0  0  0  0  0  0  0  0  0  0  0  0
    3.2580    0.8481    1.1843 C   0  0  0  0  0  0  0  0  0  0  0  0
    3.7226   -0.1171    0.1887 C   0  0  0  0  0  0  0  0  0  0  0  0
    4.9106   -0.5742    0.2112 O   0  0  0  0  0  0  0  0  0  0  0  0
  1  2  1  0
  2  3  1  0
  3  4  2  0
  3  5  1  0
  5  6  1  0
  6  7  1  0
  8  7  1  6
  8  9  1  0
  9 10  2  0
  9 11  1  0
 11 12  1  0
 12 13  2  0
 13 14  1  0
 14 15  2  0
 15 16  1  0
 16 17  2  0
 17 18  1  0
 18 19  2  0
 19 20  1  0
 20 21  2  0
 11 22  1  0
 22 23  1  0
 23 24  1  6
 24 25  1  0
 25 26  2  0
 25 27  2  0
 25 28  1  0
 28 29  1  0
  8 30  1  0
 30 31  2  0
 31 32  1  0
 32 33  1  0
 32 34  2  0
 34 35  1  0
 35 36  2  0
 36 37  1  0
 37 38  2  0
 37  6  1  0
 23  8  1  0
 36 30  1  0
 21 12  1  0
 21 16  1  0
M  END
$$$$

     RDKit          3D

 34 39  0  0  0  0  0  0  0  0999 V2000
   -0.6141    0.6695   -2.7117 C   0  0  0  0  0  0  0  0  0  0  0  0
    0.3176    0.0667   -1.7039 C   0  0  1  0  0  0  0  0  0  0  0  0
    1.0009    1.1069   -0.8412 C   0  0  0  0  0  0  0  0  0  0  0  0
    1.3819    0.3881    0.3848 N   0  0  0  0  0  0  0  0  0  0  0  0
    2.2018    0.9327    1.3943 C   0  0  0  0  0  0  0  0  0  0  0  0
    1.6834    1.6481    2.4781 C   0  0  0  0  0  0  0  0  0  0  0  0
    2.4748    2.1635    3.4358 N   0  0  0  0  0  0  0  0  0  0  0  0
    3.8197    1.9922    3.3619 C   0  0  0  0  0  0  0  0  0  0  0  0
    4.4048    1.2931    2.3148 C   0  0  0  0  0  0  0  0  0  0  0  0
    5.7847    1.1222    2.2468 C   0  0  0  0  0  0  0  0  0  0  0  0
    6.3245    0.4126    1.1758 C   0  0  0  0  0  0  0  0  0  0  0  0
    5.5167   -0.1247    0.1799 C   0  0  0  0  0  0  0  0  0  0  0  0
    4.1587    0.0681    0.2867 C   0  0  0  0  0  0  0  0  0  0  0  0
    3.5701    0.7641    1.3283 C   0  0  0  0  0  0  0  0  0  0  0  0
    0.7665   -0.8986    0.3110 C   0  0  0  0  0  0  0  0  0  0  0  0
    1.1554   -1.9056    0.9298 O   0  0  0  0  0  0  0  0  0  0  0  0
   -0.3883   -0.7425   -0.6354 C   0  0  1  0  0  0  0  0  0  0  0  0
   -1.4041    0.0593    0.1270 C   0  0  0  0  0  0  0  0  0  0  0  0
   -2.7006    0.1260   -0.5093 N   0  0  0  0  0  0  0  0  0  0  0  0
   -3.4290    1.3508   -0.7001 C   0  0  0  0  0  0  0  0  0  0  0  0
   -4.3246    1.6705    0.4367 C   0  0  0  0  0  0  0  0  0  0  0  0
   -3.9056    2.4288    1.5252 C   0  0  0  0  0  0  0  0  0  0  0  0
   -4.9860    2.5115    2.3560 N   0  0  0  0  0  0  0  0  0  0  0  0
   -5.9894    1.8485    1.8071 N   0  0  0  0  0  0  0  0  0  0  0  0
   -5.6097    1.3327    0.6463 N   0  0  0  0  0  0  0  0  0  0  0  0
   -3.2589   -1.1147   -0.9616 C   0  0  0  0  0  0  0  0  0  0  0  0
   -4.4978   -1.2495   -1.0937 O   0  0  0  0  0  0  0  0  0  0  0  0
   -2.3103   -2.2069   -1.2581 C   0  0  0  0  0  0  0  0  0  0  0  0
   -2.8015   -3.4373   -1.7022 C   0  0  0  0  0  0  0  0  0  0  0  0
   -1.9442   -4.4870   -1.9910 C   0  0  0  0  0  0  0  0  0  0  0  0
   -0.5718   -4.2982   -1.8314 C   0  0  0  0  0  0  0  0  0  0  0  0
    0.3015   -5.3213   -2.1103 F   0  0  0  0  0  0  0  0  0  0  0  0
   -0.0775   -3.0784   -1.3907 C   0  0  0  0  0  0  0  0  0  0  0  0
   -0.9360   -2.0130   -1.0968 C   0  0  0  0  0  0  0  0  0  0  0  0
  2  1  1  6
  2  3  1  0
  3  4  1  0
  4  5  1  0
  5  6  2  0
  6  7  1  0
  7  8  2  0
  8  9  1  0
  9 10  2  0
 10 11  1  0
 11 12  2  0
 12 13  1  0
 13 14  2  0
  4 15  1  0
 15 16  2  0
 15 17  1  0
 17 18  1  1
 18 19  1  0
 19 20  1  0
 20 21  1  0
 21 22  1  0
 22 23  2  0
 23 24  1  0
 24 25  1  0
 19 26  1  0
 26 27  2  0
 26 28  1  0
 28 29  2  0
 29 30  1  0
 30 31  2  0
 31 32  1  0
 31 33  1  0
 33 34  2  0
 17  2  1  0
 25 21  2  0
 34 28  1  0
 14  5  1  0
 34 17  1  0
 14  9  1  0
M  END
$$$$

     RDKit          3D

 36 41  0  0  0  0  0  0  0  0999 V2000
   -0.2292    2.4436    1.7933 C   0  0  0  0  0  0  0  0  0  0  0  0
    0.5494    2.1006    0.5418 C   0  0  1  0  0  0  0  0  0  0  0  0
    1.8388    1.4531    1.0034 C   0  0  0  0  0  0  0  0  0  0  0  0
    1.8474    0.1255    0.4008 N   0  0  0  0  0  0  0  0  0  0  0  0
    2.5820   -1.0146    0.7916 C   0  0  0  0  0  0  0  0  0  0  0  0
    2.0544   -1.9250    1.7097 C   0  0  0  0  0  0  0  0  0  0  0  0
    2.7673   -3.0232    2.0832 N   0  0  0  0  0  0  0  0  0  0  0  0
    3.9968   -3.2363    1.5620 C   0  0  0  0  0  0  0  0  0  0  0  0
    4.5666   -2.3691    0.6508 C   0  0  0  0  0  0  0  0  0  0  0  0
    5.8377   -2.6279    0.1387 C   0  0  0  0  0  0  0  0  0  0  0  0
    6.3833   -1.7300   -0.7806 C   0  0  0  0  0  0  0  0  0  0  0  0
    5.6814   -0.6100   -1.1751 C   0  0  0  0  0  0  0  0  0  0  0  0
    4.4257   -0.3968   -0.6397 C   0  0  0  0  0  0  0  0  0  0  0  0
    3.8460   -1.2571    0.2720 C   0  0  0  0  0  0  0  0  0  0  0  0
    0.9500    0.1814   -0.6945 C   0  0  0  0  0  0  0  0  0  0  0  0
    1.0400   -0.4646   -1.7934 O   0  0  0  0  0  0  0  0  0  0  0  0
   -0.1603    1.1464   -0.3582 C   0  0  1  0  0  0  0  0  0  0  0  0
   -1.1808    0.3409    0.3806 C   0  0  0  0  0  0  0  0  0  0  0  0
   -2.5497    0.7801    0.1858 N   0  0  0  0  0  0  0  0  0  0  0  0
   -3.5322    0.6571    1.2742 C   0  0  0  0  0  0  0  0  0  0  0  0
   -4.2218   -0.6699    1.1958 C   0  0  0  0  0  0  0  0  0  0  0  0
   -3.6743   -1.7611    1.8813 C   0  0  0  0  0  0  0  0  0  0  0  0
   -4.2974   -2.9938    1.8201 C   0  0  0  0  0  0  0  0  0  0  0  0
   -3.8008   -3.9747    2.4394 O   0  0  0  0  0  0  0  0  0  0  0  0
   -5.4371   -3.1105    1.0871 N   0  0  0  0  0  0  0  0  0  0  0  0
   -5.9662   -2.0594    0.4256 C   0  0  0  0  0  0  0  0  0  0  0  0
   -5.3519   -0.8547    0.4890 N   0  0  0  0  0  0  0  0  0  0  0  0
   -3.0121    1.3420   -1.0396 C   0  0  0  0  0  0  0  0  0  0  0  0
   -4.2424    1.4057   -1.2899 O   0  0  0  0  0  0  0  0  0  0  0  0
   -1.9847    1.8267   -1.9612 C   0  0  0  0  0  0  0  0  0  0  0  0
   -2.4096    2.3750   -3.1541 C   0  0  0  0  0  0  0  0  0  0  0  0
   -1.4483    2.8417   -4.0443 C   0  0  0  0  0  0  0  0  0  0  0  0
   -0.0991    2.7475   -3.7182 C   0  0  0  0  0  0  0  0  0  0  0  0
    0.8614    3.2048   -4.5886 F   0  0  0  0  0  0  0  0  0  0  0  0
    0.2975    2.1943   -2.5178 C   0  0  0  0  0  0  0  0  0  0  0  0
   -0.6517    1.7203   -1.6111 C   0  0  0  0  0  0  0  0  0  0  0  0
  2  1  1  1
  2  3  1  0
  3  4  1  0
  4  5  1  0
  5  6  2  0
  6  7  1  0
  7  8  2  0
  8  9  1  0
  9 10  2  0
 10 11  1  0
 11 12  2  0
 12 13  1  0
 13 14  2  0
  4 15  1  0
 15 16  2  0
 15 17  1  0
 17 18  1  1
 18 19  1  0
 19 20  1  0
 20 21  1  0
 21 22  2  0
 22 23  1  0
 23 24  2  0
 23 25  1  0
 25 26  1  0
 26 27  2  0
 19 28  1  0
 28 29  2  0
 28 30  1  0
 30 31  2  0
 31 32  1  0
 32 33  2  0
 33 34  1  0
 33 35  1  0
 35 36  2  0
 17  2  1  0
 27 21  1  0
 36 30  1  0
 14  5  1  0
 36 17  1  0
 14  9  1  0
M  END
$$$$

     RDKit          3D

 40 45  0  0  0  0  0  0  0  0999 V2000
    5.6773    3.1764    1.1996 C   0  0  0  0  0  0  0  0  0  0  0  0
    4.8842    3.1510   -0.0242 N   0  0  0  0  0  0  0  0  0  0  0  0
    4.0730    1.9986   -0.2251 C   0  0  0  0  0  0  0  0  0  0  0  0
    4.1167    1.1162    0.6671 O   0  0  0  0  0  0  0  0  0  0  0  0
    3.2599    1.9349   -1.4446 C   0  0  0  0  0  0  0  0  0  0  0  0
    2.4575    0.7353   -1.5709 N   0  0  0  0  0  0  0  0  0  0  0  0
    1.1120    0.7298   -1.0720 C   0  0  0  0  0  0  0  0  0  0  0  0
    0.5152   -0.5727   -0.6898 C   0  0  2  0  0  0  0  0  0  0  0  0
   -0.9151   -0.5470   -1.1786 C   0  0  0  0  0  0  0  0  0  0  0  0
   -1.2098   -0.3483   -2.3943 O   0  0  0  0  0  0  0  0  0  0  0  0
   -1.8297   -0.7655   -0.1364 N   0  0  0  0  0  0  0  0  0  0  0  0
   -3.2279   -0.5161   -0.2462 C   0  0  0  0  0  0  0  0  0  0  0  0
   -3.7947    0.7162    0.0548 C   0  0  0  0  0  0  0  0  0  0  0  0
   -5.1240    0.9422   -0.0511 N   0  0  0  0  0  0  0  0  0  0  0  0
   -6.0011    0.0058   -0.4518 C   0  0  0  0  0  0  0  0  0  0  0  0
   -5.4896   -1.2364   -0.7632 C   0  0  0  0  0  0  0  0  0  0  0  0
   -6.3840   -2.2068   -1.1761 C   0  0  0  0  0  0  0  0  0  0  0  0
   -5.9027   -3.4642   -1.4955 C   0  0  0  0  0  0  0  0  0  0  0  0
   -4.5548   -3.7605   -1.4085 C   0  0  0  0  0  0  0  0  0  0  0  0
   -3.7124   -2.7541   -0.9915 C   0  0  0  0  0  0  0  0  0  0  0  0
   -4.1296   -1.4909   -0.6619 C   0  0  0  0  0  0  0  0  0  0  0  0
   -1.0940   -1.2681    0.9994 C   0  0  0  0  0  0  0  0  0  0  0  0
    0.3614   -0.8426    0.7619 C   0  0  2  0  0  0  0  0  0  0  0  0
    0.6419    0.2419    1.7264 C   0  0  0  0  0  0  0  0  0  0  0  0
   -0.1533    1.4211    1.6497 N   0  0  0  0  0  0  0  0  0  0  0  0
    0.1570    2.4786    2.5875 C   0  0  0  0  0  0  0  0  0  0  0  0
   -0.4572    2.5286    3.8216 C   0  0  0  0  0  0  0  0  0  0  0  0
   -0.1379    3.5512    4.6924 C   0  0  0  0  0  0  0  0  0  0  0  0
    0.7675    4.5043    4.3538 N   0  0  0  0  0  0  0  0  0  0  0  0
    1.3464    4.4229    3.1411 C   0  0  0  0  0  0  0  0  0  0  0  0
    1.0528    3.4337    2.2701 N   0  0  0  0  0  0  0  0  0  0  0  0
    1.1889   -1.7145   -1.3879 C   0  0  0  0  0  0  0  0  0  0  0  0
    0.5934   -2.9840   -1.3331 C   0  0  0  0  0  0  0  0  0  0  0  0
    1.1693   -4.0776   -1.9559 C   0  0  0  0  0  0  0  0  0  0  0  0
    0.3909   -5.6631   -1.8662 Cl  0  0  0  0  0  0  0  0  0  0  0  0
    2.3516   -3.9624   -2.6548 C   0  0  0  0  0  0  0  0  0  0  0  0
    2.9389   -2.7356   -2.7150 C   0  0  0  0  0  0  0  0  0  0  0  0
    2.3565   -1.6459   -2.0893 C   0  0  0  0  0  0  0  0  0  0  0  0
    3.0586   -0.3772   -2.2116 C   0  0  0  0  0  0  0  0  0  0  0  0
    4.1300   -0.2887   -2.8486 O   0  0  0  0  0  0  0  0  0  0  0  0
  1  2  1  0
  2  3  1  0
  3  4  2  0
  3  5  1  0
  5  6  1  0
  6  7  1  0
  8  7  1  1
  8  9  1  0
  9 10  2  0
  9 11  1  0
 11 12  1  0
 12 13  2  0
 13 14  1  0
 14 15  2  0
 15 16  1  0
 16 17  2  0
 17 18  1  0
 18 19  2  0
 19 20  1  0
 20 21  2  0
 11 22  1  0
 22 23  1  0
 23 24  1  1
 24 25  1  0
 25 26  1  0
 26 27  2  0
 27 28  1  0
 28 29  2  0
 29 30  1  0
 30 31  2  0
  8 32  1  0
 32 33  2  0
 33 34  1  0
 34 35  1  0
 34 36  2  0
 36 37  1  0
 37 38  2  0
 38 39  1  0
 39 40  2  0
 39  6  1  0
 23  8  1  0
 31 26  1  0
 38 32  1  0
 21 12  1  0
 21 16  1  0
M  END
$$$$

     RDKit          3D

 35 40  0  0  0  0  0  0  0  0999 V2000
   -0.0238    1.1014   -1.7723 C   0  0  0  0  0  0  0  0  0  0  0  0
   -0.1712   -0.3625   -1.4690 C   0  0  1  0  0  0  0  0  0  0  0  0
    1.2167   -0.9405   -1.4591 C   0  0  0  0  0  0  0  0  0  0  0  0
    1.7020   -0.6282   -0.1386 N   0  0  0  0  0  0  0  0  0  0  0  0
    3.1031   -0.6854    0.1889 C   0  0  0  0  0  0  0  0  0  0  0  0
    3.7113   -1.8675    0.5840 C   0  0  0  0  0  0  0  0  0  0  0  0
    5.0393   -1.9128    0.8977 N   0  0  0  0  0  0  0  0  0  0  0  0
    5.8296   -0.8360    0.8455 C   0  0  0  0  0  0  0  0  0  0  0  0
    5.2795    0.3520    0.4626 C   0  0  0  0  0  0  0  0  0  0  0  0
    6.0949    1.4604    0.4122 C   0  0  0  0  0  0  0  0  0  0  0  0
    5.5917    2.6880    0.0349 C   0  0  0  0  0  0  0  0  0  0  0  0
    4.2609    2.7596   -0.2845 C   0  0  0  0  0  0  0  0  0  0  0  0
    3.4510    1.6506   -0.2329 C   0  0  0  0  0  0  0  0  0  0  0  0
    3.9209    0.4228    0.1365 C   0  0  0  0  0  0  0  0  0  0  0  0
    0.6105   -0.2995    0.7078 C   0  0  0  0  0  0  0  0  0  0  0  0
    0.7282    0.1350    1.8924 O   0  0  0  0  0  0  0  0  0  0  0  0
   -0.6320   -0.5628   -0.0592 C   0  0  1  0  0  0  0  0  0  0  0  0
   -1.7601    0.3438    0.3610 C   0  0  0  0  0  0  0  0  0  0  0  0
   -2.9524   -0.0199   -0.3386 N   0  0  0  0  0  0  0  0  0  0  0  0
   -3.7334    0.8784   -1.1710 C   0  0  0  0  0  0  0  0  0  0  0  0
   -4.7744    1.5807   -0.3422 C   0  0  0  0  0  0  0  0  0  0  0  0
   -6.0334    1.1579   -0.1023 N   0  0  0  0  0  0  0  0  0  0  0  0
   -6.6179    2.0752    0.6764 N   0  0  0  0  0  0  0  0  0  0  0  0
   -5.7774    3.0400    0.9253 N   0  0  0  0  0  0  0  0  0  0  0  0
   -4.6323    2.7611    0.3095 N   0  0  0  0  0  0  0  0  0  0  0  0
   -3.4483    3.5971    0.3467 C   0  0  0  0  0  0  0  0  0  0  0  0
   -3.4137   -1.3750   -0.1871 C   0  0  0  0  0  0  0  0  0  0  0  0
   -4.6420   -1.6712   -0.2941 O   0  0  0  0  0  0  0  0  0  0  0  0
   -2.3922   -2.3693    0.0926 C   0  0  0  0  0  0  0  0  0  0  0  0
   -2.8000   -3.6637    0.2902 C   0  0  0  0  0  0  0  0  0  0  0  0
   -1.8835   -4.6407    0.6039 C   0  0  0  0  0  0  0  0  0  0  0  0
   -0.5573   -4.2828    0.7126 C   0  0  0  0  0  0  0  0  0  0  0  0
    0.3347   -5.2636    1.0246 F   0  0  0  0  0  0  0  0  0  0  0  0
   -0.1699   -2.9790    0.5097 C   0  0  0  0  0  0  0  0  0  0  0  0
   -1.0658   -1.9654    0.1904 C   0  0  0  0  0  0  0  0  0  0  0  0
  2  1  1  1
  2  3  1  0
  3  4  1  0
  4  5  1  0
  5  6  2  0
  6  7  1  0
  7  8  2  0
  8  9  1  0
  9 10  2  0
 10 11  1  0
 11 12  2  0
 12 13  1  0
 13 14  2  0
  4 15  1  0
 15 16  2  0
 15 17  1  0
 17 18  1  1
 18 19  1  0
 19 20  1  0
 20 21  1  0
 21 22  2  0
 22 23  1  0
 23 24  2  0
 24 25  1  0
 25 26  1  0
 19 27  1  0
 27 28  2  0
 27 29  1  0
 29 30  2  0
 30 31  1  0
 31 32  2  0
 32 33  1  0
 32 34  1  0
 34 35  2  0
 17  2  1  0
 25 21  1  0
 35 29  1  0
 14  5  1  0
 35 17  1  0
 14  9  1  0
M  END
$$$$

     RDKit          3D

 28 29  0  0  0  0  0  0  0  0999 V2000
    1.5894   -0.4269   -2.9268 C   0  0  0  0  0  0  0  0  0  0  0  0
    1.4860   -0.0549   -1.4606 C   0  0  2  0  0  0  0  0  0  0  0  0
    2.8042   -0.2784   -0.8742 N   0  0  0  0  0  0  0  0  0  0  0  0
    3.4952    0.8038   -0.2407 C   0  0  0  0  0  0  0  0  0  0  0  0
    2.9260    1.9346   -0.2125 O   0  0  0  0  0  0  0  0  0  0  0  0
    4.8393    0.6026    0.3643 C   0  0  0  0  0  0  0  0  0  0  0  0
    5.2709    1.8010    0.9022 O   0  0  0  0  0  0  0  0  0  0  0  0
    6.8034    1.5400    1.5881 S   0  0  0  0  0  0  0  0  0  0  0  0
    7.9982    1.6246    0.4064 N   0  0  0  0  0  0  0  0  0  0  0  0
    7.0266    2.5739    2.6471 O   0  0  0  0  0  0  0  0  0  0  0  0
    6.7912    0.1768    2.2058 O   0  0  0  0  0  0  0  0  0  0  0  0
    0.5442   -0.9779   -0.8078 C   0  0  0  0  0  0  0  0  0  0  0  0
    0.8454   -2.3014   -0.5943 C   0  0  0  0  0  0  0  0  0  0  0  0
   -0.0978   -3.1128    0.0307 C   0  0  0  0  0  0  0  0  0  0  0  0
    0.2852   -4.8174    0.3077 Cl  0  0  0  0  0  0  0  0  0  0  0  0
   -1.3286   -2.6187    0.4410 C   0  0  0  0  0  0  0  0  0  0  0  0
   -1.6238   -1.2963    0.2251 C   0  0  0  0  0  0  0  0  0  0  0  0
   -2.8837   -0.6720    0.6148 C   0  0  0  0  0  0  0  0  0  0  0  0
   -2.9038    0.6461    0.9671 C   0  0  0  0  0  0  0  0  0  0  0  0
   -4.0983    1.2292    1.3344 C   0  0  0  0  0  0  0  0  0  0  0  0
   -5.2249    0.4583    1.3314 C   0  0  0  0  0  0  0  0  0  0  0  0
   -6.7489    1.1876    1.7962 S   0  0  0  0  0  0  0  0  0  0  0  0
   -7.5513    1.8456    0.4134 N   0  0  0  0  0  0  0  0  0  0  0  0
   -7.6465    0.1417    2.3950 O   0  0  0  0  0  0  0  0  0  0  0  0
   -6.5007    2.2503    2.8294 O   0  0  0  0  0  0  0  0  0  0  0  0
   -5.2028   -0.8854    0.9720 C   0  0  0  0  0  0  0  0  0  0  0  0
   -4.0147   -1.4738    0.6044 C   0  0  0  0  0  0  0  0  0  0  0  0
   -0.6885   -0.4868   -0.3958 C   0  0  0  0  0  0  0  0  0  0  0  0
  2  1  1  6
  2  3  1  0
  3  4  1  0
  4  5  2  0
  4  6  1  0
  6  7  1  0
  7  8  1  0
  8  9  1  0
  8 10  2  0
  8 11  2  0
  2 12  1  0
 12 13  2  0
 13 14  1  0
 14 15  1  0
 14 16  2  0
 16 17  1  0
 17 18  1  0
 18 19  2  0
 19 20  1  0
 20 21  2  0
 21 22  1  0
 22 23  1  0
 22 24  2  0
 22 25  2  0
 21 26  1  0
 26 27  2  0
 17 28  2  0
 28 12  1  0
 27 18  1  0
M  END
$$$$

     RDKit          3D

 37 41  0  0  0  0  0  0  0  0999 V2000
   -6.2548   -4.0297    0.2212 C   0  0  0  0  0  0  0  0  0  0  0  0
   -4.8995   -4.1957    0.7121 N   0  0  0  0  0  0  0  0  0  0  0  0
   -3.8861   -3.4399    0.0738 C   0  0  0  0  0  0  0  0  0  0  0  0
   -4.2609   -2.6842   -0.8692 O   0  0  0  0  0  0  0  0  0  0  0  0
   -2.4631   -3.4648    0.4131 C   0  0  0  0  0  0  0  0  0  0  0  0
   -1.6902   -2.5626   -0.4480 N   0  0  0  0  0  0  0  0  0  0  0  0
   -1.4438   -1.1845   -0.1223 C   0  0  0  0  0  0  0  0  0  0  0  0
   -0.1577   -0.6120   -0.6094 C   0  0  2  0  0  0  0  0  0  0  0  0
    0.8423   -0.8721    0.5039 C   0  0  0  0  0  0  0  0  0  0  0  0
    1.6774   -1.8067    0.5804 O   0  0  0  0  0  0  0  0  0  0  0  0
    0.6120    0.1824    1.4296 N   0  0  0  0  0  0  0  0  0  0  0  0
    1.1443    0.3262    2.7556 C   0  0  0  0  0  0  0  0  0  0  0  0
    0.4517   -0.2322    3.8458 C   0  0  0  0  0  0  0  0  0  0  0  0
    0.9944   -0.0577    5.0893 N   0  0  0  0  0  0  0  0  0  0  0  0
    2.1438    0.6161    5.2973 C   0  0  0  0  0  0  0  0  0  0  0  0
    2.8621    1.1856    4.2429 C   0  0  0  0  0  0  0  0  0  0  0  0
    4.0394    1.8779    4.4447 C   0  0  0  0  0  0  0  0  0  0  0  0
    4.6469    2.3883    3.3213 C   0  0  0  0  0  0  0  0  0  0  0  0
    4.1648    2.2542    2.0439 C   0  0  0  0  0  0  0  0  0  0  0  0
    2.9785    1.5509    1.8899 C   0  0  0  0  0  0  0  0  0  0  0  0
    2.3062    1.0035    2.9928 C   0  0  0  0  0  0  0  0  0  0  0  0
   -0.2809    1.1790    0.8611 C   0  0  0  0  0  0  0  0  0  0  0  0
   -0.1071    0.8660   -0.6334 C   0  0  2  0  0  0  0  0  0  0  0  0
   -1.1087    1.5947   -1.4605 C   0  0  0  0  0  0  0  0  0  0  0  0
   -0.8974    2.9366   -1.3613 O   0  0  0  0  0  0  0  0  0  0  0  0
    0.2661    3.4582   -1.8365 C   0  0  0  0  0  0  0  0  0  0  0  0
    0.1301    4.4534   -2.9394 C   0  0  0  0  0  0  0  0  0  0  0  0
    1.1495    4.0716   -0.7687 C   0  0  0  0  0  0  0  0  0  0  0  0
    0.3524   -1.1653   -1.8772 C   0  0  0  0  0  0  0  0  0  0  0  0
    1.3338   -0.5708   -2.6426 C   0  0  0  0  0  0  0  0  0  0  0  0
    1.8204   -1.0883   -3.8179 C   0  0  0  0  0  0  0  0  0  0  0  0
    3.0689   -0.2862   -4.7449 Cl  0  0  0  0  0  0  0  0  0  0  0  0
    1.3270   -2.2993   -4.3256 C   0  0  0  0  0  0  0  0  0  0  0  0
    0.3545   -2.9047   -3.5831 C   0  0  0  0  0  0  0  0  0  0  0  0
   -0.1276   -2.3819   -2.4097 C   0  0  0  0  0  0  0  0  0  0  0  0
   -1.1670   -3.0651   -1.6552 C   0  0  0  0  0  0  0  0  0  0  0  0
   -1.5806   -4.1679   -2.1676 O   0  0  0  0  0  0  0  0  0  0  0  0
  1  2  1  0
  2  3  1  0
  3  4  2  0
  3  5  1  0
  5  6  1  0
  6  7  1  0
  8  7  1  1
  8  9  1  0
  9 10  2  0
  9 11  1  0
 11 12  1  0
 12 13  2  0
 13 14  1  0
 14 15  2  0
 15 16  1  0
 16 17  2  0
 17 18  1  0
 18 19  2  0
 19 20  1  0
 20 21  2  0
 11 22  1  0
 22 23  1  0
 23 24  1  6
 24 25  1  0
 25 26  1  0
 26 27  1  0
 26 28  1  0
  8 29  1  0
 29 30  2  0
 30 31  1  0
 31 32  1  0
 31 33  2  0
 33 34  1  0
 34 35  2  0
 35 36  1  0
 36 37  2  0
 36  6  1  0
 23  8  1  0
 35 29  1  0
 21 12  1  0
 21 16  1  0
M  END
$$$$

     RDKit          3D

 23 25  0  0  0  0  0  0  0  0999 V2000
   -0.4664   -0.8504    1.4319 O   0  0  0  0  0  0  0  0  0  0  0  0
    0.0845    0.0887    0.7635 C   0  0  0  0  0  0  0  0  0  0  0  0
   -0.8100    1.2220    0.4037 C   0  0  0  0  0  0  0  0  0  0  0  0
   -2.1636    0.9625    0.9352 C   0  0  0  0  0  0  0  0  0  0  0  0
   -2.6324    1.6242    2.0688 C   0  0  0  0  0  0  0  0  0  0  0  0
   -3.8597    1.4076    2.5734 N   0  0  0  0  0  0  0  0  0  0  0  0
   -4.6857    0.5299    1.9877 C   0  0  0  0  0  0  0  0  0  0  0  0
   -4.2513   -0.1433    0.8614 C   0  0  0  0  0  0  0  0  0  0  0  0
   -5.1322   -1.0469    0.2781 C   0  0  0  0  0  0  0  0  0  0  0  0
   -4.7797   -1.7669   -0.8552 C   0  0  0  0  0  0  0  0  0  0  0  0
   -3.5212   -1.5427   -1.3699 C   0  0  0  0  0  0  0  0  0  0  0  0
   -2.6377   -0.6457   -0.7966 C   0  0  0  0  0  0  0  0  0  0  0  0
   -2.9996    0.0548    0.3180 C   0  0  0  0  0  0  0  0  0  0  0  0
    1.4568    0.0470    0.3928 N   0  0  0  0  0  0  0  0  0  0  0  0
    1.9862    1.1474   -0.3564 C   0  0  0  0  0  0  0  0  0  0  0  0
    3.0674    0.7424   -1.3479 C   0  0  0  0  0  0  0  0  0  0  0  0
    3.9845   -0.1917   -0.5824 C   0  0  0  0  0  0  0  0  0  0  0  0
    5.3021   -0.4164   -1.2594 C   0  0  0  0  0  0  0  0  0  0  0  0
    5.1922   -0.9671   -2.5084 F   0  0  0  0  0  0  0  0  0  0  0  0
    5.9187    0.8413   -1.3071 F   0  0  0  0  0  0  0  0  0  0  0  0
    6.0697   -1.1982   -0.4412 F   0  0  0  0  0  0  0  0  0  0  0  0
    3.1920   -1.4330   -0.3182 C   0  0  0  0  0  0  0  0  0  0  0  0
    2.2249   -1.1129    0.8032 C   0  0  0  0  0  0  0  0  0  0  0  0
  1  2  2  0
  2  3  1  0
  3  4  1  0
  4  5  2  0
  5  6  1  0
  6  7  2  0
  7  8  1  0
  8  9  2  0
  9 10  1  0
 10 11  2  0
 11 12  1  0
 12 13  2  0
  2 14  1  0
 14 15  1  0
 15 16  1  0
 16 17  1  0
 17 18  1  0
 18 19  1  0
 18 20  1  0
 18 21  1  0
 17 22  1  0
 22 23  1  0
 13  4  1  0
 23 14  1  0
 13  8  1  0
M  END
$$$$

     RDKit          3D

 25 28  0  0  0  0  0  0  0  0999 V2000
    0.2519    1.5083   -0.3136 O   0  0  0  0  0  0  0  0  0  0  0  0
    0.2993    0.4302    0.3588 C   0  0  0  0  0  0  0  0  0  0  0  0
    1.3771    0.1311    1.3344 C   0  0  0  0  0  0  0  0  0  0  0  0
    2.6254   -0.3709    0.7398 C   0  0  0  0  0  0  0  0  0  0  0  0
    2.8323   -1.7645    0.8104 C   0  0  0  0  0  0  0  0  0  0  0  0
    3.8992   -2.3495    0.2618 N   0  0  0  0  0  0  0  0  0  0  0  0
    4.8558   -1.6712   -0.3933 C   0  0  0  0  0  0  0  0  0  0  0  0
    4.6980   -0.2771   -0.4891 C   0  0  0  0  0  0  0  0  0  0  0  0
    5.6610    0.4945   -1.1360 C   0  0  0  0  0  0  0  0  0  0  0  0
    5.5291    1.8784   -1.2174 C   0  0  0  0  0  0  0  0  0  0  0  0
    4.4121    2.4602   -0.6348 C   0  0  0  0  0  0  0  0  0  0  0  0
    3.4679    1.6883   -0.0019 C   0  0  0  0  0  0  0  0  0  0  0  0
    3.5828    0.3396    0.0831 C   0  0  0  0  0  0  0  0  0  0  0  0
   -0.7927   -0.4881    0.0861 N   0  0  0  0  0  0  0  0  0  0  0  0
   -0.8399   -1.7933    0.7220 C   0  0  0  0  0  0  0  0  0  0  0  0
   -2.0389   -2.6125    0.4697 C   0  0  0  0  0  0  0  0  0  0  0  0
   -3.0186   -2.1558   -0.5449 C   0  0  0  0  0  0  0  0  0  0  0  0
   -2.3922   -1.2586   -1.5710 C   0  0  0  0  0  0  0  0  0  0  0  0
   -1.8349   -0.0690   -0.8514 C   0  0  1  0  0  0  0  0  0  0  0  0
   -2.8687    0.7696   -0.2516 C   0  0  0  0  0  0  0  0  0  0  0  0
   -3.4317    1.8364   -0.9538 C   0  0  0  0  0  0  0  0  0  0  0  0
   -4.3998    2.6545   -0.3902 C   0  0  0  0  0  0  0  0  0  0  0  0
   -4.8583    2.4416    0.9182 C   0  0  0  0  0  0  0  0  0  0  0  0
   -4.2977    1.3880    1.6025 C   0  0  0  0  0  0  0  0  0  0  0  0
   -3.3238    0.5597    1.0477 C   0  0  0  0  0  0  0  0  0  0  0  0
  1  2  2  0
  2  3  1  0
  3  4  1  0
  4  5  2  0
  5  6  1  0
  6  7  2  0
  7  8  1  0
  8  9  2  0
  9 10  1  0
 10 11  2  0
 11 12  1  0
 12 13  2  0
  2 14  1  0
 14 15  1  0
 15 16  1  0
 16 17  1  0
 17 18  1  0
 18 19  1  0
 19 20  1  1
 20 21  2  0
 21 22  1  0
 22 23  2  0
 23 24  1  0
 24 25  2  0
 13  4  1  0
 19 14  1  0
 25 20  1  0
 13  8  1  0
M  END
$$$$

     RDKit          3D

 32 36  0  0  0  0  0  0  0  0999 V2000
   -3.8267    2.8336   -2.5700 C   0  0  0  0  0  0  0  0  0  0  0  0
   -3.1368    2.0399   -1.5703 N   0  0  0  0  0  0  0  0  0  0  0  0
   -2.4448    2.6152   -0.4694 C   0  0  0  0  0  0  0  0  0  0  0  0
   -2.4436    3.8694   -0.3775 O   0  0  0  0  0  0  0  0  0  0  0  0
   -1.7367    1.7636    0.5537 C   0  0  0  0  0  0  0  0  0  0  0  0
   -1.8889    0.3596    0.2191 N   0  0  0  0  0  0  0  0  0  0  0  0
   -0.9605   -0.3578   -0.6242 C   0  0  0  0  0  0  0  0  0  0  0  0
   -0.4752   -1.5631    0.1286 C   0  0  2  0  0  0  0  0  0  0  0  0
    0.3450   -1.0144    1.2914 C   0  0  0  0  0  0  0  0  0  0  0  0
    0.0245   -1.1024    2.4903 O   0  0  0  0  0  0  0  0  0  0  0  0
    1.5201   -0.4055    0.6856 N   0  0  0  0  0  0  0  0  0  0  0  0
    2.0866    0.7445    1.2674 C   0  0  0  0  0  0  0  0  0  0  0  0
    1.4241    1.4007    2.3270 C   0  0  0  0  0  0  0  0  0  0  0  0
    1.9103    2.4818    2.9330 N   0  0  0  0  0  0  0  0  0  0  0  0
    3.0687    3.0291    2.5802 C   0  0  0  0  0  0  0  0  0  0  0  0
    3.7807    2.4629    1.5645 C   0  0  0  0  0  0  0  0  0  0  0  0
    4.9797    3.0458    1.2231 C   0  0  0  0  0  0  0  0  0  0  0  0
    5.7534    2.5205    0.2097 C   0  0  0  0  0  0  0  0  0  0  0  0
    5.2543    1.3996   -0.4207 C   0  0  0  0  0  0  0  0  0  0  0  0
    4.0555    0.8208   -0.0760 C   0  0  0  0  0  0  0  0  0  0  0  0
    3.2837    1.3253    0.9169 C   0  0  0  0  0  0  0  0  0  0  0  0
    1.7680   -1.2280   -0.4566 C   0  0  0  0  0  0  0  0  0  0  0  0
    0.6337   -2.2782   -0.5507 C   0  0  2  0  0  0  0  0  0  0  0  0
    0.3716   -2.5769   -2.0031 C   0  0  0  0  0  0  0  0  0  0  0  0
   -1.5874   -2.3550    0.6238 C   0  0  0  0  0  0  0  0  0  0  0  0
   -1.4991   -3.7372    0.8375 C   0  0  0  0  0  0  0  0  0  0  0  0
   -2.5708   -4.4655    1.3186 C   0  0  0  0  0  0  0  0  0  0  0  0
   -3.7792   -3.8711    1.6125 C   0  0  0  0  0  0  0  0  0  0  0  0
   -3.8759   -2.5147    1.4059 C   0  0  0  0  0  0  0  0  0  0  0  0
   -2.8150   -1.7990    0.9304 C   0  0  0  0  0  0  0  0  0  0  0  0
   -3.0016   -0.3666    0.7268 C   0  0  0  0  0  0  0  0  0  0  0  0
   -4.0926    0.2256    0.9825 O   0  0  0  0  0  0  0  0  0  0  0  0
  1  2  1  0
  2  3  1  0
  3  4  2  0
  3  5  1  0
  5  6  1  0
  6  7  1  0
  8  7  1  6
  8  9  1  0
  9 10  2  0
  9 11  1  0
 11 12  1  0
 12 13  2  0
 13 14  1  0
 14 15  2  0
 15 16  1  0
 16 17  2  0
 17 18  1  0
 18 19  2  0
 19 20  1  0
 20 21  2  0
 11 22  1  0
 22 23  1  0
 23 24  1  6
  8 25  1  0
 25 26  2  0
 26 27  1  0
 27 28  2  0
 28 29  1  0
 29 30  2  0
 30 31  1  0
 31 32  2  0
 31  6  1  0
 23  8  1  0
 30 25  1  0
 21 12  1  0
 21 16  1  0
M  END
$$$$

     RDKit          3D

 22 24  0  0  0  0  0  0  0  0999 V2000
   -5.4753    0.0720    0.4000 C   0  0  0  0  0  0  0  0  0  0  0  0
   -3.9885    0.0746    0.7362 C   0  0  1  0  0  0  0  0  0  0  0  0
   -3.2821   -1.0693    0.0893 C   0  0  0  0  0  0  0  0  0  0  0  0
   -1.7739   -0.9110    0.1968 C   0  0  1  0  0  0  0  0  0  0  0  0
   -1.1928   -2.1124   -0.5218 C   0  0  0  0  0  0  0  0  0  0  0  0
   -1.3017    0.3516   -0.2593 N   0  0  0  0  0  0  0  0  0  0  0  0
    0.0558    0.7682   -0.3660 C   0  0  0  0  0  0  0  0  0  0  0  0
    0.1896    1.9700   -0.8049 O   0  0  0  0  0  0  0  0  0  0  0  0
    1.2207   -0.0676   -0.0167 C   0  0  0  0  0  0  0  0  0  0  0  0
    2.5304    0.5258   -0.2687 C   0  0  0  0  0  0  0  0  0  0  0  0
    2.8048    1.6203   -1.0507 C   0  0  0  0  0  0  0  0  0  0  0  0
    4.0760    2.1043   -1.2190 N   0  0  0  0  0  0  0  0  0  0  0  0
    5.1425    1.5668   -0.6501 C   0  0  0  0  0  0  0  0  0  0  0  0
    4.9189    0.4461    0.1565 C   0  0  0  0  0  0  0  0  0  0  0  0
    6.0419   -0.1104    0.7269 C   0  0  0  0  0  0  0  0  0  0  0  0
    5.9405   -1.2263    1.5259 C   0  0  0  0  0  0  0  0  0  0  0  0
    4.6765   -1.7531    1.7249 C   0  0  0  0  0  0  0  0  0  0  0  0
    3.5487   -1.1784    1.1414 C   0  0  0  0  0  0  0  0  0  0  0  0
    3.6421   -0.0658    0.3444 C   0  0  0  0  0  0  0  0  0  0  0  0
   -2.3332    1.3268   -0.6601 C   0  0  1  0  0  0  0  0  0  0  0  0
   -2.7333    1.0925   -2.0697 C   0  0  0  0  0  0  0  0  0  0  0  0
   -3.4304    1.4134    0.3422 C   0  0  0  0  0  0  0  0  0  0  0  0
  2  1  1  6
  2  3  1  0
  3  4  1  0
  4  5  1  6
  4  6  1  0
  6  7  1  0
  7  8  2  0
  7  9  1  0
  9 10  1  0
 10 11  2  0
 11 12  1  0
 12 13  2  0
 13 14  1  0
 14 15  2  0
 15 16  1  0
 16 17  2  0
 17 18  1  0
 18 19  2  0
  6 20  1  0
 20 21  1  6
 20 22  1  0
 22  2  1  0
 19 10  1  0
 19 14  1  0
M  END
$$$$

     RDKit          3D

 25 29  0  0  0  0  0  0  0  0999 V2000
    4.3899   -0.3554    2.4572 C   0  0  0  0  0  0  0  0  0  0  0  0
    3.9327   -1.3183    1.4203 C   0  0  0  0  0  0  0  0  0  0  0  0
    4.1003   -2.5621    1.5095 O   0  0  0  0  0  0  0  0  0  0  0  0
    3.2692   -0.8279    0.2593 N   0  0  0  0  0  0  0  0  0  0  0  0
    2.7696   -1.6599   -0.8337 C   0  0  0  0  0  0  0  0  0  0  0  0
    2.2707   -0.6617   -1.8515 C   0  0  2  0  0  0  0  0  0  0  0  0
    3.2888    0.4467   -1.6039 C   0  0  0  0  0  0  0  0  0  0  0  0
    2.9425    0.5352   -0.1081 C   0  0  1  0  0  0  0  0  0  0  0  0
    1.4887    0.6701   -0.1972 C   0  0  0  0  0  0  0  0  0  0  0  0
    0.3820    1.2462    0.3750 C   0  0  0  0  0  0  0  0  0  0  0  0
    0.4161    2.0667    1.4906 O   0  0  0  0  0  0  0  0  0  0  0  0
   -0.6757    0.8539   -0.3528 N   0  0  0  0  0  0  0  0  0  0  0  0
   -2.0083    1.2707   -0.0383 C   0  0  0  0  0  0  0  0  0  0  0  0
   -2.4033    2.5894   -0.1452 C   0  0  0  0  0  0  0  0  0  0  0  0
   -3.6307    3.0298    0.1350 N   0  0  0  0  0  0  0  0  0  0  0  0
   -4.5420    2.1182    0.5505 C   0  0  0  0  0  0  0  0  0  0  0  0
   -4.2577    0.7820    0.6923 C   0  0  0  0  0  0  0  0  0  0  0  0
   -5.1888   -0.1360    1.1146 C   0  0  0  0  0  0  0  0  0  0  0  0
   -4.9018   -1.4904    1.2586 C   0  0  0  0  0  0  0  0  0  0  0  0
   -3.6127   -1.8816    0.9523 C   0  0  0  0  0  0  0  0  0  0  0  0
   -2.6584   -0.9752    0.5253 C   0  0  0  0  0  0  0  0  0  0  0  0
   -2.9610    0.3628    0.3885 C   0  0  0  0  0  0  0  0  0  0  0  0
   -0.2538    0.0603   -1.3470 C   0  0  0  0  0  0  0  0  0  0  0  0
   -0.9925   -0.4859   -2.2234 O   0  0  0  0  0  0  0  0  0  0  0  0
    1.0922   -0.0603   -1.2587 N   0  0  0  0  0  0  0  0  0  0  0  0
  1  2  1  0
  2  3  2  0
  2  4  1  0
  4  5  1  0
  6  5  1  1
  6  7  1  0
  7  8  1  0
  8  9  1  0
  9 10  2  0
 10 11  1  0
 10 12  1  0
 12 13  1  0
 13 14  2  0
 14 15  1  0
 15 16  2  0
 16 17  1  0
 17 18  2  0
 18 19  1  0
 19 20  2  0
 20 21  1  0
 21 22  2  0
 12 23  1  0
 23 24  2  0
 23 25  1  0
  8  4  1  1
 25  9  1  0
 25  6  1  0
 22 13  1  0
 22 17  1  0
M  CHG  1  11  -1
M  END
$$$$

     RDKit          3D

 20 22  0  0  0  0  0  0  0  0999 V2000
   -5.5182    0.5077    0.5375 C   0  0  0  0  0  0  0  0  0  0  0  0
   -4.1411    0.4286   -0.0385 C   0  0  0  0  0  0  0  0  0  0  0  0
   -3.2470    1.5416    0.4964 C   0  0  0  0  0  0  0  0  0  0  0  0
   -2.0163    1.5334   -0.3864 C   0  0  0  0  0  0  0  0  0  0  0  0
   -1.3242    0.2891   -0.1008 N   0  0  0  0  0  0  0  0  0  0  0  0
    0.0195    0.1171   -0.5309 C   0  0  0  0  0  0  0  0  0  0  0  0
    0.5930    1.0474   -1.1547 O   0  0  0  0  0  0  0  0  0  0  0  0
    0.7232   -1.1668   -0.2329 C   0  0  0  0  0  0  0  0  0  0  0  0
    2.1075   -1.1430   -0.7665 C   0  0  0  0  0  0  0  0  0  0  0  0
    2.4797   -1.8204   -1.9195 C   0  0  0  0  0  0  0  0  0  0  0  0
    3.7220   -1.8000   -2.4019 N   0  0  0  0  0  0  0  0  0  0  0  0
    4.7100   -1.1152   -1.7986 C   0  0  0  0  0  0  0  0  0  0  0  0
    4.4111   -0.4230   -0.6538 C   0  0  0  0  0  0  0  0  0  0  0  0
    5.4056    0.2835   -0.0206 C   0  0  0  0  0  0  0  0  0  0  0  0
    5.1222    0.9882    1.1367 C   0  0  0  0  0  0  0  0  0  0  0  0
    3.8342    0.9592    1.6253 C   0  0  0  0  0  0  0  0  0  0  0  0
    2.8103    0.2670    1.0253 C   0  0  0  0  0  0  0  0  0  0  0  0
    3.1300   -0.4303   -0.1366 C   0  0  0  0  0  0  0  0  0  0  0  0
   -2.0226   -0.7533    0.6195 C   0  0  0  0  0  0  0  0  0  0  0  0
   -3.4605   -0.8883    0.2143 C   0  0  0  0  0  0  0  0  0  0  0  0
  1  2  1  0
  2  3  1  0
  3  4  1  0
  4  5  1  0
  5  6  1  0
  6  7  2  0
  6  8  1  0
  8  9  1  0
  9 10  2  0
 10 11  1  0
 11 12  2  0
 12 13  1  0
 13 14  2  0
 14 15  1  0
 15 16  2  0
 16 17  1  0
 17 18  2  0
  5 19  1  0
 19 20  1  0
 20  2  1  0
 18  9  1  0
 18 13  1  0
M  END
$$$$

     RDKit          3D

 39 43  0  0  0  0  0  0  0  0999 V2000
    5.9527    0.8780   -2.7111 C   0  0  0  0  0  0  0  0  0  0  0  0
    4.9068    0.5942   -1.7269 N   0  0  0  0  0  0  0  0  0  0  0  0
    4.6603    1.5461   -0.7322 C   0  0  0  0  0  0  0  0  0  0  0  0
    5.3423    2.6084   -0.7141 O   0  0  0  0  0  0  0  0  0  0  0  0
    3.6232    1.3995    0.3423 C   0  0  0  0  0  0  0  0  0  0  0  0
    2.9310    0.1446    0.1684 N   0  0  0  0  0  0  0  0  0  0  0  0
    1.7429   -0.0552   -0.6086 C   0  0  0  0  0  0  0  0  0  0  0  0
    0.7292   -0.8632    0.1359 C   0  0  2  0  0  0  0  0  0  0  0  0
   -0.3434   -1.3718   -0.7608 C   0  0  0  0  0  0  0  0  0  0  0  0
   -0.1534   -1.7131   -1.9431 O   0  0  0  0  0  0  0  0  0  0  0  0
   -1.5856   -1.4145   -0.1009 N   0  0  0  0  0  0  0  0  0  0  0  0
   -2.8480   -1.9374   -0.5254 C   0  0  0  0  0  0  0  0  0  0  0  0
   -3.2465   -3.2396   -0.2268 C   0  0  0  0  0  0  0  0  0  0  0  0
   -4.4296   -3.7434   -0.6260 N   0  0  0  0  0  0  0  0  0  0  0  0
   -5.2816   -3.0102   -1.3323 C   0  0  0  0  0  0  0  0  0  0  0  0
   -4.9770   -1.7130   -1.6759 C   0  0  0  0  0  0  0  0  0  0  0  0
   -5.8734   -0.9620   -2.4137 C   0  0  0  0  0  0  0  0  0  0  0  0
   -5.5700    0.3413   -2.7632 C   0  0  0  0  0  0  0  0  0  0  0  0
   -4.3589    0.8770   -2.3629 C   0  0  0  0  0  0  0  0  0  0  0  0
   -3.4896    0.1004   -1.6287 C   0  0  0  0  0  0  0  0  0  0  0  0
   -3.7530   -1.1974   -1.2610 C   0  0  0  0  0  0  0  0  0  0  0  0
   -1.3834   -0.8127    1.1911 C   0  0  0  0  0  0  0  0  0  0  0  0
   -0.0649   -0.1090    1.1651 C   0  0  2  0  0  0  0  0  0  0  0  0
   -0.2497    1.3098    0.7550 C   0  0  0  0  0  0  0  0  0  0  0  0
   -1.1368    2.3593    1.8330 S   0  0  0  0  0  0  0  0  0  0  0  0
   -2.5372    1.9434    2.0167 O   0  0  0  0  0  0  0  0  0  0  0  0
   -0.4620    2.5720    3.1517 O   0  0  0  0  0  0  0  0  0  0  0  0
   -1.1404    3.9418    1.0629 N   0  0  0  0  0  0  0  0  0  0  0  0
    0.2386    4.3877    0.9357 C   0  0  0  0  0  0  0  0  0  0  0  0
   -1.9078    4.8607    1.8845 C   0  0  0  0  0  0  0  0  0  0  0  0
    1.3667   -2.0810    0.7023 C   0  0  0  0  0  0  0  0  0  0  0  0
    0.6368   -3.2597    0.9209 C   0  0  0  0  0  0  0  0  0  0  0  0
    1.2117   -4.3763    1.4847 C   0  0  0  0  0  0  0  0  0  0  0  0
    0.4550   -5.5062    1.6789 F   0  0  0  0  0  0  0  0  0  0  0  0
    2.5363   -4.3960    1.8642 C   0  0  0  0  0  0  0  0  0  0  0  0
    3.2725   -3.2487    1.6566 C   0  0  0  0  0  0  0  0  0  0  0  0
    2.6853   -2.1479    1.0941 C   0  0  0  0  0  0  0  0  0  0  0  0
    3.5173   -0.9894    0.8246 C   0  0  0  0  0  0  0  0  0  0  0  0
    4.7255   -0.9715    1.1552 O   0  0  0  0  0  0  0  0  0  0  0  0
  1  2  1  0
  2  3  1  0
  3  4  2  0
  3  5  1  0
  5  6  1  0
  6  7  1  0
  8  7  1  6
  8  9  1  0
  9 10  2  0
  9 11  1  0
 11 12  1  0
 12 13  2  0
 13 14  1  0
 14 15  2  0
 15 16  1  0
 16 17  2  0
 17 18  1  0
 18 19  2  0
 19 20  1  0
 20 21  2  0
 11 22  1  0
 22 23  1  0
 23 24  1  6
 24 25  1  0
 25 26  2  0
 25 27  2  0
 25 28  1  0
 28 29  1  0
 28 30  1  0
  8 31  1  0
 31 32  2  0
 32 33  1  0
 33 34  1  0
 33 35  2  0
 35 36  1  0
 36 37  2  0
 37 38  1  0
 38 39  2  0
 38  6  1  0
 23  8  1  0
 37 31  1  0
 21 12  1  0
 21 16  1  0
M  END
$$$$

     RDKit          3D

 26 29  0  0  0  0  0  0  0  0999 V2000
    3.2394   -2.3039    0.5417 C   0  0  0  0  0  0  0  0  0  0  0  0
    4.0032   -1.1110    0.2511 N   0  0  0  0  0  0  0  0  0  0  0  0
    5.3377   -1.1085    0.2617 N   0  0  0  0  0  0  0  0  0  0  0  0
    5.8070    0.1131   -0.0242 C   0  0  0  0  0  0  0  0  0  0  0  0
    4.6823    0.8899   -0.2181 C   0  0  0  0  0  0  0  0  0  0  0  0
    4.6307    2.2325   -0.5292 C   0  0  0  0  0  0  0  0  0  0  0  0
    3.4253    2.7798   -0.6621 N   0  0  0  0  0  0  0  0  0  0  0  0
    2.2838    2.0458   -0.4987 C   0  0  0  0  0  0  0  0  0  0  0  0
    2.2977    0.7065   -0.1887 C   0  0  0  0  0  0  0  0  0  0  0  0
    1.1427   -0.0835    0.0069 N   0  0  0  0  0  0  0  0  0  0  0  0
   -0.1868    0.4603    0.1212 C   0  0  0  0  0  0  0  0  0  0  0  0
   -0.4388    1.6720    0.0639 O   0  0  0  0  0  0  0  0  0  0  0  0
   -1.3303   -0.4897    0.3206 C   0  0  2  0  0  0  0  0  0  0  0  0
   -1.3734   -1.3115   -0.9414 C   0  0  0  0  0  0  0  0  0  0  0  0
   -2.3316   -2.3836   -0.7746 N   0  0  0  0  0  0  0  0  0  0  0  0
   -3.8750   -1.6127   -1.1107 S   0  0  0  0  0  0  0  0  0  0  0  0
   -5.0210   -2.4897   -0.7686 O   0  0  0  0  0  0  0  0  0  0  0  0
   -3.8337   -1.2015   -2.5521 O   0  0  0  0  0  0  0  0  0  0  0  0
   -3.8102   -0.1693   -0.0778 C   0  0  0  0  0  0  0  0  0  0  0  0
   -4.9959    0.4915    0.0998 C   0  0  0  0  0  0  0  0  0  0  0  0
   -5.0603    1.6106    0.8990 C   0  0  0  0  0  0  0  0  0  0  0  0
   -3.8948    2.0224    1.4982 C   0  0  0  0  0  0  0  0  0  0  0  0
   -3.9757    3.4484    2.5175 Cl  0  0  0  0  0  0  0  0  0  0  0  0
   -2.6977    1.3510    1.3156 C   0  0  0  0  0  0  0  0  0  0  0  0
   -2.6158    0.2103    0.5041 C   0  0  0  0  0  0  0  0  0  0  0  0
    3.5358    0.1164   -0.0448 C   0  0  0  0  0  0  0  0  0  0  0  0
  1  2  1  0
  2  3  1  0
  3  4  2  0
  4  5  1  0
  5  6  2  0
  6  7  1  0
  7  8  2  0
  8  9  1  0
  9 10  1  0
 10 11  1  0
 11 12  2  0
 13 11  1  6
 13 14  1  0
 14 15  1  0
 15 16  1  0
 16 17  2  0
 16 18  2  0
 16 19  1  0
 19 20  2  0
 20 21  1  0
 21 22  2  0
 22 23  1  0
 22 24  1  0
 24 25  2  0
  9 26  2  0
 26  2  1  0
 26  5  1  0
 25 13  1  0
 25 19  1  0
M  END
$$$$

     RDKit          3D

 40 45  0  0  0  0  0  0  0  0999 V2000
   -5.5542   -2.2000    2.8961 C   0  0  0  0  0  0  0  0  0  0  0  0
   -4.3087   -2.1716    2.1482 N   0  0  0  0  0  0  0  0  0  0  0  0
   -3.2149   -3.0151    2.4875 C   0  0  0  0  0  0  0  0  0  0  0  0
   -3.3433   -3.7936    3.4541 O   0  0  0  0  0  0  0  0  0  0  0  0
   -1.9241   -2.9982    1.7268 C   0  0  0  0  0  0  0  0  0  0  0  0
   -1.9672   -2.0352    0.6471 N   0  0  0  0  0  0  0  0  0  0  0  0
   -1.5581   -0.6609    0.8397 C   0  0  0  0  0  0  0  0  0  0  0  0
   -0.5081   -0.2549   -0.1715 C   0  0  2  0  0  0  0  0  0  0  0  0
    0.7089   -1.0611    0.2122 C   0  0  0  0  0  0  0  0  0  0  0  0
    0.7647   -2.3084    0.4096 O   0  0  0  0  0  0  0  0  0  0  0  0
    1.8322   -0.1962    0.3272 N   0  0  0  0  0  0  0  0  0  0  0  0
    3.1424   -0.5992    0.6998 C   0  0  0  0  0  0  0  0  0  0  0  0
    3.5019   -0.5973    2.0335 C   0  0  0  0  0  0  0  0  0  0  0  0
    4.7243   -0.9660    2.4604 N   0  0  0  0  0  0  0  0  0  0  0  0
    5.6374   -1.3549    1.5385 C   0  0  0  0  0  0  0  0  0  0  0  0
    5.3320   -1.3763    0.1881 C   0  0  0  0  0  0  0  0  0  0  0  0
    6.2633   -1.7744   -0.7691 C   0  0  0  0  0  0  0  0  0  0  0  0
    5.9498   -1.7928   -2.1144 C   0  0  0  0  0  0  0  0  0  0  0  0
    4.6835   -1.4089   -2.5369 C   0  0  0  0  0  0  0  0  0  0  0  0
    3.7587   -1.0133   -1.5832 C   0  0  0  0  0  0  0  0  0  0  0  0
    4.0718   -0.9953   -0.2429 C   0  0  0  0  0  0  0  0  0  0  0  0
    1.4490    1.1580    0.0095 C   0  0  0  0  0  0  0  0  0  0  0  0
   -0.0678    1.1535   -0.0256 C   0  0  2  0  0  0  0  0  0  0  0  0
   -0.5014    1.7872    1.2825 C   0  0  0  0  0  0  0  0  0  0  0  0
    0.0067    3.1524    1.2642 N   0  0  0  0  0  0  0  0  0  0  0  0
   -0.3693    4.0743    0.2726 C   0  0  0  0  0  0  0  0  0  0  0  0
    0.5209    4.3048   -1.3101 S   0  0  0  0  0  0  0  0  0  0  0  0
   -0.7263    5.6631   -1.8313 C   0  0  0  0  0  0  0  0  0  0  0  0
   -1.4044    5.6701   -0.9232 N   0  0  0  0  0  0  0  0  0  0  0  0
   -1.3875    4.9762    0.1842 C   0  0  0  0  0  0  0  0  0  0  0  0
   -2.4035    5.1451    1.2882 C   0  0  0  0  0  0  0  0  0  0  0  0
   -0.9830   -0.6193   -1.5066 C   0  0  0  0  0  0  0  0  0  0  0  0
   -0.5061    0.0838   -2.6179 C   0  0  0  0  0  0  0  0  0  0  0  0
   -0.9150   -0.2183   -3.9014 C   0  0  0  0  0  0  0  0  0  0  0  0
   -0.3094    0.6726   -5.2971 Cl  0  0  0  0  0  0  0  0  0  0  0  0
   -1.8178   -1.2343   -4.1410 C   0  0  0  0  0  0  0  0  0  0  0  0
   -2.3017   -1.9415   -3.0599 C   0  0  0  0  0  0  0  0  0  0  0  0
   -1.8829   -1.6267   -1.7837 C   0  0  0  0  0  0  0  0  0  0  0  0
   -2.4188   -2.3920   -0.6610 C   0  0  0  0  0  0  0  0  0  0  0  0
   -3.2414   -3.3304   -0.7884 O   0  0  0  0  0  0  0  0  0  0  0  0
  1  2  1  0
  2  3  1  0
  3  4  2  0
  3  5  1  0
  5  6  1  0
  6  7  1  0
  8  7  1  1
  8  9  1  0
  9 10  2  0
  9 11  1  0
 11 12  1  0
 12 13  2  0
 13 14  1  0
 14 15  2  0
 15 16  1  0
 16 17  2  0
 17 18  1  0
 18 19  2  0
 19 20  1  0
 20 21  2  0
 11 22  1  0
 22 23  1  0
 23 24  1  1
 24 25  1  0
 25 26  1  0
 26 27  1  0
 27 28  1  0
 28 29  2  0
 29 30  1  0
 30 31  1  0
  8 32  1  0
 32 33  2  0
 33 34  1  0
 34 35  1  0
 34 36  2  0
 36 37  1  0
 37 38  2  0
 38 39  1  0
 39 40  2  0
 39  6  1  0
 23  8  1  0
 30 26  2  0
 38 32  1  0
 21 12  1  0
 21 16  1  0
M  END
$$$$

     RDKit          3D

 35 39  0  0  0  0  0  0  0  0999 V2000
    4.7789   -0.0816    2.8123 C   0  0  0  0  0  0  0  0  0  0  0  0
    4.1012    0.3646    1.6138 N   0  0  0  0  0  0  0  0  0  0  0  0
    4.3484    1.6828    1.1654 C   0  0  0  0  0  0  0  0  0  0  0  0
    5.1556    2.3700    1.8642 O   0  0  0  0  0  0  0  0  0  0  0  0
    3.7679    2.3139   -0.0142 C   0  0  0  0  0  0  0  0  0  0  0  0
    2.8459    1.4339   -0.7135 N   0  0  0  0  0  0  0  0  0  0  0  0
    1.4345    1.4093   -0.5132 C   0  0  0  0  0  0  0  0  0  0  0  0
    0.7507    0.0804   -0.5031 C   0  0  2  0  0  0  0  0  0  0  0  0
   -0.6652    0.3361   -0.9607 C   0  0  0  0  0  0  0  0  0  0  0  0
   -1.0492    1.2633   -1.7460 O   0  0  0  0  0  0  0  0  0  0  0  0
   -1.5396   -0.6192   -0.3853 N   0  0  0  0  0  0  0  0  0  0  0  0
   -2.8468   -1.0226   -0.7929 C   0  0  0  0  0  0  0  0  0  0  0  0
   -3.0795   -2.0664   -1.6637 C   0  0  0  0  0  0  0  0  0  0  0  0
   -4.3413   -2.4338   -2.0368 N   0  0  0  0  0  0  0  0  0  0  0  0
   -5.4439   -1.8147   -1.5905 C   0  0  0  0  0  0  0  0  0  0  0  0
   -5.2641   -0.7656   -0.7187 C   0  0  0  0  0  0  0  0  0  0  0  0
   -6.4104   -0.1332   -0.2664 C   0  0  0  0  0  0  0  0  0  0  0  0
   -6.3075    0.9282    0.6084 C   0  0  0  0  0  0  0  0  0  0  0  0
   -5.0439    1.3190    1.0004 C   0  0  0  0  0  0  0  0  0  0  0  0
   -3.9310    0.6886    0.5479 C   0  0  0  0  0  0  0  0  0  0  0  0
   -3.9950   -0.3729   -0.3244 C   0  0  0  0  0  0  0  0  0  0  0  0
   -0.8437   -1.1500    0.7585 C   0  0  0  0  0  0  0  0  0  0  0  0
    0.5304   -0.5441    0.8200 C   0  0  2  0  0  0  0  0  0  0  0  0
    0.5268    0.4814    1.9302 C   0  0  0  0  0  0  0  0  0  0  0  0
   -0.4878    1.3796    1.7129 O   0  0  0  0  0  0  0  0  0  0  0  0
   -0.5714    2.3649    2.6853 C   0  0  0  0  0  0  0  0  0  0  0  0
    1.4238   -0.8367   -1.4756 C   0  0  0  0  0  0  0  0  0  0  0  0
    0.7911   -2.0178   -1.8829 C   0  0  0  0  0  0  0  0  0  0  0  0
    1.3581   -2.8811   -2.7905 C   0  0  0  0  0  0  0  0  0  0  0  0
    0.4598   -4.3366   -3.2226 Cl  0  0  0  0  0  0  0  0  0  0  0  0
    2.5734   -2.6278   -3.3425 C   0  0  0  0  0  0  0  0  0  0  0  0
    3.2308   -1.4760   -2.9681 C   0  0  0  0  0  0  0  0  0  0  0  0
    2.6493   -0.6051   -2.0463 C   0  0  0  0  0  0  0  0  0  0  0  0
    3.4400    0.5651   -1.6901 C   0  0  0  0  0  0  0  0  0  0  0  0
    4.5582    0.7891   -2.2047 O   0  0  0  0  0  0  0  0  0  0  0  0
  1  2  1  0
  2  3  1  0
  3  4  2  0
  3  5  1  0
  5  6  1  0
  6  7  1  0
  8  7  1  1
  8  9  1  0
  9 10  2  0
  9 11  1  0
 11 12  1  0
 12 13  2  0
 13 14  1  0
 14 15  2  0
 15 16  1  0
 16 17  2  0
 17 18  1  0
 18 19  2  0
 19 20  1  0
 20 21  2  0
 11 22  1  0
 22 23  1  0
 23 24  1  1
 24 25  1  0
 25 26  1  0
  8 27  1  0
 27 28  2  0
 28 29  1  0
 29 30  1  0
 29 31  2  0
 31 32  1  0
 32 33  2  0
 33 34  1  0
 34 35  2  0
 34  6  1  0
 23  8  1  0
 33 27  1  0
 21 12  1  0
 21 16  1  0
M  END
$$$$

     RDKit          3D

 39 44  0  0  0  0  0  0  0  0999 V2000
    5.3932   -1.5489   -2.8191 C   0  0  0  0  0  0  0  0  0  0  0  0
    4.2358   -1.6510   -1.9497 N   0  0  0  0  0  0  0  0  0  0  0  0
    3.2346   -2.6558   -2.1103 C   0  0  0  0  0  0  0  0  0  0  0  0
    3.3539   -3.4970   -3.0484 O   0  0  0  0  0  0  0  0  0  0  0  0
    2.0847   -2.6812   -1.1704 C   0  0  0  0  0  0  0  0  0  0  0  0
    2.1600   -1.6246   -0.1812 N   0  0  0  0  0  0  0  0  0  0  0  0
    1.5887   -0.3074   -0.3688 C   0  0  0  0  0  0  0  0  0  0  0  0
    0.6272   -0.0347    0.7424 C   0  0  2  0  0  0  0  0  0  0  0  0
   -0.5315   -0.9998    0.6587 C   0  0  0  0  0  0  0  0  0  0  0  0
   -0.5010   -2.2189    1.0411 O   0  0  0  0  0  0  0  0  0  0  0  0
   -1.6554   -0.3367    0.0893 N   0  0  0  0  0  0  0  0  0  0  0  0
   -2.9966   -0.8087    0.1223 C   0  0  0  0  0  0  0  0  0  0  0  0
   -3.7573   -0.3975    1.2222 C   0  0  0  0  0  0  0  0  0  0  0  0
   -5.0292   -0.7831    1.3526 N   0  0  0  0  0  0  0  0  0  0  0  0
   -5.6036   -1.5785    0.4221 C   0  0  0  0  0  0  0  0  0  0  0  0
   -4.8630   -1.9958   -0.6757 C   0  0  0  0  0  0  0  0  0  0  0  0
   -5.4627   -2.8082   -1.6182 C   0  0  0  0  0  0  0  0  0  0  0  0
   -4.7184   -3.2193   -2.7082 C   0  0  0  0  0  0  0  0  0  0  0  0
   -3.3844   -2.8257   -2.8621 C   0  0  0  0  0  0  0  0  0  0  0  0
   -2.7743   -2.0070   -1.9156 C   0  0  0  0  0  0  0  0  0  0  0  0
   -3.5391   -1.6202   -0.8523 C   0  0  0  0  0  0  0  0  0  0  0  0
   -1.1360    0.8811   -0.5065 C   0  0  0  0  0  0  0  0  0  0  0  0
   -0.0770    1.2602    0.5409 C   0  0  2  0  0  0  0  0  0  0  0  0
    0.8917    2.2705   -0.0288 C   0  0  0  0  0  0  0  0  0  0  0  0
    0.2414    3.5894   -0.2503 C   0  0  0  0  0  0  0  0  0  0  0  0
   -0.3779    3.9072   -1.4559 C   0  0  0  0  0  0  0  0  0  0  0  0
   -0.9850    5.1230   -1.6777 C   0  0  0  0  0  0  0  0  0  0  0  0
   -0.9928    6.0883   -0.6723 C   0  0  0  0  0  0  0  0  0  0  0  0
   -0.3771    5.7824    0.5372 C   0  0  0  0  0  0  0  0  0  0  0  0
    0.2264    4.5653    0.7488 C   0  0  0  0  0  0  0  0  0  0  0  0
    1.2809   -0.2129    2.0472 C   0  0  0  0  0  0  0  0  0  0  0  0
    0.8912    0.4670    3.1860 C   0  0  0  0  0  0  0  0  0  0  0  0
    1.5295    0.2688    4.4155 C   0  0  0  0  0  0  0  0  0  0  0  0
    1.0330    1.1321    5.8576 Cl  0  0  0  0  0  0  0  0  0  0  0  0
    2.5781   -0.6161    4.5446 C   0  0  0  0  0  0  0  0  0  0  0  0
    2.9733   -1.2984    3.4135 C   0  0  0  0  0  0  0  0  0  0  0  0
    2.3405   -1.0980    2.2073 C   0  0  0  0  0  0  0  0  0  0  0  0
    2.8334   -1.8596    1.0653 C   0  0  0  0  0  0  0  0  0  0  0  0
    3.7845   -2.6786    1.1317 O   0  0  0  0  0  0  0  0  0  0  0  0
  1  2  1  0
  2  3  1  0
  3  4  2  0
  3  5  1  0
  5  6  1  0
  6  7  1  0
  8  7  1  6
  8  9  1  0
  9 10  2  0
  9 11  1  0
 11 12  1  0
 12 13  2  0
 13 14  1  0
 14 15  2  0
 15 16  1  0
 16 17  2  0
 17 18  1  0
 18 19  2  0
 19 20  1  0
 20 21  2  0
 11 22  1  0
 22 23  1  0
 23 24  1  6
 24 25  1  0
 25 26  2  0
 26 27  1  0
 27 28  2  0
 28 29  1  0
 29 30  2  0
  8 31  1  0
 31 32  2  0
 32 33  1  0
 33 34  1  0
 33 35  2  0
 35 36  1  0
 36 37  2  0
 37 38  1  0
 38 39  2  0
 38  6  1  0
 23  8  1  0
 30 25  1  0
 37 31  1  0
 21 12  1  0
 21 16  1  0
M  END
$$$$

     RDKit          3D

 31 35  0  0  0  0  0  0  0  0999 V2000
   -0.1553   -1.6133   -2.3579 C   0  0  0  0  0  0  0  0  0  0  0  0
   -0.4773   -1.8255   -0.8725 C   0  0  1  0  0  0  0  0  0  0  0  0
    0.7600   -1.9688   -0.0828 C   0  0  0  0  0  0  0  0  0  0  0  0
    0.9550   -0.7321    0.6080 N   0  0  0  0  0  0  0  0  0  0  0  0
    2.2033   -0.2909    1.1202 C   0  0  0  0  0  0  0  0  0  0  0  0
    2.5168   -0.6745    2.4273 C   0  0  0  0  0  0  0  0  0  0  0  0
    3.6751   -0.3011    2.9884 N   0  0  0  0  0  0  0  0  0  0  0  0
    4.5667    0.4481    2.3190 C   0  0  0  0  0  0  0  0  0  0  0  0
    4.3013    0.8579    1.0097 C   0  0  0  0  0  0  0  0  0  0  0  0
    5.2363    1.6268    0.3469 C   0  0  0  0  0  0  0  0  0  0  0  0
    4.9226    2.0067   -0.9530 C   0  0  0  0  0  0  0  0  0  0  0  0
    3.7344    1.6323   -1.5492 C   0  0  0  0  0  0  0  0  0  0  0  0
    2.8256    0.8659   -0.8594 C   0  0  0  0  0  0  0  0  0  0  0  0
    3.1062    0.4734    0.4291 C   0  0  0  0  0  0  0  0  0  0  0  0
   -0.2970   -0.0935    0.6791 C   0  0  0  0  0  0  0  0  0  0  0  0
   -0.5410    0.8096    1.5524 O   0  0  0  0  0  0  0  0  0  0  0  0
   -1.1968   -0.6298   -0.3671 C   0  0  1  0  0  0  0  0  0  0  0  0
   -1.3972    0.4264   -1.3946 C   0  0  0  0  0  0  0  0  0  0  0  0
   -2.3293    1.4330   -0.9765 N   0  0  0  0  0  0  0  0  0  0  0  0
   -2.0908    2.8648   -1.2129 C   0  0  0  0  0  0  0  0  0  0  0  0
   -1.3931    3.4483   -0.0836 C   0  0  0  0  0  0  0  0  0  0  0  0
   -0.8244    3.9070    0.7998 N   0  0  0  0  0  0  0  0  0  0  0  0
   -3.5493    1.1052   -0.3247 C   0  0  0  0  0  0  0  0  0  0  0  0
   -4.5009    1.8967   -0.3487 O   0  0  0  0  0  0  0  0  0  0  0  0
   -3.5943   -0.1849    0.3492 C   0  0  0  0  0  0  0  0  0  0  0  0
   -4.7634   -0.5345    0.9912 C   0  0  0  0  0  0  0  0  0  0  0  0
   -4.8393   -1.7484    1.6390 C   0  0  0  0  0  0  0  0  0  0  0  0
   -3.7280   -2.5615    1.6116 C   0  0  0  0  0  0  0  0  0  0  0  0
   -3.8085   -3.7600    2.2535 F   0  0  0  0  0  0  0  0  0  0  0  0
   -2.5489   -2.1903    0.9548 C   0  0  0  0  0  0  0  0  0  0  0  0
   -2.4745   -0.9704    0.3043 C   0  0  0  0  0  0  0  0  0  0  0  0
  2  1  1  6
  2  3  1  0
  3  4  1  0
  4  5  1  0
  5  6  2  0
  6  7  1  0
  7  8  2  0
  8  9  1  0
  9 10  2  0
 10 11  1  0
 11 12  2  0
 12 13  1  0
 13 14  2  0
  4 15  1  0
 15 16  2  0
 15 17  1  0
 17 18  1  6
 18 19  1  0
 19 20  1  0
 20 21  1  0
 21 22  3  0
 19 23  1  0
 23 24  2  0
 23 25  1  0
 25 26  2  0
 26 27  1  0
 27 28  2  0
 28 29  1  0
 28 30  1  0
 30 31  2  0
 17  2  1  0
 31 25  1  0
 14  5  1  0
 31 17  1  0
 14  9  1  0
M  END
$$$$

     RDKit          3D

 31 36  0  0  0  0  0  0  0  0999 V2000
    1.4141   -0.9674   -0.6836 O   0  0  0  0  0  0  0  0  0  0  0  0
    0.9040    0.1508   -1.0580 C   0  0  0  0  0  0  0  0  0  0  0  0
    1.8777    1.1839   -1.4517 C   0  0  0  0  0  0  0  0  0  0  0  0
    3.2842    0.6346   -1.3811 C   0  0  0  0  0  0  0  0  0  0  0  0
    3.9370    0.2693   -2.5623 C   0  0  0  0  0  0  0  0  0  0  0  0
    5.1932   -0.2278   -2.5198 N   0  0  0  0  0  0  0  0  0  0  0  0
    5.8371   -0.3811   -1.3565 C   0  0  0  0  0  0  0  0  0  0  0  0
    5.2130   -0.0259   -0.1603 C   0  0  0  0  0  0  0  0  0  0  0  0
    5.9462   -0.2125    0.9925 C   0  0  0  0  0  0  0  0  0  0  0  0
    5.3336    0.1412    2.1866 C   0  0  0  0  0  0  0  0  0  0  0  0
    4.0558    0.6495    2.1740 C   0  0  0  0  0  0  0  0  0  0  0  0
    3.3191    0.8380    1.0256 C   0  0  0  0  0  0  0  0  0  0  0  0
    3.9321    0.4836   -0.1743 C   0  0  0  0  0  0  0  0  0  0  0  0
   -0.5218    0.3304   -1.0774 N   0  0  0  0  0  0  0  0  0  0  0  0
   -1.1684    1.5596   -1.4674 C   0  0  0  0  0  0  0  0  0  0  0  0
   -1.4726    2.5098   -0.4025 C   0  0  0  0  0  0  0  0  0  0  0  0
   -0.6638    3.5461    0.0070 C   0  0  0  0  0  0  0  0  0  0  0  0
   -1.0215    4.4171    1.0378 C   0  0  0  0  0  0  0  0  0  0  0  0
   -2.2176    4.2847    1.7074 C   0  0  0  0  0  0  0  0  0  0  0  0
   -3.0379    3.2527    1.3075 C   0  0  0  0  0  0  0  0  0  0  0  0
   -4.5870    3.0336    2.1302 Cl  0  0  0  0  0  0  0  0  0  0  0  0
   -2.6852    2.3887    0.2868 C   0  0  0  0  0  0  0  0  0  0  0  0
   -1.3095   -0.7848   -0.7073 C   0  0  2  0  0  0  0  0  0  0  0  0
   -1.2377   -1.3919    0.6369 C   0  0  0  0  0  0  0  0  0  0  0  0
   -2.0563   -2.5972    0.4122 N   0  0  1  0  0  0  0  0  0  0  0  0
   -3.2211   -2.5905    1.2681 C   0  0  0  0  0  0  0  0  0  0  0  0
   -3.6958   -3.9857    1.6585 C   0  0  0  0  0  0  0  0  0  0  0  0
   -4.5265   -3.0582    0.7991 C   0  0  0  0  0  0  0  0  0  0  0  0
   -2.3808   -2.4518   -0.9755 C   0  0  2  0  0  0  0  0  0  0  0  0
   -1.0533   -2.0507   -1.5761 C   0  0  0  0  0  0  0  0  0  0  0  0
   -2.7148   -0.9508   -1.1396 C   0  0  0  0  0  0  0  0  0  0  0  0
  1  2  2  0
  2  3  1  0
  3  4  1  0
  4  5  2  0
  5  6  1  0
  6  7  2  0
  7  8  1  0
  8  9  2  0
  9 10  1  0
 10 11  2  0
 11 12  1  0
 12 13  2  0
  2 14  1  0
 14 15  1  0
 15 16  1  0
 16 17  2  0
 17 18  1  0
 18 19  2  0
 19 20  1  0
 20 21  1  0
 20 22  2  0
 23 14  1  1
 23 24  1  0
 24 25  1  0
 25 26  1  1
 26 27  1  0
 27 28  1  0
 25 29  1  0
 29 30  1  6
 29 31  1  0
 13  4  1  0
 22 16  1  0
 30 23  1  0
 13  8  1  0
 31 23  1  0
 28 26  1  0
M  CHG  1  25   1
M  END
$$$$

     RDKit          3D

 22 24  0  0  0  0  0  0  0  0999 V2000
    5.3513   -1.3811    0.3926 C   0  0  0  0  0  0  0  0  0  0  0  0
    4.4106   -0.4065    1.1137 C   0  0  0  0  0  0  0  0  0  0  0  0
    5.2461    0.7728    1.5192 C   0  0  0  0  0  0  0  0  0  0  0  0
    3.3189   -0.0490    0.1320 C   0  0  0  0  0  0  0  0  0  0  0  0
    2.5741   -1.2528   -0.2932 C   0  0  0  0  0  0  0  0  0  0  0  0
    1.1131   -1.1337   -0.5334 C   0  0  0  0  0  0  0  0  0  0  0  0
    0.4726   -0.0578    0.1873 N   0  0  0  0  0  0  0  0  0  0  0  0
   -0.8293    0.4160   -0.1290 C   0  0  0  0  0  0  0  0  0  0  0  0
   -1.3646    1.3575    0.5176 O   0  0  0  0  0  0  0  0  0  0  0  0
   -1.5331   -0.2479   -1.2570 C   0  0  0  0  0  0  0  0  0  0  0  0
   -2.8517    0.3949   -1.4130 C   0  0  0  0  0  0  0  0  0  0  0  0
   -3.0742    1.2950   -2.4549 C   0  0  0  0  0  0  0  0  0  0  0  0
   -4.2639    1.9026   -2.6322 N   0  0  0  0  0  0  0  0  0  0  0  0
   -5.3301    1.6905   -1.8207 C   0  0  0  0  0  0  0  0  0  0  0  0
   -5.1328    0.8014   -0.7803 C   0  0  0  0  0  0  0  0  0  0  0  0
   -6.2320    0.5862    0.0527 C   0  0  0  0  0  0  0  0  0  0  0  0
   -6.0451   -0.2991    1.0941 C   0  0  0  0  0  0  0  0  0  0  0  0
   -4.8426   -0.9419    1.3098 C   0  0  0  0  0  0  0  0  0  0  0  0
   -3.7784   -0.6991    0.4593 C   0  0  0  0  0  0  0  0  0  0  0  0
   -3.9262    0.1681   -0.5785 C   0  0  0  0  0  0  0  0  0  0  0  0
    1.2629    0.5293    1.2853 C   0  0  0  0  0  0  0  0  0  0  0  0
    2.4684    1.0857    0.5840 C   0  0  0  0  0  0  0  0  0  0  0  0
  1  2  1  0
  2  3  1  0
  2  4  1  0
  4  5  1  0
  5  6  1  0
  6  7  1  0
  7  8  1  0
  8  9  2  0
  8 10  1  0
 10 11  1  0
 11 12  2  0
 12 13  1  0
 13 14  2  0
 14 15  1  0
 15 16  2  0
 16 17  1  0
 17 18  2  0
 18 19  1  0
 19 20  2  0
  7 21  1  0
 21 22  1  0
 22  4  1  0
 20 11  1  0
 20 15  1  0
M  END
$$$$

     RDKit          3D

 40 45  0  0  0  0  0  0  0  0999 V2000
    6.0646    0.1420   -2.4527 C   0  0  0  0  0  0  0  0  0  0  0  0
    4.8121   -0.4230   -1.9620 N   0  0  0  0  0  0  0  0  0  0  0  0
    3.8966   -1.0523   -2.8513 C   0  0  0  0  0  0  0  0  0  0  0  0
    4.1615   -1.1293   -4.0892 O   0  0  0  0  0  0  0  0  0  0  0  0
    2.6112   -1.6407   -2.3971 C   0  0  0  0  0  0  0  0  0  0  0  0
    2.3985   -1.5039   -0.9706 N   0  0  0  0  0  0  0  0  0  0  0  0
    1.7283   -0.3617   -0.3708 C   0  0  0  0  0  0  0  0  0  0  0  0
    0.6134   -0.7750    0.5585 C   0  0  2  0  0  0  0  0  0  0  0  0
   -0.5586   -1.2866   -0.1878 C   0  0  0  0  0  0  0  0  0  0  0  0
   -0.5922   -1.8884   -1.3123 O   0  0  0  0  0  0  0  0  0  0  0  0
   -1.6883   -0.9755    0.6043 N   0  0  0  0  0  0  0  0  0  0  0  0
   -2.8930   -1.7590    0.7268 C   0  0  0  0  0  0  0  0  0  0  0  0
   -3.0369   -2.7367    1.6885 C   0  0  0  0  0  0  0  0  0  0  0  0
   -4.1960   -3.4337    1.7454 N   0  0  0  0  0  0  0  0  0  0  0  0
   -5.1965   -3.2011    0.9008 C   0  0  0  0  0  0  0  0  0  0  0  0
   -5.1284   -2.2368   -0.0918 C   0  0  0  0  0  0  0  0  0  0  0  0
   -6.1577   -2.0003   -0.9577 C   0  0  0  0  0  0  0  0  0  0  0  0
   -6.0699   -1.0406   -1.9336 C   0  0  0  0  0  0  0  0  0  0  0  0
   -4.8972   -0.3024   -2.0265 C   0  0  0  0  0  0  0  0  0  0  0  0
   -3.8662   -0.5552   -1.1421 C   0  0  0  0  0  0  0  0  0  0  0  0
   -3.9398   -1.5099   -0.1632 C   0  0  0  0  0  0  0  0  0  0  0  0
   -1.4066    0.2760    1.2588 C   0  0  0  0  0  0  0  0  0  0  0  0
    0.0789    0.4490    1.2365 C   0  0  2  0  0  0  0  0  0  0  0  0
    0.3765    1.7126    0.4436 C   0  0  0  0  0  0  0  0  0  0  0  0
   -0.1395    2.8870    1.0955 N   0  0  0  0  0  0  0  0  0  0  0  0
    0.0685    4.1366    0.4624 C   0  0  0  0  0  0  0  0  0  0  0  0
    0.6682    4.5204   -0.6714 C   0  0  0  0  0  0  0  0  0  0  0  0
    0.6432    5.8215   -0.9071 N   0  0  0  0  0  0  0  0  0  0  0  0
    0.1903    6.6689   -0.2952 C   0  0  0  0  0  0  0  0  0  0  0  0
    0.0252    8.1565   -0.3254 C   0  0  0  0  0  0  0  0  0  0  0  0
   -0.5302    5.7090    1.1740 S   0  0  0  0  0  0  0  0  0  0  0  0
    1.0598   -1.7952    1.5358 C   0  0  0  0  0  0  0  0  0  0  0  0
    0.4766   -1.9963    2.7653 C   0  0  0  0  0  0  0  0  0  0  0  0
    0.9083   -2.9582    3.6572 C   0  0  0  0  0  0  0  0  0  0  0  0
    0.1179   -3.1647    5.2162 Cl  0  0  0  0  0  0  0  0  0  0  0  0
    1.9776   -3.7733    3.3234 C   0  0  0  0  0  0  0  0  0  0  0  0
    2.5839   -3.5947    2.0950 C   0  0  0  0  0  0  0  0  0  0  0  0
    2.1390   -2.6285    1.2168 C   0  0  0  0  0  0  0  0  0  0  0  0
    2.8497   -2.5133   -0.0520 C   0  0  0  0  0  0  0  0  0  0  0  0
    3.8222   -3.2452   -0.3717 O   0  0  0  0  0  0  0  0  0  0  0  0
  1  2  1  0
  2  3  1  0
  3  4  2  0
  3  5  1  0
  5  6  1  0
  6  7  1  0
  8  7  1  6
  8  9  1  0
  9 10  2  0
  9 11  1  0
 11 12  1  0
 12 13  2  0
 13 14  1  0
 14 15  2  0
 15 16  1  0
 16 17  2  0
 17 18  1  0
 18 19  2  0
 19 20  1  0
 20 21  2  0
 11 22  1  0
 22 23  1  0
 23 24  1  6
 24 25  1  0
 25 26  1  0
 26 27  2  0
 27 28  1  0
 28 29  2  0
 29 30  1  0
 29 31  1  0
  8 32  1  0
 32 33  2  0
 33 34  1  0
 34 35  1  0
 34 36  2  0
 36 37  1  0
 37 38  2  0
 38 39  1  0
 39 40  2  0
 39  6  1  0
 23  8  1  0
 31 26  1  0
 38 32  1  0
 21 12  1  0
 21 16  1  0
M  END
$$$$

     RDKit          3D

 37 41  0  0  0  0  0  0  0  0999 V2000
    6.3998   -3.0854   -0.8256 C   0  0  0  0  0  0  0  0  0  0  0  0
    5.4854   -2.1328   -1.4521 N   0  0  0  0  0  0  0  0  0  0  0  0
    4.5354   -1.3835   -0.7324 C   0  0  0  0  0  0  0  0  0  0  0  0
    4.4287   -1.5067    0.5318 O   0  0  0  0  0  0  0  0  0  0  0  0
    3.6348   -0.4306   -1.4329 C   0  0  0  0  0  0  0  0  0  0  0  0
    2.7692    0.1930   -0.4392 N   0  0  0  0  0  0  0  0  0  0  0  0
    1.5108   -0.4050   -0.1097 C   0  0  0  0  0  0  0  0  0  0  0  0
    0.4583    0.5145    0.3841 C   0  0  2  0  0  0  0  0  0  0  0  0
   -0.4176   -0.2458    1.3163 C   0  0  0  0  0  0  0  0  0  0  0  0
   -0.1403   -0.4673    2.5381 O   0  0  0  0  0  0  0  0  0  0  0  0
   -1.5847   -0.6674    0.6177 N   0  0  0  0  0  0  0  0  0  0  0  0
   -2.7251   -1.2853    1.2046 C   0  0  0  0  0  0  0  0  0  0  0  0
   -3.7979   -0.5390    1.6781 C   0  0  0  0  0  0  0  0  0  0  0  0
   -4.8704   -1.0990    2.2289 N   0  0  0  0  0  0  0  0  0  0  0  0
   -4.9297   -2.4271    2.3362 C   0  0  0  0  0  0  0  0  0  0  0  0
   -3.9089   -3.2351    1.8914 C   0  0  0  0  0  0  0  0  0  0  0  0
   -3.9790   -4.6185    2.0071 C   0  0  0  0  0  0  0  0  0  0  0  0
   -2.9409   -5.4251    1.5539 C   0  0  0  0  0  0  0  0  0  0  0  0
   -1.8314   -4.8355    0.9835 C   0  0  0  0  0  0  0  0  0  0  0  0
   -1.7261   -3.4486    0.8506 C   0  0  0  0  0  0  0  0  0  0  0  0
   -2.7760   -2.6624    1.3107 C   0  0  0  0  0  0  0  0  0  0  0  0
   -1.3555   -0.3340   -0.7894 C   0  0  0  0  0  0  0  0  0  0  0  0
   -0.5580    0.9362   -0.6577 C   0  0  2  0  0  0  0  0  0  0  0  0
    0.0280    1.4356   -1.9095 C   0  0  0  0  0  0  0  0  0  0  0  0
   -0.9477    1.8126   -2.8209 O   0  0  0  0  0  0  0  0  0  0  0  0
   -1.7669    2.8325   -2.4154 C   0  0  0  0  0  0  0  0  0  0  0  0
   -1.7107    4.0264   -3.3646 C   0  0  0  0  0  0  0  0  0  0  0  0
   -3.2113    2.3590   -2.4478 C   0  0  0  0  0  0  0  0  0  0  0  0
    0.9660    1.7661    0.9994 C   0  0  0  0  0  0  0  0  0  0  0  0
    0.0658    2.5359    1.7082 C   0  0  0  0  0  0  0  0  0  0  0  0
    0.4464    3.7168    2.3155 C   0  0  0  0  0  0  0  0  0  0  0  0
   -0.5065    4.4061    2.9903 F   0  0  0  0  0  0  0  0  0  0  0  0
    1.7550    4.1412    2.2143 C   0  0  0  0  0  0  0  0  0  0  0  0
    2.6686    3.3767    1.5049 C   0  0  0  0  0  0  0  0  0  0  0  0
    2.2719    2.1898    0.8985 C   0  0  0  0  0  0  0  0  0  0  0  0
    3.2608    1.3982    0.1523 C   0  0  0  0  0  0  0  0  0  0  0  0
    4.4626    1.7530    0.0384 O   0  0  0  0  0  0  0  0  0  0  0  0
  1  2  1  0
  2  3  1  0
  3  4  2  0
  3  5  1  0
  5  6  1  0
  6  7  1  0
  8  7  1  6
  8  9  1  0
  9 10  2  0
  9 11  1  0
 11 12  1  0
 12 13  2  0
 13 14  1  0
 14 15  2  0
 15 16  1  0
 16 17  2  0
 17 18  1  0
 18 19  2  0
 19 20  1  0
 20 21  2  0
 11 22  1  0
 22 23  1  0
 23 24  1  6
 24 25  1  0
 25 26  1  0
 26 27  1  0
 26 28  1  0
  8 29  1  0
 29 30  2  0
 30 31  1  0
 31 32  1  0
 31 33  2  0
 33 34  1  0
 34 35  2  0
 35 36  1  0
 36 37  2  0
 36  6  1  0
 23  8  1  0
 35 29  1  0
 21 12  1  0
 21 16  1  0
M  END
$$$$

     RDKit          3D

 29 31  0  0  0  0  0  0  0  0999 V2000
    2.3617    0.0770    1.8015 C   0  0  0  0  0  0  0  0  0  0  0  0
    2.5586   -0.3715    0.5774 C   0  0  0  0  0  0  0  0  0  0  0  0
    1.6159   -0.1821   -0.5468 C   0  0  0  0  0  0  0  0  0  0  0  0
    0.4469    0.5744   -0.2756 N   0  0  0  0  0  0  0  0  0  0  0  0
   -0.7085   -0.1266    0.2167 C   0  0  0  0  0  0  0  0  0  0  0  0
   -0.6868   -1.3696    0.4458 O   0  0  0  0  0  0  0  0  0  0  0  0
   -1.9425    0.5357    0.4747 N   0  0  0  0  0  0  0  0  0  0  0  0
   -3.0144   -0.2530    0.9576 C   0  0  0  0  0  0  0  0  0  0  0  0
   -3.1357   -0.3880    2.3441 C   0  0  0  0  0  0  0  0  0  0  0  0
   -4.1324   -1.1241    2.8722 N   0  0  0  0  0  0  0  0  0  0  0  0
   -5.0408   -1.7511    2.0785 C   0  0  0  0  0  0  0  0  0  0  0  0
   -4.9308   -1.6243    0.6930 C   0  0  0  0  0  0  0  0  0  0  0  0
   -5.8720   -2.2758   -0.0767 C   0  0  0  0  0  0  0  0  0  0  0  0
   -5.7639   -2.1504   -1.4594 C   0  0  0  0  0  0  0  0  0  0  0  0
   -4.7460   -1.3978   -2.0230 C   0  0  0  0  0  0  0  0  0  0  0  0
   -3.8000   -0.7432   -1.2441 C   0  0  0  0  0  0  0  0  0  0  0  0
   -3.9274   -0.8821    0.1288 C   0  0  0  0  0  0  0  0  0  0  0  0
    0.3083    1.9593   -0.4951 C   0  0  0  0  0  0  0  0  0  0  0  0
   -0.0928    2.3531   -1.7641 C   0  0  0  0  0  0  0  0  0  0  0  0
   -0.2716    3.6732   -2.1173 C   0  0  0  0  0  0  0  0  0  0  0  0
   -0.0524    4.6681   -1.1990 C   0  0  0  0  0  0  0  0  0  0  0  0
    0.3455    4.2914    0.0627 C   0  0  0  0  0  0  0  0  0  0  0  0
    0.6307    5.5455    1.2495 Cl  0  0  0  0  0  0  0  0  0  0  0  0
    0.5260    2.9509    0.4179 C   0  0  0  0  0  0  0  0  0  0  0  0
    3.7927   -1.1197    0.2631 C   0  0  0  0  0  0  0  0  0  0  0  0
    4.0213   -1.5680   -0.8994 O   0  0  0  0  0  0  0  0  0  0  0  0
    4.7903   -1.3796    1.2390 N   0  0  0  0  0  0  0  0  0  0  0  0
    5.9594   -2.1377    0.7656 C   0  0  0  0  0  0  0  0  0  0  0  0
    6.6892   -1.4439   -0.3369 C   0  0  0  0  0  0  0  0  0  0  0  0
  1  2  2  0
  2  3  1  0
  3  4  1  0
  4  5  1  0
  5  6  2  0
  5  7  1  0
  7  8  1  0
  8  9  2  0
  9 10  1  0
 10 11  2  0
 11 12  1  0
 12 13  2  0
 13 14  1  0
 14 15  2  0
 15 16  1  0
 16 17  2  0
  4 18  1  0
 18 19  2  0
 19 20  1  0
 20 21  2  0
 21 22  1  0
 22 23  1  0
 22 24  2  0
  2 25  1  0
 25 26  2  0
 25 27  1  0
 27 28  1  0
 28 29  1  0
 17  8  1  0
 24 18  1  0
 17 12  1  0
M  END
$$$$

     RDKit          3D

 32 35  0  0  0  0  0  0  0  0999 V2000
    7.4640    0.0080    0.2194 C   0  0  0  0  0  0  0  0  0  0  0  0
    6.5347   -0.3970    1.3635 C   0  0  0  0  0  0  0  0  0  0  0  0
    5.1941   -0.7718    0.8288 C   0  0  0  0  0  0  0  0  0  0  0  0
    4.9520   -0.7124   -0.4164 O   0  0  0  0  0  0  0  0  0  0  0  0
    4.1601   -1.2035    1.7039 N   0  0  0  0  0  0  0  0  0  0  0  0
    2.9128   -1.5387    1.0896 C   0  0  0  0  0  0  0  0  0  0  0  0
    2.7403   -2.8315    0.6811 C   0  0  0  0  0  0  0  0  0  0  0  0
    1.5454   -3.1522    0.0892 C   0  0  0  0  0  0  0  0  0  0  0  0
    0.5524   -2.1835   -0.0822 C   0  0  0  0  0  0  0  0  0  0  0  0
    0.6950   -0.8752    0.3186 C   0  0  0  0  0  0  0  0  0  0  0  0
   -0.3004    0.1229    0.2044 N   0  0  0  0  0  0  0  0  0  0  0  0
    0.1330    1.5236    0.4155 C   0  0  0  0  0  0  0  0  0  0  0  0
    0.6341    2.1657   -0.8181 C   0  0  0  0  0  0  0  0  0  0  0  0
    1.9492    2.1109   -1.2332 C   0  0  0  0  0  0  0  0  0  0  0  0
    2.3908    2.7398   -2.4042 C   0  0  0  0  0  0  0  0  0  0  0  0
    1.5288    3.4454   -3.1987 C   0  0  0  0  0  0  0  0  0  0  0  0
    0.2148    3.5129   -2.8034 C   0  0  0  0  0  0  0  0  0  0  0  0
   -0.2239    2.8947   -1.6505 C   0  0  0  0  0  0  0  0  0  0  0  0
   -1.6526   -0.0456   -0.1192 C   0  0  0  0  0  0  0  0  0  0  0  0
   -2.3819    1.0296   -0.0742 O   0  0  0  0  0  0  0  0  0  0  0  0
   -2.4100   -1.2329   -0.5050 C   0  0  0  0  0  0  0  0  0  0  0  0
   -3.8704   -0.8831   -0.7028 C   0  0  0  0  0  0  0  0  0  0  0  0
   -4.4360   -0.7563   -1.9397 C   0  0  0  0  0  0  0  0  0  0  0  0
   -5.7207   -0.4492   -2.0877 N   0  0  0  0  0  0  0  0  0  0  0  0
   -6.5649   -0.2393   -1.0615 C   0  0  0  0  0  0  0  0  0  0  0  0
   -6.0383   -0.3563    0.2122 C   0  0  0  0  0  0  0  0  0  0  0  0
   -6.8758   -0.1473    1.2930 C   0  0  0  0  0  0  0  0  0  0  0  0
   -6.3645   -0.2603    2.5722 C   0  0  0  0  0  0  0  0  0  0  0  0
   -5.0317   -0.5786    2.7509 C   0  0  0  0  0  0  0  0  0  0  0  0
   -4.1928   -0.7879    1.6856 C   0  0  0  0  0  0  0  0  0  0  0  0
   -4.6921   -0.6779    0.4045 C   0  0  0  0  0  0  0  0  0  0  0  0
    1.9310   -0.5858    0.9194 C   0  0  0  0  0  0  0  0  0  0  0  0
  1  2  1  0
  2  3  1  0
  3  4  2  0
  3  5  1  0
  5  6  1  0
  6  7  2  0
  7  8  1  0
  8  9  2  0
  9 10  1  0
 10 11  1  0
 11 12  1  0
 12 13  1  0
 13 14  2  0
 14 15  1  0
 15 16  2  0
 16 17  1  0
 17 18  2  0
 11 19  1  0
 19 20  2  0
 19 21  1  0
 21 22  1  0
 22 23  2  0
 23 24  1  0
 24 25  2  0
 25 26  1  0
 26 27  2  0
 27 28  1  0
 28 29  2  0
 29 30  1  0
 30 31  2  0
 10 32  2  0
 32  6  1  0
 18 13  1  0
 31 22  1  0
 31 26  1  0
M  END
$$$$

     RDKit          3D

 34 38  0  0  0  0  0  0  0  0999 V2000
    7.7547    2.3721   -0.7918 C   0  0  0  0  0  0  0  0  0  0  0  0
    6.6844    1.3741   -1.2139 C   0  0  0  0  0  0  0  0  0  0  0  0
    5.6538    1.3878   -0.2032 N   0  0  0  0  0  0  0  0  0  0  0  0
    4.5063    0.5267   -0.3520 C   0  0  0  0  0  0  0  0  0  0  0  0
    4.3792   -0.2397   -1.3441 O   0  0  0  0  0  0  0  0  0  0  0  0
    3.4471    0.5710    0.7307 C   0  0  0  0  0  0  0  0  0  0  0  0
    2.4353   -0.3821    0.3178 N   0  0  0  0  0  0  0  0  0  0  0  0
    1.3032   -0.0403   -0.5220 C   0  0  0  0  0  0  0  0  0  0  0  0
    0.0505   -0.4874    0.1378 C   0  0  2  0  0  0  0  0  0  0  0  0
   -1.1900   -0.2460   -0.6480 C   0  0  0  0  0  0  0  0  0  0  0  0
   -1.3799   -0.5655   -1.8511 O   0  0  0  0  0  0  0  0  0  0  0  0
   -2.1627    0.4211    0.1870 N   0  0  0  0  0  0  0  0  0  0  0  0
   -3.2896    1.1900   -0.2433 C   0  0  0  0  0  0  0  0  0  0  0  0
   -3.1446    2.5649   -0.4704 C   0  0  0  0  0  0  0  0  0  0  0  0
   -4.1865    3.3240   -0.8772 N   0  0  0  0  0  0  0  0  0  0  0  0
   -5.4016    2.7894   -1.0795 C   0  0  0  0  0  0  0  0  0  0  0  0
   -5.6131    1.4428   -0.8743 C   0  0  0  0  0  0  0  0  0  0  0  0
   -6.8454    0.8645   -1.0710 C   0  0  0  0  0  0  0  0  0  0  0  0
   -7.0711   -0.4831   -0.8674 C   0  0  0  0  0  0  0  0  0  0  0  0
   -6.0084   -1.2451   -0.4546 C   0  0  0  0  0  0  0  0  0  0  0  0
   -4.7751   -0.6625   -0.2586 C   0  0  0  0  0  0  0  0  0  0  0  0
   -4.5324    0.6737   -0.4558 C   0  0  0  0  0  0  0  0  0  0  0  0
   -1.7336    0.1421    1.5412 C   0  0  0  0  0  0  0  0  0  0  0  0
   -0.2136    0.3292    1.3657 C   0  0  2  0  0  0  0  0  0  0  0  0
   -0.0343    1.7944    1.0973 C   0  0  0  0  0  0  0  0  0  0  0  0
    0.1703   -1.9481    0.4677 C   0  0  0  0  0  0  0  0  0  0  0  0
   -0.9471   -2.7805    0.4825 C   0  0  0  0  0  0  0  0  0  0  0  0
   -0.8361   -4.1295    0.8281 C   0  0  0  0  0  0  0  0  0  0  0  0
   -2.2610   -5.1629    0.8410 Cl  0  0  0  0  0  0  0  0  0  0  0  0
    0.3856   -4.6713    1.1632 C   0  0  0  0  0  0  0  0  0  0  0  0
    1.4987   -3.8655    1.1523 C   0  0  0  0  0  0  0  0  0  0  0  0
    1.3611   -2.5414    0.8075 C   0  0  0  0  0  0  0  0  0  0  0  0
    2.5696   -1.7350    0.7392 C   0  0  0  0  0  0  0  0  0  0  0  0
    3.6872   -2.2415    1.0483 O   0  0  0  0  0  0  0  0  0  0  0  0
  1  2  1  0
  2  3  1  0
  3  4  1  0
  4  5  2  0
  4  6  1  0
  6  7  1  0
  7  8  1  0
  9  8  1  6
  9 10  1  0
 10 11  2  0
 10 12  1  0
 12 13  1  0
 13 14  2  0
 14 15  1  0
 15 16  2  0
 16 17  1  0
 17 18  2  0
 18 19  1  0
 19 20  2  0
 20 21  1  0
 21 22  2  0
 12 23  1  0
 23 24  1  0
 24 25  1  6
  9 26  1  0
 26 27  2  0
 27 28  1  0
 28 29  1  0
 28 30  2  0
 30 31  1  0
 31 32  2  0
 32 33  1  0
 33 34  2  0
 33  7  1  0
 24  9  1  0
 32 26  1  0
 22 13  1  0
 22 17  1  0
M  END
$$$$

     RDKit          3D

 24 27  0  0  0  0  0  0  0  0999 V2000
    1.2395    1.3159   -2.9884 C   0  0  0  0  0  0  0  0  0  0  0  0
    0.5968    0.3521   -2.1150 N   0  0  0  0  0  0  0  0  0  0  0  0
    1.2371   -0.5626   -1.3673 C   0  0  0  0  0  0  0  0  0  0  0  0
    2.6938   -0.8285   -1.2323 C   0  0  0  0  0  0  0  0  0  0  0  0
    3.2948   -0.0323   -0.1467 C   0  0  0  0  0  0  0  0  0  0  0  0
    3.8327    1.2268   -0.3162 C   0  0  0  0  0  0  0  0  0  0  0  0
    4.3778    1.8959    0.7799 C   0  0  0  0  0  0  0  0  0  0  0  0
    4.3818    1.3010    2.0406 C   0  0  0  0  0  0  0  0  0  0  0  0
    3.8436    0.0385    2.2159 C   0  0  0  0  0  0  0  0  0  0  0  0
    3.3085   -0.6091    1.1208 C   0  0  0  0  0  0  0  0  0  0  0  0
    0.3116   -1.2754   -0.6921 N   0  0  0  0  0  0  0  0  0  0  0  0
   -0.8993   -0.8297   -0.9981 N   0  0  0  0  0  0  0  0  0  0  0  0
   -2.0969   -1.3720   -0.4525 C   0  0  0  0  0  0  0  0  0  0  0  0
   -2.5591   -2.6334   -0.7631 C   0  0  0  0  0  0  0  0  0  0  0  0
   -3.7127   -3.1095   -0.2146 N   0  0  0  0  0  0  0  0  0  0  0  0
   -4.4209   -2.3540    0.6412 C   0  0  0  0  0  0  0  0  0  0  0  0
   -3.9899   -1.0727    0.9829 C   0  0  0  0  0  0  0  0  0  0  0  0
   -4.7336   -0.2975    1.8726 C   0  0  0  0  0  0  0  0  0  0  0  0
   -4.2843    0.9806    2.2004 C   0  0  0  0  0  0  0  0  0  0  0  0
   -3.1156    1.4817    1.6539 C   0  0  0  0  0  0  0  0  0  0  0  0
   -2.3886    0.6961    0.7704 C   0  0  0  0  0  0  0  0  0  0  0  0
   -2.8102   -0.5809    0.4245 C   0  0  0  0  0  0  0  0  0  0  0  0
   -0.7123    0.1608   -1.8650 C   0  0  0  0  0  0  0  0  0  0  0  0
   -1.6500    0.8309   -2.3823 O   0  0  0  0  0  0  0  0  0  0  0  0
  1  2  1  0
  2  3  1  0
  3  4  1  0
  4  5  1  0
  5  6  2  0
  6  7  1  0
  7  8  2  0
  8  9  1  0
  9 10  2  0
  3 11  2  0
 11 12  1  0
 12 13  1  0
 13 14  2  0
 14 15  1  0
 15 16  2  0
 16 17  1  0
 17 18  2  0
 18 19  1  0
 19 20  2  0
 20 21  1  0
 21 22  2  0
 12 23  1  0
 23 24  2  0
 23  2  1  0
 10  5  1  0
 22 13  1  0
 22 17  1  0
M  END
$$$$

     RDKit          3D

 36 41  0  0  0  0  0  0  0  0999 V2000
   -2.2410   -2.1935    3.5451 C   0  0  0  0  0  0  0  0  0  0  0  0
   -1.0627   -2.7666    3.2228 O   0  0  0  0  0  0  0  0  0  0  0  0
   -0.2403   -2.2569    2.3013 C   0  0  0  0  0  0  0  0  0  0  0  0
   -0.6576   -2.1180    0.8854 C   0  0  1  0  0  0  0  0  0  0  0  0
   -1.8426   -1.2377    0.6767 C   0  0  0  0  0  0  0  0  0  0  0  0
   -1.6702   -0.5797   -0.6322 N   0  0  0  0  0  0  0  0  0  0  0  0
   -2.6985    0.1772   -1.2496 C   0  0  0  0  0  0  0  0  0  0  0  0
   -3.5825   -0.4429   -2.1380 C   0  0  0  0  0  0  0  0  0  0  0  0
   -4.5647    0.2611   -2.7313 N   0  0  0  0  0  0  0  0  0  0  0  0
   -4.7602    1.5755   -2.5173 C   0  0  0  0  0  0  0  0  0  0  0  0
   -3.9163    2.2399   -1.6484 C   0  0  0  0  0  0  0  0  0  0  0  0
   -4.0947    3.6011   -1.4034 C   0  0  0  0  0  0  0  0  0  0  0  0
   -3.2607    4.2634   -0.5389 C   0  0  0  0  0  0  0  0  0  0  0  0
   -2.2609    3.5422    0.0642 C   0  0  0  0  0  0  0  0  0  0  0  0
   -2.0845    2.2105   -0.1739 C   0  0  0  0  0  0  0  0  0  0  0  0
   -2.9062    1.5204   -1.0369 C   0  0  0  0  0  0  0  0  0  0  0  0
   -0.3547   -0.8754   -1.0595 C   0  0  0  0  0  0  0  0  0  0  0  0
    0.0518   -0.5804   -2.2313 O   0  0  0  0  0  0  0  0  0  0  0  0
    0.4288   -1.5444    0.0124 C   0  0  1  0  0  0  0  0  0  0  0  0
    1.1617   -0.4115    0.7175 C   0  0  0  0  0  0  0  0  0  0  0  0
    2.0205    0.2216   -0.2882 N   0  0  0  0  0  0  0  0  0  0  0  0
    1.9193    1.5855   -0.6848 C   0  0  0  0  0  0  0  0  0  0  0  0
    2.7647    2.4890    0.1541 C   0  0  0  0  0  0  0  0  0  0  0  0
    4.0770    2.8370   -0.0978 C   0  0  0  0  0  0  0  0  0  0  0  0
    4.4286    3.6612    0.9119 N   0  0  0  0  0  0  0  0  0  0  0  0
    3.3909    3.8211    1.7522 C   0  0  0  0  0  0  0  0  0  0  0  0
    2.3479    3.0998    1.2969 N   0  0  0  0  0  0  0  0  0  0  0  0
    3.0104   -0.6397   -0.8608 C   0  0  0  0  0  0  0  0  0  0  0  0
    4.1105   -0.1895   -1.2463 O   0  0  0  0  0  0  0  0  0  0  0  0
    2.6372   -2.0580   -0.9562 C   0  0  0  0  0  0  0  0  0  0  0  0
    3.5926   -2.8982   -1.4833 C   0  0  0  0  0  0  0  0  0  0  0  0
    3.3757   -4.2534   -1.6074 C   0  0  0  0  0  0  0  0  0  0  0  0
    2.1553   -4.7264   -1.1780 C   0  0  0  0  0  0  0  0  0  0  0  0
    1.8462   -6.4445   -1.3208 Cl  0  0  0  0  0  0  0  0  0  0  0  0
    1.1813   -3.8705   -0.6412 C   0  0  0  0  0  0  0  0  0  0  0  0
    1.3931   -2.5153   -0.5153 C   0  0  0  0  0  0  0  0  0  0  0  0
  1  2  1  0
  2  3  1  0
  4  3  1  1
  4  5  1  0
  5  6  1  0
  6  7  1  0
  7  8  2  0
  8  9  1  0
  9 10  2  0
 10 11  1  0
 11 12  2  0
 12 13  1  0
 13 14  2  0
 14 15  1  0
 15 16  2  0
  6 17  1  0
 17 18  2  0
 17 19  1  0
 19 20  1  1
 20 21  1  0
 21 22  1  0
 22 23  1  0
 23 24  2  0
 24 25  1  0
 25 26  2  0
 26 27  1  0
 21 28  1  0
 28 29  2  0
 28 30  1  0
 30 31  2  0
 31 32  1  0
 32 33  2  0
 33 34  1  0
 33 35  1  0
 35 36  2  0
 19  4  1  0
 27 23  1  0
 36 30  1  0
 16  7  1  0
 36 19  1  0
 16 11  1  0
M  CHG  1  25   1
M  END
$$$$

     RDKit          3D

 35 40  0  0  0  0  0  0  0  0999 V2000
    0.5134   -1.8369    2.0403 C   0  0  0  0  0  0  0  0  0  0  0  0
   -0.4704   -1.3465    1.0381 C   0  0  1  0  0  0  0  0  0  0  0  0
   -1.2137   -0.1099    1.4070 C   0  0  0  0  0  0  0  0  0  0  0  0
   -1.6712    0.4056    0.1095 N   0  0  0  0  0  0  0  0  0  0  0  0
   -2.5877    1.4933   -0.0048 C   0  0  0  0  0  0  0  0  0  0  0  0
   -2.0598    2.7662   -0.0731 C   0  0  0  0  0  0  0  0  0  0  0  0
   -2.8411    3.8354   -0.1805 N   0  0  0  0  0  0  0  0  0  0  0  0
   -4.1844    3.6546   -0.2226 C   0  0  0  0  0  0  0  0  0  0  0  0
   -4.7504    2.4073   -0.1576 C   0  0  0  0  0  0  0  0  0  0  0  0
   -6.1204    2.2846   -0.2048 C   0  0  0  0  0  0  0  0  0  0  0  0
   -6.6765    1.0240   -0.1385 C   0  0  0  0  0  0  0  0  0  0  0  0
   -5.8607   -0.1024   -0.0256 C   0  0  0  0  0  0  0  0  0  0  0  0
   -4.4791    0.0234    0.0219 C   0  0  0  0  0  0  0  0  0  0  0  0
   -3.9627    1.3033   -0.0475 C   0  0  0  0  0  0  0  0  0  0  0  0
   -1.0562   -0.3490   -0.9381 C   0  0  0  0  0  0  0  0  0  0  0  0
   -1.4768   -0.4251   -2.1138 O   0  0  0  0  0  0  0  0  0  0  0  0
    0.1360   -0.9779   -0.3039 C   0  0  1  0  0  0  0  0  0  0  0  0
    1.1699    0.1038   -0.1829 C   0  0  0  0  0  0  0  0  0  0  0  0
    2.4893   -0.3808    0.1527 N   0  0  0  0  0  0  0  0  0  0  0  0
    3.3255    0.3027    1.1311 C   0  0  0  0  0  0  0  0  0  0  0  0
    4.1779    1.3278    0.5210 C   0  0  0  0  0  0  0  0  0  0  0  0
    5.4131    0.9551    0.0886 N   0  0  0  0  0  0  0  0  0  0  0  0
    6.2584    1.8201   -0.4795 C   0  0  0  0  0  0  0  0  0  0  0  0
    5.8742    3.1244   -0.6338 C   0  0  0  0  0  0  0  0  0  0  0  0
    4.6249    3.5294   -0.2032 C   0  0  0  0  0  0  0  0  0  0  0  0
    3.8122    2.6125    0.3637 N   0  0  0  0  0  0  0  0  0  0  0  0
    2.9408   -1.5537   -0.5107 C   0  0  0  0  0  0  0  0  0  0  0  0
    4.1824   -1.7779   -0.5844 O   0  0  0  0  0  0  0  0  0  0  0  0
    1.9492   -2.4647   -1.0878 C   0  0  0  0  0  0  0  0  0  0  0  0
    2.4460   -3.5906   -1.7217 C   0  0  0  0  0  0  0  0  0  0  0  0
    1.5314   -4.4725   -2.2783 C   0  0  0  0  0  0  0  0  0  0  0  0
    0.1776   -4.2277   -2.1977 C   0  0  0  0  0  0  0  0  0  0  0  0
   -0.6898   -5.1166   -2.7562 F   0  0  0  0  0  0  0  0  0  0  0  0
   -0.2732   -3.0769   -1.5472 C   0  0  0  0  0  0  0  0  0  0  0  0
    0.6003   -2.1926   -0.9911 C   0  0  0  0  0  0  0  0  0  0  0  0
  2  1  1  1
  2  3  1  0
  3  4  1  0
  4  5  1  0
  5  6  2  0
  6  7  1  0
  7  8  2  0
  8  9  1  0
  9 10  2  0
 10 11  1  0
 11 12  2  0
 12 13  1  0
 13 14  2  0
  4 15  1  0
 15 16  2  0
 15 17  1  0
 17 18  1  1
 18 19  1  0
 19 20  1  0
 20 21  1  0
 21 22  2  0
 22 23  1  0
 23 24  2  0
 24 25  1  0
 25 26  2  0
 19 27  1  0
 27 28  2  0
 27 29  1  0
 29 30  2  0
 30 31  1  0
 31 32  2  0
 32 33  1  0
 32 34  1  0
 34 35  2  0
 17  2  1  0
 26 21  1  0
 35 29  1  0
 14  5  1  0
 35 17  1  0
 14  9  1  0
M  END
$$$$

     RDKit          3D

 34 38  0  0  0  0  0  0  0  0999 V2000
   -5.3400    4.3545    0.7868 C   0  0  0  0  0  0  0  0  0  0  0  0
   -4.7763    3.4396   -0.2122 N   0  0  0  0  0  0  0  0  0  0  0  0
   -4.0191    2.3497    0.3086 C   0  0  0  0  0  0  0  0  0  0  0  0
   -3.8533    2.1951    1.5488 O   0  0  0  0  0  0  0  0  0  0  0  0
   -3.4394    1.4104   -0.6997 C   0  0  0  0  0  0  0  0  0  0  0  0
   -2.6907    0.3391   -0.0969 N   0  0  0  0  0  0  0  0  0  0  0  0
   -1.2700    0.4316    0.1828 C   0  0  0  0  0  0  0  0  0  0  0  0
   -0.4782   -0.7881   -0.1380 C   0  0  2  0  0  0  0  0  0  0  0  0
    0.7522   -0.7526    0.7252 C   0  0  0  0  0  0  0  0  0  0  0  0
    0.9988   -1.4000    1.7673 O   0  0  0  0  0  0  0  0  0  0  0  0
    1.6038    0.1896    0.1042 N   0  0  0  0  0  0  0  0  0  0  0  0
    2.6701    0.9268    0.6899 C   0  0  0  0  0  0  0  0  0  0  0  0
    2.4017    2.1629    1.2545 C   0  0  0  0  0  0  0  0  0  0  0  0
    3.3607    2.9201    1.8285 N   0  0  0  0  0  0  0  0  0  0  0  0
    4.6533    2.5047    1.8830 C   0  0  0  0  0  0  0  0  0  0  0  0
    4.9411    1.2752    1.3256 C   0  0  0  0  0  0  0  0  0  0  0  0
    6.2578    0.8550    1.3826 C   0  0  0  0  0  0  0  0  0  0  0  0
    6.5775   -0.3707    0.8336 C   0  0  0  0  0  0  0  0  0  0  0  0
    5.6089   -1.1594    0.2419 C   0  0  0  0  0  0  0  0  0  0  0  0
    4.2864   -0.7385    0.1841 C   0  0  0  0  0  0  0  0  0  0  0  0
    3.9718    0.4790    0.7299 C   0  0  0  0  0  0  0  0  0  0  0  0
    1.2307    0.3184   -1.2917 C   0  0  0  0  0  0  0  0  0  0  0  0
    0.0901   -0.6625   -1.4871 C   0  0  0  0  0  0  0  0  0  0  0  0
    0.7092   -1.9239   -2.0341 C   0  0  0  0  0  0  0  0  0  0  0  0
   -0.8280   -0.0034   -2.5074 C   0  0  0  0  0  0  0  0  0  0  0  0
   -1.1929   -2.0107    0.2123 C   0  0  0  0  0  0  0  0  0  0  0  0
   -0.5126   -3.2184    0.3844 C   0  0  0  0  0  0  0  0  0  0  0  0
   -1.1662   -4.3871    0.7148 C   0  0  0  0  0  0  0  0  0  0  0  0
   -0.2685   -5.8786    0.9201 Cl  0  0  0  0  0  0  0  0  0  0  0  0
   -2.5344   -4.4240    0.8936 C   0  0  0  0  0  0  0  0  0  0  0  0
   -3.2231   -3.2402    0.7277 C   0  0  0  0  0  0  0  0  0  0  0  0
   -2.5676   -2.0810    0.3991 C   0  0  0  0  0  0  0  0  0  0  0  0
   -3.3707   -0.8708    0.2438 C   0  0  0  0  0  0  0  0  0  0  0  0
   -4.6071   -0.8947    0.4034 O   0  0  0  0  0  0  0  0  0  0  0  0
  1  2  1  0
  2  3  1  0
  3  4  2  0
  3  5  1  0
  5  6  1  0
  6  7  1  0
  8  7  1  1
  8  9  1  0
  9 10  2  0
  9 11  1  0
 11 12  1  0
 12 13  2  0
 13 14  1  0
 14 15  2  0
 15 16  1  0
 16 17  2  0
 17 18  1  0
 18 19  2  0
 19 20  1  0
 20 21  2  0
 11 22  1  0
 22 23  1  0
 23 24  1  0
 23 25  1  0
  8 26  1  0
 26 27  2  0
 27 28  1  0
 28 29  1  0
 28 30  2  0
 30 31  1  0
 31 32  2  0
 32 33  1  0
 33 34  2  0
 33  6  1  0
 23  8  1  0
 32 26  1  0
 21 12  1  0
 21 16  1  0
M  END
$$$$

     RDKit          3D

 26 29  0  0  0  0  0  0  0  0999 V2000
   -4.2375    3.0168    0.7662 C   0  0  0  0  0  0  0  0  0  0  0  0
   -3.3057    1.9008    0.8334 N   0  0  0  0  0  0  0  0  0  0  0  0
   -1.9128    2.0048    0.5378 C   0  0  0  0  0  0  0  0  0  0  0  0
   -1.5805    1.0316   -0.6027 C   0  0  1  0  0  0  0  0  0  0  0  0
   -0.0867    1.0562   -0.8259 C   0  0  0  0  0  0  0  0  0  0  0  0
    0.4027    1.3218   -1.9571 O   0  0  0  0  0  0  0  0  0  0  0  0
    0.8270    0.7846    0.2296 N   0  0  0  0  0  0  0  0  0  0  0  0
    2.2359    0.8020    0.0764 C   0  0  0  0  0  0  0  0  0  0  0  0
    2.8974    2.0232    0.2508 C   0  0  0  0  0  0  0  0  0  0  0  0
    4.2200    2.1373    0.1282 N   0  0  0  0  0  0  0  0  0  0  0  0
    4.9434    1.0652   -0.1685 C   0  0  0  0  0  0  0  0  0  0  0  0
    4.3806   -0.1831   -0.3590 C   0  0  0  0  0  0  0  0  0  0  0  0
    5.1181   -1.3060   -0.6642 C   0  0  0  0  0  0  0  0  0  0  0  0
    4.5240   -2.5573   -0.8481 C   0  0  0  0  0  0  0  0  0  0  0  0
    3.1455   -2.6346   -0.7113 C   0  0  0  0  0  0  0  0  0  0  0  0
    2.4296   -1.5056   -0.4074 C   0  0  0  0  0  0  0  0  0  0  0  0
    3.0143   -0.2737   -0.2268 C   0  0  0  0  0  0  0  0  0  0  0  0
   -2.0897   -0.2831   -0.2303 C   0  0  0  0  0  0  0  0  0  0  0  0
   -1.4785   -1.4090   -0.7884 C   0  0  0  0  0  0  0  0  0  0  0  0
   -1.8826   -2.6883   -0.4985 C   0  0  0  0  0  0  0  0  0  0  0  0
   -1.0486   -4.0423   -1.2524 Cl  0  0  0  0  0  0  0  0  0  0  0  0
   -2.9318   -2.8828    0.3760 C   0  0  0  0  0  0  0  0  0  0  0  0
   -3.5665   -1.8072    0.9511 C   0  0  0  0  0  0  0  0  0  0  0  0
   -3.1299   -0.5380    0.6333 C   0  0  0  0  0  0  0  0  0  0  0  0
   -3.8049    0.6120    1.2227 C   0  0  0  0  0  0  0  0  0  0  0  0
   -4.7715    0.5096    2.0282 O   0  0  0  0  0  0  0  0  0  0  0  0
  1  2  1  0
  2  3  1  0
  3  4  1  0
  4  5  1  1
  5  6  2  0
  5  7  1  0
  7  8  1  0
  8  9  2  0
  9 10  1  0
 10 11  2  0
 11 12  1  0
 12 13  2  0
 13 14  1  0
 14 15  2  0
 15 16  1  0
 16 17  2  0
  4 18  1  0
 18 19  2  0
 19 20  1  0
 20 21  1  0
 20 22  2  0
 22 23  1  0
 23 24  2  0
 24 25  1  0
 25 26  2  0
 25  2  1  0
 17  8  1  0
 24 18  1  0
 17 12  1  0
M  END
$$$$

     RDKit          3D

 38 43  0  0  0  0  0  0  0  0999 V2000
   -2.3550    3.8762    1.2817 C   0  0  0  0  0  0  0  0  0  0  0  0
   -2.3263    2.8774    0.2294 N   0  0  0  0  0  0  0  0  0  0  0  0
   -2.4597    3.1864   -1.1468 C   0  0  0  0  0  0  0  0  0  0  0  0
   -2.6119    4.4027   -1.4496 O   0  0  0  0  0  0  0  0  0  0  0  0
   -2.4350    2.2054   -2.2405 C   0  0  0  0  0  0  0  0  0  0  0  0
   -2.2449    0.8278   -1.7675 N   0  0  0  0  0  0  0  0  0  0  0  0
   -0.9049    0.3485   -1.6842 C   0  0  0  0  0  0  0  0  0  0  0  0
   -0.7346   -0.8178   -0.8066 C   0  0  2  0  0  0  0  0  0  0  0  0
   -0.2208   -0.2498    0.5204 C   0  0  0  0  0  0  0  0  0  0  0  0
   -0.8324   -0.1840    1.6032 O   0  0  0  0  0  0  0  0  0  0  0  0
    1.1044    0.1649    0.1771 N   0  0  0  0  0  0  0  0  0  0  0  0
    1.8345    1.1553    0.9032 C   0  0  0  0  0  0  0  0  0  0  0  0
    1.7448    2.5032    0.5510 C   0  0  0  0  0  0  0  0  0  0  0  0
    2.4166    3.4620    1.2107 N   0  0  0  0  0  0  0  0  0  0  0  0
    3.2142    3.1965    2.2450 C   0  0  0  0  0  0  0  0  0  0  0  0
    3.3278    1.8605    2.6245 C   0  0  0  0  0  0  0  0  0  0  0  0
    4.1544    1.5958    3.6946 C   0  0  0  0  0  0  0  0  0  0  0  0
    4.2726    0.2737    4.0772 C   0  0  0  0  0  0  0  0  0  0  0  0
    3.6090   -0.7519    3.4398 C   0  0  0  0  0  0  0  0  0  0  0  0
    2.7865   -0.4611    2.3702 C   0  0  0  0  0  0  0  0  0  0  0  0
    2.6521    0.8511    1.9691 C   0  0  0  0  0  0  0  0  0  0  0  0
    1.5640   -0.5683   -0.9938 C   0  0  0  0  0  0  0  0  0  0  0  0
    0.4778   -1.6570   -1.1511 C   0  0  2  0  0  0  0  0  0  0  0  0
    0.5580   -2.1590   -2.5417 C   0  0  0  0  0  0  0  0  0  0  0  0
    1.8336   -2.9720   -2.6531 C   0  0  0  0  0  0  0  0  0  0  0  0
    3.0524   -2.5330   -2.9985 N   0  0  0  0  0  0  0  0  0  0  0  0
    3.8763   -3.5870   -2.9663 N   0  0  0  0  0  0  0  0  0  0  0  0
    3.2151   -4.6687   -2.6131 N   0  0  0  0  0  0  0  0  0  0  0  0
    1.9794   -4.2894   -2.4251 N   0  0  0  0  0  0  0  0  0  0  0  0
   -1.9428   -1.5390   -0.4902 C   0  0  0  0  0  0  0  0  0  0  0  0
   -1.8307   -2.7600    0.1787 C   0  0  0  0  0  0  0  0  0  0  0  0
   -2.9698   -3.5043    0.5126 C   0  0  0  0  0  0  0  0  0  0  0  0
   -2.8143   -5.0447    1.3570 Cl  0  0  0  0  0  0  0  0  0  0  0  0
   -4.2415   -3.0807    0.2054 C   0  0  0  0  0  0  0  0  0  0  0  0
   -4.3573   -1.8793   -0.4527 C   0  0  0  0  0  0  0  0  0  0  0  0
   -3.2413   -1.1635   -0.7724 C   0  0  0  0  0  0  0  0  0  0  0  0
   -3.4203    0.1071   -1.4592 C   0  0  0  0  0  0  0  0  0  0  0  0
   -4.5436    0.5493   -1.7656 O   0  0  0  0  0  0  0  0  0  0  0  0
  1  2  1  0
  2  3  1  0
  3  4  2  0
  3  5  1  0
  5  6  1  0
  6  7  1  0
  8  7  1  6
  8  9  1  0
  9 10  2  0
  9 11  1  0
 11 12  1  0
 12 13  2  0
 13 14  1  0
 14 15  2  0
 15 16  1  0
 16 17  2  0
 17 18  1  0
 18 19  2  0
 19 20  1  0
 20 21  2  0
 11 22  1  0
 22 23  1  0
 23 24  1  6
 24 25  1  0
 25 26  1  0
 26 27  2  0
 27 28  1  0
 28 29  1  0
  8 30  1  0
 30 31  2  0
 31 32  1  0
 32 33  1  0
 32 34  2  0
 34 35  1  0
 35 36  2  0
 36 37  1  0
 37 38  2  0
 37  6  1  0
 23  8  1  0
 29 25  2  0
 36 30  1  0
 21 12  1  0
 21 16  1  0
M  CHG  1  28  -1
M  END
$$$$

     RDKit          3D

 36 41  0  0  0  0  0  0  0  0999 V2000
    3.0943   -2.3717    0.6453 C   0  0  0  0  0  0  0  0  0  0  0  0
    4.1979   -1.8920   -0.2718 C   0  0  0  0  0  0  0  0  0  0  0  0
    4.8787   -0.7875    0.3737 N   0  0  0  0  0  0  0  0  0  0  0  0
    5.9212   -0.9390    1.1786 N   0  0  0  0  0  0  0  0  0  0  0  0
    6.3346    0.2631    1.6240 C   0  0  0  0  0  0  0  0  0  0  0  0
    5.4740    1.1833    1.0391 C   0  0  0  0  0  0  0  0  0  0  0  0
    4.5500    0.5000    0.2438 C   0  0  0  0  0  0  0  0  0  0  0  0
    3.4898    1.1625   -0.5254 C   0  0  0  0  0  0  0  0  0  0  0  0
    2.2487    1.3402    0.1858 N   0  0  0  0  0  0  0  0  0  0  0  0
    1.1685    0.3821    0.1925 C   0  0  0  0  0  0  0  0  0  0  0  0
   -0.1883    0.9810    0.0174 C   0  0  2  0  0  0  0  0  0  0  0  0
   -1.2301    0.0336    0.5017 C   0  0  0  0  0  0  0  0  0  0  0  0
   -1.3226   -0.3604    1.6924 O   0  0  0  0  0  0  0  0  0  0  0  0
   -2.0714   -0.3335   -0.5822 N   0  0  0  0  0  0  0  0  0  0  0  0
   -3.4101   -0.8179   -0.4671 C   0  0  0  0  0  0  0  0  0  0  0  0
   -4.4591    0.1006   -0.4753 C   0  0  0  0  0  0  0  0  0  0  0  0
   -5.7482   -0.3158   -0.3684 N   0  0  0  0  0  0  0  0  0  0  0  0
   -5.9909   -1.6332   -0.2544 C   0  0  0  0  0  0  0  0  0  0  0  0
   -4.9742   -2.5635   -0.2434 C   0  0  0  0  0  0  0  0  0  0  0  0
   -5.2953   -3.9000   -0.1234 C   0  0  0  0  0  0  0  0  0  0  0  0
   -4.2542   -4.8057   -0.1157 C   0  0  0  0  0  0  0  0  0  0  0  0
   -2.9315   -4.4136   -0.2228 C   0  0  0  0  0  0  0  0  0  0  0  0
   -2.6067   -3.0720   -0.3434 C   0  0  0  0  0  0  0  0  0  0  0  0
   -3.6520   -2.1660   -0.3509 C   0  0  0  0  0  0  0  0  0  0  0  0
   -1.2991   -0.1157   -1.7902 C   0  0  0  0  0  0  0  0  0  0  0  0
   -0.5878    1.1867   -1.4128 C   0  0  2  0  0  0  0  0  0  0  0  0
    0.5611    1.3209   -2.3641 C   0  0  0  0  0  0  0  0  0  0  0  0
   -0.3928    2.2217    0.8097 C   0  0  0  0  0  0  0  0  0  0  0  0
   -1.6867    2.6335    1.1031 C   0  0  0  0  0  0  0  0  0  0  0  0
   -1.9406    3.7807    1.8370 C   0  0  0  0  0  0  0  0  0  0  0  0
   -3.1837    4.2002    2.1339 F   0  0  0  0  0  0  0  0  0  0  0  0
   -0.8675    4.5504    2.2985 C   0  0  0  0  0  0  0  0  0  0  0  0
    0.4218    4.1378    2.0048 C   0  0  0  0  0  0  0  0  0  0  0  0
    0.6573    2.9883    1.2699 C   0  0  0  0  0  0  0  0  0  0  0  0
    2.0297    2.5423    0.9533 C   0  0  0  0  0  0  0  0  0  0  0  0
    3.0008    3.2295    1.3648 O   0  0  0  0  0  0  0  0  0  0  0  0
  1  2  1  0
  2  3  1  0
  3  4  1  0
  4  5  2  0
  5  6  1  0
  6  7  2  0
  7  8  1  0
  8  9  1  0
  9 10  1  0
 11 10  1  6
 11 12  1  0
 12 13  2  0
 12 14  1  0
 14 15  1  0
 15 16  2  0
 16 17  1  0
 17 18  2  0
 18 19  1  0
 19 20  2  0
 20 21  1  0
 21 22  2  0
 22 23  1  0
 23 24  2  0
 14 25  1  0
 25 26  1  0
 26 27  1  6
 11 28  1  0
 28 29  2  0
 29 30  1  0
 30 31  1  0
 30 32  2  0
 32 33  1  0
 33 34  2  0
 34 35  1  0
 35 36  2  0
  7  3  1  0
 35  9  1  0
 26 11  1  0
 34 28  1  0
 24 15  1  0
 24 19  1  0
M  END
$$$$

     RDKit          3D

 22 25  0  0  0  0  0  0  0  0999 V2000
    1.2669    0.7134   -1.4013 O   0  0  0  0  0  0  0  0  0  0  0  0
    0.5663   -0.0404   -0.6700 C   0  0  0  0  0  0  0  0  0  0  0  0
    1.2412   -1.2329   -0.1036 C   0  0  0  0  0  0  0  0  0  0  0  0
    2.6465   -1.3012   -0.5180 C   0  0  0  0  0  0  0  0  0  0  0  0
    3.0168   -2.2011   -1.5122 C   0  0  0  0  0  0  0  0  0  0  0  0
    4.2983   -2.3083   -1.9357 N   0  0  0  0  0  0  0  0  0  0  0  0
    5.2952   -1.5619   -1.4326 C   0  0  0  0  0  0  0  0  0  0  0  0
    4.9685   -0.6501   -0.4373 C   0  0  0  0  0  0  0  0  0  0  0  0
    5.9962    0.1091    0.0737 C   0  0  0  0  0  0  0  0  0  0  0  0
    5.6933    1.0179    1.0631 C   0  0  0  0  0  0  0  0  0  0  0  0
    4.3867    1.1393    1.5072 C   0  0  0  0  0  0  0  0  0  0  0  0
    3.3503    0.3821    1.0001 C   0  0  0  0  0  0  0  0  0  0  0  0
    3.6561   -0.5279    0.0090 C   0  0  0  0  0  0  0  0  0  0  0  0
   -0.8147    0.2359   -0.3948 N   0  0  0  0  0  0  0  0  0  0  0  0
   -1.5167   -0.6776    0.4428 C   0  0  0  0  0  0  0  0  0  0  0  0
   -2.9602   -0.4488    0.6430 C   0  0  0  0  0  0  0  0  0  0  0  0
   -3.6416    0.5831   -0.1512 C   0  0  0  0  0  0  0  0  0  0  0  0
   -4.7252    1.3125    0.6688 C   0  0  0  0  0  0  0  0  0  0  0  0
   -5.5932    0.0801    0.4059 C   0  0  0  0  0  0  0  0  0  0  0  0
   -4.8307   -0.0238   -0.9207 C   0  0  0  0  0  0  0  0  0  0  0  0
   -2.8631    1.4447   -1.0539 C   0  0  0  0  0  0  0  0  0  0  0  0
   -1.3864    1.4024   -0.9745 C   0  0  0  0  0  0  0  0  0  0  0  0
  1  2  2  0
  2  3  1  0
  3  4  1  0
  4  5  2  0
  5  6  1  0
  6  7  2  0
  7  8  1  0
  8  9  2  0
  9 10  1  0
 10 11  2  0
 11 12  1  0
 12 13  2  0
  2 14  1  0
 14 15  1  0
 15 16  1  0
 16 17  1  0
 17 18  1  0
 18 19  1  0
 19 20  1  0
 17 21  1  0
 21 22  1  0
 13  4  1  0
 22 14  1  0
 13  8  1  0
 20 17  1  0
M  END
$$$$

     RDKit          3D

 22 25  0  0  0  0  0  0  0  0999 V2000
   -1.1678    1.3072    1.2743 O   0  0  0  0  0  0  0  0  0  0  0  0
   -0.7156    0.9250    0.1726 C   0  0  0  0  0  0  0  0  0  0  0  0
   -1.5730    0.7207   -1.0161 C   0  0  0  0  0  0  0  0  0  0  0  0
   -2.9976    1.0225   -0.7431 C   0  0  0  0  0  0  0  0  0  0  0  0
   -3.6260    2.1748   -1.1676 C   0  0  0  0  0  0  0  0  0  0  0  0
   -4.9414    2.3637   -0.8670 N   0  0  0  0  0  0  0  0  0  0  0  0
   -5.6227    1.4425   -0.1663 C   0  0  0  0  0  0  0  0  0  0  0  0
   -5.0525    0.2685    0.2878 C   0  0  0  0  0  0  0  0  0  0  0  0
   -5.7594   -0.6686    1.0059 C   0  0  0  0  0  0  0  0  0  0  0  0
   -5.1522   -1.8405    1.4480 C   0  0  0  0  0  0  0  0  0  0  0  0
   -3.8203   -2.0260    1.1403 C   0  0  0  0  0  0  0  0  0  0  0  0
   -3.1066   -1.0930    0.4226 C   0  0  0  0  0  0  0  0  0  0  0  0
   -3.7112    0.0848   -0.0234 C   0  0  0  0  0  0  0  0  0  0  0  0
    0.6802    0.6836    0.0832 N   0  0  0  0  0  0  0  0  0  0  0  0
    1.5392    0.8862    1.2512 C   0  0  0  0  0  0  0  0  0  0  0  0
    2.9797    0.9039    0.7832 C   0  0  0  0  0  0  0  0  0  0  0  0
    3.4094   -0.4032    0.1863 C   0  0  0  0  0  0  0  0  0  0  0  0
    4.7732   -0.1684   -0.4399 C   0  0  0  0  0  0  0  0  0  0  0  0
    5.4438   -1.3398   -1.1192 C   0  0  0  0  0  0  0  0  0  0  0  0
    5.9887   -0.7988    0.1584 C   0  0  0  0  0  0  0  0  0  0  0  0
    2.3864   -0.8233   -0.8309 C   0  0  0  0  0  0  0  0  0  0  0  0
    1.3433    0.2342   -1.1233 C   0  0  0  0  0  0  0  0  0  0  0  0
  1  2  2  0
  2  3  1  0
  3  4  1  0
  4  5  2  0
  5  6  1  0
  6  7  2  0
  7  8  1  0
  8  9  2  0
  9 10  1  0
 10 11  2  0
 11 12  1  0
 12 13  2  0
  2 14  1  0
 14 15  1  0
 15 16  1  0
 16 17  1  0
 17 18  1  0
 18 19  1  0
 19 20  1  0
 17 21  1  0
 21 22  1  0
 13  4  1  0
 22 14  1  0
 13  8  1  0
 20 18  1  0
M  END
$$$$

     RDKit          3D

 34 38  0  0  0  0  0  0  0  0999 V2000
    5.1295    2.2758    1.2925 C   0  0  0  0  0  0  0  0  0  0  0  0
    4.4082    1.3649    0.4266 N   0  0  0  0  0  0  0  0  0  0  0  0
    4.7365    1.1769   -0.9264 C   0  0  0  0  0  0  0  0  0  0  0  0
    5.7294    1.8691   -1.3593 O   0  0  0  0  0  0  0  0  0  0  0  0
    4.0914    0.2923   -1.8894 C   0  0  0  0  0  0  0  0  0  0  0  0
    2.9388   -0.4586   -1.4201 N   0  0  0  0  0  0  0  0  0  0  0  0
    1.5756   -0.1262   -1.6948 C   0  0  0  0  0  0  0  0  0  0  0  0
    0.6424   -0.3699   -0.5698 C   0  0  2  0  0  0  0  0  0  0  0  0
   -0.7870   -0.4056   -1.0255 C   0  0  0  0  0  0  0  0  0  0  0  0
   -1.2263   -1.1352   -1.9608 O   0  0  0  0  0  0  0  0  0  0  0  0
   -1.5711    0.4901   -0.2625 N   0  0  0  0  0  0  0  0  0  0  0  0
   -2.8856    0.9188   -0.6522 C   0  0  0  0  0  0  0  0  0  0  0  0
   -3.1124    1.9265   -1.5624 C   0  0  0  0  0  0  0  0  0  0  0  0
   -4.3566    2.3366   -1.9176 N   0  0  0  0  0  0  0  0  0  0  0  0
   -5.4502    1.7777   -1.3967 C   0  0  0  0  0  0  0  0  0  0  0  0
   -5.3056    0.7640   -0.4795 C   0  0  0  0  0  0  0  0  0  0  0  0
   -6.4490    0.2137    0.0440 C   0  0  0  0  0  0  0  0  0  0  0  0
   -6.3631   -0.8012    0.9743 C   0  0  0  0  0  0  0  0  0  0  0  0
   -5.1125   -1.2294    1.3477 C   0  0  0  0  0  0  0  0  0  0  0  0
   -3.9756   -0.6687    0.8145 C   0  0  0  0  0  0  0  0  0  0  0  0
   -4.0314    0.3365   -0.1085 C   0  0  0  0  0  0  0  0  0  0  0  0
   -0.8014    0.8028    0.9034 C   0  0  0  0  0  0  0  0  0  0  0  0
    0.6298    0.7071    0.4584 C   0  0  2  0  0  0  0  0  0  0  0  0
    1.0467    2.0486   -0.1636 C   0  0  0  0  0  0  0  0  0  0  0  0
    0.1557    2.3895   -1.1579 O   0  0  0  0  0  0  0  0  0  0  0  0
    0.9783   -1.6686    0.0817 C   0  0  0  0  0  0  0  0  0  0  0  0
    0.0004   -2.3706    0.8059 C   0  0  0  0  0  0  0  0  0  0  0  0
    0.2835   -3.5694    1.4382 C   0  0  0  0  0  0  0  0  0  0  0  0
   -0.9827   -4.4169    2.3407 Cl  0  0  0  0  0  0  0  0  0  0  0  0
    1.5330   -4.1423    1.3944 C   0  0  0  0  0  0  0  0  0  0  0  0
    2.5015   -3.4697    0.6881 C   0  0  0  0  0  0  0  0  0  0  0  0
    2.2091   -2.2700    0.0575 C   0  0  0  0  0  0  0  0  0  0  0  0
    3.2794   -1.6734   -0.7171 C   0  0  0  0  0  0  0  0  0  0  0  0
    4.4221   -2.1749   -0.7747 O   0  0  0  0  0  0  0  0  0  0  0  0
  1  2  1  0
  2  3  1  0
  3  4  2  0
  3  5  1  0
  5  6  1  0
  6  7  1  0
  8  7  1  6
  8  9  1  0
  9 10  2  0
  9 11  1  0
 11 12  1  0
 12 13  2  0
 13 14  1  0
 14 15  2  0
 15 16  1  0
 16 17  2  0
 17 18  1  0
 18 19  2  0
 19 20  1  0
 20 21  2  0
 11 22  1  0
 22 23  1  0
 23 24  1  6
 24 25  1  0
  8 26  1  0
 26 27  2  0
 27 28  1  0
 28 29  1  0
 28 30  2  0
 30 31  1  0
 31 32  2  0
 32 33  1  0
 33 34  2  0
 33  6  1  0
 23  8  1  0
 32 26  1  0
 21 12  1  0
 21 16  1  0
M  END
$$$$

     RDKit          3D

 34 39  0  0  0  0  0  0  0  0999 V2000
    0.5816    0.8957   -2.6439 C   0  0  0  0  0  0  0  0  0  0  0  0
    0.0513    1.5408   -1.3750 C   0  0  1  0  0  0  0  0  0  0  0  0
   -1.4308    1.3443   -1.3772 C   0  0  0  0  0  0  0  0  0  0  0  0
   -1.6339    0.1932   -0.5087 N   0  0  0  0  0  0  0  0  0  0  0  0
   -2.6353   -0.8139   -0.5734 C   0  0  0  0  0  0  0  0  0  0  0  0
   -2.4031   -1.9553   -1.3152 C   0  0  0  0  0  0  0  0  0  0  0  0
   -3.2756   -2.9573   -1.4403 N   0  0  0  0  0  0  0  0  0  0  0  0
   -4.4551   -2.8463   -0.8027 C   0  0  0  0  0  0  0  0  0  0  0  0
   -4.7657   -1.7405   -0.0423 C   0  0  0  0  0  0  0  0  0  0  0  0
   -5.9971   -1.7156    0.5733 C   0  0  0  0  0  0  0  0  0  0  0  0
   -6.2907   -0.5970    1.3327 C   0  0  0  0  0  0  0  0  0  0  0  0
   -5.3710    0.4362    1.4520 C   0  0  0  0  0  0  0  0  0  0  0  0
   -4.1348    0.3898    0.8222 C   0  0  0  0  0  0  0  0  0  0  0  0
   -3.8493   -0.7135    0.0752 C   0  0  0  0  0  0  0  0  0  0  0  0
   -0.6004    0.2570    0.4662 C   0  0  0  0  0  0  0  0  0  0  0  0
   -0.6719   -0.1464    1.6771 O   0  0  0  0  0  0  0  0  0  0  0  0
    0.6223    0.8818   -0.1407 C   0  0  1  0  0  0  0  0  0  0  0  0
    1.5275   -0.2675   -0.4805 C   0  0  0  0  0  0  0  0  0  0  0  0
    2.4962   -0.5792    0.5505 N   0  0  0  0  0  0  0  0  0  0  0  0
    2.9275   -1.9598    0.7568 C   0  0  0  0  0  0  0  0  0  0  0  0
    4.1006   -2.3222   -0.0507 C   0  0  0  0  0  0  0  0  0  0  0  0
    4.0243   -2.8416   -1.2924 N   0  0  0  0  0  0  0  0  0  0  0  0
    5.2761   -3.0512   -1.7321 C   0  0  0  0  0  0  0  0  0  0  0  0
    6.0948   -2.6527   -0.7428 N   0  0  0  0  0  0  0  0  0  0  0  0
    5.4003   -2.2084    0.2829 N   0  0  0  0  0  0  0  0  0  0  0  0
    3.0716    0.4072    1.4011 C   0  0  0  0  0  0  0  0  0  0  0  0
    4.1086    0.1498    2.0274 O   0  0  0  0  0  0  0  0  0  0  0  0
    2.3799    1.6897    1.4783 C   0  0  0  0  0  0  0  0  0  0  0  0
    2.9228    2.6539    2.2978 C   0  0  0  0  0  0  0  0  0  0  0  0
    2.3169    3.8864    2.4161 C   0  0  0  0  0  0  0  0  0  0  0  0
    1.1677    4.1067    1.6931 C   0  0  0  0  0  0  0  0  0  0  0  0
    0.5713    5.3302    1.8140 F   0  0  0  0  0  0  0  0  0  0  0  0
    0.6227    3.1204    0.8622 C   0  0  0  0  0  0  0  0  0  0  0  0
    1.2256    1.8838    0.7399 C   0  0  0  0  0  0  0  0  0  0  0  0
  2  1  1  6
  2  3  1  0
  3  4  1  0
  4  5  1  0
  5  6  2  0
  6  7  1  0
  7  8  2  0
  8  9  1  0
  9 10  2  0
 10 11  1  0
 11 12  2  0
 12 13  1  0
 13 14  2  0
  4 15  1  0
 15 16  2  0
 15 17  1  0
 17 18  1  6
 18 19  1  0
 19 20  1  0
 20 21  1  0
 21 22  1  0
 22 23  2  0
 23 24  1  0
 24 25  1  0
 19 26  1  0
 26 27  2  0
 26 28  1  0
 28 29  2  0
 29 30  1  0
 30 31  2  0
 31 32  1  0
 31 33  1  0
 33 34  2  0
 17  2  1  0
 25 21  2  0
 34 28  1  0
 14  5  1  0
 34 17  1  0
 14  9  1  0
M  END
$$$$

     RDKit          3D

 34 39  0  0  0  0  0  0  0  0999 V2000
    0.0407   -1.0765   -2.7651 C   0  0  0  0  0  0  0  0  0  0  0  0
    0.0994   -1.7876   -1.4105 C   0  0  1  0  0  0  0  0  0  0  0  0
    1.5000   -1.6860   -0.9282 C   0  0  0  0  0  0  0  0  0  0  0  0
    1.5734   -0.3509   -0.3665 N   0  0  0  0  0  0  0  0  0  0  0  0
    2.6505    0.5780   -0.3716 C   0  0  0  0  0  0  0  0  0  0  0  0
    2.8397    1.5176   -1.3632 C   0  0  0  0  0  0  0  0  0  0  0  0
    3.8921    2.3590   -1.2845 N   0  0  0  0  0  0  0  0  0  0  0  0
    4.7869    2.3259   -0.2627 C   0  0  0  0  0  0  0  0  0  0  0  0
    4.6396    1.4139    0.7395 C   0  0  0  0  0  0  0  0  0  0  0  0
    5.5419    1.3822    1.7677 C   0  0  0  0  0  0  0  0  0  0  0  0
    5.4135    0.4633    2.7994 C   0  0  0  0  0  0  0  0  0  0  0  0
    4.3464   -0.4102    2.7455 C   0  0  0  0  0  0  0  0  0  0  0  0
    3.4533   -0.3662    1.7117 C   0  0  0  0  0  0  0  0  0  0  0  0
    3.5649    0.5432    0.6737 C   0  0  0  0  0  0  0  0  0  0  0  0
    0.2929   -0.1487    0.2220 C   0  0  0  0  0  0  0  0  0  0  0  0
    0.0183    0.6409    1.1908 O   0  0  0  0  0  0  0  0  0  0  0  0
   -0.7093   -1.0031   -0.4608 C   0  0  1  0  0  0  0  0  0  0  0  0
   -1.7462   -0.1293   -1.1785 C   0  0  0  0  0  0  0  0  0  0  0  0
   -2.4306    0.6901   -0.1772 N   0  0  0  0  0  0  0  0  0  0  0  0
   -2.3947    2.1171   -0.1824 C   0  0  0  0  0  0  0  0  0  0  0  0
   -3.5107    2.7107   -0.9901 C   0  0  0  0  0  0  0  0  0  0  0  0
   -3.5243    3.0310   -2.3276 C   0  0  0  0  0  0  0  0  0  0  0  0
   -4.6925    3.5316   -2.6605 O   0  0  0  0  0  0  0  0  0  0  0  0
   -5.4311    3.5399   -1.5641 C   0  0  0  0  0  0  0  0  0  0  0  0
   -4.7313    3.0427   -0.5277 N   0  0  0  0  0  0  0  0  0  0  0  0
   -3.1572   -0.0535    0.8182 C   0  0  0  0  0  0  0  0  0  0  0  0
   -4.1822    0.4403    1.3374 O   0  0  0  0  0  0  0  0  0  0  0  0
   -2.6181   -1.3680    1.1517 C   0  0  0  0  0  0  0  0  0  0  0  0
   -3.3082   -2.1124    2.0733 C   0  0  0  0  0  0  0  0  0  0  0  0
   -2.8887   -3.3716    2.4234 C   0  0  0  0  0  0  0  0  0  0  0  0
   -1.7533   -3.8581    1.8171 C   0  0  0  0  0  0  0  0  0  0  0  0
   -1.3320   -5.0965    2.1539 F   0  0  0  0  0  0  0  0  0  0  0  0
   -1.0591   -3.1018    0.8865 C   0  0  0  0  0  0  0  0  0  0  0  0
   -1.4627   -1.8294    0.5183 C   0  0  0  0  0  0  0  0  0  0  0  0
  2  1  1  6
  2  3  1  0
  3  4  1  0
  4  5  1  0
  5  6  2  0
  6  7  1  0
  7  8  2  0
  8  9  1  0
  9 10  2  0
 10 11  1  0
 11 12  2  0
 12 13  1  0
 13 14  2  0
  4 15  1  0
 15 16  2  0
 15 17  1  0
 17 18  1  6
 18 19  1  0
 19 20  1  0
 20 21  1  0
 21 22  2  0
 22 23  1  0
 23 24  1  0
 24 25  2  0
 19 26  1  0
 26 27  2  0
 26 28  1  0
 28 29  2  0
 29 30  1  0
 30 31  2  0
 31 32  1  0
 31 33  1  0
 33 34  2  0
 17  2  1  0
 25 21  1  0
 34 28  1  0
 14  5  1  0
 34 17  1  0
 14  9  1  0
M  END
$$$$

     RDKit          3D

 24 27  0  0  0  0  0  0  0  0999 V2000
   -3.7241   -1.2641   -1.7806 C   0  0  0  0  0  0  0  0  0  0  0  0
   -2.8194   -1.4469   -0.5906 C   0  0  0  0  0  0  0  0  0  0  0  0
   -2.0032   -0.2171   -0.3023 C   0  0  1  0  0  0  0  0  0  0  0  0
   -2.9020    0.9674   -0.0109 C   0  0  0  0  0  0  0  0  0  0  0  0
   -3.3243    1.9152   -0.8597 C   0  0  0  0  0  0  0  0  0  0  0  0
   -4.1374    2.8968   -0.3747 C   0  0  0  0  0  0  0  0  0  0  0  0
   -4.3680    2.5119    1.4301 S   0  0  0  0  0  0  0  0  0  0  0  0
   -3.3236    1.0540    1.3018 C   0  0  0  0  0  0  0  0  0  0  0  0
   -2.9468    0.0866    2.3571 C   0  0  0  0  0  0  0  0  0  0  0  0
   -1.4817   -0.2329    2.1957 C   0  0  0  0  0  0  0  0  0  0  0  0
   -1.1000   -0.3526    0.8122 N   0  0  0  0  0  0  0  0  0  0  0  0
    0.2883   -0.6287    0.5562 C   0  0  0  0  0  0  0  0  0  0  0  0
    1.0365   -0.7377    1.5856 O   0  0  0  0  0  0  0  0  0  0  0  0
    0.8205   -0.7783   -0.8151 C   0  0  0  0  0  0  0  0  0  0  0  0
    2.2802   -1.0588   -0.7542 C   0  0  0  0  0  0  0  0  0  0  0  0
    2.7898   -2.3242   -0.9666 C   0  0  0  0  0  0  0  0  0  0  0  0
    4.0991   -2.6007   -0.9163 N   0  0  0  0  0  0  0  0  0  0  0  0
    4.9991   -1.6562   -0.6545 C   0  0  0  0  0  0  0  0  0  0  0  0
    4.5461   -0.3576   -0.4309 C   0  0  0  0  0  0  0  0  0  0  0  0
    5.4824    0.6303   -0.1576 C   0  0  0  0  0  0  0  0  0  0  0  0
    5.0314    1.9010    0.0604 C   0  0  0  0  0  0  0  0  0  0  0  0
    3.6728    2.2089    0.0125 C   0  0  0  0  0  0  0  0  0  0  0  0
    2.7374    1.2455   -0.2559 C   0  0  0  0  0  0  0  0  0  0  0  0
    3.1884   -0.0506   -0.4790 C   0  0  0  0  0  0  0  0  0  0  0  0
  1  2  1  0
  3  2  1  1
  3  4  1  0
  4  5  1  0
  5  6  2  0
  6  7  1  0
  7  8  1  0
  8  9  1  0
  9 10  1  0
 10 11  1  0
 11 12  1  0
 12 13  2  0
 12 14  1  0
 14 15  1  0
 15 16  2  0
 16 17  1  0
 17 18  2  0
 18 19  1  0
 19 20  2  0
 20 21  1  0
 21 22  2  0
 22 23  1  0
 23 24  2  0
 11  3  1  0
 24 15  1  0
  8  4  2  0
 24 19  1  0
M  END
$$$$

     RDKit          3D

 35 40  0  0  0  0  0  0  0  0999 V2000
    6.9686    2.8826    0.8802 C   0  0  0  0  0  0  0  0  0  0  0  0
    5.5083    2.7156    0.6976 C   0  0  0  0  0  0  0  0  0  0  0  0
    4.9283    1.9012   -0.2518 C   0  0  0  0  0  0  0  0  0  0  0  0
    3.5562    2.0593   -0.0542 C   0  0  0  0  0  0  0  0  0  0  0  0
    2.5090    1.3836   -0.8369 C   0  0  0  0  0  0  0  0  0  0  0  0
    2.1229    0.1118   -0.2633 N   0  0  0  0  0  0  0  0  0  0  0  0
    1.0533   -0.0235    0.7164 C   0  0  0  0  0  0  0  0  0  0  0  0
    0.0905   -1.1346    0.3928 C   0  0  2  0  0  0  0  0  0  0  0  0
   -0.8297   -0.6407   -0.6601 C   0  0  0  0  0  0  0  0  0  0  0  0
   -0.5446   -0.6831   -1.8811 O   0  0  0  0  0  0  0  0  0  0  0  0
   -2.0448   -0.1306   -0.0477 N   0  0  0  0  0  0  0  0  0  0  0  0
   -3.1903    0.1160   -0.8289 C   0  0  0  0  0  0  0  0  0  0  0  0
   -3.3841   -0.6210   -2.0086 C   0  0  0  0  0  0  0  0  0  0  0  0
   -4.4409   -0.4297   -2.8104 N   0  0  0  0  0  0  0  0  0  0  0  0
   -5.4027    0.4744   -2.5634 C   0  0  0  0  0  0  0  0  0  0  0  0
   -5.2544    1.2264   -1.4112 C   0  0  0  0  0  0  0  0  0  0  0  0
   -6.2294    2.1654   -1.1610 C   0  0  0  0  0  0  0  0  0  0  0  0
   -6.1626    2.9758   -0.0460 C   0  0  0  0  0  0  0  0  0  0  0  0
   -5.0768    2.7881    0.7850 C   0  0  0  0  0  0  0  0  0  0  0  0
   -4.1018    1.8487    0.5349 C   0  0  0  0  0  0  0  0  0  0  0  0
   -4.1593    1.0471   -0.5562 C   0  0  0  0  0  0  0  0  0  0  0  0
   -1.7328   -0.0525    1.3501 C   0  0  0  0  0  0  0  0  0  0  0  0
   -0.8445   -1.2961    1.5367 C   0  0  2  0  0  0  0  0  0  0  0  0
   -0.1726   -1.3301    2.8716 C   0  0  0  0  0  0  0  0  0  0  0  0
    0.7939   -2.3701    0.0014 C   0  0  0  0  0  0  0  0  0  0  0  0
    0.2022   -3.6255    0.1038 C   0  0  0  0  0  0  0  0  0  0  0  0
    0.8754   -4.7830   -0.2682 C   0  0  0  0  0  0  0  0  0  0  0  0
    0.2928   -6.0020   -0.1656 F   0  0  0  0  0  0  0  0  0  0  0  0
    2.1586   -4.7283   -0.7540 C   0  0  0  0  0  0  0  0  0  0  0  0
    2.7575   -3.5101   -0.8629 C   0  0  0  0  0  0  0  0  0  0  0  0
    2.0956   -2.3728   -0.4972 C   0  0  0  0  0  0  0  0  0  0  0  0
    2.7881   -1.1035   -0.6374 C   0  0  0  0  0  0  0  0  0  0  0  0
    3.9661   -1.0443   -1.0826 O   0  0  0  0  0  0  0  0  0  0  0  0
    3.3707    2.8976    0.9302 O   0  0  0  0  0  0  0  0  0  0  0  0
    4.5080    3.2977    1.3889 N   0  0  0  0  0  0  0  0  0  0  0  0
  1  2  1  0
  2  3  1  0
  3  4  2  0
  4  5  1  0
  5  6  1  0
  6  7  1  0
  8  7  1  1
  8  9  1  0
  9 10  2  0
  9 11  1  0
 11 12  1  0
 12 13  2  0
 13 14  1  0
 14 15  2  0
 15 16  1  0
 16 17  2  0
 17 18  1  0
 18 19  2  0
 19 20  1  0
 20 21  2  0
 11 22  1  0
 22 23  1  0
 23 24  1  1
  8 25  1  0
 25 26  2  0
 26 27  1  0
 27 28  1  0
 27 29  2  0
 29 30  1  0
 30 31  2  0
 31 32  1  0
 32 33  2  0
  4 34  1  0
 34 35  1  0
 35  2  2  0
 32  6  1  0
 23  8  1  0
 31 25  1  0
 21 12  1  0
 21 16  1  0
M  END
$$$$

     RDKit          3D

 34 39  0  0  0  0  0  0  0  0999 V2000
    1.1533   -0.8886    0.8639 O   0  0  0  0  0  0  0  0  0  0  0  0
    1.3532    0.3766    0.8595 C   0  0  0  0  0  0  0  0  0  0  0  0
    2.7830    0.7650    0.8101 C   0  0  0  0  0  0  0  0  0  0  0  0
    3.6448   -0.4837    0.8933 C   0  0  0  0  0  0  0  0  0  0  0  0
    4.2979   -0.7779    2.0920 C   0  0  0  0  0  0  0  0  0  0  0  0
    5.0650   -1.8794    2.1739 N   0  0  0  0  0  0  0  0  0  0  0  0
    5.2339   -2.7263    1.1320 C   0  0  0  0  0  0  0  0  0  0  0  0
    4.5955   -2.4477   -0.0555 C   0  0  0  0  0  0  0  0  0  0  0  0
    4.7812   -3.3278   -1.1091 C   0  0  0  0  0  0  0  0  0  0  0  0
    4.1400   -3.0591   -2.3184 C   0  0  0  0  0  0  0  0  0  0  0  0
    3.3385   -1.9304   -2.4421 C   0  0  0  0  0  0  0  0  0  0  0  0
    3.1537   -1.0530   -1.3909 C   0  0  0  0  0  0  0  0  0  0  0  0
    3.7877   -1.3186   -0.1956 C   0  0  0  0  0  0  0  0  0  0  0  0
    0.2710    1.3140    0.9018 N   0  0  0  0  0  0  0  0  0  0  0  0
    0.4751    2.7268    0.9278 C   0  0  0  0  0  0  0  0  0  0  0  0
    0.5941    3.4426   -0.3541 C   0  0  0  0  0  0  0  0  0  0  0  0
   -0.4851    3.8700   -1.1091 C   0  0  0  0  0  0  0  0  0  0  0  0
   -0.3470    4.5665   -2.2976 C   0  0  0  0  0  0  0  0  0  0  0  0
    0.9013    4.8724   -2.7925 C   0  0  0  0  0  0  0  0  0  0  0  0
    1.9834    4.4669   -2.0729 C   0  0  0  0  0  0  0  0  0  0  0  0
    3.5780    4.8566   -2.7022 Cl  0  0  0  0  0  0  0  0  0  0  0  0
    1.8471    3.7773   -0.8957 C   0  0  0  0  0  0  0  0  0  0  0  0
   -1.0512    0.7664    0.9382 C   0  0  2  0  0  0  0  0  0  0  0  0
   -2.2006    1.6744    1.0695 C   0  0  0  0  0  0  0  0  0  0  0  0
   -3.2975    0.9142    1.8476 C   0  0  0  0  0  0  0  0  0  0  0  0
   -2.7661   -0.5029    1.6196 C   0  0  2  0  0  0  0  0  0  0  0  0
   -1.3101   -0.2290    2.0470 C   0  0  0  0  0  0  0  0  0  0  0  0
   -2.6497   -0.6940    0.2175 N   0  0  2  0  0  0  0  0  0  0  0  0
   -2.8709   -2.0404   -0.2304 C   0  0  0  0  0  0  0  0  0  0  0  0
   -4.3670   -2.2324   -0.3657 C   0  0  0  0  0  0  0  0  0  0  0  0
   -4.8157   -3.5980   -0.8361 C   0  0  0  0  0  0  0  0  0  0  0  0
   -5.8012   -3.5316    0.1757 O   0  0  0  0  0  0  0  0  0  0  0  0
   -4.9913   -2.6719    0.9413 C   0  0  0  0  0  0  0  0  0  0  0  0
   -1.3823   -0.1489   -0.2428 C   0  0  0  0  0  0  0  0  0  0  0  0
  1  2  2  0
  2  3  1  0
  3  4  1  0
  4  5  2  0
  5  6  1  0
  6  7  2  0
  7  8  1  0
  8  9  2  0
  9 10  1  0
 10 11  2  0
 11 12  1  0
 12 13  2  0
  2 14  1  0
 14 15  1  0
 15 16  1  0
 16 17  2  0
 17 18  1  0
 18 19  2  0
 19 20  1  0
 20 21  1  0
 20 22  2  0
 23 14  1  6
 23 24  1  0
 24 25  1  0
 26 25  1  6
 26 27  1  0
 26 28  1  0
 28 29  1  1
 29 30  1  0
 30 31  1  0
 31 32  1  0
 32 33  1  0
 28 34  1  0
 13  4  1  0
 22 16  1  0
 27 23  1  0
 33 30  1  0
 13  8  1  0
 34 23  1  0
M  CHG  1  28   1
M  END
$$$$

     RDKit          3D

 36 40  0  0  0  0  0  0  0  0999 V2000
    7.6341   -3.0094    0.0397 C   0  0  0  0  0  0  0  0  0  0  0  0
    6.7650   -2.0992   -0.3688 C   0  0  0  0  0  0  0  0  0  0  0  0
    5.5759   -1.7778    0.4345 C   0  0  0  0  0  0  0  0  0  0  0  0
    5.4527   -2.4130    1.5049 O   0  0  0  0  0  0  0  0  0  0  0  0
    4.6696   -0.7971   -0.0395 N   0  0  0  0  0  0  0  0  0  0  0  0
    4.9084   -0.1688   -1.3491 C   0  0  0  0  0  0  0  0  0  0  0  0
    3.6681    0.5997   -1.7401 C   0  0  0  0  0  0  0  0  0  0  0  0
    2.4222   -0.2479   -1.3756 C   0  0  0  0  0  0  0  0  0  0  0  0
    2.3209   -0.1456    0.0566 C   0  0  0  0  0  0  0  0  0  0  0  0
    3.5345   -0.4386    0.7438 C   0  0  0  0  0  0  0  0  0  0  0  0
    3.6541   -0.3991    2.0944 C   0  0  0  0  0  0  0  0  0  0  0  0
    2.5684   -0.0638    2.8537 C   0  0  0  0  0  0  0  0  0  0  0  0
    1.3919    0.2200    2.1946 C   0  0  0  0  0  0  0  0  0  0  0  0
    1.2484    0.1857    0.8202 C   0  0  0  0  0  0  0  0  0  0  0  0
   -0.0755    0.4946    0.2084 N   0  0  1  0  0  0  0  0  0  0  0  0
    0.2105    1.3605   -0.8136 C   0  0  0  0  0  0  0  0  0  0  0  0
   -0.6295    2.6028   -0.4976 C   0  0  0  0  0  0  0  0  0  0  0  0
   -0.1716    3.5929    0.3092 C   0  0  0  0  0  0  0  0  0  0  0  0
   -0.9157    4.7203    0.5936 C   0  0  0  0  0  0  0  0  0  0  0  0
   -2.1798    4.8537    0.0378 C   0  0  0  0  0  0  0  0  0  0  0  0
   -2.6625    3.8698   -0.7777 C   0  0  0  0  0  0  0  0  0  0  0  0
   -4.2504    3.9947   -1.5007 Cl  0  0  0  0  0  0  0  0  0  0  0  0
   -1.8923    2.7488   -1.0455 C   0  0  0  0  0  0  0  0  0  0  0  0
   -0.7960   -0.6429   -0.1349 C   0  0  0  0  0  0  0  0  0  0  0  0
    0.0689   -1.4611   -0.6221 O   0  0  0  0  0  0  0  0  0  0  0  0
   -2.0999   -1.2172   -0.1437 C   0  0  0  0  0  0  0  0  0  0  0  0
   -3.3510   -0.6771    0.2990 C   0  0  0  0  0  0  0  0  0  0  0  0
   -3.5699    0.5226    0.9397 C   0  0  0  0  0  0  0  0  0  0  0  0
   -4.8005    0.9404    1.3235 N   0  0  0  0  0  0  0  0  0  0  0  0
   -5.8902    0.1959    1.0966 C   0  0  0  0  0  0  0  0  0  0  0  0
   -5.7262   -1.0034    0.4643 C   0  0  0  0  0  0  0  0  0  0  0  0
   -6.8362   -1.7763    0.2292 C   0  0  0  0  0  0  0  0  0  0  0  0
   -6.7870   -2.9971   -0.3946 C   0  0  0  0  0  0  0  0  0  0  0  0
   -5.5559   -3.4557   -0.7988 C   0  0  0  0  0  0  0  0  0  0  0  0
   -4.4309   -2.6721   -0.5606 C   0  0  0  0  0  0  0  0  0  0  0  0
   -4.5099   -1.4447    0.0706 C   0  0  0  0  0  0  0  0  0  0  0  0
  1  2  2  0
  2  3  1  0
  3  4  2  0
  3  5  1  0
  5  6  1  0
  6  7  1  0
  7  8  1  0
  8  9  1  0
  9 10  2  0
 10 11  1  0
 11 12  2  0
 12 13  1  0
 13 14  2  0
 14 15  1  0
 15 16  1  6
 16 17  1  0
 17 18  2  0
 18 19  1  0
 19 20  2  0
 20 21  1  0
 21 22  1  0
 21 23  2  0
 15 24  1  0
 24 25  2  0
 24 26  1  0
 26 27  1  0
 27 28  2  0
 28 29  1  0
 29 30  2  0
 30 31  1  0
 31 32  2  0
 32 33  1  0
 33 34  2  0
 34 35  1  0
 35 36  2  0
 10  5  1  0
 23 17  1  0
 36 27  1  0
 14  9  1  0
 36 31  1  0
M  CHG  1  15   1
M  END
$$$$

     RDKit          3D

 24 26  0  0  0  0  0  0  0  0999 V2000
   -4.8594    0.9485    1.4899 C   0  0  0  0  0  0  0  0  0  0  0  0
   -4.9787    0.3449    0.1263 C   0  0  0  0  0  0  0  0  0  0  0  0
   -6.4091   -0.2414    0.0283 C   0  0  0  0  0  0  0  0  0  0  0  0
   -4.0025   -0.7010   -0.2025 C   0  0  0  0  0  0  0  0  0  0  0  0
   -2.5489   -0.4204   -0.2351 C   0  0  0  0  0  0  0  0  0  0  0  0
   -2.1869    0.6635   -1.2398 C   0  0  0  0  0  0  0  0  0  0  0  0
   -1.9636   -0.0912    1.0766 C   0  0  0  0  0  0  0  0  0  0  0  0
   -0.4554    0.0356    1.0960 C   0  0  0  0  0  0  0  0  0  0  0  0
    0.1949   -0.7352    0.0572 N   0  0  0  0  0  0  0  0  0  0  0  0
    1.4688   -0.3443   -0.4876 C   0  0  0  0  0  0  0  0  0  0  0  0
    2.0383   -1.0156   -1.3865 O   0  0  0  0  0  0  0  0  0  0  0  0
    2.0773    0.8904    0.0649 C   0  0  0  0  0  0  0  0  0  0  0  0
    3.3853    1.2246   -0.5159 C   0  0  0  0  0  0  0  0  0  0  0  0
    3.5859    2.2120   -1.4583 C   0  0  0  0  0  0  0  0  0  0  0  0
    4.8294    2.4650   -1.9483 N   0  0  0  0  0  0  0  0  0  0  0  0
    5.9011    1.7437   -1.5138 C   0  0  0  0  0  0  0  0  0  0  0  0
    5.7548    0.7435   -0.5712 C   0  0  0  0  0  0  0  0  0  0  0  0
    6.8737    0.0373   -0.1565 C   0  0  0  0  0  0  0  0  0  0  0  0
    6.6932   -0.9616    0.7956 C   0  0  0  0  0  0  0  0  0  0  0  0
    5.4440   -1.2529    1.3213 C   0  0  0  0  0  0  0  0  0  0  0  0
    4.3343   -0.5213    0.8816 C   0  0  0  0  0  0  0  0  0  0  0  0
    4.4877    0.4856   -0.0721 C   0  0  0  0  0  0  0  0  0  0  0  0
   -0.4956   -1.9172   -0.4032 C   0  0  0  0  0  0  0  0  0  0  0  0
   -1.9256   -1.7578   -0.7071 C   0  0  0  0  0  0  0  0  0  0  0  0
  1  2  1  0
  2  3  1  0
  2  4  1  0
  4  5  1  0
  5  6  1  0
  5  7  1  0
  7  8  1  0
  8  9  1  0
  9 10  1  0
 10 11  2  0
 10 12  1  0
 12 13  1  0
 13 14  2  0
 14 15  1  0
 15 16  2  0
 16 17  1  0
 17 18  2  0
 18 19  1  0
 19 20  2  0
 20 21  1  0
 21 22  2  0
  9 23  1  0
 23 24  1  0
 24  5  1  0
 22 13  1  0
 22 17  1  0
M  END
$$$$

     RDKit          3D

 31 35  0  0  0  0  0  0  0  0999 V2000
   -1.2602   -2.1370   -1.1304 C   0  0  0  0  0  0  0  0  0  0  0  0
   -1.2155   -1.1169   -0.0149 C   0  0  1  0  0  0  0  0  0  0  0  0
    0.1175   -1.2482    0.7357 C   0  0  0  0  0  0  0  0  0  0  0  0
    1.0164   -0.5836   -0.1550 N   0  0  0  0  0  0  0  0  0  0  0  0
    2.3494   -0.8813   -0.5457 C   0  0  0  0  0  0  0  0  0  0  0  0
    2.5947   -1.6786   -1.6701 C   0  0  0  0  0  0  0  0  0  0  0  0
    3.8675   -1.9707   -2.0514 N   0  0  0  0  0  0  0  0  0  0  0  0
    4.9336   -1.5198   -1.3844 C   0  0  0  0  0  0  0  0  0  0  0  0
    4.7590   -0.7352   -0.2761 C   0  0  0  0  0  0  0  0  0  0  0  0
    5.8583   -0.2697    0.4151 C   0  0  0  0  0  0  0  0  0  0  0  0
    5.7059    0.5225    1.5380 C   0  0  0  0  0  0  0  0  0  0  0  0
    4.4086    0.8381    1.9525 C   0  0  0  0  0  0  0  0  0  0  0  0
    3.3331    0.3559    1.2380 C   0  0  0  0  0  0  0  0  0  0  0  0
    3.4670   -0.4331    0.1190 C   0  0  0  0  0  0  0  0  0  0  0  0
    0.2867    0.5496   -0.6571 C   0  0  0  0  0  0  0  0  0  0  0  0
    0.7859    1.5962   -1.1752 O   0  0  0  0  0  0  0  0  0  0  0  0
   -1.1666    0.3102   -0.4768 C   0  0  1  0  0  0  0  0  0  0  0  0
   -1.9726    0.5822   -1.6899 C   0  0  0  0  0  0  0  0  0  0  0  0
   -3.3747    0.3764   -1.4355 N   0  0  0  0  0  0  0  0  0  0  0  0
   -4.2766   -0.4091   -2.2203 C   0  0  0  0  0  0  0  0  0  0  0  0
   -4.4841   -1.7674   -1.8145 C   0  0  0  0  0  0  0  0  0  0  0  0
   -4.6650   -2.8404   -1.4821 N   0  0  0  0  0  0  0  0  0  0  0  0
   -3.9451    1.0720   -0.3066 C   0  0  0  0  0  0  0  0  0  0  0  0
   -5.1993    1.3166   -0.2643 O   0  0  0  0  0  0  0  0  0  0  0  0
   -3.0394    1.4717    0.7574 C   0  0  0  0  0  0  0  0  0  0  0  0
   -3.5702    2.2126    1.7906 C   0  0  0  0  0  0  0  0  0  0  0  0
   -2.7456    2.6956    2.7819 C   0  0  0  0  0  0  0  0  0  0  0  0
   -1.4014    2.4109    2.6932 C   0  0  0  0  0  0  0  0  0  0  0  0
   -0.5820    2.8907    3.6750 F   0  0  0  0  0  0  0  0  0  0  0  0
   -0.8778    1.6556    1.6370 C   0  0  0  0  0  0  0  0  0  0  0  0
   -1.7018    1.1648    0.6385 C   0  0  0  0  0  0  0  0  0  0  0  0
  2  1  1  6
  2  3  1  0
  3  4  1  0
  4  5  1  0
  5  6  2  0
  6  7  1  0
  7  8  2  0
  8  9  1  0
  9 10  2  0
 10 11  1  0
 11 12  2  0
 12 13  1  0
 13 14  2  0
  4 15  1  0
 15 16  2  0
 15 17  1  0
 17 18  1  6
 18 19  1  0
 19 20  1  0
 20 21  1  0
 21 22  3  0
 19 23  1  0
 23 24  2  0
 23 25  1  0
 25 26  2  0
 26 27  1  0
 27 28  2  0
 28 29  1  0
 28 30  1  0
 30 31  2  0
 17  2  1  0
 31 25  1  0
 14  5  1  0
 31 17  1  0
 14  9  1  0
M  END
$$$$

     RDKit          3D

 23 26  0  0  0  0  0  0  0  0999 V2000
    0.0655   -1.5792   -1.5756 O   0  0  0  0  0  0  0  0  0  0  0  0
   -0.2015   -0.7575   -0.6714 C   0  0  0  0  0  0  0  0  0  0  0  0
    0.8063   -0.1271    0.2239 C   0  0  0  0  0  0  0  0  0  0  0  0
    2.1732   -0.6163    0.0784 C   0  0  0  0  0  0  0  0  0  0  0  0
    2.4447   -1.9337   -0.2464 C   0  0  0  0  0  0  0  0  0  0  0  0
    3.7127   -2.4046   -0.3905 N   0  0  0  0  0  0  0  0  0  0  0  0
    4.8011   -1.6408   -0.2313 C   0  0  0  0  0  0  0  0  0  0  0  0
    4.5866   -0.3170    0.0954 C   0  0  0  0  0  0  0  0  0  0  0  0
    5.7151    0.4589    0.2797 C   0  0  0  0  0  0  0  0  0  0  0  0
    5.5742    1.7838    0.6253 C   0  0  0  0  0  0  0  0  0  0  0  0
    4.3101    2.3073    0.7803 C   0  0  0  0  0  0  0  0  0  0  0  0
    3.1542    1.5410    0.5999 C   0  0  0  0  0  0  0  0  0  0  0  0
    3.2951    0.1946    0.2487 C   0  0  0  0  0  0  0  0  0  0  0  0
   -1.5774   -0.4019   -0.4829 N   0  0  0  0  0  0  0  0  0  0  0  0
   -2.5679   -1.0063   -1.3483 C   0  0  0  0  0  0  0  0  0  0  0  0
   -3.2912   -2.0326   -0.4674 C   0  0  0  0  0  0  0  0  0  0  0  0
   -4.5199   -1.3859    0.0617 C   0  0  0  0  0  0  0  0  0  0  0  0
   -4.3147   -0.0100    0.4406 C   0  0  0  0  0  0  0  0  0  0  0  0
   -5.8211    0.9222    0.7174 S   0  0  0  0  0  0  0  0  0  0  0  0
   -4.9737    2.4408    1.1372 C   0  0  0  0  0  0  0  0  0  0  0  0
   -3.6626    2.1318    1.0375 C   0  0  0  0  0  0  0  0  0  0  0  0
   -3.3147    0.8776    0.6808 C   0  0  0  0  0  0  0  0  0  0  0  0
   -1.8408    0.5232    0.5818 C   0  0  0  0  0  0  0  0  0  0  0  0
  1  2  2  0
  2  3  1  0
  3  4  1  0
  4  5  2  0
  5  6  1  0
  6  7  2  0
  7  8  1  0
  8  9  2  0
  9 10  1  0
 10 11  2  0
 11 12  1  0
 12 13  2  0
  2 14  1  0
 14 15  1  0
 15 16  1  0
 16 17  1  0
 17 18  1  0
 18 19  1  0
 19 20  1  0
 20 21  2  0
 21 22  1  0
 22 23  1  0
 13  4  1  0
 23 14  1  0
 13  8  1  0
 22 18  2  0
M  END
$$$$

     RDKit          3D

 26 29  0  0  0  0  0  0  0  0999 V2000
    0.2520    0.8253    0.9437 O   0  0  0  0  0  0  0  0  0  0  0  0
    0.4406   -0.1858    0.1742 C   0  0  0  0  0  0  0  0  0  0  0  0
    1.8618   -0.6369    0.1064 C   0  0  0  0  0  0  0  0  0  0  0  0
    2.8326    0.4772   -0.0074 C   0  0  0  0  0  0  0  0  0  0  0  0
    2.5060    1.7784   -0.2758 C   0  0  0  0  0  0  0  0  0  0  0  0
    3.4567    2.7332   -0.3854 N   0  0  0  0  0  0  0  0  0  0  0  0
    4.7733    2.4974   -0.2446 C   0  0  0  0  0  0  0  0  0  0  0  0
    5.1275    1.1829    0.0287 C   0  0  0  0  0  0  0  0  0  0  0  0
    6.4770    0.8890    0.1799 C   0  0  0  0  0  0  0  0  0  0  0  0
    6.9063   -0.3874    0.4465 C   0  0  0  0  0  0  0  0  0  0  0  0
    5.9607   -1.3838    0.5629 C   0  0  0  0  0  0  0  0  0  0  0  0
    4.6140   -1.1014    0.4150 C   0  0  0  0  0  0  0  0  0  0  0  0
    4.1861    0.1852    0.1467 C   0  0  0  0  0  0  0  0  0  0  0  0
   -0.6085   -0.8035   -0.5389 N   0  0  0  0  0  0  0  0  0  0  0  0
   -0.4099   -1.9716   -1.4157 C   0  0  0  0  0  0  0  0  0  0  0  0
   -0.9541   -3.1620   -0.6628 C   0  0  0  0  0  0  0  0  0  0  0  0
   -1.9240   -2.6932    0.3664 C   0  0  0  0  0  0  0  0  0  0  0  0
   -2.8120   -1.5486   -0.1139 C   0  0  0  0  0  0  0  0  0  0  0  0
   -2.0039   -0.3451   -0.4986 C   0  0  1  0  0  0  0  0  0  0  0  0
   -2.2179    0.8392    0.3498 C   0  0  0  0  0  0  0  0  0  0  0  0
   -3.6156    1.3412    0.4188 C   0  0  0  0  0  0  0  0  0  0  0  0
   -4.0316    2.2452   -0.5685 C   0  0  0  0  0  0  0  0  0  0  0  0
   -5.3102    2.7712   -0.5796 C   0  0  0  0  0  0  0  0  0  0  0  0
   -6.2039    2.4030    0.4026 C   0  0  0  0  0  0  0  0  0  0  0  0
   -5.7943    1.5167    1.3697 C   0  0  0  0  0  0  0  0  0  0  0  0
   -4.5122    0.9770    1.3965 C   0  0  0  0  0  0  0  0  0  0  0  0
  1  2  2  0
  2  3  1  0
  3  4  1  0
  4  5  2  0
  5  6  1  0
  6  7  2  0
  7  8  1  0
  8  9  2  0
  9 10  1  0
 10 11  2  0
 11 12  1  0
 12 13  2  0
  2 14  1  0
 14 15  1  0
 15 16  1  0
 16 17  1  0
 17 18  1  0
 18 19  1  0
 19 20  1  1
 20 21  1  0
 21 22  2  0
 22 23  1  0
 23 24  2  0
 24 25  1  0
 25 26  2  0
 13  4  1  0
 19 14  1  0
 26 21  1  0
 13  8  1  0
M  END
$$$$

     RDKit          3D

 27 31  0  0  0  0  0  0  0  0999 V2000
   -2.0726    2.2454   -1.8195 O   0  0  0  0  0  0  0  0  0  0  0  0
   -1.2732    1.4558   -1.2380 C   0  0  0  0  0  0  0  0  0  0  0  0
    0.0686    1.7524   -0.8709 N   0  0  0  0  0  0  0  0  0  0  0  0
    0.6448    0.5343   -0.3988 C   0  0  1  0  0  0  0  0  0  0  0  0
    1.8917    0.0483   -1.1221 C   0  0  0  0  0  0  0  0  0  0  0  0
    2.6371    1.0035   -0.1989 C   0  0  2  0  0  0  0  0  0  0  0  0
    4.0143    0.6528    0.1365 C   0  0  0  0  0  0  0  0  0  0  0  0
    4.4002   -0.1168    1.2148 C   0  0  0  0  0  0  0  0  0  0  0  0
    5.7155   -0.4242    1.4953 C   0  0  0  0  0  0  0  0  0  0  0  0
    6.7219    0.0478    0.6734 C   0  0  0  0  0  0  0  0  0  0  0  0
    6.3492    0.8263   -0.4195 C   0  0  0  0  0  0  0  0  0  0  0  0
    5.0266    1.1209   -0.6803 C   0  0  0  0  0  0  0  0  0  0  0  0
    4.6991    2.1135   -2.0928 Cl  0  0  0  0  0  0  0  0  0  0  0  0
    1.5683    0.6688    0.8205 C   0  0  0  0  0  0  0  0  0  0  0  0
   -0.4386   -0.4439   -0.2274 C   0  0  0  0  0  0  0  0  0  0  0  0
   -0.2976   -1.5437    0.3675 O   0  0  0  0  0  0  0  0  0  0  0  0
   -1.5971    0.1069   -0.8472 N   0  0  0  0  0  0  0  0  0  0  0  0
   -2.8277   -0.5854   -1.0260 C   0  0  0  0  0  0  0  0  0  0  0  0
   -3.1168   -1.3382   -2.1454 C   0  0  0  0  0  0  0  0  0  0  0  0
   -4.3100   -1.9549   -2.2194 N   0  0  0  0  0  0  0  0  0  0  0  0
   -5.2541   -1.8925   -1.2738 C   0  0  0  0  0  0  0  0  0  0  0  0
   -5.0104   -1.1476   -0.1290 C   0  0  0  0  0  0  0  0  0  0  0  0
   -5.9343   -1.0335    0.8931 C   0  0  0  0  0  0  0  0  0  0  0  0
   -5.6598   -0.2750    2.0356 C   0  0  0  0  0  0  0  0  0  0  0  0
   -4.4334    0.3631    2.1195 C   0  0  0  0  0  0  0  0  0  0  0  0
   -3.4949    0.2554    1.0963 C   0  0  0  0  0  0  0  0  0  0  0  0
   -3.7920   -0.5042   -0.0282 C   0  0  0  0  0  0  0  0  0  0  0  0
  1  2  2  0
  2  3  1  0
  3  4  1  0
  4  5  1  6
  5  6  1  0
  6  7  1  1
  7  8  2  0
  8  9  1  0
  9 10  2  0
 10 11  1  0
 11 12  2  0
 12 13  1  0
  6 14  1  0
  4 15  1  0
 15 16  2  0
 15 17  1  0
 17 18  1  0
 18 19  2  0
 19 20  1  0
 20 21  2  0
 21 22  1  0
 22 23  2  0
 23 24  1  0
 24 25  2  0
 25 26  1  0
 26 27  2  0
 17  2  1  0
 27 18  1  0
 14  4  1  0
 27 22  1  0
 12  7  1  0
M  END
$$$$

     RDKit          3D

 40 45  0  0  0  0  0  0  0  0999 V2000
    5.7933   -3.4809   -0.3789 C   0  0  0  0  0  0  0  0  0  0  0  0
    5.1063   -2.5960   -1.3163 N   0  0  0  0  0  0  0  0  0  0  0  0
    4.2207   -1.6481   -0.7775 C   0  0  0  0  0  0  0  0  0  0  0  0
    4.0594   -1.6041    0.4867 O   0  0  0  0  0  0  0  0  0  0  0  0
    3.4458   -0.6735   -1.6231 C   0  0  0  0  0  0  0  0  0  0  0  0
    2.6622    0.1134   -0.6765 N   0  0  0  0  0  0  0  0  0  0  0  0
    1.3511   -0.3379   -0.3177 C   0  0  0  0  0  0  0  0  0  0  0  0
    0.4259    0.6973    0.2174 C   0  0  2  0  0  0  0  0  0  0  0  0
   -0.3925    0.0528    1.3071 C   0  0  0  0  0  0  0  0  0  0  0  0
   -0.1469    0.0967    2.5263 O   0  0  0  0  0  0  0  0  0  0  0  0
   -1.4804   -0.6022    0.6703 N   0  0  0  0  0  0  0  0  0  0  0  0
   -2.4291   -1.4871    1.2662 C   0  0  0  0  0  0  0  0  0  0  0  0
   -3.5856   -0.9520    1.7982 C   0  0  0  0  0  0  0  0  0  0  0  0
   -4.5302   -1.7479    2.3811 N   0  0  0  0  0  0  0  0  0  0  0  0
   -4.3214   -3.0949    2.4354 C   0  0  0  0  0  0  0  0  0  0  0  0
   -3.1823   -3.6611    1.9162 C   0  0  0  0  0  0  0  0  0  0  0  0
   -3.0041   -5.0290    1.9888 C   0  0  0  0  0  0  0  0  0  0  0  0
   -1.8299   -5.5621    1.4474 C   0  0  0  0  0  0  0  0  0  0  0  0
   -0.8855   -4.7420    0.8618 C   0  0  0  0  0  0  0  0  0  0  0  0
   -1.0608   -3.3670    0.7867 C   0  0  0  0  0  0  0  0  0  0  0  0
   -2.2227   -2.8599    1.3249 C   0  0  0  0  0  0  0  0  0  0  0  0
   -1.4959   -0.2284   -0.7454 C   0  0  0  0  0  0  0  0  0  0  0  0
   -0.7126    1.0571   -0.7309 C   0  0  2  0  0  0  0  0  0  0  0  0
   -0.2643    1.5146   -2.0720 C   0  0  0  0  0  0  0  0  0  0  0  0
   -1.4818    1.8141   -2.8417 N   0  0  0  0  0  0  0  0  0  0  0  0
   -2.3237    2.8294   -2.2815 C   0  0  0  0  0  0  0  0  0  0  0  0
   -2.1527    4.1765   -2.6157 C   0  0  0  0  0  0  0  0  0  0  0  0
   -2.9504    5.1371   -2.0847 N   0  0  0  0  0  0  0  0  0  0  0  0
   -3.9302    4.7895   -1.2158 C   0  0  0  0  0  0  0  0  0  0  0  0
   -4.1215    3.4677   -0.8681 C   0  0  0  0  0  0  0  0  0  0  0  0
   -3.3115    2.5632   -1.4173 N   0  0  0  0  0  0  0  0  0  0  0  0
    1.0842    1.9158    0.7336 C   0  0  0  0  0  0  0  0  0  0  0  0
    0.3098    2.8123    1.4323 C   0  0  0  0  0  0  0  0  0  0  0  0
    0.8812    3.9702    1.9367 C   0  0  0  0  0  0  0  0  0  0  0  0
   -0.0832    5.1400    2.8366 Cl  0  0  0  0  0  0  0  0  0  0  0  0
    2.2247    4.2672    1.7630 C   0  0  0  0  0  0  0  0  0  0  0  0
    3.0022    3.3641    1.0599 C   0  0  0  0  0  0  0  0  0  0  0  0
    2.4097    2.2151    0.5657 C   0  0  0  0  0  0  0  0  0  0  0  0
    3.2611    1.2874   -0.1700 C   0  0  0  0  0  0  0  0  0  0  0  0
    4.4832    1.5241   -0.3467 O   0  0  0  0  0  0  0  0  0  0  0  0
  1  2  1  0
  2  3  1  0
  3  4  2  0
  3  5  1  0
  5  6  1  0
  6  7  1  0
  8  7  1  6
  8  9  1  0
  9 10  2  0
  9 11  1  0
 11 12  1  0
 12 13  2  0
 13 14  1  0
 14 15  2  0
 15 16  1  0
 16 17  2  0
 17 18  1  0
 18 19  2  0
 19 20  1  0
 20 21  2  0
 11 22  1  0
 22 23  1  0
 23 24  1  6
 24 25  1  0
 25 26  1  0
 26 27  2  0
 27 28  1  0
 28 29  2  0
 29 30  1  0
 30 31  2  0
  8 32  1  0
 32 33  2  0
 33 34  1  0
 34 35  1  0
 34 36  2  0
 36 37  1  0
 37 38  2  0
 38 39  1  0
 39 40  2  0
 39  6  1  0
 23  8  1  0
 31 26  1  0
 38 32  1  0
 21 12  1  0
 21 16  1  0
M  END
$$$$

     RDKit          3D

 36 41  0  0  0  0  0  0  0  0999 V2000
    0.3544    0.9867   -1.7960 C   0  0  0  0  0  0  0  0  0  0  0  0
    0.8866   -0.3866   -1.3976 C   0  0  1  0  0  0  0  0  0  0  0  0
    2.3656   -0.3437   -1.6186 C   0  0  0  0  0  0  0  0  0  0  0  0
    2.9698   -0.3774   -0.3140 N   0  0  0  0  0  0  0  0  0  0  0  0
    4.3685   -0.3470   -0.0623 C   0  0  0  0  0  0  0  0  0  0  0  0
    5.1508   -1.4779    0.0311 C   0  0  0  0  0  0  0  0  0  0  0  0
    6.4696   -1.4384    0.2688 N   0  0  0  0  0  0  0  0  0  0  0  0
    7.0973   -0.2802    0.4289 C   0  0  0  0  0  0  0  0  0  0  0  0
    6.3652    0.8938    0.3463 C   0  0  0  0  0  0  0  0  0  0  0  0
    7.0624    2.0680    0.5196 C   0  0  0  0  0  0  0  0  0  0  0  0
    6.3813    3.2675    0.4472 C   0  0  0  0  0  0  0  0  0  0  0  0
    5.0265    3.2624    0.2044 C   0  0  0  0  0  0  0  0  0  0  0  0
    4.3229    2.0750    0.0295 C   0  0  0  0  0  0  0  0  0  0  0  0
    5.0038    0.8711    0.1017 C   0  0  0  0  0  0  0  0  0  0  0  0
    1.9545   -0.4425    0.6739 C   0  0  0  0  0  0  0  0  0  0  0  0
    2.1072   -0.2789    1.9185 O   0  0  0  0  0  0  0  0  0  0  0  0
    0.6253   -0.7416    0.0291 C   0  0  1  0  0  0  0  0  0  0  0  0
   -0.3951    0.0877    0.7242 C   0  0  0  0  0  0  0  0  0  0  0  0
   -1.6452   -0.5425    1.0100 N   0  0  0  0  0  0  0  0  0  0  0  0
   -2.8505    0.2596    1.1925 C   0  0  0  0  0  0  0  0  0  0  0  0
   -3.5088    0.4185   -0.1260 C   0  0  0  0  0  0  0  0  0  0  0  0
   -4.7164    1.1863   -0.1173 N   0  0  0  0  0  0  0  0  0  0  0  0
   -5.6467    0.6683   -1.1120 C   0  0  0  0  0  0  0  0  0  0  0  0
   -6.7226    1.7325   -1.2359 C   0  0  0  0  0  0  0  0  0  0  0  0
   -7.3949    1.7730   -0.0125 O   0  0  0  0  0  0  0  0  0  0  0  0
   -6.5516    2.1686    1.0038 C   0  0  0  0  0  0  0  0  0  0  0  0
   -5.4151    1.1721    1.1460 C   0  0  0  0  0  0  0  0  0  0  0  0
   -1.8187   -1.9587    1.1419 C   0  0  0  0  0  0  0  0  0  0  0  0
   -2.8732   -2.4630    1.6159 O   0  0  0  0  0  0  0  0  0  0  0  0
   -0.7026   -2.7844    0.6953 C   0  0  0  0  0  0  0  0  0  0  0  0
   -0.8593   -4.1587    0.8254 C   0  0  0  0  0  0  0  0  0  0  0  0
    0.1486   -5.0139    0.4338 C   0  0  0  0  0  0  0  0  0  0  0  0
    1.2953   -4.4491   -0.0825 C   0  0  0  0  0  0  0  0  0  0  0  0
    2.5788   -5.5365   -0.5811 Cl  0  0  0  0  0  0  0  0  0  0  0  0
    1.4448   -3.0631   -0.2102 C   0  0  0  0  0  0  0  0  0  0  0  0
    0.4374   -2.2084    0.1811 C   0  0  0  0  0  0  0  0  0  0  0  0
  2  1  1  1
  2  3  1  0
  3  4  1  0
  4  5  1  0
  5  6  2  0
  6  7  1  0
  7  8  2  0
  8  9  1  0
  9 10  2  0
 10 11  1  0
 11 12  2  0
 12 13  1  0
 13 14  2  0
  4 15  1  0
 15 16  2  0
 15 17  1  0
 17 18  1  1
 18 19  1  0
 19 20  1  0
 20 21  1  0
 21 22  1  0
 22 23  1  0
 23 24  1  0
 24 25  1  0
 25 26  1  0
 26 27  1  0
 19 28  1  0
 28 29  2  0
 28 30  1  0
 30 31  2  0
 31 32  1  0
 32 33  2  0
 33 34  1  0
 33 35  1  0
 35 36  2  0
 17  2  1  0
 27 22  1  0
 36 30  1  0
 14  5  1  0
 36 17  1  0
 14  9  1  0
M  CHG  1  22   1
M  END
$$$$

     RDKit          3D

 34 39  0  0  0  0  0  0  0  0999 V2000
   -0.2847    1.4743   -3.0495 C   0  0  0  0  0  0  0  0  0  0  0  0
   -0.3822    1.9232   -1.5949 C   0  0  1  0  0  0  0  0  0  0  0  0
   -1.6936    1.3896   -1.0855 C   0  0  0  0  0  0  0  0  0  0  0  0
   -1.3164    0.0859   -0.5704 N   0  0  0  0  0  0  0  0  0  0  0  0
   -1.9965   -1.1507   -0.6227 C   0  0  0  0  0  0  0  0  0  0  0  0
   -1.8502   -2.0685   -1.6419 C   0  0  0  0  0  0  0  0  0  0  0  0
   -2.5449   -3.2230   -1.6007 N   0  0  0  0  0  0  0  0  0  0  0  0
   -3.3861   -3.5102   -0.5838 C   0  0  0  0  0  0  0  0  0  0  0  0
   -3.5743   -2.6345    0.4620 C   0  0  0  0  0  0  0  0  0  0  0  0
   -4.4405   -2.9230    1.5153 C   0  0  0  0  0  0  0  0  0  0  0  0
   -4.6009   -2.0204    2.5425 C   0  0  0  0  0  0  0  0  0  0  0  0
   -3.9064   -0.8297    2.5330 C   0  0  0  0  0  0  0  0  0  0  0  0
   -3.0494   -0.5621    1.4753 C   0  0  0  0  0  0  0  0  0  0  0  0
   -2.8638   -1.4405    0.4313 C   0  0  0  0  0  0  0  0  0  0  0  0
   -0.0481    0.2868    0.0429 C   0  0  0  0  0  0  0  0  0  0  0  0
    0.3991   -0.2817    1.0855 O   0  0  0  0  0  0  0  0  0  0  0  0
    0.7139    1.3120   -0.7573 C   0  0  1  0  0  0  0  0  0  0  0  0
    1.6846    0.5252   -1.5871 C   0  0  0  0  0  0  0  0  0  0  0  0
    2.8536    0.1853   -0.8125 N   0  0  0  0  0  0  0  0  0  0  0  0
    3.4608   -1.1483   -0.8707 C   0  0  0  0  0  0  0  0  0  0  0  0
    2.9193   -2.0838    0.1232 C   0  0  0  0  0  0  0  0  0  0  0  0
    1.8372   -2.9601   -0.0255 C   0  0  0  0  0  0  0  0  0  0  0  0
    1.7104   -3.6044    1.1212 O   0  0  0  0  0  0  0  0  0  0  0  0
    2.6245   -3.1948    1.9572 C   0  0  0  0  0  0  0  0  0  0  0  0
    3.4001   -2.2523    1.3881 N   0  0  0  0  0  0  0  0  0  0  0  0
    3.4984    1.1328    0.0500 C   0  0  0  0  0  0  0  0  0  0  0  0
    4.7020    1.0242    0.3890 O   0  0  0  0  0  0  0  0  0  0  0  0
    2.6878    2.2377    0.5203 C   0  0  0  0  0  0  0  0  0  0  0  0
    3.2666    3.1760    1.3428 C   0  0  0  0  0  0  0  0  0  0  0  0
    2.5223    4.2435    1.7994 C   0  0  0  0  0  0  0  0  0  0  0  0
    1.2037    4.3291    1.4062 C   0  0  0  0  0  0  0  0  0  0  0  0
    0.4702    5.3852    1.8589 F   0  0  0  0  0  0  0  0  0  0  0  0
    0.6377    3.3775    0.5795 C   0  0  0  0  0  0  0  0  0  0  0  0
    1.3761    2.2854    0.1046 C   0  0  0  0  0  0  0  0  0  0  0  0
  2  1  1  6
  2  3  1  0
  3  4  1  0
  4  5  1  0
  5  6  2  0
  6  7  1  0
  7  8  2  0
  8  9  1  0
  9 10  2  0
 10 11  1  0
 11 12  2  0
 12 13  1  0
 13 14  2  0
  4 15  1  0
 15 16  2  0
 15 17  1  0
 17 18  1  6
 18 19  1  0
 19 20  1  0
 20 21  1  0
 21 22  2  0
 22 23  1  0
 23 24  1  0
 24 25  2  0
 19 26  1  0
 26 27  2  0
 26 28  1  0
 28 29  2  0
 29 30  1  0
 30 31  2  0
 31 32  1  0
 31 33  1  0
 33 34  2  0
 17  2  1  0
 25 21  1  0
 34 28  1  0
 14  5  1  0
 34 17  1  0
 14  9  1  0
M  END
$$$$

     RDKit          3D

 33 37  0  0  0  0  0  0  0  0999 V2000
   -5.0321    1.6022   -1.6298 C   0  0  0  0  0  0  0  0  0  0  0  0
   -4.2794    0.8343   -0.6472 N   0  0  0  0  0  0  0  0  0  0  0  0
   -4.6371    0.8564    0.7127 C   0  0  0  0  0  0  0  0  0  0  0  0
   -5.6400    1.5706    1.0477 O   0  0  0  0  0  0  0  0  0  0  0  0
   -3.9571    0.1243    1.7945 C   0  0  0  0  0  0  0  0  0  0  0  0
   -2.8382   -0.6091    1.2292 N   0  0  0  0  0  0  0  0  0  0  0  0
   -1.5437   -0.0265    1.2234 C   0  0  0  0  0  0  0  0  0  0  0  0
   -0.5834   -0.5133    0.1635 C   0  0  2  0  0  0  0  0  0  0  0  0
    0.8173   -0.4589    0.6823 C   0  0  0  0  0  0  0  0  0  0  0  0
    1.1364   -0.7309    1.8705 O   0  0  0  0  0  0  0  0  0  0  0  0
    1.6808   -0.0619   -0.3652 N   0  0  0  0  0  0  0  0  0  0  0  0
    3.1050   -0.0931   -0.3314 C   0  0  0  0  0  0  0  0  0  0  0  0
    3.8572   -1.1693   -0.7296 C   0  0  0  0  0  0  0  0  0  0  0  0
    5.2122   -1.1703   -0.6860 N   0  0  0  0  0  0  0  0  0  0  0  0
    5.9119   -0.1116   -0.2474 C   0  0  0  0  0  0  0  0  0  0  0  0
    5.2144    1.0029    0.1677 C   0  0  0  0  0  0  0  0  0  0  0  0
    5.9301    2.0939    0.6198 C   0  0  0  0  0  0  0  0  0  0  0  0
    5.2798    3.2345    1.0469 C   0  0  0  0  0  0  0  0  0  0  0  0
    3.8925    3.2720    1.0166 C   0  0  0  0  0  0  0  0  0  0  0  0
    3.2107    2.1646    0.5592 C   0  0  0  0  0  0  0  0  0  0  0  0
    3.8307    1.0139    0.1270 C   0  0  0  0  0  0  0  0  0  0  0  0
    0.8907    0.3914   -1.4772 C   0  0  0  0  0  0  0  0  0  0  0  0
   -0.5270    0.4275   -1.0050 C   0  0  2  0  0  0  0  0  0  0  0  0
   -0.8142    1.8723   -0.6257 C   0  0  0  0  0  0  0  0  0  0  0  0
   -0.8594   -1.8959   -0.2919 C   0  0  0  0  0  0  0  0  0  0  0  0
    0.0729   -2.6227   -1.0026 C   0  0  0  0  0  0  0  0  0  0  0  0
   -0.1814   -3.9229   -1.4523 C   0  0  0  0  0  0  0  0  0  0  0  0
    1.0288   -4.8141   -2.3535 Cl  0  0  0  0  0  0  0  0  0  0  0  0
   -1.3833   -4.5436   -1.2042 C   0  0  0  0  0  0  0  0  0  0  0  0
   -2.3219   -3.8292   -0.4943 C   0  0  0  0  0  0  0  0  0  0  0  0
   -2.0671   -2.5482   -0.0525 C   0  0  0  0  0  0  0  0  0  0  0  0
   -3.1358   -1.9192    0.7357 C   0  0  0  0  0  0  0  0  0  0  0  0
   -4.2354   -2.4924    0.9609 O   0  0  0  0  0  0  0  0  0  0  0  0
  1  2  1  0
  2  3  1  0
  3  4  2  0
  3  5  1  0
  5  6  1  0
  6  7  1  0
  8  7  1  1
  8  9  1  0
  9 10  2  0
  9 11  1  0
 11 12  1  0
 12 13  2  0
 13 14  1  0
 14 15  2  0
 15 16  1  0
 16 17  2  0
 17 18  1  0
 18 19  2  0
 19 20  1  0
 20 21  2  0
 11 22  1  0
 22 23  1  0
 23 24  1  1
  8 25  1  0
 25 26  2  0
 26 27  1  0
 27 28  1  0
 27 29  2  0
 29 30  1  0
 30 31  2  0
 31 32  1  0
 32 33  2  0
 32  6  1  0
 23  8  1  0
 31 25  1  0
 21 12  1  0
 21 16  1  0
M  END
$$$$

     RDKit          3D

 27 31  0  0  0  0  0  0  0  0999 V2000
    0.6637    2.5850    1.5451 C   0  0  0  0  0  0  0  0  0  0  0  0
    0.2050    1.3823    0.8946 N   0  0  0  0  0  0  0  0  0  0  0  0
   -0.9796    0.6601    1.2796 C   0  0  0  0  0  0  0  0  0  0  0  0
   -1.6028    0.8582    2.3713 O   0  0  0  0  0  0  0  0  0  0  0  0
   -1.3060   -0.2778    0.2495 N   0  0  0  0  0  0  0  0  0  0  0  0
   -2.4255   -1.1545    0.3147 C   0  0  0  0  0  0  0  0  0  0  0  0
   -2.3260   -2.4215    0.8803 C   0  0  0  0  0  0  0  0  0  0  0  0
   -3.4213   -3.2306    0.9235 N   0  0  0  0  0  0  0  0  0  0  0  0
   -4.6040   -2.7992    0.4157 C   0  0  0  0  0  0  0  0  0  0  0  0
   -4.7184   -1.5466   -0.1479 C   0  0  0  0  0  0  0  0  0  0  0  0
   -5.9191   -1.0826   -0.6746 C   0  0  0  0  0  0  0  0  0  0  0  0
   -5.9983    0.1799   -1.2328 C   0  0  0  0  0  0  0  0  0  0  0  0
   -4.9075    1.0327   -1.2958 C   0  0  0  0  0  0  0  0  0  0  0  0
   -3.7212    0.5454   -0.7632 C   0  0  0  0  0  0  0  0  0  0  0  0
   -3.6239   -0.7088   -0.2035 C   0  0  0  0  0  0  0  0  0  0  0  0
   -0.3252   -0.1362   -0.7713 C   0  0  0  0  0  0  0  0  0  0  0  0
   -0.4471   -0.6342   -1.9140 O   0  0  0  0  0  0  0  0  0  0  0  0
    0.7589    0.6627   -0.2014 C   0  0  0  0  0  0  0  0  0  0  0  0
    2.0510   -0.0866    0.0637 C   0  0  0  0  0  0  0  0  0  0  0  0
    2.6720    0.4751   -1.1062 N   0  0  0  0  0  0  0  0  0  0  0  0
    4.2236    1.1475   -0.9364 S   0  0  0  0  0  0  0  0  0  0  0  0
    4.6226    1.7524   -2.2697 O   0  0  0  0  0  0  0  0  0  0  0  0
    4.1092    2.2798    0.0730 O   0  0  0  0  0  0  0  0  0  0  0  0
    5.4770    0.0300   -0.4243 C   0  0  0  0  0  0  0  0  0  0  0  0
    5.5895   -1.3163   -1.1168 C   0  0  0  0  0  0  0  0  0  0  0  0
    5.1670   -1.2033    0.3070 C   0  0  0  0  0  0  0  0  0  0  0  0
    1.5919    1.4394   -1.1956 C   0  0  0  0  0  0  0  0  0  0  0  0
  1  2  1  0
  2  3  1  0
  3  4  2  0
  3  5  1  0
  5  6  1  0
  6  7  2  0
  7  8  1  0
  8  9  2  0
  9 10  1  0
 10 11  2  0
 11 12  1  0
 12 13  2  0
 13 14  1  0
 14 15  2  0
  5 16  1  0
 16 17  2  0
 16 18  1  0
 18 19  1  0
 19 20  1  0
 20 21  1  0
 21 22  2  0
 21 23  2  0
 21 24  1  0
 24 25  1  0
 25 26  1  0
 20 27  1  0
 18  2  1  0
 26 24  1  0
 15  6  1  0
 27 18  1  0
 15 10  1  0
M  END
$$$$

     RDKit          3D

 35 40  0  0  0  0  0  0  0  0999 V2000
    5.7437    2.8159    2.2170 C   0  0  0  0  0  0  0  0  0  0  0  0
    4.6395    2.7397    1.2588 N   0  0  0  0  0  0  0  0  0  0  0  0
    4.1128    1.4699    0.8974 C   0  0  0  0  0  0  0  0  0  0  0  0
    4.6298    0.4652    1.4262 O   0  0  0  0  0  0  0  0  0  0  0  0
    2.9781    1.3632   -0.0848 C   0  0  0  0  0  0  0  0  0  0  0  0
    2.2756    0.0960   -0.1132 N   0  0  0  0  0  0  0  0  0  0  0  0
    0.8916    0.0631    0.2624 C   0  0  0  0  0  0  0  0  0  0  0  0
    0.1417   -1.1848   -0.0048 C   0  0  2  0  0  0  0  0  0  0  0  0
   -0.9378   -0.8542   -0.9898 C   0  0  0  0  0  0  0  0  0  0  0  0
   -0.7610   -0.9990   -2.2227 O   0  0  0  0  0  0  0  0  0  0  0  0
   -2.1053   -0.3804   -0.2867 N   0  0  0  0  0  0  0  0  0  0  0  0
   -3.2914   -0.0447   -0.9706 C   0  0  0  0  0  0  0  0  0  0  0  0
   -3.5796   -0.6427   -2.2076 C   0  0  0  0  0  0  0  0  0  0  0  0
   -4.6943   -0.3301   -2.9018 N   0  0  0  0  0  0  0  0  0  0  0  0
   -5.6057    0.5551   -2.4885 C   0  0  0  0  0  0  0  0  0  0  0  0
   -5.3706    1.1736   -1.2770 C   0  0  0  0  0  0  0  0  0  0  0  0
   -6.2997    2.0948   -0.8566 C   0  0  0  0  0  0  0  0  0  0  0  0
   -6.1333    2.7683    0.3330 C   0  0  0  0  0  0  0  0  0  0  0  0
   -5.0054    2.4736    1.0642 C   0  0  0  0  0  0  0  0  0  0  0  0
   -4.0781    1.5531    0.6436 C   0  0  0  0  0  0  0  0  0  0  0  0
   -4.2244    0.8689   -0.5380 C   0  0  0  0  0  0  0  0  0  0  0  0
   -1.7298   -0.4266    1.1040 C   0  0  0  0  0  0  0  0  0  0  0  0
   -0.7312   -1.6135    1.1544 C   0  0  2  0  0  0  0  0  0  0  0  0
   -0.0003   -1.6433    2.4560 C   0  0  0  0  0  0  0  0  0  0  0  0
    0.9452   -2.3443   -0.4322 C   0  0  0  0  0  0  0  0  0  0  0  0
    0.3497   -3.5751   -0.6296 C   0  0  0  0  0  0  0  0  0  0  0  0
    1.0936   -4.6933   -1.0310 C   0  0  0  0  0  0  0  0  0  0  0  0
    0.3159   -6.2434   -1.2745 Cl  0  0  0  0  0  0  0  0  0  0  0  0
    2.4553   -4.6100   -1.2467 C   0  0  0  0  0  0  0  0  0  0  0  0
    3.0477   -3.3947   -1.0533 C   0  0  0  0  0  0  0  0  0  0  0  0
    2.3130   -2.2957   -0.6584 C   0  0  0  0  0  0  0  0  0  0  0  0
    3.0355   -1.0426   -0.5008 C   0  0  0  0  0  0  0  0  0  0  0  0
    4.2750   -1.0068   -0.7077 O   0  0  0  0  0  0  0  0  0  0  0  0
    3.3561    1.9256   -1.4992 C   0  0  0  0  0  0  0  0  0  0  0  0
    2.3196    2.5403   -0.6329 C   0  0  0  0  0  0  0  0  0  0  0  0
  1  2  1  0
  2  3  1  0
  3  4  2  0
  3  5  1  0
  5  6  1  0
  6  7  1  0
  8  7  1  1
  8  9  1  0
  9 10  2  0
  9 11  1  0
 11 12  1  0
 12 13  2  0
 13 14  1  0
 14 15  2  0
 15 16  1  0
 16 17  2  0
 17 18  1  0
 18 19  2  0
 19 20  1  0
 20 21  2  0
 11 22  1  0
 22 23  1  0
 23 24  1  1
  8 25  1  0
 25 26  2  0
 26 27  1  0
 27 28  1  0
 27 29  2  0
 29 30  1  0
 30 31  2  0
 31 32  1  0
 32 33  2  0
  5 34  1  0
 34 35  1  0
 35  5  1  0
 32  6  1  0
 23  8  1  0
 31 25  1  0
 21 12  1  0
 21 16  1  0
M  END
$$$$

     RDKit          3D

 20 22  0  0  0  0  0  0  0  0999 V2000
    0.0926   -0.7661    1.3621 O   0  0  0  0  0  0  0  0  0  0  0  0
    0.6818   -0.7583    0.2478 C   0  0  0  0  0  0  0  0  0  0  0  0
   -0.1020   -0.9998   -0.9697 C   0  0  0  0  0  0  0  0  0  0  0  0
   -1.5413   -1.2275   -0.5963 C   0  0  0  0  0  0  0  0  0  0  0  0
   -2.0853   -2.4951   -0.6011 C   0  0  0  0  0  0  0  0  0  0  0  0
   -3.3640   -2.7553   -0.2764 N   0  0  0  0  0  0  0  0  0  0  0  0
   -4.1761   -1.7533    0.0741 C   0  0  0  0  0  0  0  0  0  0  0  0
   -3.6806   -0.4700    0.0944 C   0  0  0  0  0  0  0  0  0  0  0  0
   -4.5738    0.5337    0.4679 C   0  0  0  0  0  0  0  0  0  0  0  0
   -4.0870    1.8349    0.4930 C   0  0  0  0  0  0  0  0  0  0  0  0
   -2.7803    2.1107    0.1625 C   0  0  0  0  0  0  0  0  0  0  0  0
   -1.8863    1.1215   -0.2093 C   0  0  0  0  0  0  0  0  0  0  0  0
   -2.3729   -0.1846   -0.2353 C   0  0  0  0  0  0  0  0  0  0  0  0
    2.0855   -0.5151    0.2196 N   0  0  0  0  0  0  0  0  0  0  0  0
    2.6373   -0.3044    1.5478 C   0  0  0  0  0  0  0  0  0  0  0  0
    3.1224    1.1072    1.5802 C   0  0  0  0  0  0  0  0  0  0  0  0
    3.9017    1.7461    0.7223 C   0  0  0  0  0  0  0  0  0  0  0  0
    4.4799    1.1836   -0.4934 C   0  0  0  0  0  0  0  0  0  0  0  0
    3.9249    0.2285   -1.2236 C   0  0  0  0  0  0  0  0  0  0  0  0
    2.6550   -0.5294   -1.0836 C   0  0  0  0  0  0  0  0  0  0  0  0
  1  2  2  0
  2  3  1  0
  3  4  1  0
  4  5  2  0
  5  6  1  0
  6  7  2  0
  7  8  1  0
  8  9  2  0
  9 10  1  0
 10 11  2  0
 11 12  1  0
 12 13  2  0
  2 14  1  0
 14 15  1  0
 15 16  1  0
 16 17  2  0
 17 18  1  0
 18 19  2  0
 19 20  1  0
 13  4  1  0
 20 14  1  0
 13  8  1  0
M  END
$$$$

     RDKit          3D

 28 31  0  0  0  0  0  0  0  0999 V2000
   -3.4268   -2.0129    3.1095 C   0  0  0  0  0  0  0  0  0  0  0  0
   -2.8732   -1.2478    2.0837 O   0  0  0  0  0  0  0  0  0  0  0  0
   -2.9115    0.1097    1.9355 C   0  0  0  0  0  0  0  0  0  0  0  0
   -3.5604    0.8795    2.8783 C   0  0  0  0  0  0  0  0  0  0  0  0
   -3.6288    2.2677    2.7745 C   0  0  0  0  0  0  0  0  0  0  0  0
   -3.0236    2.8577    1.6918 C   0  0  0  0  0  0  0  0  0  0  0  0
   -2.3771    2.0808    0.7539 C   0  0  0  0  0  0  0  0  0  0  0  0
   -2.2948    0.7074    0.8327 C   0  0  0  0  0  0  0  0  0  0  0  0
   -1.6231   -0.1604   -0.1266 C   0  0  1  0  0  0  0  0  0  0  0  0
   -2.5823   -0.6379   -1.2094 C   0  0  0  0  0  0  0  0  0  0  0  0
   -1.7823   -1.3309   -2.3187 C   0  0  1  0  0  0  0  0  0  0  0  0
   -2.7706   -2.1087   -3.1599 C   0  0  0  0  0  0  0  0  0  0  0  0
   -1.0364   -0.2949   -3.0917 C   0  0  0  0  0  0  0  0  0  0  0  0
   -0.7241    0.8999   -2.1793 C   0  0  0  0  0  0  0  0  0  0  0  0
   -0.4956    0.4562   -0.8129 N   0  0  0  0  0  0  0  0  0  0  0  0
    0.7586    0.6055   -0.1552 C   0  0  0  0  0  0  0  0  0  0  0  0
    0.9689    0.2243    1.0266 O   0  0  0  0  0  0  0  0  0  0  0  0
    1.8823    1.2436   -0.8964 C   0  0  0  0  0  0  0  0  0  0  0  0
    3.1048    1.3247   -0.0975 C   0  0  0  0  0  0  0  0  0  0  0  0
    3.5877    2.4638    0.5056 C   0  0  0  0  0  0  0  0  0  0  0  0
    4.7187    2.4950    1.2338 N   0  0  0  0  0  0  0  0  0  0  0  0
    5.4311    1.3780    1.3978 C   0  0  0  0  0  0  0  0  0  0  0  0
    5.0169    0.1775    0.8227 C   0  0  0  0  0  0  0  0  0  0  0  0
    5.7500   -0.9802    0.9891 C   0  0  0  0  0  0  0  0  0  0  0  0
    5.3161   -2.1508    0.4089 C   0  0  0  0  0  0  0  0  0  0  0  0
    4.1454   -2.2014   -0.3498 C   0  0  0  0  0  0  0  0  0  0  0  0
    3.4424   -1.0202   -0.4908 C   0  0  0  0  0  0  0  0  0  0  0  0
    3.8544    0.1687    0.0801 C   0  0  0  0  0  0  0  0  0  0  0  0
  1  2  1  0
  2  3  1  0
  3  4  2  0
  4  5  1  0
  5  6  2  0
  6  7  1  0
  7  8  2  0
  9  8  1  1
  9 10  1  0
 10 11  1  0
 11 12  1  6
 11 13  1  0
 13 14  1  0
 14 15  1  0
 15 16  1  0
 16 17  2  0
 16 18  1  0
 18 19  1  0
 19 20  2  0
 20 21  1  0
 21 22  2  0
 22 23  1  0
 23 24  2  0
 24 25  1  0
 25 26  2  0
 26 27  1  0
 27 28  2  0
  8  3  1  0
 15  9  1  0
 28 19  1  0
 28 23  1  0
M  END
$$$$

     RDKit          3D

 30 34  0  0  0  0  0  0  0  0999 V2000
   -4.4628    2.6161    2.8226 N   0  0  0  0  0  0  0  0  0  0  0  0
   -4.5672    2.5425    1.0893 S   0  0  0  0  0  0  0  0  0  0  0  0
   -3.7648    3.6385    0.4618 O   0  0  0  0  0  0  0  0  0  0  0  0
   -6.0129    2.7708    0.7331 O   0  0  0  0  0  0  0  0  0  0  0  0
   -4.0322    0.9783    0.5056 C   0  0  0  0  0  0  0  0  0  0  0  0
   -4.9486   -0.0542    0.3615 C   0  0  0  0  0  0  0  0  0  0  0  0
   -4.5043   -1.2858   -0.1024 C   0  0  0  0  0  0  0  0  0  0  0  0
   -3.1744   -1.4975   -0.4204 C   0  0  0  0  0  0  0  0  0  0  0  0
   -2.2558   -0.4771   -0.2805 C   0  0  0  0  0  0  0  0  0  0  0  0
   -2.7123    0.7287    0.1779 C   0  0  0  0  0  0  0  0  0  0  0  0
   -0.8533   -0.7243   -0.6232 C   0  0  1  0  0  0  0  0  0  0  0  0
   -0.5477   -2.2073   -0.6077 C   0  0  0  0  0  0  0  0  0  0  0  0
   -1.5630   -2.9417   -1.4566 C   0  0  0  0  0  0  0  0  0  0  0  0
   -2.8396   -2.7658   -0.8749 O   0  0  0  0  0  0  0  0  0  0  0  0
   -0.4852   -0.2564   -1.9467 N   0  0  0  0  0  0  0  0  0  0  0  0
    0.8307    0.2892   -1.9365 C   0  0  0  0  0  0  0  0  0  0  0  0
    1.4726    0.5311   -2.9787 O   0  0  0  0  0  0  0  0  0  0  0  0
    1.2144    0.4798   -0.5772 N   0  0  0  0  0  0  0  0  0  0  0  0
    2.4633    1.0065   -0.1893 C   0  0  0  0  0  0  0  0  0  0  0  0
    2.5563    2.3826   -0.0401 C   0  0  0  0  0  0  0  0  0  0  0  0
    3.7380    2.9544    0.3336 N   0  0  0  0  0  0  0  0  0  0  0  0
    4.8350    2.2105    0.5657 C   0  0  0  0  0  0  0  0  0  0  0  0
    4.7826    0.8312    0.4273 C   0  0  0  0  0  0  0  0  0  0  0  0
    5.8879    0.0610    0.6594 C   0  0  0  0  0  0  0  0  0  0  0  0
    5.8376   -1.3186    0.5215 C   0  0  0  0  0  0  0  0  0  0  0  0
    4.6138   -1.8782    0.1375 C   0  0  0  0  0  0  0  0  0  0  0  0
    3.5053   -1.1286   -0.0973 C   0  0  0  0  0  0  0  0  0  0  0  0
    3.5881    0.2419    0.0486 C   0  0  0  0  0  0  0  0  0  0  0  0
    0.1107    0.0405    0.2094 C   0  0  0  0  0  0  0  0  0  0  0  0
    0.0111    0.2951    1.4533 O   0  0  0  0  0  0  0  0  0  0  0  0
  1  2  1  0
  2  3  2  0
  2  4  2  0
  2  5  1  0
  5  6  2  0
  6  7  1  0
  7  8  2  0
  8  9  1  0
  9 10  2  0
  9 11  1  0
 11 12  1  6
 12 13  1  0
 13 14  1  0
 11 15  1  0
 15 16  1  0
 16 17  2  0
 16 18  1  0
 18 19  1  0
 19 20  2  0
 20 21  1  0
 21 22  2  0
 22 23  1  0
 23 24  2  0
 24 25  1  0
 25 26  2  0
 26 27  1  0
 27 28  2  0
 18 29  1  0
 29 30  2  0
 10  5  1  0
 29 11  1  0
 14  8  1  0
 28 19  1  0
 28 23  1  0
M  END
$$$$

     RDKit          3D

 37 42  0  0  0  0  0  0  0  0999 V2000
   -0.6427    1.5061    0.8837 C   0  0  0  0  0  0  0  0  0  0  0  0
   -0.7980    0.0767    1.3463 C   0  0  1  0  0  0  0  0  0  0  0  0
   -2.2417   -0.0797    1.7246 C   0  0  0  0  0  0  0  0  0  0  0  0
   -2.9062   -0.3432    0.4718 N   0  0  0  0  0  0  0  0  0  0  0  0
   -4.3266   -0.2354    0.3170 C   0  0  0  0  0  0  0  0  0  0  0  0
   -5.1766   -1.3099    0.5898 C   0  0  0  0  0  0  0  0  0  0  0  0
   -6.5111   -1.2305    0.4478 N   0  0  0  0  0  0  0  0  0  0  0  0
   -7.1139   -0.1094    0.0333 C   0  0  0  0  0  0  0  0  0  0  0  0
   -6.3413    0.9914   -0.2547 C   0  0  0  0  0  0  0  0  0  0  0  0
   -6.9687    2.1424   -0.6812 C   0  0  0  0  0  0  0  0  0  0  0  0
   -6.2393    3.2739   -0.9832 C   0  0  0  0  0  0  0  0  0  0  0  0
   -4.8701    3.1857   -0.8354 C   0  0  0  0  0  0  0  0  0  0  0  0
   -4.2483    2.0368   -0.4100 C   0  0  0  0  0  0  0  0  0  0  0  0
   -4.9517    0.9163   -0.1093 C   0  0  0  0  0  0  0  0  0  0  0  0
   -1.9252   -0.7185   -0.4872 C   0  0  0  0  0  0  0  0  0  0  0  0
   -2.1587   -0.9024   -1.7145 O   0  0  0  0  0  0  0  0  0  0  0  0
   -0.6075   -0.8505    0.2061 C   0  0  1  0  0  0  0  0  0  0  0  0
    0.5390   -0.4486   -0.6479 C   0  0  0  0  0  0  0  0  0  0  0  0
    1.7905   -0.7974   -0.0091 N   0  0  0  0  0  0  0  0  0  0  0  0
    2.8683    0.1468    0.2143 C   0  0  0  0  0  0  0  0  0  0  0  0
    3.8093    0.1823   -0.9446 C   0  0  0  0  0  0  0  0  0  0  0  0
    3.6301   -0.5476   -1.9655 O   0  0  0  0  0  0  0  0  0  0  0  0
    4.9115    1.0784   -0.8353 N   0  0  0  0  0  0  0  0  0  0  0  0
    5.8470    1.1578   -1.9118 C   0  0  0  0  0  0  0  0  0  0  0  0
    6.9317    2.1836   -1.5566 C   0  0  0  0  0  0  0  0  0  0  0  0
    6.5183    3.4780   -1.3213 F   0  0  0  0  0  0  0  0  0  0  0  0
    8.3157    1.9418   -2.0138 C   0  0  0  0  0  0  0  0  0  0  0  0
    7.9444    1.6819   -0.5731 C   0  0  0  0  0  0  0  0  0  0  0  0
    1.9768   -2.1442    0.4121 C   0  0  0  0  0  0  0  0  0  0  0  0
    3.1137   -2.6715    0.5061 O   0  0  0  0  0  0  0  0  0  0  0  0
    0.7730   -2.9006    0.7359 C   0  0  0  0  0  0  0  0  0  0  0  0
    0.9131   -4.2037    1.1275 C   0  0  0  0  0  0  0  0  0  0  0  0
   -0.1870   -4.9738    1.4303 C   0  0  0  0  0  0  0  0  0  0  0  0
   -1.4316   -4.3900    1.3261 C   0  0  0  0  0  0  0  0  0  0  0  0
   -2.5713   -5.0849    1.6079 F   0  0  0  0  0  0  0  0  0  0  0  0
   -1.5548   -3.0751    0.9302 C   0  0  0  0  0  0  0  0  0  0  0  0
   -0.4707   -2.2729    0.6189 C   0  0  0  0  0  0  0  0  0  0  0  0
  2  1  1  6
  2  3  1  0
  3  4  1  0
  4  5  1  0
  5  6  2  0
  6  7  1  0
  7  8  2  0
  8  9  1  0
  9 10  2  0
 10 11  1  0
 11 12  2  0
 12 13  1  0
 13 14  2  0
  4 15  1  0
 15 16  2  0
 15 17  1  0
 17 18  1  6
 18 19  1  0
 19 20  1  0
 20 21  1  0
 21 22  2  0
 21 23  1  0
 23 24  1  0
 24 25  1  0
 25 26  1  0
 25 27  1  0
 27 28  1  0
 19 29  1  0
 29 30  2  0
 29 31  1  0
 31 32  2  0
 32 33  1  0
 33 34  2  0
 34 35  1  0
 34 36  1  0
 36 37  2  0
 17  2  1  0
 28 25  1  0
 37 31  1  0
 14  5  1  0
 37 17  1  0
 14  9  1  0
M  END
$$$$

     RDKit          3D

 34 39  0  0  0  0  0  0  0  0999 V2000
    6.0490   -1.4320    3.2552 C   0  0  0  0  0  0  0  0  0  0  0  0
    5.3177   -0.2067    2.9185 N   0  0  0  0  0  0  0  0  0  0  0  0
    4.3492   -0.2276    1.8944 C   0  0  0  0  0  0  0  0  0  0  0  0
    4.1446   -1.3077    1.2995 O   0  0  0  0  0  0  0  0  0  0  0  0
    3.6362    1.0400    1.5919 C   0  0  0  0  0  0  0  0  0  0  0  0
    2.6636    0.8848    0.5203 N   0  0  0  0  0  0  0  0  0  0  0  0
    1.3084    0.5271    0.8586 C   0  0  0  0  0  0  0  0  0  0  0  0
    0.4706   -0.0101   -0.2438 C   0  0  2  0  0  0  0  0  0  0  0  0
   -0.8253    0.7352   -0.2027 C   0  0  0  0  0  0  0  0  0  0  0  0
   -0.9797    1.9409   -0.5989 O   0  0  0  0  0  0  0  0  0  0  0  0
   -1.8613   -0.0687    0.3331 N   0  0  0  0  0  0  0  0  0  0  0  0
   -3.0153    0.3520    1.0526 C   0  0  0  0  0  0  0  0  0  0  0  0
   -3.0116    0.4739    2.4367 C   0  0  0  0  0  0  0  0  0  0  0  0
   -4.1579    0.8794    3.0126 N   0  0  0  0  0  0  0  0  0  0  0  0
   -5.2812    1.1658    2.3292 C   0  0  0  0  0  0  0  0  0  0  0  0
   -5.3172    1.0546    0.9526 C   0  0  0  0  0  0  0  0  0  0  0  0
   -6.4534    1.3402    0.2144 C   0  0  0  0  0  0  0  0  0  0  0  0
   -6.4282    1.2091   -1.1725 C   0  0  0  0  0  0  0  0  0  0  0  0
   -5.2759    0.7939   -1.8359 C   0  0  0  0  0  0  0  0  0  0  0  0
   -4.1620    0.5173   -1.0751 C   0  0  0  0  0  0  0  0  0  0  0  0
   -4.1630    0.6414    0.3175 C   0  0  0  0  0  0  0  0  0  0  0  0
   -1.4723   -1.4422   -0.0244 C   0  0  0  0  0  0  0  0  0  0  0  0
    0.0313   -1.4270   -0.0491 C   0  0  0  0  0  0  0  0  0  0  0  0
    0.7949   -2.5405   -0.6200 C   0  0  0  0  0  0  0  0  0  0  0  0
    0.6812   -2.3866    0.8589 C   0  0  0  0  0  0  0  0  0  0  0  0
    0.9944    0.2366   -1.6136 C   0  0  0  0  0  0  0  0  0  0  0  0
    0.1803   -0.0792   -2.6715 C   0  0  0  0  0  0  0  0  0  0  0  0
    0.6339    0.1371   -3.9724 C   0  0  0  0  0  0  0  0  0  0  0  0
   -0.3935   -0.2608   -5.3371 Cl  0  0  0  0  0  0  0  0  0  0  0  0
    1.8748    0.6587   -4.2477 C   0  0  0  0  0  0  0  0  0  0  0  0
    2.6892    0.9744   -3.1792 C   0  0  0  0  0  0  0  0  0  0  0  0
    2.2325    0.7571   -1.8916 C   0  0  0  0  0  0  0  0  0  0  0  0
    3.1324    1.1078   -0.8002 C   0  0  0  0  0  0  0  0  0  0  0  0
    4.2711    1.5860   -1.0256 O   0  0  0  0  0  0  0  0  0  0  0  0
  1  2  1  0
  2  3  1  0
  3  4  2  0
  3  5  1  0
  5  6  1  0
  6  7  1  0
  8  7  1  1
  8  9  1  0
  9 10  2  0
  9 11  1  0
 11 12  1  0
 12 13  2  0
 13 14  1  0
 14 15  2  0
 15 16  1  0
 16 17  2  0
 17 18  1  0
 18 19  2  0
 19 20  1  0
 20 21  2  0
 11 22  1  0
 22 23  1  0
 23 24  1  0
 24 25  1  0
  8 26  1  0
 26 27  2  0
 27 28  1  0
 28 29  1  0
 28 30  2  0
 30 31  1  0
 31 32  2  0
 32 33  1  0
 33 34  2  0
 33  6  1  0
 23  8  1  0
 32 26  1  0
 21 12  1  0
 25 23  1  0
 21 16  1  0
M  END
$$$$

     RDKit          3D

 21 23  0  0  0  0  0  0  0  0999 V2000
   -5.3155    0.5679   -0.0221 C   0  0  0  0  0  0  0  0  0  0  0  0
   -3.8096    0.4369    0.0415 C   0  0  1  0  0  0  0  0  0  0  0  0
   -3.3383   -0.6034    1.0230 C   0  0  0  0  0  0  0  0  0  0  0  0
   -1.8475   -0.4145    1.1820 C   0  0  0  0  0  0  0  0  0  0  0  0
   -1.2070   -0.1909   -0.0990 N   0  0  0  0  0  0  0  0  0  0  0  0
    0.1313    0.3045   -0.1352 C   0  0  0  0  0  0  0  0  0  0  0  0
    0.6863    0.4959   -1.2614 O   0  0  0  0  0  0  0  0  0  0  0  0
    0.8491    0.5864    1.1365 C   0  0  0  0  0  0  0  0  0  0  0  0
    2.2057    1.0893    0.9190 C   0  0  0  0  0  0  0  0  0  0  0  0
    2.4210    2.4568    1.1045 C   0  0  0  0  0  0  0  0  0  0  0  0
    3.6366    3.0068    0.9261 N   0  0  0  0  0  0  0  0  0  0  0  0
    4.6960    2.2552    0.5601 C   0  0  0  0  0  0  0  0  0  0  0  0
    4.5026    0.8854    0.3692 C   0  0  0  0  0  0  0  0  0  0  0  0
    5.6003    0.1406   -0.0042 C   0  0  0  0  0  0  0  0  0  0  0  0
    5.4087   -1.2175   -0.1936 C   0  0  0  0  0  0  0  0  0  0  0  0
    4.1725   -1.8025   -0.0163 C   0  0  0  0  0  0  0  0  0  0  0  0
    3.0715   -1.0564    0.3581 C   0  0  0  0  0  0  0  0  0  0  0  0
    3.2593    0.2969    0.5473 C   0  0  0  0  0  0  0  0  0  0  0  0
   -1.9161   -0.4649   -1.3357 C   0  0  1  0  0  0  0  0  0  0  0  0
   -1.8667   -1.9314   -1.7114 C   0  0  0  0  0  0  0  0  0  0  0  0
   -3.3233    0.0509   -1.3306 C   0  0  0  0  0  0  0  0  0  0  0  0
  2  1  1  6
  2  3  1  0
  3  4  1  0
  4  5  1  0
  5  6  1  0
  6  7  2  0
  6  8  1  0
  8  9  1  0
  9 10  2  0
 10 11  1  0
 11 12  2  0
 12 13  1  0
 13 14  2  0
 14 15  1  0
 15 16  2  0
 16 17  1  0
 17 18  2  0
  5 19  1  0
 19 20  1  1
 19 21  1  0
 21  2  1  0
 18  9  1  0
 18 13  1  0
M  END
$$$$

     RDKit          3D

 35 40  0  0  0  0  0  0  0  0999 V2000
    0.2200   -0.2506    2.7245 C   0  0  0  0  0  0  0  0  0  0  0  0
   -0.4311   -1.0357    1.6228 C   0  0  1  0  0  0  0  0  0  0  0  0
   -1.8758   -0.5875    1.5546 C   0  0  0  0  0  0  0  0  0  0  0  0
   -1.9980    0.1362    0.3016 N   0  0  0  0  0  0  0  0  0  0  0  0
   -2.9166    1.1618   -0.0181 C   0  0  0  0  0  0  0  0  0  0  0  0
   -2.6767    2.5047    0.1869 C   0  0  0  0  0  0  0  0  0  0  0  0
   -3.5866    3.4521   -0.1347 N   0  0  0  0  0  0  0  0  0  0  0  0
   -4.7830    3.1027   -0.6779 C   0  0  0  0  0  0  0  0  0  0  0  0
   -5.0575    1.7648   -0.8974 C   0  0  0  0  0  0  0  0  0  0  0  0
   -6.2548    1.3599   -1.4451 C   0  0  0  0  0  0  0  0  0  0  0  0
   -6.5368    0.0309   -1.6672 C   0  0  0  0  0  0  0  0  0  0  0  0
   -5.6240   -0.9664   -1.3482 C   0  0  0  0  0  0  0  0  0  0  0  0
   -4.4139   -0.5480   -0.7939 C   0  0  0  0  0  0  0  0  0  0  0  0
   -4.1383    0.7839   -0.5743 C   0  0  0  0  0  0  0  0  0  0  0  0
   -0.9960   -0.3966   -0.5576 C   0  0  0  0  0  0  0  0  0  0  0  0
   -1.0732   -0.4810   -1.8284 O   0  0  0  0  0  0  0  0  0  0  0  0
    0.1824   -0.8505    0.2705 C   0  0  1  0  0  0  0  0  0  0  0  0
    1.1336    0.2927    0.2580 C   0  0  0  0  0  0  0  0  0  0  0  0
    2.5230   -0.0512    0.4614 N   0  0  0  0  0  0  0  0  0  0  0  0
    3.3504    0.9196    1.1455 C   0  0  0  0  0  0  0  0  0  0  0  0
    3.9950    1.9029    0.2557 C   0  0  0  0  0  0  0  0  0  0  0  0
    3.3570    3.0794   -0.1395 C   0  0  0  0  0  0  0  0  0  0  0  0
    4.2177    3.8015   -0.9623 C   0  0  0  0  0  0  0  0  0  0  0  0
    5.3422    3.0543   -1.0444 N   0  0  0  0  0  0  0  0  0  0  0  0
    5.1873    1.9455   -0.3213 N   0  0  0  0  0  0  0  0  0  0  0  0
    6.2298    0.9489   -0.2077 C   0  0  0  0  0  0  0  0  0  0  0  0
    2.9751   -1.2952   -0.0211 C   0  0  0  0  0  0  0  0  0  0  0  0
    4.1899   -1.5164   -0.1530 O   0  0  0  0  0  0  0  0  0  0  0  0
    2.0498   -2.3767   -0.3862 C   0  0  0  0  0  0  0  0  0  0  0  0
    2.5248   -3.6014   -0.8674 C   0  0  0  0  0  0  0  0  0  0  0  0
    1.5693   -4.5535   -1.1871 C   0  0  0  0  0  0  0  0  0  0  0  0
    0.2335   -4.3062   -1.0393 C   0  0  0  0  0  0  0  0  0  0  0  0
   -0.6719   -5.2598   -1.3618 F   0  0  0  0  0  0  0  0  0  0  0  0
   -0.2254   -3.1069   -0.5683 C   0  0  0  0  0  0  0  0  0  0  0  0
    0.7169   -2.1285   -0.2380 C   0  0  0  0  0  0  0  0  0  0  0  0
  2  1  1  1
  2  3  1  0
  3  4  1  0
  4  5  1  0
  5  6  2  0
  6  7  1  0
  7  8  2  0
  8  9  1  0
  9 10  2  0
 10 11  1  0
 11 12  2  0
 12 13  1  0
 13 14  2  0
  4 15  1  0
 15 16  2  0
 15 17  1  0
 17 18  1  1
 18 19  1  0
 19 20  1  0
 20 21  1  0
 21 22  2  0
 22 23  1  0
 23 24  2  0
 24 25  1  0
 25 26  1  0
 19 27  1  0
 27 28  2  0
 27 29  1  0
 29 30  2  0
 30 31  1  0
 31 32  2  0
 32 33  1  0
 32 34  1  0
 34 35  2  0
 17  2  1  0
 25 21  1  0
 35 29  1  0
 14  5  1  0
 35 17  1  0
 14  9  1  0
M  END
$$$$

     RDKit          3D

 22 24  0  0  0  0  0  0  0  0999 V2000
    0.5774   -0.7646   -1.4389 O   0  0  0  0  0  0  0  0  0  0  0  0
    0.0267   -0.7176   -0.3041 C   0  0  0  0  0  0  0  0  0  0  0  0
    0.8726   -0.8349    0.9176 C   0  0  0  0  0  0  0  0  0  0  0  0
    2.3111   -0.9836    0.5572 C   0  0  0  0  0  0  0  0  0  0  0  0
    2.9289   -2.2372    0.5894 C   0  0  0  0  0  0  0  0  0  0  0  0
    4.2259   -2.3988    0.2560 N   0  0  0  0  0  0  0  0  0  0  0  0
    4.9580   -1.3366   -0.1196 C   0  0  0  0  0  0  0  0  0  0  0  0
    4.4122   -0.0552   -0.1758 C   0  0  0  0  0  0  0  0  0  0  0  0
    5.2137    0.9944   -0.5627 C   0  0  0  0  0  0  0  0  0  0  0  0
    4.6516    2.2609   -0.6059 C   0  0  0  0  0  0  0  0  0  0  0  0
    3.3253    2.4518   -0.2694 C   0  0  0  0  0  0  0  0  0  0  0  0
    2.5306    1.3736    0.1201 C   0  0  0  0  0  0  0  0  0  0  0  0
    3.0812    0.0929    0.1691 C   0  0  0  0  0  0  0  0  0  0  0  0
   -1.3820   -0.5556   -0.2637 N   0  0  0  0  0  0  0  0  0  0  0  0
   -2.0800   -0.4775   -1.5322 C   0  0  0  0  0  0  0  0  0  0  0  0
   -3.2750    0.4332   -1.3887 C   0  0  0  0  0  0  0  0  0  0  0  0
   -4.2144   -0.0542   -0.3284 C   0  0  0  0  0  0  0  0  0  0  0  0
   -4.9637    1.0957    0.3372 C   0  0  0  0  0  0  0  0  0  0  0  0
   -5.8118    0.6095    1.3052 F   0  0  0  0  0  0  0  0  0  0  0  0
   -5.7221    1.7464   -0.6283 F   0  0  0  0  0  0  0  0  0  0  0  0
   -3.5767   -0.8788    0.7421 C   0  0  0  0  0  0  0  0  0  0  0  0
   -2.1207   -0.4642    0.9829 C   0  0  0  0  0  0  0  0  0  0  0  0
  1  2  2  0
  2  3  1  0
  3  4  1  0
  4  5  2  0
  5  6  1  0
  6  7  2  0
  7  8  1  0
  8  9  2  0
  9 10  1  0
 10 11  2  0
 11 12  1  0
 12 13  2  0
  2 14  1  0
 14 15  1  0
 15 16  1  0
 16 17  1  0
 17 18  1  0
 18 19  1  0
 18 20  1  0
 17 21  1  0
 21 22  1  0
 13  4  1  0
 22 14  1  0
 13  8  1  0
M  END
$$$$

     RDKit          3D

 21 23  0  0  0  0  0  0  0  0999 V2000
   -4.3277    0.4739    1.4389 C   0  0  0  0  0  0  0  0  0  0  0  0
   -3.7511   -0.2767    0.2552 C   0  0  0  0  0  0  0  0  0  0  0  0
   -4.8655   -1.2426   -0.1656 C   0  0  0  0  0  0  0  0  0  0  0  0
   -3.5495    0.6206   -0.9347 C   0  0  0  0  0  0  0  0  0  0  0  0
   -2.3834    1.5388   -0.6480 C   0  0  0  0  0  0  0  0  0  0  0  0
   -1.2205    0.6688   -0.5756 N   0  0  0  0  0  0  0  0  0  0  0  0
    0.0644    1.1325   -1.0570 C   0  0  0  0  0  0  0  0  0  0  0  0
    0.2033    2.3128   -1.4914 O   0  0  0  0  0  0  0  0  0  0  0  0
    1.2645    0.2787   -1.0668 C   0  0  0  0  0  0  0  0  0  0  0  0
    2.2738    0.6473   -0.0555 C   0  0  0  0  0  0  0  0  0  0  0  0
    2.0234    1.5869    0.9140 C   0  0  0  0  0  0  0  0  0  0  0  0
    3.0208    1.8285    1.8095 N   0  0  0  0  0  0  0  0  0  0  0  0
    4.2085    1.1984    1.7836 C   0  0  0  0  0  0  0  0  0  0  0  0
    4.4775    0.2514    0.8172 C   0  0  0  0  0  0  0  0  0  0  0  0
    5.6626   -0.4263    0.7349 C   0  0  0  0  0  0  0  0  0  0  0  0
    5.9382   -1.3706   -0.2220 C   0  0  0  0  0  0  0  0  0  0  0  0
    4.9579   -1.6497   -1.1554 C   0  0  0  0  0  0  0  0  0  0  0  0
    3.7431   -0.9721   -1.0909 C   0  0  0  0  0  0  0  0  0  0  0  0
    3.4910   -0.0293   -0.1207 C   0  0  0  0  0  0  0  0  0  0  0  0
   -1.2535   -0.6542   -0.0083 C   0  0  0  0  0  0  0  0  0  0  0  0
   -2.5526   -1.0820    0.5754 C   0  0  0  0  0  0  0  0  0  0  0  0
  1  2  1  0
  2  3  1  0
  2  4  1  0
  4  5  1  0
  5  6  1  0
  6  7  1  0
  7  8  2  0
  7  9  1  0
  9 10  1  0
 10 11  2  0
 11 12  1  0
 12 13  2  0
 13 14  1  0
 14 15  2  0
 15 16  1  0
 16 17  2  0
 17 18  1  0
 18 19  2  0
  6 20  1  0
 20 21  1  0
 21  2  1  0
 19 10  1  0
 19 14  1  0
M  END
$$$$

     RDKit          3D

 38 42  0  0  0  0  0  0  0  0999 V2000
    2.1060   -5.3365   -0.1885 C   0  0  0  0  0  0  0  0  0  0  0  0
    2.3223   -4.3272   -1.1931 N   0  0  0  0  0  0  0  0  0  0  0  0
    2.2198   -2.9320   -0.8495 C   0  0  0  0  0  0  0  0  0  0  0  0
    1.9389   -2.6899    0.3455 O   0  0  0  0  0  0  0  0  0  0  0  0
    2.4497   -1.9633   -1.9103 C   0  0  0  0  0  0  0  0  0  0  0  0
    2.3445   -0.5817   -1.5794 N   0  0  0  0  0  0  0  0  0  0  0  0
    1.0979    0.1198   -1.7479 C   0  0  0  0  0  0  0  0  0  0  0  0
    0.7998    0.9925   -0.5986 C   0  0  2  0  0  0  0  0  0  0  0  0
    0.3730    0.1303    0.5707 C   0  0  0  0  0  0  0  0  0  0  0  0
    0.9877   -0.0867    1.6388 O   0  0  0  0  0  0  0  0  0  0  0  0
   -0.9101   -0.3723    0.1467 N   0  0  0  0  0  0  0  0  0  0  0  0
   -1.4639   -1.6114    0.5589 C   0  0  0  0  0  0  0  0  0  0  0  0
   -1.2763   -2.7991   -0.0979 C   0  0  0  0  0  0  0  0  0  0  0  0
   -1.8159   -3.9666    0.3168 N   0  0  0  0  0  0  0  0  0  0  0  0
   -2.5822   -4.0267    1.4197 C   0  0  0  0  0  0  0  0  0  0  0  0
   -2.8095   -2.8638    2.1267 C   0  0  0  0  0  0  0  0  0  0  0  0
   -3.6036   -2.9691    3.2558 C   0  0  0  0  0  0  0  0  0  0  0  0
   -3.8579   -1.8364    3.9926 C   0  0  0  0  0  0  0  0  0  0  0  0
   -3.3172   -0.6368    3.5866 C   0  0  0  0  0  0  0  0  0  0  0  0
   -2.5182   -0.5186    2.4545 C   0  0  0  0  0  0  0  0  0  0  0  0
   -2.2605   -1.6650    1.7084 C   0  0  0  0  0  0  0  0  0  0  0  0
   -1.4958    0.6069   -0.7460 C   0  0  0  0  0  0  0  0  0  0  0  0
   -0.4926    1.7763   -0.7725 C   0  0  2  0  0  0  0  0  0  0  0  0
   -0.6222    2.4468   -2.0850 C   0  0  0  0  0  0  0  0  0  0  0  0
   -2.0912    3.3672   -2.3739 S   0  0  0  0  0  0  0  0  0  0  0  0
   -2.0387    4.0058   -3.7624 O   0  0  0  0  0  0  0  0  0  0  0  0
   -3.2869    2.4431   -2.3017 O   0  0  0  0  0  0  0  0  0  0  0  0
   -2.2731    4.6386   -1.2618 N   0  0  0  0  0  0  0  0  0  0  0  0
   -2.3970    4.2737    0.1017 C   0  0  0  0  0  0  0  0  0  0  0  0
    1.9504    1.7591   -0.1580 C   0  0  0  0  0  0  0  0  0  0  0  0
    1.8193    2.9665    0.5442 C   0  0  0  0  0  0  0  0  0  0  0  0
    2.9470    3.6708    0.9744 C   0  0  0  0  0  0  0  0  0  0  0  0
    2.8053    4.8404    1.6544 F   0  0  0  0  0  0  0  0  0  0  0  0
    4.2275    3.2265    0.7369 C   0  0  0  0  0  0  0  0  0  0  0  0
    4.3589    2.0441    0.0488 C   0  0  0  0  0  0  0  0  0  0  0  0
    3.2508    1.3526   -0.3740 C   0  0  0  0  0  0  0  0  0  0  0  0
    3.4860    0.1218   -1.1188 C   0  0  0  0  0  0  0  0  0  0  0  0
    4.6264   -0.3073   -1.3495 O   0  0  0  0  0  0  0  0  0  0  0  0
  1  2  1  0
  2  3  1  0
  3  4  2  0
  3  5  1  0
  5  6  1  0
  6  7  1  0
  8  7  1  6
  8  9  1  0
  9 10  2  0
  9 11  1  0
 11 12  1  0
 12 13  2  0
 13 14  1  0
 14 15  2  0
 15 16  1  0
 16 17  2  0
 17 18  1  0
 18 19  2  0
 19 20  1  0
 20 21  2  0
 11 22  1  0
 22 23  1  0
 23 24  1  6
 24 25  1  0
 25 26  2  0
 25 27  2  0
 25 28  1  0
 28 29  1  0
  8 30  1  0
 30 31  2  0
 31 32  1  0
 32 33  1  0
 32 34  2  0
 34 35  1  0
 35 36  2  0
 36 37  1  0
 37 38  2  0
 37  6  1  0
 23  8  1  0
 36 30  1  0
 21 12  1  0
 21 16  1  0
M  END
$$$$

     RDKit          3D

 40 45  0  0  0  0  0  0  0  0999 V2000
    4.7889   -1.8476   -2.3037 C   0  0  0  0  0  0  0  0  0  0  0  0
    4.0607   -0.6045   -2.1623 N   0  0  0  0  0  0  0  0  0  0  0  0
    3.9032    0.3541   -3.1843 C   0  0  0  0  0  0  0  0  0  0  0  0
    4.4064    0.1770   -4.3396 O   0  0  0  0  0  0  0  0  0  0  0  0
    3.1282    1.5873   -2.8692 C   0  0  0  0  0  0  0  0  0  0  0  0
    2.6292    1.5964   -1.4912 N   0  0  0  0  0  0  0  0  0  0  0  0
    1.3182    1.0963   -1.2353 C   0  0  0  0  0  0  0  0  0  0  0  0
    0.8664    1.0039    0.1743 C   0  0  2  0  0  0  0  0  0  0  0  0
    0.7544   -0.4464    0.4912 C   0  0  0  0  0  0  0  0  0  0  0  0
    1.6700   -1.3217    0.4245 O   0  0  0  0  0  0  0  0  0  0  0  0
   -0.5536   -0.7577    0.8978 N   0  0  0  0  0  0  0  0  0  0  0  0
   -1.0410   -1.9787    1.4590 C   0  0  0  0  0  0  0  0  0  0  0  0
   -0.9396   -2.1189    2.8464 C   0  0  0  0  0  0  0  0  0  0  0  0
   -1.3927   -3.2515    3.4585 N   0  0  0  0  0  0  0  0  0  0  0  0
   -1.9442   -4.2405    2.7007 C   0  0  0  0  0  0  0  0  0  0  0  0
   -2.0551   -4.1307    1.3494 C   0  0  0  0  0  0  0  0  0  0  0  0
   -2.6320   -5.1743    0.6386 C   0  0  0  0  0  0  0  0  0  0  0  0
   -2.7342   -5.0281   -0.7334 C   0  0  0  0  0  0  0  0  0  0  0  0
   -2.2796   -3.8894   -1.3613 C   0  0  0  0  0  0  0  0  0  0  0  0
   -1.7091   -2.8617   -0.6370 C   0  0  0  0  0  0  0  0  0  0  0  0
   -1.5972   -2.9904    0.7399 C   0  0  0  0  0  0  0  0  0  0  0  0
   -1.3963    0.3755    0.6555 C   0  0  0  0  0  0  0  0  0  0  0  0
   -0.4965    1.5448    0.4686 C   0  0  2  0  0  0  0  0  0  0  0  0
   -1.0194    2.5255   -0.5616 C   0  0  0  0  0  0  0  0  0  0  0  0
   -2.3142    3.0795   -0.2870 N   0  0  0  0  0  0  0  0  0  0  0  0
   -3.5495    2.4066   -0.3235 C   0  0  0  0  0  0  0  0  0  0  0  0
   -4.0748    2.1779   -1.6053 C   0  0  0  0  0  0  0  0  0  0  0  0
   -5.2630    1.5513   -1.7701 N   0  0  0  0  0  0  0  0  0  0  0  0
   -5.9539    1.1410   -0.7054 C   0  0  0  0  0  0  0  0  0  0  0  0
   -5.4581    1.3550    0.5603 C   0  0  0  0  0  0  0  0  0  0  0  0
   -4.2583    1.9874    0.7319 N   0  0  0  0  0  0  0  0  0  0  0  0
    1.8569    1.5222    1.1763 C   0  0  0  0  0  0  0  0  0  0  0  0
    1.5146    1.4654    2.5259 C   0  0  0  0  0  0  0  0  0  0  0  0
    2.3866    1.9515    3.4881 C   0  0  0  0  0  0  0  0  0  0  0  0
    1.9669    1.8907    5.1862 Cl  0  0  0  0  0  0  0  0  0  0  0  0
    3.6003    2.4978    3.1558 C   0  0  0  0  0  0  0  0  0  0  0  0
    3.9471    2.5564    1.8184 C   0  0  0  0  0  0  0  0  0  0  0  0
    3.0664    2.0676    0.8716 C   0  0  0  0  0  0  0  0  0  0  0  0
    3.5111    2.1291   -0.5156 C   0  0  0  0  0  0  0  0  0  0  0  0
    4.6094    2.6239   -0.8336 O   0  0  0  0  0  0  0  0  0  0  0  0
  1  2  1  0
  2  3  1  0
  3  4  2  0
  3  5  1  0
  5  6  1  0
  6  7  1  0
  8  7  1  6
  8  9  1  0
  9 10  2  0
  9 11  1  0
 11 12  1  0
 12 13  2  0
 13 14  1  0
 14 15  2  0
 15 16  1  0
 16 17  2  0
 17 18  1  0
 18 19  2  0
 19 20  1  0
 20 21  2  0
 11 22  1  0
 22 23  1  0
 23 24  1  6
 24 25  1  0
 25 26  1  0
 26 27  2  0
 27 28  1  0
 28 29  2  0
 29 30  1  0
 30 31  2  0
  8 32  1  0
 32 33  2  0
 33 34  1  0
 34 35  1  0
 34 36  2  0
 36 37  1  0
 37 38  2  0
 38 39  1  0
 39 40  2  0
 39  6  1  0
 23  8  1  0
 31 26  1  0
 38 32  1  0
 21 12  1  0
 21 16  1  0
M  END
$$$$

     RDKit          3D

 36 41  0  0  0  0  0  0  0  0999 V2000
    1.2419    4.0565    1.9357 C   0  0  0  0  0  0  0  0  0  0  0  0
    0.2168    4.0946    1.0803 O   0  0  0  0  0  0  0  0  0  0  0  0
   -0.4881    3.0373    0.6634 C   0  0  0  0  0  0  0  0  0  0  0  0
    0.2418    2.0276   -0.1189 C   0  0  1  0  0  0  0  0  0  0  0  0
    1.3717    1.3699    0.5685 C   0  0  0  0  0  0  0  0  0  0  0  0
    1.3566   -0.0295    0.0814 N   0  0  0  0  0  0  0  0  0  0  0  0
    2.1788   -1.0745    0.6026 C   0  0  0  0  0  0  0  0  0  0  0  0
    1.7995   -1.8868    1.6471 C   0  0  0  0  0  0  0  0  0  0  0  0
    2.6156   -2.8550    2.0938 N   0  0  0  0  0  0  0  0  0  0  0  0
    3.8181   -3.0305    1.5110 C   0  0  0  0  0  0  0  0  0  0  0  0
    4.2586   -2.2564    0.4659 C   0  0  0  0  0  0  0  0  0  0  0  0
    5.5089   -2.4604   -0.1186 C   0  0  0  0  0  0  0  0  0  0  0  0
    5.8798   -1.6378   -1.1680 C   0  0  0  0  0  0  0  0  0  0  0  0
    5.0470   -0.6297   -1.6437 C   0  0  0  0  0  0  0  0  0  0  0  0
    3.8048   -0.4445   -1.0457 C   0  0  0  0  0  0  0  0  0  0  0  0
    3.4116   -1.2500    0.0008 C   0  0  0  0  0  0  0  0  0  0  0  0
    0.3994   -0.0994   -0.9732 C   0  0  0  0  0  0  0  0  0  0  0  0
    0.4861   -0.8644   -1.9582 O   0  0  0  0  0  0  0  0  0  0  0  0
   -0.6355    0.9006   -0.6067 C   0  0  1  0  0  0  0  0  0  0  0  0
   -1.4092    0.2701    0.5379 C   0  0  0  0  0  0  0  0  0  0  0  0
   -2.1716   -0.8536   -0.0161 N   0  0  0  0  0  0  0  0  0  0  0  0
   -2.0468   -2.2025    0.4734 C   0  0  0  0  0  0  0  0  0  0  0  0
   -3.0360   -2.4187    1.5790 C   0  0  0  0  0  0  0  0  0  0  0  0
   -2.8738   -2.2149    2.9311 C   0  0  0  0  0  0  0  0  0  0  0  0
   -4.0354   -2.5443    3.5424 N   0  0  0  0  0  0  0  0  0  0  0  0
   -4.9196   -2.9439    2.6518 N   0  0  0  0  0  0  0  0  0  0  0  0
   -4.3276   -2.8762    1.4284 C   0  0  0  0  0  0  0  0  0  0  0  0
   -3.0574   -0.5180   -1.0808 C   0  0  0  0  0  0  0  0  0  0  0  0
   -4.1025   -1.1902   -1.2449 O   0  0  0  0  0  0  0  0  0  0  0  0
   -2.6742    0.6098   -1.9220 C   0  0  0  0  0  0  0  0  0  0  0  0
   -3.5464    0.9345   -2.9430 C   0  0  0  0  0  0  0  0  0  0  0  0
   -3.3058    1.9862   -3.8020 C   0  0  0  0  0  0  0  0  0  0  0  0
   -2.1556    2.7027   -3.5999 C   0  0  0  0  0  0  0  0  0  0  0  0
   -1.8281    4.0403   -4.6750 Cl  0  0  0  0  0  0  0  0  0  0  0  0
   -1.2700    2.3733   -2.5639 C   0  0  0  0  0  0  0  0  0  0  0  0
   -1.4908    1.3346   -1.7022 C   0  0  0  0  0  0  0  0  0  0  0  0
  1  2  1  0
  2  3  1  0
  4  3  1  1
  4  5  1  0
  5  6  1  0
  6  7  1  0
  7  8  2  0
  8  9  1  0
  9 10  2  0
 10 11  1  0
 11 12  2  0
 12 13  1  0
 13 14  2  0
 14 15  1  0
 15 16  2  0
  6 17  1  0
 17 18  2  0
 17 19  1  0
 19 20  1  1
 20 21  1  0
 21 22  1  0
 22 23  1  0
 23 24  1  0
 24 25  2  0
 25 26  1  0
 26 27  1  0
 21 28  1  0
 28 29  2  0
 28 30  1  0
 30 31  2  0
 31 32  1  0
 32 33  2  0
 33 34  1  0
 33 35  1  0
 35 36  2  0
 19  4  1  0
 27 23  2  0
 36 30  1  0
 16  7  1  0
 36 19  1  0
 16 11  1  0
M  END
$$$$

     RDKit          3D

 36 41  0  0  0  0  0  0  0  0999 V2000
   -5.4791    1.2531   -2.1369 C   0  0  0  0  0  0  0  0  0  0  0  0
   -4.4826    1.0435   -1.0003 C   0  0  0  0  0  0  0  0  0  0  0  0
   -3.1945    1.5064   -1.4428 N   0  0  0  0  0  0  0  0  0  0  0  0
   -2.7893    2.7653   -1.2744 N   0  0  0  0  0  0  0  0  0  0  0  0
   -1.5598    2.9357   -1.7828 C   0  0  0  0  0  0  0  0  0  0  0  0
   -1.2001    1.7075   -2.2884 C   0  0  0  0  0  0  0  0  0  0  0  0
   -2.2494    0.7986   -2.0675 C   0  0  0  0  0  0  0  0  0  0  0  0
   -2.1583   -0.5997   -2.5002 C   0  0  0  0  0  0  0  0  0  0  0  0
   -1.5761   -1.5251   -1.5747 N   0  0  0  0  0  0  0  0  0  0  0  0
   -0.1570   -1.7568   -1.5837 C   0  0  0  0  0  0  0  0  0  0  0  0
    0.4174   -1.5931   -0.2189 C   0  0  2  0  0  0  0  0  0  0  0  0
    0.4075   -0.1499    0.1355 C   0  0  0  0  0  0  0  0  0  0  0  0
   -0.5518    0.4833    0.6431 O   0  0  0  0  0  0  0  0  0  0  0  0
    1.6504    0.4670   -0.1713 N   0  0  0  0  0  0  0  0  0  0  0  0
    2.1335    1.7606    0.0536 C   0  0  0  0  0  0  0  0  0  0  0  0
    2.0202    2.8207   -0.8189 C   0  0  0  0  0  0  0  0  0  0  0  0
    2.4923    4.0489   -0.5720 N   0  0  0  0  0  0  0  0  0  0  0  0
    3.1233    4.3433    0.5662 C   0  0  0  0  0  0  0  0  0  0  0  0
    3.2690    3.3138    1.4876 C   0  0  0  0  0  0  0  0  0  0  0  0
    3.9318    3.6522    2.6661 C   0  0  0  0  0  0  0  0  0  0  0  0
    4.1029    2.6629    3.6172 C   0  0  0  0  0  0  0  0  0  0  0  0
    3.6350    1.3699    3.4181 C   0  0  0  0  0  0  0  0  0  0  0  0
    2.9858    1.0951    2.2296 C   0  0  0  0  0  0  0  0  0  0  0  0
    2.7923    2.0430    1.2569 C   0  0  0  0  0  0  0  0  0  0  0  0
    2.4330   -0.5807   -0.8252 C   0  0  0  0  0  0  0  0  0  0  0  0
    1.8979   -1.8804   -0.1944 C   0  0  2  0  0  0  0  0  0  0  0  0
    2.3015   -3.0438   -1.0436 C   0  0  0  0  0  0  0  0  0  0  0  0
   -0.3816   -2.3480    0.7681 C   0  0  0  0  0  0  0  0  0  0  0  0
    0.1613   -2.7950    1.9836 C   0  0  0  0  0  0  0  0  0  0  0  0
   -0.5983   -3.4979    2.9018 C   0  0  0  0  0  0  0  0  0  0  0  0
   -0.0508   -3.9245    4.0796 F   0  0  0  0  0  0  0  0  0  0  0  0
   -1.9226   -3.7982    2.6793 C   0  0  0  0  0  0  0  0  0  0  0  0
   -2.4701   -3.3670    1.4926 C   0  0  0  0  0  0  0  0  0  0  0  0
   -1.7142   -2.6731    0.5896 C   0  0  0  0  0  0  0  0  0  0  0  0
   -2.3598   -2.2468   -0.6411 C   0  0  0  0  0  0  0  0  0  0  0  0
   -3.5665   -2.5090   -0.8709 O   0  0  0  0  0  0  0  0  0  0  0  0
  1  2  1  0
  2  3  1  0
  3  4  1  0
  4  5  2  0
  5  6  1  0
  6  7  2  0
  7  8  1  0
  8  9  1  0
  9 10  1  0
 11 10  1  6
 11 12  1  0
 12 13  2  0
 12 14  1  0
 14 15  1  0
 15 16  2  0
 16 17  1  0
 17 18  2  0
 18 19  1  0
 19 20  2  0
 20 21  1  0
 21 22  2  0
 22 23  1  0
 23 24  2  0
 14 25  1  0
 25 26  1  0
 26 27  1  6
 11 28  1  0
 28 29  2  0
 29 30  1  0
 30 31  1  0
 30 32  2  0
 32 33  1  0
 33 34  2  0
 34 35  1  0
 35 36  2  0
  7  3  1  0
 35  9  1  0
 26 11  1  0
 34 28  1  0
 24 15  1  0
 24 19  1  0
M  END
$$$$

     RDKit          3D

 29 30  0  0  0  0  0  0  0  0999 V2000
   -7.8026   -0.3962    0.6198 C   0  0  0  0  0  0  0  0  0  0  0  0
   -7.6812    0.9846    0.2230 N   0  0  0  0  0  0  0  0  0  0  0  0
   -6.4157    1.1928   -0.9517 S   0  0  0  0  0  0  0  0  0  0  0  0
   -6.3418    2.6454   -1.3203 O   0  0  0  0  0  0  0  0  0  0  0  0
   -6.7374    0.4125   -2.1928 O   0  0  0  0  0  0  0  0  0  0  0  0
   -4.9370    0.7397   -0.3016 O   0  0  0  0  0  0  0  0  0  0  0  0
   -4.2180    1.8593    0.0300 C   0  0  0  0  0  0  0  0  0  0  0  0
   -2.8948    1.5556    0.6334 C   0  0  0  0  0  0  0  0  0  0  0  0
   -2.1350    2.5137    0.9830 O   0  0  0  0  0  0  0  0  0  0  0  0
   -2.4686    0.1943    0.8244 N   0  0  0  0  0  0  0  0  0  0  0  0
   -1.1770   -0.1010    1.4143 C   0  0  1  0  0  0  0  0  0  0  0  0
   -1.3775   -0.8369    2.6874 C   0  0  0  0  0  0  0  0  0  0  0  0
   -0.2368   -0.7555    0.4772 C   0  0  0  0  0  0  0  0  0  0  0  0
   -0.6511   -1.7984   -0.3612 C   0  0  0  0  0  0  0  0  0  0  0  0
    0.2698   -2.3903   -1.2287 C   0  0  0  0  0  0  0  0  0  0  0  0
   -0.2102   -3.6965   -2.2919 Cl  0  0  0  0  0  0  0  0  0  0  0  0
    1.5854   -1.9816   -1.2908 C   0  0  0  0  0  0  0  0  0  0  0  0
    1.9957   -0.9503   -0.4619 C   0  0  0  0  0  0  0  0  0  0  0  0
    3.3766   -0.4736   -0.4804 C   0  0  0  0  0  0  0  0  0  0  0  0
    3.9101    0.0252    0.7075 C   0  0  0  0  0  0  0  0  0  0  0  0
    5.2052    0.4983    0.7898 C   0  0  0  0  0  0  0  0  0  0  0  0
    6.0000    0.4784   -0.3377 C   0  0  0  0  0  0  0  0  0  0  0  0
    7.6540    1.0567   -0.3354 S   0  0  0  0  0  0  0  0  0  0  0  0
    8.7487   -0.2374    0.0651 N   0  0  0  0  0  0  0  0  0  0  0  0
    7.7646    2.1415    0.6855 O   0  0  0  0  0  0  0  0  0  0  0  0
    8.0449    1.5731   -1.6902 O   0  0  0  0  0  0  0  0  0  0  0  0
    5.4759   -0.0169   -1.5246 C   0  0  0  0  0  0  0  0  0  0  0  0
    4.1687   -0.4928   -1.6015 C   0  0  0  0  0  0  0  0  0  0  0  0
    1.0975   -0.3562    0.3999 C   0  0  0  0  0  0  0  0  0  0  0  0
  1  2  1  0
  2  3  1  0
  3  4  2  0
  3  5  2  0
  3  6  1  0
  6  7  1  0
  7  8  1  0
  8  9  2  0
  8 10  1  0
 10 11  1  0
 11 12  1  1
 11 13  1  0
 13 14  2  0
 14 15  1  0
 15 16  1  0
 15 17  2  0
 17 18  1  0
 18 19  1  0
 19 20  2  0
 20 21  1  0
 21 22  2  0
 22 23  1  0
 23 24  1  0
 23 25  2  0
 23 26  2  0
 22 27  1  0
 27 28  2  0
 18 29  2  0
 29 13  1  0
 28 19  1  0
M  END
$$$$

     RDKit          3D

 40 45  0  0  0  0  0  0  0  0999 V2000
   -4.9730    2.4375   -4.1190 C   0  0  0  0  0  0  0  0  0  0  0  0
   -3.7415    2.6871   -3.3553 N   0  0  0  0  0  0  0  0  0  0  0  0
   -3.5210    1.9597   -2.1502 C   0  0  0  0  0  0  0  0  0  0  0  0
   -4.3644    1.1051   -1.7310 O   0  0  0  0  0  0  0  0  0  0  0  0
   -2.2655    2.2243   -1.3788 C   0  0  0  0  0  0  0  0  0  0  0  0
   -2.2004    1.4059   -0.1879 N   0  0  0  0  0  0  0  0  0  0  0  0
   -1.6154    0.0860   -0.1371 C   0  0  0  0  0  0  0  0  0  0  0  0
   -0.4958    0.0835    0.8796 C   0  0  2  0  0  0  0  0  0  0  0  0
    0.5241    1.1251    0.4631 C   0  0  0  0  0  0  0  0  0  0  0  0
    0.3223    2.3810    0.3853 O   0  0  0  0  0  0  0  0  0  0  0  0
    1.7592    0.4680    0.1687 N   0  0  0  0  0  0  0  0  0  0  0  0
    3.0650    1.0074    0.2737 C   0  0  0  0  0  0  0  0  0  0  0  0
    3.7320    0.9007    1.5022 C   0  0  0  0  0  0  0  0  0  0  0  0
    4.9753    1.4062    1.6306 N   0  0  0  0  0  0  0  0  0  0  0  0
    5.5850    2.0185    0.5751 C   0  0  0  0  0  0  0  0  0  0  0  0
    4.9448    2.1357   -0.6500 C   0  0  0  0  0  0  0  0  0  0  0  0
    5.5989    2.7665   -1.7125 C   0  0  0  0  0  0  0  0  0  0  0  0
    4.9059    2.8499   -2.9158 C   0  0  0  0  0  0  0  0  0  0  0  0
    3.6277    2.3363   -3.0672 C   0  0  0  0  0  0  0  0  0  0  0  0
    3.0046    1.7261   -2.0262 C   0  0  0  0  0  0  0  0  0  0  0  0
    3.6661    1.6206   -0.7974 C   0  0  0  0  0  0  0  0  0  0  0  0
    1.3479   -0.8760   -0.2630 C   0  0  0  0  0  0  0  0  0  0  0  0
    0.3208   -1.1490    0.8508 C   0  0  2  0  0  0  0  0  0  0  0  0
   -0.4215   -2.4314    0.6287 C   0  0  0  0  0  0  0  0  0  0  0  0
    0.4265   -3.6014    0.6023 N   0  0  0  0  0  0  0  0  0  0  0  0
   -0.1110   -4.9043    0.4193 C   0  0  0  0  0  0  0  0  0  0  0  0
   -0.4144   -5.6732    1.4961 C   0  0  0  0  0  0  0  0  0  0  0  0
   -0.9467   -6.9589    1.3954 C   0  0  0  0  0  0  0  0  0  0  0  0
   -1.1593   -7.4336    0.1362 N   0  0  0  0  0  0  0  0  0  0  0  0
   -0.8617   -6.6786   -0.9349 C   0  0  0  0  0  0  0  0  0  0  0  0
   -0.3442   -5.4298   -0.8089 N   0  0  0  0  0  0  0  0  0  0  0  0
   -1.0254    0.5071    2.1732 C   0  0  0  0  0  0  0  0  0  0  0  0
   -0.5179    0.0910    3.3977 C   0  0  0  0  0  0  0  0  0  0  0  0
   -1.0461    0.5398    4.6054 C   0  0  0  0  0  0  0  0  0  0  0  0
   -0.3594   -0.0244    6.1383 Cl  0  0  0  0  0  0  0  0  0  0  0  0
   -2.1034    1.4228    4.6537 C   0  0  0  0  0  0  0  0  0  0  0  0
   -2.6153    1.8422    3.4453 C   0  0  0  0  0  0  0  0  0  0  0  0
   -2.0969    1.4012    2.2606 C   0  0  0  0  0  0  0  0  0  0  0  0
   -2.7499    1.9063    1.0329 C   0  0  0  0  0  0  0  0  0  0  0  0
   -3.7120    2.7123    1.0683 O   0  0  0  0  0  0  0  0  0  0  0  0
  1  2  1  0
  2  3  1  0
  3  4  2  0
  3  5  1  0
  5  6  1  0
  6  7  1  0
  8  7  1  6
  8  9  1  0
  9 10  2  0
  9 11  1  0
 11 12  1  0
 12 13  2  0
 13 14  1  0
 14 15  2  0
 15 16  1  0
 16 17  2  0
 17 18  1  0
 18 19  2  0
 19 20  1  0
 20 21  2  0
 11 22  1  0
 22 23  1  0
 23 24  1  6
 24 25  1  0
 25 26  1  0
 26 27  2  0
 27 28  1  0
 28 29  2  0
 29 30  1  0
 30 31  2  0
  8 32  1  0
 32 33  2  0
 33 34  1  0
 34 35  1  0
 34 36  2  0
 36 37  1  0
 37 38  2  0
 38 39  1  0
 39 40  2  0
 39  6  1  0
 23  8  1  0
 31 26  1  0
 38 32  1  0
 21 12  1  0
 21 16  1  0
M  END
$$$$

     RDKit          3D

 37 41  0  0  0  0  0  0  0  0999 V2000
    5.8503    0.4392    1.9882 C   0  0  0  0  0  0  0  0  0  0  0  0
    4.6422    0.7043    1.2077 N   0  0  0  0  0  0  0  0  0  0  0  0
    3.9701    1.9472    1.2276 C   0  0  0  0  0  0  0  0  0  0  0  0
    4.4041    2.8912    1.9396 O   0  0  0  0  0  0  0  0  0  0  0  0
    2.7520    2.0938    0.3897 C   0  0  0  0  0  0  0  0  0  0  0  0
    2.4295    0.8834   -0.3500 N   0  0  0  0  0  0  0  0  0  0  0  0
    1.5689   -0.1595    0.1809 C   0  0  0  0  0  0  0  0  0  0  0  0
    0.4220   -0.3493   -0.7788 C   0  0  2  0  0  0  0  0  0  0  0  0
   -0.3875    0.8973   -0.7021 C   0  0  0  0  0  0  0  0  0  0  0  0
   -0.2167    1.9376   -1.4163 O   0  0  0  0  0  0  0  0  0  0  0  0
   -1.3654    0.6850    0.3105 N   0  0  0  0  0  0  0  0  0  0  0  0
   -2.3776    1.6218    0.6800 C   0  0  0  0  0  0  0  0  0  0  0  0
   -3.5759    1.5111   -0.0368 C   0  0  0  0  0  0  0  0  0  0  0  0
   -4.5787    2.3431    0.2386 N   0  0  0  0  0  0  0  0  0  0  0  0
   -4.4560    3.2862    1.1939 C   0  0  0  0  0  0  0  0  0  0  0  0
   -3.3004    3.4097    1.9011 C   0  0  0  0  0  0  0  0  0  0  0  0
   -3.1858    4.3792    2.8777 C   0  0  0  0  0  0  0  0  0  0  0  0
   -1.9930    4.4804    3.5832 C   0  0  0  0  0  0  0  0  0  0  0  0
   -0.9290    3.6179    3.3101 C   0  0  0  0  0  0  0  0  0  0  0  0
   -1.0413    2.6490    2.3351 C   0  0  0  0  0  0  0  0  0  0  0  0
   -2.2229    2.5679    1.6546 C   0  0  0  0  0  0  0  0  0  0  0  0
   -1.1598   -0.6291    0.8936 C   0  0  0  0  0  0  0  0  0  0  0  0
   -0.5957   -1.3594   -0.3207 C   0  0  2  0  0  0  0  0  0  0  0  0
   -0.0665   -2.6952   -0.0115 C   0  0  0  0  0  0  0  0  0  0  0  0
   -1.0702   -3.5302    0.3818 O   0  0  0  0  0  0  0  0  0  0  0  0
   -2.0665   -3.8241   -0.4844 C   0  0  0  0  0  0  0  0  0  0  0  0
   -2.1486   -5.2929   -0.8570 C   0  0  0  0  0  0  0  0  0  0  0  0
   -3.3871   -3.3454    0.0778 C   0  0  0  0  0  0  0  0  0  0  0  0
    0.9153   -0.6079   -2.1449 C   0  0  0  0  0  0  0  0  0  0  0  0
    0.2260   -1.3392   -3.0919 C   0  0  0  0  0  0  0  0  0  0  0  0
    0.7201   -1.5613   -4.3716 C   0  0  0  0  0  0  0  0  0  0  0  0
   -0.2032   -2.5053   -5.5469 Cl  0  0  0  0  0  0  0  0  0  0  0  0
    1.9415   -1.0531   -4.7602 C   0  0  0  0  0  0  0  0  0  0  0  0
    2.6426   -0.3214   -3.8287 C   0  0  0  0  0  0  0  0  0  0  0  0
    2.1528   -0.1075   -2.5768 C   0  0  0  0  0  0  0  0  0  0  0  0
    2.9653    0.6784   -1.6522 C   0  0  0  0  0  0  0  0  0  0  0  0
    4.0854    1.1645   -1.9573 O   0  0  0  0  0  0  0  0  0  0  0  0
  1  2  1  0
  2  3  1  0
  3  4  2  0
  3  5  1  0
  5  6  1  0
  6  7  1  0
  8  7  1  1
  8  9  1  0
  9 10  2  0
  9 11  1  0
 11 12  1  0
 12 13  2  0
 13 14  1  0
 14 15  2  0
 15 16  1  0
 16 17  2  0
 17 18  1  0
 18 19  2  0
 19 20  1  0
 20 21  2  0
 11 22  1  0
 22 23  1  0
 23 24  1  1
 24 25  1  0
 25 26  1  0
 26 27  1  0
 26 28  1  0
  8 29  1  0
 29 30  2  0
 30 31  1  0
 31 32  1  0
 31 33  2  0
 33 34  1  0
 34 35  2  0
 35 36  1  0
 36 37  2  0
 36  6  1  0
 23  8  1  0
 35 29  1  0
 21 12  1  0
 21 16  1  0
M  END
$$$$

     RDKit          3D

 23 26  0  0  0  0  0  0  0  0999 V2000
    4.7694   -1.3624    0.5740 C   0  0  0  0  0  0  0  0  0  0  0  0
    3.6539   -0.6895   -0.1935 C   0  0  2  0  0  0  0  0  0  0  0  0
    4.2157    0.3099   -1.1761 C   0  0  0  0  0  0  0  0  0  0  0  0
    3.2516    1.1554   -1.6645 O   0  0  0  0  0  0  0  0  0  0  0  0
    1.9619    0.6738   -1.5025 C   0  0  0  0  0  0  0  0  0  0  0  0
    1.5660    0.5575   -0.0565 C   0  0  1  0  0  0  0  0  0  0  0  0
    2.7361    0.0585    0.7502 C   0  0  0  0  0  0  0  0  0  0  0  0
    1.0585    1.8191    0.4433 N   0  0  0  0  0  0  0  0  0  0  0  0
   -0.2472    1.6385    0.9801 C   0  0  0  0  0  0  0  0  0  0  0  0
   -0.9202    2.5399    1.5561 O   0  0  0  0  0  0  0  0  0  0  0  0
   -0.6656    0.2873    0.7628 N   0  0  0  0  0  0  0  0  0  0  0  0
   -1.9201   -0.2011    1.1838 C   0  0  0  0  0  0  0  0  0  0  0  0
   -2.1859   -0.7683    2.3920 C   0  0  0  0  0  0  0  0  0  0  0  0
   -3.4284   -1.2093    2.7056 N   0  0  0  0  0  0  0  0  0  0  0  0
   -4.4607   -1.1084    1.8383 C   0  0  0  0  0  0  0  0  0  0  0  0
   -4.2436   -0.5394    0.5961 C   0  0  0  0  0  0  0  0  0  0  0  0
   -5.2762   -0.4114   -0.3368 C   0  0  0  0  0  0  0  0  0  0  0  0
   -5.0410    0.1655   -1.5871 C   0  0  0  0  0  0  0  0  0  0  0  0
   -3.7682    0.6074   -1.8845 C   0  0  0  0  0  0  0  0  0  0  0  0
   -2.7534    0.4825   -0.9699 C   0  0  0  0  0  0  0  0  0  0  0  0
   -2.9720   -0.0875    0.2737 C   0  0  0  0  0  0  0  0  0  0  0  0
    0.4055   -0.3404    0.0890 C   0  0  0  0  0  0  0  0  0  0  0  0
    0.3558   -1.5275   -0.3303 O   0  0  0  0  0  0  0  0  0  0  0  0
  2  1  1  1
  2  3  1  0
  3  4  1  0
  4  5  1  0
  6  5  1  6
  6  7  1  0
  6  8  1  0
  8  9  1  0
  9 10  2  0
  9 11  1  0
 11 12  1  0
 12 13  2  0
 13 14  1  0
 14 15  2  0
 15 16  1  0
 16 17  2  0
 17 18  1  0
 18 19  2  0
 19 20  1  0
 20 21  2  0
 11 22  1  0
 22 23  2  0
  7  2  1  0
 21 12  1  0
 22  6  1  0
 21 16  1  0
M  END
$$$$
