
 OpenBabel07292611443D

 66 71  0  0  0  0  0  0  0  0999 V2000
   -6.2293    1.1359    1.8309 C   0  0  0  0  0  0  0  0  0  0  0  0
   -4.8428    0.8345    2.1921 N   0  0  0  0  0  0  0  0  0  0  0  0
   -4.0547    0.1695    1.2079 C   0  0  0  0  0  0  0  0  0  0  0  0
   -4.5479   -0.1416    0.0715 O   0  0  0  0  0  0  0  0  0  0  0  0
   -2.6144   -0.1922    1.4659 C   0  0  0  0  0  0  0  0  0  0  0  0
   -2.1300   -0.8449    0.2732 N   0  0  0  0  0  0  0  0  0  0  0  0
   -1.5131   -0.1205   -0.8418 C   0  0  0  0  0  0  0  0  0  0  0  0
   -0.1170   -0.6654   -1.0299 C   0  0  2  0  0  0  0  0  0  0  0  0
    0.5088   -0.6675    0.3476 C   0  0  0  0  0  0  0  0  0  0  0  0
   -0.0105   -1.1019    1.4170 O   0  0  0  0  0  0  0  0  0  0  0  0
    1.8034   -0.1029    0.3086 N   0  0  0  0  0  0  0  0  0  0  0  0
    2.6169    0.3013    1.4116 C   0  0  0  0  0  0  0  0  0  0  0  0
    2.5822    1.5701    1.9436 C   0  0  0  0  0  0  0  0  0  0  0  0
    3.4077    1.8090    2.9864 N   0  0  0  0  0  0  0  0  0  0  0  0
    4.2294    0.8951    3.5058 C   0  0  0  0  0  0  0  0  0  0  0  0
    4.3058   -0.3931    3.0122 C   0  0  0  0  0  0  0  0  0  0  0  0
    5.1547   -1.3503    3.5429 C   0  0  0  0  0  0  0  0  0  0  0  0
    5.1752   -2.6158    2.9964 C   0  0  0  0  0  0  0  0  0  0  0  0
    4.3592   -2.9324    1.9294 C   0  0  0  0  0  0  0  0  0  0  0  0
    3.5089   -1.9553    1.4060 C   0  0  0  0  0  0  0  0  0  0  0  0
    3.4660   -0.6760    1.9333 C   0  0  0  0  0  0  0  0  0  0  0  0
    2.1561   -0.0094   -1.0761 C   0  0  0  0  0  0  0  0  0  0  0  0
    0.8198    0.1185   -1.8265 C   0  0  2  0  0  0  0  0  0  0  0  0
    0.5537    1.5719   -1.9073 C   0  0  0  0  0  0  0  0  0  0  0  0
   -0.6605    2.0184   -2.4795 N   0  0  0  0  0  0  0  0  0  0  0  0
   -0.9104    3.4473   -2.4682 C   0  0  0  0  0  0  0  0  0  0  0  0
   -1.5681    4.0449   -1.4061 C   0  0  0  0  0  0  0  0  0  0  0  0
   -1.7548    5.4119   -1.4962 C   0  0  0  0  0  0  0  0  0  0  0  0
   -1.3331    6.1448   -2.5423 N   0  0  0  0  0  0  0  0  0  0  0  0
   -0.6942    5.5174   -3.5587 C   0  0  0  0  0  0  0  0  0  0  0  0
   -0.4851    4.1723   -3.5186 N   0  0  0  0  0  0  0  0  0  0  0  0
   -0.2126   -2.1113   -1.3763 C   0  0  0  0  0  0  0  0  0  0  0  0
    0.6469   -2.7616   -2.2157 C   0  0  0  0  0  0  0  0  0  0  0  0
    0.5269   -4.1153   -2.4546 C   0  0  0  0  0  0  0  0  0  0  0  0
    1.6325   -4.9425   -3.5318 Cl  0  0  0  0  0  0  0  0  0  0  0  0
   -0.4685   -4.8814   -1.8572 C   0  0  0  0  0  0  0  0  0  0  0  0
   -1.3376   -4.2242   -1.0103 C   0  0  0  0  0  0  0  0  0  0  0  0
   -1.2201   -2.8708   -0.7708 C   0  0  0  0  0  0  0  0  0  0  0  0
   -2.2291   -2.2660    0.0905 C   0  0  0  0  0  0  0  0  0  0  0  0
   -3.1465   -2.9200    0.6579 O   0  0  0  0  0  0  0  0  0  0  0  0
   -6.7109    1.6317    2.6477 H   0  0  0  0  0  0  0  0  0  0  0  0
   -6.7466    0.2254    1.6112 H   0  0  0  0  0  0  0  0  0  0  0  0
   -6.2436    1.7709    0.9698 H   0  0  0  0  0  0  0  0  0  0  0  0
   -4.4731    1.0790    3.0712 H   0  0  0  0  0  0  0  0  0  0  0  0
   -2.5450   -0.8551    2.3030 H   0  0  0  0  0  0  0  0  0  0  0  0
   -2.0337    0.6779    1.6910 H   0  0  0  0  0  0  0  0  0  0  0  0
   -1.4687    0.9246   -0.6168 H   0  0  0  0  0  0  0  0  0  0  0  0
   -2.0881   -0.2490   -1.7350 H   0  0  0  0  0  0  0  0  0  0  0  0
    1.9586    2.3006    1.5660 H   0  0  0  0  0  0  0  0  0  0  0  0
    4.8284    1.1595    4.3035 H   0  0  0  0  0  0  0  0  0  0  0  0
    5.7667   -1.1181    4.3407 H   0  0  0  0  0  0  0  0  0  0  0  0
    5.8060   -3.3323    3.3885 H   0  0  0  0  0  0  0  0  0  0  0  0
    4.3769   -3.8807    1.5226 H   0  0  0  0  0  0  0  0  0  0  0  0
    2.8989   -2.1926    0.6081 H   0  0  0  0  0  0  0  0  0  0  0  0
    2.6797   -0.8882   -1.3898 H   0  0  0  0  0  0  0  0  0  0  0  0
    2.8030    0.8210   -1.2682 H   0  0  0  0  0  0  0  0  0  0  0  0
    0.7720   -0.2516   -2.8293 H   0  0  0  0  0  0  0  0  0  0  0  0
    1.3473    2.0041   -2.4803 H   0  0  0  0  0  0  0  0  0  0  0  0
    0.4807    1.8755   -0.8839 H   0  0  0  0  0  0  0  0  0  0  0  0
   -1.3078    1.3868   -2.8685 H   0  0  0  0  0  0  0  0  0  0  0  0
   -1.8998    3.5012   -0.5941 H   0  0  0  0  0  0  0  0  0  0  0  0
   -2.2411    5.8931   -0.7236 H   0  0  0  0  0  0  0  0  0  0  0  0
   -0.3633    6.0630   -4.3698 H   0  0  0  0  0  0  0  0  0  0  0  0
    1.4001   -2.2304   -2.6799 H   0  0  0  0  0  0  0  0  0  0  0  0
   -0.5532   -5.8938   -2.0388 H   0  0  0  0  0  0  0  0  0  0  0  0
   -2.0907   -4.7561   -0.5467 H   0  0  0  0  0  0  0  0  0  0  0  0
  1  2  1  0  0  0  0
  1 41  1  0  0  0  0
  1 42  1  0  0  0  0
  1 43  1  0  0  0  0
  2  3  1  0  0  0  0
  2 44  1  0  0  0  0
  3  4  2  0  0  0  0
  3  5  1  0  0  0  0
  5  6  1  0  0  0  0
  5 45  1  0  0  0  0
  5 46  1  0  0  0  0
  6  7  1  0  0  0  0
  7 47  1  0  0  0  0
  7 48  1  0  0  0  0
  8  7  1  0  0  0  0
  8  9  1  1  0  0  0
  8 32  1  0  0  0  0
  9 10  2  0  0  0  0
  9 11  1  0  0  0  0
 11 12  1  0  0  0  0
 11 22  1  0  0  0  0
 12 13  2  0  0  0  0
 13 14  1  0  0  0  0
 13 49  1  0  0  0  0
 14 15  2  0  0  0  0
 15 16  1  0  0  0  0
 15 50  1  0  0  0  0
 16 17  2  0  0  0  0
 17 18  1  0  0  0  0
 17 51  1  0  0  0  0
 18 19  2  0  0  0  0
 18 52  1  0  0  0  0
 19 20  1  0  0  0  0
 19 53  1  0  0  0  0
 20 21  2  0  0  0  0
 20 54  1  0  0  0  0
 21 12  1  0  0  0  0
 21 16  1  0  0  0  0
 22 23  1  0  0  0  0
 22 55  1  0  0  0  0
 22 56  1  0  0  0  0
 23 24  1  0  0  0  0
 23  8  1  0  0  0  0
 23 57  1  6  0  0  0
 24 25  1  0  0  0  0
 24 58  1  0  0  0  0
 24 59  1  0  0  0  0
 25 26  1  0  0  0  0
 25 60  1  0  0  0  0
 26 27  2  0  0  0  0
 27 28  1  0  0  0  0
 27 61  1  0  0  0  0
 28 29  2  0  0  0  0
 28 62  1  0  0  0  0
 29 30  1  0  0  0  0
 30 31  2  0  0  0  0
 30 63  1  0  0  0  0
 31 26  1  0  0  0  0
 32 33  2  0  0  0  0
 33 34  1  0  0  0  0
 33 64  1  0  0  0  0
 34 35  1  0  0  0  0
 34 36  2  0  0  0  0
 36 37  1  0  0  0  0
 36 65  1  0  0  0  0
 37 38  2  0  0  0  0
 37 66  1  0  0  0  0
 38 39  1  0  0  0  0
 38 32  1  0  0  0  0
 39 40  2  0  0  0  0
 39  6  1  0  0  0  0
M  END
$$$$

 OpenBabel07292611443D

 68 73  0  0  0  0  0  0  0  0999 V2000
    5.8777   -1.9876   -1.3106 C   0  0  0  0  0  0  0  0  0  0  0  0
    4.7571   -1.1912   -0.8215 N   0  0  0  0  0  0  0  0  0  0  0  0
    4.1947   -0.2270   -1.6959 C   0  0  0  0  0  0  0  0  0  0  0  0
    4.6939   -0.1162   -2.8373 O   0  0  0  0  0  0  0  0  0  0  0  0
    3.0536    0.6470   -1.3229 C   0  0  0  0  0  0  0  0  0  0  0  0
    2.5732    0.4205    0.0133 N   0  0  0  0  0  0  0  0  0  0  0  0
    1.5277   -0.5550    0.2620 C   0  0  0  0  0  0  0  0  0  0  0  0
    0.4260   -0.0652    1.1352 C   0  0  2  0  0  0  0  0  0  0  0  0
   -0.3356   -1.2899    1.5552 C   0  0  0  0  0  0  0  0  0  0  0  0
   -0.0434   -2.0498    2.5423 O   0  0  0  0  0  0  0  0  0  0  0  0
   -1.4501   -1.4746    0.6688 N   0  0  0  0  0  0  0  0  0  0  0  0
   -2.4959   -2.4411    0.7649 C   0  0  0  0  0  0  0  0  0  0  0  0
   -3.6478   -2.1215    1.4746 C   0  0  0  0  0  0  0  0  0  0  0  0
   -4.6645   -2.9943    1.5972 N   0  0  0  0  0  0  0  0  0  0  0  0
   -4.5827   -4.2017    1.0302 C   0  0  0  0  0  0  0  0  0  0  0  0
   -3.4672   -4.5945    0.3067 C   0  0  0  0  0  0  0  0  0  0  0  0
   -3.3860   -5.8490   -0.2806 C   0  0  0  0  0  0  0  0  0  0  0  0
   -2.2604   -6.2004   -0.9911 C   0  0  0  0  0  0  0  0  0  0  0  0
   -1.2422   -5.2771   -1.0925 C   0  0  0  0  0  0  0  0  0  0  0  0
   -1.2678   -4.0308   -0.5363 C   0  0  0  0  0  0  0  0  0  0  0  0
   -2.4134   -3.6877    0.1804 C   0  0  0  0  0  0  0  0  0  0  0  0
   -1.2874   -0.4496   -0.3693 C   0  0  0  0  0  0  0  0  0  0  0  0
   -0.6920    0.6483    0.4393 C   0  0  2  0  0  0  0  0  0  0  0  0
   -0.3576    1.8957   -0.2769 C   0  0  0  0  0  0  0  0  0  0  0  0
   -1.5857    2.4031   -0.8664 N   0  0  0  0  0  0  0  0  0  0  0  0
   -1.4982    3.6043   -1.6073 C   0  0  0  0  0  0  0  0  0  0  0  0
   -0.3281    4.3396   -1.8167 C   0  0  0  0  0  0  0  0  0  0  0  0
   -0.6458    5.4077   -2.5619 N   0  0  0  0  0  0  0  0  0  0  0  0
   -1.9395    5.4111   -2.8470 N   0  0  0  0  0  0  0  0  0  0  0  0
   -2.7198    6.3541   -3.6141 C   0  0  0  0  0  0  0  0  0  0  0  0
   -2.4745    4.3178   -2.2722 C   0  0  0  0  0  0  0  0  0  0  0  0
    0.9820    0.6694    2.2747 C   0  0  0  0  0  0  0  0  0  0  0  0
    0.1842    0.7951    3.4109 C   0  0  0  0  0  0  0  0  0  0  0  0
    0.6461    1.4740    4.5185 C   0  0  0  0  0  0  0  0  0  0  0  0
   -0.4099    1.5907    5.9058 Cl  0  0  0  0  0  0  0  0  0  0  0  0
    1.9188    2.0451    4.5184 C   0  0  0  0  0  0  0  0  0  0  0  0
    2.7189    1.9321    3.4096 C   0  0  0  0  0  0  0  0  0  0  0  0
    2.2352    1.2450    2.3057 C   0  0  0  0  0  0  0  0  0  0  0  0
    3.0908    1.1285    1.1303 C   0  0  0  0  0  0  0  0  0  0  0  0
    4.2480    1.6199    1.0645 O   0  0  0  0  0  0  0  0  0  0  0  0
    6.1932   -2.6666   -0.5462 H   0  0  0  0  0  0  0  0  0  0  0  0
    6.6892   -1.3401   -1.5697 H   0  0  0  0  0  0  0  0  0  0  0  0
    5.5724   -2.5401   -2.1746 H   0  0  0  0  0  0  0  0  0  0  0  0
    4.4023   -1.3194    0.0879 H   0  0  0  0  0  0  0  0  0  0  0  0
    2.2508    0.4669   -2.0070 H   0  0  0  0  0  0  0  0  0  0  0  0
    3.4028    1.6575   -1.3658 H   0  0  0  0  0  0  0  0  0  0  0  0
    1.9711   -1.4091    0.7297 H   0  0  0  0  0  0  0  0  0  0  0  0
    1.0882   -0.7809   -0.6871 H   0  0  0  0  0  0  0  0  0  0  0  0
   -3.7249   -1.1928    1.9179 H   0  0  0  0  0  0  0  0  0  0  0  0
   -5.3712   -4.8594    1.1337 H   0  0  0  0  0  0  0  0  0  0  0  0
   -4.1671   -6.5167   -0.1851 H   0  0  0  0  0  0  0  0  0  0  0  0
   -2.1813   -7.1286   -1.4351 H   0  0  0  0  0  0  0  0  0  0  0  0
   -0.4013   -5.5470   -1.6265 H   0  0  0  0  0  0  0  0  0  0  0  0
   -0.4780   -3.3748   -0.6411 H   0  0  0  0  0  0  0  0  0  0  0  0
   -2.2264   -0.1641   -0.7955 H   0  0  0  0  0  0  0  0  0  0  0  0
   -0.7046   -0.7532   -1.2137 H   0  0  0  0  0  0  0  0  0  0  0  0
   -1.3848    1.0954    1.1213 H   0  0  0  0  0  0  0  0  0  0  0  0
    0.3605    1.6951   -1.0444 H   0  0  0  0  0  0  0  0  0  0  0  0
    0.0636    2.6146    0.3944 H   0  0  0  0  0  0  0  0  0  0  0  0
   -2.4420    1.9304   -0.7545 H   0  0  0  0  0  0  0  0  0  0  0  0
    0.6115    4.1028   -1.4615 H   0  0  0  0  0  0  0  0  0  0  0  0
   -2.0835    7.1371   -3.9704 H   0  0  0  0  0  0  0  0  0  0  0  0
   -3.4856    6.7712   -2.9940 H   0  0  0  0  0  0  0  0  0  0  0  0
   -3.1683    5.8525   -4.4461 H   0  0  0  0  0  0  0  0  0  0  0  0
   -3.4704    4.0518   -2.3216 H   0  0  0  0  0  0  0  0  0  0  0  0
   -0.7592    0.3769    3.4231 H   0  0  0  0  0  0  0  0  0  0  0  0
    2.2580    2.5518    5.3510 H   0  0  0  0  0  0  0  0  0  0  0  0
    3.6623    2.3502    3.3970 H   0  0  0  0  0  0  0  0  0  0  0  0
  1  2  1  0  0  0  0
  1 41  1  0  0  0  0
  1 42  1  0  0  0  0
  1 43  1  0  0  0  0
  2  3  1  0  0  0  0
  2 44  1  0  0  0  0
  3  4  2  0  0  0  0
  3  5  1  0  0  0  0
  5  6  1  0  0  0  0
  5 45  1  0  0  0  0
  5 46  1  0  0  0  0
  6  7  1  0  0  0  0
  7 47  1  0  0  0  0
  7 48  1  0  0  0  0
  8  7  1  0  0  0  0
  8  9  1  1  0  0  0
  8 32  1  0  0  0  0
  9 10  2  0  0  0  0
  9 11  1  0  0  0  0
 11 12  1  0  0  0  0
 11 22  1  0  0  0  0
 12 13  2  0  0  0  0
 13 14  1  0  0  0  0
 13 49  1  0  0  0  0
 14 15  2  0  0  0  0
 15 16  1  0  0  0  0
 15 50  1  0  0  0  0
 16 17  2  0  0  0  0
 17 18  1  0  0  0  0
 17 51  1  0  0  0  0
 18 19  2  0  0  0  0
 18 52  1  0  0  0  0
 19 20  1  0  0  0  0
 19 53  1  0  0  0  0
 20 21  2  0  0  0  0
 20 54  1  0  0  0  0
 21 12  1  0  0  0  0
 21 16  1  0  0  0  0
 22 23  1  0  0  0  0
 22 55  1  0  0  0  0
 22 56  1  0  0  0  0
 23 24  1  0  0  0  0
 23  8  1  0  0  0  0
 23 57  1  1  0  0  0
 24 25  1  0  0  0  0
 24 58  1  0  0  0  0
 24 59  1  0  0  0  0
 25 26  1  0  0  0  0
 25 60  1  0  0  0  0
 26 27  1  0  0  0  0
 27 28  2  0  0  0  0
 27 61  1  0  0  0  0
 28 29  1  0  0  0  0
 29 30  1  0  0  0  0
 29 31  1  0  0  0  0
 30 62  1  0  0  0  0
 30 63  1  0  0  0  0
 30 64  1  0  0  0  0
 31 26  2  0  0  0  0
 31 65  1  0  0  0  0
 32 33  2  0  0  0  0
 33 34  1  0  0  0  0
 33 66  1  0  0  0  0
 34 35  1  0  0  0  0
 34 36  2  0  0  0  0
 36 37  1  0  0  0  0
 36 67  1  0  0  0  0
 37 38  2  0  0  0  0
 37 68  1  0  0  0  0
 38 39  1  0  0  0  0
 38 32  1  0  0  0  0
 39 40  2  0  0  0  0
 39  6  1  0  0  0  0
M  END
$$$$

 OpenBabel07292611443D

 60 65  0  0  0  0  0  0  0  0999 V2000
    7.3527    2.0638    1.5959 C   0  0  0  0  0  0  0  0  0  0  0  0
    6.1021    1.8006    0.8370 C   0  0  0  0  0  0  0  0  0  0  0  0
    4.8664    2.2706    1.2301 C   0  0  0  0  0  0  0  0  0  0  0  0
    3.7631    1.9944    0.4914 N   0  0  0  0  0  0  0  0  0  0  0  0
    3.8208    1.2551   -0.6505 C   0  0  0  0  0  0  0  0  0  0  0  0
    2.5825    1.0007   -1.3974 C   0  0  0  0  0  0  0  0  0  0  0  0
    1.8757   -0.1989   -0.9800 N   0  0  0  0  0  0  0  0  0  0  0  0
    0.9136   -0.0834    0.0668 C   0  0  0  0  0  0  0  0  0  0  0  0
   -0.2046   -1.0662    0.0524 C   0  0  2  0  0  0  0  0  0  0  0  0
   -1.3854   -0.3987   -0.6084 C   0  0  0  0  0  0  0  0  0  0  0  0
   -1.7736   -0.5147   -1.7970 O   0  0  0  0  0  0  0  0  0  0  0  0
   -2.0416    0.4281    0.3441 N   0  0  0  0  0  0  0  0  0  0  0  0
   -2.8832    1.5518    0.1189 C   0  0  0  0  0  0  0  0  0  0  0  0
   -2.4003    2.8481    0.0323 C   0  0  0  0  0  0  0  0  0  0  0  0
   -3.2517    3.8588   -0.1818 N   0  0  0  0  0  0  0  0  0  0  0  0
   -4.5612    3.5982   -0.3091 C   0  0  0  0  0  0  0  0  0  0  0  0
   -5.1014    2.3312   -0.2326 C   0  0  0  0  0  0  0  0  0  0  0  0
   -6.4581    2.0821   -0.3670 C   0  0  0  0  0  0  0  0  0  0  0  0
   -6.9764    0.7967   -0.2859 C   0  0  0  0  0  0  0  0  0  0  0  0
   -6.0823   -0.2275   -0.0652 C   0  0  0  0  0  0  0  0  0  0  0  0
   -4.7254   -0.0185    0.0737 C   0  0  0  0  0  0  0  0  0  0  0  0
   -4.2450    1.2744   -0.0128 C   0  0  0  0  0  0  0  0  0  0  0  0
   -1.7176   -0.0579    1.6665 C   0  0  0  0  0  0  0  0  0  0  0  0
   -0.7482   -1.2165    1.4499 C   0  0  2  0  0  0  0  0  0  0  0  0
    0.3046   -1.0725    2.5254 C   0  0  0  0  0  0  0  0  0  0  0  0
    0.0941   -2.3279   -0.6290 C   0  0  0  0  0  0  0  0  0  0  0  0
   -0.7413   -3.4186   -0.5111 C   0  0  0  0  0  0  0  0  0  0  0  0
   -0.4683   -4.6326   -1.1537 C   0  0  0  0  0  0  0  0  0  0  0  0
   -1.3135   -5.6941   -1.0184 F   0  0  0  0  0  0  0  0  0  0  0  0
    0.6578   -4.7830   -1.9361 C   0  0  0  0  0  0  0  0  0  0  0  0
    1.4910   -3.7088   -2.0592 C   0  0  0  0  0  0  0  0  0  0  0  0
    1.2245   -2.5215   -1.4311 C   0  0  0  0  0  0  0  0  0  0  0  0
    2.1833   -1.4211   -1.6368 C   0  0  0  0  0  0  0  0  0  0  0  0
    3.1821   -1.6105   -2.3523 O   0  0  0  0  0  0  0  0  0  0  0  0
    5.0691    0.8006   -1.0160 C   0  0  0  0  0  0  0  0  0  0  0  0
    6.1860    1.0594   -0.3006 N   0  0  0  0  0  0  0  0  0  0  0  0
    7.1283    2.6547    2.4592 H   0  0  0  0  0  0  0  0  0  0  0  0
    8.0439    2.5914    0.9724 H   0  0  0  0  0  0  0  0  0  0  0  0
    7.7861    1.1348    1.9024 H   0  0  0  0  0  0  0  0  0  0  0  0
    4.7810    2.8348    2.0900 H   0  0  0  0  0  0  0  0  0  0  0  0
    2.8290    0.9024   -2.4340 H   0  0  0  0  0  0  0  0  0  0  0  0
    1.9301    1.8268   -1.2054 H   0  0  0  0  0  0  0  0  0  0  0  0
    0.4865    0.8960    0.0092 H   0  0  0  0  0  0  0  0  0  0  0  0
    1.4525   -0.2807    0.9699 H   0  0  0  0  0  0  0  0  0  0  0  0
   -1.3900    3.0332    0.1323 H   0  0  0  0  0  0  0  0  0  0  0  0
   -5.2012    4.3908   -0.4737 H   0  0  0  0  0  0  0  0  0  0  0  0
   -7.1001    2.8731   -0.5317 H   0  0  0  0  0  0  0  0  0  0  0  0
   -7.9875    0.6165   -0.3866 H   0  0  0  0  0  0  0  0  0  0  0  0
   -6.4426   -1.1924   -0.0010 H   0  0  0  0  0  0  0  0  0  0  0  0
   -4.0838   -0.8098    0.2385 H   0  0  0  0  0  0  0  0  0  0  0  0
   -2.6004   -0.3977    2.1666 H   0  0  0  0  0  0  0  0  0  0  0  0
   -1.2888    0.7092    2.2769 H   0  0  0  0  0  0  0  0  0  0  0  0
   -1.1798   -2.1927    1.5256 H   0  0  0  0  0  0  0  0  0  0  0  0
    0.7469   -0.1002    2.4636 H   0  0  0  0  0  0  0  0  0  0  0  0
    1.0601   -1.8175    2.3870 H   0  0  0  0  0  0  0  0  0  0  0  0
   -0.1481   -1.1980    3.4868 H   0  0  0  0  0  0  0  0  0  0  0  0
   -1.5922   -3.3380    0.0673 H   0  0  0  0  0  0  0  0  0  0  0  0
    0.8630   -5.6758   -2.4114 H   0  0  0  0  0  0  0  0  0  0  0  0
    2.3408   -3.7933   -2.6386 H   0  0  0  0  0  0  0  0  0  0  0  0
    5.1551    0.2364   -1.8759 H   0  0  0  0  0  0  0  0  0  0  0  0
  1  2  1  0  0  0  0
  1 37  1  0  0  0  0
  1 38  1  0  0  0  0
  1 39  1  0  0  0  0
  2  3  2  0  0  0  0
  3  4  1  0  0  0  0
  3 40  1  0  0  0  0
  4  5  2  0  0  0  0
  5  6  1  0  0  0  0
  5 35  1  0  0  0  0
  6  7  1  0  0  0  0
  6 41  1  0  0  0  0
  6 42  1  0  0  0  0
  7  8  1  0  0  0  0
  8 43  1  0  0  0  0
  8 44  1  0  0  0  0
  9  8  1  0  0  0  0
  9 10  1  6  0  0  0
  9 26  1  0  0  0  0
 10 11  2  0  0  0  0
 10 12  1  0  0  0  0
 12 13  1  0  0  0  0
 12 23  1  0  0  0  0
 13 14  2  0  0  0  0
 14 15  1  0  0  0  0
 14 45  1  0  0  0  0
 15 16  2  0  0  0  0
 16 17  1  0  0  0  0
 16 46  1  0  0  0  0
 17 18  2  0  0  0  0
 18 19  1  0  0  0  0
 18 47  1  0  0  0  0
 19 20  2  0  0  0  0
 19 48  1  0  0  0  0
 20 21  1  0  0  0  0
 20 49  1  0  0  0  0
 21 22  2  0  0  0  0
 21 50  1  0  0  0  0
 22 13  1  0  0  0  0
 22 17  1  0  0  0  0
 23 24  1  0  0  0  0
 23 51  1  0  0  0  0
 23 52  1  0  0  0  0
 24 25  1  0  0  0  0
 24  9  1  0  0  0  0
 24 53  1  1  0  0  0
 25 54  1  0  0  0  0
 25 55  1  0  0  0  0
 25 56  1  0  0  0  0
 26 27  2  0  0  0  0
 27 28  1  0  0  0  0
 27 57  1  0  0  0  0
 28 29  1  0  0  0  0
 28 30  2  0  0  0  0
 30 31  1  0  0  0  0
 30 58  1  0  0  0  0
 31 32  2  0  0  0  0
 31 59  1  0  0  0  0
 32 33  1  0  0  0  0
 32 26  1  0  0  0  0
 33 34  2  0  0  0  0
 33  7  1  0  0  0  0
 35 36  2  0  0  0  0
 35 60  1  0  0  0  0
 36  2  1  0  0  0  0
M  END
$$$$

 OpenBabel07292611443D

 66 70  0  0  0  0  0  0  0  0999 V2000
    2.9202   -3.9637    1.7288 C   0  0  0  0  0  0  0  0  0  0  0  0
    2.5547   -3.0241    0.6809 N   0  0  0  0  0  0  0  0  0  0  0  0
    2.4841   -3.4681   -0.6628 C   0  0  0  0  0  0  0  0  0  0  0  0
    2.7582   -4.7014   -0.8539 O   0  0  0  0  0  0  0  0  0  0  0  0
    2.1350   -2.6617   -1.8218 C   0  0  0  0  0  0  0  0  0  0  0  0
    1.8275   -1.2589   -1.4942 N   0  0  0  0  0  0  0  0  0  0  0  0
    0.4638   -0.9434   -1.2386 C   0  0  0  0  0  0  0  0  0  0  0  0
    0.2760    0.3027   -0.4869 C   0  0  2  0  0  0  0  0  0  0  0  0
    0.1167   -0.1627    0.9556 C   0  0  0  0  0  0  0  0  0  0  0  0
    0.8908    0.0153    1.9133 O   0  0  0  0  0  0  0  0  0  0  0  0
   -1.1510   -0.8520    0.9137 N   0  0  0  0  0  0  0  0  0  0  0  0
   -1.5470   -1.8419    1.8665 C   0  0  0  0  0  0  0  0  0  0  0  0
   -1.2959   -3.1721    1.7224 C   0  0  0  0  0  0  0  0  0  0  0  0
   -1.7278   -3.9988    2.7021 N   0  0  0  0  0  0  0  0  0  0  0  0
   -2.3903   -3.5449    3.8004 C   0  0  0  0  0  0  0  0  0  0  0  0
   -2.6606   -2.2086    3.9781 C   0  0  0  0  0  0  0  0  0  0  0  0
   -3.3284   -1.7018    5.0736 C   0  0  0  0  0  0  0  0  0  0  0  0
   -3.5665   -0.3529    5.1898 C   0  0  0  0  0  0  0  0  0  0  0  0
   -3.1453    0.5336    4.2153 C   0  0  0  0  0  0  0  0  0  0  0  0
   -2.4790    0.0098    3.1265 C   0  0  0  0  0  0  0  0  0  0  0  0
   -2.2262   -1.3474    2.9856 C   0  0  0  0  0  0  0  0  0  0  0  0
   -1.9140   -0.3619   -0.2390 C   0  0  0  0  0  0  0  0  0  0  0  0
   -1.0944    0.8933   -0.6009 C   0  0  2  0  0  0  0  0  0  0  0  0
   -1.5202    1.4560   -1.8843 C   0  0  0  0  0  0  0  0  0  0  0  0
   -0.7196    2.5036   -2.3316 O   0  0  0  0  0  0  0  0  0  0  0  0
   -1.0953    3.0508   -3.5328 C   0  0  0  0  0  0  0  0  0  0  0  0
   -1.2909    4.5673   -3.4055 C   0  0  0  0  0  0  0  0  0  0  0  0
    0.0545    2.8632   -4.5039 C   0  0  0  0  0  0  0  0  0  0  0  0
    1.3899    1.2055   -0.5056 C   0  0  0  0  0  0  0  0  0  0  0  0
    1.1950    2.5076   -0.0027 C   0  0  0  0  0  0  0  0  0  0  0  0
    2.2194    3.4316    0.0210 C   0  0  0  0  0  0  0  0  0  0  0  0
    1.9456    5.0535    0.6563 Cl  0  0  0  0  0  0  0  0  0  0  0  0
    3.4876    3.1489   -0.4395 C   0  0  0  0  0  0  0  0  0  0  0  0
    3.6940    1.8784   -0.9351 C   0  0  0  0  0  0  0  0  0  0  0  0
    2.6720    0.9656   -0.9556 C   0  0  0  0  0  0  0  0  0  0  0  0
    2.9256   -0.3663   -1.4941 C   0  0  0  0  0  0  0  0  0  0  0  0
    4.0503   -0.7017   -1.9316 O   0  0  0  0  0  0  0  0  0  0  0  0
    2.9238   -3.4609    2.6733 H   0  0  0  0  0  0  0  0  0  0  0  0
    3.8952   -4.3574    1.5306 H   0  0  0  0  0  0  0  0  0  0  0  0
    2.2106   -4.7641    1.7535 H   0  0  0  0  0  0  0  0  0  0  0  0
    2.3576   -2.0856    0.9036 H   0  0  0  0  0  0  0  0  0  0  0  0
    1.2761   -3.0958   -2.2894 H   0  0  0  0  0  0  0  0  0  0  0  0
    2.9890   -2.6531   -2.4663 H   0  0  0  0  0  0  0  0  0  0  0  0
    0.0315   -1.7449   -0.6768 H   0  0  0  0  0  0  0  0  0  0  0  0
   -0.0088   -0.8087   -2.1891 H   0  0  0  0  0  0  0  0  0  0  0  0
   -0.7949   -3.5361    0.8968 H   0  0  0  0  0  0  0  0  0  0  0  0
   -2.6975   -4.2203    4.5177 H   0  0  0  0  0  0  0  0  0  0  0  0
   -3.6530   -2.3427    5.8145 H   0  0  0  0  0  0  0  0  0  0  0  0
   -4.0679    0.0043    6.0181 H   0  0  0  0  0  0  0  0  0  0  0  0
   -3.3224    1.5468    4.2992 H   0  0  0  0  0  0  0  0  0  0  0  0
   -2.1557    0.6532    2.3872 H   0  0  0  0  0  0  0  0  0  0  0  0
   -2.9198   -0.1139    0.0289 H   0  0  0  0  0  0  0  0  0  0  0  0
   -2.0249   -1.0684   -1.0349 H   0  0  0  0  0  0  0  0  0  0  0  0
   -1.1940    1.7718    0.0017 H   0  0  0  0  0  0  0  0  0  0  0  0
   -2.5215    1.8180   -1.7784 H   0  0  0  0  0  0  0  0  0  0  0  0
   -1.4425    0.6728   -2.6092 H   0  0  0  0  0  0  0  0  0  0  0  0
   -2.0032    2.5830   -3.8520 H   0  0  0  0  0  0  0  0  0  0  0  0
   -0.3753    5.0194   -3.0860 H   0  0  0  0  0  0  0  0  0  0  0  0
   -2.0579    4.7689   -2.6872 H   0  0  0  0  0  0  0  0  0  0  0  0
   -1.5759    4.9711   -4.3545 H   0  0  0  0  0  0  0  0  0  0  0  0
    0.9260    3.3540   -4.1238 H   0  0  0  0  0  0  0  0  0  0  0  0
   -0.2071    3.2844   -5.4521 H   0  0  0  0  0  0  0  0  0  0  0  0
    0.2558    1.8188   -4.6209 H   0  0  0  0  0  0  0  0  0  0  0  0
    0.2652    2.7759    0.3559 H   0  0  0  0  0  0  0  0  0  0  0  0
    4.2433    3.8513   -0.4147 H   0  0  0  0  0  0  0  0  0  0  0  0
    4.6249    1.6132   -1.2931 H   0  0  0  0  0  0  0  0  0  0  0  0
  1  2  1  0  0  0  0
  1 38  1  0  0  0  0
  1 39  1  0  0  0  0
  1 40  1  0  0  0  0
  2  3  1  0  0  0  0
  2 41  1  0  0  0  0
  3  4  2  0  0  0  0
  3  5  1  0  0  0  0
  5  6  1  0  0  0  0
  5 42  1  0  0  0  0
  5 43  1  0  0  0  0
  6  7  1  0  0  0  0
  7 44  1  0  0  0  0
  7 45  1  0  0  0  0
  8  7  1  0  0  0  0
  8  9  1  1  0  0  0
  8 29  1  0  0  0  0
  9 10  2  0  0  0  0
  9 11  1  0  0  0  0
 11 12  1  0  0  0  0
 11 22  1  0  0  0  0
 12 13  2  0  0  0  0
 13 14  1  0  0  0  0
 13 46  1  0  0  0  0
 14 15  2  0  0  0  0
 15 16  1  0  0  0  0
 15 47  1  0  0  0  0
 16 17  2  0  0  0  0
 17 18  1  0  0  0  0
 17 48  1  0  0  0  0
 18 19  2  0  0  0  0
 18 49  1  0  0  0  0
 19 20  1  0  0  0  0
 19 50  1  0  0  0  0
 20 21  2  0  0  0  0
 20 51  1  0  0  0  0
 21 12  1  0  0  0  0
 21 16  1  0  0  0  0
 22 23  1  0  0  0  0
 22 52  1  0  0  0  0
 22 53  1  0  0  0  0
 23 24  1  0  0  0  0
 23  8  1  0  0  0  0
 23 54  1  1  0  0  0
 24 25  1  0  0  0  0
 24 55  1  0  0  0  0
 24 56  1  0  0  0  0
 25 26  1  0  0  0  0
 26 27  1  0  0  0  0
 26 28  1  0  0  0  0
 26 57  1  0  0  0  0
 27 58  1  0  0  0  0
 27 59  1  0  0  0  0
 27 60  1  0  0  0  0
 28 61  1  0  0  0  0
 28 62  1  0  0  0  0
 28 63  1  0  0  0  0
 29 30  2  0  0  0  0
 30 31  1  0  0  0  0
 30 64  1  0  0  0  0
 31 32  1  0  0  0  0
 31 33  2  0  0  0  0
 33 34  1  0  0  0  0
 33 65  1  0  0  0  0
 34 35  2  0  0  0  0
 34 66  1  0  0  0  0
 35 36  1  0  0  0  0
 35 29  1  0  0  0  0
 36 37  2  0  0  0  0
 36  6  1  0  0  0  0
M  END
$$$$

 OpenBabel07292611443D

 59 64  0  0  0  0  0  0  0  0999 V2000
    0.0474    1.6957   -0.4579 C   0  0  0  0  0  0  0  0  0  0  0  0
   -0.1492    0.2123   -0.6772 C   0  0  1  0  0  0  0  0  0  0  0  0
    1.1829   -0.2904   -1.1850 C   0  0  0  0  0  0  0  0  0  0  0  0
    1.9659   -0.4725    0.0154 N   0  0  0  0  0  0  0  0  0  0  0  0
    3.3903   -0.6188   -0.0065 C   0  0  0  0  0  0  0  0  0  0  0  0
    4.0175   -1.8369   -0.2020 C   0  0  0  0  0  0  0  0  0  0  0  0
    5.3632   -1.9702   -0.2162 N   0  0  0  0  0  0  0  0  0  0  0  0
    6.1728   -0.9375   -0.0429 C   0  0  0  0  0  0  0  0  0  0  0  0
    5.6335    0.3012    0.1566 C   0  0  0  0  0  0  0  0  0  0  0  0
    6.4852    1.3737    0.3398 C   0  0  0  0  0  0  0  0  0  0  0  0
    5.9685    2.6307    0.5460 C   0  0  0  0  0  0  0  0  0  0  0  0
    4.6007    2.8184    0.5697 C   0  0  0  0  0  0  0  0  0  0  0  0
    3.7851    1.7250    0.3831 C   0  0  0  0  0  0  0  0  0  0  0  0
    4.2456    0.4654    0.1757 C   0  0  0  0  0  0  0  0  0  0  0  0
    1.0829   -0.4885    1.1328 C   0  0  0  0  0  0  0  0  0  0  0  0
    1.4789   -0.5085    2.3316 O   0  0  0  0  0  0  0  0  0  0  0  0
   -0.3371   -0.4774    0.6332 C   0  0  1  0  0  0  0  0  0  0  0  0
   -1.2581    0.1711    1.5906 C   0  0  0  0  0  0  0  0  0  0  0  0
   -2.6452   -0.0349    1.2669 N   0  0  0  0  0  0  0  0  0  0  0  0
   -3.6786    0.9624    1.3656 C   0  0  0  0  0  0  0  0  0  0  0  0
   -3.9573    1.7466    0.1605 C   0  0  0  0  0  0  0  0  0  0  0  0
   -3.3865    2.9320   -0.1153 N   0  0  0  0  0  0  0  0  0  0  0  0
   -3.8243    3.4366   -1.2728 C   0  0  0  0  0  0  0  0  0  0  0  0
   -4.7230    2.5319   -1.7694 C   0  0  0  0  0  0  0  0  0  0  0  0
   -4.7858    1.5095   -0.8748 N   0  0  0  0  0  0  0  0  0  0  0  0
   -5.6463    0.3752   -1.0756 C   0  0  0  0  0  0  0  0  0  0  0  0
   -3.0869   -1.3488    0.8665 C   0  0  0  0  0  0  0  0  0  0  0  0
   -4.2805   -1.7012    0.9025 O   0  0  0  0  0  0  0  0  0  0  0  0
   -2.0901   -2.2917    0.4062 C   0  0  0  0  0  0  0  0  0  0  0  0
   -2.5082   -3.5718    0.1157 C   0  0  0  0  0  0  0  0  0  0  0  0
   -1.5978   -4.5373   -0.2332 C   0  0  0  0  0  0  0  0  0  0  0  0
   -0.2727   -4.1667   -0.2760 C   0  0  0  0  0  0  0  0  0  0  0  0
    0.6315   -5.1112   -0.6169 F   0  0  0  0  0  0  0  0  0  0  0  0
    0.1392   -2.8764    0.0168 C   0  0  0  0  0  0  0  0  0  0  0  0
   -0.7824   -1.8781    0.3725 C   0  0  0  0  0  0  0  0  0  0  0  0
    0.1811    2.1812   -1.4020 H   0  0  0  0  0  0  0  0  0  0  0  0
    0.9130    1.8546    0.1507 H   0  0  0  0  0  0  0  0  0  0  0  0
   -0.8128    2.1008    0.0328 H   0  0  0  0  0  0  0  0  0  0  0  0
   -0.9831    0.0369   -1.3243 H   0  0  0  0  0  0  0  0  0  0  0  0
    1.6397    0.4290   -1.8321 H   0  0  0  0  0  0  0  0  0  0  0  0
    1.0933   -1.1886   -1.7595 H   0  0  0  0  0  0  0  0  0  0  0  0
    3.4350   -2.6771   -0.3426 H   0  0  0  0  0  0  0  0  0  0  0  0
    7.1966   -1.0665   -0.0583 H   0  0  0  0  0  0  0  0  0  0  0  0
    7.5072    1.2313    0.3219 H   0  0  0  0  0  0  0  0  0  0  0  0
    6.6024    3.4335    0.6830 H   0  0  0  0  0  0  0  0  0  0  0  0
    4.1991    3.7565    0.7237 H   0  0  0  0  0  0  0  0  0  0  0  0
    2.7638    1.8719    0.4021 H   0  0  0  0  0  0  0  0  0  0  0  0
   -1.0615    1.2229    1.5932 H   0  0  0  0  0  0  0  0  0  0  0  0
   -1.0850   -0.2710    2.5495 H   0  0  0  0  0  0  0  0  0  0  0  0
   -3.3957    1.6462    2.1384 H   0  0  0  0  0  0  0  0  0  0  0  0
   -4.5779    0.4154    1.5577 H   0  0  0  0  0  0  0  0  0  0  0  0
   -3.5413    4.3297   -1.7055 H   0  0  0  0  0  0  0  0  0  0  0  0
   -5.2512    2.6104   -2.6525 H   0  0  0  0  0  0  0  0  0  0  0  0
   -6.1761    0.4883   -1.9983 H   0  0  0  0  0  0  0  0  0  0  0  0
   -6.3457    0.3107   -0.2684 H   0  0  0  0  0  0  0  0  0  0  0  0
   -5.0575   -0.5176   -1.1095 H   0  0  0  0  0  0  0  0  0  0  0  0
   -3.5123   -3.8060    0.1608 H   0  0  0  0  0  0  0  0  0  0  0  0
   -1.8940   -5.5008   -0.4542 H   0  0  0  0  0  0  0  0  0  0  0  0
    1.1438   -2.6443   -0.0274 H   0  0  0  0  0  0  0  0  0  0  0  0
  1 36  1  0  0  0  0
  1 37  1  0  0  0  0
  1 38  1  0  0  0  0
  2  1  1  0  0  0  0
  2  3  1  0  0  0  0
  2 39  1  6  0  0  0
  3  4  1  0  0  0  0
  3 40  1  0  0  0  0
  3 41  1  0  0  0  0
  4  5  1  0  0  0  0
  4 15  1  0  0  0  0
  5  6  2  0  0  0  0
  6  7  1  0  0  0  0
  6 42  1  0  0  0  0
  7  8  2  0  0  0  0
  8  9  1  0  0  0  0
  8 43  1  0  0  0  0
  9 10  2  0  0  0  0
 10 11  1  0  0  0  0
 10 44  1  0  0  0  0
 11 12  2  0  0  0  0
 11 45  1  0  0  0  0
 12 13  1  0  0  0  0
 12 46  1  0  0  0  0
 13 14  2  0  0  0  0
 13 47  1  0  0  0  0
 14  5  1  0  0  0  0
 14  9  1  0  0  0  0
 15 16  2  0  0  0  0
 17 15  1  1  0  0  0
 17 18  1  0  0  0  0
 17  2  1  0  0  0  0
 18 19  1  0  0  0  0
 18 48  1  0  0  0  0
 18 49  1  0  0  0  0
 19 20  1  0  0  0  0
 19 27  1  0  0  0  0
 20 21  1  0  0  0  0
 20 50  1  0  0  0  0
 20 51  1  0  0  0  0
 21 22  2  0  0  0  0
 22 23  1  0  0  0  0
 23 24  2  0  0  0  0
 23 52  1  0  0  0  0
 24 25  1  0  0  0  0
 24 53  1  0  0  0  0
 25 26  1  0  0  0  0
 25 21  1  0  0  0  0
 26 54  1  0  0  0  0
 26 55  1  0  0  0  0
 26 56  1  0  0  0  0
 27 28  2  0  0  0  0
 27 29  1  0  0  0  0
 29 30  2  0  0  0  0
 30 31  1  0  0  0  0
 30 57  1  0  0  0  0
 31 32  2  0  0  0  0
 31 58  1  0  0  0  0
 32 33  1  0  0  0  0
 32 34  1  0  0  0  0
 34 35  2  0  0  0  0
 34 59  1  0  0  0  0
 35 29  1  0  0  0  0
 35 17  1  0  0  0  0
M  END
$$$$

 OpenBabel07292611443D

 58 61  0  0  0  0  0  0  0  0999 V2000
   -2.2218   -0.1278    3.5093 C   0  0  0  0  0  0  0  0  0  0  0  0
   -1.2196    0.1112    2.6115 C   0  0  0  0  0  0  0  0  0  0  0  0
   -1.3026   -0.6295    1.3655 C   0  0  0  0  0  0  0  0  0  0  0  0
   -1.4820   -0.0049    0.1279 N   0  0  0  0  0  0  0  0  0  0  0  0
   -0.6546    0.4849   -0.8820 C   0  0  0  0  0  0  0  0  0  0  0  0
   -1.3731    0.8737   -1.9360 O   0  0  0  0  0  0  0  0  0  0  0  0
    0.7552    0.6616   -1.0554 C   0  0  2  0  0  0  0  0  0  0  0  0
    1.6559   -0.4493   -0.5517 C   0  0  0  0  0  0  0  0  0  0  0  0
    3.0539   -0.1667   -0.9259 N   0  0  0  0  0  0  0  0  0  0  0  0
    3.8686   -1.0795   -1.6665 C   0  0  0  0  0  0  0  0  0  0  0  0
    4.6238   -2.0192   -0.7792 C   0  0  0  0  0  0  0  0  0  0  0  0
    5.3724   -2.8646   -1.3483 O   0  0  0  0  0  0  0  0  0  0  0  0
    4.5007   -1.9597    0.6515 N   0  0  0  0  0  0  0  0  0  0  0  0
    5.2184   -2.8547    1.5265 C   0  0  0  0  0  0  0  0  0  0  0  0
    3.5479    1.1148   -0.4817 C   0  0  0  0  0  0  0  0  0  0  0  0
    4.7836    1.2647   -0.2721 O   0  0  0  0  0  0  0  0  0  0  0  0
    2.5694    2.1811   -0.2995 C   0  0  0  0  0  0  0  0  0  0  0  0
    3.0447    3.3978    0.1514 C   0  0  0  0  0  0  0  0  0  0  0  0
    2.1226    4.4030    0.3488 C   0  0  0  0  0  0  0  0  0  0  0  0
    0.7642    4.2320    0.1134 C   0  0  0  0  0  0  0  0  0  0  0  0
   -0.3672    5.5403    0.3800 Cl  0  0  0  0  0  0  0  0  0  0  0  0
    0.2830    2.9996   -0.3438 C   0  0  0  0  0  0  0  0  0  0  0  0
    1.2049    1.9813   -0.5458 C   0  0  0  0  0  0  0  0  0  0  0  0
   -2.9277    0.1679   -0.2392 C   0  0  0  0  0  0  0  0  0  0  0  0
   -3.5527    1.3376    0.1314 C   0  0  0  0  0  0  0  0  0  0  0  0
   -4.8487    1.4751   -0.2061 N   0  0  0  0  0  0  0  0  0  0  0  0
   -5.4820    0.4941   -0.8777 C   0  0  0  0  0  0  0  0  0  0  0  0
   -4.8728   -0.6736   -1.2523 C   0  0  0  0  0  0  0  0  0  0  0  0
   -5.5944   -1.6425   -1.9456 C   0  0  0  0  0  0  0  0  0  0  0  0
   -4.9281   -2.8023   -2.2985 C   0  0  0  0  0  0  0  0  0  0  0  0
   -3.6046   -2.9900   -1.9767 C   0  0  0  0  0  0  0  0  0  0  0  0
   -2.9036   -2.0120   -1.2854 C   0  0  0  0  0  0  0  0  0  0  0  0
   -3.5470   -0.8515   -0.9250 C   0  0  0  0  0  0  0  0  0  0  0  0
   -0.2262    1.0367    3.0781 C   0  0  0  0  0  0  0  0  0  0  0  0
   -0.4293    1.5206    4.2569 O   0  0  0  0  0  0  0  0  0  0  0  0
    0.9027    1.4721    2.4501 O   0  5  0  0  0  0  0  0  0  0  0  0
   -2.9854   -0.7791    3.2690 H   0  0  0  0  0  0  0  0  0  0  0  0
   -2.2150    0.3430    4.4276 H   0  0  0  0  0  0  0  0  0  0  0  0
   -2.1231   -1.3071    1.4774 H   0  0  0  0  0  0  0  0  0  0  0  0
   -0.3082   -1.0137    1.2736 H   0  0  0  0  0  0  0  0  0  0  0  0
    0.8725    0.6177   -2.1180 H   0  0  0  0  0  0  0  0  0  0  0  0
    1.3522   -1.3781   -0.9876 H   0  0  0  0  0  0  0  0  0  0  0  0
    1.5805   -0.5097    0.5139 H   0  0  0  0  0  0  0  0  0  0  0  0
    4.5695   -0.5194   -2.2495 H   0  0  0  0  0  0  0  0  0  0  0  0
    3.2221   -1.6647   -2.2865 H   0  0  0  0  0  0  0  0  0  0  0  0
    3.9052   -1.2839    1.0488 H   0  0  0  0  0  0  0  0  0  0  0  0
    5.8162   -3.5221    0.9416 H   0  0  0  0  0  0  0  0  0  0  0  0
    4.5209   -3.4188    2.1097 H   0  0  0  0  0  0  0  0  0  0  0  0
    5.8503   -2.2869    2.1771 H   0  0  0  0  0  0  0  0  0  0  0  0
    4.0495    3.5477    0.3330 H   0  0  0  0  0  0  0  0  0  0  0  0
    2.4549    5.3203    0.6853 H   0  0  0  0  0  0  0  0  0  0  0  0
   -0.7224    2.8530   -0.5245 H   0  0  0  0  0  0  0  0  0  0  0  0
   -3.0492    2.0771    0.6458 H   0  0  0  0  0  0  0  0  0  0  0  0
   -6.4755    0.6293   -1.1220 H   0  0  0  0  0  0  0  0  0  0  0  0
   -6.5878   -1.5006   -2.1867 H   0  0  0  0  0  0  0  0  0  0  0  0
   -5.4338   -3.5404   -2.8129 H   0  0  0  0  0  0  0  0  0  0  0  0
   -3.1294   -3.8640   -2.2511 H   0  0  0  0  0  0  0  0  0  0  0  0
   -1.9102   -2.1542   -1.0444 H   0  0  0  0  0  0  0  0  0  0  0  0
  1  2  2  0  0  0  0
  1 37  1  0  0  0  0
  1 38  1  0  0  0  0
  2  3  1  0  0  0  0
  2 34  1  0  0  0  0
  3  4  1  0  0  0  0
  3 39  1  0  0  0  0
  3 40  1  0  0  0  0
  4  5  1  0  0  0  0
  4 24  1  0  0  0  0
  5  6  2  0  0  0  0
  7  5  1  0  0  0  0
  7  8  1  0  0  0  0
  7 41  1  6  0  0  0
  8  9  1  0  0  0  0
  8 42  1  0  0  0  0
  8 43  1  0  0  0  0
  9 10  1  0  0  0  0
  9 15  1  0  0  0  0
 10 11  1  0  0  0  0
 10 44  1  0  0  0  0
 10 45  1  0  0  0  0
 11 12  2  0  0  0  0
 11 13  1  0  0  0  0
 13 14  1  0  0  0  0
 13 46  1  0  0  0  0
 14 47  1  0  0  0  0
 14 48  1  0  0  0  0
 14 49  1  0  0  0  0
 15 16  2  0  0  0  0
 15 17  1  0  0  0  0
 17 18  2  0  0  0  0
 18 19  1  0  0  0  0
 18 50  1  0  0  0  0
 19 20  2  0  0  0  0
 19 51  1  0  0  0  0
 20 21  1  0  0  0  0
 20 22  1  0  0  0  0
 22 23  2  0  0  0  0
 22 52  1  0  0  0  0
 23  7  1  0  0  0  0
 23 17  1  0  0  0  0
 24 25  2  0  0  0  0
 25 26  1  0  0  0  0
 25 53  1  0  0  0  0
 26 27  2  0  0  0  0
 27 28  1  0  0  0  0
 27 54  1  0  0  0  0
 28 29  2  0  0  0  0
 29 30  1  0  0  0  0
 29 55  1  0  0  0  0
 30 31  2  0  0  0  0
 30 56  1  0  0  0  0
 31 32  1  0  0  0  0
 31 57  1  0  0  0  0
 32 33  2  0  0  0  0
 32 58  1  0  0  0  0
 33 24  1  0  0  0  0
 33 28  1  0  0  0  0
 34 35  2  0  0  0  0
 34 36  1  0  0  0  0
M  CHG  1  36  -1
M  END
$$$$

 OpenBabel07292611443D

 43 45  0  0  0  0  0  0  0  0999 V2000
    5.7568    0.8629    0.0082 C   0  0  0  0  0  0  0  0  0  0  0  0
    5.0097   -0.4362   -0.0884 C   0  0  0  0  0  0  0  0  0  0  0  0
    3.6596   -0.2467   -0.7369 C   0  0  0  0  0  0  0  0  0  0  0  0
    2.9312   -1.5665   -0.8213 C   0  0  0  0  0  0  0  0  0  0  0  0
    1.4769   -1.4029   -1.1555 C   0  0  0  0  0  0  0  0  0  0  0  0
    0.8419   -0.6096   -0.0934 N   0  0  0  0  0  0  0  0  0  0  0  0
   -0.5610   -0.7481    0.0935 C   0  0  0  0  0  0  0  0  0  0  0  0
   -1.1890   -1.5263   -0.6407 O   0  0  0  0  0  0  0  0  0  0  0  0
   -1.2362    0.0269    1.1444 C   0  0  0  0  0  0  0  0  0  0  0  0
   -2.6837   -0.2268    1.2120 C   0  0  0  0  0  0  0  0  0  0  0  0
   -3.2651   -1.0092    2.1880 C   0  0  0  0  0  0  0  0  0  0  0  0
   -4.5830   -1.2505    2.2624 N   0  0  0  0  0  0  0  0  0  0  0  0
   -5.4244   -0.7065    1.3360 C   0  0  0  0  0  0  0  0  0  0  0  0
   -4.8733    0.0818    0.3456 C   0  0  0  0  0  0  0  0  0  0  0  0
   -5.6949    0.6478   -0.6072 C   0  0  0  0  0  0  0  0  0  0  0  0
   -5.2328    1.4474   -1.6304 C   0  0  0  0  0  0  0  0  0  0  0  0
   -3.8783    1.6914   -1.7014 C   0  0  0  0  0  0  0  0  0  0  0  0
   -3.0445    1.1383   -0.7641 C   0  0  0  0  0  0  0  0  0  0  0  0
   -3.5214    0.3409    0.2531 C   0  0  0  0  0  0  0  0  0  0  0  0
    1.6727    0.2663    0.7028 C   0  0  0  0  0  0  0  0  0  0  0  0
    2.8277    0.8299   -0.0921 C   0  0  0  0  0  0  0  0  0  0  0  0
    6.7067    0.6945    0.4710 H   0  0  0  0  0  0  0  0  0  0  0  0
    5.1919    1.5564    0.5954 H   0  0  0  0  0  0  0  0  0  0  0  0
    5.9041    1.2634   -0.9730 H   0  0  0  0  0  0  0  0  0  0  0  0
    4.8709   -0.8323    0.8959 H   0  0  0  0  0  0  0  0  0  0  0  0
    5.5818   -1.1103   -0.6910 H   0  0  0  0  0  0  0  0  0  0  0  0
    3.8341    0.1064   -1.7318 H   0  0  0  0  0  0  0  0  0  0  0  0
    3.0121   -2.0635    0.1228 H   0  0  0  0  0  0  0  0  0  0  0  0
    3.3822   -2.1359   -1.6070 H   0  0  0  0  0  0  0  0  0  0  0  0
    1.0101   -2.3638   -1.2167 H   0  0  0  0  0  0  0  0  0  0  0  0
    1.3702   -0.9071   -2.0977 H   0  0  0  0  0  0  0  0  0  0  0  0
   -1.0820    1.0680    0.9514 H   0  0  0  0  0  0  0  0  0  0  0  0
   -0.8164   -0.2746    2.0813 H   0  0  0  0  0  0  0  0  0  0  0  0
   -2.6517   -1.4330    2.9015 H   0  0  0  0  0  0  0  0  0  0  0  0
   -6.4412   -0.8790    1.3745 H   0  0  0  0  0  0  0  0  0  0  0  0
   -6.7086    0.4628   -0.5509 H   0  0  0  0  0  0  0  0  0  0  0  0
   -5.8822    1.8516   -2.3232 H   0  0  0  0  0  0  0  0  0  0  0  0
   -3.4950    2.2852   -2.4534 H   0  0  0  0  0  0  0  0  0  0  0  0
   -2.0311    1.3245   -0.8222 H   0  0  0  0  0  0  0  0  0  0  0  0
    2.0616   -0.2866    1.5322 H   0  0  0  0  0  0  0  0  0  0  0  0
    1.0680    1.0853    1.0322 H   0  0  0  0  0  0  0  0  0  0  0  0
    3.4516    1.3993    0.5647 H   0  0  0  0  0  0  0  0  0  0  0  0
    2.4208    1.4391   -0.8720 H   0  0  0  0  0  0  0  0  0  0  0  0
  1  2  1  0  0  0  0
  1 22  1  0  0  0  0
  1 23  1  0  0  0  0
  1 24  1  0  0  0  0
  2  3  1  0  0  0  0
  2 25  1  0  0  0  0
  2 26  1  0  0  0  0
  3  4  1  0  0  0  0
  3 27  1  0  0  0  0
  4  5  1  0  0  0  0
  4 28  1  0  0  0  0
  4 29  1  0  0  0  0
  5  6  1  0  0  0  0
  5 30  1  0  0  0  0
  5 31  1  0  0  0  0
  6  7  1  0  0  0  0
  6 20  1  0  0  0  0
  7  8  2  0  0  0  0
  7  9  1  0  0  0  0
  9 10  1  0  0  0  0
  9 32  1  0  0  0  0
  9 33  1  0  0  0  0
 10 11  2  0  0  0  0
 11 12  1  0  0  0  0
 11 34  1  0  0  0  0
 12 13  2  0  0  0  0
 13 14  1  0  0  0  0
 13 35  1  0  0  0  0
 14 15  2  0  0  0  0
 15 16  1  0  0  0  0
 15 36  1  0  0  0  0
 16 17  2  0  0  0  0
 16 37  1  0  0  0  0
 17 18  1  0  0  0  0
 17 38  1  0  0  0  0
 18 19  2  0  0  0  0
 18 39  1  0  0  0  0
 19 10  1  0  0  0  0
 19 14  1  0  0  0  0
 20 21  1  0  0  0  0
 20 40  1  0  0  0  0
 20 41  1  0  0  0  0
 21  3  1  0  0  0  0
 21 42  1  0  0  0  0
 21 43  1  0  0  0  0
M  END
$$$$

 OpenBabel07292611443D

 44 47  0  0  0  0  0  0  0  0999 V2000
    4.8902    0.7931    1.2163 C   0  0  0  0  0  0  0  0  0  0  0  0
    5.1044   -0.0445    0.0078 C   0  0  0  0  0  0  0  0  0  0  0  0
    4.2619   -1.5905   -0.0213 S   0  0  0  0  0  0  0  0  0  0  0  0
    4.6193   -2.3026   -1.3230 O   0  0  0  0  0  0  0  0  0  0  0  0
    4.6987   -2.4454    1.1477 O   0  0  0  0  0  0  0  0  0  0  0  0
    2.5869   -1.4620    0.0420 N   0  0  0  0  0  0  0  0  0  0  0  0
    2.0144   -0.8610    1.2077 C   0  0  0  0  0  0  0  0  0  0  0  0
    1.0546   -0.1527    0.2924 C   0  0  0  0  0  0  0  0  0  0  0  0
    2.1208   -0.2992   -0.7318 C   0  0  0  0  0  0  0  0  0  0  0  0
   -0.2203   -0.8516    0.0128 C   0  0  0  0  0  0  0  0  0  0  0  0
   -0.5267   -2.0425    0.1991 O   0  0  0  0  0  0  0  0  0  0  0  0
   -1.0776    0.1675   -0.5441 N   0  0  0  0  0  0  0  0  0  0  0  0
   -2.2528   -0.0710   -1.3094 C   0  0  0  0  0  0  0  0  0  0  0  0
   -2.1225   -0.1781   -2.6766 C   0  0  0  0  0  0  0  0  0  0  0  0
   -3.2086   -0.4052   -3.4557 N   0  0  0  0  0  0  0  0  0  0  0  0
   -4.4415   -0.5336   -2.9340 C   0  0  0  0  0  0  0  0  0  0  0  0
   -4.5968   -0.4294   -1.5583 C   0  0  0  0  0  0  0  0  0  0  0  0
   -5.8597   -0.5575   -0.9859 C   0  0  0  0  0  0  0  0  0  0  0  0
   -5.9714   -0.4474    0.3857 C   0  0  0  0  0  0  0  0  0  0  0  0
   -4.9023   -0.2196    1.1989 C   0  0  0  0  0  0  0  0  0  0  0  0
   -3.6426   -0.0901    0.6465 C   0  0  0  0  0  0  0  0  0  0  0  0
   -3.5085   -0.1978   -0.7337 C   0  0  0  0  0  0  0  0  0  0  0  0
   -0.5114    1.4423   -0.1741 C   0  0  0  0  0  0  0  0  0  0  0  0
   -1.0012    2.5521   -0.4918 O   0  0  0  0  0  0  0  0  0  0  0  0
    0.6775    1.1799    0.5996 N   0  0  0  0  0  0  0  0  0  0  0  0
    1.2504    2.1836    1.4729 C   0  0  0  0  0  0  0  0  0  0  0  0
    5.4472    1.7020    1.1236 H   0  0  0  0  0  0  0  0  0  0  0  0
    5.2200    0.2595    2.0831 H   0  0  0  0  0  0  0  0  0  0  0  0
    3.8492    1.0210    1.3124 H   0  0  0  0  0  0  0  0  0  0  0  0
    6.1530   -0.2419   -0.0717 H   0  0  0  0  0  0  0  0  0  0  0  0
    4.7009    0.5185   -0.8078 H   0  0  0  0  0  0  0  0  0  0  0  0
    2.6755   -0.2152    1.7470 H   0  0  0  0  0  0  0  0  0  0  0  0
    1.6734   -1.4493    2.0338 H   0  0  0  0  0  0  0  0  0  0  0  0
    2.8130    0.5154   -0.7793 H   0  0  0  0  0  0  0  0  0  0  0  0
    1.9013   -0.3619   -1.7772 H   0  0  0  0  0  0  0  0  0  0  0  0
   -1.1911   -0.0848   -3.1111 H   0  0  0  0  0  0  0  0  0  0  0  0
   -5.2558   -0.7061   -3.5440 H   0  0  0  0  0  0  0  0  0  0  0  0
   -6.6912   -0.7304   -1.5722 H   0  0  0  0  0  0  0  0  0  0  0  0
   -6.9057   -0.5418    0.8138 H   0  0  0  0  0  0  0  0  0  0  0  0
   -5.0325   -0.1443    2.2199 H   0  0  0  0  0  0  0  0  0  0  0  0
   -2.8195    0.0827    1.2446 H   0  0  0  0  0  0  0  0  0  0  0  0
    0.6611    3.0755    1.4261 H   0  0  0  0  0  0  0  0  0  0  0  0
    2.2504    2.4000    1.1597 H   0  0  0  0  0  0  0  0  0  0  0  0
    1.2629    1.8167    2.4780 H   0  0  0  0  0  0  0  0  0  0  0  0
  1  2  1  0  0  0  0
  1 27  1  0  0  0  0
  1 28  1  0  0  0  0
  1 29  1  0  0  0  0
  2  3  1  0  0  0  0
  2 30  1  0  0  0  0
  2 31  1  0  0  0  0
  3  4  2  0  0  0  0
  3  5  2  0  0  0  0
  3  6  1  0  0  0  0
  6  7  1  0  0  0  0
  7  8  1  0  0  0  0
  7 32  1  0  0  0  0
  7 33  1  0  0  0  0
  8  9  1  0  0  0  0
  8 10  1  0  0  0  0
  9  6  1  0  0  0  0
  9 34  1  0  0  0  0
  9 35  1  0  0  0  0
 10 11  2  0  0  0  0
 10 12  1  0  0  0  0
 12 13  1  0  0  0  0
 12 23  1  0  0  0  0
 13 14  2  0  0  0  0
 14 15  1  0  0  0  0
 14 36  1  0  0  0  0
 15 16  2  0  0  0  0
 16 17  1  0  0  0  0
 16 37  1  0  0  0  0
 17 18  2  0  0  0  0
 18 19  1  0  0  0  0
 18 38  1  0  0  0  0
 19 20  2  0  0  0  0
 19 39  1  0  0  0  0
 20 21  1  0  0  0  0
 20 40  1  0  0  0  0
 21 22  2  0  0  0  0
 21 41  1  0  0  0  0
 22 13  1  0  0  0  0
 22 17  1  0  0  0  0
 23 24  2  0  0  0  0
 23 25  1  0  0  0  0
 25 26  1  0  0  0  0
 25  8  1  0  0  0  0
 26 42  1  0  0  0  0
 26 43  1  0  0  0  0
 26 44  1  0  0  0  0
M  END
$$$$

 OpenBabel07292611443D

 60 64  0  0  0  0  0  0  0  0999 V2000
    4.2788   -3.9083    1.5363 C   0  0  0  0  0  0  0  0  0  0  0  0
    3.6516   -2.8437    0.7692 N   0  0  0  0  0  0  0  0  0  0  0  0
    3.4781   -2.9539   -0.6169 C   0  0  0  0  0  0  0  0  0  0  0  0
    3.8835   -4.0094   -1.1874 O   0  0  0  0  0  0  0  0  0  0  0  0
    2.8504   -1.9213   -1.4794 C   0  0  0  0  0  0  0  0  0  0  0  0
    2.4295   -0.7730   -0.7279 N   0  0  0  0  0  0  0  0  0  0  0  0
    1.1411   -0.6128   -0.1316 C   0  0  0  0  0  0  0  0  0  0  0  0
    0.5413    0.7507   -0.2449 C   0  0  2  0  0  0  0  0  0  0  0  0
   -0.5232    0.8146    0.8119 C   0  0  0  0  0  0  0  0  0  0  0  0
   -0.3410    1.1352    2.0161 O   0  0  0  0  0  0  0  0  0  0  0  0
   -1.7822    0.4564    0.2504 N   0  0  0  0  0  0  0  0  0  0  0  0
   -3.0472    0.4388    0.9048 C   0  0  0  0  0  0  0  0  0  0  0  0
   -3.7720    1.6341    0.8430 C   0  0  0  0  0  0  0  0  0  0  0  0
   -4.9856    1.7438    1.4249 N   0  0  0  0  0  0  0  0  0  0  0  0
   -5.5105    0.6883    2.0761 C   0  0  0  0  0  0  0  0  0  0  0  0
   -4.8088   -0.5126    2.1517 C   0  0  0  0  0  0  0  0  0  0  0  0
   -5.3464   -1.5943    2.8190 C   0  0  0  0  0  0  0  0  0  0  0  0
   -4.6430   -2.7907    2.8921 C   0  0  0  0  0  0  0  0  0  0  0  0
   -3.3895   -2.8828    2.2834 C   0  0  0  0  0  0  0  0  0  0  0  0
   -2.8313   -1.8067    1.6077 C   0  0  0  0  0  0  0  0  0  0  0  0
   -3.5530   -0.6539    1.5597 C   0  0  0  0  0  0  0  0  0  0  0  0
   -1.5157    0.1084   -1.1405 C   0  0  0  0  0  0  0  0  0  0  0  0
   -0.3229    0.9432   -1.4789 C   0  0  2  0  0  0  0  0  0  0  0  0
    0.3643    0.5647   -2.7362 C   0  0  0  0  0  0  0  0  0  0  0  0
   -0.4639    0.7545   -3.8168 O   0  0  0  0  0  0  0  0  0  0  0  0
   -0.8996    2.0436   -4.0159 C   0  0  0  0  0  0  0  0  0  0  0  0
    1.5443    1.8040   -0.0903 C   0  0  0  0  0  0  0  0  0  0  0  0
    1.1153    3.0771    0.2244 C   0  0  0  0  0  0  0  0  0  0  0  0
    1.9700    4.1459    0.3938 C   0  0  0  0  0  0  0  0  0  0  0  0
    1.3076    5.7200    0.7931 Cl  0  0  0  0  0  0  0  0  0  0  0  0
    3.3259    3.9392    0.2423 C   0  0  0  0  0  0  0  0  0  0  0  0
    3.7936    2.6708   -0.0743 C   0  0  0  0  0  0  0  0  0  0  0  0
    2.9059    1.6285   -0.2353 C   0  0  0  0  0  0  0  0  0  0  0  0
    3.3752    0.2884   -0.5676 C   0  0  0  0  0  0  0  0  0  0  0  0
    4.6266    0.0775   -0.7118 O   0  0  0  0  0  0  0  0  0  0  0  0
    4.3154   -3.6300    2.5688 H   0  0  0  0  0  0  0  0  0  0  0  0
    5.2729   -4.0702    1.1751 H   0  0  0  0  0  0  0  0  0  0  0  0
    3.7095   -4.8080    1.4294 H   0  0  0  0  0  0  0  0  0  0  0  0
    3.3435   -2.0312    1.2320 H   0  0  0  0  0  0  0  0  0  0  0  0
    1.9972   -2.3484   -1.9637 H   0  0  0  0  0  0  0  0  0  0  0  0
    3.5805   -1.5991   -2.1921 H   0  0  0  0  0  0  0  0  0  0  0  0
    1.2283   -0.8485    0.9085 H   0  0  0  0  0  0  0  0  0  0  0  0
    0.4865   -1.2657   -0.6703 H   0  0  0  0  0  0  0  0  0  0  0  0
   -3.3727    2.4448    0.3447 H   0  0  0  0  0  0  0  0  0  0  0  0
   -6.4378    0.7696    2.5216 H   0  0  0  0  0  0  0  0  0  0  0  0
   -6.2736   -1.5146    3.2651 H   0  0  0  0  0  0  0  0  0  0  0  0
   -5.0423   -3.6015    3.3903 H   0  0  0  0  0  0  0  0  0  0  0  0
   -2.8666   -3.7709    2.3372 H   0  0  0  0  0  0  0  0  0  0  0  0
   -1.9047   -1.8780    1.1590 H   0  0  0  0  0  0  0  0  0  0  0  0
   -2.3482    0.3579   -1.7647 H   0  0  0  0  0  0  0  0  0  0  0  0
   -1.3503   -0.9386   -1.2868 H   0  0  0  0  0  0  0  0  0  0  0  0
   -0.5771    1.9619   -1.6852 H   0  0  0  0  0  0  0  0  0  0  0  0
    0.6462   -0.4663   -2.6861 H   0  0  0  0  0  0  0  0  0  0  0  0
    1.2314    1.1805   -2.8540 H   0  0  0  0  0  0  0  0  0  0  0  0
   -1.5333    2.0769   -4.8774 H   0  0  0  0  0  0  0  0  0  0  0  0
   -0.0570    2.6854   -4.1679 H   0  0  0  0  0  0  0  0  0  0  0  0
   -1.4475    2.3715   -3.1573 H   0  0  0  0  0  0  0  0  0  0  0  0
    0.1023    3.2377    0.3389 H   0  0  0  0  0  0  0  0  0  0  0  0
    3.9876    4.7218    0.3635 H   0  0  0  0  0  0  0  0  0  0  0  0
    4.8062    2.5083   -0.1891 H   0  0  0  0  0  0  0  0  0  0  0  0
  1  2  1  0  0  0  0
  1 36  1  0  0  0  0
  1 37  1  0  0  0  0
  1 38  1  0  0  0  0
  2  3  1  0  0  0  0
  2 39  1  0  0  0  0
  3  4  2  0  0  0  0
  3  5  1  0  0  0  0
  5  6  1  0  0  0  0
  5 40  1  0  0  0  0
  5 41  1  0  0  0  0
  6  7  1  0  0  0  0
  7 42  1  0  0  0  0
  7 43  1  0  0  0  0
  8  7  1  0  0  0  0
  8  9  1  1  0  0  0
  8 27  1  0  0  0  0
  9 10  2  0  0  0  0
  9 11  1  0  0  0  0
 11 12  1  0  0  0  0
 11 22  1  0  0  0  0
 12 13  2  0  0  0  0
 13 14  1  0  0  0  0
 13 44  1  0  0  0  0
 14 15  2  0  0  0  0
 15 16  1  0  0  0  0
 15 45  1  0  0  0  0
 16 17  2  0  0  0  0
 17 18  1  0  0  0  0
 17 46  1  0  0  0  0
 18 19  2  0  0  0  0
 18 47  1  0  0  0  0
 19 20  1  0  0  0  0
 19 48  1  0  0  0  0
 20 21  2  0  0  0  0
 20 49  1  0  0  0  0
 21 12  1  0  0  0  0
 21 16  1  0  0  0  0
 22 23  1  0  0  0  0
 22 50  1  0  0  0  0
 22 51  1  0  0  0  0
 23 24  1  0  0  0  0
 23  8  1  0  0  0  0
 23 52  1  6  0  0  0
 24 25  1  0  0  0  0
 24 53  1  0  0  0  0
 24 54  1  0  0  0  0
 25 26  1  0  0  0  0
 26 55  1  0  0  0  0
 26 56  1  0  0  0  0
 26 57  1  0  0  0  0
 27 28  2  0  0  0  0
 28 29  1  0  0  0  0
 28 58  1  0  0  0  0
 29 30  1  0  0  0  0
 29 31  2  0  0  0  0
 31 32  1  0  0  0  0
 31 59  1  0  0  0  0
 32 33  2  0  0  0  0
 32 60  1  0  0  0  0
 33 34  1  0  0  0  0
 33 27  1  0  0  0  0
 34 35  2  0  0  0  0
 34  6  1  0  0  0  0
M  END
$$$$

 OpenBabel07292611443D

 41 43  0  0  0  0  0  0  0  0999 V2000
   -5.6324   -0.1394   -0.4218 C   0  0  0  0  0  0  0  0  0  0  0  0
   -4.1567    0.2156   -0.4266 C   0  0  1  0  0  0  0  0  0  0  0  0
   -3.9289    1.4664    0.3238 C   0  0  0  0  0  0  0  0  0  0  0  0
   -2.7643    2.1234    0.4139 C   0  0  0  0  0  0  0  0  0  0  0  0
   -1.5120    1.6507   -0.2580 C   0  0  0  0  0  0  0  0  0  0  0  0
   -1.2120    0.2831    0.1806 N   0  0  0  0  0  0  0  0  0  0  0  0
    0.0750   -0.2413   -0.1005 C   0  0  0  0  0  0  0  0  0  0  0  0
    0.4407   -1.4011    0.2395 O   0  0  0  0  0  0  0  0  0  0  0  0
    1.0668    0.5869   -0.8285 C   0  0  0  0  0  0  0  0  0  0  0  0
    2.3545   -0.1338   -1.0071 C   0  0  0  0  0  0  0  0  0  0  0  0
    2.7299   -0.6978   -2.2133 C   0  0  0  0  0  0  0  0  0  0  0  0
    3.8990   -1.3514   -2.3719 N   0  0  0  0  0  0  0  0  0  0  0  0
    4.7710   -1.4835   -1.3297 C   0  0  0  0  0  0  0  0  0  0  0  0
    4.4505   -0.9420   -0.1035 C   0  0  0  0  0  0  0  0  0  0  0  0
    5.2978   -1.0453    0.9921 C   0  0  0  0  0  0  0  0  0  0  0  0
    4.9695   -0.4979    2.2251 C   0  0  0  0  0  0  0  0  0  0  0  0
    3.7656    0.1734    2.3829 C   0  0  0  0  0  0  0  0  0  0  0  0
    2.9037    0.2853    1.2910 C   0  0  0  0  0  0  0  0  0  0  0  0
    3.2398   -0.2621    0.0705 C   0  0  0  0  0  0  0  0  0  0  0  0
   -2.1458   -0.5889    0.8920 C   0  0  0  0  0  0  0  0  0  0  0  0
   -3.3665   -0.9171    0.1085 C   0  0  0  0  0  0  0  0  0  0  0  0
   -6.1981    0.6821   -0.8092 H   0  0  0  0  0  0  0  0  0  0  0  0
   -5.9459   -0.3475    0.5798 H   0  0  0  0  0  0  0  0  0  0  0  0
   -5.7935   -1.0030   -1.0327 H   0  0  0  0  0  0  0  0  0  0  0  0
   -3.8295    0.3897   -1.4304 H   0  0  0  0  0  0  0  0  0  0  0  0
   -4.7371    1.8701    0.8226 H   0  0  0  0  0  0  0  0  0  0  0  0
   -2.7289    2.9921    0.9700 H   0  0  0  0  0  0  0  0  0  0  0  0
   -0.7001    2.2963    0.0046 H   0  0  0  0  0  0  0  0  0  0  0  0
   -1.6478    1.6647   -1.3193 H   0  0  0  0  0  0  0  0  0  0  0  0
    1.2449    1.4839   -0.2731 H   0  0  0  0  0  0  0  0  0  0  0  0
    0.6706    0.8100   -1.7971 H   0  0  0  0  0  0  0  0  0  0  0  0
    2.0925   -0.6155   -3.0207 H   0  0  0  0  0  0  0  0  0  0  0  0
    5.6635   -1.9851   -1.4591 H   0  0  0  0  0  0  0  0  0  0  0  0
    6.1960   -1.5425    0.8868 H   0  0  0  0  0  0  0  0  0  0  0  0
    5.6190   -0.5901    3.0218 H   0  0  0  0  0  0  0  0  0  0  0  0
    3.5111    0.5842    3.2948 H   0  0  0  0  0  0  0  0  0  0  0  0
    2.0058    0.7827    1.3979 H   0  0  0  0  0  0  0  0  0  0  0  0
   -2.4448   -0.0995    1.7953 H   0  0  0  0  0  0  0  0  0  0  0  0
   -1.6351   -1.5104    1.0790 H   0  0  0  0  0  0  0  0  0  0  0  0
   -4.0119   -1.4874    0.7434 H   0  0  0  0  0  0  0  0  0  0  0  0
   -3.0063   -1.4330   -0.7569 H   0  0  0  0  0  0  0  0  0  0  0  0
  1 22  1  0  0  0  0
  1 23  1  0  0  0  0
  1 24  1  0  0  0  0
  2  1  1  0  0  0  0
  2  3  1  0  0  0  0
  2 25  1  6  0  0  0
  3  4  2  0  0  0  0
  3 26  1  0  0  0  0
  4  5  1  0  0  0  0
  4 27  1  0  0  0  0
  5  6  1  0  0  0  0
  5 28  1  0  0  0  0
  5 29  1  0  0  0  0
  6  7  1  0  0  0  0
  6 20  1  0  0  0  0
  7  8  2  0  0  0  0
  7  9  1  0  0  0  0
  9 10  1  0  0  0  0
  9 30  1  0  0  0  0
  9 31  1  0  0  0  0
 10 11  2  0  0  0  0
 11 12  1  0  0  0  0
 11 32  1  0  0  0  0
 12 13  2  0  0  0  0
 13 14  1  0  0  0  0
 13 33  1  0  0  0  0
 14 15  2  0  0  0  0
 15 16  1  0  0  0  0
 15 34  1  0  0  0  0
 16 17  2  0  0  0  0
 16 35  1  0  0  0  0
 17 18  1  0  0  0  0
 17 36  1  0  0  0  0
 18 19  2  0  0  0  0
 18 37  1  0  0  0  0
 19 10  1  0  0  0  0
 19 14  1  0  0  0  0
 20 21  1  0  0  0  0
 20 38  1  0  0  0  0
 20 39  1  0  0  0  0
 21  2  1  0  0  0  0
 21 40  1  0  0  0  0
 21 41  1  0  0  0  0
M  END
$$$$

 OpenBabel07292611443D

 57 62  0  0  0  0  0  0  0  0999 V2000
   -0.7939   -1.2434   -2.5152 C   0  0  0  0  0  0  0  0  0  0  0  0
    0.2886   -1.3113   -1.4917 C   0  0  1  0  0  0  0  0  0  0  0  0
    1.2286   -0.0993   -1.5653 C   0  0  0  0  0  0  0  0  0  0  0  0
    1.9981   -0.3210   -0.3546 N   0  0  0  0  0  0  0  0  0  0  0  0
    3.3707   -0.0285   -0.1156 C   0  0  0  0  0  0  0  0  0  0  0  0
    4.2701   -1.0550   -0.4265 C   0  0  0  0  0  0  0  0  0  0  0  0
    5.6053   -0.8857   -0.2381 N   0  0  0  0  0  0  0  0  0  0  0  0
    6.0561    0.2808    0.2513 C   0  0  0  0  0  0  0  0  0  0  0  0
    5.1895    1.3186    0.5696 C   0  0  0  0  0  0  0  0  0  0  0  0
    5.6518    2.5155    1.0717 C   0  0  0  0  0  0  0  0  0  0  0  0
    4.7445    3.5198    1.3734 C   0  0  0  0  0  0  0  0  0  0  0  0
    3.3875    3.3568    1.1854 C   0  0  0  0  0  0  0  0  0  0  0  0
    2.9149    2.1601    0.6824 C   0  0  0  0  0  0  0  0  0  0  0  0
    3.8103    1.1780    0.3882 C   0  0  0  0  0  0  0  0  0  0  0  0
    1.1069   -0.9125    0.6100 C   0  0  0  0  0  0  0  0  0  0  0  0
    1.3788   -1.2355    1.8060 O   0  0  0  0  0  0  0  0  0  0  0  0
   -0.2328   -1.0850   -0.0617 C   0  0  1  0  0  0  0  0  0  0  0  0
   -0.9881    0.1916    0.0132 C   0  0  0  0  0  0  0  0  0  0  0  0
   -2.1936    0.1728    0.8025 N   0  0  0  0  0  0  0  0  0  0  0  0
   -2.7634    1.4477    1.1984 C   0  0  0  0  0  0  0  0  0  0  0  0
   -3.7386    1.9695    0.2058 C   0  0  0  0  0  0  0  0  0  0  0  0
   -5.0987    1.6903    0.2363 C   0  0  0  0  0  0  0  0  0  0  0  0
   -5.6302    2.3392   -0.8169 N   0  3  0  0  0  0  0  0  0  0  0  0
   -4.6529    2.9882   -1.4687 C   0  0  0  0  0  0  0  0  0  0  0  0
   -3.4713    2.7659   -0.8420 N   0  0  0  0  0  0  0  0  0  0  0  0
   -2.8665   -1.0005    1.2219 C   0  0  0  0  0  0  0  0  0  0  0  0
   -3.9911   -0.9468    1.7564 O   0  0  0  0  0  0  0  0  0  0  0  0
   -2.1882   -2.2727    1.0019 C   0  0  0  0  0  0  0  0  0  0  0  0
   -2.8246   -3.4072    1.4183 C   0  0  0  0  0  0  0  0  0  0  0  0
   -2.2504   -4.6447    1.2640 C   0  0  0  0  0  0  0  0  0  0  0  0
   -1.0076   -4.6918    0.6726 C   0  0  0  0  0  0  0  0  0  0  0  0
   -0.4180   -5.9192    0.5103 F   0  0  0  0  0  0  0  0  0  0  0  0
   -0.3546   -3.5276    0.2451 C   0  0  0  0  0  0  0  0  0  0  0  0
   -0.9258   -2.2832    0.3966 C   0  0  0  0  0  0  0  0  0  0  0  0
   -0.3768   -1.4071   -3.4869 H   0  0  0  0  0  0  0  0  0  0  0  0
   -1.2552   -0.2785   -2.4830 H   0  0  0  0  0  0  0  0  0  0  0  0
   -1.5264   -1.9959   -2.3101 H   0  0  0  0  0  0  0  0  0  0  0  0
    0.7294   -2.2676   -1.6817 H   0  0  0  0  0  0  0  0  0  0  0  0
    0.6913    0.8254   -1.5333 H   0  0  0  0  0  0  0  0  0  0  0  0
    1.8043   -0.0227   -2.4639 H   0  0  0  0  0  0  0  0  0  0  0  0
    3.9160   -1.9486   -0.8022 H   0  0  0  0  0  0  0  0  0  0  0  0
    7.0701    0.4092    0.3942 H   0  0  0  0  0  0  0  0  0  0  0  0
    6.6622    2.6629    1.2216 H   0  0  0  0  0  0  0  0  0  0  0  0
    5.0944    4.4149    1.7494 H   0  0  0  0  0  0  0  0  0  0  0  0
    2.7330    4.1201    1.4179 H   0  0  0  0  0  0  0  0  0  0  0  0
    1.9043    2.0138    0.5329 H   0  0  0  0  0  0  0  0  0  0  0  0
   -1.2555    0.4716   -0.9843 H   0  0  0  0  0  0  0  0  0  0  0  0
   -0.3350    0.8820    0.5048 H   0  0  0  0  0  0  0  0  0  0  0  0
   -1.9710    2.1585    1.3070 H   0  0  0  0  0  0  0  0  0  0  0  0
   -3.2868    1.2973    2.1194 H   0  0  0  0  0  0  0  0  0  0  0  0
   -5.5989    1.1060    0.9243 H   0  0  0  0  0  0  0  0  0  0  0  0
   -6.5821    2.3378   -1.0683 H   0  0  0  0  0  0  0  0  0  0  0  0
   -4.7807    3.5658   -2.3143 H   0  0  0  0  0  0  0  0  0  0  0  0
   -2.5903    3.1190   -1.1037 H   0  0  0  0  0  0  0  0  0  0  0  0
   -3.7555   -3.3327    1.8576 H   0  0  0  0  0  0  0  0  0  0  0  0
   -2.7297   -5.5031    1.5778 H   0  0  0  0  0  0  0  0  0  0  0  0
    0.5763   -3.6045   -0.1936 H   0  0  0  0  0  0  0  0  0  0  0  0
  1 35  1  0  0  0  0
  1 36  1  0  0  0  0
  1 37  1  0  0  0  0
  2  1  1  0  0  0  0
  2  3  1  0  0  0  0
  2 38  1  6  0  0  0
  3  4  1  0  0  0  0
  3 39  1  0  0  0  0
  3 40  1  0  0  0  0
  4  5  1  0  0  0  0
  4 15  1  0  0  0  0
  5  6  2  0  0  0  0
  6  7  1  0  0  0  0
  6 41  1  0  0  0  0
  7  8  2  0  0  0  0
  8  9  1  0  0  0  0
  8 42  1  0  0  0  0
  9 10  2  0  0  0  0
 10 11  1  0  0  0  0
 10 43  1  0  0  0  0
 11 12  2  0  0  0  0
 11 44  1  0  0  0  0
 12 13  1  0  0  0  0
 12 45  1  0  0  0  0
 13 14  2  0  0  0  0
 13 46  1  0  0  0  0
 14  5  1  0  0  0  0
 14  9  1  0  0  0  0
 15 16  2  0  0  0  0
 17 15  1  1  0  0  0
 17 18  1  0  0  0  0
 17  2  1  0  0  0  0
 18 19  1  0  0  0  0
 18 47  1  0  0  0  0
 18 48  1  0  0  0  0
 19 20  1  0  0  0  0
 19 26  1  0  0  0  0
 20 21  1  0  0  0  0
 20 49  1  0  0  0  0
 20 50  1  0  0  0  0
 21 22  2  0  0  0  0
 22 23  1  0  0  0  0
 22 51  1  0  0  0  0
 23 24  2  0  0  0  0
 23 52  1  0  0  0  0
 24 25  1  0  0  0  0
 24 53  1  0  0  0  0
 25 21  1  0  0  0  0
 25 54  1  0  0  0  0
 26 27  2  0  0  0  0
 26 28  1  0  0  0  0
 28 29  2  0  0  0  0
 29 30  1  0  0  0  0
 29 55  1  0  0  0  0
 30 31  2  0  0  0  0
 30 56  1  0  0  0  0
 31 32  1  0  0  0  0
 31 33  1  0  0  0  0
 33 34  2  0  0  0  0
 33 57  1  0  0  0  0
 34 28  1  0  0  0  0
 34 17  1  0  0  0  0
M  CHG  1  23   1
M  END
$$$$

 OpenBabel07292611443D

 48 52  0  0  0  0  0  0  0  0999 V2000
    1.4357   -2.5038    0.6458 C   0  0  0  0  0  0  0  0  0  0  0  0
    0.3198   -1.6611    0.2332 N   0  0  0  0  0  0  0  0  0  0  0  0
   -0.8617   -1.4129    1.0261 C   0  0  0  0  0  0  0  0  0  0  0  0
   -0.9461   -1.5541    2.2924 O   0  0  0  0  0  0  0  0  0  0  0  0
   -1.8992   -0.9881    0.1492 N   0  0  0  0  0  0  0  0  0  0  0  0
   -3.2163   -0.6499    0.5628 C   0  0  0  0  0  0  0  0  0  0  0  0
   -4.1845   -1.6495    0.6050 C   0  0  0  0  0  0  0  0  0  0  0  0
   -5.4417   -1.3570    0.9935 N   0  0  0  0  0  0  0  0  0  0  0  0
   -5.8268   -0.1197    1.3532 C   0  0  0  0  0  0  0  0  0  0  0  0
   -4.9027    0.9145    1.3297 C   0  0  0  0  0  0  0  0  0  0  0  0
   -5.2160    2.2073    1.6824 C   0  0  0  0  0  0  0  0  0  0  0  0
   -4.2764    3.2155    1.6494 C   0  0  0  0  0  0  0  0  0  0  0  0
   -2.9763    2.9252    1.2502 C   0  0  0  0  0  0  0  0  0  0  0  0
   -2.6932    1.6324    0.9054 C   0  0  0  0  0  0  0  0  0  0  0  0
   -3.6121    0.6058    0.9291 C   0  0  0  0  0  0  0  0  0  0  0  0
   -1.3348   -0.9841   -1.1624 C   0  0  0  0  0  0  0  0  0  0  0  0
   -2.0191   -1.0270   -2.2226 O   0  0  0  0  0  0  0  0  0  0  0  0
    0.1269   -0.9221   -0.9727 C   0  0  0  0  0  0  0  0  0  0  0  0
    0.9850   -1.2800   -2.1590 C   0  0  0  0  0  0  0  0  0  0  0  0
    1.1494    0.1318   -2.3926 N   0  0  0  0  0  0  0  0  0  0  0  0
    2.7525    0.6618   -2.6411 S   0  0  0  0  0  0  0  0  0  0  0  0
    3.4054   -0.0238   -3.8126 O   0  0  0  0  0  0  0  0  0  0  0  0
    2.8216    2.1330   -2.9309 O   0  0  0  0  0  0  0  0  0  0  0  0
    3.8014    0.3728   -1.2714 C   0  0  0  0  0  0  0  0  0  0  0  0
    3.9151    1.3364   -0.2903 C   0  0  0  0  0  0  0  0  0  0  0  0
    4.7178    1.1943    0.8223 C   0  0  0  0  0  0  0  0  0  0  0  0
    5.4295    0.0025    0.9166 C   0  0  0  0  0  0  0  0  0  0  0  0
    5.3221   -0.9704   -0.0626 C   0  0  0  0  0  0  0  0  0  0  0  0
    4.5029   -0.7951   -1.1727 C   0  0  0  0  0  0  0  0  0  0  0  0
    0.7045    0.4755   -1.0306 C   0  0  0  0  0  0  0  0  0  0  0  0
    1.2403   -2.9030    1.6191 H   0  0  0  0  0  0  0  0  0  0  0  0
    2.3322   -1.9204    0.6730 H   0  0  0  0  0  0  0  0  0  0  0  0
    1.5535   -3.3065   -0.0519 H   0  0  0  0  0  0  0  0  0  0  0  0
   -3.9393   -2.6159    0.3384 H   0  0  0  0  0  0  0  0  0  0  0  0
   -6.8008    0.0587    1.6440 H   0  0  0  0  0  0  0  0  0  0  0  0
   -6.1795    2.4278    1.9793 H   0  0  0  0  0  0  0  0  0  0  0  0
   -4.5356    4.1775    1.9186 H   0  0  0  0  0  0  0  0  0  0  0  0
   -2.2513    3.6588    1.2154 H   0  0  0  0  0  0  0  0  0  0  0  0
   -1.7298    1.4116    0.6085 H   0  0  0  0  0  0  0  0  0  0  0  0
    0.4718   -1.8037   -2.9383 H   0  0  0  0  0  0  0  0  0  0  0  0
    1.8259   -1.9350   -2.0660 H   0  0  0  0  0  0  0  0  0  0  0  0
    3.3719    2.2077   -0.3943 H   0  0  0  0  0  0  0  0  0  0  0  0
    4.7865    1.9295    1.5432 H   0  0  0  0  0  0  0  0  0  0  0  0
    6.0463   -0.1586    1.7281 H   0  0  0  0  0  0  0  0  0  0  0  0
    5.8618   -1.8448    0.0334 H   0  0  0  0  0  0  0  0  0  0  0  0
    4.4274   -1.5244   -1.8990 H   0  0  0  0  0  0  0  0  0  0  0  0
   -0.0169    1.2639   -0.9776 H   0  0  0  0  0  0  0  0  0  0  0  0
    1.3757    0.8493   -0.2859 H   0  0  0  0  0  0  0  0  0  0  0  0
  1  2  1  0  0  0  0
  1 31  1  0  0  0  0
  1 32  1  0  0  0  0
  1 33  1  0  0  0  0
  2  3  1  0  0  0  0
  3  4  2  0  0  0  0
  3  5  1  0  0  0  0
  5  6  1  0  0  0  0
  5 16  1  0  0  0  0
  6  7  2  0  0  0  0
  7  8  1  0  0  0  0
  7 34  1  0  0  0  0
  8  9  2  0  0  0  0
  9 10  1  0  0  0  0
  9 35  1  0  0  0  0
 10 11  2  0  0  0  0
 11 12  1  0  0  0  0
 11 36  1  0  0  0  0
 12 13  2  0  0  0  0
 12 37  1  0  0  0  0
 13 14  1  0  0  0  0
 13 38  1  0  0  0  0
 14 15  2  0  0  0  0
 14 39  1  0  0  0  0
 15  6  1  0  0  0  0
 15 10  1  0  0  0  0
 16 17  2  0  0  0  0
 16 18  1  0  0  0  0
 18 19  1  0  0  0  0
 18  2  1  0  0  0  0
 19 20  1  0  0  0  0
 19 40  1  0  0  0  0
 19 41  1  0  0  0  0
 20 21  1  0  0  0  0
 20 30  1  0  0  0  0
 21 22  2  0  0  0  0
 21 23  2  0  0  0  0
 21 24  1  0  0  0  0
 24 25  2  0  0  0  0
 25 26  1  0  0  0  0
 25 42  1  0  0  0  0
 26 27  2  0  0  0  0
 26 43  1  0  0  0  0
 27 28  1  0  0  0  0
 27 44  1  0  0  0  0
 28 29  2  0  0  0  0
 28 45  1  0  0  0  0
 29 24  1  0  0  0  0
 29 46  1  0  0  0  0
 30 18  1  0  0  0  0
 30 47  1  0  0  0  0
 30 48  1  0  0  0  0
M  END
$$$$

 OpenBabel07292611443D

 76 82  0  0  0  0  0  0  0  0999 V2000
    3.8571   -0.0229   -1.9162 O   0  0  0  0  0  0  0  0  0  0  0  0
    2.6413    0.2570   -1.7586 C   0  0  0  0  0  0  0  0  0  0  0  0
    2.0596    1.5571   -2.0720 C   0  0  0  0  0  0  0  0  0  0  0  0
    2.8884    2.5123   -2.5907 C   0  0  0  0  0  0  0  0  0  0  0  0
    2.4179    3.7584   -2.9370 C   0  0  0  0  0  0  0  0  0  0  0  0
    1.0757    3.9984   -2.7372 C   0  0  0  0  0  0  0  0  0  0  0  0
    0.4427    5.5688   -3.1656 Cl  0  0  0  0  0  0  0  0  0  0  0  0
    0.2292    3.0168   -2.2049 C   0  0  0  0  0  0  0  0  0  0  0  0
    0.6956    1.7671   -1.8559 C   0  0  0  0  0  0  0  0  0  0  0  0
   -0.1408    0.7335   -1.2842 C   0  0  1  0  0  0  0  0  0  0  0  0
    0.3589   -0.6187   -1.6996 C   0  0  0  0  0  0  0  0  0  0  0  0
    1.7374   -0.7280   -1.2426 N   0  0  0  0  0  0  0  0  0  0  0  0
    2.1883   -1.7615   -0.3345 C   0  0  0  0  0  0  0  0  0  0  0  0
    2.6490   -2.9927   -1.0782 C   0  0  0  0  0  0  0  0  0  0  0  0
    3.1095   -4.0583   -0.2553 N   0  3  0  0  0  0  0  0  0  0  0  0
    2.6867   -3.9934    1.1177 C   0  0  0  0  0  0  0  0  0  0  0  0
    3.4497   -5.0617    1.8782 C   0  0  0  0  0  0  0  0  0  0  0  0
    4.7586   -4.6513    2.0771 O   0  0  0  0  0  0  0  0  0  0  0  0
    5.1559   -3.7797    1.0912 C   0  0  0  0  0  0  0  0  0  0  0  0
    4.5580   -4.1101   -0.2619 C   0  0  0  0  0  0  0  0  0  0  0  0
    0.1052    0.7781    0.2104 C   0  0  0  0  0  0  0  0  0  0  0  0
    1.0929    1.2535    0.8123 O   0  0  0  0  0  0  0  0  0  0  0  0
   -1.0330    0.1574    0.8433 N   0  0  0  0  0  0  0  0  0  0  0  0
   -1.1654   -0.2529    2.1985 C   0  0  0  0  0  0  0  0  0  0  0  0
   -0.8247   -1.5115    2.6479 C   0  0  0  0  0  0  0  0  0  0  0  0
   -0.9436   -1.9105    3.9191 N   0  0  0  0  0  0  0  0  0  0  0  0
   -1.4236   -1.0356    4.8164 C   0  0  0  0  0  0  0  0  0  0  0  0
   -1.7828    0.2375    4.4338 C   0  0  0  0  0  0  0  0  0  0  0  0
   -2.2702    1.0734    5.4340 C   0  0  0  0  0  0  0  0  0  0  0  0
   -2.6398    2.3478    5.1008 C   0  0  0  0  0  0  0  0  0  0  0  0
   -2.5224    2.7731    3.7928 C   0  0  0  0  0  0  0  0  0  0  0  0
   -2.0333    1.9209    2.8118 C   0  0  0  0  0  0  0  0  0  0  0  0
   -1.6583    0.6418    3.1260 C   0  0  0  0  0  0  0  0  0  0  0  0
   -2.0542    0.0119   -0.1446 C   0  0  0  0  0  0  0  0  0  0  0  0
   -1.5954    0.8957   -1.3176 C   0  0  2  0  0  0  0  0  0  0  0  0
   -2.2909    0.3036   -2.5120 C   0  0  0  0  0  0  0  0  0  0  0  0
   -3.7085    0.5733   -2.3480 N   0  0  0  0  0  0  0  0  0  0  0  0
   -4.1547    1.9270   -2.2611 C   0  0  0  0  0  0  0  0  0  0  0  0
   -4.4734    2.5272   -3.4219 N   0  0  0  0  0  0  0  0  0  0  0  0
   -4.8998    3.8001   -3.4082 C   0  0  0  0  0  0  0  0  0  0  0  0
   -5.0283    4.5299   -2.2492 C   0  0  0  0  0  0  0  0  0  0  0  0
   -4.6921    3.8836   -1.0683 C   0  0  0  0  0  0  0  0  0  0  0  0
   -4.2678    2.6046   -1.1235 N   0  0  0  0  0  0  0  0  0  0  0  0
    3.8881    2.2945   -2.7255 H   0  0  0  0  0  0  0  0  0  0  0  0
    3.0423    4.4807   -3.3288 H   0  0  0  0  0  0  0  0  0  0  0  0
   -0.7704    3.2351   -2.0704 H   0  0  0  0  0  0  0  0  0  0  0  0
    0.3172   -0.7136   -2.7646 H   0  0  0  0  0  0  0  0  0  0  0  0
   -0.2445   -1.3934   -1.2746 H   0  0  0  0  0  0  0  0  0  0  0  0
    1.3811   -2.0297    0.3147 H   0  0  0  0  0  0  0  0  0  0  0  0
    3.0166   -1.3783    0.2240 H   0  0  0  0  0  0  0  0  0  0  0  0
    3.4489   -2.7069   -1.7288 H   0  0  0  0  0  0  0  0  0  0  0  0
    1.7906   -3.3662   -1.5965 H   0  0  0  0  0  0  0  0  0  0  0  0
    2.6894   -4.8928   -0.6646 H   0  0  0  0  0  0  0  0  0  0  0  0
    1.6348   -4.1770    1.1855 H   0  0  0  0  0  0  0  0  0  0  0  0
    2.8826   -3.0248    1.5280 H   0  0  0  0  0  0  0  0  0  0  0  0
    3.4443   -5.9713    1.3148 H   0  0  0  0  0  0  0  0  0  0  0  0
    2.9817   -5.2227    2.8268 H   0  0  0  0  0  0  0  0  0  0  0  0
    6.2223   -3.8167    1.0118 H   0  0  0  0  0  0  0  0  0  0  0  0
    4.8115   -2.8046    1.3658 H   0  0  0  0  0  0  0  0  0  0  0  0
    4.8650   -5.0963   -0.5413 H   0  0  0  0  0  0  0  0  0  0  0  0
    4.9067   -3.3776   -0.9595 H   0  0  0  0  0  0  0  0  0  0  0  0
   -0.4552   -2.1872    1.9610 H   0  0  0  0  0  0  0  0  0  0  0  0
   -1.5246   -1.3199    5.8033 H   0  0  0  0  0  0  0  0  0  0  0  0
   -2.3512    0.7389    6.4069 H   0  0  0  0  0  0  0  0  0  0  0  0
   -3.0045    2.9878    5.8236 H   0  0  0  0  0  0  0  0  0  0  0  0
   -2.8011    3.7345    3.5415 H   0  0  0  0  0  0  0  0  0  0  0  0
   -1.9517    2.2539    1.8384 H   0  0  0  0  0  0  0  0  0  0  0  0
   -2.9964    0.3484    0.2348 H   0  0  0  0  0  0  0  0  0  0  0  0
   -2.1908   -1.0083   -0.4370 H   0  0  0  0  0  0  0  0  0  0  0  0
   -1.8211    1.9416   -1.3087 H   0  0  0  0  0  0  0  0  0  0  0  0
   -2.1189   -0.7517   -2.5528 H   0  0  0  0  0  0  0  0  0  0  0  0
   -1.9216    0.7293   -3.4216 H   0  0  0  0  0  0  0  0  0  0  0  0
   -4.3541   -0.1682   -2.2973 H   0  0  0  0  0  0  0  0  0  0  0  0
   -5.1414    4.2501   -4.3050 H   0  0  0  0  0  0  0  0  0  0  0  0
   -5.3578    5.5078   -2.2576 H   0  0  0  0  0  0  0  0  0  0  0  0
   -4.7655    4.3734   -0.1629 H   0  0  0  0  0  0  0  0  0  0  0  0
  1  2  2  0  0  0  0
  2  3  1  0  0  0  0
  3  4  2  0  0  0  0
  4  5  1  0  0  0  0
  4 44  1  0  0  0  0
  5  6  2  0  0  0  0
  5 45  1  0  0  0  0
  6  7  1  0  0  0  0
  6  8  1  0  0  0  0
  8  9  2  0  0  0  0
  8 46  1  0  0  0  0
  9  3  1  0  0  0  0
 10  9  1  6  0  0  0
 10 11  1  0  0  0  0
 10 21  1  0  0  0  0
 11 12  1  0  0  0  0
 11 47  1  0  0  0  0
 11 48  1  0  0  0  0
 12 13  1  0  0  0  0
 12  2  1  0  0  0  0
 13 14  1  0  0  0  0
 13 49  1  0  0  0  0
 13 50  1  0  0  0  0
 14 15  1  0  0  0  0
 14 51  1  0  0  0  0
 14 52  1  0  0  0  0
 15 16  1  0  0  0  0
 15 53  1  0  0  0  0
 16 17  1  0  0  0  0
 16 54  1  0  0  0  0
 16 55  1  0  0  0  0
 17 18  1  0  0  0  0
 17 56  1  0  0  0  0
 17 57  1  0  0  0  0
 18 19  1  0  0  0  0
 19 20  1  0  0  0  0
 19 58  1  0  0  0  0
 19 59  1  0  0  0  0
 20 15  1  0  0  0  0
 20 60  1  0  0  0  0
 20 61  1  0  0  0  0
 21 22  2  0  0  0  0
 21 23  1  0  0  0  0
 23 24  1  0  0  0  0
 23 34  1  0  0  0  0
 24 25  2  0  0  0  0
 25 26  1  0  0  0  0
 25 62  1  0  0  0  0
 26 27  2  0  0  0  0
 27 28  1  0  0  0  0
 27 63  1  0  0  0  0
 28 29  2  0  0  0  0
 29 30  1  0  0  0  0
 29 64  1  0  0  0  0
 30 31  2  0  0  0  0
 30 65  1  0  0  0  0
 31 32  1  0  0  0  0
 31 66  1  0  0  0  0
 32 33  2  0  0  0  0
 32 67  1  0  0  0  0
 33 24  1  0  0  0  0
 33 28  1  0  0  0  0
 34 35  1  0  0  0  0
 34 68  1  0  0  0  0
 34 69  1  0  0  0  0
 35 36  1  0  0  0  0
 35 10  1  0  0  0  0
 35 70  1  1  0  0  0
 36 37  1  0  0  0  0
 36 71  1  0  0  0  0
 36 72  1  0  0  0  0
 37 38  1  0  0  0  0
 37 73  1  0  0  0  0
 38 39  2  0  0  0  0
 39 40  1  0  0  0  0
 40 41  2  0  0  0  0
 40 74  1  0  0  0  0
 41 42  1  0  0  0  0
 41 75  1  0  0  0  0
 42 43  2  0  0  0  0
 42 76  1  0  0  0  0
 43 38  1  0  0  0  0
M  CHG  1  15   1
M  END
$$$$

 OpenBabel07292611443D

 69 74  0  0  0  0  0  0  0  0999 V2000
    6.2559   -0.7416    3.7714 C   0  0  0  0  0  0  0  0  0  0  0  0
    5.0813   -1.5913    3.5430 N   0  0  0  0  0  0  0  0  0  0  0  0
    4.3227   -1.3006    2.3801 C   0  0  0  0  0  0  0  0  0  0  0  0
    4.6285   -0.3617    1.5762 O   0  0  0  0  0  0  0  0  0  0  0  0
    3.1104   -2.0874    2.0310 C   0  0  0  0  0  0  0  0  0  0  0  0
    2.5145   -1.5822    0.7884 N   0  0  0  0  0  0  0  0  0  0  0  0
    1.5181   -0.5621    0.8544 C   0  0  0  0  0  0  0  0  0  0  0  0
    0.8771   -0.1455   -0.4061 C   0  0  2  0  0  0  0  0  0  0  0  0
    0.9699    1.3573   -0.6167 C   0  0  0  0  0  0  0  0  0  0  0  0
    2.0001    2.0266   -0.8667 O   0  0  0  0  0  0  0  0  0  0  0  0
   -0.3538    1.9113   -0.4793 N   0  0  0  0  0  0  0  0  0  0  0  0
   -0.8688    3.1178   -1.0074 C   0  0  0  0  0  0  0  0  0  0  0  0
   -1.4543    3.0321   -2.2776 C   0  0  0  0  0  0  0  0  0  0  0  0
   -1.9804    4.1104   -2.8872 N   0  0  0  0  0  0  0  0  0  0  0  0
   -1.9598    5.3141   -2.2915 C   0  0  0  0  0  0  0  0  0  0  0  0
   -1.3854    5.4062   -1.0423 C   0  0  0  0  0  0  0  0  0  0  0  0
   -1.3810    6.6690   -0.4516 C   0  0  0  0  0  0  0  0  0  0  0  0
   -0.8013    6.7732    0.8170 C   0  0  0  0  0  0  0  0  0  0  0  0
   -0.2557    5.6755    1.4612 C   0  0  0  0  0  0  0  0  0  0  0  0
   -0.2660    4.4195    0.8615 C   0  0  0  0  0  0  0  0  0  0  0  0
   -0.8363    4.3310   -0.3805 C   0  0  0  0  0  0  0  0  0  0  0  0
   -1.0508    0.8993    0.3381 C   0  0  0  0  0  0  0  0  0  0  0  0
   -0.5975   -0.3204   -0.4881 C   0  0  2  0  0  0  0  0  0  0  0  0
   -1.1994   -1.5760   -0.0094 C   0  0  0  0  0  0  0  0  0  0  0  0
   -2.6501   -1.4556   -0.2528 N   0  0  0  0  0  0  0  0  0  0  0  0
   -3.5474   -2.5217   -0.0031 C   0  0  0  0  0  0  0  0  0  0  0  0
   -3.5385   -3.5556   -0.9484 C   0  0  0  0  0  0  0  0  0  0  0  0
   -4.3985   -4.6183   -0.7875 C   0  0  0  0  0  0  0  0  0  0  0  0
   -5.2285   -4.6502    0.2657 N   0  0  0  0  0  0  0  0  0  0  0  0
   -5.2364   -3.6530    1.1753 C   0  0  0  0  0  0  0  0  0  0  0  0
   -6.1888   -3.7363    2.3247 C   0  0  0  0  0  0  0  0  0  0  0  0
   -4.3910   -2.5873    1.0366 N   0  0  0  0  0  0  0  0  0  0  0  0
    1.4582   -0.7318   -1.6467 C   0  0  0  0  0  0  0  0  0  0  0  0
    1.0041   -0.3131   -2.8959 C   0  0  0  0  0  0  0  0  0  0  0  0
    1.5064   -0.8550   -4.0728 C   0  0  0  0  0  0  0  0  0  0  0  0
    0.9065   -0.3037   -5.6341 Cl  0  0  0  0  0  0  0  0  0  0  0  0
    2.4815   -1.8337   -4.0419 C   0  0  0  0  0  0  0  0  0  0  0  0
    2.9420   -2.2586   -2.8197 C   0  0  0  0  0  0  0  0  0  0  0  0
    2.4288   -1.7054   -1.6561 C   0  0  0  0  0  0  0  0  0  0  0  0
    3.0019   -2.1755   -0.4068 C   0  0  0  0  0  0  0  0  0  0  0  0
    3.8894   -3.0695   -0.4084 O   0  0  0  0  0  0  0  0  0  0  0  0
    6.7489   -1.0487    4.6700 H   0  0  0  0  0  0  0  0  0  0  0  0
    5.9456    0.2781    3.8654 H   0  0  0  0  0  0  0  0  0  0  0  0
    6.9296   -0.8348    2.9453 H   0  0  0  0  0  0  0  0  0  0  0  0
    4.8349   -2.3185    4.1591 H   0  0  0  0  0  0  0  0  0  0  0  0
    2.3962   -2.0054    2.8236 H   0  0  0  0  0  0  0  0  0  0  0  0
    3.3885   -3.1112    1.8921 H   0  0  0  0  0  0  0  0  0  0  0  0
    1.9770    0.3052    1.2811 H   0  0  0  0  0  0  0  0  0  0  0  0
    0.7264   -0.9952    1.4293 H   0  0  0  0  0  0  0  0  0  0  0  0
   -1.4828    2.1190   -2.7577 H   0  0  0  0  0  0  0  0  0  0  0  0
   -2.3616    6.1441   -2.7549 H   0  0  0  0  0  0  0  0  0  0  0  0
   -1.7869    7.4893   -0.9285 H   0  0  0  0  0  0  0  0  0  0  0  0
   -0.7796    7.6925    1.2854 H   0  0  0  0  0  0  0  0  0  0  0  0
    0.1636    5.7901    2.3972 H   0  0  0  0  0  0  0  0  0  0  0  0
    0.1372    3.5936    1.3308 H   0  0  0  0  0  0  0  0  0  0  0  0
   -2.1131    1.0274    0.3363 H   0  0  0  0  0  0  0  0  0  0  0  0
   -0.8335    0.8857    1.3857 H   0  0  0  0  0  0  0  0  0  0  0  0
   -0.9185   -0.3829   -1.5069 H   0  0  0  0  0  0  0  0  0  0  0  0
   -1.0079   -1.7045    1.0355 H   0  0  0  0  0  0  0  0  0  0  0  0
   -0.7879   -2.4239   -0.5160 H   0  0  0  0  0  0  0  0  0  0  0  0
   -3.0055   -0.6058   -0.6003 H   0  0  0  0  0  0  0  0  0  0  0  0
   -2.8955   -3.5210   -1.7549 H   0  0  0  0  0  0  0  0  0  0  0  0
   -4.4046   -5.3880   -1.4750 H   0  0  0  0  0  0  0  0  0  0  0  0
   -6.7574   -4.6398    2.2520 H   0  0  0  0  0  0  0  0  0  0  0  0
   -6.8504   -2.8957    2.3013 H   0  0  0  0  0  0  0  0  0  0  0  0
   -5.6403   -3.7330    3.2434 H   0  0  0  0  0  0  0  0  0  0  0  0
    0.2769    0.4173   -2.9483 H   0  0  0  0  0  0  0  0  0  0  0  0
    2.8547   -2.2356   -4.9161 H   0  0  0  0  0  0  0  0  0  0  0  0
    3.6693   -2.9889   -2.7673 H   0  0  0  0  0  0  0  0  0  0  0  0
  1  2  1  0  0  0  0
  1 42  1  0  0  0  0
  1 43  1  0  0  0  0
  1 44  1  0  0  0  0
  2  3  1  0  0  0  0
  2 45  1  0  0  0  0
  3  4  2  0  0  0  0
  3  5  1  0  0  0  0
  5  6  1  0  0  0  0
  5 46  1  0  0  0  0
  5 47  1  0  0  0  0
  6  7  1  0  0  0  0
  7 48  1  0  0  0  0
  7 49  1  0  0  0  0
  8  7  1  0  0  0  0
  8  9  1  6  0  0  0
  8 33  1  0  0  0  0
  9 10  2  0  0  0  0
  9 11  1  0  0  0  0
 11 12  1  0  0  0  0
 11 22  1  0  0  0  0
 12 13  2  0  0  0  0
 13 14  1  0  0  0  0
 13 50  1  0  0  0  0
 14 15  2  0  0  0  0
 15 16  1  0  0  0  0
 15 51  1  0  0  0  0
 16 17  2  0  0  0  0
 17 18  1  0  0  0  0
 17 52  1  0  0  0  0
 18 19  2  0  0  0  0
 18 53  1  0  0  0  0
 19 20  1  0  0  0  0
 19 54  1  0  0  0  0
 20 21  2  0  0  0  0
 20 55  1  0  0  0  0
 21 12  1  0  0  0  0
 21 16  1  0  0  0  0
 22 23  1  0  0  0  0
 22 56  1  0  0  0  0
 22 57  1  0  0  0  0
 23 24  1  0  0  0  0
 23  8  1  0  0  0  0
 23 58  1  6  0  0  0
 24 25  1  0  0  0  0
 24 59  1  0  0  0  0
 24 60  1  0  0  0  0
 25 26  1  0  0  0  0
 25 61  1  0  0  0  0
 26 27  2  0  0  0  0
 27 28  1  0  0  0  0
 27 62  1  0  0  0  0
 28 29  2  0  0  0  0
 28 63  1  0  0  0  0
 29 30  1  0  0  0  0
 30 31  1  0  0  0  0
 30 32  2  0  0  0  0
 31 64  1  0  0  0  0
 31 65  1  0  0  0  0
 31 66  1  0  0  0  0
 32 26  1  0  0  0  0
 33 34  2  0  0  0  0
 34 35  1  0  0  0  0
 34 67  1  0  0  0  0
 35 36  1  0  0  0  0
 35 37  2  0  0  0  0
 37 38  1  0  0  0  0
 37 68  1  0  0  0  0
 38 39  2  0  0  0  0
 38 69  1  0  0  0  0
 39 40  1  0  0  0  0
 39 33  1  0  0  0  0
 40 41  2  0  0  0  0
 40  6  1  0  0  0  0
M  END
$$$$

 OpenBabel07292611443D

 73 78  0  0  0  0  0  0  0  0999 V2000
   -3.5812    2.0500   -2.4865 C   0  0  0  0  0  0  0  0  0  0  0  0
   -2.9221    1.5714   -1.2335 C   0  0  1  0  0  0  0  0  0  0  0  0
   -3.5074    0.2113   -0.8181 C   0  0  0  0  0  0  0  0  0  0  0  0
   -2.4701   -0.3368    0.0355 N   0  0  0  0  0  0  0  0  0  0  0  0
   -2.6578   -1.4767    0.8597 C   0  0  0  0  0  0  0  0  0  0  0  0
   -2.4043   -2.7685    0.4427 C   0  0  0  0  0  0  0  0  0  0  0  0
   -2.6131   -3.7653    1.2899 N   0  0  0  0  0  0  0  0  0  0  0  0
   -3.0568   -3.5457    2.5185 C   0  0  0  0  0  0  0  0  0  0  0  0
   -3.3325   -2.2831    3.0067 C   0  0  0  0  0  0  0  0  0  0  0  0
   -3.7949   -2.0515    4.2859 C   0  0  0  0  0  0  0  0  0  0  0  0
   -4.0528   -0.7453    4.7113 C   0  0  0  0  0  0  0  0  0  0  0  0
   -3.8410    0.3256    3.8378 C   0  0  0  0  0  0  0  0  0  0  0  0
   -3.3780    0.0518    2.5673 C   0  0  0  0  0  0  0  0  0  0  0  0
   -3.1252   -1.2266    2.1497 C   0  0  0  0  0  0  0  0  0  0  0  0
   -1.2728    0.4581   -0.1028 C   0  0  0  0  0  0  0  0  0  0  0  0
   -0.3268    0.5063    0.6890 O   0  0  0  0  0  0  0  0  0  0  0  0
   -1.4753    1.1816   -1.4122 C   0  0  1  0  0  0  0  0  0  0  0  0
   -1.3750    0.1098   -2.4757 C   0  0  0  0  0  0  0  0  0  0  0  0
    0.0365   -0.1193   -2.7101 N   0  0  0  0  0  0  0  0  0  0  0  0
    0.5705   -1.4672   -2.7663 C   0  0  0  0  0  0  0  0  0  0  0  0
    1.0305   -1.9914   -1.4690 C   0  0  0  0  0  0  0  0  0  0  0  0
    2.0729   -1.2848   -0.7963 N   0  3  0  0  0  0  0  0  0  0  0  0
    2.0795   -1.7360    0.5875 C   0  0  0  0  0  0  0  0  0  0  0  0
    2.9467   -0.8497    1.4189 C   0  0  0  0  0  0  0  0  0  0  0  0
    4.2550   -0.7438    0.8564 N   0  0  0  0  0  0  0  0  0  0  0  0
    5.2439    0.4428    1.5855 S   0  0  0  0  0  0  0  0  0  0  0  0
    5.5367    0.1134    3.3035 C   0  0  0  0  0  0  0  0  0  0  0  0
    4.6067    1.8217    1.4792 O   0  0  0  0  0  0  0  0  0  0  0  0
    6.5355    0.5217    0.8264 O   0  0  0  0  0  0  0  0  0  0  0  0
    4.3193   -0.5883   -0.5588 C   0  0  0  0  0  0  0  0  0  0  0  0
    3.3974   -1.5748   -1.2896 C   0  0  0  0  0  0  0  0  0  0  0  0
    0.9502    0.9535   -2.9018 C   0  0  0  0  0  0  0  0  0  0  0  0
    2.0113    0.7814   -3.5716 O   0  0  0  0  0  0  0  0  0  0  0  0
    0.6214    2.2416   -2.3047 C   0  0  0  0  0  0  0  0  0  0  0  0
    1.4680    3.3044   -2.4657 C   0  0  0  0  0  0  0  0  0  0  0  0
    1.1755    4.5164   -1.9185 C   0  0  0  0  0  0  0  0  0  0  0  0
    0.0036    4.6356   -1.2007 C   0  0  0  0  0  0  0  0  0  0  0  0
   -0.3937    6.2018   -0.4832 Cl  0  0  0  0  0  0  0  0  0  0  0  0
   -0.8582    3.5495   -1.0380 C   0  0  0  0  0  0  0  0  0  0  0  0
   -0.5695    2.3077   -1.5922 C   0  0  0  0  0  0  0  0  0  0  0  0
   -4.5992    2.3058   -2.2787 H   0  0  0  0  0  0  0  0  0  0  0  0
   -3.5515    1.2749   -3.2236 H   0  0  0  0  0  0  0  0  0  0  0  0
   -3.0648    2.9120   -2.8543 H   0  0  0  0  0  0  0  0  0  0  0  0
   -3.0580    2.3861   -0.5533 H   0  0  0  0  0  0  0  0  0  0  0  0
   -3.6749   -0.4130   -1.6708 H   0  0  0  0  0  0  0  0  0  0  0  0
   -4.4582    0.2891   -0.3334 H   0  0  0  0  0  0  0  0  0  0  0  0
   -2.0584   -2.9540   -0.5117 H   0  0  0  0  0  0  0  0  0  0  0  0
   -3.2035   -4.3561    3.1404 H   0  0  0  0  0  0  0  0  0  0  0  0
   -3.9505   -2.8434    4.9291 H   0  0  0  0  0  0  0  0  0  0  0  0
   -4.3988   -0.5718    5.6680 H   0  0  0  0  0  0  0  0  0  0  0  0
   -4.0263    1.2961    4.1358 H   0  0  0  0  0  0  0  0  0  0  0  0
   -3.2177    0.8336    1.9130 H   0  0  0  0  0  0  0  0  0  0  0  0
   -1.8489    0.4397   -3.3765 H   0  0  0  0  0  0  0  0  0  0  0  0
   -1.8619   -0.7894   -2.1606 H   0  0  0  0  0  0  0  0  0  0  0  0
    1.3998   -1.4712   -3.4424 H   0  0  0  0  0  0  0  0  0  0  0  0
   -0.2301   -2.1009   -3.0864 H   0  0  0  0  0  0  0  0  0  0  0  0
    1.3769   -2.9904   -1.6334 H   0  0  0  0  0  0  0  0  0  0  0  0
    0.1818   -1.8966   -0.8243 H   0  0  0  0  0  0  0  0  0  0  0  0
    1.8830   -0.2919   -0.9322 H   0  0  0  0  0  0  0  0  0  0  0  0
    2.4546   -2.7372    0.6302 H   0  0  0  0  0  0  0  0  0  0  0  0
    1.0804   -1.7015    0.9690 H   0  0  0  0  0  0  0  0  0  0  0  0
    3.0214   -1.2579    2.4052 H   0  0  0  0  0  0  0  0  0  0  0  0
    2.5081    0.1258    1.4504 H   0  0  0  0  0  0  0  0  0  0  0  0
    4.6017    0.0621    3.8212 H   0  0  0  0  0  0  0  0  0  0  0  0
    6.1328    0.8980    3.7206 H   0  0  0  0  0  0  0  0  0  0  0  0
    6.0523   -0.8187    3.4051 H   0  0  0  0  0  0  0  0  0  0  0  0
    5.3265   -0.7551   -0.8790 H   0  0  0  0  0  0  0  0  0  0  0  0
    3.9961    0.4036   -0.7968 H   0  0  0  0  0  0  0  0  0  0  0  0
    3.6707   -2.5839   -1.0620 H   0  0  0  0  0  0  0  0  0  0  0  0
    3.4614   -1.4721   -2.3527 H   0  0  0  0  0  0  0  0  0  0  0  0
    2.3380    3.1860   -3.0080 H   0  0  0  0  0  0  0  0  0  0  0  0
    1.8109    5.3209   -2.0371 H   0  0  0  0  0  0  0  0  0  0  0  0
   -1.7275    3.6709   -0.4952 H   0  0  0  0  0  0  0  0  0  0  0  0
  1 41  1  0  0  0  0
  1 42  1  0  0  0  0
  1 43  1  0  0  0  0
  2  1  1  0  0  0  0
  2  3  1  0  0  0  0
  2 44  1  1  0  0  0
  3  4  1  0  0  0  0
  3 45  1  0  0  0  0
  3 46  1  0  0  0  0
  4  5  1  0  0  0  0
  4 15  1  0  0  0  0
  5  6  2  0  0  0  0
  6  7  1  0  0  0  0
  6 47  1  0  0  0  0
  7  8  2  0  0  0  0
  8  9  1  0  0  0  0
  8 48  1  0  0  0  0
  9 10  2  0  0  0  0
 10 11  1  0  0  0  0
 10 49  1  0  0  0  0
 11 12  2  0  0  0  0
 11 50  1  0  0  0  0
 12 13  1  0  0  0  0
 12 51  1  0  0  0  0
 13 14  2  0  0  0  0
 13 52  1  0  0  0  0
 14  5  1  0  0  0  0
 14  9  1  0  0  0  0
 15 16  2  0  0  0  0
 17 15  1  1  0  0  0
 17 18  1  0  0  0  0
 17  2  1  0  0  0  0
 18 19  1  0  0  0  0
 18 53  1  0  0  0  0
 18 54  1  0  0  0  0
 19 20  1  0  0  0  0
 19 32  1  0  0  0  0
 20 21  1  0  0  0  0
 20 55  1  0  0  0  0
 20 56  1  0  0  0  0
 21 22  1  0  0  0  0
 21 57  1  0  0  0  0
 21 58  1  0  0  0  0
 22 23  1  0  0  0  0
 22 59  1  0  0  0  0
 23 24  1  0  0  0  0
 23 60  1  0  0  0  0
 23 61  1  0  0  0  0
 24 25  1  0  0  0  0
 24 62  1  0  0  0  0
 24 63  1  0  0  0  0
 25 26  1  0  0  0  0
 25 30  1  0  0  0  0
 26 27  1  0  0  0  0
 26 28  2  0  0  0  0
 26 29  2  0  0  0  0
 27 64  1  0  0  0  0
 27 65  1  0  0  0  0
 27 66  1  0  0  0  0
 30 31  1  0  0  0  0
 30 67  1  0  0  0  0
 30 68  1  0  0  0  0
 31 22  1  0  0  0  0
 31 69  1  0  0  0  0
 31 70  1  0  0  0  0
 32 33  2  0  0  0  0
 32 34  1  0  0  0  0
 34 35  2  0  0  0  0
 35 36  1  0  0  0  0
 35 71  1  0  0  0  0
 36 37  2  0  0  0  0
 36 72  1  0  0  0  0
 37 38  1  0  0  0  0
 37 39  1  0  0  0  0
 39 40  2  0  0  0  0
 39 73  1  0  0  0  0
 40 34  1  0  0  0  0
 40 17  1  0  0  0  0
M  CHG  1  22   1
M  END
$$$$

 OpenBabel07292611443D

 63 68  0  0  0  0  0  0  0  0999 V2000
    6.5882   -0.7657   -1.5615 C   0  0  0  0  0  0  0  0  0  0  0  0
    5.1726   -0.9530   -1.3419 N   0  0  0  0  0  0  0  0  0  0  0  0
    4.3182   -1.4100   -2.3846 C   0  0  0  0  0  0  0  0  0  0  0  0
    4.7658   -1.6683   -3.5389 O   0  0  0  0  0  0  0  0  0  0  0  0
    2.8663   -1.6052   -2.1700 C   0  0  0  0  0  0  0  0  0  0  0  0
    2.4548   -1.2827   -0.8183 N   0  0  0  0  0  0  0  0  0  0  0  0
    2.0268    0.0228   -0.3891 C   0  0  0  0  0  0  0  0  0  0  0  0
    0.6260   -0.0078    0.1957 C   0  0  2  0  0  0  0  0  0  0  0  0
   -0.3615   -0.4598   -0.8100 C   0  0  0  0  0  0  0  0  0  0  0  0
   -0.1620   -1.4081   -1.6229 O   0  0  0  0  0  0  0  0  0  0  0  0
   -1.5474    0.3011   -0.7435 N   0  0  0  0  0  0  0  0  0  0  0  0
   -2.7936    0.1242   -1.4054 C   0  0  0  0  0  0  0  0  0  0  0  0
   -3.0116    0.7187   -2.6339 C   0  0  0  0  0  0  0  0  0  0  0  0
   -4.1817    0.5694   -3.2854 N   0  0  0  0  0  0  0  0  0  0  0  0
   -5.1739   -0.1624   -2.7612 C   0  0  0  0  0  0  0  0  0  0  0  0
   -5.0361   -0.7925   -1.5321 C   0  0  0  0  0  0  0  0  0  0  0  0
   -6.0380   -1.5488   -0.9720 C   0  0  0  0  0  0  0  0  0  0  0  0
   -5.8575   -2.1499    0.2388 C   0  0  0  0  0  0  0  0  0  0  0  0
   -4.6589   -2.0085    0.9266 C   0  0  0  0  0  0  0  0  0  0  0  0
   -3.6729   -1.2429    0.3376 C   0  0  0  0  0  0  0  0  0  0  0  0
   -3.8289   -0.6250   -0.8841 C   0  0  0  0  0  0  0  0  0  0  0  0
   -1.2894    1.3816    0.1752 C   0  0  0  0  0  0  0  0  0  0  0  0
    0.1344    1.3227    0.6024 C   0  0  2  0  0  0  0  0  0  0  0  0
    0.8958    2.3814   -0.2059 C   0  0  0  0  0  0  0  0  0  0  0  0
    0.4796    3.7267    0.1290 N   0  0  0  0  0  0  0  0  0  0  0  0
    1.0707    4.4539    1.1182 C   0  0  0  0  0  0  0  0  0  0  0  0
    0.4634    5.6895    1.1992 C   0  0  0  0  0  0  0  0  0  0  0  0
   -0.5131    5.6808    0.2250 C   0  0  0  0  0  0  0  0  0  0  0  0
   -0.4604    4.4903   -0.3815 N   0  0  0  0  0  0  0  0  0  0  0  0
    0.6168   -1.0371    1.2675 C   0  0  0  0  0  0  0  0  0  0  0  0
   -0.2602   -0.9790    2.3486 C   0  0  0  0  0  0  0  0  0  0  0  0
   -0.2762   -1.9378    3.3398 C   0  0  0  0  0  0  0  0  0  0  0  0
   -1.4214   -1.7899    4.6784 Cl  0  0  0  0  0  0  0  0  0  0  0  0
    0.5888   -3.0112    3.3022 C   0  0  0  0  0  0  0  0  0  0  0  0
    1.4685   -3.0930    2.2423 C   0  0  0  0  0  0  0  0  0  0  0  0
    1.4733   -2.1318    1.2634 C   0  0  0  0  0  0  0  0  0  0  0  0
    2.4666   -2.3143    0.1838 C   0  0  0  0  0  0  0  0  0  0  0  0
    3.2517   -3.2697    0.1296 O   0  0  0  0  0  0  0  0  0  0  0  0
    7.0465   -0.4200   -0.6586 H   0  0  0  0  0  0  0  0  0  0  0  0
    6.7364   -0.0427   -2.3362 H   0  0  0  0  0  0  0  0  0  0  0  0
    7.0301   -1.6957   -1.8524 H   0  0  0  0  0  0  0  0  0  0  0  0
    4.7918   -0.7610   -0.4546 H   0  0  0  0  0  0  0  0  0  0  0  0
    2.6253   -2.6290   -2.3666 H   0  0  0  0  0  0  0  0  0  0  0  0
    2.3487   -0.9438   -2.8330 H   0  0  0  0  0  0  0  0  0  0  0  0
    2.0369    0.6845   -1.2299 H   0  0  0  0  0  0  0  0  0  0  0  0
    2.6983    0.3594    0.3729 H   0  0  0  0  0  0  0  0  0  0  0  0
   -2.2639    1.2879   -3.0605 H   0  0  0  0  0  0  0  0  0  0  0  0
   -6.0594   -0.2597   -3.2822 H   0  0  0  0  0  0  0  0  0  0  0  0
   -6.9338   -1.6626   -1.4716 H   0  0  0  0  0  0  0  0  0  0  0  0
   -6.6182   -2.7149    0.6477 H   0  0  0  0  0  0  0  0  0  0  0  0
   -4.5112   -2.4589    1.8433 H   0  0  0  0  0  0  0  0  0  0  0  0
   -2.7765   -1.1278    0.8358 H   0  0  0  0  0  0  0  0  0  0  0  0
   -1.9251    1.2851    1.0305 H   0  0  0  0  0  0  0  0  0  0  0  0
   -1.4854    2.3183   -0.3033 H   0  0  0  0  0  0  0  0  0  0  0  0
    0.2574    1.4885    1.6523 H   0  0  0  0  0  0  0  0  0  0  0  0
    0.7171    2.2144   -1.2476 H   0  0  0  0  0  0  0  0  0  0  0  0
    1.9356    2.2903    0.0296 H   0  0  0  0  0  0  0  0  0  0  0  0
    1.8499    4.1310    1.7129 H   0  0  0  0  0  0  0  0  0  0  0  0
    0.6911    6.4572    1.8502 H   0  0  0  0  0  0  0  0  0  0  0  0
   -1.1640    6.4508    0.0049 H   0  0  0  0  0  0  0  0  0  0  0  0
   -0.9221   -0.1896    2.4099 H   0  0  0  0  0  0  0  0  0  0  0  0
    0.5785   -3.7299    4.0427 H   0  0  0  0  0  0  0  0  0  0  0  0
    2.1286   -3.8842    2.1854 H   0  0  0  0  0  0  0  0  0  0  0  0
  1  2  1  0  0  0  0
  1 39  1  0  0  0  0
  1 40  1  0  0  0  0
  1 41  1  0  0  0  0
  2  3  1  0  0  0  0
  2 42  1  0  0  0  0
  3  4  2  0  0  0  0
  3  5  1  0  0  0  0
  5  6  1  0  0  0  0
  5 43  1  0  0  0  0
  5 44  1  0  0  0  0
  6  7  1  0  0  0  0
  7 45  1  0  0  0  0
  7 46  1  0  0  0  0
  8  7  1  0  0  0  0
  8  9  1  6  0  0  0
  8 30  1  0  0  0  0
  9 10  2  0  0  0  0
  9 11  1  0  0  0  0
 11 12  1  0  0  0  0
 11 22  1  0  0  0  0
 12 13  2  0  0  0  0
 13 14  1  0  0  0  0
 13 47  1  0  0  0  0
 14 15  2  0  0  0  0
 15 16  1  0  0  0  0
 15 48  1  0  0  0  0
 16 17  2  0  0  0  0
 17 18  1  0  0  0  0
 17 49  1  0  0  0  0
 18 19  2  0  0  0  0
 18 50  1  0  0  0  0
 19 20  1  0  0  0  0
 19 51  1  0  0  0  0
 20 21  2  0  0  0  0
 20 52  1  0  0  0  0
 21 12  1  0  0  0  0
 21 16  1  0  0  0  0
 22 23  1  0  0  0  0
 22 53  1  0  0  0  0
 22 54  1  0  0  0  0
 23 24  1  0  0  0  0
 23  8  1  0  0  0  0
 23 55  1  1  0  0  0
 24 25  1  0  0  0  0
 24 56  1  0  0  0  0
 24 57  1  0  0  0  0
 25 26  1  0  0  0  0
 26 27  2  0  0  0  0
 26 58  1  0  0  0  0
 27 28  1  0  0  0  0
 27 59  1  0  0  0  0
 28 29  2  0  0  0  0
 28 60  1  0  0  0  0
 29 25  1  0  0  0  0
 30 31  2  0  0  0  0
 31 32  1  0  0  0  0
 31 61  1  0  0  0  0
 32 33  1  0  0  0  0
 32 34  2  0  0  0  0
 34 35  1  0  0  0  0
 34 62  1  0  0  0  0
 35 36  2  0  0  0  0
 35 63  1  0  0  0  0
 36 37  1  0  0  0  0
 36 30  1  0  0  0  0
 37 38  2  0  0  0  0
 37  6  1  0  0  0  0
M  END
$$$$

 OpenBabel07292611443D

 61 66  0  0  0  0  0  0  0  0999 V2000
    3.1657   -5.1037   -3.0991 C   0  0  0  0  0  0  0  0  0  0  0  0
    2.5931   -4.3596   -1.9947 N   0  0  0  0  0  0  0  0  0  0  0  0
    2.7089   -2.9486   -1.8602 C   0  0  0  0  0  0  0  0  0  0  0  0
    3.3417   -2.3155   -2.7471 O   0  0  0  0  0  0  0  0  0  0  0  0
    2.0821   -2.2929   -0.6879 C   0  0  0  0  0  0  0  0  0  0  0  0
    2.2774   -0.8793   -0.6824 N   0  0  0  0  0  0  0  0  0  0  0  0
    1.3515    0.0682   -1.3243 C   0  0  0  0  0  0  0  0  0  0  0  0
    0.8488    0.9682   -0.2466 C   0  0  2  0  0  0  0  0  0  0  0  0
    0.2535    0.0666    0.8087 C   0  0  0  0  0  0  0  0  0  0  0  0
    0.8087   -0.3545    1.8577 O   0  0  0  0  0  0  0  0  0  0  0  0
   -1.0777   -0.2065    0.3603 N   0  0  0  0  0  0  0  0  0  0  0  0
   -1.9559   -1.1982    0.8561 C   0  0  0  0  0  0  0  0  0  0  0  0
   -2.0274   -2.4829    0.3621 C   0  0  0  0  0  0  0  0  0  0  0  0
   -2.8817   -3.4030    0.8647 N   0  0  0  0  0  0  0  0  0  0  0  0
   -3.7168   -3.1260    1.8780 C   0  0  0  0  0  0  0  0  0  0  0  0
   -3.6689   -1.8455    2.3953 C   0  0  0  0  0  0  0  0  0  0  0  0
   -4.5318   -1.5663    3.4392 C   0  0  0  0  0  0  0  0  0  0  0  0
   -4.5353   -0.3064    4.0021 C   0  0  0  0  0  0  0  0  0  0  0  0
   -3.6796    0.6679    3.5221 C   0  0  0  0  0  0  0  0  0  0  0  0
   -2.8130    0.3759    2.4685 C   0  0  0  0  0  0  0  0  0  0  0  0
   -2.8006   -0.8809    1.8975 C   0  0  0  0  0  0  0  0  0  0  0  0
   -1.4320    0.7007   -0.7139 C   0  0  0  0  0  0  0  0  0  0  0  0
   -0.3387    1.7844   -0.6453 C   0  0  2  0  0  0  0  0  0  0  0  0
   -0.2579    2.3507   -2.0381 C   0  0  0  0  0  0  0  0  0  0  0  0
   -1.4773    3.1059   -2.2581 N   0  0  0  0  0  0  0  0  0  0  0  0
   -1.7288    4.3823   -2.0176 N   0  0  0  0  0  0  0  0  0  0  0  0
   -3.0006    4.6720   -2.3741 C   0  0  0  0  0  0  0  0  0  0  0  0
   -3.5180    3.5278   -2.8410 N   0  0  0  0  0  0  0  0  0  0  0  0
   -2.5863    2.5949   -2.7637 N   0  0  0  0  0  0  0  0  0  0  0  0
    1.9520    1.6813    0.3799 C   0  0  0  0  0  0  0  0  0  0  0  0
    1.8702    2.9538    0.9093 C   0  0  0  0  0  0  0  0  0  0  0  0
    2.9606    3.5810    1.5118 C   0  0  0  0  0  0  0  0  0  0  0  0
    2.8007    5.1933    2.1656 Cl  0  0  0  0  0  0  0  0  0  0  0  0
    4.1791    2.9513    1.6057 C   0  0  0  0  0  0  0  0  0  0  0  0
    4.2772    1.6852    1.0836 C   0  0  0  0  0  0  0  0  0  0  0  0
    3.2071    1.0719    0.4930 C   0  0  0  0  0  0  0  0  0  0  0  0
    3.4105   -0.2652   -0.0497 C   0  0  0  0  0  0  0  0  0  0  0  0
    4.4987   -0.8899    0.0077 O   0  0  0  0  0  0  0  0  0  0  0  0
    2.9464   -6.1442   -2.9799 H   0  0  0  0  0  0  0  0  0  0  0  0
    4.2262   -4.9620   -3.1129 H   0  0  0  0  0  0  0  0  0  0  0  0
    2.7472   -4.7542   -4.0197 H   0  0  0  0  0  0  0  0  0  0  0  0
    2.0991   -4.8561   -1.3028 H   0  0  0  0  0  0  0  0  0  0  0  0
    2.5102   -2.7018    0.2034 H   0  0  0  0  0  0  0  0  0  0  0  0
    1.0289   -2.4751   -0.7383 H   0  0  0  0  0  0  0  0  0  0  0  0
    0.5368   -0.4593   -1.7748 H   0  0  0  0  0  0  0  0  0  0  0  0
    1.8420    0.6253   -2.0950 H   0  0  0  0  0  0  0  0  0  0  0  0
   -1.4078   -2.7520   -0.4181 H   0  0  0  0  0  0  0  0  0  0  0  0
   -4.3646   -3.8362    2.2534 H   0  0  0  0  0  0  0  0  0  0  0  0
   -5.1692   -2.2957    3.7951 H   0  0  0  0  0  0  0  0  0  0  0  0
   -5.1767   -0.0913    4.7815 H   0  0  0  0  0  0  0  0  0  0  0  0
   -3.6820    1.6102    3.9428 H   0  0  0  0  0  0  0  0  0  0  0  0
   -2.1758    1.1057    2.1129 H   0  0  0  0  0  0  0  0  0  0  0  0
   -2.4012    1.1245   -0.5525 H   0  0  0  0  0  0  0  0  0  0  0  0
   -1.4810    0.2181   -1.6676 H   0  0  0  0  0  0  0  0  0  0  0  0
   -0.4698    2.6116    0.0206 H   0  0  0  0  0  0  0  0  0  0  0  0
   -0.1817    1.5586   -2.7534 H   0  0  0  0  0  0  0  0  0  0  0  0
    0.6041    2.9751   -2.1480 H   0  0  0  0  0  0  0  0  0  0  0  0
   -3.4747    5.5858   -2.3015 H   0  0  0  0  0  0  0  0  0  0  0  0
    0.9714    3.4582    0.8574 H   0  0  0  0  0  0  0  0  0  0  0  0
    4.9881    3.4120    2.0510 H   0  0  0  0  0  0  0  0  0  0  0  0
    5.1784    1.1854    1.1381 H   0  0  0  0  0  0  0  0  0  0  0  0
  1  2  1  0  0  0  0
  1 39  1  0  0  0  0
  1 40  1  0  0  0  0
  1 41  1  0  0  0  0
  2  3  1  0  0  0  0
  2 42  1  0  0  0  0
  3  4  2  0  0  0  0
  3  5  1  0  0  0  0
  5  6  1  0  0  0  0
  5 43  1  0  0  0  0
  5 44  1  0  0  0  0
  6  7  1  0  0  0  0
  7 45  1  0  0  0  0
  7 46  1  0  0  0  0
  8  7  1  0  0  0  0
  8  9  1  1  0  0  0
  8 30  1  0  0  0  0
  9 10  2  0  0  0  0
  9 11  1  0  0  0  0
 11 12  1  0  0  0  0
 11 22  1  0  0  0  0
 12 13  2  0  0  0  0
 13 14  1  0  0  0  0
 13 47  1  0  0  0  0
 14 15  2  0  0  0  0
 15 16  1  0  0  0  0
 15 48  1  0  0  0  0
 16 17  2  0  0  0  0
 17 18  1  0  0  0  0
 17 49  1  0  0  0  0
 18 19  2  0  0  0  0
 18 50  1  0  0  0  0
 19 20  1  0  0  0  0
 19 51  1  0  0  0  0
 20 21  2  0  0  0  0
 20 52  1  0  0  0  0
 21 12  1  0  0  0  0
 21 16  1  0  0  0  0
 22 23  1  0  0  0  0
 22 53  1  0  0  0  0
 22 54  1  0  0  0  0
 23 24  1  0  0  0  0
 23  8  1  0  0  0  0
 23 55  1  1  0  0  0
 24 25  1  0  0  0  0
 24 56  1  0  0  0  0
 24 57  1  0  0  0  0
 25 26  1  0  0  0  0
 26 27  2  0  0  0  0
 27 28  1  0  0  0  0
 27 58  1  0  0  0  0
 28 29  2  0  0  0  0
 29 25  1  0  0  0  0
 30 31  2  0  0  0  0
 31 32  1  0  0  0  0
 31 59  1  0  0  0  0
 32 33  1  0  0  0  0
 32 34  2  0  0  0  0
 34 35  1  0  0  0  0
 34 60  1  0  0  0  0
 35 36  2  0  0  0  0
 35 61  1  0  0  0  0
 36 37  1  0  0  0  0
 36 30  1  0  0  0  0
 37 38  2  0  0  0  0
 37  6  1  0  0  0  0
M  END
$$$$

 OpenBabel07292611443D

 38 41  0  0  0  0  0  0  0  0999 V2000
   -5.2129    0.8790    0.4246 C   0  0  0  0  0  0  0  0  0  0  0  0
   -3.8634    0.3293   -0.0256 C   0  0  2  0  0  0  0  0  0  0  0  0
   -3.7032   -1.0514    0.5239 C   0  0  0  0  0  0  0  0  0  0  0  0
   -2.5534   -1.1513    1.5050 C   0  0  0  0  0  0  0  0  0  0  0  0
   -1.3534   -0.6861    0.7202 C   0  0  0  0  0  0  0  0  0  0  0  0
   -0.1361   -1.2198    0.4023 C   0  0  0  0  0  0  0  0  0  0  0  0
    0.3153   -2.4574    0.7788 O   0  5  0  0  0  0  0  0  0  0  0  0
    0.4861   -0.2678   -0.3426 N   0  0  0  0  0  0  0  0  0  0  0  0
    1.8036   -0.3935   -0.9016 C   0  0  0  0  0  0  0  0  0  0  0  0
    1.9415   -0.9117   -2.1790 C   0  0  0  0  0  0  0  0  0  0  0  0
    3.1726   -1.0321   -2.7083 N   0  0  0  0  0  0  0  0  0  0  0  0
    4.3004   -0.6755   -2.0668 C   0  0  0  0  0  0  0  0  0  0  0  0
    4.1544   -0.1584   -0.7905 C   0  0  0  0  0  0  0  0  0  0  0  0
    5.3129    0.2176   -0.1080 C   0  0  0  0  0  0  0  0  0  0  0  0
    5.1837    0.7401    1.1778 C   0  0  0  0  0  0  0  0  0  0  0  0
    3.9434    0.8749    1.7438 C   0  0  0  0  0  0  0  0  0  0  0  0
    2.7829    0.5094    1.0871 C   0  0  0  0  0  0  0  0  0  0  0  0
    2.9221   -0.0076   -0.1875 C   0  0  0  0  0  0  0  0  0  0  0  0
   -0.3489    0.8065   -0.4613 C   0  0  0  0  0  0  0  0  0  0  0  0
   -0.1013    1.8691   -1.0828 O   0  0  0  0  0  0  0  0  0  0  0  0
   -1.4825    0.5625    0.1871 N   0  0  0  0  0  0  0  0  0  0  0  0
   -2.7355    1.2401    0.4535 C   0  0  0  0  0  0  0  0  0  0  0  0
   -5.9936    0.2321    0.0827 H   0  0  0  0  0  0  0  0  0  0  0  0
   -5.3546    1.8569    0.0141 H   0  0  0  0  0  0  0  0  0  0  0  0
   -5.2373    0.9337    1.4929 H   0  0  0  0  0  0  0  0  0  0  0  0
   -3.8208    0.2930   -1.0941 H   0  0  0  0  0  0  0  0  0  0  0  0
   -3.5227   -1.7255   -0.2872 H   0  0  0  0  0  0  0  0  0  0  0  0
   -4.6023   -1.3010    1.0476 H   0  0  0  0  0  0  0  0  0  0  0  0
   -2.4228   -2.1609    1.8345 H   0  0  0  0  0  0  0  0  0  0  0  0
   -2.7165   -0.5680    2.3871 H   0  0  0  0  0  0  0  0  0  0  0  0
    1.1104   -1.2017   -2.7178 H   0  0  0  0  0  0  0  0  0  0  0  0
    5.2288   -0.7822   -2.5046 H   0  0  0  0  0  0  0  0  0  0  0  0
    6.2419    0.1113   -0.5447 H   0  0  0  0  0  0  0  0  0  0  0  0
    6.0239    1.0259    1.7044 H   0  0  0  0  0  0  0  0  0  0  0  0
    3.8726    1.2642    2.6969 H   0  0  0  0  0  0  0  0  0  0  0  0
    1.8560    0.6175    1.5278 H   0  0  0  0  0  0  0  0  0  0  0  0
   -2.7674    2.1696   -0.0755 H   0  0  0  0  0  0  0  0  0  0  0  0
   -2.8368    1.4459    1.4986 H   0  0  0  0  0  0  0  0  0  0  0  0
  1 23  1  0  0  0  0
  1 24  1  0  0  0  0
  1 25  1  0  0  0  0
  2  1  1  0  0  0  0
  2  3  1  0  0  0  0
  2 26  1  6  0  0  0
  3  4  1  0  0  0  0
  3 27  1  0  0  0  0
  3 28  1  0  0  0  0
  4  5  1  0  0  0  0
  4 29  1  0  0  0  0
  4 30  1  0  0  0  0
  5  6  2  0  0  0  0
  6  7  1  0  0  0  0
  6  8  1  0  0  0  0
  8  9  1  0  0  0  0
  8 19  1  0  0  0  0
  9 10  2  0  0  0  0
 10 11  1  0  0  0  0
 10 31  1  0  0  0  0
 11 12  2  0  0  0  0
 12 13  1  0  0  0  0
 12 32  1  0  0  0  0
 13 14  2  0  0  0  0
 14 15  1  0  0  0  0
 14 33  1  0  0  0  0
 15 16  2  0  0  0  0
 15 34  1  0  0  0  0
 16 17  1  0  0  0  0
 16 35  1  0  0  0  0
 17 18  2  0  0  0  0
 17 36  1  0  0  0  0
 18  9  1  0  0  0  0
 18 13  1  0  0  0  0
 19 20  2  0  0  0  0
 19 21  1  0  0  0  0
 21 22  1  0  0  0  0
 21  5  1  0  0  0  0
 22  2  1  0  0  0  0
 22 37  1  0  0  0  0
 22 38  1  0  0  0  0
M  CHG  1   7  -1
M  END
$$$$

 OpenBabel07292611443D

 56 61  0  0  0  0  0  0  0  0999 V2000
   -0.4578   -3.3370   -0.6880 C   0  0  0  0  0  0  0  0  0  0  0  0
    0.2220   -2.1990   -0.0012 C   0  0  1  0  0  0  0  0  0  0  0  0
    1.1297   -1.4372   -0.9804 C   0  0  0  0  0  0  0  0  0  0  0  0
    1.3282   -0.1744   -0.2979 N   0  0  0  0  0  0  0  0  0  0  0  0
    2.3234    0.7748   -0.6451 C   0  0  0  0  0  0  0  0  0  0  0  0
    2.1313    1.7910   -1.5533 C   0  0  0  0  0  0  0  0  0  0  0  0
    3.1440    2.6571   -1.8249 N   0  0  0  0  0  0  0  0  0  0  0  0
    4.3459    2.5529   -1.2270 C   0  0  0  0  0  0  0  0  0  0  0  0
    4.5610    1.5413   -0.3128 C   0  0  0  0  0  0  0  0  0  0  0  0
    5.7973    1.4309    0.3048 C   0  0  0  0  0  0  0  0  0  0  0  0
    6.0359    0.4325    1.2184 C   0  0  0  0  0  0  0  0  0  0  0  0
    5.0415   -0.4743    1.5310 C   0  0  0  0  0  0  0  0  0  0  0  0
    3.8090   -0.3493    0.9031 C   0  0  0  0  0  0  0  0  0  0  0  0
    3.5527    0.6447   -0.0145 C   0  0  0  0  0  0  0  0  0  0  0  0
    0.3706   -0.0408    0.7700 C   0  0  0  0  0  0  0  0  0  0  0  0
    0.3847    0.7771    1.7251 O   0  0  0  0  0  0  0  0  0  0  0  0
   -0.6574   -1.1088    0.4823 C   0  0  1  0  0  0  0  0  0  0  0  0
   -1.5701   -0.5320   -0.5425 C   0  0  0  0  0  0  0  0  0  0  0  0
   -2.1596    0.6914    0.0285 N   0  0  0  0  0  0  0  0  0  0  0  0
   -2.0193    1.9606   -0.6134 C   0  0  0  0  0  0  0  0  0  0  0  0
   -3.1286    2.2096   -1.5717 C   0  0  0  0  0  0  0  0  0  0  0  0
   -3.1469    1.8691   -2.9203 C   0  0  0  0  0  0  0  0  0  0  0  0
   -4.3580    2.2893   -3.3927 C   0  0  0  0  0  0  0  0  0  0  0  0
   -5.0052    2.8474   -2.3550 N   0  0  0  0  0  0  0  0  0  0  0  0
   -4.2937    2.8122   -1.2590 N   0  0  0  0  0  0  0  0  0  0  0  0
   -2.8737    0.5154    1.2465 C   0  0  0  0  0  0  0  0  0  0  0  0
   -3.8297    1.2873    1.5049 O   0  0  0  0  0  0  0  0  0  0  0  0
   -2.4414   -0.5644    2.1264 C   0  0  0  0  0  0  0  0  0  0  0  0
   -3.1259   -0.7584    3.2996 C   0  0  0  0  0  0  0  0  0  0  0  0
   -2.7606   -1.7750    4.1570 C   0  0  0  0  0  0  0  0  0  0  0  0
   -1.6968   -2.5768    3.7946 C   0  0  0  0  0  0  0  0  0  0  0  0
   -1.3307   -3.5831    4.6367 F   0  0  0  0  0  0  0  0  0  0  0  0
   -1.0113   -2.3637    2.5950 C   0  0  0  0  0  0  0  0  0  0  0  0
   -1.3703   -1.3449    1.7267 C   0  0  0  0  0  0  0  0  0  0  0  0
    0.2723   -4.0582   -0.9909 H   0  0  0  0  0  0  0  0  0  0  0  0
   -0.9791   -2.9739   -1.5490 H   0  0  0  0  0  0  0  0  0  0  0  0
   -1.1538   -3.7945   -0.0163 H   0  0  0  0  0  0  0  0  0  0  0  0
    0.7066   -2.6949    0.8137 H   0  0  0  0  0  0  0  0  0  0  0  0
    0.6480   -1.2956   -1.9253 H   0  0  0  0  0  0  0  0  0  0  0  0
    2.0411   -1.9498   -1.2072 H   0  0  0  0  0  0  0  0  0  0  0  0
    1.2205    1.8955   -2.0272 H   0  0  0  0  0  0  0  0  0  0  0  0
    5.0987    3.2226   -1.4500 H   0  0  0  0  0  0  0  0  0  0  0  0
    6.5450    2.1045    0.0764 H   0  0  0  0  0  0  0  0  0  0  0  0
    6.9600    0.3599    1.6721 H   0  0  0  0  0  0  0  0  0  0  0  0
    5.2107   -1.2276    2.2157 H   0  0  0  0  0  0  0  0  0  0  0  0
    3.0614   -1.0230    1.1316 H   0  0  0  0  0  0  0  0  0  0  0  0
   -2.3425   -1.2333   -0.7801 H   0  0  0  0  0  0  0  0  0  0  0  0
   -1.0344   -0.3084   -1.4414 H   0  0  0  0  0  0  0  0  0  0  0  0
   -1.0900    1.9818   -1.1434 H   0  0  0  0  0  0  0  0  0  0  0  0
   -2.0457    2.7224    0.1375 H   0  0  0  0  0  0  0  0  0  0  0  0
   -2.4002    1.3968   -3.4536 H   0  0  0  0  0  0  0  0  0  0  0  0
   -4.7082    2.1963   -4.3590 H   0  0  0  0  0  0  0  0  0  0  0  0
   -5.9077    3.2364   -2.4135 H   0  0  0  0  0  0  0  0  0  0  0  0
   -3.9170   -0.1413    3.5413 H   0  0  0  0  0  0  0  0  0  0  0  0
   -3.2670   -1.9316    5.0425 H   0  0  0  0  0  0  0  0  0  0  0  0
   -0.2198   -2.9791    2.3504 H   0  0  0  0  0  0  0  0  0  0  0  0
  1 35  1  0  0  0  0
  1 36  1  0  0  0  0
  1 37  1  0  0  0  0
  2  1  1  0  0  0  0
  2  3  1  0  0  0  0
  2 38  1  1  0  0  0
  3  4  1  0  0  0  0
  3 39  1  0  0  0  0
  3 40  1  0  0  0  0
  4  5  1  0  0  0  0
  4 15  1  0  0  0  0
  5  6  2  0  0  0  0
  6  7  1  0  0  0  0
  6 41  1  0  0  0  0
  7  8  2  0  0  0  0
  8  9  1  0  0  0  0
  8 42  1  0  0  0  0
  9 10  2  0  0  0  0
 10 11  1  0  0  0  0
 10 43  1  0  0  0  0
 11 12  2  0  0  0  0
 11 44  1  0  0  0  0
 12 13  1  0  0  0  0
 12 45  1  0  0  0  0
 13 14  2  0  0  0  0
 13 46  1  0  0  0  0
 14  5  1  0  0  0  0
 14  9  1  0  0  0  0
 15 16  2  0  0  0  0
 17 15  1  1  0  0  0
 17 18  1  0  0  0  0
 17  2  1  0  0  0  0
 18 19  1  0  0  0  0
 18 47  1  0  0  0  0
 18 48  1  0  0  0  0
 19 20  1  0  0  0  0
 19 26  1  0  0  0  0
 20 21  1  0  0  0  0
 20 49  1  0  0  0  0
 20 50  1  0  0  0  0
 21 22  1  0  0  0  0
 22 23  2  0  0  0  0
 22 51  1  0  0  0  0
 23 24  1  0  0  0  0
 23 52  1  0  0  0  0
 24 25  1  0  0  0  0
 24 53  1  0  0  0  0
 25 21  2  0  0  0  0
 26 27  2  0  0  0  0
 26 28  1  0  0  0  0
 28 29  2  0  0  0  0
 29 30  1  0  0  0  0
 29 54  1  0  0  0  0
 30 31  2  0  0  0  0
 30 55  1  0  0  0  0
 31 32  1  0  0  0  0
 31 33  1  0  0  0  0
 33 34  2  0  0  0  0
 33 56  1  0  0  0  0
 34 28  1  0  0  0  0
 34 17  1  0  0  0  0
M  END
$$$$

 OpenBabel07292611443D

 42 45  0  0  0  0  0  0  0  0999 V2000
   -0.4347    0.5629    1.4322 O   0  0  0  0  0  0  0  0  0  0  0  0
   -0.5316   -0.3689    0.5916 C   0  0  0  0  0  0  0  0  0  0  0  0
   -1.8254   -1.0767    0.3234 C   0  0  1  0  0  0  0  0  0  0  0  0
   -2.8711   -0.0746    0.0696 C   0  0  0  0  0  0  0  0  0  0  0  0
   -4.0249    0.0453    0.8365 C   0  0  0  0  0  0  0  0  0  0  0  0
   -4.9472    1.0202    0.5160 C   0  0  0  0  0  0  0  0  0  0  0  0
   -4.7081    1.8563   -0.5572 C   0  0  0  0  0  0  0  0  0  0  0  0
   -5.8700    3.0952   -0.9724 Cl  0  0  0  0  0  0  0  0  0  0  0  0
   -3.5748    1.7670   -1.3407 C   0  0  0  0  0  0  0  0  0  0  0  0
   -3.3322    2.8582   -2.6875 Cl  0  0  0  0  0  0  0  0  0  0  0  0
   -2.6634    0.7900   -1.0096 C   0  0  0  0  0  0  0  0  0  0  0  0
   -1.5550   -1.9308   -0.9216 C   0  0  0  0  0  0  0  0  0  0  0  0
   -0.4720   -2.9074   -0.5153 C   0  0  2  0  0  0  0  0  0  0  0  0
   -0.7758   -3.3399    0.7776 O   0  0  0  0  0  0  0  0  0  0  0  0
    0.8422   -2.1646   -0.4942 C   0  0  0  0  0  0  0  0  0  0  0  0
    0.6483   -0.7659   -0.1372 N   0  0  0  0  0  0  0  0  0  0  0  0
    1.6065    0.2326   -0.4940 C   0  0  0  0  0  0  0  0  0  0  0  0
    1.3988    0.8429   -1.7318 C   0  0  0  0  0  0  0  0  0  0  0  0
    2.2663    1.7927   -2.1277 N   0  0  0  0  0  0  0  0  0  0  0  0
    3.3145    2.1577   -1.3608 C   0  0  0  0  0  0  0  0  0  0  0  0
    3.5444    1.5619   -0.1174 C   0  0  0  0  0  0  0  0  0  0  0  0
    4.6169    1.9423    0.6562 C   0  0  0  0  0  0  0  0  0  0  0  0
    4.7992    1.3171    1.8852 C   0  0  0  0  0  0  0  0  0  0  0  0
    3.9039    0.3326    2.3005 C   0  0  0  0  0  0  0  0  0  0  0  0
    2.8300   -0.0550    1.5365 C   0  0  0  0  0  0  0  0  0  0  0  0
    2.6657    0.5772    0.3195 C   0  0  0  0  0  0  0  0  0  0  0  0
   -2.1584   -1.6822    1.1404 H   0  0  0  0  0  0  0  0  0  0  0  0
   -4.1893   -0.5870    1.6354 H   0  0  0  0  0  0  0  0  0  0  0  0
   -5.8092    1.1239    1.0739 H   0  0  0  0  0  0  0  0  0  0  0  0
   -1.8041    0.6930   -1.5728 H   0  0  0  0  0  0  0  0  0  0  0  0
   -1.2199   -1.3163   -1.7309 H   0  0  0  0  0  0  0  0  0  0  0  0
   -2.4377   -2.4341   -1.2568 H   0  0  0  0  0  0  0  0  0  0  0  0
   -0.4094   -3.7370   -1.1882 H   0  0  0  0  0  0  0  0  0  0  0  0
   -0.8279   -2.5742    1.3708 H   0  0  0  0  0  0  0  0  0  0  0  0
    1.2898   -2.2188   -1.4645 H   0  0  0  0  0  0  0  0  0  0  0  0
    1.4768   -2.6175    0.2386 H   0  0  0  0  0  0  0  0  0  0  0  0
    0.6009    0.5729   -2.3280 H   0  0  0  0  0  0  0  0  0  0  0  0
    3.9584    2.8902   -1.6983 H   0  0  0  0  0  0  0  0  0  0  0  0
    5.2697    2.6732    0.3326 H   0  0  0  0  0  0  0  0  0  0  0  0
    5.5945    1.5811    2.4875 H   0  0  0  0  0  0  0  0  0  0  0  0
    4.0533   -0.1215    3.2151 H   0  0  0  0  0  0  0  0  0  0  0  0
    2.1755   -0.7856    1.8574 H   0  0  0  0  0  0  0  0  0  0  0  0
  1  2  2  0  0  0  0
  2  3  1  0  0  0  0
  3  4  1  0  0  0  0
  3 12  1  0  0  0  0
  3 27  1  1  0  0  0
  4  5  2  0  0  0  0
  5  6  1  0  0  0  0
  5 28  1  0  0  0  0
  6  7  2  0  0  0  0
  6 29  1  0  0  0  0
  7  8  1  0  0  0  0
  7  9  1  0  0  0  0
  9 10  1  0  0  0  0
  9 11  2  0  0  0  0
 11  4  1  0  0  0  0
 11 30  1  0  0  0  0
 12 13  1  0  0  0  0
 12 31  1  0  0  0  0
 12 32  1  0  0  0  0
 13 14  1  0  0  0  0
 13 15  1  0  0  0  0
 13 33  1  6  0  0  0
 14 34  1  0  0  0  0
 15 16  1  0  0  0  0
 15 35  1  0  0  0  0
 15 36  1  0  0  0  0
 16 17  1  0  0  0  0
 16  2  1  0  0  0  0
 17 18  2  0  0  0  0
 18 19  1  0  0  0  0
 18 37  1  0  0  0  0
 19 20  2  0  0  0  0
 20 21  1  0  0  0  0
 20 38  1  0  0  0  0
 21 22  2  0  0  0  0
 22 23  1  0  0  0  0
 22 39  1  0  0  0  0
 23 24  2  0  0  0  0
 23 40  1  0  0  0  0
 24 25  1  0  0  0  0
 24 41  1  0  0  0  0
 25 26  2  0  0  0  0
 25 42  1  0  0  0  0
 26 17  1  0  0  0  0
 26 21  1  0  0  0  0
M  END
$$$$

 OpenBabel07292611443D

 66 71  0  0  0  0  0  0  0  0999 V2000
    3.4923   -4.5764   -3.3221 C   0  0  0  0  0  0  0  0  0  0  0  0
    2.8735   -4.1133   -2.0871 N   0  0  0  0  0  0  0  0  0  0  0  0
    2.9033   -2.7322   -1.7049 C   0  0  0  0  0  0  0  0  0  0  0  0
    3.4603   -1.8481   -2.4074 O   0  0  0  0  0  0  0  0  0  0  0  0
    2.2246   -2.3940   -0.4037 C   0  0  0  0  0  0  0  0  0  0  0  0
    2.3889   -0.9694   -0.2447 N   0  0  0  0  0  0  0  0  0  0  0  0
    1.4423   -0.0002   -0.7558 C   0  0  0  0  0  0  0  0  0  0  0  0
    0.9761    0.8522    0.3808 C   0  0  2  0  0  0  0  0  0  0  0  0
    0.2856   -0.0886    1.3371 C   0  0  0  0  0  0  0  0  0  0  0  0
    0.8468   -0.7507    2.2473 O   0  0  0  0  0  0  0  0  0  0  0  0
   -1.1094   -0.1205    1.0588 N   0  0  0  0  0  0  0  0  0  0  0  0
   -2.1545   -0.8380    1.6659 C   0  0  0  0  0  0  0  0  0  0  0  0
   -2.8015   -0.2512    2.7361 C   0  0  0  0  0  0  0  0  0  0  0  0
   -3.8220   -0.9021    3.3619 N   0  0  0  0  0  0  0  0  0  0  0  0
   -4.2353   -2.1146    2.9759 C   0  0  0  0  0  0  0  0  0  0  0  0
   -3.6210   -2.7498    1.9071 C   0  0  0  0  0  0  0  0  0  0  0  0
   -3.9993   -3.9936    1.4621 C   0  0  0  0  0  0  0  0  0  0  0  0
   -3.3686   -4.6049    0.3906 C   0  0  0  0  0  0  0  0  0  0  0  0
   -2.3344   -3.9486   -0.2461 C   0  0  0  0  0  0  0  0  0  0  0  0
   -1.9678   -2.6987    0.2152 C   0  0  0  0  0  0  0  0  0  0  0  0
   -2.5889   -2.0823    1.2803 C   0  0  0  0  0  0  0  0  0  0  0  0
   -1.3455    0.7965   -0.0719 C   0  0  0  0  0  0  0  0  0  0  0  0
   -0.1484    1.7694    0.0257 C   0  0  2  0  0  0  0  0  0  0  0  0
   -0.0456    2.4566   -1.2892 C   0  0  0  0  0  0  0  0  0  0  0  0
   -1.2502    3.3292   -1.4772 C   0  0  0  0  0  0  0  0  0  0  0  0
   -1.1655    4.6453   -1.0185 C   0  0  0  0  0  0  0  0  0  0  0  0
   -2.2525    5.5041   -1.1651 C   0  0  0  0  0  0  0  0  0  0  0  0
   -3.4094    5.0441   -1.7654 C   0  0  0  0  0  0  0  0  0  0  0  0
   -3.4808    3.7401   -2.2149 C   0  0  0  0  0  0  0  0  0  0  0  0
   -2.4009    2.8615   -2.0775 C   0  0  0  0  0  0  0  0  0  0  0  0
    2.1158    1.4516    1.0668 C   0  0  0  0  0  0  0  0  0  0  0  0
    2.0515    2.6828    1.7344 C   0  0  0  0  0  0  0  0  0  0  0  0
    3.1476    3.2126    2.3855 C   0  0  0  0  0  0  0  0  0  0  0  0
    3.0270    4.7709    3.2180 Cl  0  0  0  0  0  0  0  0  0  0  0  0
    4.3633    2.5645    2.4167 C   0  0  0  0  0  0  0  0  0  0  0  0
    4.4414    1.3527    1.7640 C   0  0  0  0  0  0  0  0  0  0  0  0
    3.3491    0.8302    1.1179 C   0  0  0  0  0  0  0  0  0  0  0  0
    3.5346   -0.4530    0.4380 C   0  0  0  0  0  0  0  0  0  0  0  0
    4.6252   -1.0813    0.4412 O   0  0  0  0  0  0  0  0  0  0  0  0
    3.3559   -5.6336   -3.4148 H   0  0  0  0  0  0  0  0  0  0  0  0
    4.5383   -4.3520   -3.3029 H   0  0  0  0  0  0  0  0  0  0  0  0
    3.0371   -4.0836   -4.1557 H   0  0  0  0  0  0  0  0  0  0  0  0
    2.4242   -4.7645   -1.5011 H   0  0  0  0  0  0  0  0  0  0  0  0
    2.6875   -2.9170    0.4069 H   0  0  0  0  0  0  0  0  0  0  0  0
    1.1929   -2.6775   -0.4076 H   0  0  0  0  0  0  0  0  0  0  0  0
    0.6075   -0.5069   -1.1931 H   0  0  0  0  0  0  0  0  0  0  0  0
    1.9074    0.6078   -1.5034 H   0  0  0  0  0  0  0  0  0  0  0  0
   -2.5109    0.6836    3.0628 H   0  0  0  0  0  0  0  0  0  0  0  0
   -5.0117   -2.5775    3.4738 H   0  0  0  0  0  0  0  0  0  0  0  0
   -4.7724   -4.4846    1.9378 H   0  0  0  0  0  0  0  0  0  0  0  0
   -3.6684   -5.5397    0.0723 H   0  0  0  0  0  0  0  0  0  0  0  0
   -1.8472   -4.3807   -1.0467 H   0  0  0  0  0  0  0  0  0  0  0  0
   -1.1951   -2.2051   -0.2584 H   0  0  0  0  0  0  0  0  0  0  0  0
   -2.2747    1.3153    0.0393 H   0  0  0  0  0  0  0  0  0  0  0  0
   -1.4124    0.2983   -1.0165 H   0  0  0  0  0  0  0  0  0  0  0  0
   -0.1964    2.5607    0.7444 H   0  0  0  0  0  0  0  0  0  0  0  0
   -0.0036    1.7288   -2.0724 H   0  0  0  0  0  0  0  0  0  0  0  0
    0.8421    3.0534   -1.3177 H   0  0  0  0  0  0  0  0  0  0  0  0
   -0.2984    4.9815   -0.5712 H   0  0  0  0  0  0  0  0  0  0  0  0
   -2.1943    6.4776   -0.8276 H   0  0  0  0  0  0  0  0  0  0  0  0
   -4.2189    5.6743   -1.8776 H   0  0  0  0  0  0  0  0  0  0  0  0
   -4.3493    3.4068   -2.6617 H   0  0  0  0  0  0  0  0  0  0  0  0
   -2.4634    1.8887   -2.4164 H   0  0  0  0  0  0  0  0  0  0  0  0
    1.1622    3.2064    1.7392 H   0  0  0  0  0  0  0  0  0  0  0  0
    5.1776    2.9676    2.9060 H   0  0  0  0  0  0  0  0  0  0  0  0
    5.3324    0.8319    1.7612 H   0  0  0  0  0  0  0  0  0  0  0  0
  1  2  1  0  0  0  0
  1 40  1  0  0  0  0
  1 41  1  0  0  0  0
  1 42  1  0  0  0  0
  2  3  1  0  0  0  0
  2 43  1  0  0  0  0
  3  4  2  0  0  0  0
  3  5  1  0  0  0  0
  5  6  1  0  0  0  0
  5 44  1  0  0  0  0
  5 45  1  0  0  0  0
  6  7  1  0  0  0  0
  7 46  1  0  0  0  0
  7 47  1  0  0  0  0
  8  7  1  0  0  0  0
  8  9  1  1  0  0  0
  8 31  1  0  0  0  0
  9 10  2  0  0  0  0
  9 11  1  0  0  0  0
 11 12  1  0  0  0  0
 11 22  1  0  0  0  0
 12 13  2  0  0  0  0
 13 14  1  0  0  0  0
 13 48  1  0  0  0  0
 14 15  2  0  0  0  0
 15 16  1  0  0  0  0
 15 49  1  0  0  0  0
 16 17  2  0  0  0  0
 17 18  1  0  0  0  0
 17 50  1  0  0  0  0
 18 19  2  0  0  0  0
 18 51  1  0  0  0  0
 19 20  1  0  0  0  0
 19 52  1  0  0  0  0
 20 21  2  0  0  0  0
 20 53  1  0  0  0  0
 21 12  1  0  0  0  0
 21 16  1  0  0  0  0
 22 23  1  0  0  0  0
 22 54  1  0  0  0  0
 22 55  1  0  0  0  0
 23 24  1  0  0  0  0
 23  8  1  0  0  0  0
 23 56  1  1  0  0  0
 24 25  1  0  0  0  0
 24 57  1  0  0  0  0
 24 58  1  0  0  0  0
 25 26  2  0  0  0  0
 26 27  1  0  0  0  0
 26 59  1  0  0  0  0
 27 28  2  0  0  0  0
 27 60  1  0  0  0  0
 28 29  1  0  0  0  0
 28 61  1  0  0  0  0
 29 30  2  0  0  0  0
 29 62  1  0  0  0  0
 30 25  1  0  0  0  0
 30 63  1  0  0  0  0
 31 32  2  0  0  0  0
 32 33  1  0  0  0  0
 32 64  1  0  0  0  0
 33 34  1  0  0  0  0
 33 35  2  0  0  0  0
 35 36  1  0  0  0  0
 35 65  1  0  0  0  0
 36 37  2  0  0  0  0
 36 66  1  0  0  0  0
 37 38  1  0  0  0  0
 37 31  1  0  0  0  0
 38 39  2  0  0  0  0
 38  6  1  0  0  0  0
M  END
$$$$

 OpenBabel07292611443D

 63 68  0  0  0  0  0  0  0  0999 V2000
   -0.8466    1.5537    0.4742 C   0  0  0  0  0  0  0  0  0  0  0  0
   -0.9461    0.2270    1.1471 C   0  0  1  0  0  0  0  0  0  0  0  0
   -2.4043   -0.0418    1.3989 C   0  0  0  0  0  0  0  0  0  0  0  0
   -2.8924   -0.5655    0.1479 N   0  0  0  0  0  0  0  0  0  0  0  0
   -4.2881   -0.5977   -0.1777 C   0  0  0  0  0  0  0  0  0  0  0  0
   -5.1034   -1.6636    0.2127 C   0  0  0  0  0  0  0  0  0  0  0  0
   -6.4155   -1.7081   -0.0904 N   0  0  0  0  0  0  0  0  0  0  0  0
   -7.0150   -0.7294   -0.7857 C   0  0  0  0  0  0  0  0  0  0  0  0
   -6.2741    0.3529   -1.2040 C   0  0  0  0  0  0  0  0  0  0  0  0
   -6.8968    1.3500   -1.9181 C   0  0  0  0  0  0  0  0  0  0  0  0
   -6.1780    2.4486   -2.3542 C   0  0  0  0  0  0  0  0  0  0  0  0
   -4.8478    2.4912   -2.0460 C   0  0  0  0  0  0  0  0  0  0  0  0
   -4.2322    1.5023   -1.3382 C   0  0  0  0  0  0  0  0  0  0  0  0
   -4.9162    0.3978   -0.8898 C   0  0  0  0  0  0  0  0  0  0  0  0
   -1.7848   -1.0198   -0.6140 C   0  0  0  0  0  0  0  0  0  0  0  0
   -1.8600   -1.4556   -1.7851 O   0  0  0  0  0  0  0  0  0  0  0  0
   -0.5592   -0.8872    0.2080 C   0  0  1  0  0  0  0  0  0  0  0  0
    0.6621   -0.5931   -0.5851 C   0  0  0  0  0  0  0  0  0  0  0  0
    1.8208   -0.6046    0.2807 N   0  0  0  0  0  0  0  0  0  0  0  0
    2.7484    0.5009    0.4026 C   0  0  0  0  0  0  0  0  0  0  0  0
    3.8480    0.3823   -0.5919 C   0  0  0  0  0  0  0  0  0  0  0  0
    3.9123   -0.5874   -1.4173 O   0  0  0  0  0  0  0  0  0  0  0  0
    4.8399    1.4172   -0.5791 N   0  0  0  0  0  0  0  0  0  0  0  0
    5.9386    1.3507   -1.5313 C   0  0  0  0  0  0  0  0  0  0  0  0
    6.8227    2.5430   -1.3049 C   0  0  0  0  0  0  0  0  0  0  0  0
    7.4103    2.6049    0.0937 C   0  0  0  0  0  0  0  0  0  0  0  0
    8.2783    2.3295   -1.1183 C   0  0  0  0  0  0  0  0  0  0  0  0
    2.0635   -1.7895    1.0466 C   0  0  0  0  0  0  0  0  0  0  0  0
    3.2401   -2.1152    1.4152 O   0  0  0  0  0  0  0  0  0  0  0  0
    0.8941   -2.5937    1.3770 C   0  0  0  0  0  0  0  0  0  0  0  0
    1.1056   -3.7553    2.0771 C   0  0  0  0  0  0  0  0  0  0  0  0
    0.0349   -4.5706    2.3806 C   0  0  0  0  0  0  0  0  0  0  0  0
   -1.2241   -4.1891    1.9669 C   0  0  0  0  0  0  0  0  0  0  0  0
   -2.2852   -4.9875    2.2613 F   0  0  0  0  0  0  0  0  0  0  0  0
   -1.4072   -3.0169    1.2657 C   0  0  0  0  0  0  0  0  0  0  0  0
   -0.3439   -2.1691    0.9436 C   0  0  0  0  0  0  0  0  0  0  0  0
   -1.1261    2.3243    1.1619 H   0  0  0  0  0  0  0  0  0  0  0  0
   -1.5023    1.5750   -0.3711 H   0  0  0  0  0  0  0  0  0  0  0  0
    0.1600    1.7140    0.1488 H   0  0  0  0  0  0  0  0  0  0  0  0
   -0.3253    0.2538    2.0182 H   0  0  0  0  0  0  0  0  0  0  0  0
   -2.9168    0.8612    1.6573 H   0  0  0  0  0  0  0  0  0  0  0  0
   -2.5601   -0.7181    2.2133 H   0  0  0  0  0  0  0  0  0  0  0  0
   -4.6876   -2.4406    0.7497 H   0  0  0  0  0  0  0  0  0  0  0  0
   -8.0218   -0.7875   -1.0048 H   0  0  0  0  0  0  0  0  0  0  0  0
   -7.9044    1.2783   -2.1294 H   0  0  0  0  0  0  0  0  0  0  0  0
   -6.6288    3.2059   -2.8911 H   0  0  0  0  0  0  0  0  0  0  0  0
   -4.2895    3.3004   -2.3600 H   0  0  0  0  0  0  0  0  0  0  0  0
   -3.2242    1.5853   -1.1332 H   0  0  0  0  0  0  0  0  0  0  0  0
    0.5674    0.3709   -1.0396 H   0  0  0  0  0  0  0  0  0  0  0  0
    0.7796   -1.3383   -1.3439 H   0  0  0  0  0  0  0  0  0  0  0  0
    3.1656    0.5013    1.3879 H   0  0  0  0  0  0  0  0  0  0  0  0
    2.2194    1.4130    0.2207 H   0  0  0  0  0  0  0  0  0  0  0  0
    4.7789    2.1607    0.0633 H   0  0  0  0  0  0  0  0  0  0  0  0
    5.5549    1.3677   -2.5300 H   0  0  0  0  0  0  0  0  0  0  0  0
    6.4934    0.4459   -1.3956 H   0  0  0  0  0  0  0  0  0  0  0  0
    6.2623    3.1879   -1.9490 H   0  0  0  0  0  0  0  0  0  0  0  0
    7.2066    1.8263    0.7988 H   0  0  0  0  0  0  0  0  0  0  0  0
    7.4140    3.3184    0.8910 H   0  0  0  0  0  0  0  0  0  0  0  0
    8.6969    1.3555   -1.2636 H   0  0  0  0  0  0  0  0  0  0  0  0
    9.1618    2.7737   -1.5269 H   0  0  0  0  0  0  0  0  0  0  0  0
    2.0587   -4.0168    2.3743 H   0  0  0  0  0  0  0  0  0  0  0  0
    0.1733   -5.4478    2.9063 H   0  0  0  0  0  0  0  0  0  0  0  0
   -2.3607   -2.7567    0.9688 H   0  0  0  0  0  0  0  0  0  0  0  0
  1 37  1  0  0  0  0
  1 38  1  0  0  0  0
  1 39  1  0  0  0  0
  2  1  1  0  0  0  0
  2  3  1  0  0  0  0
  2 40  1  1  0  0  0
  3  4  1  0  0  0  0
  3 41  1  0  0  0  0
  3 42  1  0  0  0  0
  4  5  1  0  0  0  0
  4 15  1  0  0  0  0
  5  6  2  0  0  0  0
  6  7  1  0  0  0  0
  6 43  1  0  0  0  0
  7  8  2  0  0  0  0
  8  9  1  0  0  0  0
  8 44  1  0  0  0  0
  9 10  2  0  0  0  0
 10 11  1  0  0  0  0
 10 45  1  0  0  0  0
 11 12  2  0  0  0  0
 11 46  1  0  0  0  0
 12 13  1  0  0  0  0
 12 47  1  0  0  0  0
 13 14  2  0  0  0  0
 13 48  1  0  0  0  0
 14  5  1  0  0  0  0
 14  9  1  0  0  0  0
 15 16  2  0  0  0  0
 17 15  1  6  0  0  0
 17 18  1  0  0  0  0
 17  2  1  0  0  0  0
 18 19  1  0  0  0  0
 18 49  1  0  0  0  0
 18 50  1  0  0  0  0
 19 20  1  0  0  0  0
 19 28  1  0  0  0  0
 20 21  1  0  0  0  0
 20 51  1  0  0  0  0
 20 52  1  0  0  0  0
 21 22  2  0  0  0  0
 21 23  1  0  0  0  0
 23 24  1  0  0  0  0
 23 53  1  0  0  0  0
 24 25  1  0  0  0  0
 24 54  1  0  0  0  0
 24 55  1  0  0  0  0
 25 26  1  0  0  0  0
 25 56  1  0  0  0  0
 26 27  1  0  0  0  0
 26 57  1  0  0  0  0
 26 58  1  0  0  0  0
 27 25  1  0  0  0  0
 27 59  1  0  0  0  0
 27 60  1  0  0  0  0
 28 29  2  0  0  0  0
 28 30  1  0  0  0  0
 30 31  2  0  0  0  0
 31 32  1  0  0  0  0
 31 61  1  0  0  0  0
 32 33  2  0  0  0  0
 32 62  1  0  0  0  0
 33 34  1  0  0  0  0
 33 35  1  0  0  0  0
 35 36  2  0  0  0  0
 35 63  1  0  0  0  0
 36 30  1  0  0  0  0
 36 17  1  0  0  0  0
M  END
$$$$

 OpenBabel07292611443D

 40 44  0  0  0  0  0  0  0  0999 V2000
   -0.1585    1.8812    2.1359 O   0  0  0  0  0  0  0  0  0  0  0  0
    0.2682    0.8464    1.5472 C   0  0  0  0  0  0  0  0  0  0  0  0
    1.4555    0.0909    1.8658 N   0  0  0  0  0  0  0  0  0  0  0  0
    1.7918   -0.6225    0.6742 C   0  0  2  0  0  0  0  0  0  0  0  0
    2.5558   -1.9032    0.9179 C   0  0  0  0  0  0  0  0  0  0  0  0
    2.8248   -2.5683   -0.3988 C   0  0  0  0  0  0  0  0  0  0  0  0
    3.0507   -1.6749   -1.4665 O   0  0  0  0  0  0  0  0  0  0  0  0
    3.2612   -0.3149   -1.2752 C   0  0  0  0  0  0  0  0  0  0  0  0
    4.0350    0.4626   -2.0819 C   0  0  0  0  0  0  0  0  0  0  0  0
    4.1750    1.8059   -1.7979 C   0  0  0  0  0  0  0  0  0  0  0  0
    3.5663    2.3912   -0.7355 N   0  0  0  0  0  0  0  0  0  0  0  0
    2.8013    1.6042    0.0554 C   0  0  0  0  0  0  0  0  0  0  0  0
    2.6282    0.2563   -0.1838 C   0  0  0  0  0  0  0  0  0  0  0  0
    0.4563   -0.9035    0.0957 C   0  0  0  0  0  0  0  0  0  0  0  0
    0.0515   -1.8956   -0.5644 O   0  0  0  0  0  0  0  0  0  0  0  0
   -0.3547    0.2158    0.4339 N   0  0  0  0  0  0  0  0  0  0  0  0
   -1.5575    0.6757   -0.1703 C   0  0  0  0  0  0  0  0  0  0  0  0
   -1.3983    1.5937   -1.2113 C   0  0  0  0  0  0  0  0  0  0  0  0
   -2.4865    2.0679   -1.8245 N   0  0  0  0  0  0  0  0  0  0  0  0
   -3.7360    1.6851   -1.4668 C   0  0  0  0  0  0  0  0  0  0  0  0
   -3.9206    0.7667   -0.4270 C   0  0  0  0  0  0  0  0  0  0  0  0
   -5.1949    0.3621   -0.0458 C   0  0  0  0  0  0  0  0  0  0  0  0
   -5.3298   -0.5489    0.9889 C   0  0  0  0  0  0  0  0  0  0  0  0
   -4.1908   -1.0409    1.6257 C   0  0  0  0  0  0  0  0  0  0  0  0
   -2.9250   -0.6429    1.2515 C   0  0  0  0  0  0  0  0  0  0  0  0
   -2.8111    0.2638    0.2205 C   0  0  0  0  0  0  0  0  0  0  0  0
    1.9345    0.0710    2.7257 H   0  0  0  0  0  0  0  0  0  0  0  0
    1.9756   -2.5549    1.5373 H   0  0  0  0  0  0  0  0  0  0  0  0
    3.4812   -1.6847    1.4087 H   0  0  0  0  0  0  0  0  0  0  0  0
    1.9803   -3.1775   -0.6449 H   0  0  0  0  0  0  0  0  0  0  0  0
    3.7251   -3.1336   -0.2775 H   0  0  0  0  0  0  0  0  0  0  0  0
    4.5127    0.0509   -2.8988 H   0  0  0  0  0  0  0  0  0  0  0  0
    4.7638    2.3862   -2.4157 H   0  0  0  0  0  0  0  0  0  0  0  0
    2.3289    2.0283    0.8691 H   0  0  0  0  0  0  0  0  0  0  0  0
   -0.4566    1.9002   -1.5016 H   0  0  0  0  0  0  0  0  0  0  0  0
   -4.5542    2.0720   -1.9627 H   0  0  0  0  0  0  0  0  0  0  0  0
   -6.0283    0.7351   -0.5268 H   0  0  0  0  0  0  0  0  0  0  0  0
   -6.2672   -0.8615    1.2866 H   0  0  0  0  0  0  0  0  0  0  0  0
   -4.2981   -1.7195    2.3958 H   0  0  0  0  0  0  0  0  0  0  0  0
   -2.0883   -1.0129    1.7291 H   0  0  0  0  0  0  0  0  0  0  0  0
  1  2  2  0  0  0  0
  2  3  1  0  0  0  0
  3  4  1  0  0  0  0
  3 27  1  0  0  0  0
  4  5  1  0  0  0  0
  4 14  1  6  0  0  0
  5  6  1  0  0  0  0
  5 28  1  0  0  0  0
  5 29  1  0  0  0  0
  6  7  1  0  0  0  0
  6 30  1  0  0  0  0
  6 31  1  0  0  0  0
  7  8  1  0  0  0  0
  8  9  2  0  0  0  0
  9 10  1  0  0  0  0
  9 32  1  0  0  0  0
 10 11  2  0  0  0  0
 10 33  1  0  0  0  0
 11 12  1  0  0  0  0
 12 13  2  0  0  0  0
 12 34  1  0  0  0  0
 13  4  1  0  0  0  0
 13  8  1  0  0  0  0
 14 15  2  0  0  0  0
 14 16  1  0  0  0  0
 16 17  1  0  0  0  0
 16  2  1  0  0  0  0
 17 18  2  0  0  0  0
 18 19  1  0  0  0  0
 18 35  1  0  0  0  0
 19 20  2  0  0  0  0
 20 21  1  0  0  0  0
 20 36  1  0  0  0  0
 21 22  2  0  0  0  0
 22 23  1  0  0  0  0
 22 37  1  0  0  0  0
 23 24  2  0  0  0  0
 23 38  1  0  0  0  0
 24 25  1  0  0  0  0
 24 39  1  0  0  0  0
 25 26  2  0  0  0  0
 25 40  1  0  0  0  0
 26 17  1  0  0  0  0
 26 21  1  0  0  0  0
M  END
$$$$

 OpenBabel07292611443D

 68 73  0  0  0  0  0  0  0  0999 V2000
    4.1338    4.7221   -3.1598 C   0  0  0  0  0  0  0  0  0  0  0  0
    3.3458    4.7589   -1.9451 N   0  0  0  0  0  0  0  0  0  0  0  0
    3.0771    3.5613   -1.2331 C   0  0  0  0  0  0  0  0  0  0  0  0
    3.5102    2.4476   -1.6290 O   0  0  0  0  0  0  0  0  0  0  0  0
    2.2690    3.5716    0.0161 C   0  0  0  0  0  0  0  0  0  0  0  0
    2.1498    2.1930    0.5338 N   0  0  0  0  0  0  0  0  0  0  0  0
    1.0348    1.4400    0.0385 C   0  0  0  0  0  0  0  0  0  0  0  0
    0.8551    0.0623    0.5628 C   0  0  2  0  0  0  0  0  0  0  0  0
    0.9006   -0.9447   -0.5743 C   0  0  0  0  0  0  0  0  0  0  0  0
    1.9516   -1.1445   -1.2623 O   0  0  0  0  0  0  0  0  0  0  0  0
   -0.3296   -1.5785   -0.7301 N   0  0  0  0  0  0  0  0  0  0  0  0
   -0.8058   -2.3295   -1.8398 C   0  0  0  0  0  0  0  0  0  0  0  0
   -1.5274   -1.7307   -2.8783 C   0  0  0  0  0  0  0  0  0  0  0  0
   -1.9741   -2.4343   -3.9315 N   0  0  0  0  0  0  0  0  0  0  0  0
   -1.7542   -3.7663   -4.0544 C   0  0  0  0  0  0  0  0  0  0  0  0
   -1.0403   -4.4163   -3.0488 C   0  0  0  0  0  0  0  0  0  0  0  0
   -0.8154   -5.7881   -3.1736 C   0  0  0  0  0  0  0  0  0  0  0  0
   -0.1023   -6.4167   -2.1604 C   0  0  0  0  0  0  0  0  0  0  0  0
    0.3594   -5.7020   -1.0800 C   0  0  0  0  0  0  0  0  0  0  0  0
    0.1319   -4.3332   -0.9585 C   0  0  0  0  0  0  0  0  0  0  0  0
   -0.5747   -3.7027   -1.9594 C   0  0  0  0  0  0  0  0  0  0  0  0
   -1.1120   -1.3514    0.4655 C   0  0  0  0  0  0  0  0  0  0  0  0
   -0.4942   -0.2028    1.1788 C   0  0  2  0  0  0  0  0  0  0  0  0
   -1.4447    0.9704    1.1165 C   0  0  0  0  0  0  0  0  0  0  0  0
   -2.6936    0.5058    1.7541 N   0  0  0  0  0  0  0  0  0  0  0  0
   -3.7443    1.4728    1.7831 C   0  0  0  0  0  0  0  0  0  0  0  0
   -3.5880    2.7323    1.2579 C   0  0  0  0  0  0  0  0  0  0  0  0
   -4.5621    3.7003    1.2565 C   0  0  0  0  0  0  0  0  0  0  0  0
   -5.7802    3.3890    1.8200 C   0  0  0  0  0  0  0  0  0  0  0  0
   -5.9827    2.1164    2.3675 C   0  0  0  0  0  0  0  0  0  0  0  0
   -4.9880    1.1709    2.3530 C   0  0  0  0  0  0  0  0  0  0  0  0
    1.8922   -0.3843    1.5272 C   0  0  0  0  0  0  0  0  0  0  0  0
    1.7931   -1.6694    2.0461 C   0  0  0  0  0  0  0  0  0  0  0  0
    2.7301   -2.1468    2.9470 C   0  0  0  0  0  0  0  0  0  0  0  0
    2.5638   -3.7938    3.5825 Cl  0  0  0  0  0  0  0  0  0  0  0  0
    3.7866   -1.3836    3.3643 C   0  0  0  0  0  0  0  0  0  0  0  0
    3.8991   -0.0991    2.8558 C   0  0  0  0  0  0  0  0  0  0  0  0
    2.9532    0.3668    1.9537 C   0  0  0  0  0  0  0  0  0  0  0  0
    3.1194    1.7222    1.4530 C   0  0  0  0  0  0  0  0  0  0  0  0
    4.0964    2.4566    1.8249 O   0  0  0  0  0  0  0  0  0  0  0  0
    4.2299    5.7127   -3.5528 H   0  0  0  0  0  0  0  0  0  0  0  0
    3.6487    4.0978   -3.8808 H   0  0  0  0  0  0  0  0  0  0  0  0
    5.1049    4.3286   -2.9432 H   0  0  0  0  0  0  0  0  0  0  0  0
    2.9958    5.6169   -1.6126 H   0  0  0  0  0  0  0  0  0  0  0  0
    1.2942    3.9603   -0.1924 H   0  0  0  0  0  0  0  0  0  0  0  0
    2.7486    4.1882    0.7474 H   0  0  0  0  0  0  0  0  0  0  0  0
    1.1423    1.3680   -1.0236 H   0  0  0  0  0  0  0  0  0  0  0  0
    0.1715    1.9758    0.3739 H   0  0  0  0  0  0  0  0  0  0  0  0
   -1.7222   -0.7182   -2.8337 H   0  0  0  0  0  0  0  0  0  0  0  0
   -2.1069   -4.2867   -4.8728 H   0  0  0  0  0  0  0  0  0  0  0  0
   -1.1658   -6.3159   -3.9883 H   0  0  0  0  0  0  0  0  0  0  0  0
    0.0828   -7.4303   -2.2191 H   0  0  0  0  0  0  0  0  0  0  0  0
    0.8875   -6.1919   -0.3410 H   0  0  0  0  0  0  0  0  0  0  0  0
    0.4822   -3.8068   -0.1429 H   0  0  0  0  0  0  0  0  0  0  0  0
   -1.0942   -2.2222    1.0870 H   0  0  0  0  0  0  0  0  0  0  0  0
   -2.1325   -1.1436    0.2198 H   0  0  0  0  0  0  0  0  0  0  0  0
   -0.3278   -0.4032    2.2166 H   0  0  0  0  0  0  0  0  0  0  0  0
   -1.6263    1.2501    0.0998 H   0  0  0  0  0  0  0  0  0  0  0  0
   -1.0443    1.8304    1.6114 H   0  0  0  0  0  0  0  0  0  0  0  0
   -2.7938   -0.3988    2.1294 H   0  0  0  0  0  0  0  0  0  0  0  0
   -2.6762    2.9672    0.8355 H   0  0  0  0  0  0  0  0  0  0  0  0
   -4.3873    4.6311    0.8465 H   0  0  0  0  0  0  0  0  0  0  0  0
   -6.5382    4.0891    1.8384 H   0  0  0  0  0  0  0  0  0  0  0  0
   -6.8958    1.8853    2.7893 H   0  0  0  0  0  0  0  0  0  0  0  0
   -5.1561    0.2383    2.7616 H   0  0  0  0  0  0  0  0  0  0  0  0
    1.0105   -2.2764    1.7561 H   0  0  0  0  0  0  0  0  0  0  0  0
    4.4775   -1.7527    4.0362 H   0  0  0  0  0  0  0  0  0  0  0  0
    4.6819    0.5074    3.1464 H   0  0  0  0  0  0  0  0  0  0  0  0
  1  2  1  0  0  0  0
  1 41  1  0  0  0  0
  1 42  1  0  0  0  0
  1 43  1  0  0  0  0
  2  3  1  0  0  0  0
  2 44  1  0  0  0  0
  3  4  2  0  0  0  0
  3  5  1  0  0  0  0
  5  6  1  0  0  0  0
  5 45  1  0  0  0  0
  5 46  1  0  0  0  0
  6  7  1  0  0  0  0
  7 47  1  0  0  0  0
  7 48  1  0  0  0  0
  8  7  1  0  0  0  0
  8  9  1  6  0  0  0
  8 32  1  0  0  0  0
  9 10  2  0  0  0  0
  9 11  1  0  0  0  0
 11 12  1  0  0  0  0
 11 22  1  0  0  0  0
 12 13  2  0  0  0  0
 13 14  1  0  0  0  0
 13 49  1  0  0  0  0
 14 15  2  0  0  0  0
 15 16  1  0  0  0  0
 15 50  1  0  0  0  0
 16 17  2  0  0  0  0
 17 18  1  0  0  0  0
 17 51  1  0  0  0  0
 18 19  2  0  0  0  0
 18 52  1  0  0  0  0
 19 20  1  0  0  0  0
 19 53  1  0  0  0  0
 20 21  2  0  0  0  0
 20 54  1  0  0  0  0
 21 12  1  0  0  0  0
 21 16  1  0  0  0  0
 22 23  1  0  0  0  0
 22 55  1  0  0  0  0
 22 56  1  0  0  0  0
 23 24  1  0  0  0  0
 23  8  1  0  0  0  0
 23 57  1  1  0  0  0
 24 25  1  0  0  0  0
 24 58  1  0  0  0  0
 24 59  1  0  0  0  0
 25 26  1  0  0  0  0
 25 60  1  0  0  0  0
 26 27  2  0  0  0  0
 27 28  1  0  0  0  0
 27 61  1  0  0  0  0
 28 29  2  0  0  0  0
 28 62  1  0  0  0  0
 29 30  1  0  0  0  0
 29 63  1  0  0  0  0
 30 31  2  0  0  0  0
 30 64  1  0  0  0  0
 31 26  1  0  0  0  0
 31 65  1  0  0  0  0
 32 33  2  0  0  0  0
 33 34  1  0  0  0  0
 33 66  1  0  0  0  0
 34 35  1  0  0  0  0
 34 36  2  0  0  0  0
 36 37  1  0  0  0  0
 36 67  1  0  0  0  0
 37 38  2  0  0  0  0
 37 68  1  0  0  0  0
 38 39  1  0  0  0  0
 38 32  1  0  0  0  0
 39 40  2  0  0  0  0
 39  6  1  0  0  0  0
M  END
$$$$

 OpenBabel07292611443D

 65 70  0  0  0  0  0  0  0  0999 V2000
    3.4927    1.4196    0.3447 O   0  0  0  0  0  0  0  0  0  0  0  0
    3.4460    0.1681    0.2346 C   0  0  0  0  0  0  0  0  0  0  0  0
    2.2003   -0.4782   -0.3121 C   0  0  0  0  0  0  0  0  0  0  0  0
    1.2066    0.5223   -0.6373 N   0  3  1  0  0  0  0  0  0  0  0  0
    0.6815    0.3084   -1.9805 C   0  0  0  0  0  0  0  0  0  0  0  0
   -0.0352   -1.0173   -1.9037 C   0  0  0  0  0  0  0  0  0  0  0  0
    0.0969   -1.9598   -2.9017 C   0  0  0  0  0  0  0  0  0  0  0  0
   -0.5661   -3.1655   -2.8053 C   0  0  0  0  0  0  0  0  0  0  0  0
   -1.3511   -3.3864   -1.6928 C   0  0  0  0  0  0  0  0  0  0  0  0
   -2.1978   -4.9338   -1.5760 Cl  0  0  0  0  0  0  0  0  0  0  0  0
   -1.4744   -2.4264   -0.6950 C   0  0  0  0  0  0  0  0  0  0  0  0
   -0.8096   -1.2019   -0.7788 C   0  0  0  0  0  0  0  0  0  0  0  0
   -0.9721   -0.2149    0.2988 C   0  0  2  0  0  0  0  0  0  0  0  0
   -1.3756   -0.8011    1.6036 C   0  0  0  0  0  0  0  0  0  0  0  0
   -2.8491   -0.6617    1.7244 C   0  0  0  0  0  0  0  0  0  0  0  0
   -3.3109   -0.0651    0.4890 N   0  0  0  0  0  0  0  0  0  0  0  0
   -4.6175   -0.1015   -0.0968 C   0  0  0  0  0  0  0  0  0  0  0  0
   -5.0076   -1.0914   -0.9762 C   0  0  0  0  0  0  0  0  0  0  0  0
   -6.2543   -1.0740   -1.4977 N   0  0  0  0  0  0  0  0  0  0  0  0
   -7.0922   -0.0830   -1.1436 C   0  0  0  0  0  0  0  0  0  0  0  0
   -6.7482    0.9270   -0.2695 C   0  0  0  0  0  0  0  0  0  0  0  0
   -7.6526    1.9091    0.0498 C   0  0  0  0  0  0  0  0  0  0  0  0
   -7.2739    2.9194    0.9389 C   0  0  0  0  0  0  0  0  0  0  0  0
   -6.0002    2.8983    1.4693 C   0  0  0  0  0  0  0  0  0  0  0  0
   -5.1091    1.9013    1.1337 C   0  0  0  0  0  0  0  0  0  0  0  0
   -5.4763    0.9136    0.2657 C   0  0  0  0  0  0  0  0  0  0  0  0
   -2.1877    0.5982   -0.0723 C   0  0  0  0  0  0  0  0  0  0  0  0
   -2.2044    1.6702   -0.7557 O   0  0  0  0  0  0  0  0  0  0  0  0
    0.2130    0.6838    0.3677 C   0  0  0  0  0  0  0  0  0  0  0  0
    4.5119   -0.6972    0.5987 N   0  0  0  0  0  0  0  0  0  0  0  0
    5.7423   -0.1546    1.1313 C   0  0  0  0  0  0  0  0  0  0  0  0
    6.4042    0.7877    0.1397 C   0  0  1  0  0  0  0  0  0  0  0  0
    7.6836    1.3380    0.7214 C   0  0  0  0  0  0  0  0  0  0  0  0
    8.4091    0.8999   -0.5118 C   0  0  1  0  0  0  0  0  0  0  0  0
    9.6127    0.2410   -0.2417 F   0  0  0  0  0  0  0  0  0  0  0  0
    7.2533   -0.0194   -0.8361 C   0  0  0  0  0  0  0  0  0  0  0  0
    1.7997   -1.1458    0.4219 H   0  0  0  0  0  0  0  0  0  0  0  0
    2.4531   -1.0147   -1.2027 H   0  0  0  0  0  0  0  0  0  0  0  0
    1.6725    1.4296   -0.6498 H   0  0  0  0  0  0  0  0  0  0  0  0
    1.4772    0.2666   -2.6947 H   0  0  0  0  0  0  0  0  0  0  0  0
    0.0348    1.1012   -2.2939 H   0  0  0  0  0  0  0  0  0  0  0  0
    0.6923   -1.7629   -3.7213 H   0  0  0  0  0  0  0  0  0  0  0  0
   -0.4775   -3.8811   -3.5436 H   0  0  0  0  0  0  0  0  0  0  0  0
   -2.0698   -2.6231    0.1247 H   0  0  0  0  0  0  0  0  0  0  0  0
   -0.8933   -0.2782    2.4029 H   0  0  0  0  0  0  0  0  0  0  0  0
   -1.0909   -1.8312    1.6559 H   0  0  0  0  0  0  0  0  0  0  0  0
   -3.0935   -0.0305    2.5531 H   0  0  0  0  0  0  0  0  0  0  0  0
   -3.3140   -1.6108    1.8919 H   0  0  0  0  0  0  0  0  0  0  0  0
   -4.3490   -1.8427   -1.2347 H   0  0  0  0  0  0  0  0  0  0  0  0
   -8.0421   -0.0782   -1.5470 H   0  0  0  0  0  0  0  0  0  0  0  0
   -8.5993    1.9018   -0.3609 H   0  0  0  0  0  0  0  0  0  0  0  0
   -7.9361    3.6686    1.1943 H   0  0  0  0  0  0  0  0  0  0  0  0
   -5.7105    3.6394    2.1265 H   0  0  0  0  0  0  0  0  0  0  0  0
   -4.1606    1.9016    1.5403 H   0  0  0  0  0  0  0  0  0  0  0  0
    0.6838    0.5247    1.3153 H   0  0  0  0  0  0  0  0  0  0  0  0
   -0.1767    1.6688    0.2166 H   0  0  0  0  0  0  0  0  0  0  0  0
    4.4128   -1.6704    0.4881 H   0  0  0  0  0  0  0  0  0  0  0  0
    6.4131   -0.9594    1.3486 H   0  0  0  0  0  0  0  0  0  0  0  0
    5.5123    0.3963    2.0193 H   0  0  0  0  0  0  0  0  0  0  0  0
    5.6121    1.4293   -0.1856 H   0  0  0  0  0  0  0  0  0  0  0  0
    8.0050    0.8496    1.6176 H   0  0  0  0  0  0  0  0  0  0  0  0
    7.7404    2.3515    1.0599 H   0  0  0  0  0  0  0  0  0  0  0  0
    8.7588    1.6075   -1.2342 H   0  0  0  0  0  0  0  0  0  0  0  0
    7.4050   -1.0402   -0.5536 H   0  0  0  0  0  0  0  0  0  0  0  0
    6.9382   -0.1848   -1.8452 H   0  0  0  0  0  0  0  0  0  0  0  0
  1  2  2  0  0  0  0
  2  3  1  0  0  0  0
  2 30  1  0  0  0  0
  3 37  1  0  0  0  0
  3 38  1  0  0  0  0
  4  3  1  0  0  0  0
  4  5  1  0  0  0  0
  4 39  1  6  0  0  0
  5  6  1  0  0  0  0
  5 40  1  0  0  0  0
  5 41  1  0  0  0  0
  6  7  2  0  0  0  0
  7  8  1  0  0  0  0
  7 42  1  0  0  0  0
  8  9  2  0  0  0  0
  8 43  1  0  0  0  0
  9 10  1  0  0  0  0
  9 11  1  0  0  0  0
 11 12  2  0  0  0  0
 11 44  1  0  0  0  0
 12  6  1  0  0  0  0
 13 12  1  6  0  0  0
 13 14  1  0  0  0  0
 13 29  1  0  0  0  0
 14 15  1  0  0  0  0
 14 45  1  0  0  0  0
 14 46  1  0  0  0  0
 15 16  1  0  0  0  0
 15 47  1  0  0  0  0
 15 48  1  0  0  0  0
 16 17  1  0  0  0  0
 16 27  1  0  0  0  0
 17 18  2  0  0  0  0
 18 19  1  0  0  0  0
 18 49  1  0  0  0  0
 19 20  2  0  0  0  0
 20 21  1  0  0  0  0
 20 50  1  0  0  0  0
 21 22  2  0  0  0  0
 22 23  1  0  0  0  0
 22 51  1  0  0  0  0
 23 24  2  0  0  0  0
 23 52  1  0  0  0  0
 24 25  1  0  0  0  0
 24 53  1  0  0  0  0
 25 26  2  0  0  0  0
 25 54  1  0  0  0  0
 26 17  1  0  0  0  0
 26 21  1  0  0  0  0
 27 28  2  0  0  0  0
 27 13  1  0  0  0  0
 29  4  1  0  0  0  0
 29 55  1  0  0  0  0
 29 56  1  0  0  0  0
 30 31  1  0  0  0  0
 30 57  1  0  0  0  0
 31 58  1  0  0  0  0
 31 59  1  0  0  0  0
 32 31  1  0  0  0  0
 32 33  1  0  0  0  0
 32 60  1  6  0  0  0
 33 34  1  0  0  0  0
 33 61  1  0  0  0  0
 33 62  1  0  0  0  0
 34 35  1  0  0  0  0
 34 36  1  0  0  0  0
 34 63  1  6  0  0  0
 36 32  1  0  0  0  0
 36 64  1  0  0  0  0
 36 65  1  0  0  0  0
M  CHG  1   4   1
M  END
$$$$

 OpenBabel07292611443D

 70 75  0  0  0  0  0  0  0  0999 V2000
    2.5377   -0.1104    2.5342 O   0  0  0  0  0  0  0  0  0  0  0  0
    1.8231   -0.5283    1.5609 C   0  0  0  0  0  0  0  0  0  0  0  0
    0.4230   -0.8862    1.8858 C   0  0  0  0  0  0  0  0  0  0  0  0
   -0.3491   -1.3511    0.7682 N   0  3  1  0  0  0  0  0  0  0  0  0
   -1.4458   -2.1623    1.2863 C   0  0  0  0  0  0  0  0  0  0  0  0
   -2.2234   -1.2319    2.1590 C   0  0  0  0  0  0  0  0  0  0  0  0
   -2.6057   -1.5517    3.4420 C   0  0  0  0  0  0  0  0  0  0  0  0
   -3.3148   -0.6575    4.2165 C   0  0  0  0  0  0  0  0  0  0  0  0
   -3.6313    0.5775    3.6604 C   0  0  0  0  0  0  0  0  0  0  0  0
   -4.5383    1.7295    4.6429 Cl  0  0  0  0  0  0  0  0  0  0  0  0
   -3.2369    0.8757    2.3706 C   0  0  0  0  0  0  0  0  0  0  0  0
   -2.5289    0.0023    1.5755 C   0  0  0  0  0  0  0  0  0  0  0  0
   -2.1046    0.3116    0.1885 C   0  0  2  0  0  0  0  0  0  0  0  0
   -3.1786   -0.1792   -0.7522 C   0  0  0  0  0  0  0  0  0  0  0  0
   -2.8291   -1.0246   -1.5929 O   0  0  0  0  0  0  0  0  0  0  0  0
   -4.5083    0.3098   -0.6660 N   0  0  0  0  0  0  0  0  0  0  0  0
   -5.5796   -0.0858   -1.4968 C   0  0  0  0  0  0  0  0  0  0  0  0
   -5.4874   -1.0145   -2.5076 C   0  0  0  0  0  0  0  0  0  0  0  0
   -6.5497   -1.3641   -3.2865 N   0  0  0  0  0  0  0  0  0  0  0  0
   -7.7619   -0.8311   -3.1274 C   0  0  0  0  0  0  0  0  0  0  0  0
   -7.9042    0.1108   -2.1200 C   0  0  0  0  0  0  0  0  0  0  0  0
   -9.1605    0.6498   -1.9709 C   0  0  0  0  0  0  0  0  0  0  0  0
   -9.3760    1.5895   -0.9930 C   0  0  0  0  0  0  0  0  0  0  0  0
   -8.3666    1.9898   -0.1764 C   0  0  0  0  0  0  0  0  0  0  0  0
   -7.0993    1.4257   -0.3498 C   0  0  0  0  0  0  0  0  0  0  0  0
   -6.8282    0.4855   -1.3079 C   0  0  0  0  0  0  0  0  0  0  0  0
   -0.7899   -0.3189   -0.1057 C   0  0  0  0  0  0  0  0  0  0  0  0
    2.3966   -0.6197    0.2753 N   0  0  0  0  0  0  0  0  0  0  0  0
    3.7492   -0.2694   -0.0175 C   0  0  0  0  0  0  0  0  0  0  0  0
    4.7012   -1.2617    0.0887 C   0  0  0  0  0  0  0  0  0  0  0  0
    6.0254   -0.9882   -0.1812 C   0  0  0  0  0  0  0  0  0  0  0  0
    6.3658    0.3147   -0.5619 C   0  0  0  0  0  0  0  0  0  0  0  0
    7.7460    0.5345   -0.8273 N   0  0  0  0  0  0  0  0  0  0  0  0
    8.2232    0.3293   -2.1865 C   0  0  0  0  0  0  0  0  0  0  0  0
    9.6726   -0.0969   -2.1904 C   0  0  0  0  0  0  0  0  0  0  0  0
   10.4315    0.7653   -1.4072 O   0  0  0  0  0  0  0  0  0  0  0  0
   10.1006    0.6226   -0.0579 C   0  0  0  0  0  0  0  0  0  0  0  0
    8.6637    0.9425    0.1778 C   0  0  0  0  0  0  0  0  0  0  0  0
    8.2311    1.5319    1.1793 O   0  0  0  0  0  0  0  0  0  0  0  0
    5.4088    1.3036   -0.6665 C   0  0  0  0  0  0  0  0  0  0  0  0
    4.0808    1.0324   -0.3967 C   0  0  0  0  0  0  0  0  0  0  0  0
   -0.0588   -0.0191    2.2869 H   0  0  0  0  0  0  0  0  0  0  0  0
    0.4708   -1.6985    2.5807 H   0  0  0  0  0  0  0  0  0  0  0  0
    0.2529   -1.9184    0.1714 H   0  0  0  0  0  0  0  0  0  0  0  0
   -1.0697   -2.9873    1.8544 H   0  0  0  0  0  0  0  0  0  0  0  0
   -2.0447   -2.5814    0.5049 H   0  0  0  0  0  0  0  0  0  0  0  0
   -2.3579   -2.4751    3.8306 H   0  0  0  0  0  0  0  0  0  0  0  0
   -3.6016   -0.8972    5.1784 H   0  0  0  0  0  0  0  0  0  0  0  0
   -3.4853    1.7995    1.9834 H   0  0  0  0  0  0  0  0  0  0  0  0
   -1.9794    1.3668    0.0625 H   0  0  0  0  0  0  0  0  0  0  0  0
   -4.6994    0.9795    0.0299 H   0  0  0  0  0  0  0  0  0  0  0  0
   -4.5758   -1.4652   -2.6834 H   0  0  0  0  0  0  0  0  0  0  0  0
   -8.5563   -1.1067   -3.7258 H   0  0  0  0  0  0  0  0  0  0  0  0
   -9.9327    0.3514   -2.5870 H   0  0  0  0  0  0  0  0  0  0  0  0
  -10.3170    1.9970   -0.8768 H   0  0  0  0  0  0  0  0  0  0  0  0
   -8.5322    2.6963    0.5574 H   0  0  0  0  0  0  0  0  0  0  0  0
   -6.3342    1.7313    0.2717 H   0  0  0  0  0  0  0  0  0  0  0  0
   -0.0513    0.4550   -0.0867 H   0  0  0  0  0  0  0  0  0  0  0  0
   -0.9226   -0.7997   -1.0523 H   0  0  0  0  0  0  0  0  0  0  0  0
    1.8313   -0.9438   -0.4627 H   0  0  0  0  0  0  0  0  0  0  0  0
    4.4210   -2.2138    0.3716 H   0  0  0  0  0  0  0  0  0  0  0  0
    6.7453   -1.7237   -0.1046 H   0  0  0  0  0  0  0  0  0  0  0  0
    8.1254    1.2435   -2.7339 H   0  0  0  0  0  0  0  0  0  0  0  0
    7.6385   -0.4429   -2.6412 H   0  0  0  0  0  0  0  0  0  0  0  0
   10.0427   -0.0799   -3.1942 H   0  0  0  0  0  0  0  0  0  0  0  0
    9.7454   -1.0862   -1.7894 H   0  0  0  0  0  0  0  0  0  0  0  0
   10.7064    1.2864    0.5228 H   0  0  0  0  0  0  0  0  0  0  0  0
   10.2748   -0.3932    0.2297 H   0  0  0  0  0  0  0  0  0  0  0  0
    5.6879    2.2560   -0.9493 H   0  0  0  0  0  0  0  0  0  0  0  0
    3.3596    1.7666   -0.4729 H   0  0  0  0  0  0  0  0  0  0  0  0
  1  2  2  0  0  0  0
  2  3  1  0  0  0  0
  2 28  1  0  0  0  0
  3 42  1  0  0  0  0
  3 43  1  0  0  0  0
  4  3  1  0  0  0  0
  4  5  1  0  0  0  0
  4 44  1  6  0  0  0
  5  6  1  0  0  0  0
  5 45  1  0  0  0  0
  5 46  1  0  0  0  0
  6  7  2  0  0  0  0
  7  8  1  0  0  0  0
  7 47  1  0  0  0  0
  8  9  2  0  0  0  0
  8 48  1  0  0  0  0
  9 10  1  0  0  0  0
  9 11  1  0  0  0  0
 11 12  2  0  0  0  0
 11 49  1  0  0  0  0
 12 13  1  0  0  0  0
 12  6  1  0  0  0  0
 13 14  1  0  0  0  0
 13 27  1  0  0  0  0
 13 50  1  6  0  0  0
 14 15  2  0  0  0  0
 14 16  1  0  0  0  0
 16 17  1  0  0  0  0
 16 51  1  0  0  0  0
 17 18  2  0  0  0  0
 18 19  1  0  0  0  0
 18 52  1  0  0  0  0
 19 20  2  0  0  0  0
 20 21  1  0  0  0  0
 20 53  1  0  0  0  0
 21 22  2  0  0  0  0
 22 23  1  0  0  0  0
 22 54  1  0  0  0  0
 23 24  2  0  0  0  0
 23 55  1  0  0  0  0
 24 25  1  0  0  0  0
 24 56  1  0  0  0  0
 25 26  2  0  0  0  0
 25 57  1  0  0  0  0
 26 17  1  0  0  0  0
 26 21  1  0  0  0  0
 27  4  1  0  0  0  0
 27 58  1  0  0  0  0
 27 59  1  0  0  0  0
 28 29  1  0  0  0  0
 28 60  1  0  0  0  0
 29 30  2  0  0  0  0
 30 31  1  0  0  0  0
 30 61  1  0  0  0  0
 31 32  2  0  0  0  0
 31 62  1  0  0  0  0
 32 33  1  0  0  0  0
 32 40  1  0  0  0  0
 33 34  1  0  0  0  0
 34 35  1  0  0  0  0
 34 63  1  0  0  0  0
 34 64  1  0  0  0  0
 35 36  1  0  0  0  0
 35 65  1  0  0  0  0
 35 66  1  0  0  0  0
 36 37  1  0  0  0  0
 37 38  1  0  0  0  0
 37 67  1  0  0  0  0
 37 68  1  0  0  0  0
 38 39  2  0  0  0  0
 38 33  1  0  0  0  0
 40 41  2  0  0  0  0
 40 69  1  0  0  0  0
 41 29  1  0  0  0  0
 41 70  1  0  0  0  0
M  CHG  1   4   1
M  END
$$$$

 OpenBabel07292611443D

 55 60  0  0  0  0  0  0  0  0999 V2000
   -1.1968    0.1274   -1.9342 C   0  0  0  0  0  0  0  0  0  0  0  0
   -0.1127   -0.0503   -0.9321 C   0  0  1  0  0  0  0  0  0  0  0  0
    0.6660    1.1615   -0.5700 C   0  0  0  0  0  0  0  0  0  0  0  0
    1.3810    0.6983    0.6253 N   0  0  0  0  0  0  0  0  0  0  0  0
    2.5513    1.3671    1.1027 C   0  0  0  0  0  0  0  0  0  0  0  0
    2.4551    2.4059    2.0214 C   0  0  0  0  0  0  0  0  0  0  0  0
    3.5795    2.9859    2.4253 N   0  0  0  0  0  0  0  0  0  0  0  0
    4.7819    2.6132    1.9875 C   0  0  0  0  0  0  0  0  0  0  0  0
    4.9210    1.5960    1.0837 C   0  0  0  0  0  0  0  0  0  0  0  0
    6.1504    1.1742    0.6004 C   0  0  0  0  0  0  0  0  0  0  0  0
    6.2124    0.1446   -0.3071 C   0  0  0  0  0  0  0  0  0  0  0  0
    5.0810   -0.5115   -0.7769 C   0  0  0  0  0  0  0  0  0  0  0  0
    3.8742   -0.0803   -0.2875 C   0  0  0  0  0  0  0  0  0  0  0  0
    3.7871    0.9549    0.6272 C   0  0  0  0  0  0  0  0  0  0  0  0
    0.7273   -0.4482    1.1595 C   0  0  0  0  0  0  0  0  0  0  0  0
    1.1880   -1.1763    2.0485 O   0  0  0  0  0  0  0  0  0  0  0  0
   -0.5834   -0.5500    0.4210 C   0  0  1  0  0  0  0  0  0  0  0  0
   -1.5631    0.3260    1.0982 C   0  0  0  0  0  0  0  0  0  0  0  0
   -2.9344   -0.0798    1.0247 N   0  0  0  0  0  0  0  0  0  0  0  0
   -4.0279    0.8649    1.1392 C   0  0  0  0  0  0  0  0  0  0  0  0
   -4.4582    1.4348   -0.1528 C   0  0  0  0  0  0  0  0  0  0  0  0
   -3.9308    2.5895   -0.7028 C   0  0  0  0  0  0  0  0  0  0  0  0
   -4.5472    2.8258   -1.8857 N   0  0  0  0  0  0  0  0  0  0  0  0
   -5.4139    1.8604   -2.0549 N   0  0  0  0  0  0  0  0  0  0  0  0
   -5.3846    1.0078   -1.0302 N   0  0  0  0  0  0  0  0  0  0  0  0
   -3.2941   -1.4628    0.8310 C   0  0  0  0  0  0  0  0  0  0  0  0
   -4.4838   -1.8210    1.0193 O   0  0  0  0  0  0  0  0  0  0  0  0
   -2.2913   -2.4053    0.4276 C   0  0  0  0  0  0  0  0  0  0  0  0
   -2.6116   -3.7314    0.2364 C   0  0  0  0  0  0  0  0  0  0  0  0
   -1.6550   -4.6169   -0.1458 C   0  0  0  0  0  0  0  0  0  0  0  0
   -0.3576   -4.2079   -0.3476 C   0  0  0  0  0  0  0  0  0  0  0  0
    0.5806   -5.1102   -0.7291 F   0  0  0  0  0  0  0  0  0  0  0  0
   -0.0364   -2.8620   -0.1527 C   0  0  0  0  0  0  0  0  0  0  0  0
   -1.0009   -1.9452    0.2374 C   0  0  0  0  0  0  0  0  0  0  0  0
   -0.7783    0.4802   -2.8536 H   0  0  0  0  0  0  0  0  0  0  0  0
   -1.9068    0.8397   -1.5690 H   0  0  0  0  0  0  0  0  0  0  0  0
   -1.6854   -0.8098   -2.1011 H   0  0  0  0  0  0  0  0  0  0  0  0
    0.4865   -0.7555   -1.4693 H   0  0  0  0  0  0  0  0  0  0  0  0
    0.0236    1.9875   -0.3465 H   0  0  0  0  0  0  0  0  0  0  0  0
    1.3040    1.5213   -1.3500 H   0  0  0  0  0  0  0  0  0  0  0  0
    1.5382    2.7168    2.3786 H   0  0  0  0  0  0  0  0  0  0  0  0
    5.6222    3.1003    2.3363 H   0  0  0  0  0  0  0  0  0  0  0  0
    7.0172    1.6329    0.9218 H   0  0  0  0  0  0  0  0  0  0  0  0
    7.1373   -0.1539   -0.6542 H   0  0  0  0  0  0  0  0  0  0  0  0
    5.1454   -1.2834   -1.4589 H   0  0  0  0  0  0  0  0  0  0  0  0
    3.0083   -0.5399   -0.6099 H   0  0  0  0  0  0  0  0  0  0  0  0
   -1.4873    1.2994    0.6604 H   0  0  0  0  0  0  0  0  0  0  0  0
   -1.3096    0.2878    2.1370 H   0  0  0  0  0  0  0  0  0  0  0  0
   -3.7160    1.6670    1.7750 H   0  0  0  0  0  0  0  0  0  0  0  0
   -4.8636    0.3287    1.5380 H   0  0  0  0  0  0  0  0  0  0  0  0
   -3.1912    3.1734   -0.2821 H   0  0  0  0  0  0  0  0  0  0  0  0
   -6.0085    1.7749   -2.8349 H   0  0  0  0  0  0  0  0  0  0  0  0
   -3.5810   -4.0530    0.3839 H   0  0  0  0  0  0  0  0  0  0  0  0
   -1.9048   -5.6083   -0.2864 H   0  0  0  0  0  0  0  0  0  0  0  0
    0.9344   -2.5451   -0.3015 H   0  0  0  0  0  0  0  0  0  0  0  0
  1 35  1  0  0  0  0
  1 36  1  0  0  0  0
  1 37  1  0  0  0  0
  2  1  1  0  0  0  0
  2  3  1  0  0  0  0
  2 38  1  6  0  0  0
  3  4  1  0  0  0  0
  3 39  1  0  0  0  0
  3 40  1  0  0  0  0
  4  5  1  0  0  0  0
  4 15  1  0  0  0  0
  5  6  2  0  0  0  0
  6  7  1  0  0  0  0
  6 41  1  0  0  0  0
  7  8  2  0  0  0  0
  8  9  1  0  0  0  0
  8 42  1  0  0  0  0
  9 10  2  0  0  0  0
 10 11  1  0  0  0  0
 10 43  1  0  0  0  0
 11 12  2  0  0  0  0
 11 44  1  0  0  0  0
 12 13  1  0  0  0  0
 12 45  1  0  0  0  0
 13 14  2  0  0  0  0
 13 46  1  0  0  0  0
 14  5  1  0  0  0  0
 14  9  1  0  0  0  0
 15 16  2  0  0  0  0
 17 15  1  1  0  0  0
 17 18  1  0  0  0  0
 17  2  1  0  0  0  0
 18 19  1  0  0  0  0
 18 47  1  0  0  0  0
 18 48  1  0  0  0  0
 19 20  1  0  0  0  0
 19 26  1  0  0  0  0
 20 21  1  0  0  0  0
 20 49  1  0  0  0  0
 20 50  1  0  0  0  0
 21 22  1  0  0  0  0
 22 23  2  0  0  0  0
 22 51  1  0  0  0  0
 23 24  1  0  0  0  0
 24 25  1  0  0  0  0
 24 52  1  0  0  0  0
 25 21  2  0  0  0  0
 26 27  2  0  0  0  0
 26 28  1  0  0  0  0
 28 29  2  0  0  0  0
 29 30  1  0  0  0  0
 29 53  1  0  0  0  0
 30 31  2  0  0  0  0
 30 54  1  0  0  0  0
 31 32  1  0  0  0  0
 31 33  1  0  0  0  0
 33 34  2  0  0  0  0
 33 55  1  0  0  0  0
 34 28  1  0  0  0  0
 34 17  1  0  0  0  0
M  END
$$$$

 OpenBabel07292611443D

 58 62  0  0  0  0  0  0  0  0999 V2000
    4.0365   -1.8918   -1.4349 C   0  0  0  0  0  0  0  0  0  0  0  0
    2.8621   -2.7315   -1.2098 N   0  3  0  0  0  0  0  0  0  0  0  0
    2.6010   -2.7760    0.2052 C   0  0  0  0  0  0  0  0  0  0  0  0
    1.5541   -1.8255    0.6706 C   0  0  0  0  0  0  0  0  0  0  0  0
    1.8105   -0.4412    0.4383 N   0  0  0  0  0  0  0  0  0  0  0  0
    1.4136    0.3030   -0.7359 C   0  0  0  0  0  0  0  0  0  0  0  0
    0.5306    1.4446   -0.2953 C   0  0  2  0  0  0  0  0  0  0  0  0
   -0.6446    0.8372    0.4316 C   0  0  0  0  0  0  0  0  0  0  0  0
   -0.6625    0.5067    1.6548 O   0  0  0  0  0  0  0  0  0  0  0  0
   -1.7350    0.6940   -0.4805 N   0  0  0  0  0  0  0  0  0  0  0  0
   -3.0641    0.2258   -0.2014 C   0  0  0  0  0  0  0  0  0  0  0  0
   -4.0264    1.1474    0.1778 C   0  0  0  0  0  0  0  0  0  0  0  0
   -5.2969    0.7941    0.4586 N   0  0  0  0  0  0  0  0  0  0  0  0
   -5.6381   -0.5031    0.3656 C   0  0  0  0  0  0  0  0  0  0  0  0
   -4.7192   -1.4543   -0.0064 C   0  0  0  0  0  0  0  0  0  0  0  0
   -5.1021   -2.7803   -0.0929 C   0  0  0  0  0  0  0  0  0  0  0  0
   -4.1507   -3.7250   -0.4733 C   0  0  0  0  0  0  0  0  0  0  0  0
   -2.8721   -3.3568   -0.7542 C   0  0  0  0  0  0  0  0  0  0  0  0
   -2.5259   -2.0316   -0.6581 C   0  0  0  0  0  0  0  0  0  0  0  0
   -3.4392   -1.0786   -0.2865 C   0  0  0  0  0  0  0  0  0  0  0  0
   -1.2474    1.1174   -1.7777 C   0  0  0  0  0  0  0  0  0  0  0  0
   -0.1485    2.1286   -1.4124 C   0  0  2  0  0  0  0  0  0  0  0  0
    0.6843    2.2974   -2.6593 C   0  0  0  0  0  0  0  0  0  0  0  0
    1.2435    2.2643    0.6754 C   0  0  0  0  0  0  0  0  0  0  0  0
    1.0116    3.6386    0.8242 C   0  0  0  0  0  0  0  0  0  0  0  0
    1.6938    4.3884    1.7662 C   0  0  0  0  0  0  0  0  0  0  0  0
    1.4497    5.7328    1.8941 F   0  0  0  0  0  0  0  0  0  0  0  0
    2.6329    3.8306    2.6052 C   0  0  0  0  0  0  0  0  0  0  0  0
    2.8694    2.4801    2.4678 C   0  0  0  0  0  0  0  0  0  0  0  0
    2.1917    1.7400    1.5330 C   0  0  0  0  0  0  0  0  0  0  0  0
    2.5243    0.3070    1.4446 C   0  0  0  0  0  0  0  0  0  0  0  0
    3.3750   -0.2342    2.1963 O   0  0  0  0  0  0  0  0  0  0  0  0
    4.2469   -1.8464   -2.4830 H   0  0  0  0  0  0  0  0  0  0  0  0
    4.8769   -2.3086   -0.9202 H   0  0  0  0  0  0  0  0  0  0  0  0
    3.8457   -0.9056   -1.0663 H   0  0  0  0  0  0  0  0  0  0  0  0
    3.0405   -3.6738   -1.5572 H   0  0  0  0  0  0  0  0  0  0  0  0
    2.0563   -2.3474   -1.7033 H   0  0  0  0  0  0  0  0  0  0  0  0
    3.5111   -2.5490    0.7201 H   0  0  0  0  0  0  0  0  0  0  0  0
    2.2346   -3.7590    0.4160 H   0  0  0  0  0  0  0  0  0  0  0  0
    1.4344   -1.9627    1.7250 H   0  0  0  0  0  0  0  0  0  0  0  0
    0.6825   -2.0555    0.0941 H   0  0  0  0  0  0  0  0  0  0  0  0
    0.8738   -0.3353   -1.4038 H   0  0  0  0  0  0  0  0  0  0  0  0
    2.2769    0.6788   -1.2442 H   0  0  0  0  0  0  0  0  0  0  0  0
   -3.7607    2.1421    0.2480 H   0  0  0  0  0  0  0  0  0  0  0  0
   -6.6068   -0.7892    0.5773 H   0  0  0  0  0  0  0  0  0  0  0  0
   -6.0713   -3.0641    0.1196 H   0  0  0  0  0  0  0  0  0  0  0  0
   -4.4205   -4.7187   -0.5428 H   0  0  0  0  0  0  0  0  0  0  0  0
   -2.1731   -4.0622   -1.0351 H   0  0  0  0  0  0  0  0  0  0  0  0
   -1.5570   -1.7465   -0.8702 H   0  0  0  0  0  0  0  0  0  0  0  0
   -2.0240    1.5813   -2.3492 H   0  0  0  0  0  0  0  0  0  0  0  0
   -0.8957    0.3087   -2.3837 H   0  0  0  0  0  0  0  0  0  0  0  0
   -0.4388    3.1140   -1.1129 H   0  0  0  0  0  0  0  0  0  0  0  0
    1.0049    1.3375   -3.0067 H   0  0  0  0  0  0  0  0  0  0  0  0
    1.5399    2.9006   -2.4378 H   0  0  0  0  0  0  0  0  0  0  0  0
    0.0987    2.7738   -3.4176 H   0  0  0  0  0  0  0  0  0  0  0  0
    0.3167    4.1016    0.2178 H   0  0  0  0  0  0  0  0  0  0  0  0
    3.1364    4.3982    3.3048 H   0  0  0  0  0  0  0  0  0  0  0  0
    3.5649    2.0200    3.0757 H   0  0  0  0  0  0  0  0  0  0  0  0
  1  2  1  0  0  0  0
  1 33  1  0  0  0  0
  1 34  1  0  0  0  0
  1 35  1  0  0  0  0
  2  3  1  0  0  0  0
  2 36  1  0  0  0  0
  2 37  1  0  0  0  0
  3  4  1  0  0  0  0
  3 38  1  0  0  0  0
  3 39  1  0  0  0  0
  4  5  1  0  0  0  0
  4 40  1  0  0  0  0
  4 41  1  0  0  0  0
  5  6  1  0  0  0  0
  6 42  1  0  0  0  0
  6 43  1  0  0  0  0
  7  6  1  0  0  0  0
  7  8  1  1  0  0  0
  7 24  1  0  0  0  0
  8  9  2  0  0  0  0
  8 10  1  0  0  0  0
 10 11  1  0  0  0  0
 10 21  1  0  0  0  0
 11 12  2  0  0  0  0
 12 13  1  0  0  0  0
 12 44  1  0  0  0  0
 13 14  2  0  0  0  0
 14 15  1  0  0  0  0
 14 45  1  0  0  0  0
 15 16  2  0  0  0  0
 16 17  1  0  0  0  0
 16 46  1  0  0  0  0
 17 18  2  0  0  0  0
 17 47  1  0  0  0  0
 18 19  1  0  0  0  0
 18 48  1  0  0  0  0
 19 20  2  0  0  0  0
 19 49  1  0  0  0  0
 20 11  1  0  0  0  0
 20 15  1  0  0  0  0
 21 22  1  0  0  0  0
 21 50  1  0  0  0  0
 21 51  1  0  0  0  0
 22 23  1  0  0  0  0
 22  7  1  0  0  0  0
 22 52  1  1  0  0  0
 23 53  1  0  0  0  0
 23 54  1  0  0  0  0
 23 55  1  0  0  0  0
 24 25  2  0  0  0  0
 25 26  1  0  0  0  0
 25 56  1  0  0  0  0
 26 27  1  0  0  0  0
 26 28  2  0  0  0  0
 28 29  1  0  0  0  0
 28 57  1  0  0  0  0
 29 30  2  0  0  0  0
 29 58  1  0  0  0  0
 30 31  1  0  0  0  0
 30 24  1  0  0  0  0
 31 32  2  0  0  0  0
 31  5  1  0  0  0  0
M  CHG  1   2   1
M  END
$$$$

 OpenBabel07292611443D

 64 68  0  0  0  0  0  0  0  0999 V2000
    2.0968   -5.4090   -1.0117 C   0  0  0  0  0  0  0  0  0  0  0  0
    2.6407   -4.1951   -1.5869 N   0  0  0  0  0  0  0  0  0  0  0  0
    2.4394   -2.9431   -0.9048 C   0  0  0  0  0  0  0  0  0  0  0  0
    1.7894   -3.0041    0.1633 O   0  0  0  0  0  0  0  0  0  0  0  0
    3.0042   -1.7469   -1.5167 C   0  0  0  0  0  0  0  0  0  0  0  0
    2.7733   -0.5117   -0.7984 N   0  0  0  0  0  0  0  0  0  0  0  0
    1.6503    0.3524   -1.0578 C   0  0  0  0  0  0  0  0  0  0  0  0
    0.9698    0.9126    0.1519 C   0  0  2  0  0  0  0  0  0  0  0  0
    0.0603   -0.1596    0.7053 C   0  0  0  0  0  0  0  0  0  0  0  0
    0.2350   -0.8787    1.7189 O   0  0  0  0  0  0  0  0  0  0  0  0
   -1.0453   -0.1779   -0.1765 N   0  0  0  0  0  0  0  0  0  0  0  0
   -1.8417   -1.3264   -0.5159 C   0  0  0  0  0  0  0  0  0  0  0  0
   -1.5082   -2.1396   -1.5984 C   0  0  0  0  0  0  0  0  0  0  0  0
   -2.2422   -3.2150   -1.9275 N   0  0  0  0  0  0  0  0  0  0  0  0
   -3.3402   -3.5707   -1.2340 C   0  0  0  0  0  0  0  0  0  0  0  0
   -3.7043   -2.7850   -0.1486 C   0  0  0  0  0  0  0  0  0  0  0  0
   -4.8433   -3.1403    0.5823 C   0  0  0  0  0  0  0  0  0  0  0  0
   -5.2275   -2.3804    1.6606 C   0  0  0  0  0  0  0  0  0  0  0  0
   -4.4823   -1.2727    2.0090 C   0  0  0  0  0  0  0  0  0  0  0  0
   -3.3537   -0.8997    1.3039 C   0  0  0  0  0  0  0  0  0  0  0  0
   -2.9715   -1.6633    0.2253 C   0  0  0  0  0  0  0  0  0  0  0  0
   -1.2768    1.1298   -0.7007 C   0  0  0  0  0  0  0  0  0  0  0  0
   -0.0523    1.9442   -0.2388 C   0  0  2  0  0  0  0  0  0  0  0  0
    0.3648    2.7734   -1.4233 C   0  0  0  0  0  0  0  0  0  0  0  0
   -0.8589    3.9830   -1.8162 S   0  0  0  0  0  0  0  0  0  0  0  0
   -0.4752    4.6984   -3.1133 O   0  0  0  0  0  0  0  0  0  0  0  0
   -2.1682    3.2709   -2.1377 O   0  0  0  0  0  0  0  0  0  0  0  0
   -1.1957    5.1212   -0.6231 N   0  0  0  0  0  0  0  0  0  0  0  0
   -1.7158    4.6925    0.6130 C   0  0  0  0  0  0  0  0  0  0  0  0
    1.9628    1.3267    1.1390 C   0  0  0  0  0  0  0  0  0  0  0  0
    1.6397    2.2534    2.1397 C   0  0  0  0  0  0  0  0  0  0  0  0
    2.5633    2.6462    3.0920 C   0  0  0  0  0  0  0  0  0  0  0  0
    2.0967    3.8236    4.3340 Cl  0  0  0  0  0  0  0  0  0  0  0  0
    3.8455    2.1505    3.1103 C   0  0  0  0  0  0  0  0  0  0  0  0
    4.1807    1.2388    2.1341 C   0  0  0  0  0  0  0  0  0  0  0  0
    3.2580    0.8481    1.1843 C   0  0  0  0  0  0  0  0  0  0  0  0
    3.7226   -0.1171    0.1887 C   0  0  0  0  0  0  0  0  0  0  0  0
    4.9106   -0.5742    0.2112 O   0  0  0  0  0  0  0  0  0  0  0  0
    2.3361   -6.2404   -1.6413 H   0  0  0  0  0  0  0  0  0  0  0  0
    1.0339   -5.3190   -0.9283 H   0  0  0  0  0  0  0  0  0  0  0  0
    2.5189   -5.5638   -0.0407 H   0  0  0  0  0  0  0  0  0  0  0  0
    3.1418   -4.2261   -2.4338 H   0  0  0  0  0  0  0  0  0  0  0  0
    2.5799   -1.6445   -2.4936 H   0  0  0  0  0  0  0  0  0  0  0  0
    4.0644   -1.8911   -1.5202 H   0  0  0  0  0  0  0  0  0  0  0  0
    0.9264   -0.2069   -1.6129 H   0  0  0  0  0  0  0  0  0  0  0  0
    2.0460    1.1945   -1.5862 H   0  0  0  0  0  0  0  0  0  0  0  0
   -0.6749   -1.9089   -2.1618 H   0  0  0  0  0  0  0  0  0  0  0  0
   -3.8931   -4.4003   -1.5005 H   0  0  0  0  0  0  0  0  0  0  0  0
   -5.3932   -3.9708    0.3122 H   0  0  0  0  0  0  0  0  0  0  0  0
   -6.0661   -2.6359    2.2051 H   0  0  0  0  0  0  0  0  0  0  0  0
   -4.7763   -0.7061    2.8199 H   0  0  0  0  0  0  0  0  0  0  0  0
   -2.8100   -0.0672    1.5803 H   0  0  0  0  0  0  0  0  0  0  0  0
   -2.1798    1.5437   -0.3031 H   0  0  0  0  0  0  0  0  0  0  0  0
   -1.3921    1.1306   -1.7645 H   0  0  0  0  0  0  0  0  0  0  0  0
   -0.2144    2.6060    0.5863 H   0  0  0  0  0  0  0  0  0  0  0  0
    0.5046    2.1310   -2.2675 H   0  0  0  0  0  0  0  0  0  0  0  0
    1.2759    3.2789   -1.1798 H   0  0  0  0  0  0  0  0  0  0  0  0
   -1.8707    5.7757   -1.0187 H   0  0  0  0  0  0  0  0  0  0  0  0
   -1.0362    4.0008    1.0653 H   0  0  0  0  0  0  0  0  0  0  0  0
   -2.6599    4.2140    0.4561 H   0  0  0  0  0  0  0  0  0  0  0  0
   -1.8466    5.5369    1.2571 H   0  0  0  0  0  0  0  0  0  0  0  0
    0.6886    2.6529    2.1669 H   0  0  0  0  0  0  0  0  0  0  0  0
    4.5276    2.4488    3.8250 H   0  0  0  0  0  0  0  0  0  0  0  0
    5.1334    0.8427    2.1122 H   0  0  0  0  0  0  0  0  0  0  0  0
  1  2  1  0  0  0  0
  1 39  1  0  0  0  0
  1 40  1  0  0  0  0
  1 41  1  0  0  0  0
  2  3  1  0  0  0  0
  2 42  1  0  0  0  0
  3  4  2  0  0  0  0
  3  5  1  0  0  0  0
  5  6  1  0  0  0  0
  5 43  1  0  0  0  0
  5 44  1  0  0  0  0
  6  7  1  0  0  0  0
  7 45  1  0  0  0  0
  7 46  1  0  0  0  0
  8  7  1  0  0  0  0
  8  9  1  1  0  0  0
  8 30  1  0  0  0  0
  9 10  2  0  0  0  0
  9 11  1  0  0  0  0
 11 12  1  0  0  0  0
 11 22  1  0  0  0  0
 12 13  2  0  0  0  0
 13 14  1  0  0  0  0
 13 47  1  0  0  0  0
 14 15  2  0  0  0  0
 15 16  1  0  0  0  0
 15 48  1  0  0  0  0
 16 17  2  0  0  0  0
 17 18  1  0  0  0  0
 17 49  1  0  0  0  0
 18 19  2  0  0  0  0
 18 50  1  0  0  0  0
 19 20  1  0  0  0  0
 19 51  1  0  0  0  0
 20 21  2  0  0  0  0
 20 52  1  0  0  0  0
 21 12  1  0  0  0  0
 21 16  1  0  0  0  0
 22 23  1  0  0  0  0
 22 53  1  0  0  0  0
 22 54  1  0  0  0  0
 23 24  1  0  0  0  0
 23  8  1  0  0  0  0
 23 55  1  1  0  0  0
 24 25  1  0  0  0  0
 24 56  1  0  0  0  0
 24 57  1  0  0  0  0
 25 26  2  0  0  0  0
 25 27  2  0  0  0  0
 25 28  1  0  0  0  0
 28 29  1  0  0  0  0
 28 58  1  0  0  0  0
 29 59  1  0  0  0  0
 29 60  1  0  0  0  0
 29 61  1  0  0  0  0
 30 31  2  0  0  0  0
 31 32  1  0  0  0  0
 31 62  1  0  0  0  0
 32 33  1  0  0  0  0
 32 34  2  0  0  0  0
 34 35  1  0  0  0  0
 34 63  1  0  0  0  0
 35 36  2  0  0  0  0
 35 64  1  0  0  0  0
 36 37  1  0  0  0  0
 36 30  1  0  0  0  0
 37 38  2  0  0  0  0
 37  6  1  0  0  0  0
M  END
$$$$

 OpenBabel07292611443D

 55 60  0  0  0  0  0  0  0  0999 V2000
   -0.6141    0.6695   -2.7117 C   0  0  0  0  0  0  0  0  0  0  0  0
    0.3176    0.0667   -1.7039 C   0  0  1  0  0  0  0  0  0  0  0  0
    1.0009    1.1069   -0.8412 C   0  0  0  0  0  0  0  0  0  0  0  0
    1.3819    0.3881    0.3848 N   0  0  0  0  0  0  0  0  0  0  0  0
    2.2018    0.9327    1.3943 C   0  0  0  0  0  0  0  0  0  0  0  0
    1.6834    1.6481    2.4781 C   0  0  0  0  0  0  0  0  0  0  0  0
    2.4748    2.1635    3.4358 N   0  0  0  0  0  0  0  0  0  0  0  0
    3.8197    1.9922    3.3619 C   0  0  0  0  0  0  0  0  0  0  0  0
    4.4048    1.2931    2.3148 C   0  0  0  0  0  0  0  0  0  0  0  0
    5.7847    1.1222    2.2468 C   0  0  0  0  0  0  0  0  0  0  0  0
    6.3245    0.4126    1.1758 C   0  0  0  0  0  0  0  0  0  0  0  0
    5.5167   -0.1247    0.1799 C   0  0  0  0  0  0  0  0  0  0  0  0
    4.1587    0.0681    0.2867 C   0  0  0  0  0  0  0  0  0  0  0  0
    3.5701    0.7641    1.3283 C   0  0  0  0  0  0  0  0  0  0  0  0
    0.7665   -0.8986    0.3110 C   0  0  0  0  0  0  0  0  0  0  0  0
    1.1554   -1.9056    0.9298 O   0  0  0  0  0  0  0  0  0  0  0  0
   -0.3883   -0.7425   -0.6354 C   0  0  1  0  0  0  0  0  0  0  0  0
   -1.4041    0.0593    0.1270 C   0  0  0  0  0  0  0  0  0  0  0  0
   -2.7006    0.1260   -0.5093 N   0  0  0  0  0  0  0  0  0  0  0  0
   -3.4290    1.3508   -0.7001 C   0  0  0  0  0  0  0  0  0  0  0  0
   -4.3246    1.6705    0.4367 C   0  0  0  0  0  0  0  0  0  0  0  0
   -3.9056    2.4288    1.5252 C   0  0  0  0  0  0  0  0  0  0  0  0
   -4.9860    2.5115    2.3560 N   0  0  0  0  0  0  0  0  0  0  0  0
   -5.9894    1.8485    1.8071 N   0  0  0  0  0  0  0  0  0  0  0  0
   -5.6097    1.3327    0.6463 N   0  0  0  0  0  0  0  0  0  0  0  0
   -3.2589   -1.1147   -0.9616 C   0  0  0  0  0  0  0  0  0  0  0  0
   -4.4978   -1.2495   -1.0937 O   0  0  0  0  0  0  0  0  0  0  0  0
   -2.3103   -2.2069   -1.2581 C   0  0  0  0  0  0  0  0  0  0  0  0
   -2.8015   -3.4373   -1.7022 C   0  0  0  0  0  0  0  0  0  0  0  0
   -1.9442   -4.4870   -1.9910 C   0  0  0  0  0  0  0  0  0  0  0  0
   -0.5718   -4.2982   -1.8314 C   0  0  0  0  0  0  0  0  0  0  0  0
    0.3015   -5.3213   -2.1103 F   0  0  0  0  0  0  0  0  0  0  0  0
   -0.0775   -3.0784   -1.3907 C   0  0  0  0  0  0  0  0  0  0  0  0
   -0.9360   -2.0130   -1.0968 C   0  0  0  0  0  0  0  0  0  0  0  0
   -0.0499    1.2240   -3.4322 H   0  0  0  0  0  0  0  0  0  0  0  0
   -1.3007    1.3237   -2.2162 H   0  0  0  0  0  0  0  0  0  0  0  0
   -1.1568   -0.1089   -3.2061 H   0  0  0  0  0  0  0  0  0  0  0  0
    0.9739   -0.5056   -2.3256 H   0  0  0  0  0  0  0  0  0  0  0  0
    0.3295    1.9086   -0.6147 H   0  0  0  0  0  0  0  0  0  0  0  0
    1.8452    1.5458   -1.3306 H   0  0  0  0  0  0  0  0  0  0  0  0
    0.6627    1.7848    2.5452 H   0  0  0  0  0  0  0  0  0  0  0  0
    4.4204    2.3905    4.1005 H   0  0  0  0  0  0  0  0  0  0  0  0
    6.3982    1.5148    2.9779 H   0  0  0  0  0  0  0  0  0  0  0  0
    7.3468    0.2830    1.1206 H   0  0  0  0  0  0  0  0  0  0  0  0
    5.9214   -0.6494   -0.6112 H   0  0  0  0  0  0  0  0  0  0  0  0
    3.5484   -0.3259   -0.4464 H   0  0  0  0  0  0  0  0  0  0  0  0
   -1.0318    1.0564    0.2367 H   0  0  0  0  0  0  0  0  0  0  0  0
   -1.5457   -0.4341    1.0658 H   0  0  0  0  0  0  0  0  0  0  0  0
   -4.0210    1.2617   -1.5869 H   0  0  0  0  0  0  0  0  0  0  0  0
   -2.7130    2.1421   -0.7781 H   0  0  0  0  0  0  0  0  0  0  0  0
   -2.9721    2.8428    1.6739 H   0  0  0  0  0  0  0  0  0  0  0  0
   -6.8861    1.7520    2.2020 H   0  0  0  0  0  0  0  0  0  0  0  0
   -3.8189   -3.5664   -1.8169 H   0  0  0  0  0  0  0  0  0  0  0  0
   -2.3149   -5.3927   -2.3185 H   0  0  0  0  0  0  0  0  0  0  0  0
    0.9408   -2.9549   -1.2778 H   0  0  0  0  0  0  0  0  0  0  0  0
  1 35  1  0  0  0  0
  1 36  1  0  0  0  0
  1 37  1  0  0  0  0
  2  1  1  0  0  0  0
  2  3  1  0  0  0  0
  2 38  1  6  0  0  0
  3  4  1  0  0  0  0
  3 39  1  0  0  0  0
  3 40  1  0  0  0  0
  4  5  1  0  0  0  0
  4 15  1  0  0  0  0
  5  6  2  0  0  0  0
  6  7  1  0  0  0  0
  6 41  1  0  0  0  0
  7  8  2  0  0  0  0
  8  9  1  0  0  0  0
  8 42  1  0  0  0  0
  9 10  2  0  0  0  0
 10 11  1  0  0  0  0
 10 43  1  0  0  0  0
 11 12  2  0  0  0  0
 11 44  1  0  0  0  0
 12 13  1  0  0  0  0
 12 45  1  0  0  0  0
 13 14  2  0  0  0  0
 13 46  1  0  0  0  0
 14  5  1  0  0  0  0
 14  9  1  0  0  0  0
 15 16  2  0  0  0  0
 17 15  1  1  0  0  0
 17 18  1  0  0  0  0
 17  2  1  0  0  0  0
 18 19  1  0  0  0  0
 18 47  1  0  0  0  0
 18 48  1  0  0  0  0
 19 20  1  0  0  0  0
 19 26  1  0  0  0  0
 20 21  1  0  0  0  0
 20 49  1  0  0  0  0
 20 50  1  0  0  0  0
 21 22  1  0  0  0  0
 22 23  2  0  0  0  0
 22 51  1  0  0  0  0
 23 24  1  0  0  0  0
 24 25  1  0  0  0  0
 24 52  1  0  0  0  0
 25 21  2  0  0  0  0
 26 27  2  0  0  0  0
 26 28  1  0  0  0  0
 28 29  2  0  0  0  0
 29 30  1  0  0  0  0
 29 53  1  0  0  0  0
 30 31  2  0  0  0  0
 30 54  1  0  0  0  0
 31 32  1  0  0  0  0
 31 33  1  0  0  0  0
 33 34  2  0  0  0  0
 33 55  1  0  0  0  0
 34 28  1  0  0  0  0
 34 17  1  0  0  0  0
M  END
$$$$

 OpenBabel07292611443D

 58 63  0  0  0  0  0  0  0  0999 V2000
   -0.2292    2.4436    1.7933 C   0  0  0  0  0  0  0  0  0  0  0  0
    0.5494    2.1006    0.5418 C   0  0  1  0  0  0  0  0  0  0  0  0
    1.8388    1.4531    1.0034 C   0  0  0  0  0  0  0  0  0  0  0  0
    1.8474    0.1255    0.4008 N   0  0  0  0  0  0  0  0  0  0  0  0
    2.5820   -1.0146    0.7916 C   0  0  0  0  0  0  0  0  0  0  0  0
    2.0544   -1.9250    1.7097 C   0  0  0  0  0  0  0  0  0  0  0  0
    2.7673   -3.0232    2.0832 N   0  0  0  0  0  0  0  0  0  0  0  0
    3.9968   -3.2363    1.5620 C   0  0  0  0  0  0  0  0  0  0  0  0
    4.5666   -2.3691    0.6508 C   0  0  0  0  0  0  0  0  0  0  0  0
    5.8377   -2.6279    0.1387 C   0  0  0  0  0  0  0  0  0  0  0  0
    6.3833   -1.7300   -0.7806 C   0  0  0  0  0  0  0  0  0  0  0  0
    5.6814   -0.6100   -1.1751 C   0  0  0  0  0  0  0  0  0  0  0  0
    4.4257   -0.3968   -0.6397 C   0  0  0  0  0  0  0  0  0  0  0  0
    3.8460   -1.2571    0.2720 C   0  0  0  0  0  0  0  0  0  0  0  0
    0.9500    0.1814   -0.6945 C   0  0  0  0  0  0  0  0  0  0  0  0
    1.0400   -0.4646   -1.7934 O   0  0  0  0  0  0  0  0  0  0  0  0
   -0.1603    1.1464   -0.3582 C   0  0  1  0  0  0  0  0  0  0  0  0
   -1.1808    0.3409    0.3806 C   0  0  0  0  0  0  0  0  0  0  0  0
   -2.5497    0.7801    0.1858 N   0  0  0  0  0  0  0  0  0  0  0  0
   -3.5322    0.6571    1.2742 C   0  0  0  0  0  0  0  0  0  0  0  0
   -4.2218   -0.6699    1.1958 C   0  0  0  0  0  0  0  0  0  0  0  0
   -3.6743   -1.7611    1.8813 C   0  0  0  0  0  0  0  0  0  0  0  0
   -4.2974   -2.9938    1.8201 C   0  0  0  0  0  0  0  0  0  0  0  0
   -3.8008   -3.9747    2.4394 O   0  0  0  0  0  0  0  0  0  0  0  0
   -5.4371   -3.1105    1.0871 N   0  0  0  0  0  0  0  0  0  0  0  0
   -5.9662   -2.0594    0.4256 C   0  0  0  0  0  0  0  0  0  0  0  0
   -5.3519   -0.8547    0.4890 N   0  0  0  0  0  0  0  0  0  0  0  0
   -3.0121    1.3420   -1.0396 C   0  0  0  0  0  0  0  0  0  0  0  0
   -4.2424    1.4057   -1.2899 O   0  0  0  0  0  0  0  0  0  0  0  0
   -1.9847    1.8267   -1.9612 C   0  0  0  0  0  0  0  0  0  0  0  0
   -2.4096    2.3750   -3.1541 C   0  0  0  0  0  0  0  0  0  0  0  0
   -1.4483    2.8417   -4.0443 C   0  0  0  0  0  0  0  0  0  0  0  0
   -0.0991    2.7475   -3.7182 C   0  0  0  0  0  0  0  0  0  0  0  0
    0.8614    3.2048   -4.5886 F   0  0  0  0  0  0  0  0  0  0  0  0
    0.2975    2.1943   -2.5178 C   0  0  0  0  0  0  0  0  0  0  0  0
   -0.6517    1.7203   -1.6111 C   0  0  0  0  0  0  0  0  0  0  0  0
    0.3369    3.1289    2.3890 H   0  0  0  0  0  0  0  0  0  0  0  0
   -0.4137    1.5514    2.3544 H   0  0  0  0  0  0  0  0  0  0  0  0
   -1.1614    2.8931    1.5215 H   0  0  0  0  0  0  0  0  0  0  0  0
    0.6980    2.9978   -0.0220 H   0  0  0  0  0  0  0  0  0  0  0  0
    1.8586    1.3792    2.0707 H   0  0  0  0  0  0  0  0  0  0  0  0
    2.6954    2.0253    0.7139 H   0  0  0  0  0  0  0  0  0  0  0  0
    1.1163   -1.7640    2.1084 H   0  0  0  0  0  0  0  0  0  0  0  0
    4.5256   -4.0729    1.8543 H   0  0  0  0  0  0  0  0  0  0  0  0
    6.3639   -3.4655    0.4331 H   0  0  0  0  0  0  0  0  0  0  0  0
    7.3228   -1.9063   -1.1696 H   0  0  0  0  0  0  0  0  0  0  0  0
    6.0850    0.0536   -1.8547 H   0  0  0  0  0  0  0  0  0  0  0  0
    3.8988    0.4405   -0.9334 H   0  0  0  0  0  0  0  0  0  0  0  0
   -0.9576    0.3961    1.4256 H   0  0  0  0  0  0  0  0  0  0  0  0
   -1.1223   -0.6545   -0.0076 H   0  0  0  0  0  0  0  0  0  0  0  0
   -4.2575    1.4388    1.1865 H   0  0  0  0  0  0  0  0  0  0  0  0
   -3.0262    0.7344    2.2138 H   0  0  0  0  0  0  0  0  0  0  0  0
   -2.8083   -1.6456    2.4306 H   0  0  0  0  0  0  0  0  0  0  0  0
   -5.8880   -3.9843    1.0377 H   0  0  0  0  0  0  0  0  0  0  0  0
   -6.8322   -2.1733   -0.1241 H   0  0  0  0  0  0  0  0  0  0  0  0
   -3.4147    2.4372   -3.3799 H   0  0  0  0  0  0  0  0  0  0  0  0
   -1.7351    3.2569   -4.9445 H   0  0  0  0  0  0  0  0  0  0  0  0
    1.3019    2.1307   -2.2892 H   0  0  0  0  0  0  0  0  0  0  0  0
  1 37  1  0  0  0  0
  1 38  1  0  0  0  0
  1 39  1  0  0  0  0
  2  1  1  0  0  0  0
  2  3  1  0  0  0  0
  2 40  1  6  0  0  0
  3  4  1  0  0  0  0
  3 41  1  0  0  0  0
  3 42  1  0  0  0  0
  4  5  1  0  0  0  0
  4 15  1  0  0  0  0
  5  6  2  0  0  0  0
  6  7  1  0  0  0  0
  6 43  1  0  0  0  0
  7  8  2  0  0  0  0
  8  9  1  0  0  0  0
  8 44  1  0  0  0  0
  9 10  2  0  0  0  0
 10 11  1  0  0  0  0
 10 45  1  0  0  0  0
 11 12  2  0  0  0  0
 11 46  1  0  0  0  0
 12 13  1  0  0  0  0
 12 47  1  0  0  0  0
 13 14  2  0  0  0  0
 13 48  1  0  0  0  0
 14  5  1  0  0  0  0
 14  9  1  0  0  0  0
 15 16  2  0  0  0  0
 17 15  1  6  0  0  0
 17 18  1  0  0  0  0
 17  2  1  0  0  0  0
 18 19  1  0  0  0  0
 18 49  1  0  0  0  0
 18 50  1  0  0  0  0
 19 20  1  0  0  0  0
 19 28  1  0  0  0  0
 20 21  1  0  0  0  0
 20 51  1  0  0  0  0
 20 52  1  0  0  0  0
 21 22  2  0  0  0  0
 22 23  1  0  0  0  0
 22 53  1  0  0  0  0
 23 24  2  0  0  0  0
 23 25  1  0  0  0  0
 25 26  1  0  0  0  0
 25 54  1  0  0  0  0
 26 27  2  0  0  0  0
 26 55  1  0  0  0  0
 27 21  1  0  0  0  0
 28 29  2  0  0  0  0
 28 30  1  0  0  0  0
 30 31  2  0  0  0  0
 31 32  1  0  0  0  0
 31 56  1  0  0  0  0
 32 33  2  0  0  0  0
 32 57  1  0  0  0  0
 33 34  1  0  0  0  0
 33 35  1  0  0  0  0
 35 36  2  0  0  0  0
 35 58  1  0  0  0  0
 36 30  1  0  0  0  0
 36 17  1  0  0  0  0
M  END
$$$$

 OpenBabel07292611443D

 66 71  0  0  0  0  0  0  0  0999 V2000
    5.6773    3.1764    1.1996 C   0  0  0  0  0  0  0  0  0  0  0  0
    4.8842    3.1510   -0.0242 N   0  0  0  0  0  0  0  0  0  0  0  0
    4.0730    1.9986   -0.2251 C   0  0  0  0  0  0  0  0  0  0  0  0
    4.1167    1.1162    0.6671 O   0  0  0  0  0  0  0  0  0  0  0  0
    3.2599    1.9349   -1.4446 C   0  0  0  0  0  0  0  0  0  0  0  0
    2.4575    0.7353   -1.5709 N   0  0  0  0  0  0  0  0  0  0  0  0
    1.1120    0.7298   -1.0720 C   0  0  0  0  0  0  0  0  0  0  0  0
    0.5152   -0.5727   -0.6898 C   0  0  2  0  0  0  0  0  0  0  0  0
   -0.9151   -0.5470   -1.1786 C   0  0  0  0  0  0  0  0  0  0  0  0
   -1.2098   -0.3483   -2.3943 O   0  0  0  0  0  0  0  0  0  0  0  0
   -1.8297   -0.7655   -0.1364 N   0  0  0  0  0  0  0  0  0  0  0  0
   -3.2279   -0.5161   -0.2462 C   0  0  0  0  0  0  0  0  0  0  0  0
   -3.7947    0.7162    0.0548 C   0  0  0  0  0  0  0  0  0  0  0  0
   -5.1240    0.9422   -0.0511 N   0  0  0  0  0  0  0  0  0  0  0  0
   -6.0011    0.0058   -0.4518 C   0  0  0  0  0  0  0  0  0  0  0  0
   -5.4896   -1.2364   -0.7632 C   0  0  0  0  0  0  0  0  0  0  0  0
   -6.3840   -2.2068   -1.1761 C   0  0  0  0  0  0  0  0  0  0  0  0
   -5.9027   -3.4642   -1.4955 C   0  0  0  0  0  0  0  0  0  0  0  0
   -4.5548   -3.7605   -1.4085 C   0  0  0  0  0  0  0  0  0  0  0  0
   -3.7124   -2.7541   -0.9915 C   0  0  0  0  0  0  0  0  0  0  0  0
   -4.1296   -1.4909   -0.6619 C   0  0  0  0  0  0  0  0  0  0  0  0
   -1.0940   -1.2681    0.9994 C   0  0  0  0  0  0  0  0  0  0  0  0
    0.3614   -0.8426    0.7619 C   0  0  2  0  0  0  0  0  0  0  0  0
    0.6419    0.2419    1.7264 C   0  0  0  0  0  0  0  0  0  0  0  0
   -0.1533    1.4211    1.6497 N   0  0  0  0  0  0  0  0  0  0  0  0
    0.1570    2.4786    2.5875 C   0  0  0  0  0  0  0  0  0  0  0  0
   -0.4572    2.5286    3.8216 C   0  0  0  0  0  0  0  0  0  0  0  0
   -0.1379    3.5512    4.6924 C   0  0  0  0  0  0  0  0  0  0  0  0
    0.7675    4.5043    4.3538 N   0  0  0  0  0  0  0  0  0  0  0  0
    1.3464    4.4229    3.1411 C   0  0  0  0  0  0  0  0  0  0  0  0
    1.0528    3.4337    2.2701 N   0  0  0  0  0  0  0  0  0  0  0  0
    1.1889   -1.7145   -1.3879 C   0  0  0  0  0  0  0  0  0  0  0  0
    0.5934   -2.9840   -1.3331 C   0  0  0  0  0  0  0  0  0  0  0  0
    1.1693   -4.0776   -1.9559 C   0  0  0  0  0  0  0  0  0  0  0  0
    0.3909   -5.6631   -1.8662 Cl  0  0  0  0  0  0  0  0  0  0  0  0
    2.3516   -3.9624   -2.6548 C   0  0  0  0  0  0  0  0  0  0  0  0
    2.9389   -2.7356   -2.7150 C   0  0  0  0  0  0  0  0  0  0  0  0
    2.3565   -1.6459   -2.0893 C   0  0  0  0  0  0  0  0  0  0  0  0
    3.0586   -0.3772   -2.2116 C   0  0  0  0  0  0  0  0  0  0  0  0
    4.1300   -0.2887   -2.8486 O   0  0  0  0  0  0  0  0  0  0  0  0
    6.2417    4.0846    1.2401 H   0  0  0  0  0  0  0  0  0  0  0  0
    6.3453    2.3406    1.2091 H   0  0  0  0  0  0  0  0  0  0  0  0
    5.0267    3.1227    2.0474 H   0  0  0  0  0  0  0  0  0  0  0  0
    4.9085    3.8895   -0.6748 H   0  0  0  0  0  0  0  0  0  0  0  0
    3.9171    1.9874   -2.2873 H   0  0  0  0  0  0  0  0  0  0  0  0
    2.5745    2.7552   -1.3960 H   0  0  0  0  0  0  0  0  0  0  0  0
    0.4895    1.1540   -1.8319 H   0  0  0  0  0  0  0  0  0  0  0  0
    1.1655    1.2780   -0.1547 H   0  0  0  0  0  0  0  0  0  0  0  0
   -3.1814    1.4842    0.3695 H   0  0  0  0  0  0  0  0  0  0  0  0
   -7.0107    0.2072   -0.5231 H   0  0  0  0  0  0  0  0  0  0  0  0
   -7.3921   -1.9971   -1.2448 H   0  0  0  0  0  0  0  0  0  0  0  0
   -6.5625   -4.1950   -1.8046 H   0  0  0  0  0  0  0  0  0  0  0  0
   -4.1947   -4.6979   -1.6465 H   0  0  0  0  0  0  0  0  0  0  0  0
   -2.7043   -2.9641   -0.9229 H   0  0  0  0  0  0  0  0  0  0  0  0
   -1.1687   -2.3342    1.0520 H   0  0  0  0  0  0  0  0  0  0  0  0
   -1.4755   -0.8844    1.9225 H   0  0  0  0  0  0  0  0  0  0  0  0
    1.1147   -1.5767    0.9582 H   0  0  0  0  0  0  0  0  0  0  0  0
    1.6617    0.5352    1.5891 H   0  0  0  0  0  0  0  0  0  0  0  0
    0.4073   -0.1796    2.6815 H   0  0  0  0  0  0  0  0  0  0  0  0
   -0.8789    1.5123    0.9906 H   0  0  0  0  0  0  0  0  0  0  0  0
   -1.1473    1.8100    4.0908 H   0  0  0  0  0  0  0  0  0  0  0  0
   -0.5954    3.5917    5.6166 H   0  0  0  0  0  0  0  0  0  0  0  0
    2.0369    5.1397    2.8683 H   0  0  0  0  0  0  0  0  0  0  0  0
   -0.2925   -3.1047   -0.8176 H   0  0  0  0  0  0  0  0  0  0  0  0
    2.7782   -4.7801   -3.1178 H   0  0  0  0  0  0  0  0  0  0  0  0
    3.8248   -2.6168   -3.2308 H   0  0  0  0  0  0  0  0  0  0  0  0
  1  2  1  0  0  0  0
  1 41  1  0  0  0  0
  1 42  1  0  0  0  0
  1 43  1  0  0  0  0
  2  3  1  0  0  0  0
  2 44  1  0  0  0  0
  3  4  2  0  0  0  0
  3  5  1  0  0  0  0
  5  6  1  0  0  0  0
  5 45  1  0  0  0  0
  5 46  1  0  0  0  0
  6  7  1  0  0  0  0
  7 47  1  0  0  0  0
  7 48  1  0  0  0  0
  8  7  1  0  0  0  0
  8  9  1  6  0  0  0
  8 32  1  0  0  0  0
  9 10  2  0  0  0  0
  9 11  1  0  0  0  0
 11 12  1  0  0  0  0
 11 22  1  0  0  0  0
 12 13  2  0  0  0  0
 13 14  1  0  0  0  0
 13 49  1  0  0  0  0
 14 15  2  0  0  0  0
 15 16  1  0  0  0  0
 15 50  1  0  0  0  0
 16 17  2  0  0  0  0
 17 18  1  0  0  0  0
 17 51  1  0  0  0  0
 18 19  2  0  0  0  0
 18 52  1  0  0  0  0
 19 20  1  0  0  0  0
 19 53  1  0  0  0  0
 20 21  2  0  0  0  0
 20 54  1  0  0  0  0
 21 12  1  0  0  0  0
 21 16  1  0  0  0  0
 22 23  1  0  0  0  0
 22 55  1  0  0  0  0
 22 56  1  0  0  0  0
 23 24  1  0  0  0  0
 23  8  1  0  0  0  0
 23 57  1  1  0  0  0
 24 25  1  0  0  0  0
 24 58  1  0  0  0  0
 24 59  1  0  0  0  0
 25 26  1  0  0  0  0
 25 60  1  0  0  0  0
 26 27  2  0  0  0  0
 27 28  1  0  0  0  0
 27 61  1  0  0  0  0
 28 29  2  0  0  0  0
 28 62  1  0  0  0  0
 29 30  1  0  0  0  0
 30 31  2  0  0  0  0
 30 63  1  0  0  0  0
 31 26  1  0  0  0  0
 32 33  2  0  0  0  0
 33 34  1  0  0  0  0
 33 64  1  0  0  0  0
 34 35  1  0  0  0  0
 34 36  2  0  0  0  0
 36 37  1  0  0  0  0
 36 65  1  0  0  0  0
 37 38  2  0  0  0  0
 37 66  1  0  0  0  0
 38 39  1  0  0  0  0
 38 32  1  0  0  0  0
 39 40  2  0  0  0  0
 39  6  1  0  0  0  0
M  END
$$$$

 OpenBabel07292611443D

 57 62  0  0  0  0  0  0  0  0999 V2000
   -0.0238    1.1014   -1.7723 C   0  0  0  0  0  0  0  0  0  0  0  0
   -0.1712   -0.3625   -1.4690 C   0  0  1  0  0  0  0  0  0  0  0  0
    1.2167   -0.9405   -1.4591 C   0  0  0  0  0  0  0  0  0  0  0  0
    1.7020   -0.6282   -0.1386 N   0  0  0  0  0  0  0  0  0  0  0  0
    3.1031   -0.6854    0.1889 C   0  0  0  0  0  0  0  0  0  0  0  0
    3.7113   -1.8675    0.5840 C   0  0  0  0  0  0  0  0  0  0  0  0
    5.0393   -1.9128    0.8977 N   0  0  0  0  0  0  0  0  0  0  0  0
    5.8296   -0.8360    0.8455 C   0  0  0  0  0  0  0  0  0  0  0  0
    5.2795    0.3520    0.4626 C   0  0  0  0  0  0  0  0  0  0  0  0
    6.0949    1.4604    0.4122 C   0  0  0  0  0  0  0  0  0  0  0  0
    5.5917    2.6880    0.0349 C   0  0  0  0  0  0  0  0  0  0  0  0
    4.2609    2.7596   -0.2845 C   0  0  0  0  0  0  0  0  0  0  0  0
    3.4510    1.6506   -0.2329 C   0  0  0  0  0  0  0  0  0  0  0  0
    3.9209    0.4228    0.1365 C   0  0  0  0  0  0  0  0  0  0  0  0
    0.6105   -0.2995    0.7078 C   0  0  0  0  0  0  0  0  0  0  0  0
    0.7282    0.1350    1.8924 O   0  0  0  0  0  0  0  0  0  0  0  0
   -0.6320   -0.5628   -0.0592 C   0  0  1  0  0  0  0  0  0  0  0  0
   -1.7601    0.3438    0.3610 C   0  0  0  0  0  0  0  0  0  0  0  0
   -2.9524   -0.0199   -0.3386 N   0  0  0  0  0  0  0  0  0  0  0  0
   -3.7334    0.8784   -1.1710 C   0  0  0  0  0  0  0  0  0  0  0  0
   -4.7744    1.5807   -0.3422 C   0  0  0  0  0  0  0  0  0  0  0  0
   -6.0334    1.1579   -0.1023 N   0  0  0  0  0  0  0  0  0  0  0  0
   -6.6179    2.0752    0.6764 N   0  0  0  0  0  0  0  0  0  0  0  0
   -5.7774    3.0400    0.9253 N   0  0  0  0  0  0  0  0  0  0  0  0
   -4.6323    2.7611    0.3095 N   0  0  0  0  0  0  0  0  0  0  0  0
   -3.4483    3.5971    0.3467 C   0  0  0  0  0  0  0  0  0  0  0  0
   -3.4137   -1.3750   -0.1871 C   0  0  0  0  0  0  0  0  0  0  0  0
   -4.6420   -1.6712   -0.2941 O   0  0  0  0  0  0  0  0  0  0  0  0
   -2.3922   -2.3693    0.0926 C   0  0  0  0  0  0  0  0  0  0  0  0
   -2.8000   -3.6637    0.2902 C   0  0  0  0  0  0  0  0  0  0  0  0
   -1.8835   -4.6407    0.6039 C   0  0  0  0  0  0  0  0  0  0  0  0
   -0.5573   -4.2828    0.7126 C   0  0  0  0  0  0  0  0  0  0  0  0
    0.3347   -5.2636    1.0246 F   0  0  0  0  0  0  0  0  0  0  0  0
   -0.1699   -2.9790    0.5097 C   0  0  0  0  0  0  0  0  0  0  0  0
   -1.0658   -1.9654    0.1904 C   0  0  0  0  0  0  0  0  0  0  0  0
    0.3058    1.2249   -2.7828 H   0  0  0  0  0  0  0  0  0  0  0  0
    0.6951    1.5328   -1.1074 H   0  0  0  0  0  0  0  0  0  0  0  0
   -0.9673    1.5892   -1.6427 H   0  0  0  0  0  0  0  0  0  0  0  0
   -0.8473   -0.7949   -2.1767 H   0  0  0  0  0  0  0  0  0  0  0  0
    1.8271   -0.4824   -2.2091 H   0  0  0  0  0  0  0  0  0  0  0  0
    1.2329   -1.9890   -1.6718 H   0  0  0  0  0  0  0  0  0  0  0  0
    3.1485   -2.7306    0.6421 H   0  0  0  0  0  0  0  0  0  0  0  0
    6.8304   -0.9018    1.0887 H   0  0  0  0  0  0  0  0  0  0  0  0
    7.0930    1.3717    0.6593 H   0  0  0  0  0  0  0  0  0  0  0  0
    6.1963    3.5234   -0.0055 H   0  0  0  0  0  0  0  0  0  0  0  0
    3.8583    3.6659   -0.5699 H   0  0  0  0  0  0  0  0  0  0  0  0
    2.4543    1.7490   -0.4817 H   0  0  0  0  0  0  0  0  0  0  0  0
   -1.5071    1.3576    0.1306 H   0  0  0  0  0  0  0  0  0  0  0  0
   -1.9217    0.2459    1.4142 H   0  0  0  0  0  0  0  0  0  0  0  0
   -4.2163    0.3155   -1.9423 H   0  0  0  0  0  0  0  0  0  0  0  0
   -3.0818    1.6078   -1.6048 H   0  0  0  0  0  0  0  0  0  0  0  0
   -3.6426    4.4644    0.9425 H   0  0  0  0  0  0  0  0  0  0  0  0
   -3.1925    3.8976   -0.6479 H   0  0  0  0  0  0  0  0  0  0  0  0
   -2.6360    3.0463    0.7729 H   0  0  0  0  0  0  0  0  0  0  0  0
   -3.7993   -3.9061    0.2032 H   0  0  0  0  0  0  0  0  0  0  0  0
   -2.1818   -5.6172    0.7540 H   0  0  0  0  0  0  0  0  0  0  0  0
    0.8307   -2.7426    0.5985 H   0  0  0  0  0  0  0  0  0  0  0  0
  1 36  1  0  0  0  0
  1 37  1  0  0  0  0
  1 38  1  0  0  0  0
  2  1  1  0  0  0  0
  2  3  1  0  0  0  0
  2 39  1  6  0  0  0
  3  4  1  0  0  0  0
  3 40  1  0  0  0  0
  3 41  1  0  0  0  0
  4  5  1  0  0  0  0
  4 15  1  0  0  0  0
  5  6  2  0  0  0  0
  6  7  1  0  0  0  0
  6 42  1  0  0  0  0
  7  8  2  0  0  0  0
  8  9  1  0  0  0  0
  8 43  1  0  0  0  0
  9 10  2  0  0  0  0
 10 11  1  0  0  0  0
 10 44  1  0  0  0  0
 11 12  2  0  0  0  0
 11 45  1  0  0  0  0
 12 13  1  0  0  0  0
 12 46  1  0  0  0  0
 13 14  2  0  0  0  0
 13 47  1  0  0  0  0
 14  5  1  0  0  0  0
 14  9  1  0  0  0  0
 15 16  2  0  0  0  0
 17 15  1  1  0  0  0
 17 18  1  0  0  0  0
 17  2  1  0  0  0  0
 18 19  1  0  0  0  0
 18 48  1  0  0  0  0
 18 49  1  0  0  0  0
 19 20  1  0  0  0  0
 19 27  1  0  0  0  0
 20 21  1  0  0  0  0
 20 50  1  0  0  0  0
 20 51  1  0  0  0  0
 21 22  2  0  0  0  0
 22 23  1  0  0  0  0
 23 24  2  0  0  0  0
 24 25  1  0  0  0  0
 25 26  1  0  0  0  0
 25 21  1  0  0  0  0
 26 52  1  0  0  0  0
 26 53  1  0  0  0  0
 26 54  1  0  0  0  0
 27 28  2  0  0  0  0
 27 29  1  0  0  0  0
 29 30  2  0  0  0  0
 30 31  1  0  0  0  0
 30 55  1  0  0  0  0
 31 32  2  0  0  0  0
 31 56  1  0  0  0  0
 32 33  1  0  0  0  0
 32 34  1  0  0  0  0
 34 35  2  0  0  0  0
 34 57  1  0  0  0  0
 35 29  1  0  0  0  0
 35 17  1  0  0  0  0
M  END
$$$$

 OpenBabel07292611443D

 46 47  0  0  0  0  0  0  0  0999 V2000
    1.5894   -0.4269   -2.9268 C   0  0  0  0  0  0  0  0  0  0  0  0
    1.4860   -0.0549   -1.4606 C   0  0  2  0  0  0  0  0  0  0  0  0
    2.8042   -0.2784   -0.8742 N   0  0  0  0  0  0  0  0  0  0  0  0
    3.4952    0.8038   -0.2407 C   0  0  0  0  0  0  0  0  0  0  0  0
    2.9260    1.9346   -0.2125 O   0  0  0  0  0  0  0  0  0  0  0  0
    4.8393    0.6026    0.3643 C   0  0  0  0  0  0  0  0  0  0  0  0
    5.2709    1.8010    0.9022 O   0  0  0  0  0  0  0  0  0  0  0  0
    6.8034    1.5400    1.5881 S   0  0  0  0  0  0  0  0  0  0  0  0
    7.9982    1.6246    0.4064 N   0  0  0  0  0  0  0  0  0  0  0  0
    7.0266    2.5739    2.6471 O   0  0  0  0  0  0  0  0  0  0  0  0
    6.7912    0.1768    2.2058 O   0  0  0  0  0  0  0  0  0  0  0  0
    0.5442   -0.9779   -0.8078 C   0  0  0  0  0  0  0  0  0  0  0  0
    0.8454   -2.3014   -0.5943 C   0  0  0  0  0  0  0  0  0  0  0  0
   -0.0978   -3.1128    0.0307 C   0  0  0  0  0  0  0  0  0  0  0  0
    0.2852   -4.8174    0.3077 Cl  0  0  0  0  0  0  0  0  0  0  0  0
   -1.3286   -2.6187    0.4410 C   0  0  0  0  0  0  0  0  0  0  0  0
   -1.6238   -1.2963    0.2251 C   0  0  0  0  0  0  0  0  0  0  0  0
   -2.8837   -0.6720    0.6148 C   0  0  0  0  0  0  0  0  0  0  0  0
   -2.9038    0.6461    0.9671 C   0  0  0  0  0  0  0  0  0  0  0  0
   -4.0983    1.2292    1.3344 C   0  0  0  0  0  0  0  0  0  0  0  0
   -5.2249    0.4583    1.3314 C   0  0  0  0  0  0  0  0  0  0  0  0
   -6.7489    1.1876    1.7962 S   0  0  0  0  0  0  0  0  0  0  0  0
   -7.5513    1.8456    0.4134 N   0  0  0  0  0  0  0  0  0  0  0  0
   -7.6465    0.1417    2.3950 O   0  0  0  0  0  0  0  0  0  0  0  0
   -6.5007    2.2503    2.8294 O   0  0  0  0  0  0  0  0  0  0  0  0
   -5.2028   -0.8854    0.9720 C   0  0  0  0  0  0  0  0  0  0  0  0
   -4.0147   -1.4738    0.6044 C   0  0  0  0  0  0  0  0  0  0  0  0
   -0.6885   -0.4868   -0.3958 C   0  0  0  0  0  0  0  0  0  0  0  0
    2.2718    0.2365   -3.4158 H   0  0  0  0  0  0  0  0  0  0  0  0
    0.6252   -0.3472   -3.3838 H   0  0  0  0  0  0  0  0  0  0  0  0
    1.9441   -1.4325   -3.0155 H   0  0  0  0  0  0  0  0  0  0  0  0
    1.1594    0.9570   -1.3405 H   0  0  0  0  0  0  0  0  0  0  0  0
    3.2170   -1.1713   -0.9143 H   0  0  0  0  0  0  0  0  0  0  0  0
    5.5272    0.2779   -0.3882 H   0  0  0  0  0  0  0  0  0  0  0  0
    4.7844   -0.1410    1.1317 H   0  0  0  0  0  0  0  0  0  0  0  0
    7.9999    2.5560   -0.0093 H   0  0  0  0  0  0  0  0  0  0  0  0
    7.8111    0.9299   -0.3166 H   0  0  0  0  0  0  0  0  0  0  0  0
    1.7550   -2.6874   -0.8921 H   0  0  0  0  0  0  0  0  0  0  0  0
   -2.0128   -3.2382    0.9026 H   0  0  0  0  0  0  0  0  0  0  0  0
   -2.0338    1.2011    0.9588 H   0  0  0  0  0  0  0  0  0  0  0  0
   -4.1395    2.2242    1.6050 H   0  0  0  0  0  0  0  0  0  0  0  0
   -7.7084    1.1068   -0.2721 H   0  0  0  0  0  0  0  0  0  0  0  0
   -6.9718    2.5758   -0.0005 H   0  0  0  0  0  0  0  0  0  0  0  0
   -6.0740   -1.4386    0.9811 H   0  0  0  0  0  0  0  0  0  0  0  0
   -3.9675   -2.4683    0.3329 H   0  0  0  0  0  0  0  0  0  0  0  0
   -0.9126    0.5076   -0.5570 H   0  0  0  0  0  0  0  0  0  0  0  0
  1 29  1  0  0  0  0
  1 30  1  0  0  0  0
  1 31  1  0  0  0  0
  2  1  1  0  0  0  0
  2  3  1  0  0  0  0
  2 12  1  0  0  0  0
  2 32  1  1  0  0  0
  3  4  1  0  0  0  0
  3 33  1  0  0  0  0
  4  5  2  0  0  0  0
  4  6  1  0  0  0  0
  6  7  1  0  0  0  0
  6 34  1  0  0  0  0
  6 35  1  0  0  0  0
  7  8  1  0  0  0  0
  8  9  1  0  0  0  0
  8 10  2  0  0  0  0
  8 11  2  0  0  0  0
  9 36  1  0  0  0  0
  9 37  1  0  0  0  0
 12 13  2  0  0  0  0
 13 14  1  0  0  0  0
 13 38  1  0  0  0  0
 14 15  1  0  0  0  0
 14 16  2  0  0  0  0
 16 17  1  0  0  0  0
 16 39  1  0  0  0  0
 17 18  1  0  0  0  0
 17 28  2  0  0  0  0
 18 19  2  0  0  0  0
 19 20  1  0  0  0  0
 19 40  1  0  0  0  0
 20 21  2  0  0  0  0
 20 41  1  0  0  0  0
 21 22  1  0  0  0  0
 21 26  1  0  0  0  0
 22 23  1  0  0  0  0
 22 24  2  0  0  0  0
 22 25  2  0  0  0  0
 23 42  1  0  0  0  0
 23 43  1  0  0  0  0
 26 27  2  0  0  0  0
 26 44  1  0  0  0  0
 27 18  1  0  0  0  0
 27 45  1  0  0  0  0
 28 12  1  0  0  0  0
 28 46  1  0  0  0  0
M  END
$$$$

 OpenBabel07292611443D

 66 70  0  0  0  0  0  0  0  0999 V2000
   -6.2548   -4.0297    0.2212 C   0  0  0  0  0  0  0  0  0  0  0  0
   -4.8995   -4.1957    0.7121 N   0  0  0  0  0  0  0  0  0  0  0  0
   -3.8861   -3.4399    0.0738 C   0  0  0  0  0  0  0  0  0  0  0  0
   -4.2609   -2.6842   -0.8692 O   0  0  0  0  0  0  0  0  0  0  0  0
   -2.4631   -3.4648    0.4131 C   0  0  0  0  0  0  0  0  0  0  0  0
   -1.6902   -2.5626   -0.4480 N   0  0  0  0  0  0  0  0  0  0  0  0
   -1.4438   -1.1845   -0.1223 C   0  0  0  0  0  0  0  0  0  0  0  0
   -0.1577   -0.6120   -0.6094 C   0  0  2  0  0  0  0  0  0  0  0  0
    0.8423   -0.8721    0.5039 C   0  0  0  0  0  0  0  0  0  0  0  0
    1.6774   -1.8067    0.5804 O   0  0  0  0  0  0  0  0  0  0  0  0
    0.6120    0.1824    1.4296 N   0  0  0  0  0  0  0  0  0  0  0  0
    1.1443    0.3262    2.7556 C   0  0  0  0  0  0  0  0  0  0  0  0
    0.4517   -0.2322    3.8458 C   0  0  0  0  0  0  0  0  0  0  0  0
    0.9944   -0.0577    5.0893 N   0  0  0  0  0  0  0  0  0  0  0  0
    2.1438    0.6161    5.2973 C   0  0  0  0  0  0  0  0  0  0  0  0
    2.8621    1.1856    4.2429 C   0  0  0  0  0  0  0  0  0  0  0  0
    4.0394    1.8779    4.4447 C   0  0  0  0  0  0  0  0  0  0  0  0
    4.6469    2.3883    3.3213 C   0  0  0  0  0  0  0  0  0  0  0  0
    4.1648    2.2542    2.0439 C   0  0  0  0  0  0  0  0  0  0  0  0
    2.9785    1.5509    1.8899 C   0  0  0  0  0  0  0  0  0  0  0  0
    2.3062    1.0035    2.9928 C   0  0  0  0  0  0  0  0  0  0  0  0
   -0.2809    1.1790    0.8611 C   0  0  0  0  0  0  0  0  0  0  0  0
   -0.1071    0.8660   -0.6334 C   0  0  2  0  0  0  0  0  0  0  0  0
   -1.1087    1.5947   -1.4605 C   0  0  0  0  0  0  0  0  0  0  0  0
   -0.8974    2.9366   -1.3613 O   0  0  0  0  0  0  0  0  0  0  0  0
    0.2661    3.4582   -1.8365 C   0  0  0  0  0  0  0  0  0  0  0  0
    0.1301    4.4534   -2.9394 C   0  0  0  0  0  0  0  0  0  0  0  0
    1.1495    4.0716   -0.7687 C   0  0  0  0  0  0  0  0  0  0  0  0
    0.3524   -1.1653   -1.8772 C   0  0  0  0  0  0  0  0  0  0  0  0
    1.3338   -0.5708   -2.6426 C   0  0  0  0  0  0  0  0  0  0  0  0
    1.8204   -1.0883   -3.8179 C   0  0  0  0  0  0  0  0  0  0  0  0
    3.0689   -0.2862   -4.7449 Cl  0  0  0  0  0  0  0  0  0  0  0  0
    1.3270   -2.2993   -4.3256 C   0  0  0  0  0  0  0  0  0  0  0  0
    0.3545   -2.9047   -3.5831 C   0  0  0  0  0  0  0  0  0  0  0  0
   -0.1276   -2.3819   -2.4097 C   0  0  0  0  0  0  0  0  0  0  0  0
   -1.1670   -3.0651   -1.6552 C   0  0  0  0  0  0  0  0  0  0  0  0
   -1.5806   -4.1679   -2.1676 O   0  0  0  0  0  0  0  0  0  0  0  0
   -6.9173   -4.6524    0.7854 H   0  0  0  0  0  0  0  0  0  0  0  0
   -6.2967   -4.3076   -0.8112 H   0  0  0  0  0  0  0  0  0  0  0  0
   -6.5498   -3.0067    0.3274 H   0  0  0  0  0  0  0  0  0  0  0  0
   -4.6935   -4.8067    1.4560 H   0  0  0  0  0  0  0  0  0  0  0  0
   -2.0941   -4.4619    0.2924 H   0  0  0  0  0  0  0  0  0  0  0  0
   -2.3533   -3.1386    1.4262 H   0  0  0  0  0  0  0  0  0  0  0  0
   -1.4583   -1.0936    0.9437 H   0  0  0  0  0  0  0  0  0  0  0  0
   -2.2107   -0.6311   -0.6228 H   0  0  0  0  0  0  0  0  0  0  0  0
   -0.4297   -0.7522    3.7127 H   0  0  0  0  0  0  0  0  0  0  0  0
    2.5021    0.7136    6.2602 H   0  0  0  0  0  0  0  0  0  0  0  0
    4.4414    2.0054    5.3866 H   0  0  0  0  0  0  0  0  0  0  0  0
    5.5285    2.9095    3.4484 H   0  0  0  0  0  0  0  0  0  0  0  0
    4.6617    2.6579    1.2345 H   0  0  0  0  0  0  0  0  0  0  0  0
    2.5828    1.4280    0.9447 H   0  0  0  0  0  0  0  0  0  0  0  0
    0.0319    2.1745    1.0979 H   0  0  0  0  0  0  0  0  0  0  0  0
   -1.2891    1.1383    1.2172 H   0  0  0  0  0  0  0  0  0  0  0  0
    0.7911    1.2017   -1.1082 H   0  0  0  0  0  0  0  0  0  0  0  0
   -2.0936    1.3631   -1.1123 H   0  0  0  0  0  0  0  0  0  0  0  0
   -1.0092    1.2951   -2.4829 H   0  0  0  0  0  0  0  0  0  0  0  0
    0.7291    2.5807   -2.2372 H   0  0  0  0  0  0  0  0  0  0  0  0
   -0.3316    5.3422   -2.5629 H   0  0  0  0  0  0  0  0  0  0  0  0
   -0.4745    4.0406   -3.7198 H   0  0  0  0  0  0  0  0  0  0  0  0
    1.0988    4.6912   -3.3267 H   0  0  0  0  0  0  0  0  0  0  0  0
    0.6775    4.9475   -0.3751 H   0  0  0  0  0  0  0  0  0  0  0  0
    2.0939    4.3369   -1.1961 H   0  0  0  0  0  0  0  0  0  0  0  0
    1.3009    3.3635    0.0191 H   0  0  0  0  0  0  0  0  0  0  0  0
    1.7288    0.3226   -2.3098 H   0  0  0  0  0  0  0  0  0  0  0  0
    1.6776   -2.7074   -5.2062 H   0  0  0  0  0  0  0  0  0  0  0  0
   -0.0367   -3.7981   -3.9204 H   0  0  0  0  0  0  0  0  0  0  0  0
  1  2  1  0  0  0  0
  1 38  1  0  0  0  0
  1 39  1  0  0  0  0
  1 40  1  0  0  0  0
  2  3  1  0  0  0  0
  2 41  1  0  0  0  0
  3  4  2  0  0  0  0
  3  5  1  0  0  0  0
  5  6  1  0  0  0  0
  5 42  1  0  0  0  0
  5 43  1  0  0  0  0
  6  7  1  0  0  0  0
  7 44  1  0  0  0  0
  7 45  1  0  0  0  0
  8  7  1  0  0  0  0
  8  9  1  1  0  0  0
  8 29  1  0  0  0  0
  9 10  2  0  0  0  0
  9 11  1  0  0  0  0
 11 12  1  0  0  0  0
 11 22  1  0  0  0  0
 12 13  2  0  0  0  0
 13 14  1  0  0  0  0
 13 46  1  0  0  0  0
 14 15  2  0  0  0  0
 15 16  1  0  0  0  0
 15 47  1  0  0  0  0
 16 17  2  0  0  0  0
 17 18  1  0  0  0  0
 17 48  1  0  0  0  0
 18 19  2  0  0  0  0
 18 49  1  0  0  0  0
 19 20  1  0  0  0  0
 19 50  1  0  0  0  0
 20 21  2  0  0  0  0
 20 51  1  0  0  0  0
 21 12  1  0  0  0  0
 21 16  1  0  0  0  0
 22 23  1  0  0  0  0
 22 52  1  0  0  0  0
 22 53  1  0  0  0  0
 23 24  1  0  0  0  0
 23  8  1  0  0  0  0
 23 54  1  6  0  0  0
 24 25  1  0  0  0  0
 24 55  1  0  0  0  0
 24 56  1  0  0  0  0
 25 26  1  0  0  0  0
 26 27  1  0  0  0  0
 26 28  1  0  0  0  0
 26 57  1  0  0  0  0
 27 58  1  0  0  0  0
 27 59  1  0  0  0  0
 27 60  1  0  0  0  0
 28 61  1  0  0  0  0
 28 62  1  0  0  0  0
 28 63  1  0  0  0  0
 29 30  2  0  0  0  0
 30 31  1  0  0  0  0
 30 64  1  0  0  0  0
 31 32  1  0  0  0  0
 31 33  2  0  0  0  0
 33 34  1  0  0  0  0
 33 65  1  0  0  0  0
 34 35  2  0  0  0  0
 34 66  1  0  0  0  0
 35 36  1  0  0  0  0
 35 29  1  0  0  0  0
 36 37  2  0  0  0  0
 36  6  1  0  0  0  0
M  END
$$$$

 OpenBabel07292611443D

 40 42  0  0  0  0  0  0  0  0999 V2000
   -0.4664   -0.8504    1.4319 O   0  0  0  0  0  0  0  0  0  0  0  0
    0.0845    0.0887    0.7635 C   0  0  0  0  0  0  0  0  0  0  0  0
   -0.8100    1.2220    0.4037 C   0  0  0  0  0  0  0  0  0  0  0  0
   -2.1636    0.9625    0.9352 C   0  0  0  0  0  0  0  0  0  0  0  0
   -2.6324    1.6242    2.0688 C   0  0  0  0  0  0  0  0  0  0  0  0
   -3.8597    1.4076    2.5734 N   0  0  0  0  0  0  0  0  0  0  0  0
   -4.6857    0.5299    1.9877 C   0  0  0  0  0  0  0  0  0  0  0  0
   -4.2513   -0.1433    0.8614 C   0  0  0  0  0  0  0  0  0  0  0  0
   -5.1322   -1.0469    0.2781 C   0  0  0  0  0  0  0  0  0  0  0  0
   -4.7797   -1.7669   -0.8552 C   0  0  0  0  0  0  0  0  0  0  0  0
   -3.5212   -1.5427   -1.3699 C   0  0  0  0  0  0  0  0  0  0  0  0
   -2.6377   -0.6457   -0.7966 C   0  0  0  0  0  0  0  0  0  0  0  0
   -2.9996    0.0548    0.3180 C   0  0  0  0  0  0  0  0  0  0  0  0
    1.4568    0.0470    0.3928 N   0  0  0  0  0  0  0  0  0  0  0  0
    1.9862    1.1474   -0.3564 C   0  0  0  0  0  0  0  0  0  0  0  0
    3.0674    0.7424   -1.3479 C   0  0  0  0  0  0  0  0  0  0  0  0
    3.9845   -0.1917   -0.5824 C   0  0  0  0  0  0  0  0  0  0  0  0
    5.3021   -0.4164   -1.2594 C   0  0  0  0  0  0  0  0  0  0  0  0
    5.1922   -0.9671   -2.5084 F   0  0  0  0  0  0  0  0  0  0  0  0
    5.9187    0.8413   -1.3071 F   0  0  0  0  0  0  0  0  0  0  0  0
    6.0697   -1.1982   -0.4412 F   0  0  0  0  0  0  0  0  0  0  0  0
    3.1920   -1.4330   -0.3182 C   0  0  0  0  0  0  0  0  0  0  0  0
    2.2249   -1.1129    0.8032 C   0  0  0  0  0  0  0  0  0  0  0  0
   -0.8561    1.3170   -0.6611 H   0  0  0  0  0  0  0  0  0  0  0  0
   -0.4273    2.1285    0.8241 H   0  0  0  0  0  0  0  0  0  0  0  0
   -2.0150    2.3052    2.5379 H   0  0  0  0  0  0  0  0  0  0  0  0
   -5.6288    0.3597    2.3705 H   0  0  0  0  0  0  0  0  0  0  0  0
   -6.0659   -1.1850    0.6955 H   0  0  0  0  0  0  0  0  0  0  0  0
   -5.4299   -2.4388   -1.2920 H   0  0  0  0  0  0  0  0  0  0  0  0
   -3.2277   -2.0619   -2.2121 H   0  0  0  0  0  0  0  0  0  0  0  0
   -1.7035   -0.5058   -1.2122 H   0  0  0  0  0  0  0  0  0  0  0  0
    2.4035    1.8547    0.3296 H   0  0  0  0  0  0  0  0  0  0  0  0
    1.1780    1.5601   -0.9232 H   0  0  0  0  0  0  0  0  0  0  0  0
    3.6065    1.6025   -1.6863 H   0  0  0  0  0  0  0  0  0  0  0  0
    2.6556    0.2729   -2.2167 H   0  0  0  0  0  0  0  0  0  0  0  0
    4.2885    0.2417    0.3474 H   0  0  0  0  0  0  0  0  0  0  0  0
    3.8438   -2.2293   -0.0248 H   0  0  0  0  0  0  0  0  0  0  0  0
    2.6670   -1.7443   -1.1970 H   0  0  0  0  0  0  0  0  0  0  0  0
    2.7646   -0.8956    1.7012 H   0  0  0  0  0  0  0  0  0  0  0  0
    1.5804   -1.9449    0.9965 H   0  0  0  0  0  0  0  0  0  0  0  0
  1  2  2  0  0  0  0
  2  3  1  0  0  0  0
  2 14  1  0  0  0  0
  3  4  1  0  0  0  0
  3 24  1  0  0  0  0
  3 25  1  0  0  0  0
  4  5  2  0  0  0  0
  5  6  1  0  0  0  0
  5 26  1  0  0  0  0
  6  7  2  0  0  0  0
  7  8  1  0  0  0  0
  7 27  1  0  0  0  0
  8  9  2  0  0  0  0
  9 10  1  0  0  0  0
  9 28  1  0  0  0  0
 10 11  2  0  0  0  0
 10 29  1  0  0  0  0
 11 12  1  0  0  0  0
 11 30  1  0  0  0  0
 12 13  2  0  0  0  0
 12 31  1  0  0  0  0
 13  4  1  0  0  0  0
 13  8  1  0  0  0  0
 14 15  1  0  0  0  0
 15 16  1  0  0  0  0
 15 32  1  0  0  0  0
 15 33  1  0  0  0  0
 16 17  1  0  0  0  0
 16 34  1  0  0  0  0
 16 35  1  0  0  0  0
 17 18  1  0  0  0  0
 17 22  1  0  0  0  0
 17 36  1  0  0  0  0
 18 19  1  0  0  0  0
 18 20  1  0  0  0  0
 18 21  1  0  0  0  0
 22 23  1  0  0  0  0
 22 37  1  0  0  0  0
 22 38  1  0  0  0  0
 23 14  1  0  0  0  0
 23 39  1  0  0  0  0
 23 40  1  0  0  0  0
M  END
$$$$

 OpenBabel07292611443D

 47 50  0  0  0  0  0  0  0  0999 V2000
    0.2519    1.5083   -0.3136 O   0  0  0  0  0  0  0  0  0  0  0  0
    0.2993    0.4302    0.3588 C   0  0  0  0  0  0  0  0  0  0  0  0
    1.3771    0.1311    1.3344 C   0  0  0  0  0  0  0  0  0  0  0  0
    2.6254   -0.3709    0.7398 C   0  0  0  0  0  0  0  0  0  0  0  0
    2.8323   -1.7645    0.8104 C   0  0  0  0  0  0  0  0  0  0  0  0
    3.8992   -2.3495    0.2618 N   0  0  0  0  0  0  0  0  0  0  0  0
    4.8558   -1.6712   -0.3933 C   0  0  0  0  0  0  0  0  0  0  0  0
    4.6980   -0.2771   -0.4891 C   0  0  0  0  0  0  0  0  0  0  0  0
    5.6610    0.4945   -1.1360 C   0  0  0  0  0  0  0  0  0  0  0  0
    5.5291    1.8784   -1.2174 C   0  0  0  0  0  0  0  0  0  0  0  0
    4.4121    2.4602   -0.6348 C   0  0  0  0  0  0  0  0  0  0  0  0
    3.4679    1.6883   -0.0019 C   0  0  0  0  0  0  0  0  0  0  0  0
    3.5828    0.3396    0.0831 C   0  0  0  0  0  0  0  0  0  0  0  0
   -0.7927   -0.4881    0.0861 N   0  0  0  0  0  0  0  0  0  0  0  0
   -0.8399   -1.7933    0.7220 C   0  0  0  0  0  0  0  0  0  0  0  0
   -2.0389   -2.6125    0.4697 C   0  0  0  0  0  0  0  0  0  0  0  0
   -3.0186   -2.1558   -0.5449 C   0  0  0  0  0  0  0  0  0  0  0  0
   -2.3922   -1.2586   -1.5710 C   0  0  0  0  0  0  0  0  0  0  0  0
   -1.8349   -0.0690   -0.8514 C   0  0  1  0  0  0  0  0  0  0  0  0
   -2.8687    0.7696   -0.2516 C   0  0  0  0  0  0  0  0  0  0  0  0
   -3.4317    1.8364   -0.9538 C   0  0  0  0  0  0  0  0  0  0  0  0
   -4.3998    2.6545   -0.3902 C   0  0  0  0  0  0  0  0  0  0  0  0
   -4.8583    2.4416    0.9182 C   0  0  0  0  0  0  0  0  0  0  0  0
   -4.2977    1.3880    1.6025 C   0  0  0  0  0  0  0  0  0  0  0  0
   -3.3238    0.5597    1.0477 C   0  0  0  0  0  0  0  0  0  0  0  0
    1.0126   -0.6081    2.0168 H   0  0  0  0  0  0  0  0  0  0  0  0
    1.6209    1.0592    1.8079 H   0  0  0  0  0  0  0  0  0  0  0  0
    2.1378   -2.3493    1.3010 H   0  0  0  0  0  0  0  0  0  0  0  0
    5.6699   -2.1515   -0.8076 H   0  0  0  0  0  0  0  0  0  0  0  0
    6.4820    0.0349   -1.5600 H   0  0  0  0  0  0  0  0  0  0  0  0
    6.2399    2.4534   -1.6961 H   0  0  0  0  0  0  0  0  0  0  0  0
    4.2892    3.4840   -0.6774 H   0  0  0  0  0  0  0  0  0  0  0  0
    2.6469    2.1485    0.4214 H   0  0  0  0  0  0  0  0  0  0  0  0
   -0.7682   -1.6413    1.7787 H   0  0  0  0  0  0  0  0  0  0  0  0
   -0.0292   -2.3437    0.2921 H   0  0  0  0  0  0  0  0  0  0  0  0
   -2.5640   -2.6948    1.3984 H   0  0  0  0  0  0  0  0  0  0  0  0
   -1.6487   -3.5208    0.0603 H   0  0  0  0  0  0  0  0  0  0  0  0
   -3.8025   -1.6205   -0.0511 H   0  0  0  0  0  0  0  0  0  0  0  0
   -3.3968   -3.0200   -1.0499 H   0  0  0  0  0  0  0  0  0  0  0  0
   -3.1295   -0.9441   -2.2797 H   0  0  0  0  0  0  0  0  0  0  0  0
   -1.6184   -1.7748   -2.0999 H   0  0  0  0  0  0  0  0  0  0  0  0
   -1.3704    0.5704   -1.5727 H   0  0  0  0  0  0  0  0  0  0  0  0
   -3.1189    2.0218   -1.9196 H   0  0  0  0  0  0  0  0  0  0  0  0
   -4.7896    3.4336   -0.9434 H   0  0  0  0  0  0  0  0  0  0  0  0
   -5.5790    3.0442    1.3455 H   0  0  0  0  0  0  0  0  0  0  0  0
   -4.6118    1.2031    2.5680 H   0  0  0  0  0  0  0  0  0  0  0  0
   -2.9359   -0.2171    1.6054 H   0  0  0  0  0  0  0  0  0  0  0  0
  1  2  2  0  0  0  0
  2  3  1  0  0  0  0
  2 14  1  0  0  0  0
  3  4  1  0  0  0  0
  3 26  1  0  0  0  0
  3 27  1  0  0  0  0
  4  5  2  0  0  0  0
  5  6  1  0  0  0  0
  5 28  1  0  0  0  0
  6  7  2  0  0  0  0
  7  8  1  0  0  0  0
  7 29  1  0  0  0  0
  8  9  2  0  0  0  0
  9 10  1  0  0  0  0
  9 30  1  0  0  0  0
 10 11  2  0  0  0  0
 10 31  1  0  0  0  0
 11 12  1  0  0  0  0
 11 32  1  0  0  0  0
 12 13  2  0  0  0  0
 12 33  1  0  0  0  0
 13  4  1  0  0  0  0
 13  8  1  0  0  0  0
 14 15  1  0  0  0  0
 15 16  1  0  0  0  0
 15 34  1  0  0  0  0
 15 35  1  0  0  0  0
 16 17  1  0  0  0  0
 16 36  1  0  0  0  0
 16 37  1  0  0  0  0
 17 18  1  0  0  0  0
 17 38  1  0  0  0  0
 17 39  1  0  0  0  0
 18 19  1  0  0  0  0
 18 40  1  0  0  0  0
 18 41  1  0  0  0  0
 19 20  1  0  0  0  0
 19 14  1  0  0  0  0
 19 42  1  6  0  0  0
 20 21  2  0  0  0  0
 21 22  1  0  0  0  0
 21 43  1  0  0  0  0
 22 23  2  0  0  0  0
 22 44  1  0  0  0  0
 23 24  1  0  0  0  0
 23 45  1  0  0  0  0
 24 25  2  0  0  0  0
 24 46  1  0  0  0  0
 25 20  1  0  0  0  0
 25 47  1  0  0  0  0
M  END
$$$$

 OpenBabel07292611443D

 56 60  0  0  0  0  0  0  0  0999 V2000
   -3.8267    2.8336   -2.5700 C   0  0  0  0  0  0  0  0  0  0  0  0
   -3.1368    2.0399   -1.5703 N   0  0  0  0  0  0  0  0  0  0  0  0
   -2.4448    2.6152   -0.4694 C   0  0  0  0  0  0  0  0  0  0  0  0
   -2.4436    3.8694   -0.3775 O   0  0  0  0  0  0  0  0  0  0  0  0
   -1.7367    1.7636    0.5537 C   0  0  0  0  0  0  0  0  0  0  0  0
   -1.8889    0.3596    0.2191 N   0  0  0  0  0  0  0  0  0  0  0  0
   -0.9605   -0.3578   -0.6242 C   0  0  0  0  0  0  0  0  0  0  0  0
   -0.4752   -1.5631    0.1286 C   0  0  2  0  0  0  0  0  0  0  0  0
    0.3450   -1.0144    1.2914 C   0  0  0  0  0  0  0  0  0  0  0  0
    0.0245   -1.1024    2.4903 O   0  0  0  0  0  0  0  0  0  0  0  0
    1.5201   -0.4055    0.6856 N   0  0  0  0  0  0  0  0  0  0  0  0
    2.0866    0.7445    1.2674 C   0  0  0  0  0  0  0  0  0  0  0  0
    1.4241    1.4007    2.3270 C   0  0  0  0  0  0  0  0  0  0  0  0
    1.9103    2.4818    2.9330 N   0  0  0  0  0  0  0  0  0  0  0  0
    3.0687    3.0291    2.5802 C   0  0  0  0  0  0  0  0  0  0  0  0
    3.7807    2.4629    1.5645 C   0  0  0  0  0  0  0  0  0  0  0  0
    4.9797    3.0458    1.2231 C   0  0  0  0  0  0  0  0  0  0  0  0
    5.7534    2.5205    0.2097 C   0  0  0  0  0  0  0  0  0  0  0  0
    5.2543    1.3996   -0.4207 C   0  0  0  0  0  0  0  0  0  0  0  0
    4.0555    0.8208   -0.0760 C   0  0  0  0  0  0  0  0  0  0  0  0
    3.2837    1.3253    0.9169 C   0  0  0  0  0  0  0  0  0  0  0  0
    1.7680   -1.2280   -0.4566 C   0  0  0  0  0  0  0  0  0  0  0  0
    0.6337   -2.2782   -0.5507 C   0  0  2  0  0  0  0  0  0  0  0  0
    0.3716   -2.5769   -2.0031 C   0  0  0  0  0  0  0  0  0  0  0  0
   -1.5874   -2.3550    0.6238 C   0  0  0  0  0  0  0  0  0  0  0  0
   -1.4991   -3.7372    0.8375 C   0  0  0  0  0  0  0  0  0  0  0  0
   -2.5708   -4.4655    1.3186 C   0  0  0  0  0  0  0  0  0  0  0  0
   -3.7792   -3.8711    1.6125 C   0  0  0  0  0  0  0  0  0  0  0  0
   -3.8759   -2.5147    1.4059 C   0  0  0  0  0  0  0  0  0  0  0  0
   -2.8150   -1.7990    0.9304 C   0  0  0  0  0  0  0  0  0  0  0  0
   -3.0016   -0.3666    0.7268 C   0  0  0  0  0  0  0  0  0  0  0  0
   -4.0926    0.2256    0.9825 O   0  0  0  0  0  0  0  0  0  0  0  0
   -4.2706    2.1851   -3.2962 H   0  0  0  0  0  0  0  0  0  0  0  0
   -3.1282    3.4847   -3.0528 H   0  0  0  0  0  0  0  0  0  0  0  0
   -4.5901    3.4163   -2.0982 H   0  0  0  0  0  0  0  0  0  0  0  0
   -3.1483    1.0594   -1.6581 H   0  0  0  0  0  0  0  0  0  0  0  0
   -2.1586    1.9457    1.5200 H   0  0  0  0  0  0  0  0  0  0  0  0
   -0.6962    2.0132    0.5602 H   0  0  0  0  0  0  0  0  0  0  0  0
   -0.1321    0.2735   -0.8694 H   0  0  0  0  0  0  0  0  0  0  0  0
   -1.4424   -0.6586   -1.5310 H   0  0  0  0  0  0  0  0  0  0  0  0
    0.5184    1.0240    2.6477 H   0  0  0  0  0  0  0  0  0  0  0  0
    3.4231    3.8677    3.0663 H   0  0  0  0  0  0  0  0  0  0  0  0
    5.3030    3.8843    1.7305 H   0  0  0  0  0  0  0  0  0  0  0  0
    6.6553    2.9423   -0.0619 H   0  0  0  0  0  0  0  0  0  0  0  0
    5.8047    0.9769   -1.1845 H   0  0  0  0  0  0  0  0  0  0  0  0
    3.7360   -0.0178   -0.5857 H   0  0  0  0  0  0  0  0  0  0  0  0
    2.7112   -1.7219   -0.3497 H   0  0  0  0  0  0  0  0  0  0  0  0
    1.7939   -0.6308   -1.3440 H   0  0  0  0  0  0  0  0  0  0  0  0
    0.8214   -3.2338   -0.1074 H   0  0  0  0  0  0  0  0  0  0  0  0
    0.1726   -1.6641   -2.5247 H   0  0  0  0  0  0  0  0  0  0  0  0
   -0.4741   -3.2271   -2.0865 H   0  0  0  0  0  0  0  0  0  0  0  0
    1.2301   -3.0518   -2.4301 H   0  0  0  0  0  0  0  0  0  0  0  0
   -0.6124   -4.2230    0.6306 H   0  0  0  0  0  0  0  0  0  0  0  0
   -2.4633   -5.4819    1.4616 H   0  0  0  0  0  0  0  0  0  0  0  0
   -4.5762   -4.4196    1.9717 H   0  0  0  0  0  0  0  0  0  0  0  0
   -4.7635   -2.0309    1.6134 H   0  0  0  0  0  0  0  0  0  0  0  0
  1  2  1  0  0  0  0
  1 33  1  0  0  0  0
  1 34  1  0  0  0  0
  1 35  1  0  0  0  0
  2  3  1  0  0  0  0
  2 36  1  0  0  0  0
  3  4  2  0  0  0  0
  3  5  1  0  0  0  0
  5  6  1  0  0  0  0
  5 37  1  0  0  0  0
  5 38  1  0  0  0  0
  6  7  1  0  0  0  0
  7 39  1  0  0  0  0
  7 40  1  0  0  0  0
  8  7  1  0  0  0  0
  8  9  1  1  0  0  0
  8 25  1  0  0  0  0
  9 10  2  0  0  0  0
  9 11  1  0  0  0  0
 11 12  1  0  0  0  0
 11 22  1  0  0  0  0
 12 13  2  0  0  0  0
 13 14  1  0  0  0  0
 13 41  1  0  0  0  0
 14 15  2  0  0  0  0
 15 16  1  0  0  0  0
 15 42  1  0  0  0  0
 16 17  2  0  0  0  0
 17 18  1  0  0  0  0
 17 43  1  0  0  0  0
 18 19  2  0  0  0  0
 18 44  1  0  0  0  0
 19 20  1  0  0  0  0
 19 45  1  0  0  0  0
 20 21  2  0  0  0  0
 20 46  1  0  0  0  0
 21 12  1  0  0  0  0
 21 16  1  0  0  0  0
 22 23  1  0  0  0  0
 22 47  1  0  0  0  0
 22 48  1  0  0  0  0
 23 24  1  0  0  0  0
 23  8  1  0  0  0  0
 23 49  1  1  0  0  0
 24 50  1  0  0  0  0
 24 51  1  0  0  0  0
 24 52  1  0  0  0  0
 25 26  2  0  0  0  0
 26 27  1  0  0  0  0
 26 53  1  0  0  0  0
 27 28  2  0  0  0  0
 27 54  1  0  0  0  0
 28 29  1  0  0  0  0
 28 55  1  0  0  0  0
 29 30  2  0  0  0  0
 29 56  1  0  0  0  0
 30 31  1  0  0  0  0
 30 25  1  0  0  0  0
 31 32  2  0  0  0  0
 31  6  1  0  0  0  0
M  END
$$$$

 OpenBabel07292611443D

 46 48  0  0  0  0  0  0  0  0999 V2000
   -5.4753    0.0720    0.4000 C   0  0  0  0  0  0  0  0  0  0  0  0
   -3.9885    0.0746    0.7362 C   0  0  1  0  0  0  0  0  0  0  0  0
   -3.2821   -1.0693    0.0893 C   0  0  0  0  0  0  0  0  0  0  0  0
   -1.7739   -0.9110    0.1968 C   0  0  1  0  0  0  0  0  0  0  0  0
   -1.1928   -2.1124   -0.5218 C   0  0  0  0  0  0  0  0  0  0  0  0
   -1.3017    0.3516   -0.2593 N   0  0  0  0  0  0  0  0  0  0  0  0
    0.0558    0.7682   -0.3660 C   0  0  0  0  0  0  0  0  0  0  0  0
    0.1896    1.9700   -0.8049 O   0  0  0  0  0  0  0  0  0  0  0  0
    1.2207   -0.0676   -0.0167 C   0  0  0  0  0  0  0  0  0  0  0  0
    2.5304    0.5258   -0.2687 C   0  0  0  0  0  0  0  0  0  0  0  0
    2.8048    1.6203   -1.0507 C   0  0  0  0  0  0  0  0  0  0  0  0
    4.0760    2.1043   -1.2190 N   0  0  0  0  0  0  0  0  0  0  0  0
    5.1425    1.5668   -0.6501 C   0  0  0  0  0  0  0  0  0  0  0  0
    4.9189    0.4461    0.1565 C   0  0  0  0  0  0  0  0  0  0  0  0
    6.0419   -0.1104    0.7269 C   0  0  0  0  0  0  0  0  0  0  0  0
    5.9405   -1.2263    1.5259 C   0  0  0  0  0  0  0  0  0  0  0  0
    4.6765   -1.7531    1.7249 C   0  0  0  0  0  0  0  0  0  0  0  0
    3.5487   -1.1784    1.1414 C   0  0  0  0  0  0  0  0  0  0  0  0
    3.6421   -0.0658    0.3444 C   0  0  0  0  0  0  0  0  0  0  0  0
   -2.3332    1.3268   -0.6601 C   0  0  1  0  0  0  0  0  0  0  0  0
   -2.7333    1.0925   -2.0697 C   0  0  0  0  0  0  0  0  0  0  0  0
   -3.4304    1.4134    0.3422 C   0  0  0  0  0  0  0  0  0  0  0  0
   -5.9005   -0.8719    0.6706 H   0  0  0  0  0  0  0  0  0  0  0  0
   -5.6038    0.2332   -0.6499 H   0  0  0  0  0  0  0  0  0  0  0  0
   -5.9652    0.8528    0.9434 H   0  0  0  0  0  0  0  0  0  0  0  0
   -3.8388   -0.0656    1.7864 H   0  0  0  0  0  0  0  0  0  0  0  0
   -3.5566   -1.1105   -0.9441 H   0  0  0  0  0  0  0  0  0  0  0  0
   -3.5661   -1.9715    0.5895 H   0  0  0  0  0  0  0  0  0  0  0  0
   -1.4479   -0.8998    1.2159 H   0  0  0  0  0  0  0  0  0  0  0  0
   -1.5245   -2.1144   -1.5391 H   0  0  0  0  0  0  0  0  0  0  0  0
   -1.5193   -3.0094   -0.0384 H   0  0  0  0  0  0  0  0  0  0  0  0
   -0.1243   -2.0615   -0.4952 H   0  0  0  0  0  0  0  0  0  0  0  0
    1.1564   -0.9727   -0.5837 H   0  0  0  0  0  0  0  0  0  0  0  0
    1.1669   -0.2108    1.0423 H   0  0  0  0  0  0  0  0  0  0  0  0
    2.0246    2.0965   -1.5298 H   0  0  0  0  0  0  0  0  0  0  0  0
    6.0885    1.9535   -0.7937 H   0  0  0  0  0  0  0  0  0  0  0  0
    6.9671    0.3128    0.5538 H   0  0  0  0  0  0  0  0  0  0  0  0
    6.7740   -1.6533    1.9594 H   0  0  0  0  0  0  0  0  0  0  0  0
    4.5664   -2.5901    2.3185 H   0  0  0  0  0  0  0  0  0  0  0  0
    2.6223   -1.5995    1.3129 H   0  0  0  0  0  0  0  0  0  0  0  0
   -1.9324    2.3189   -0.6537 H   0  0  0  0  0  0  0  0  0  0  0  0
   -3.1489    0.1110   -2.1641 H   0  0  0  0  0  0  0  0  0  0  0  0
   -1.8752    1.1789   -2.7031 H   0  0  0  0  0  0  0  0  0  0  0  0
   -3.4643    1.8186   -2.3584 H   0  0  0  0  0  0  0  0  0  0  0  0
   -4.2222    2.0019   -0.0722 H   0  0  0  0  0  0  0  0  0  0  0  0
   -3.0167    1.8544    1.2249 H   0  0  0  0  0  0  0  0  0  0  0  0
  1 23  1  0  0  0  0
  1 24  1  0  0  0  0
  1 25  1  0  0  0  0
  2  1  1  0  0  0  0
  2  3  1  0  0  0  0
  2 26  1  1  0  0  0
  3  4  1  0  0  0  0
  3 27  1  0  0  0  0
  3 28  1  0  0  0  0
  4  5  1  0  0  0  0
  4  6  1  0  0  0  0
  4 29  1  1  0  0  0
  5 30  1  0  0  0  0
  5 31  1  0  0  0  0
  5 32  1  0  0  0  0
  6  7  1  0  0  0  0
  6 20  1  0  0  0  0
  7  8  2  0  0  0  0
  7  9  1  0  0  0  0
  9 10  1  0  0  0  0
  9 33  1  0  0  0  0
  9 34  1  0  0  0  0
 10 11  2  0  0  0  0
 11 12  1  0  0  0  0
 11 35  1  0  0  0  0
 12 13  2  0  0  0  0
 13 14  1  0  0  0  0
 13 36  1  0  0  0  0
 14 15  2  0  0  0  0
 15 16  1  0  0  0  0
 15 37  1  0  0  0  0
 16 17  2  0  0  0  0
 16 38  1  0  0  0  0
 17 18  1  0  0  0  0
 17 39  1  0  0  0  0
 18 19  2  0  0  0  0
 18 40  1  0  0  0  0
 19 10  1  0  0  0  0
 19 14  1  0  0  0  0
 20 21  1  0  0  0  0
 20 22  1  0  0  0  0
 20 41  1  1  0  0  0
 21 42  1  0  0  0  0
 21 43  1  0  0  0  0
 21 44  1  0  0  0  0
 22  2  1  0  0  0  0
 22 45  1  0  0  0  0
 22 46  1  0  0  0  0
M  END
$$$$

 OpenBabel07292611443D

 40 44  0  0  0  0  0  0  0  0999 V2000
    4.3899   -0.3554    2.4572 C   0  0  0  0  0  0  0  0  0  0  0  0
    3.9327   -1.3183    1.4203 C   0  0  0  0  0  0  0  0  0  0  0  0
    4.1003   -2.5621    1.5095 O   0  0  0  0  0  0  0  0  0  0  0  0
    3.2692   -0.8279    0.2593 N   0  0  0  0  0  0  0  0  0  0  0  0
    2.7696   -1.6599   -0.8337 C   0  0  0  0  0  0  0  0  0  0  0  0
    2.2707   -0.6617   -1.8515 C   0  0  2  0  0  0  0  0  0  0  0  0
    3.2888    0.4467   -1.6039 C   0  0  0  0  0  0  0  0  0  0  0  0
    2.9425    0.5352   -0.1081 C   0  0  1  0  0  0  0  0  0  0  0  0
    1.4887    0.6701   -0.1972 C   0  0  0  0  0  0  0  0  0  0  0  0
    0.3820    1.2462    0.3750 C   0  0  0  0  0  0  0  0  0  0  0  0
    0.4161    2.0667    1.4906 O   0  5  0  0  0  0  0  0  0  0  0  0
   -0.6757    0.8539   -0.3528 N   0  0  0  0  0  0  0  0  0  0  0  0
   -2.0083    1.2707   -0.0383 C   0  0  0  0  0  0  0  0  0  0  0  0
   -2.4033    2.5894   -0.1452 C   0  0  0  0  0  0  0  0  0  0  0  0
   -3.6307    3.0298    0.1350 N   0  0  0  0  0  0  0  0  0  0  0  0
   -4.5420    2.1182    0.5505 C   0  0  0  0  0  0  0  0  0  0  0  0
   -4.2577    0.7820    0.6923 C   0  0  0  0  0  0  0  0  0  0  0  0
   -5.1888   -0.1360    1.1146 C   0  0  0  0  0  0  0  0  0  0  0  0
   -4.9018   -1.4904    1.2586 C   0  0  0  0  0  0  0  0  0  0  0  0
   -3.6127   -1.8816    0.9523 C   0  0  0  0  0  0  0  0  0  0  0  0
   -2.6584   -0.9752    0.5253 C   0  0  0  0  0  0  0  0  0  0  0  0
   -2.9610    0.3628    0.3885 C   0  0  0  0  0  0  0  0  0  0  0  0
   -0.2538    0.0603   -1.3470 C   0  0  0  0  0  0  0  0  0  0  0  0
   -0.9925   -0.4859   -2.2234 O   0  0  0  0  0  0  0  0  0  0  0  0
    1.0922   -0.0603   -1.2587 N   0  0  0  0  0  0  0  0  0  0  0  0
    4.8645   -0.8884    3.2544 H   0  0  0  0  0  0  0  0  0  0  0  0
    3.5482    0.1832    2.8397 H   0  0  0  0  0  0  0  0  0  0  0  0
    5.0860    0.3318    2.0236 H   0  0  0  0  0  0  0  0  0  0  0  0
    1.9738   -2.2915   -0.4982 H   0  0  0  0  0  0  0  0  0  0  0  0
    3.5181   -2.3139   -1.2298 H   0  0  0  0  0  0  0  0  0  0  0  0
    2.1238   -1.0434   -2.8403 H   0  0  0  0  0  0  0  0  0  0  0  0
    3.0787    1.3464   -2.1437 H   0  0  0  0  0  0  0  0  0  0  0  0
    4.3073    0.2862   -1.8899 H   0  0  0  0  0  0  0  0  0  0  0  0
    3.3852    1.2735    0.5275 H   0  0  0  0  0  0  0  0  0  0  0  0
   -1.7038    3.2787   -0.4623 H   0  0  0  0  0  0  0  0  0  0  0  0
   -5.4963    2.4433    0.7713 H   0  0  0  0  0  0  0  0  0  0  0  0
   -6.1420    0.1929    1.3345 H   0  0  0  0  0  0  0  0  0  0  0  0
   -5.6138   -2.1661    1.5771 H   0  0  0  0  0  0  0  0  0  0  0  0
   -3.3546   -2.8765    1.0444 H   0  0  0  0  0  0  0  0  0  0  0  0
   -1.7057   -1.3058    0.3059 H   0  0  0  0  0  0  0  0  0  0  0  0
  1  2  1  0  0  0  0
  1 26  1  0  0  0  0
  1 27  1  0  0  0  0
  1 28  1  0  0  0  0
  2  3  2  0  0  0  0
  2  4  1  0  0  0  0
  4  5  1  0  0  0  0
  5 29  1  0  0  0  0
  5 30  1  0  0  0  0
  6  5  1  0  0  0  0
  6  7  1  0  0  0  0
  6 31  1  6  0  0  0
  7  8  1  0  0  0  0
  7 32  1  0  0  0  0
  7 33  1  0  0  0  0
  8  9  1  0  0  0  0
  8  4  1  0  0  0  0
  8 34  1  1  0  0  0
  9 10  2  0  0  0  0
 10 11  1  0  0  0  0
 10 12  1  0  0  0  0
 12 13  1  0  0  0  0
 12 23  1  0  0  0  0
 13 14  2  0  0  0  0
 14 15  1  0  0  0  0
 14 35  1  0  0  0  0
 15 16  2  0  0  0  0
 16 17  1  0  0  0  0
 16 36  1  0  0  0  0
 17 18  2  0  0  0  0
 18 19  1  0  0  0  0
 18 37  1  0  0  0  0
 19 20  2  0  0  0  0
 19 38  1  0  0  0  0
 20 21  1  0  0  0  0
 20 39  1  0  0  0  0
 21 22  2  0  0  0  0
 21 40  1  0  0  0  0
 22 13  1  0  0  0  0
 22 17  1  0  0  0  0
 23 24  2  0  0  0  0
 23 25  1  0  0  0  0
 25  9  1  0  0  0  0
 25  6  1  0  0  0  0
M  CHG  1  11  -1
M  END
$$$$

 OpenBabel07292611443D

 40 42  0  0  0  0  0  0  0  0999 V2000
   -5.5182    0.5077    0.5375 C   0  0  0  0  0  0  0  0  0  0  0  0
   -4.1411    0.4286   -0.0385 C   0  0  0  0  0  0  0  0  0  0  0  0
   -3.2470    1.5416    0.4964 C   0  0  0  0  0  0  0  0  0  0  0  0
   -2.0163    1.5334   -0.3864 C   0  0  0  0  0  0  0  0  0  0  0  0
   -1.3242    0.2891   -0.1008 N   0  0  0  0  0  0  0  0  0  0  0  0
    0.0195    0.1171   -0.5309 C   0  0  0  0  0  0  0  0  0  0  0  0
    0.5930    1.0474   -1.1547 O   0  0  0  0  0  0  0  0  0  0  0  0
    0.7232   -1.1668   -0.2329 C   0  0  0  0  0  0  0  0  0  0  0  0
    2.1075   -1.1430   -0.7665 C   0  0  0  0  0  0  0  0  0  0  0  0
    2.4797   -1.8204   -1.9195 C   0  0  0  0  0  0  0  0  0  0  0  0
    3.7220   -1.8000   -2.4019 N   0  0  0  0  0  0  0  0  0  0  0  0
    4.7100   -1.1152   -1.7986 C   0  0  0  0  0  0  0  0  0  0  0  0
    4.4111   -0.4230   -0.6538 C   0  0  0  0  0  0  0  0  0  0  0  0
    5.4056    0.2835   -0.0206 C   0  0  0  0  0  0  0  0  0  0  0  0
    5.1222    0.9882    1.1367 C   0  0  0  0  0  0  0  0  0  0  0  0
    3.8342    0.9592    1.6253 C   0  0  0  0  0  0  0  0  0  0  0  0
    2.8103    0.2670    1.0253 C   0  0  0  0  0  0  0  0  0  0  0  0
    3.1300   -0.4303   -0.1366 C   0  0  0  0  0  0  0  0  0  0  0  0
   -2.0226   -0.7533    0.6195 C   0  0  0  0  0  0  0  0  0  0  0  0
   -3.4605   -0.8883    0.2143 C   0  0  0  0  0  0  0  0  0  0  0  0
   -5.9408    1.4666    0.3211 H   0  0  0  0  0  0  0  0  0  0  0  0
   -5.4699    0.3702    1.5975 H   0  0  0  0  0  0  0  0  0  0  0  0
   -6.1297   -0.2571    0.1062 H   0  0  0  0  0  0  0  0  0  0  0  0
   -4.2786    0.5369   -1.0941 H   0  0  0  0  0  0  0  0  0  0  0  0
   -2.9783    1.3486    1.5140 H   0  0  0  0  0  0  0  0  0  0  0  0
   -3.7414    2.4904    0.4785 H   0  0  0  0  0  0  0  0  0  0  0  0
   -1.3886    2.3688   -0.1562 H   0  0  0  0  0  0  0  0  0  0  0  0
   -2.2772    1.6070   -1.4215 H   0  0  0  0  0  0  0  0  0  0  0  0
    0.1865   -1.9745   -0.6850 H   0  0  0  0  0  0  0  0  0  0  0  0
    0.7661   -1.2970    0.8283 H   0  0  0  0  0  0  0  0  0  0  0  0
    1.7629   -2.3638   -2.4255 H   0  0  0  0  0  0  0  0  0  0  0  0
    5.6662   -1.1110   -2.1867 H   0  0  0  0  0  0  0  0  0  0  0  0
    6.3623    0.2886   -0.4074 H   0  0  0  0  0  0  0  0  0  0  0  0
    5.8589    1.5232    1.6225 H   0  0  0  0  0  0  0  0  0  0  0  0
    3.6275    1.4858    2.4884 H   0  0  0  0  0  0  0  0  0  0  0  0
    1.8548    0.2641    1.4152 H   0  0  0  0  0  0  0  0  0  0  0  0
   -1.9833   -0.5295    1.6651 H   0  0  0  0  0  0  0  0  0  0  0  0
   -1.5384   -1.6792    0.3888 H   0  0  0  0  0  0  0  0  0  0  0  0
   -3.9859   -1.3960    0.9960 H   0  0  0  0  0  0  0  0  0  0  0  0
   -3.4770   -1.4320   -0.7072 H   0  0  0  0  0  0  0  0  0  0  0  0
  1  2  1  0  0  0  0
  1 21  1  0  0  0  0
  1 22  1  0  0  0  0
  1 23  1  0  0  0  0
  2  3  1  0  0  0  0
  2 24  1  0  0  0  0
  3  4  1  0  0  0  0
  3 25  1  0  0  0  0
  3 26  1  0  0  0  0
  4  5  1  0  0  0  0
  4 27  1  0  0  0  0
  4 28  1  0  0  0  0
  5  6  1  0  0  0  0
  5 19  1  0  0  0  0
  6  7  2  0  0  0  0
  6  8  1  0  0  0  0
  8  9  1  0  0  0  0
  8 29  1  0  0  0  0
  8 30  1  0  0  0  0
  9 10  2  0  0  0  0
 10 11  1  0  0  0  0
 10 31  1  0  0  0  0
 11 12  2  0  0  0  0
 12 13  1  0  0  0  0
 12 32  1  0  0  0  0
 13 14  2  0  0  0  0
 14 15  1  0  0  0  0
 14 33  1  0  0  0  0
 15 16  2  0  0  0  0
 15 34  1  0  0  0  0
 16 17  1  0  0  0  0
 16 35  1  0  0  0  0
 17 18  2  0  0  0  0
 17 36  1  0  0  0  0
 18  9  1  0  0  0  0
 18 13  1  0  0  0  0
 19 20  1  0  0  0  0
 19 37  1  0  0  0  0
 19 38  1  0  0  0  0
 20  2  1  0  0  0  0
 20 39  1  0  0  0  0
 20 40  1  0  0  0  0
M  END
$$$$

 OpenBabel07292611443D

 67 71  0  0  0  0  0  0  0  0999 V2000
    5.9527    0.8780   -2.7111 C   0  0  0  0  0  0  0  0  0  0  0  0
    4.9068    0.5942   -1.7269 N   0  0  0  0  0  0  0  0  0  0  0  0
    4.6603    1.5461   -0.7322 C   0  0  0  0  0  0  0  0  0  0  0  0
    5.3423    2.6084   -0.7141 O   0  0  0  0  0  0  0  0  0  0  0  0
    3.6232    1.3995    0.3423 C   0  0  0  0  0  0  0  0  0  0  0  0
    2.9310    0.1446    0.1684 N   0  0  0  0  0  0  0  0  0  0  0  0
    1.7429   -0.0552   -0.6086 C   0  0  0  0  0  0  0  0  0  0  0  0
    0.7292   -0.8632    0.1359 C   0  0  2  0  0  0  0  0  0  0  0  0
   -0.3434   -1.3718   -0.7608 C   0  0  0  0  0  0  0  0  0  0  0  0
   -0.1534   -1.7131   -1.9431 O   0  0  0  0  0  0  0  0  0  0  0  0
   -1.5856   -1.4145   -0.1009 N   0  0  0  0  0  0  0  0  0  0  0  0
   -2.8480   -1.9374   -0.5254 C   0  0  0  0  0  0  0  0  0  0  0  0
   -3.2465   -3.2396   -0.2268 C   0  0  0  0  0  0  0  0  0  0  0  0
   -4.4296   -3.7434   -0.6260 N   0  0  0  0  0  0  0  0  0  0  0  0
   -5.2816   -3.0102   -1.3323 C   0  0  0  0  0  0  0  0  0  0  0  0
   -4.9770   -1.7130   -1.6759 C   0  0  0  0  0  0  0  0  0  0  0  0
   -5.8734   -0.9620   -2.4137 C   0  0  0  0  0  0  0  0  0  0  0  0
   -5.5700    0.3413   -2.7632 C   0  0  0  0  0  0  0  0  0  0  0  0
   -4.3589    0.8770   -2.3629 C   0  0  0  0  0  0  0  0  0  0  0  0
   -3.4896    0.1004   -1.6287 C   0  0  0  0  0  0  0  0  0  0  0  0
   -3.7530   -1.1974   -1.2610 C   0  0  0  0  0  0  0  0  0  0  0  0
   -1.3834   -0.8127    1.1911 C   0  0  0  0  0  0  0  0  0  0  0  0
   -0.0649   -0.1090    1.1651 C   0  0  2  0  0  0  0  0  0  0  0  0
   -0.2497    1.3098    0.7550 C   0  0  0  0  0  0  0  0  0  0  0  0
   -1.1368    2.3593    1.8330 S   0  0  0  0  0  0  0  0  0  0  0  0
   -2.5372    1.9434    2.0167 O   0  0  0  0  0  0  0  0  0  0  0  0
   -0.4620    2.5720    3.1517 O   0  0  0  0  0  0  0  0  0  0  0  0
   -1.1404    3.9418    1.0629 N   0  0  0  0  0  0  0  0  0  0  0  0
    0.2386    4.3877    0.9357 C   0  0  0  0  0  0  0  0  0  0  0  0
   -1.9078    4.8607    1.8845 C   0  0  0  0  0  0  0  0  0  0  0  0
    1.3667   -2.0810    0.7023 C   0  0  0  0  0  0  0  0  0  0  0  0
    0.6368   -3.2597    0.9209 C   0  0  0  0  0  0  0  0  0  0  0  0
    1.2117   -4.3763    1.4847 C   0  0  0  0  0  0  0  0  0  0  0  0
    0.4550   -5.5062    1.6789 F   0  0  0  0  0  0  0  0  0  0  0  0
    2.5363   -4.3960    1.8642 C   0  0  0  0  0  0  0  0  0  0  0  0
    3.2725   -3.2487    1.6566 C   0  0  0  0  0  0  0  0  0  0  0  0
    2.6853   -2.1479    1.0941 C   0  0  0  0  0  0  0  0  0  0  0  0
    3.5173   -0.9894    0.8246 C   0  0  0  0  0  0  0  0  0  0  0  0
    4.7255   -0.9715    1.1552 O   0  0  0  0  0  0  0  0  0  0  0  0
    6.0232    0.0636   -3.4015 H   0  0  0  0  0  0  0  0  0  0  0  0
    6.8897    1.0028   -2.2098 H   0  0  0  0  0  0  0  0  0  0  0  0
    5.7096    1.7750   -3.2413 H   0  0  0  0  0  0  0  0  0  0  0  0
    4.3911   -0.2436   -1.7641 H   0  0  0  0  0  0  0  0  0  0  0  0
    2.9233    2.2061    0.2761 H   0  0  0  0  0  0  0  0  0  0  0  0
    4.0959    1.4184    1.3020 H   0  0  0  0  0  0  0  0  0  0  0  0
    2.0005   -0.5678   -1.5118 H   0  0  0  0  0  0  0  0  0  0  0  0
    1.3169    0.9029   -0.8218 H   0  0  0  0  0  0  0  0  0  0  0  0
   -2.6106   -3.8401    0.3209 H   0  0  0  0  0  0  0  0  0  0  0  0
   -6.1827   -3.4178   -1.6271 H   0  0  0  0  0  0  0  0  0  0  0  0
   -6.7728   -1.3758   -2.7049 H   0  0  0  0  0  0  0  0  0  0  0  0
   -6.2363    0.9051   -3.3138 H   0  0  0  0  0  0  0  0  0  0  0  0
   -4.1096    1.8471   -2.6114 H   0  0  0  0  0  0  0  0  0  0  0  0
   -2.5907    0.5162   -1.3387 H   0  0  0  0  0  0  0  0  0  0  0  0
   -1.3777   -1.5688    1.9481 H   0  0  0  0  0  0  0  0  0  0  0  0
   -2.1714   -0.1228    1.4099 H   0  0  0  0  0  0  0  0  0  0  0  0
    0.4187   -0.0894    2.1194 H   0  0  0  0  0  0  0  0  0  0  0  0
   -0.7647    1.3066   -0.1829 H   0  0  0  0  0  0  0  0  0  0  0  0
    0.7399    1.7163    0.7365 H   0  0  0  0  0  0  0  0  0  0  0  0
    0.7825    3.6957    0.3272 H   0  0  0  0  0  0  0  0  0  0  0  0
    0.6876    4.4393    1.9055 H   0  0  0  0  0  0  0  0  0  0  0  0
    0.2598    5.3560    0.4808 H   0  0  0  0  0  0  0  0  0  0  0  0
   -2.9163    4.5119    1.9629 H   0  0  0  0  0  0  0  0  0  0  0  0
   -1.9002    5.8320    1.4356 H   0  0  0  0  0  0  0  0  0  0  0  0
   -1.4724    4.9154    2.8604 H   0  0  0  0  0  0  0  0  0  0  0  0
   -0.3589   -3.2902    0.6514 H   0  0  0  0  0  0  0  0  0  0  0  0
    2.9606   -5.2363    2.2871 H   0  0  0  0  0  0  0  0  0  0  0  0
    4.2683   -3.2201    1.9259 H   0  0  0  0  0  0  0  0  0  0  0  0
  1  2  1  0  0  0  0
  1 40  1  0  0  0  0
  1 41  1  0  0  0  0
  1 42  1  0  0  0  0
  2  3  1  0  0  0  0
  2 43  1  0  0  0  0
  3  4  2  0  0  0  0
  3  5  1  0  0  0  0
  5  6  1  0  0  0  0
  5 44  1  0  0  0  0
  5 45  1  0  0  0  0
  6  7  1  0  0  0  0
  7 46  1  0  0  0  0
  7 47  1  0  0  0  0
  8  7  1  0  0  0  0
  8  9  1  6  0  0  0
  8 31  1  0  0  0  0
  9 10  2  0  0  0  0
  9 11  1  0  0  0  0
 11 12  1  0  0  0  0
 11 22  1  0  0  0  0
 12 13  2  0  0  0  0
 13 14  1  0  0  0  0
 13 48  1  0  0  0  0
 14 15  2  0  0  0  0
 15 16  1  0  0  0  0
 15 49  1  0  0  0  0
 16 17  2  0  0  0  0
 17 18  1  0  0  0  0
 17 50  1  0  0  0  0
 18 19  2  0  0  0  0
 18 51  1  0  0  0  0
 19 20  1  0  0  0  0
 19 52  1  0  0  0  0
 20 21  2  0  0  0  0
 20 53  1  0  0  0  0
 21 12  1  0  0  0  0
 21 16  1  0  0  0  0
 22 23  1  0  0  0  0
 22 54  1  0  0  0  0
 22 55  1  0  0  0  0
 23 24  1  0  0  0  0
 23  8  1  0  0  0  0
 23 56  1  1  0  0  0
 24 25  1  0  0  0  0
 24 57  1  0  0  0  0
 24 58  1  0  0  0  0
 25 26  2  0  0  0  0
 25 27  2  0  0  0  0
 25 28  1  0  0  0  0
 28 29  1  0  0  0  0
 28 30  1  0  0  0  0
 29 59  1  0  0  0  0
 29 60  1  0  0  0  0
 29 61  1  0  0  0  0
 30 62  1  0  0  0  0
 30 63  1  0  0  0  0
 30 64  1  0  0  0  0
 31 32  2  0  0  0  0
 32 33  1  0  0  0  0
 32 65  1  0  0  0  0
 33 34  1  0  0  0  0
 33 35  2  0  0  0  0
 35 36  1  0  0  0  0
 35 66  1  0  0  0  0
 36 37  2  0  0  0  0
 36 67  1  0  0  0  0
 37 38  1  0  0  0  0
 37 31  1  0  0  0  0
 38 39  2  0  0  0  0
 38  6  1  0  0  0  0
M  END
$$$$

 OpenBabel07292611443D

 40 43  0  0  0  0  0  0  0  0999 V2000
    3.2394   -2.3039    0.5417 C   0  0  0  0  0  0  0  0  0  0  0  0
    4.0032   -1.1110    0.2511 N   0  0  0  0  0  0  0  0  0  0  0  0
    5.3377   -1.1085    0.2617 N   0  0  0  0  0  0  0  0  0  0  0  0
    5.8070    0.1131   -0.0242 C   0  0  0  0  0  0  0  0  0  0  0  0
    4.6823    0.8899   -0.2181 C   0  0  0  0  0  0  0  0  0  0  0  0
    4.6307    2.2325   -0.5292 C   0  0  0  0  0  0  0  0  0  0  0  0
    3.4253    2.7798   -0.6621 N   0  0  0  0  0  0  0  0  0  0  0  0
    2.2838    2.0458   -0.4987 C   0  0  0  0  0  0  0  0  0  0  0  0
    2.2977    0.7065   -0.1887 C   0  0  0  0  0  0  0  0  0  0  0  0
    1.1427   -0.0835    0.0069 N   0  0  0  0  0  0  0  0  0  0  0  0
   -0.1868    0.4603    0.1212 C   0  0  0  0  0  0  0  0  0  0  0  0
   -0.4388    1.6720    0.0639 O   0  0  0  0  0  0  0  0  0  0  0  0
   -1.3303   -0.4897    0.3206 C   0  0  2  0  0  0  0  0  0  0  0  0
   -1.3734   -1.3115   -0.9414 C   0  0  0  0  0  0  0  0  0  0  0  0
   -2.3316   -2.3836   -0.7746 N   0  0  0  0  0  0  0  0  0  0  0  0
   -3.8750   -1.6127   -1.1107 S   0  0  0  0  0  0  0  0  0  0  0  0
   -5.0210   -2.4897   -0.7686 O   0  0  0  0  0  0  0  0  0  0  0  0
   -3.8337   -1.2015   -2.5521 O   0  0  0  0  0  0  0  0  0  0  0  0
   -3.8102   -0.1693   -0.0778 C   0  0  0  0  0  0  0  0  0  0  0  0
   -4.9959    0.4915    0.0998 C   0  0  0  0  0  0  0  0  0  0  0  0
   -5.0603    1.6106    0.8990 C   0  0  0  0  0  0  0  0  0  0  0  0
   -3.8948    2.0224    1.4982 C   0  0  0  0  0  0  0  0  0  0  0  0
   -3.9757    3.4484    2.5175 Cl  0  0  0  0  0  0  0  0  0  0  0  0
   -2.6977    1.3510    1.3156 C   0  0  0  0  0  0  0  0  0  0  0  0
   -2.6158    0.2103    0.5041 C   0  0  0  0  0  0  0  0  0  0  0  0
    3.5358    0.1164   -0.0448 C   0  0  0  0  0  0  0  0  0  0  0  0
    3.9076   -3.1165    0.7367 H   0  0  0  0  0  0  0  0  0  0  0  0
    2.6206   -2.5444   -0.2974 H   0  0  0  0  0  0  0  0  0  0  0  0
    2.6248   -2.1334    1.4008 H   0  0  0  0  0  0  0  0  0  0  0  0
    6.7937    0.4090   -0.0860 H   0  0  0  0  0  0  0  0  0  0  0  0
    5.4908    2.7891   -0.6537 H   0  0  0  0  0  0  0  0  0  0  0  0
    1.3728    2.5171   -0.6129 H   0  0  0  0  0  0  0  0  0  0  0  0
    1.2524   -1.0599    0.0685 H   0  0  0  0  0  0  0  0  0  0  0  0
   -1.1866   -1.0766    1.2037 H   0  0  0  0  0  0  0  0  0  0  0  0
   -0.4048   -1.7232   -1.1344 H   0  0  0  0  0  0  0  0  0  0  0  0
   -1.6633   -0.6931   -1.7651 H   0  0  0  0  0  0  0  0  0  0  0  0
   -2.3068   -2.7497    0.1771 H   0  0  0  0  0  0  0  0  0  0  0  0
   -5.8485    0.1479   -0.3693 H   0  0  0  0  0  0  0  0  0  0  0  0
   -5.9470    2.1188    1.0420 H   0  0  0  0  0  0  0  0  0  0  0  0
   -1.8475    1.6975    1.7868 H   0  0  0  0  0  0  0  0  0  0  0  0
  1  2  1  0  0  0  0
  1 27  1  0  0  0  0
  1 28  1  0  0  0  0
  1 29  1  0  0  0  0
  2  3  1  0  0  0  0
  3  4  2  0  0  0  0
  4  5  1  0  0  0  0
  4 30  1  0  0  0  0
  5  6  2  0  0  0  0
  6  7  1  0  0  0  0
  6 31  1  0  0  0  0
  7  8  2  0  0  0  0
  8  9  1  0  0  0  0
  8 32  1  0  0  0  0
  9 10  1  0  0  0  0
  9 26  2  0  0  0  0
 10 11  1  0  0  0  0
 10 33  1  0  0  0  0
 11 12  2  0  0  0  0
 13 11  1  0  0  0  0
 13 14  1  0  0  0  0
 13 34  1  1  0  0  0
 14 15  1  0  0  0  0
 14 35  1  0  0  0  0
 14 36  1  0  0  0  0
 15 16  1  0  0  0  0
 15 37  1  0  0  0  0
 16 17  2  0  0  0  0
 16 18  2  0  0  0  0
 16 19  1  0  0  0  0
 19 20  2  0  0  0  0
 20 21  1  0  0  0  0
 20 38  1  0  0  0  0
 21 22  2  0  0  0  0
 21 39  1  0  0  0  0
 22 23  1  0  0  0  0
 22 24  1  0  0  0  0
 24 25  2  0  0  0  0
 24 40  1  0  0  0  0
 25 13  1  0  0  0  0
 25 19  1  0  0  0  0
 26  2  1  0  0  0  0
 26  5  1  0  0  0  0
M  END
$$$$

 OpenBabel07292611443D

 67 72  0  0  0  0  0  0  0  0999 V2000
   -5.5542   -2.2000    2.8961 C   0  0  0  0  0  0  0  0  0  0  0  0
   -4.3087   -2.1716    2.1482 N   0  0  0  0  0  0  0  0  0  0  0  0
   -3.2149   -3.0151    2.4875 C   0  0  0  0  0  0  0  0  0  0  0  0
   -3.3433   -3.7936    3.4541 O   0  0  0  0  0  0  0  0  0  0  0  0
   -1.9241   -2.9982    1.7268 C   0  0  0  0  0  0  0  0  0  0  0  0
   -1.9672   -2.0352    0.6471 N   0  0  0  0  0  0  0  0  0  0  0  0
   -1.5581   -0.6609    0.8397 C   0  0  0  0  0  0  0  0  0  0  0  0
   -0.5081   -0.2549   -0.1715 C   0  0  2  0  0  0  0  0  0  0  0  0
    0.7089   -1.0611    0.2122 C   0  0  0  0  0  0  0  0  0  0  0  0
    0.7647   -2.3084    0.4096 O   0  0  0  0  0  0  0  0  0  0  0  0
    1.8322   -0.1962    0.3272 N   0  0  0  0  0  0  0  0  0  0  0  0
    3.1424   -0.5992    0.6998 C   0  0  0  0  0  0  0  0  0  0  0  0
    3.5019   -0.5973    2.0335 C   0  0  0  0  0  0  0  0  0  0  0  0
    4.7243   -0.9660    2.4604 N   0  0  0  0  0  0  0  0  0  0  0  0
    5.6374   -1.3549    1.5385 C   0  0  0  0  0  0  0  0  0  0  0  0
    5.3320   -1.3763    0.1881 C   0  0  0  0  0  0  0  0  0  0  0  0
    6.2633   -1.7744   -0.7691 C   0  0  0  0  0  0  0  0  0  0  0  0
    5.9498   -1.7928   -2.1144 C   0  0  0  0  0  0  0  0  0  0  0  0
    4.6835   -1.4089   -2.5369 C   0  0  0  0  0  0  0  0  0  0  0  0
    3.7587   -1.0133   -1.5832 C   0  0  0  0  0  0  0  0  0  0  0  0
    4.0718   -0.9953   -0.2429 C   0  0  0  0  0  0  0  0  0  0  0  0
    1.4490    1.1580    0.0095 C   0  0  0  0  0  0  0  0  0  0  0  0
   -0.0678    1.1535   -0.0256 C   0  0  2  0  0  0  0  0  0  0  0  0
   -0.5014    1.7872    1.2825 C   0  0  0  0  0  0  0  0  0  0  0  0
    0.0067    3.1524    1.2642 N   0  0  0  0  0  0  0  0  0  0  0  0
   -0.3693    4.0743    0.2726 C   0  0  0  0  0  0  0  0  0  0  0  0
    0.5209    4.3048   -1.3101 S   0  0  0  0  0  0  0  0  0  0  0  0
   -0.7263    5.6631   -1.8313 C   0  0  0  0  0  0  0  0  0  0  0  0
   -1.4044    5.6701   -0.9232 N   0  0  0  0  0  0  0  0  0  0  0  0
   -1.3875    4.9762    0.1842 C   0  0  0  0  0  0  0  0  0  0  0  0
   -2.4035    5.1451    1.2882 C   0  0  0  0  0  0  0  0  0  0  0  0
   -0.9830   -0.6193   -1.5066 C   0  0  0  0  0  0  0  0  0  0  0  0
   -0.5061    0.0838   -2.6179 C   0  0  0  0  0  0  0  0  0  0  0  0
   -0.9150   -0.2183   -3.9014 C   0  0  0  0  0  0  0  0  0  0  0  0
   -0.3094    0.6726   -5.2971 Cl  0  0  0  0  0  0  0  0  0  0  0  0
   -1.8178   -1.2343   -4.1410 C   0  0  0  0  0  0  0  0  0  0  0  0
   -2.3017   -1.9415   -3.0599 C   0  0  0  0  0  0  0  0  0  0  0  0
   -1.8829   -1.6267   -1.7837 C   0  0  0  0  0  0  0  0  0  0  0  0
   -2.4188   -2.3920   -0.6610 C   0  0  0  0  0  0  0  0  0  0  0  0
   -3.2414   -3.3304   -0.7884 O   0  0  0  0  0  0  0  0  0  0  0  0
   -6.2382   -1.4920    2.4769 H   0  0  0  0  0  0  0  0  0  0  0  0
   -5.3623   -1.9484    3.9182 H   0  0  0  0  0  0  0  0  0  0  0  0
   -5.9793   -3.1806    2.8440 H   0  0  0  0  0  0  0  0  0  0  0  0
   -4.2197   -1.5530    1.3875 H   0  0  0  0  0  0  0  0  0  0  0  0
   -1.7457   -3.9716    1.3198 H   0  0  0  0  0  0  0  0  0  0  0  0
   -1.1382   -2.7209    2.3979 H   0  0  0  0  0  0  0  0  0  0  0  0
   -1.1545   -0.5518    1.8247 H   0  0  0  0  0  0  0  0  0  0  0  0
   -2.4138   -0.0317    0.7104 H   0  0  0  0  0  0  0  0  0  0  0  0
    2.8034   -0.3005    2.7328 H   0  0  0  0  0  0  0  0  0  0  0  0
    6.5792   -1.6409    1.8487 H   0  0  0  0  0  0  0  0  0  0  0  0
    7.2072   -2.0616   -0.4665 H   0  0  0  0  0  0  0  0  0  0  0  0
    6.6560   -2.0916   -2.8051 H   0  0  0  0  0  0  0  0  0  0  0  0
    4.4366   -1.4180   -3.5389 H   0  0  0  0  0  0  0  0  0  0  0  0
    2.8145   -0.7259   -1.8847 H   0  0  0  0  0  0  0  0  0  0  0  0
    1.8441    1.4446   -0.9427 H   0  0  0  0  0  0  0  0  0  0  0  0
    1.8270    1.8558    0.7272 H   0  0  0  0  0  0  0  0  0  0  0  0
   -0.4984    1.6999   -0.8386 H   0  0  0  0  0  0  0  0  0  0  0  0
   -0.0879    1.2491    2.1098 H   0  0  0  0  0  0  0  0  0  0  0  0
   -1.5660    1.7700    1.3887 H   0  0  0  0  0  0  0  0  0  0  0  0
    0.6328    3.4379    1.9683 H   0  0  0  0  0  0  0  0  0  0  0  0
   -0.7685    6.2279   -2.6940 H   0  0  0  0  0  0  0  0  0  0  0  0
   -3.1082    5.9013    1.0117 H   0  0  0  0  0  0  0  0  0  0  0  0
   -1.9055    5.4342    2.1900 H   0  0  0  0  0  0  0  0  0  0  0  0
   -2.9168    4.2195    1.4452 H   0  0  0  0  0  0  0  0  0  0  0  0
    0.1704    0.8498   -2.4743 H   0  0  0  0  0  0  0  0  0  0  0  0
   -2.1221   -1.4585   -5.1013 H   0  0  0  0  0  0  0  0  0  0  0  0
   -2.9780   -2.7072   -3.2060 H   0  0  0  0  0  0  0  0  0  0  0  0
  1  2  1  0  0  0  0
  1 41  1  0  0  0  0
  1 42  1  0  0  0  0
  1 43  1  0  0  0  0
  2  3  1  0  0  0  0
  2 44  1  0  0  0  0
  3  4  2  0  0  0  0
  3  5  1  0  0  0  0
  5  6  1  0  0  0  0
  5 45  1  0  0  0  0
  5 46  1  0  0  0  0
  6  7  1  0  0  0  0
  7 47  1  0  0  0  0
  7 48  1  0  0  0  0
  8  7  1  0  0  0  0
  8  9  1  1  0  0  0
  8 32  1  0  0  0  0
  9 10  2  0  0  0  0
  9 11  1  0  0  0  0
 11 12  1  0  0  0  0
 11 22  1  0  0  0  0
 12 13  2  0  0  0  0
 13 14  1  0  0  0  0
 13 49  1  0  0  0  0
 14 15  2  0  0  0  0
 15 16  1  0  0  0  0
 15 50  1  0  0  0  0
 16 17  2  0  0  0  0
 17 18  1  0  0  0  0
 17 51  1  0  0  0  0
 18 19  2  0  0  0  0
 18 52  1  0  0  0  0
 19 20  1  0  0  0  0
 19 53  1  0  0  0  0
 20 21  2  0  0  0  0
 20 54  1  0  0  0  0
 21 12  1  0  0  0  0
 21 16  1  0  0  0  0
 22 23  1  0  0  0  0
 22 55  1  0  0  0  0
 22 56  1  0  0  0  0
 23 24  1  0  0  0  0
 23  8  1  0  0  0  0
 23 57  1  6  0  0  0
 24 25  1  0  0  0  0
 24 58  1  0  0  0  0
 24 59  1  0  0  0  0
 25 26  1  0  0  0  0
 25 60  1  0  0  0  0
 26 27  1  0  0  0  0
 27 28  1  0  0  0  0
 28 29  2  0  0  0  0
 28 61  1  0  0  0  0
 29 30  1  0  0  0  0
 30 31  1  0  0  0  0
 30 26  2  0  0  0  0
 31 62  1  0  0  0  0
 31 63  1  0  0  0  0
 31 64  1  0  0  0  0
 32 33  2  0  0  0  0
 33 34  1  0  0  0  0
 33 65  1  0  0  0  0
 34 35  1  0  0  0  0
 34 36  2  0  0  0  0
 36 37  1  0  0  0  0
 36 66  1  0  0  0  0
 37 38  2  0  0  0  0
 37 67  1  0  0  0  0
 38 39  1  0  0  0  0
 38 32  1  0  0  0  0
 39 40  2  0  0  0  0
 39  6  1  0  0  0  0
M  END
$$$$

 OpenBabel07292611443D

 60 64  0  0  0  0  0  0  0  0999 V2000
    4.7789   -0.0816    2.8123 C   0  0  0  0  0  0  0  0  0  0  0  0
    4.1012    0.3646    1.6138 N   0  0  0  0  0  0  0  0  0  0  0  0
    4.3484    1.6828    1.1654 C   0  0  0  0  0  0  0  0  0  0  0  0
    5.1556    2.3700    1.8642 O   0  0  0  0  0  0  0  0  0  0  0  0
    3.7679    2.3139   -0.0142 C   0  0  0  0  0  0  0  0  0  0  0  0
    2.8459    1.4339   -0.7135 N   0  0  0  0  0  0  0  0  0  0  0  0
    1.4345    1.4093   -0.5132 C   0  0  0  0  0  0  0  0  0  0  0  0
    0.7507    0.0804   -0.5031 C   0  0  2  0  0  0  0  0  0  0  0  0
   -0.6652    0.3361   -0.9607 C   0  0  0  0  0  0  0  0  0  0  0  0
   -1.0492    1.2633   -1.7460 O   0  0  0  0  0  0  0  0  0  0  0  0
   -1.5396   -0.6192   -0.3853 N   0  0  0  0  0  0  0  0  0  0  0  0
   -2.8468   -1.0226   -0.7929 C   0  0  0  0  0  0  0  0  0  0  0  0
   -3.0795   -2.0664   -1.6637 C   0  0  0  0  0  0  0  0  0  0  0  0
   -4.3413   -2.4338   -2.0368 N   0  0  0  0  0  0  0  0  0  0  0  0
   -5.4439   -1.8147   -1.5905 C   0  0  0  0  0  0  0  0  0  0  0  0
   -5.2641   -0.7656   -0.7187 C   0  0  0  0  0  0  0  0  0  0  0  0
   -6.4104   -0.1332   -0.2664 C   0  0  0  0  0  0  0  0  0  0  0  0
   -6.3075    0.9282    0.6084 C   0  0  0  0  0  0  0  0  0  0  0  0
   -5.0439    1.3190    1.0004 C   0  0  0  0  0  0  0  0  0  0  0  0
   -3.9310    0.6886    0.5479 C   0  0  0  0  0  0  0  0  0  0  0  0
   -3.9950   -0.3729   -0.3244 C   0  0  0  0  0  0  0  0  0  0  0  0
   -0.8437   -1.1500    0.7585 C   0  0  0  0  0  0  0  0  0  0  0  0
    0.5304   -0.5441    0.8200 C   0  0  2  0  0  0  0  0  0  0  0  0
    0.5268    0.4814    1.9302 C   0  0  0  0  0  0  0  0  0  0  0  0
   -0.4878    1.3796    1.7129 O   0  0  0  0  0  0  0  0  0  0  0  0
   -0.5714    2.3649    2.6853 C   0  0  0  0  0  0  0  0  0  0  0  0
    1.4238   -0.8367   -1.4756 C   0  0  0  0  0  0  0  0  0  0  0  0
    0.7911   -2.0178   -1.8829 C   0  0  0  0  0  0  0  0  0  0  0  0
    1.3581   -2.8811   -2.7905 C   0  0  0  0  0  0  0  0  0  0  0  0
    0.4598   -4.3366   -3.2226 Cl  0  0  0  0  0  0  0  0  0  0  0  0
    2.5734   -2.6278   -3.3425 C   0  0  0  0  0  0  0  0  0  0  0  0
    3.2308   -1.4760   -2.9681 C   0  0  0  0  0  0  0  0  0  0  0  0
    2.6493   -0.6051   -2.0463 C   0  0  0  0  0  0  0  0  0  0  0  0
    3.4400    0.5651   -1.6901 C   0  0  0  0  0  0  0  0  0  0  0  0
    4.5582    0.7891   -2.2047 O   0  0  0  0  0  0  0  0  0  0  0  0
    4.4961   -1.0910    3.0271 H   0  0  0  0  0  0  0  0  0  0  0  0
    4.5043    0.5480    3.6327 H   0  0  0  0  0  0  0  0  0  0  0  0
    5.8373   -0.0318    2.6631 H   0  0  0  0  0  0  0  0  0  0  0  0
    3.4874   -0.2309    1.1261 H   0  0  0  0  0  0  0  0  0  0  0  0
    4.5578    2.5860   -0.6827 H   0  0  0  0  0  0  0  0  0  0  0  0
    3.2180    3.1723    0.3110 H   0  0  0  0  0  0  0  0  0  0  0  0
    0.9918    1.9891   -1.2960 H   0  0  0  0  0  0  0  0  0  0  0  0
    1.2985    1.7876    0.4784 H   0  0  0  0  0  0  0  0  0  0  0  0
   -2.2744   -2.5868   -2.0458 H   0  0  0  0  0  0  0  0  0  0  0  0
   -6.3863   -2.1122   -1.8880 H   0  0  0  0  0  0  0  0  0  0  0  0
   -7.3384   -0.4551   -0.5829 H   0  0  0  0  0  0  0  0  0  0  0  0
   -7.1481    1.4140    0.9582 H   0  0  0  0  0  0  0  0  0  0  0  0
   -4.9426    2.1109    1.6544 H   0  0  0  0  0  0  0  0  0  0  0  0
   -3.0064    1.0162    0.8686 H   0  0  0  0  0  0  0  0  0  0  0  0
   -0.7632   -2.2131    0.6679 H   0  0  0  0  0  0  0  0  0  0  0  0
   -1.3833   -0.9135    1.6517 H   0  0  0  0  0  0  0  0  0  0  0  0
    1.3080   -1.2505    1.0232 H   0  0  0  0  0  0  0  0  0  0  0  0
    1.4642    0.9971    1.9438 H   0  0  0  0  0  0  0  0  0  0  0  0
    0.3782   -0.0076    2.8702 H   0  0  0  0  0  0  0  0  0  0  0  0
   -1.3797    3.0268    2.4539 H   0  0  0  0  0  0  0  0  0  0  0  0
    0.3448    2.9169    2.7134 H   0  0  0  0  0  0  0  0  0  0  0  0
   -0.7438    1.9112    3.6389 H   0  0  0  0  0  0  0  0  0  0  0  0
   -0.1339   -2.2485   -1.4877 H   0  0  0  0  0  0  0  0  0  0  0  0
    2.9927   -3.2801   -4.0235 H   0  0  0  0  0  0  0  0  0  0  0  0
    4.1555   -1.2571   -3.3706 H   0  0  0  0  0  0  0  0  0  0  0  0
  1  2  1  0  0  0  0
  1 36  1  0  0  0  0
  1 37  1  0  0  0  0
  1 38  1  0  0  0  0
  2  3  1  0  0  0  0
  2 39  1  0  0  0  0
  3  4  2  0  0  0  0
  3  5  1  0  0  0  0
  5  6  1  0  0  0  0
  5 40  1  0  0  0  0
  5 41  1  0  0  0  0
  6  7  1  0  0  0  0
  7 42  1  0  0  0  0
  7 43  1  0  0  0  0
  8  7  1  0  0  0  0
  8  9  1  6  0  0  0
  8 27  1  0  0  0  0
  9 10  2  0  0  0  0
  9 11  1  0  0  0  0
 11 12  1  0  0  0  0
 11 22  1  0  0  0  0
 12 13  2  0  0  0  0
 13 14  1  0  0  0  0
 13 44  1  0  0  0  0
 14 15  2  0  0  0  0
 15 16  1  0  0  0  0
 15 45  1  0  0  0  0
 16 17  2  0  0  0  0
 17 18  1  0  0  0  0
 17 46  1  0  0  0  0
 18 19  2  0  0  0  0
 18 47  1  0  0  0  0
 19 20  1  0  0  0  0
 19 48  1  0  0  0  0
 20 21  2  0  0  0  0
 20 49  1  0  0  0  0
 21 12  1  0  0  0  0
 21 16  1  0  0  0  0
 22 23  1  0  0  0  0
 22 50  1  0  0  0  0
 22 51  1  0  0  0  0
 23 24  1  0  0  0  0
 23  8  1  0  0  0  0
 23 52  1  1  0  0  0
 24 25  1  0  0  0  0
 24 53  1  0  0  0  0
 24 54  1  0  0  0  0
 25 26  1  0  0  0  0
 26 55  1  0  0  0  0
 26 56  1  0  0  0  0
 26 57  1  0  0  0  0
 27 28  2  0  0  0  0
 28 29  1  0  0  0  0
 28 58  1  0  0  0  0
 29 30  1  0  0  0  0
 29 31  2  0  0  0  0
 31 32  1  0  0  0  0
 31 59  1  0  0  0  0
 32 33  2  0  0  0  0
 32 60  1  0  0  0  0
 33 34  1  0  0  0  0
 33 27  1  0  0  0  0
 34 35  2  0  0  0  0
 34  6  1  0  0  0  0
M  END
$$$$

 OpenBabel07292611443D

 66 71  0  0  0  0  0  0  0  0999 V2000
    5.3932   -1.5489   -2.8191 C   0  0  0  0  0  0  0  0  0  0  0  0
    4.2358   -1.6510   -1.9497 N   0  0  0  0  0  0  0  0  0  0  0  0
    3.2346   -2.6558   -2.1103 C   0  0  0  0  0  0  0  0  0  0  0  0
    3.3539   -3.4970   -3.0484 O   0  0  0  0  0  0  0  0  0  0  0  0
    2.0847   -2.6812   -1.1704 C   0  0  0  0  0  0  0  0  0  0  0  0
    2.1600   -1.6246   -0.1812 N   0  0  0  0  0  0  0  0  0  0  0  0
    1.5887   -0.3074   -0.3688 C   0  0  0  0  0  0  0  0  0  0  0  0
    0.6272   -0.0347    0.7424 C   0  0  2  0  0  0  0  0  0  0  0  0
   -0.5315   -0.9998    0.6587 C   0  0  0  0  0  0  0  0  0  0  0  0
   -0.5010   -2.2189    1.0411 O   0  0  0  0  0  0  0  0  0  0  0  0
   -1.6554   -0.3367    0.0893 N   0  0  0  0  0  0  0  0  0  0  0  0
   -2.9966   -0.8087    0.1223 C   0  0  0  0  0  0  0  0  0  0  0  0
   -3.7573   -0.3975    1.2222 C   0  0  0  0  0  0  0  0  0  0  0  0
   -5.0292   -0.7831    1.3526 N   0  0  0  0  0  0  0  0  0  0  0  0
   -5.6036   -1.5785    0.4221 C   0  0  0  0  0  0  0  0  0  0  0  0
   -4.8630   -1.9958   -0.6757 C   0  0  0  0  0  0  0  0  0  0  0  0
   -5.4627   -2.8082   -1.6182 C   0  0  0  0  0  0  0  0  0  0  0  0
   -4.7184   -3.2193   -2.7082 C   0  0  0  0  0  0  0  0  0  0  0  0
   -3.3844   -2.8257   -2.8621 C   0  0  0  0  0  0  0  0  0  0  0  0
   -2.7743   -2.0070   -1.9156 C   0  0  0  0  0  0  0  0  0  0  0  0
   -3.5391   -1.6202   -0.8523 C   0  0  0  0  0  0  0  0  0  0  0  0
   -1.1360    0.8811   -0.5065 C   0  0  0  0  0  0  0  0  0  0  0  0
   -0.0770    1.2602    0.5409 C   0  0  2  0  0  0  0  0  0  0  0  0
    0.8917    2.2705   -0.0288 C   0  0  0  0  0  0  0  0  0  0  0  0
    0.2414    3.5894   -0.2503 C   0  0  0  0  0  0  0  0  0  0  0  0
   -0.3779    3.9072   -1.4559 C   0  0  0  0  0  0  0  0  0  0  0  0
   -0.9850    5.1230   -1.6777 C   0  0  0  0  0  0  0  0  0  0  0  0
   -0.9928    6.0883   -0.6723 C   0  0  0  0  0  0  0  0  0  0  0  0
   -0.3771    5.7824    0.5372 C   0  0  0  0  0  0  0  0  0  0  0  0
    0.2264    4.5653    0.7488 C   0  0  0  0  0  0  0  0  0  0  0  0
    1.2809   -0.2129    2.0472 C   0  0  0  0  0  0  0  0  0  0  0  0
    0.8912    0.4670    3.1860 C   0  0  0  0  0  0  0  0  0  0  0  0
    1.5295    0.2688    4.4155 C   0  0  0  0  0  0  0  0  0  0  0  0
    1.0330    1.1321    5.8576 Cl  0  0  0  0  0  0  0  0  0  0  0  0
    2.5781   -0.6161    4.5446 C   0  0  0  0  0  0  0  0  0  0  0  0
    2.9733   -1.2984    3.4135 C   0  0  0  0  0  0  0  0  0  0  0  0
    2.3405   -1.0980    2.2073 C   0  0  0  0  0  0  0  0  0  0  0  0
    2.8334   -1.8596    1.0653 C   0  0  0  0  0  0  0  0  0  0  0  0
    3.7845   -2.6786    1.1317 O   0  0  0  0  0  0  0  0  0  0  0  0
    6.0010   -0.7249   -2.5085 H   0  0  0  0  0  0  0  0  0  0  0  0
    5.0695   -1.3934   -3.8270 H   0  0  0  0  0  0  0  0  0  0  0  0
    5.9624   -2.4532   -2.7628 H   0  0  0  0  0  0  0  0  0  0  0  0
    4.1369   -0.9997   -1.2181 H   0  0  0  0  0  0  0  0  0  0  0  0
    2.0733   -3.6248   -0.6660 H   0  0  0  0  0  0  0  0  0  0  0  0
    1.1919   -2.5326   -1.7411 H   0  0  0  0  0  0  0  0  0  0  0  0
    1.0745   -0.2690   -1.3064 H   0  0  0  0  0  0  0  0  0  0  0  0
    2.3653    0.4287   -0.3654 H   0  0  0  0  0  0  0  0  0  0  0  0
   -3.3313    0.2097    1.9397 H   0  0  0  0  0  0  0  0  0  0  0  0
   -6.5869   -1.8737    0.5273 H   0  0  0  0  0  0  0  0  0  0  0  0
   -6.4461   -3.1022   -1.5109 H   0  0  0  0  0  0  0  0  0  0  0  0
   -5.1537   -3.8265   -3.4201 H   0  0  0  0  0  0  0  0  0  0  0  0
   -2.8483   -3.1450   -3.6841 H   0  0  0  0  0  0  0  0  0  0  0  0
   -1.7917   -1.7069   -2.0128 H   0  0  0  0  0  0  0  0  0  0  0  0
   -1.8921    1.6328   -0.5968 H   0  0  0  0  0  0  0  0  0  0  0  0
   -0.7644    0.7718   -1.5039 H   0  0  0  0  0  0  0  0  0  0  0  0
   -0.4867    1.6922    1.4300 H   0  0  0  0  0  0  0  0  0  0  0  0
    1.2639    1.9058   -0.9633 H   0  0  0  0  0  0  0  0  0  0  0  0
    1.6873    2.4040    0.6741 H   0  0  0  0  0  0  0  0  0  0  0  0
   -0.3821    3.2049   -2.2121 H   0  0  0  0  0  0  0  0  0  0  0  0
   -1.4333    5.3191   -2.5864 H   0  0  0  0  0  0  0  0  0  0  0  0
   -1.4430    7.0049   -0.8210 H   0  0  0  0  0  0  0  0  0  0  0  0
   -0.3733    6.4852    1.2929 H   0  0  0  0  0  0  0  0  0  0  0  0
    0.6742    4.3702    1.6579 H   0  0  0  0  0  0  0  0  0  0  0  0
    0.1093    1.1381    3.1280 H   0  0  0  0  0  0  0  0  0  0  0  0
    3.0486   -0.7622    5.4514 H   0  0  0  0  0  0  0  0  0  0  0  0
    3.7552   -1.9694    3.4719 H   0  0  0  0  0  0  0  0  0  0  0  0
  1  2  1  0  0  0  0
  1 40  1  0  0  0  0
  1 41  1  0  0  0  0
  1 42  1  0  0  0  0
  2  3  1  0  0  0  0
  2 43  1  0  0  0  0
  3  4  2  0  0  0  0
  3  5  1  0  0  0  0
  5  6  1  0  0  0  0
  5 44  1  0  0  0  0
  5 45  1  0  0  0  0
  6  7  1  0  0  0  0
  7 46  1  0  0  0  0
  7 47  1  0  0  0  0
  8  7  1  0  0  0  0
  8  9  1  6  0  0  0
  8 31  1  0  0  0  0
  9 10  2  0  0  0  0
  9 11  1  0  0  0  0
 11 12  1  0  0  0  0
 11 22  1  0  0  0  0
 12 13  2  0  0  0  0
 13 14  1  0  0  0  0
 13 48  1  0  0  0  0
 14 15  2  0  0  0  0
 15 16  1  0  0  0  0
 15 49  1  0  0  0  0
 16 17  2  0  0  0  0
 17 18  1  0  0  0  0
 17 50  1  0  0  0  0
 18 19  2  0  0  0  0
 18 51  1  0  0  0  0
 19 20  1  0  0  0  0
 19 52  1  0  0  0  0
 20 21  2  0  0  0  0
 20 53  1  0  0  0  0
 21 12  1  0  0  0  0
 21 16  1  0  0  0  0
 22 23  1  0  0  0  0
 22 54  1  0  0  0  0
 22 55  1  0  0  0  0
 23 24  1  0  0  0  0
 23  8  1  0  0  0  0
 23 56  1  1  0  0  0
 24 25  1  0  0  0  0
 24 57  1  0  0  0  0
 24 58  1  0  0  0  0
 25 26  2  0  0  0  0
 26 27  1  0  0  0  0
 26 59  1  0  0  0  0
 27 28  2  0  0  0  0
 27 60  1  0  0  0  0
 28 29  1  0  0  0  0
 28 61  1  0  0  0  0
 29 30  2  0  0  0  0
 29 62  1  0  0  0  0
 30 25  1  0  0  0  0
 30 63  1  0  0  0  0
 31 32  2  0  0  0  0
 32 33  1  0  0  0  0
 32 64  1  0  0  0  0
 33 34  1  0  0  0  0
 33 35  2  0  0  0  0
 35 36  1  0  0  0  0
 35 65  1  0  0  0  0
 36 37  2  0  0  0  0
 36 66  1  0  0  0  0
 37 38  1  0  0  0  0
 37 31  1  0  0  0  0
 38 39  2  0  0  0  0
 38  6  1  0  0  0  0
M  END
$$$$

 OpenBabel07292611443D

 50 54  0  0  0  0  0  0  0  0999 V2000
   -0.1553   -1.6133   -2.3579 C   0  0  0  0  0  0  0  0  0  0  0  0
   -0.4773   -1.8255   -0.8725 C   0  0  1  0  0  0  0  0  0  0  0  0
    0.7600   -1.9688   -0.0828 C   0  0  0  0  0  0  0  0  0  0  0  0
    0.9550   -0.7321    0.6080 N   0  0  0  0  0  0  0  0  0  0  0  0
    2.2033   -0.2909    1.1202 C   0  0  0  0  0  0  0  0  0  0  0  0
    2.5168   -0.6745    2.4273 C   0  0  0  0  0  0  0  0  0  0  0  0
    3.6751   -0.3011    2.9884 N   0  0  0  0  0  0  0  0  0  0  0  0
    4.5667    0.4481    2.3190 C   0  0  0  0  0  0  0  0  0  0  0  0
    4.3013    0.8579    1.0097 C   0  0  0  0  0  0  0  0  0  0  0  0
    5.2363    1.6268    0.3469 C   0  0  0  0  0  0  0  0  0  0  0  0
    4.9226    2.0067   -0.9530 C   0  0  0  0  0  0  0  0  0  0  0  0
    3.7344    1.6323   -1.5492 C   0  0  0  0  0  0  0  0  0  0  0  0
    2.8256    0.8659   -0.8594 C   0  0  0  0  0  0  0  0  0  0  0  0
    3.1062    0.4734    0.4291 C   0  0  0  0  0  0  0  0  0  0  0  0
   -0.2970   -0.0935    0.6791 C   0  0  0  0  0  0  0  0  0  0  0  0
   -0.5410    0.8096    1.5524 O   0  0  0  0  0  0  0  0  0  0  0  0
   -1.1968   -0.6298   -0.3671 C   0  0  1  0  0  0  0  0  0  0  0  0
   -1.3972    0.4264   -1.3946 C   0  0  0  0  0  0  0  0  0  0  0  0
   -2.3293    1.4330   -0.9765 N   0  0  0  0  0  0  0  0  0  0  0  0
   -2.0908    2.8648   -1.2129 C   0  0  0  0  0  0  0  0  0  0  0  0
   -1.3931    3.4483   -0.0836 C   0  0  0  0  0  0  0  0  0  0  0  0
   -0.8244    3.9070    0.7998 N   0  0  0  0  0  0  0  0  0  0  0  0
   -3.5493    1.1052   -0.3247 C   0  0  0  0  0  0  0  0  0  0  0  0
   -4.5009    1.8967   -0.3487 O   0  0  0  0  0  0  0  0  0  0  0  0
   -3.5943   -0.1849    0.3492 C   0  0  0  0  0  0  0  0  0  0  0  0
   -4.7634   -0.5345    0.9912 C   0  0  0  0  0  0  0  0  0  0  0  0
   -4.8393   -1.7484    1.6390 C   0  0  0  0  0  0  0  0  0  0  0  0
   -3.7280   -2.5615    1.6116 C   0  0  0  0  0  0  0  0  0  0  0  0
   -3.8085   -3.7600    2.2535 F   0  0  0  0  0  0  0  0  0  0  0  0
   -2.5489   -2.1903    0.9548 C   0  0  0  0  0  0  0  0  0  0  0  0
   -2.4745   -0.9704    0.3043 C   0  0  0  0  0  0  0  0  0  0  0  0
    0.3642   -2.4689   -2.7360 H   0  0  0  0  0  0  0  0  0  0  0  0
    0.4596   -0.7447   -2.4690 H   0  0  0  0  0  0  0  0  0  0  0  0
   -1.0653   -1.4783   -2.9044 H   0  0  0  0  0  0  0  0  0  0  0  0
   -1.0681   -2.7124   -0.7762 H   0  0  0  0  0  0  0  0  0  0  0  0
    1.5895   -2.1640   -0.7300 H   0  0  0  0  0  0  0  0  0  0  0  0
    0.6840   -2.7849    0.6051 H   0  0  0  0  0  0  0  0  0  0  0  0
    1.8503   -1.2504    2.9650 H   0  0  0  0  0  0  0  0  0  0  0  0
    5.4516    0.7223    2.7737 H   0  0  0  0  0  0  0  0  0  0  0  0
    6.1237    1.9057    0.7938 H   0  0  0  0  0  0  0  0  0  0  0  0
    5.5937    2.5823   -1.4853 H   0  0  0  0  0  0  0  0  0  0  0  0
    3.5282    1.9290   -2.5159 H   0  0  0  0  0  0  0  0  0  0  0  0
    1.9379    0.5865   -1.3054 H   0  0  0  0  0  0  0  0  0  0  0  0
   -1.7653   -0.0311   -2.2891 H   0  0  0  0  0  0  0  0  0  0  0  0
   -0.4539    0.9051   -1.5555 H   0  0  0  0  0  0  0  0  0  0  0  0
   -3.0288    3.3625   -1.3446 H   0  0  0  0  0  0  0  0  0  0  0  0
   -1.4908    2.9789   -2.0914 H   0  0  0  0  0  0  0  0  0  0  0  0
   -5.5727    0.1059    0.9866 H   0  0  0  0  0  0  0  0  0  0  0  0
   -5.7003   -2.0386    2.1284 H   0  0  0  0  0  0  0  0  0  0  0  0
   -1.7356   -2.8255    0.9555 H   0  0  0  0  0  0  0  0  0  0  0  0
  1 32  1  0  0  0  0
  1 33  1  0  0  0  0
  1 34  1  0  0  0  0
  2  1  1  0  0  0  0
  2  3  1  0  0  0  0
  2 35  1  1  0  0  0
  3  4  1  0  0  0  0
  3 36  1  0  0  0  0
  3 37  1  0  0  0  0
  4  5  1  0  0  0  0
  4 15  1  0  0  0  0
  5  6  2  0  0  0  0
  6  7  1  0  0  0  0
  6 38  1  0  0  0  0
  7  8  2  0  0  0  0
  8  9  1  0  0  0  0
  8 39  1  0  0  0  0
  9 10  2  0  0  0  0
 10 11  1  0  0  0  0
 10 40  1  0  0  0  0
 11 12  2  0  0  0  0
 11 41  1  0  0  0  0
 12 13  1  0  0  0  0
 12 42  1  0  0  0  0
 13 14  2  0  0  0  0
 13 43  1  0  0  0  0
 14  5  1  0  0  0  0
 14  9  1  0  0  0  0
 15 16  2  0  0  0  0
 17 15  1  1  0  0  0
 17 18  1  0  0  0  0
 17  2  1  0  0  0  0
 18 19  1  0  0  0  0
 18 44  1  0  0  0  0
 18 45  1  0  0  0  0
 19 20  1  0  0  0  0
 19 23  1  0  0  0  0
 20 21  1  0  0  0  0
 20 46  1  0  0  0  0
 20 47  1  0  0  0  0
 21 22  3  0  0  0  0
 23 24  2  0  0  0  0
 23 25  1  0  0  0  0
 25 26  2  0  0  0  0
 26 27  1  0  0  0  0
 26 48  1  0  0  0  0
 27 28  2  0  0  0  0
 27 49  1  0  0  0  0
 28 29  1  0  0  0  0
 28 30  1  0  0  0  0
 30 31  2  0  0  0  0
 30 50  1  0  0  0  0
 31 25  1  0  0  0  0
 31 17  1  0  0  0  0
M  END
$$$$

 OpenBabel07292611443D

 58 63  0  0  0  0  0  0  0  0999 V2000
    1.4141   -0.9674   -0.6836 O   0  0  0  0  0  0  0  0  0  0  0  0
    0.9040    0.1508   -1.0580 C   0  0  0  0  0  0  0  0  0  0  0  0
    1.8777    1.1839   -1.4517 C   0  0  0  0  0  0  0  0  0  0  0  0
    3.2842    0.6346   -1.3811 C   0  0  0  0  0  0  0  0  0  0  0  0
    3.9370    0.2693   -2.5623 C   0  0  0  0  0  0  0  0  0  0  0  0
    5.1932   -0.2278   -2.5198 N   0  0  0  0  0  0  0  0  0  0  0  0
    5.8371   -0.3811   -1.3565 C   0  0  0  0  0  0  0  0  0  0  0  0
    5.2130   -0.0259   -0.1603 C   0  0  0  0  0  0  0  0  0  0  0  0
    5.9462   -0.2125    0.9925 C   0  0  0  0  0  0  0  0  0  0  0  0
    5.3336    0.1412    2.1866 C   0  0  0  0  0  0  0  0  0  0  0  0
    4.0558    0.6495    2.1740 C   0  0  0  0  0  0  0  0  0  0  0  0
    3.3191    0.8380    1.0256 C   0  0  0  0  0  0  0  0  0  0  0  0
    3.9321    0.4836   -0.1743 C   0  0  0  0  0  0  0  0  0  0  0  0
   -0.5218    0.3304   -1.0774 N   0  0  0  0  0  0  0  0  0  0  0  0
   -1.1684    1.5596   -1.4674 C   0  0  0  0  0  0  0  0  0  0  0  0
   -1.4726    2.5098   -0.4025 C   0  0  0  0  0  0  0  0  0  0  0  0
   -0.6638    3.5461    0.0070 C   0  0  0  0  0  0  0  0  0  0  0  0
   -1.0215    4.4171    1.0378 C   0  0  0  0  0  0  0  0  0  0  0  0
   -2.2176    4.2847    1.7074 C   0  0  0  0  0  0  0  0  0  0  0  0
   -3.0379    3.2527    1.3075 C   0  0  0  0  0  0  0  0  0  0  0  0
   -4.5870    3.0336    2.1302 Cl  0  0  0  0  0  0  0  0  0  0  0  0
   -2.6852    2.3887    0.2868 C   0  0  0  0  0  0  0  0  0  0  0  0
   -1.3095   -0.7848   -0.7073 C   0  0  2  0  0  0  0  0  0  0  0  0
   -1.2377   -1.3919    0.6369 C   0  0  0  0  0  0  0  0  0  0  0  0
   -2.0563   -2.5972    0.4122 N   0  3  1  0  0  0  0  0  0  0  0  0
   -3.2211   -2.5905    1.2681 C   0  0  0  0  0  0  0  0  0  0  0  0
   -3.6958   -3.9857    1.6585 C   0  0  0  0  0  0  0  0  0  0  0  0
   -4.5265   -3.0582    0.7991 C   0  0  0  0  0  0  0  0  0  0  0  0
   -2.3808   -2.4518   -0.9755 C   0  0  2  0  0  0  0  0  0  0  0  0
   -1.0533   -2.0507   -1.5761 C   0  0  0  0  0  0  0  0  0  0  0  0
   -2.7148   -0.9508   -1.1396 C   0  0  0  0  0  0  0  0  0  0  0  0
    1.7919    2.0202   -0.7897 H   0  0  0  0  0  0  0  0  0  0  0  0
    1.6736    1.4890   -2.4568 H   0  0  0  0  0  0  0  0  0  0  0  0
    3.4581    0.3796   -3.4698 H   0  0  0  0  0  0  0  0  0  0  0  0
    6.7960   -0.7624   -1.3443 H   0  0  0  0  0  0  0  0  0  0  0  0
    6.9038   -0.5965    0.9686 H   0  0  0  0  0  0  0  0  0  0  0  0
    5.8352    0.0232    3.0808 H   0  0  0  0  0  0  0  0  0  0  0  0
    3.6244    0.9042    3.0763 H   0  0  0  0  0  0  0  0  0  0  0  0
    2.3617    1.2222    1.0526 H   0  0  0  0  0  0  0  0  0  0  0  0
   -2.0907    1.3027   -1.9452 H   0  0  0  0  0  0  0  0  0  0  0  0
   -0.4619    2.0603   -2.0959 H   0  0  0  0  0  0  0  0  0  0  0  0
    0.2426    3.6845   -0.4667 H   0  0  0  0  0  0  0  0  0  0  0  0
   -0.3755    5.1767    1.3038 H   0  0  0  0  0  0  0  0  0  0  0  0
   -2.4858    4.9261    2.4701 H   0  0  0  0  0  0  0  0  0  0  0  0
   -3.3358    1.6315    0.0252 H   0  0  0  0  0  0  0  0  0  0  0  0
   -1.6635   -0.7554    1.3842 H   0  0  0  0  0  0  0  0  0  0  0  0
   -0.2475   -1.5781    0.9970 H   0  0  0  0  0  0  0  0  0  0  0  0
   -1.5987   -3.4831    0.6272 H   0  0  0  0  0  0  0  0  0  0  0  0
   -2.9294   -1.6808    1.7500 H   0  0  0  0  0  0  0  0  0  0  0  0
   -3.9874   -4.1960    2.6663 H   0  0  0  0  0  0  0  0  0  0  0  0
   -3.3143   -4.9815    1.5704 H   0  0  0  0  0  0  0  0  0  0  0  0
   -5.4200   -2.6242    1.1969 H   0  0  0  0  0  0  0  0  0  0  0  0
   -4.9886   -3.1437   -0.1622 H   0  0  0  0  0  0  0  0  0  0  0  0
   -3.0088   -3.2533   -1.3041 H   0  0  0  0  0  0  0  0  0  0  0  0
   -1.0451   -1.8983   -2.6352 H   0  0  0  0  0  0  0  0  0  0  0  0
   -0.1634   -2.6440   -1.5467 H   0  0  0  0  0  0  0  0  0  0  0  0
   -3.4547   -0.5644   -0.4701 H   0  0  0  0  0  0  0  0  0  0  0  0
   -3.1263   -0.5193   -2.0281 H   0  0  0  0  0  0  0  0  0  0  0  0
  1  2  2  0  0  0  0
  2  3  1  0  0  0  0
  2 14  1  0  0  0  0
  3  4  1  0  0  0  0
  3 32  1  0  0  0  0
  3 33  1  0  0  0  0
  4  5  2  0  0  0  0
  5  6  1  0  0  0  0
  5 34  1  0  0  0  0
  6  7  2  0  0  0  0
  7  8  1  0  0  0  0
  7 35  1  0  0  0  0
  8  9  2  0  0  0  0
  9 10  1  0  0  0  0
  9 36  1  0  0  0  0
 10 11  2  0  0  0  0
 10 37  1  0  0  0  0
 11 12  1  0  0  0  0
 11 38  1  0  0  0  0
 12 13  2  0  0  0  0
 12 39  1  0  0  0  0
 13  4  1  0  0  0  0
 13  8  1  0  0  0  0
 14 15  1  0  0  0  0
 15 16  1  0  0  0  0
 15 40  1  0  0  0  0
 15 41  1  0  0  0  0
 16 17  2  0  0  0  0
 17 18  1  0  0  0  0
 17 42  1  0  0  0  0
 18 19  2  0  0  0  0
 18 43  1  0  0  0  0
 19 20  1  0  0  0  0
 19 44  1  0  0  0  0
 20 21  1  0  0  0  0
 20 22  2  0  0  0  0
 22 16  1  0  0  0  0
 22 45  1  0  0  0  0
 23 14  1  6  0  0  0
 23 24  1  0  0  0  0
 24 25  1  0  0  0  0
 24 46  1  0  0  0  0
 24 47  1  0  0  0  0
 25 26  1  0  0  0  0
 25 29  1  0  0  0  0
 25 48  1  1  0  0  0
 26 27  1  0  0  0  0
 26 49  1  0  0  0  0
 27 28  1  0  0  0  0
 27 50  1  0  0  0  0
 27 51  1  0  0  0  0
 28 26  1  0  0  0  0
 28 52  1  0  0  0  0
 28 53  1  0  0  0  0
 29 30  1  0  0  0  0
 29 31  1  0  0  0  0
 29 54  1  6  0  0  0
 30 23  1  0  0  0  0
 30 55  1  0  0  0  0
 30 56  1  0  0  0  0
 31 23  1  0  0  0  0
 31 57  1  0  0  0  0
 31 58  1  0  0  0  0
M  CHG  1  25   1
M  END
$$$$

 OpenBabel07292611443D

 46 48  0  0  0  0  0  0  0  0999 V2000
    5.3513   -1.3811    0.3926 C   0  0  0  0  0  0  0  0  0  0  0  0
    4.4106   -0.4065    1.1137 C   0  0  0  0  0  0  0  0  0  0  0  0
    5.2461    0.7728    1.5192 C   0  0  0  0  0  0  0  0  0  0  0  0
    3.3189   -0.0490    0.1320 C   0  0  0  0  0  0  0  0  0  0  0  0
    2.5741   -1.2528   -0.2932 C   0  0  0  0  0  0  0  0  0  0  0  0
    1.1131   -1.1337   -0.5334 C   0  0  0  0  0  0  0  0  0  0  0  0
    0.4726   -0.0578    0.1873 N   0  0  0  0  0  0  0  0  0  0  0  0
   -0.8293    0.4160   -0.1290 C   0  0  0  0  0  0  0  0  0  0  0  0
   -1.3646    1.3575    0.5176 O   0  0  0  0  0  0  0  0  0  0  0  0
   -1.5331   -0.2479   -1.2570 C   0  0  0  0  0  0  0  0  0  0  0  0
   -2.8517    0.3949   -1.4130 C   0  0  0  0  0  0  0  0  0  0  0  0
   -3.0742    1.2950   -2.4549 C   0  0  0  0  0  0  0  0  0  0  0  0
   -4.2639    1.9026   -2.6322 N   0  0  0  0  0  0  0  0  0  0  0  0
   -5.3301    1.6905   -1.8207 C   0  0  0  0  0  0  0  0  0  0  0  0
   -5.1328    0.8014   -0.7803 C   0  0  0  0  0  0  0  0  0  0  0  0
   -6.2320    0.5862    0.0527 C   0  0  0  0  0  0  0  0  0  0  0  0
   -6.0451   -0.2991    1.0941 C   0  0  0  0  0  0  0  0  0  0  0  0
   -4.8426   -0.9419    1.3098 C   0  0  0  0  0  0  0  0  0  0  0  0
   -3.7784   -0.6991    0.4593 C   0  0  0  0  0  0  0  0  0  0  0  0
   -3.9262    0.1681   -0.5785 C   0  0  0  0  0  0  0  0  0  0  0  0
    1.2629    0.5293    1.2853 C   0  0  0  0  0  0  0  0  0  0  0  0
    2.4684    1.0857    0.5840 C   0  0  0  0  0  0  0  0  0  0  0  0
    6.1451   -1.6643    1.0518 H   0  0  0  0  0  0  0  0  0  0  0  0
    5.7602   -0.9063   -0.4747 H   0  0  0  0  0  0  0  0  0  0  0  0
    4.8045   -2.2523    0.0979 H   0  0  0  0  0  0  0  0  0  0  0  0
    3.9483   -0.8067    1.9918 H   0  0  0  0  0  0  0  0  0  0  0  0
    5.7187    1.1894    0.6543 H   0  0  0  0  0  0  0  0  0  0  0  0
    5.9935    0.4574    2.2169 H   0  0  0  0  0  0  0  0  0  0  0  0
    4.6217    1.5123    1.9755 H   0  0  0  0  0  0  0  0  0  0  0  0
    3.7869    0.3338   -0.7508 H   0  0  0  0  0  0  0  0  0  0  0  0
    2.7100   -1.9933    0.4671 H   0  0  0  0  0  0  0  0  0  0  0  0
    2.9798   -1.4858   -1.2555 H   0  0  0  0  0  0  0  0  0  0  0  0
    0.6505   -2.0533   -0.2414 H   0  0  0  0  0  0  0  0  0  0  0  0
    0.9928   -0.9164   -1.5742 H   0  0  0  0  0  0  0  0  0  0  0  0
   -1.6595   -1.2888   -1.0439 H   0  0  0  0  0  0  0  0  0  0  0  0
   -0.9640   -0.1524   -2.1581 H   0  0  0  0  0  0  0  0  0  0  0  0
   -2.3042    1.5020   -3.1101 H   0  0  0  0  0  0  0  0  0  0  0  0
   -6.2344    2.1644   -1.9709 H   0  0  0  0  0  0  0  0  0  0  0  0
   -7.1342    1.0628   -0.1019 H   0  0  0  0  0  0  0  0  0  0  0  0
   -6.8321   -0.4875    1.7346 H   0  0  0  0  0  0  0  0  0  0  0  0
   -4.7381   -1.5984    2.0992 H   0  0  0  0  0  0  0  0  0  0  0  0
   -2.8752   -1.1745    0.6118 H   0  0  0  0  0  0  0  0  0  0  0  0
    1.5446   -0.2183    1.9971 H   0  0  0  0  0  0  0  0  0  0  0  0
    0.7237    1.2678    1.8409 H   0  0  0  0  0  0  0  0  0  0  0  0
    3.0226    1.7063    1.2568 H   0  0  0  0  0  0  0  0  0  0  0  0
    2.1641    1.6729   -0.2571 H   0  0  0  0  0  0  0  0  0  0  0  0
  1  2  1  0  0  0  0
  1 23  1  0  0  0  0
  1 24  1  0  0  0  0
  1 25  1  0  0  0  0
  2  3  1  0  0  0  0
  2  4  1  0  0  0  0
  2 26  1  0  0  0  0
  3 27  1  0  0  0  0
  3 28  1  0  0  0  0
  3 29  1  0  0  0  0
  4  5  1  0  0  0  0
  4 30  1  0  0  0  0
  5  6  1  0  0  0  0
  5 31  1  0  0  0  0
  5 32  1  0  0  0  0
  6  7  1  0  0  0  0
  6 33  1  0  0  0  0
  6 34  1  0  0  0  0
  7  8  1  0  0  0  0
  7 21  1  0  0  0  0
  8  9  2  0  0  0  0
  8 10  1  0  0  0  0
 10 11  1  0  0  0  0
 10 35  1  0  0  0  0
 10 36  1  0  0  0  0
 11 12  2  0  0  0  0
 12 13  1  0  0  0  0
 12 37  1  0  0  0  0
 13 14  2  0  0  0  0
 14 15  1  0  0  0  0
 14 38  1  0  0  0  0
 15 16  2  0  0  0  0
 16 17  1  0  0  0  0
 16 39  1  0  0  0  0
 17 18  2  0  0  0  0
 17 40  1  0  0  0  0
 18 19  1  0  0  0  0
 18 41  1  0  0  0  0
 19 20  2  0  0  0  0
 19 42  1  0  0  0  0
 20 11  1  0  0  0  0
 20 15  1  0  0  0  0
 21 22  1  0  0  0  0
 21 43  1  0  0  0  0
 21 44  1  0  0  0  0
 22  4  1  0  0  0  0
 22 45  1  0  0  0  0
 22 46  1  0  0  0  0
M  END
$$$$

 OpenBabel07292611443D

 67 72  0  0  0  0  0  0  0  0999 V2000
    6.0646    0.1420   -2.4527 C   0  0  0  0  0  0  0  0  0  0  0  0
    4.8121   -0.4230   -1.9620 N   0  0  0  0  0  0  0  0  0  0  0  0
    3.8966   -1.0523   -2.8513 C   0  0  0  0  0  0  0  0  0  0  0  0
    4.1615   -1.1293   -4.0892 O   0  0  0  0  0  0  0  0  0  0  0  0
    2.6112   -1.6407   -2.3971 C   0  0  0  0  0  0  0  0  0  0  0  0
    2.3985   -1.5039   -0.9706 N   0  0  0  0  0  0  0  0  0  0  0  0
    1.7283   -0.3617   -0.3708 C   0  0  0  0  0  0  0  0  0  0  0  0
    0.6134   -0.7750    0.5585 C   0  0  2  0  0  0  0  0  0  0  0  0
   -0.5586   -1.2866   -0.1878 C   0  0  0  0  0  0  0  0  0  0  0  0
   -0.5922   -1.8884   -1.3123 O   0  0  0  0  0  0  0  0  0  0  0  0
   -1.6883   -0.9755    0.6043 N   0  0  0  0  0  0  0  0  0  0  0  0
   -2.8930   -1.7590    0.7268 C   0  0  0  0  0  0  0  0  0  0  0  0
   -3.0369   -2.7367    1.6885 C   0  0  0  0  0  0  0  0  0  0  0  0
   -4.1960   -3.4337    1.7454 N   0  0  0  0  0  0  0  0  0  0  0  0
   -5.1965   -3.2011    0.9008 C   0  0  0  0  0  0  0  0  0  0  0  0
   -5.1284   -2.2368   -0.0918 C   0  0  0  0  0  0  0  0  0  0  0  0
   -6.1577   -2.0003   -0.9577 C   0  0  0  0  0  0  0  0  0  0  0  0
   -6.0699   -1.0406   -1.9336 C   0  0  0  0  0  0  0  0  0  0  0  0
   -4.8972   -0.3024   -2.0265 C   0  0  0  0  0  0  0  0  0  0  0  0
   -3.8662   -0.5552   -1.1421 C   0  0  0  0  0  0  0  0  0  0  0  0
   -3.9398   -1.5099   -0.1632 C   0  0  0  0  0  0  0  0  0  0  0  0
   -1.4066    0.2760    1.2588 C   0  0  0  0  0  0  0  0  0  0  0  0
    0.0789    0.4490    1.2365 C   0  0  2  0  0  0  0  0  0  0  0  0
    0.3765    1.7126    0.4436 C   0  0  0  0  0  0  0  0  0  0  0  0
   -0.1395    2.8870    1.0955 N   0  0  0  0  0  0  0  0  0  0  0  0
    0.0685    4.1366    0.4624 C   0  0  0  0  0  0  0  0  0  0  0  0
    0.6682    4.5204   -0.6714 C   0  0  0  0  0  0  0  0  0  0  0  0
    0.6432    5.8215   -0.9071 N   0  0  0  0  0  0  0  0  0  0  0  0
    0.1903    6.6689   -0.2952 C   0  0  0  0  0  0  0  0  0  0  0  0
    0.0252    8.1565   -0.3254 C   0  0  0  0  0  0  0  0  0  0  0  0
   -0.5302    5.7090    1.1740 S   0  0  0  0  0  0  0  0  0  0  0  0
    1.0598   -1.7952    1.5358 C   0  0  0  0  0  0  0  0  0  0  0  0
    0.4766   -1.9963    2.7653 C   0  0  0  0  0  0  0  0  0  0  0  0
    0.9083   -2.9582    3.6572 C   0  0  0  0  0  0  0  0  0  0  0  0
    0.1179   -3.1647    5.2162 Cl  0  0  0  0  0  0  0  0  0  0  0  0
    1.9776   -3.7733    3.3234 C   0  0  0  0  0  0  0  0  0  0  0  0
    2.5839   -3.5947    2.0950 C   0  0  0  0  0  0  0  0  0  0  0  0
    2.1390   -2.6285    1.2168 C   0  0  0  0  0  0  0  0  0  0  0  0
    2.8497   -2.5133   -0.0520 C   0  0  0  0  0  0  0  0  0  0  0  0
    3.8222   -3.2452   -0.3717 O   0  0  0  0  0  0  0  0  0  0  0  0
    6.6090    0.5663   -1.6351 H   0  0  0  0  0  0  0  0  0  0  0  0
    5.8539    0.9035   -3.1743 H   0  0  0  0  0  0  0  0  0  0  0  0
    6.6494   -0.6294   -2.9086 H   0  0  0  0  0  0  0  0  0  0  0  0
    4.5974   -0.3681   -1.0028 H   0  0  0  0  0  0  0  0  0  0  0  0
    2.6066   -2.6818   -2.6442 H   0  0  0  0  0  0  0  0  0  0  0  0
    1.8241   -1.1095   -2.8904 H   0  0  0  0  0  0  0  0  0  0  0  0
    1.3188    0.2456   -1.1508 H   0  0  0  0  0  0  0  0  0  0  0  0
    2.4516    0.1770    0.2049 H   0  0  0  0  0  0  0  0  0  0  0  0
   -2.2733   -2.9339    2.3541 H   0  0  0  0  0  0  0  0  0  0  0  0
   -6.0586   -3.7616    0.9882 H   0  0  0  0  0  0  0  0  0  0  0  0
   -7.0226   -2.5573   -0.8757 H   0  0  0  0  0  0  0  0  0  0  0  0
   -6.8548   -0.8714   -2.5820 H   0  0  0  0  0  0  0  0  0  0  0  0
   -4.7969    0.4277   -2.7489 H   0  0  0  0  0  0  0  0  0  0  0  0
   -3.0008    0.0011   -1.2230 H   0  0  0  0  0  0  0  0  0  0  0  0
   -1.7597    0.2516    2.2686 H   0  0  0  0  0  0  0  0  0  0  0  0
   -1.8957    1.0880    0.7626 H   0  0  0  0  0  0  0  0  0  0  0  0
    0.5236    0.5521    2.2042 H   0  0  0  0  0  0  0  0  0  0  0  0
   -0.0726    1.6281   -0.5239 H   0  0  0  0  0  0  0  0  0  0  0  0
    1.4389    1.8146    0.3672 H   0  0  0  0  0  0  0  0  0  0  0  0
   -0.6206    2.8240    1.9521 H   0  0  0  0  0  0  0  0  0  0  0  0
    1.1173    3.8498   -1.3146 H   0  0  0  0  0  0  0  0  0  0  0  0
    0.4820    8.5482   -1.2102 H   0  0  0  0  0  0  0  0  0  0  0  0
    0.4924    8.5848    0.5367 H   0  0  0  0  0  0  0  0  0  0  0  0
   -1.0168    8.3998   -0.3243 H   0  0  0  0  0  0  0  0  0  0  0  0
   -0.3216   -1.3999    3.0340 H   0  0  0  0  0  0  0  0  0  0  0  0
    2.3136   -4.4974    3.9775 H   0  0  0  0  0  0  0  0  0  0  0  0
    3.3818   -4.1933    1.8303 H   0  0  0  0  0  0  0  0  0  0  0  0
  1  2  1  0  0  0  0
  1 41  1  0  0  0  0
  1 42  1  0  0  0  0
  1 43  1  0  0  0  0
  2  3  1  0  0  0  0
  2 44  1  0  0  0  0
  3  4  2  0  0  0  0
  3  5  1  0  0  0  0
  5  6  1  0  0  0  0
  5 45  1  0  0  0  0
  5 46  1  0  0  0  0
  6  7  1  0  0  0  0
  7 47  1  0  0  0  0
  7 48  1  0  0  0  0
  8  7  1  0  0  0  0
  8  9  1  6  0  0  0
  8 32  1  0  0  0  0
  9 10  2  0  0  0  0
  9 11  1  0  0  0  0
 11 12  1  0  0  0  0
 11 22  1  0  0  0  0
 12 13  2  0  0  0  0
 13 14  1  0  0  0  0
 13 49  1  0  0  0  0
 14 15  2  0  0  0  0
 15 16  1  0  0  0  0
 15 50  1  0  0  0  0
 16 17  2  0  0  0  0
 17 18  1  0  0  0  0
 17 51  1  0  0  0  0
 18 19  2  0  0  0  0
 18 52  1  0  0  0  0
 19 20  1  0  0  0  0
 19 53  1  0  0  0  0
 20 21  2  0  0  0  0
 20 54  1  0  0  0  0
 21 12  1  0  0  0  0
 21 16  1  0  0  0  0
 22 23  1  0  0  0  0
 22 55  1  0  0  0  0
 22 56  1  0  0  0  0
 23 24  1  0  0  0  0
 23  8  1  0  0  0  0
 23 57  1  1  0  0  0
 24 25  1  0  0  0  0
 24 58  1  0  0  0  0
 24 59  1  0  0  0  0
 25 26  1  0  0  0  0
 25 60  1  0  0  0  0
 26 27  2  0  0  0  0
 27 28  1  0  0  0  0
 27 61  1  0  0  0  0
 28 29  2  0  0  0  0
 29 30  1  0  0  0  0
 29 31  1  0  0  0  0
 30 62  1  0  0  0  0
 30 63  1  0  0  0  0
 30 64  1  0  0  0  0
 31 26  1  0  0  0  0
 32 33  2  0  0  0  0
 33 34  1  0  0  0  0
 33 65  1  0  0  0  0
 34 35  1  0  0  0  0
 34 36  2  0  0  0  0
 36 37  1  0  0  0  0
 36 66  1  0  0  0  0
 37 38  2  0  0  0  0
 37 67  1  0  0  0  0
 38 39  1  0  0  0  0
 38 32  1  0  0  0  0
 39 40  2  0  0  0  0
 39  6  1  0  0  0  0
M  END
$$$$

 OpenBabel07292611443D

 66 70  0  0  0  0  0  0  0  0999 V2000
    6.3998   -3.0854   -0.8256 C   0  0  0  0  0  0  0  0  0  0  0  0
    5.4854   -2.1328   -1.4521 N   0  0  0  0  0  0  0  0  0  0  0  0
    4.5354   -1.3835   -0.7324 C   0  0  0  0  0  0  0  0  0  0  0  0
    4.4287   -1.5067    0.5318 O   0  0  0  0  0  0  0  0  0  0  0  0
    3.6348   -0.4306   -1.4329 C   0  0  0  0  0  0  0  0  0  0  0  0
    2.7692    0.1930   -0.4392 N   0  0  0  0  0  0  0  0  0  0  0  0
    1.5108   -0.4050   -0.1097 C   0  0  0  0  0  0  0  0  0  0  0  0
    0.4583    0.5145    0.3841 C   0  0  2  0  0  0  0  0  0  0  0  0
   -0.4176   -0.2458    1.3163 C   0  0  0  0  0  0  0  0  0  0  0  0
   -0.1403   -0.4673    2.5381 O   0  0  0  0  0  0  0  0  0  0  0  0
   -1.5847   -0.6674    0.6177 N   0  0  0  0  0  0  0  0  0  0  0  0
   -2.7251   -1.2853    1.2046 C   0  0  0  0  0  0  0  0  0  0  0  0
   -3.7979   -0.5390    1.6781 C   0  0  0  0  0  0  0  0  0  0  0  0
   -4.8704   -1.0990    2.2289 N   0  0  0  0  0  0  0  0  0  0  0  0
   -4.9297   -2.4271    2.3362 C   0  0  0  0  0  0  0  0  0  0  0  0
   -3.9089   -3.2351    1.8914 C   0  0  0  0  0  0  0  0  0  0  0  0
   -3.9790   -4.6185    2.0071 C   0  0  0  0  0  0  0  0  0  0  0  0
   -2.9409   -5.4251    1.5539 C   0  0  0  0  0  0  0  0  0  0  0  0
   -1.8314   -4.8355    0.9835 C   0  0  0  0  0  0  0  0  0  0  0  0
   -1.7261   -3.4486    0.8506 C   0  0  0  0  0  0  0  0  0  0  0  0
   -2.7760   -2.6624    1.3107 C   0  0  0  0  0  0  0  0  0  0  0  0
   -1.3555   -0.3340   -0.7894 C   0  0  0  0  0  0  0  0  0  0  0  0
   -0.5580    0.9362   -0.6577 C   0  0  2  0  0  0  0  0  0  0  0  0
    0.0280    1.4356   -1.9095 C   0  0  0  0  0  0  0  0  0  0  0  0
   -0.9477    1.8126   -2.8209 O   0  0  0  0  0  0  0  0  0  0  0  0
   -1.7669    2.8325   -2.4154 C   0  0  0  0  0  0  0  0  0  0  0  0
   -1.7107    4.0264   -3.3646 C   0  0  0  0  0  0  0  0  0  0  0  0
   -3.2113    2.3590   -2.4478 C   0  0  0  0  0  0  0  0  0  0  0  0
    0.9660    1.7661    0.9994 C   0  0  0  0  0  0  0  0  0  0  0  0
    0.0658    2.5359    1.7082 C   0  0  0  0  0  0  0  0  0  0  0  0
    0.4464    3.7168    2.3155 C   0  0  0  0  0  0  0  0  0  0  0  0
   -0.5065    4.4061    2.9903 F   0  0  0  0  0  0  0  0  0  0  0  0
    1.7550    4.1412    2.2143 C   0  0  0  0  0  0  0  0  0  0  0  0
    2.6686    3.3767    1.5049 C   0  0  0  0  0  0  0  0  0  0  0  0
    2.2719    2.1898    0.8985 C   0  0  0  0  0  0  0  0  0  0  0  0
    3.2608    1.3982    0.1523 C   0  0  0  0  0  0  0  0  0  0  0  0
    4.4626    1.7530    0.0384 O   0  0  0  0  0  0  0  0  0  0  0  0
    7.0224   -3.5278   -1.5750 H   0  0  0  0  0  0  0  0  0  0  0  0
    5.8360   -3.8501   -0.3333 H   0  0  0  0  0  0  0  0  0  0  0  0
    7.0104   -2.5758   -0.1098 H   0  0  0  0  0  0  0  0  0  0  0  0
    5.5364   -2.0088   -2.4274 H   0  0  0  0  0  0  0  0  0  0  0  0
    3.0412   -0.9553   -2.1520 H   0  0  0  0  0  0  0  0  0  0  0  0
    4.2095    0.3147   -1.9420 H   0  0  0  0  0  0  0  0  0  0  0  0
    1.6866   -1.1378    0.6499 H   0  0  0  0  0  0  0  0  0  0  0  0
    1.1343   -0.8041   -1.0283 H   0  0  0  0  0  0  0  0  0  0  0  0
   -3.7604    0.4893    1.5990 H   0  0  0  0  0  0  0  0  0  0  0  0
   -5.7631   -2.8600    2.7641 H   0  0  0  0  0  0  0  0  0  0  0  0
   -4.8120   -5.0525    2.4347 H   0  0  0  0  0  0  0  0  0  0  0  0
   -2.9995   -6.4516    1.6430 H   0  0  0  0  0  0  0  0  0  0  0  0
   -1.0606   -5.4335    0.6469 H   0  0  0  0  0  0  0  0  0  0  0  0
   -0.8911   -3.0194    0.4222 H   0  0  0  0  0  0  0  0  0  0  0  0
   -2.2761   -0.1679   -1.3088 H   0  0  0  0  0  0  0  0  0  0  0  0
   -0.8692   -1.1038   -1.3514 H   0  0  0  0  0  0  0  0  0  0  0  0
   -1.1455    1.7875   -0.3837 H   0  0  0  0  0  0  0  0  0  0  0  0
    0.6275    0.6629   -2.3437 H   0  0  0  0  0  0  0  0  0  0  0  0
    0.6189    2.2975   -1.6794 H   0  0  0  0  0  0  0  0  0  0  0  0
   -1.4389    3.1176   -1.4376 H   0  0  0  0  0  0  0  0  0  0  0  0
   -2.0413    3.7251   -4.3366 H   0  0  0  0  0  0  0  0  0  0  0  0
   -0.7050    4.3865   -3.4256 H   0  0  0  0  0  0  0  0  0  0  0  0
   -2.3465    4.8046   -2.9970 H   0  0  0  0  0  0  0  0  0  0  0  0
   -3.4761    2.0900   -3.4490 H   0  0  0  0  0  0  0  0  0  0  0  0
   -3.8522    3.1457   -2.1085 H   0  0  0  0  0  0  0  0  0  0  0  0
   -3.3221    1.5080   -1.8087 H   0  0  0  0  0  0  0  0  0  0  0  0
   -0.9142    2.2220    1.7862 H   0  0  0  0  0  0  0  0  0  0  0  0
    2.0519    5.0216    2.6635 H   0  0  0  0  0  0  0  0  0  0  0  0
    3.6487    3.6903    1.4264 H   0  0  0  0  0  0  0  0  0  0  0  0
  1  2  1  0  0  0  0
  1 38  1  0  0  0  0
  1 39  1  0  0  0  0
  1 40  1  0  0  0  0
  2  3  1  0  0  0  0
  2 41  1  0  0  0  0
  3  4  2  0  0  0  0
  3  5  1  0  0  0  0
  5  6  1  0  0  0  0
  5 42  1  0  0  0  0
  5 43  1  0  0  0  0
  6  7  1  0  0  0  0
  7 44  1  0  0  0  0
  7 45  1  0  0  0  0
  8  7  1  0  0  0  0
  8  9  1  1  0  0  0
  8 29  1  0  0  0  0
  9 10  2  0  0  0  0
  9 11  1  0  0  0  0
 11 12  1  0  0  0  0
 11 22  1  0  0  0  0
 12 13  2  0  0  0  0
 13 14  1  0  0  0  0
 13 46  1  0  0  0  0
 14 15  2  0  0  0  0
 15 16  1  0  0  0  0
 15 47  1  0  0  0  0
 16 17  2  0  0  0  0
 17 18  1  0  0  0  0
 17 48  1  0  0  0  0
 18 19  2  0  0  0  0
 18 49  1  0  0  0  0
 19 20  1  0  0  0  0
 19 50  1  0  0  0  0
 20 21  2  0  0  0  0
 20 51  1  0  0  0  0
 21 12  1  0  0  0  0
 21 16  1  0  0  0  0
 22 23  1  0  0  0  0
 22 52  1  0  0  0  0
 22 53  1  0  0  0  0
 23 24  1  0  0  0  0
 23  8  1  0  0  0  0
 23 54  1  1  0  0  0
 24 25  1  0  0  0  0
 24 55  1  0  0  0  0
 24 56  1  0  0  0  0
 25 26  1  0  0  0  0
 26 27  1  0  0  0  0
 26 28  1  0  0  0  0
 26 57  1  0  0  0  0
 27 58  1  0  0  0  0
 27 59  1  0  0  0  0
 27 60  1  0  0  0  0
 28 61  1  0  0  0  0
 28 62  1  0  0  0  0
 28 63  1  0  0  0  0
 29 30  2  0  0  0  0
 30 31  1  0  0  0  0
 30 64  1  0  0  0  0
 31 32  1  0  0  0  0
 31 33  2  0  0  0  0
 33 34  1  0  0  0  0
 33 65  1  0  0  0  0
 34 35  2  0  0  0  0
 34 66  1  0  0  0  0
 35 36  1  0  0  0  0
 35 29  1  0  0  0  0
 36 37  2  0  0  0  0
 36  6  1  0  0  0  0
M  END
$$$$

 OpenBabel07292611443D

 50 52  0  0  0  0  0  0  0  0999 V2000
    2.3617    0.0770    1.8015 C   0  0  0  0  0  0  0  0  0  0  0  0
    2.5586   -0.3715    0.5774 C   0  0  0  0  0  0  0  0  0  0  0  0
    1.6159   -0.1821   -0.5468 C   0  0  0  0  0  0  0  0  0  0  0  0
    0.4469    0.5744   -0.2756 N   0  0  0  0  0  0  0  0  0  0  0  0
   -0.7085   -0.1266    0.2167 C   0  0  0  0  0  0  0  0  0  0  0  0
   -0.6868   -1.3696    0.4458 O   0  0  0  0  0  0  0  0  0  0  0  0
   -1.9425    0.5357    0.4747 N   0  0  0  0  0  0  0  0  0  0  0  0
   -3.0144   -0.2530    0.9576 C   0  0  0  0  0  0  0  0  0  0  0  0
   -3.1357   -0.3880    2.3441 C   0  0  0  0  0  0  0  0  0  0  0  0
   -4.1324   -1.1241    2.8722 N   0  0  0  0  0  0  0  0  0  0  0  0
   -5.0408   -1.7511    2.0785 C   0  0  0  0  0  0  0  0  0  0  0  0
   -4.9308   -1.6243    0.6930 C   0  0  0  0  0  0  0  0  0  0  0  0
   -5.8720   -2.2758   -0.0767 C   0  0  0  0  0  0  0  0  0  0  0  0
   -5.7639   -2.1504   -1.4594 C   0  0  0  0  0  0  0  0  0  0  0  0
   -4.7460   -1.3978   -2.0230 C   0  0  0  0  0  0  0  0  0  0  0  0
   -3.8000   -0.7432   -1.2441 C   0  0  0  0  0  0  0  0  0  0  0  0
   -3.9274   -0.8821    0.1288 C   0  0  0  0  0  0  0  0  0  0  0  0
    0.3083    1.9593   -0.4951 C   0  0  0  0  0  0  0  0  0  0  0  0
   -0.0928    2.3531   -1.7641 C   0  0  0  0  0  0  0  0  0  0  0  0
   -0.2716    3.6732   -2.1173 C   0  0  0  0  0  0  0  0  0  0  0  0
   -0.0524    4.6681   -1.1990 C   0  0  0  0  0  0  0  0  0  0  0  0
    0.3455    4.2914    0.0627 C   0  0  0  0  0  0  0  0  0  0  0  0
    0.6307    5.5455    1.2495 Cl  0  0  0  0  0  0  0  0  0  0  0  0
    0.5260    2.9509    0.4179 C   0  0  0  0  0  0  0  0  0  0  0  0
    3.7927   -1.1197    0.2631 C   0  0  0  0  0  0  0  0  0  0  0  0
    4.0213   -1.5680   -0.8994 O   0  0  0  0  0  0  0  0  0  0  0  0
    4.7903   -1.3796    1.2390 N   0  0  0  0  0  0  0  0  0  0  0  0
    5.9594   -2.1377    0.7656 C   0  0  0  0  0  0  0  0  0  0  0  0
    6.6892   -1.4439   -0.3369 C   0  0  0  0  0  0  0  0  0  0  0  0
    1.5014    0.6004    2.0271 H   0  0  0  0  0  0  0  0  0  0  0  0
    3.0679   -0.0954    2.5340 H   0  0  0  0  0  0  0  0  0  0  0  0
    1.3058   -1.1515   -0.8771 H   0  0  0  0  0  0  0  0  0  0  0  0
    2.1563    0.3856   -1.2752 H   0  0  0  0  0  0  0  0  0  0  0  0
   -2.0460    1.5030    0.3234 H   0  0  0  0  0  0  0  0  0  0  0  0
   -2.4577    0.0790    2.9663 H   0  0  0  0  0  0  0  0  0  0  0  0
   -5.8004   -2.3125    2.4943 H   0  0  0  0  0  0  0  0  0  0  0  0
   -6.6256   -2.8335    0.3546 H   0  0  0  0  0  0  0  0  0  0  0  0
   -6.4486   -2.6226   -2.0703 H   0  0  0  0  0  0  0  0  0  0  0  0
   -4.6890   -1.3214   -3.0506 H   0  0  0  0  0  0  0  0  0  0  0  0
   -3.0425   -0.1832   -1.6656 H   0  0  0  0  0  0  0  0  0  0  0  0
   -0.2648    1.6249   -2.4749 H   0  0  0  0  0  0  0  0  0  0  0  0
   -0.5712    3.9137   -3.0751 H   0  0  0  0  0  0  0  0  0  0  0  0
   -0.1812    5.6620   -1.4454 H   0  0  0  0  0  0  0  0  0  0  0  0
    0.8255    2.7098    1.3756 H   0  0  0  0  0  0  0  0  0  0  0  0
    4.7057   -1.0730    2.1707 H   0  0  0  0  0  0  0  0  0  0  0  0
    5.6280   -3.0908    0.4098 H   0  0  0  0  0  0  0  0  0  0  0  0
    6.6357   -2.2355    1.5890 H   0  0  0  0  0  0  0  0  0  0  0  0
    6.0387   -1.3298   -1.1787 H   0  0  0  0  0  0  0  0  0  0  0  0
    7.5417   -2.0247   -0.6211 H   0  0  0  0  0  0  0  0  0  0  0  0
    7.0102   -0.4801   -0.0009 H   0  0  0  0  0  0  0  0  0  0  0  0
  1  2  2  0  0  0  0
  1 30  1  0  0  0  0
  1 31  1  0  0  0  0
  2  3  1  0  0  0  0
  2 25  1  0  0  0  0
  3  4  1  0  0  0  0
  3 32  1  0  0  0  0
  3 33  1  0  0  0  0
  4  5  1  0  0  0  0
  4 18  1  0  0  0  0
  5  6  2  0  0  0  0
  5  7  1  0  0  0  0
  7  8  1  0  0  0  0
  7 34  1  0  0  0  0
  8  9  2  0  0  0  0
  9 10  1  0  0  0  0
  9 35  1  0  0  0  0
 10 11  2  0  0  0  0
 11 12  1  0  0  0  0
 11 36  1  0  0  0  0
 12 13  2  0  0  0  0
 13 14  1  0  0  0  0
 13 37  1  0  0  0  0
 14 15  2  0  0  0  0
 14 38  1  0  0  0  0
 15 16  1  0  0  0  0
 15 39  1  0  0  0  0
 16 17  2  0  0  0  0
 16 40  1  0  0  0  0
 17  8  1  0  0  0  0
 17 12  1  0  0  0  0
 18 19  2  0  0  0  0
 19 20  1  0  0  0  0
 19 41  1  0  0  0  0
 20 21  2  0  0  0  0
 20 42  1  0  0  0  0
 21 22  1  0  0  0  0
 21 43  1  0  0  0  0
 22 23  1  0  0  0  0
 22 24  2  0  0  0  0
 24 18  1  0  0  0  0
 24 44  1  0  0  0  0
 25 26  2  0  0  0  0
 25 27  1  0  0  0  0
 27 28  1  0  0  0  0
 27 45  1  0  0  0  0
 28 29  1  0  0  0  0
 28 46  1  0  0  0  0
 28 47  1  0  0  0  0
 29 48  1  0  0  0  0
 29 49  1  0  0  0  0
 29 50  1  0  0  0  0
M  END
$$$$

 OpenBabel07292611443D

 57 60  0  0  0  0  0  0  0  0999 V2000
    7.4640    0.0080    0.2194 C   0  0  0  0  0  0  0  0  0  0  0  0
    6.5347   -0.3970    1.3635 C   0  0  0  0  0  0  0  0  0  0  0  0
    5.1941   -0.7718    0.8288 C   0  0  0  0  0  0  0  0  0  0  0  0
    4.9520   -0.7124   -0.4164 O   0  0  0  0  0  0  0  0  0  0  0  0
    4.1601   -1.2035    1.7039 N   0  0  0  0  0  0  0  0  0  0  0  0
    2.9128   -1.5387    1.0896 C   0  0  0  0  0  0  0  0  0  0  0  0
    2.7403   -2.8315    0.6811 C   0  0  0  0  0  0  0  0  0  0  0  0
    1.5454   -3.1522    0.0892 C   0  0  0  0  0  0  0  0  0  0  0  0
    0.5524   -2.1835   -0.0822 C   0  0  0  0  0  0  0  0  0  0  0  0
    0.6950   -0.8752    0.3186 C   0  0  0  0  0  0  0  0  0  0  0  0
   -0.3004    0.1229    0.2044 N   0  0  0  0  0  0  0  0  0  0  0  0
    0.1330    1.5236    0.4155 C   0  0  0  0  0  0  0  0  0  0  0  0
    0.6341    2.1657   -0.8181 C   0  0  0  0  0  0  0  0  0  0  0  0
    1.9492    2.1109   -1.2332 C   0  0  0  0  0  0  0  0  0  0  0  0
    2.3908    2.7398   -2.4042 C   0  0  0  0  0  0  0  0  0  0  0  0
    1.5288    3.4454   -3.1987 C   0  0  0  0  0  0  0  0  0  0  0  0
    0.2148    3.5129   -2.8034 C   0  0  0  0  0  0  0  0  0  0  0  0
   -0.2239    2.8947   -1.6505 C   0  0  0  0  0  0  0  0  0  0  0  0
   -1.6526   -0.0456   -0.1192 C   0  0  0  0  0  0  0  0  0  0  0  0
   -2.3819    1.0296   -0.0742 O   0  0  0  0  0  0  0  0  0  0  0  0
   -2.4100   -1.2329   -0.5050 C   0  0  0  0  0  0  0  0  0  0  0  0
   -3.8704   -0.8831   -0.7028 C   0  0  0  0  0  0  0  0  0  0  0  0
   -4.4360   -0.7563   -1.9397 C   0  0  0  0  0  0  0  0  0  0  0  0
   -5.7207   -0.4492   -2.0877 N   0  0  0  0  0  0  0  0  0  0  0  0
   -6.5649   -0.2393   -1.0615 C   0  0  0  0  0  0  0  0  0  0  0  0
   -6.0383   -0.3563    0.2122 C   0  0  0  0  0  0  0  0  0  0  0  0
   -6.8758   -0.1473    1.2930 C   0  0  0  0  0  0  0  0  0  0  0  0
   -6.3645   -0.2603    2.5722 C   0  0  0  0  0  0  0  0  0  0  0  0
   -5.0317   -0.5786    2.7509 C   0  0  0  0  0  0  0  0  0  0  0  0
   -4.1928   -0.7879    1.6856 C   0  0  0  0  0  0  0  0  0  0  0  0
   -4.6921   -0.6779    0.4045 C   0  0  0  0  0  0  0  0  0  0  0  0
    1.9310   -0.5858    0.9194 C   0  0  0  0  0  0  0  0  0  0  0  0
    8.4218    0.2744    0.6151 H   0  0  0  0  0  0  0  0  0  0  0  0
    7.0469    0.8457   -0.2994 H   0  0  0  0  0  0  0  0  0  0  0  0
    7.5739   -0.8126   -0.4584 H   0  0  0  0  0  0  0  0  0  0  0  0
    6.4283    0.4248    2.0404 H   0  0  0  0  0  0  0  0  0  0  0  0
    6.9550   -1.2382    1.8741 H   0  0  0  0  0  0  0  0  0  0  0  0
    4.2950   -1.2680    2.6770 H   0  0  0  0  0  0  0  0  0  0  0  0
    3.4802   -3.5387    0.8129 H   0  0  0  0  0  0  0  0  0  0  0  0
    1.3778   -4.1182   -0.2328 H   0  0  0  0  0  0  0  0  0  0  0  0
   -0.3329   -2.4640   -0.5324 H   0  0  0  0  0  0  0  0  0  0  0  0
    0.9148    1.5321    1.1460 H   0  0  0  0  0  0  0  0  0  0  0  0
   -0.7229    2.0779    0.7397 H   0  0  0  0  0  0  0  0  0  0  0  0
    2.6308    1.5884   -0.6610 H   0  0  0  0  0  0  0  0  0  0  0  0
    3.3848    2.6697   -2.6727 H   0  0  0  0  0  0  0  0  0  0  0  0
    1.8532    3.9091   -4.0617 H   0  0  0  0  0  0  0  0  0  0  0  0
   -0.4595    4.0379   -3.3819 H   0  0  0  0  0  0  0  0  0  0  0  0
   -1.2201    2.9724   -1.3925 H   0  0  0  0  0  0  0  0  0  0  0  0
   -2.3250   -1.9714    0.2646 H   0  0  0  0  0  0  0  0  0  0  0  0
   -2.0157   -1.6141   -1.4238 H   0  0  0  0  0  0  0  0  0  0  0  0
   -3.8526   -0.9023   -2.7783 H   0  0  0  0  0  0  0  0  0  0  0  0
   -7.5572   -0.0025   -1.2170 H   0  0  0  0  0  0  0  0  0  0  0  0
   -7.8694    0.0899    1.1462 H   0  0  0  0  0  0  0  0  0  0  0  0
   -6.9752   -0.1077    3.3900 H   0  0  0  0  0  0  0  0  0  0  0  0
   -4.6581   -0.6609    3.7094 H   0  0  0  0  0  0  0  0  0  0  0  0
   -3.2004   -1.0247    1.8409 H   0  0  0  0  0  0  0  0  0  0  0  0
    2.1112    0.3765    1.2458 H   0  0  0  0  0  0  0  0  0  0  0  0
  1  2  1  0  0  0  0
  1 33  1  0  0  0  0
  1 34  1  0  0  0  0
  1 35  1  0  0  0  0
  2  3  1  0  0  0  0
  2 36  1  0  0  0  0
  2 37  1  0  0  0  0
  3  4  2  0  0  0  0
  3  5  1  0  0  0  0
  5  6  1  0  0  0  0
  5 38  1  0  0  0  0
  6  7  2  0  0  0  0
  7  8  1  0  0  0  0
  7 39  1  0  0  0  0
  8  9  2  0  0  0  0
  8 40  1  0  0  0  0
  9 10  1  0  0  0  0
  9 41  1  0  0  0  0
 10 11  1  0  0  0  0
 10 32  2  0  0  0  0
 11 12  1  0  0  0  0
 11 19  1  0  0  0  0
 12 13  1  0  0  0  0
 12 42  1  0  0  0  0
 12 43  1  0  0  0  0
 13 14  2  0  0  0  0
 14 15  1  0  0  0  0
 14 44  1  0  0  0  0
 15 16  2  0  0  0  0
 15 45  1  0  0  0  0
 16 17  1  0  0  0  0
 16 46  1  0  0  0  0
 17 18  2  0  0  0  0
 17 47  1  0  0  0  0
 18 13  1  0  0  0  0
 18 48  1  0  0  0  0
 19 20  2  0  0  0  0
 19 21  1  0  0  0  0
 21 22  1  0  0  0  0
 21 49  1  0  0  0  0
 21 50  1  0  0  0  0
 22 23  2  0  0  0  0
 23 24  1  0  0  0  0
 23 51  1  0  0  0  0
 24 25  2  0  0  0  0
 25 26  1  0  0  0  0
 25 52  1  0  0  0  0
 26 27  2  0  0  0  0
 27 28  1  0  0  0  0
 27 53  1  0  0  0  0
 28 29  2  0  0  0  0
 28 54  1  0  0  0  0
 29 30  1  0  0  0  0
 29 55  1  0  0  0  0
 30 31  2  0  0  0  0
 30 56  1  0  0  0  0
 31 22  1  0  0  0  0
 31 26  1  0  0  0  0
 32  6  1  0  0  0  0
 32 57  1  0  0  0  0
M  END
$$$$

 OpenBabel07292611443D

 59 63  0  0  0  0  0  0  0  0999 V2000
    7.7547    2.3721   -0.7918 C   0  0  0  0  0  0  0  0  0  0  0  0
    6.6844    1.3741   -1.2139 C   0  0  0  0  0  0  0  0  0  0  0  0
    5.6538    1.3878   -0.2032 N   0  0  0  0  0  0  0  0  0  0  0  0
    4.5063    0.5267   -0.3520 C   0  0  0  0  0  0  0  0  0  0  0  0
    4.3792   -0.2397   -1.3441 O   0  0  0  0  0  0  0  0  0  0  0  0
    3.4471    0.5710    0.7307 C   0  0  0  0  0  0  0  0  0  0  0  0
    2.4353   -0.3821    0.3178 N   0  0  0  0  0  0  0  0  0  0  0  0
    1.3032   -0.0403   -0.5220 C   0  0  0  0  0  0  0  0  0  0  0  0
    0.0505   -0.4874    0.1378 C   0  0  2  0  0  0  0  0  0  0  0  0
   -1.1900   -0.2460   -0.6480 C   0  0  0  0  0  0  0  0  0  0  0  0
   -1.3799   -0.5655   -1.8511 O   0  0  0  0  0  0  0  0  0  0  0  0
   -2.1627    0.4211    0.1870 N   0  0  0  0  0  0  0  0  0  0  0  0
   -3.2896    1.1900   -0.2433 C   0  0  0  0  0  0  0  0  0  0  0  0
   -3.1446    2.5649   -0.4704 C   0  0  0  0  0  0  0  0  0  0  0  0
   -4.1865    3.3240   -0.8772 N   0  0  0  0  0  0  0  0  0  0  0  0
   -5.4016    2.7894   -1.0795 C   0  0  0  0  0  0  0  0  0  0  0  0
   -5.6131    1.4428   -0.8743 C   0  0  0  0  0  0  0  0  0  0  0  0
   -6.8454    0.8645   -1.0710 C   0  0  0  0  0  0  0  0  0  0  0  0
   -7.0711   -0.4831   -0.8674 C   0  0  0  0  0  0  0  0  0  0  0  0
   -6.0084   -1.2451   -0.4546 C   0  0  0  0  0  0  0  0  0  0  0  0
   -4.7751   -0.6625   -0.2586 C   0  0  0  0  0  0  0  0  0  0  0  0
   -4.5324    0.6737   -0.4558 C   0  0  0  0  0  0  0  0  0  0  0  0
   -1.7336    0.1421    1.5412 C   0  0  0  0  0  0  0  0  0  0  0  0
   -0.2136    0.3292    1.3657 C   0  0  2  0  0  0  0  0  0  0  0  0
   -0.0343    1.7944    1.0973 C   0  0  0  0  0  0  0  0  0  0  0  0
    0.1703   -1.9481    0.4677 C   0  0  0  0  0  0  0  0  0  0  0  0
   -0.9471   -2.7805    0.4825 C   0  0  0  0  0  0  0  0  0  0  0  0
   -0.8361   -4.1295    0.8281 C   0  0  0  0  0  0  0  0  0  0  0  0
   -2.2610   -5.1629    0.8410 Cl  0  0  0  0  0  0  0  0  0  0  0  0
    0.3856   -4.6713    1.1632 C   0  0  0  0  0  0  0  0  0  0  0  0
    1.4987   -3.8655    1.1523 C   0  0  0  0  0  0  0  0  0  0  0  0
    1.3611   -2.5414    0.8075 C   0  0  0  0  0  0  0  0  0  0  0  0
    2.5696   -1.7350    0.7392 C   0  0  0  0  0  0  0  0  0  0  0  0
    3.6872   -2.2415    1.0483 O   0  0  0  0  0  0  0  0  0  0  0  0
    8.5366    2.3868   -1.5221 H   0  0  0  0  0  0  0  0  0  0  0  0
    8.1577    2.0832    0.1564 H   0  0  0  0  0  0  0  0  0  0  0  0
    7.3218    3.3474   -0.7131 H   0  0  0  0  0  0  0  0  0  0  0  0
    7.1082    0.3946   -1.2899 H   0  0  0  0  0  0  0  0  0  0  0  0
    6.2791    1.6381   -2.1683 H   0  0  0  0  0  0  0  0  0  0  0  0
    5.7334    1.9791    0.5799 H   0  0  0  0  0  0  0  0  0  0  0  0
    3.0285    1.5529    0.8051 H   0  0  0  0  0  0  0  0  0  0  0  0
    3.8505    0.3319    1.6925 H   0  0  0  0  0  0  0  0  0  0  0  0
    1.4014   -0.5270   -1.4698 H   0  0  0  0  0  0  0  0  0  0  0  0
    1.2727    1.0191   -0.6690 H   0  0  0  0  0  0  0  0  0  0  0  0
   -2.2237    3.0071   -0.3241 H   0  0  0  0  0  0  0  0  0  0  0  0
   -6.1813    3.3899   -1.3903 H   0  0  0  0  0  0  0  0  0  0  0  0
   -7.6298    1.4588   -1.3819 H   0  0  0  0  0  0  0  0  0  0  0  0
   -8.0028   -0.8999   -1.0200 H   0  0  0  0  0  0  0  0  0  0  0  0
   -6.1324   -2.2564   -0.2905 H   0  0  0  0  0  0  0  0  0  0  0  0
   -3.9943   -1.2615    0.0523 H   0  0  0  0  0  0  0  0  0  0  0  0
   -1.9817   -0.8544    1.8419 H   0  0  0  0  0  0  0  0  0  0  0  0
   -2.1844    0.7499    2.2977 H   0  0  0  0  0  0  0  0  0  0  0  0
    0.4208    0.0442    2.1788 H   0  0  0  0  0  0  0  0  0  0  0  0
   -0.6657    2.0881    0.2849 H   0  0  0  0  0  0  0  0  0  0  0  0
    0.9869    1.9881    0.8434 H   0  0  0  0  0  0  0  0  0  0  0  0
   -0.2963    2.3519    1.9722 H   0  0  0  0  0  0  0  0  0  0  0  0
   -1.8713   -2.3943    0.2342 H   0  0  0  0  0  0  0  0  0  0  0  0
    0.4636   -5.6681    1.4188 H   0  0  0  0  0  0  0  0  0  0  0  0
    2.4246   -4.2485    1.3993 H   0  0  0  0  0  0  0  0  0  0  0  0
  1  2  1  0  0  0  0
  1 35  1  0  0  0  0
  1 36  1  0  0  0  0
  1 37  1  0  0  0  0
  2  3  1  0  0  0  0
  2 38  1  0  0  0  0
  2 39  1  0  0  0  0
  3  4  1  0  0  0  0
  3 40  1  0  0  0  0
  4  5  2  0  0  0  0
  4  6  1  0  0  0  0
  6  7  1  0  0  0  0
  6 41  1  0  0  0  0
  6 42  1  0  0  0  0
  7  8  1  0  0  0  0
  8 43  1  0  0  0  0
  8 44  1  0  0  0  0
  9  8  1  0  0  0  0
  9 10  1  6  0  0  0
  9 26  1  0  0  0  0
 10 11  2  0  0  0  0
 10 12  1  0  0  0  0
 12 13  1  0  0  0  0
 12 23  1  0  0  0  0
 13 14  2  0  0  0  0
 14 15  1  0  0  0  0
 14 45  1  0  0  0  0
 15 16  2  0  0  0  0
 16 17  1  0  0  0  0
 16 46  1  0  0  0  0
 17 18  2  0  0  0  0
 18 19  1  0  0  0  0
 18 47  1  0  0  0  0
 19 20  2  0  0  0  0
 19 48  1  0  0  0  0
 20 21  1  0  0  0  0
 20 49  1  0  0  0  0
 21 22  2  0  0  0  0
 21 50  1  0  0  0  0
 22 13  1  0  0  0  0
 22 17  1  0  0  0  0
 23 24  1  0  0  0  0
 23 51  1  0  0  0  0
 23 52  1  0  0  0  0
 24 25  1  0  0  0  0
 24  9  1  0  0  0  0
 24 53  1  1  0  0  0
 25 54  1  0  0  0  0
 25 55  1  0  0  0  0
 25 56  1  0  0  0  0
 26 27  2  0  0  0  0
 27 28  1  0  0  0  0
 27 57  1  0  0  0  0
 28 29  1  0  0  0  0
 28 30  2  0  0  0  0
 30 31  1  0  0  0  0
 30 58  1  0  0  0  0
 31 32  2  0  0  0  0
 31 59  1  0  0  0  0
 32 33  1  0  0  0  0
 32 26  1  0  0  0  0
 33 34  2  0  0  0  0
 33  7  1  0  0  0  0
M  END
$$$$

 OpenBabel07292611443D

 40 43  0  0  0  0  0  0  0  0999 V2000
    1.2395    1.3159   -2.9884 C   0  0  0  0  0  0  0  0  0  0  0  0
    0.5968    0.3521   -2.1150 N   0  0  0  0  0  0  0  0  0  0  0  0
    1.2371   -0.5626   -1.3673 C   0  0  0  0  0  0  0  0  0  0  0  0
    2.6938   -0.8285   -1.2323 C   0  0  0  0  0  0  0  0  0  0  0  0
    3.2948   -0.0323   -0.1467 C   0  0  0  0  0  0  0  0  0  0  0  0
    3.8327    1.2268   -0.3162 C   0  0  0  0  0  0  0  0  0  0  0  0
    4.3778    1.8959    0.7799 C   0  0  0  0  0  0  0  0  0  0  0  0
    4.3818    1.3010    2.0406 C   0  0  0  0  0  0  0  0  0  0  0  0
    3.8436    0.0385    2.2159 C   0  0  0  0  0  0  0  0  0  0  0  0
    3.3085   -0.6091    1.1208 C   0  0  0  0  0  0  0  0  0  0  0  0
    0.3116   -1.2754   -0.6921 N   0  0  0  0  0  0  0  0  0  0  0  0
   -0.8993   -0.8297   -0.9981 N   0  0  0  0  0  0  0  0  0  0  0  0
   -2.0969   -1.3720   -0.4525 C   0  0  0  0  0  0  0  0  0  0  0  0
   -2.5591   -2.6334   -0.7631 C   0  0  0  0  0  0  0  0  0  0  0  0
   -3.7127   -3.1095   -0.2146 N   0  0  0  0  0  0  0  0  0  0  0  0
   -4.4209   -2.3540    0.6412 C   0  0  0  0  0  0  0  0  0  0  0  0
   -3.9899   -1.0727    0.9829 C   0  0  0  0  0  0  0  0  0  0  0  0
   -4.7336   -0.2975    1.8726 C   0  0  0  0  0  0  0  0  0  0  0  0
   -4.2843    0.9806    2.2004 C   0  0  0  0  0  0  0  0  0  0  0  0
   -3.1156    1.4817    1.6539 C   0  0  0  0  0  0  0  0  0  0  0  0
   -2.3886    0.6961    0.7704 C   0  0  0  0  0  0  0  0  0  0  0  0
   -2.8102   -0.5809    0.4245 C   0  0  0  0  0  0  0  0  0  0  0  0
   -0.7123    0.1608   -1.8650 C   0  0  0  0  0  0  0  0  0  0  0  0
   -1.6500    0.8309   -2.3823 O   0  0  0  0  0  0  0  0  0  0  0  0
    2.3006    1.1851   -2.9444 H   0  0  0  0  0  0  0  0  0  0  0  0
    0.9888    2.3068   -2.6719 H   0  0  0  0  0  0  0  0  0  0  0  0
    0.9031    1.1666   -3.9931 H   0  0  0  0  0  0  0  0  0  0  0  0
    3.1784   -0.5805   -2.1535 H   0  0  0  0  0  0  0  0  0  0  0  0
    2.8236   -1.8643   -0.9976 H   0  0  0  0  0  0  0  0  0  0  0  0
    3.8318    1.6708   -1.2478 H   0  0  0  0  0  0  0  0  0  0  0  0
    4.7809    2.8379    0.6566 H   0  0  0  0  0  0  0  0  0  0  0  0
    4.7874    1.8037    2.8455 H   0  0  0  0  0  0  0  0  0  0  0  0
    3.8423   -0.4094    3.1456 H   0  0  0  0  0  0  0  0  0  0  0  0
    2.9056   -1.5510    1.2452 H   0  0  0  0  0  0  0  0  0  0  0  0
   -2.0250   -3.2245   -1.4191 H   0  0  0  0  0  0  0  0  0  0  0  0
   -5.2926   -2.7257    1.0498 H   0  0  0  0  0  0  0  0  0  0  0  0
   -5.6059   -0.6658    2.2832 H   0  0  0  0  0  0  0  0  0  0  0  0
   -4.8293    1.5598    2.8581 H   0  0  0  0  0  0  0  0  0  0  0  0
   -2.7884    2.4289    1.9006 H   0  0  0  0  0  0  0  0  0  0  0  0
   -1.5170    1.0686    0.3623 H   0  0  0  0  0  0  0  0  0  0  0  0
  1  2  1  0  0  0  0
  1 25  1  0  0  0  0
  1 26  1  0  0  0  0
  1 27  1  0  0  0  0
  2  3  1  0  0  0  0
  3  4  1  0  0  0  0
  3 11  2  0  0  0  0
  4  5  1  0  0  0  0
  4 28  1  0  0  0  0
  4 29  1  0  0  0  0
  5  6  2  0  0  0  0
  6  7  1  0  0  0  0
  6 30  1  0  0  0  0
  7  8  2  0  0  0  0
  7 31  1  0  0  0  0
  8  9  1  0  0  0  0
  8 32  1  0  0  0  0
  9 10  2  0  0  0  0
  9 33  1  0  0  0  0
 10  5  1  0  0  0  0
 10 34  1  0  0  0  0
 11 12  1  0  0  0  0
 12 13  1  0  0  0  0
 12 23  1  0  0  0  0
 13 14  2  0  0  0  0
 14 15  1  0  0  0  0
 14 35  1  0  0  0  0
 15 16  2  0  0  0  0
 16 17  1  0  0  0  0
 16 36  1  0  0  0  0
 17 18  2  0  0  0  0
 18 19  1  0  0  0  0
 18 37  1  0  0  0  0
 19 20  2  0  0  0  0
 19 38  1  0  0  0  0
 20 21  1  0  0  0  0
 20 39  1  0  0  0  0
 21 22  2  0  0  0  0
 21 40  1  0  0  0  0
 22 13  1  0  0  0  0
 22 17  1  0  0  0  0
 23 24  2  0  0  0  0
 23  2  1  0  0  0  0
M  END
$$$$

 OpenBabel07292611443D

 61 66  0  0  0  0  0  0  0  0999 V2000
   -2.2410   -2.1935    3.5451 C   0  0  0  0  0  0  0  0  0  0  0  0
   -1.0627   -2.7666    3.2228 O   0  0  0  0  0  0  0  0  0  0  0  0
   -0.2403   -2.2569    2.3013 C   0  0  0  0  0  0  0  0  0  0  0  0
   -0.6576   -2.1180    0.8854 C   0  0  1  0  0  0  0  0  0  0  0  0
   -1.8426   -1.2377    0.6767 C   0  0  0  0  0  0  0  0  0  0  0  0
   -1.6702   -0.5797   -0.6322 N   0  0  0  0  0  0  0  0  0  0  0  0
   -2.6985    0.1772   -1.2496 C   0  0  0  0  0  0  0  0  0  0  0  0
   -3.5825   -0.4429   -2.1380 C   0  0  0  0  0  0  0  0  0  0  0  0
   -4.5647    0.2611   -2.7313 N   0  0  0  0  0  0  0  0  0  0  0  0
   -4.7602    1.5755   -2.5173 C   0  0  0  0  0  0  0  0  0  0  0  0
   -3.9163    2.2399   -1.6484 C   0  0  0  0  0  0  0  0  0  0  0  0
   -4.0947    3.6011   -1.4034 C   0  0  0  0  0  0  0  0  0  0  0  0
   -3.2607    4.2634   -0.5389 C   0  0  0  0  0  0  0  0  0  0  0  0
   -2.2609    3.5422    0.0642 C   0  0  0  0  0  0  0  0  0  0  0  0
   -2.0845    2.2105   -0.1739 C   0  0  0  0  0  0  0  0  0  0  0  0
   -2.9062    1.5204   -1.0369 C   0  0  0  0  0  0  0  0  0  0  0  0
   -0.3547   -0.8754   -1.0595 C   0  0  0  0  0  0  0  0  0  0  0  0
    0.0518   -0.5804   -2.2313 O   0  0  0  0  0  0  0  0  0  0  0  0
    0.4288   -1.5444    0.0124 C   0  0  1  0  0  0  0  0  0  0  0  0
    1.1617   -0.4115    0.7175 C   0  0  0  0  0  0  0  0  0  0  0  0
    2.0205    0.2216   -0.2882 N   0  0  0  0  0  0  0  0  0  0  0  0
    1.9193    1.5855   -0.6848 C   0  0  0  0  0  0  0  0  0  0  0  0
    2.7647    2.4890    0.1541 C   0  0  0  0  0  0  0  0  0  0  0  0
    4.0770    2.8370   -0.0978 C   0  0  0  0  0  0  0  0  0  0  0  0
    4.4286    3.6612    0.9119 N   0  3  0  0  0  0  0  0  0  0  0  0
    3.3909    3.8211    1.7522 C   0  0  0  0  0  0  0  0  0  0  0  0
    2.3479    3.0998    1.2969 N   0  0  0  0  0  0  0  0  0  0  0  0
    3.0104   -0.6397   -0.8608 C   0  0  0  0  0  0  0  0  0  0  0  0
    4.1105   -0.1895   -1.2463 O   0  0  0  0  0  0  0  0  0  0  0  0
    2.6372   -2.0580   -0.9562 C   0  0  0  0  0  0  0  0  0  0  0  0
    3.5926   -2.8982   -1.4833 C   0  0  0  0  0  0  0  0  0  0  0  0
    3.3757   -4.2534   -1.6074 C   0  0  0  0  0  0  0  0  0  0  0  0
    2.1553   -4.7264   -1.1780 C   0  0  0  0  0  0  0  0  0  0  0  0
    1.8462   -6.4445   -1.3208 Cl  0  0  0  0  0  0  0  0  0  0  0  0
    1.1813   -3.8705   -0.6412 C   0  0  0  0  0  0  0  0  0  0  0  0
    1.3931   -2.5153   -0.5153 C   0  0  0  0  0  0  0  0  0  0  0  0
   -2.7248   -2.7743    4.3024 H   0  0  0  0  0  0  0  0  0  0  0  0
   -2.8650   -2.1485    2.6770 H   0  0  0  0  0  0  0  0  0  0  0  0
   -2.0676   -1.2032    3.9115 H   0  0  0  0  0  0  0  0  0  0  0  0
    0.6327   -2.8756    2.2999 H   0  0  0  0  0  0  0  0  0  0  0  0
   -0.1449   -1.2384    2.6149 H   0  0  0  0  0  0  0  0  0  0  0  0
   -0.8958   -3.1254    0.6147 H   0  0  0  0  0  0  0  0  0  0  0  0
   -1.8949   -0.5028    1.4527 H   0  0  0  0  0  0  0  0  0  0  0  0
   -2.7483   -1.8070    0.6999 H   0  0  0  0  0  0  0  0  0  0  0  0
   -3.4810   -1.4497   -2.3408 H   0  0  0  0  0  0  0  0  0  0  0  0
   -5.5260    2.0775   -2.9933 H   0  0  0  0  0  0  0  0  0  0  0  0
   -4.8574    4.1123   -1.8745 H   0  0  0  0  0  0  0  0  0  0  0  0
   -3.3811    5.2705   -0.3483 H   0  0  0  0  0  0  0  0  0  0  0  0
   -1.6228    4.0221    0.7181 H   0  0  0  0  0  0  0  0  0  0  0  0
   -1.3187    1.7095    0.3031 H   0  0  0  0  0  0  0  0  0  0  0  0
    1.7554   -0.7984    1.5192 H   0  0  0  0  0  0  0  0  0  0  0  0
    0.4729    0.2927    1.1353 H   0  0  0  0  0  0  0  0  0  0  0  0
    0.8981    1.8932   -0.5988 H   0  0  0  0  0  0  0  0  0  0  0  0
    2.2678    1.6578   -1.6939 H   0  0  0  0  0  0  0  0  0  0  0  0
    4.6642    2.5319   -0.8897 H   0  0  0  0  0  0  0  0  0  0  0  0
    5.3123    4.0821    1.0173 H   0  0  0  0  0  0  0  0  0  0  0  0
    3.3931    4.4011    2.6058 H   0  0  0  0  0  0  0  0  0  0  0  0
    1.4573    3.0284    1.7104 H   0  0  0  0  0  0  0  0  0  0  0  0
    4.4940   -2.5028   -1.7933 H   0  0  0  0  0  0  0  0  0  0  0  0
    4.0920   -4.8826   -2.0024 H   0  0  0  0  0  0  0  0  0  0  0  0
    0.2805   -4.2678   -0.3319 H   0  0  0  0  0  0  0  0  0  0  0  0
  1  2  1  0  0  0  0
  1 37  1  0  0  0  0
  1 38  1  0  0  0  0
  1 39  1  0  0  0  0
  2  3  1  0  0  0  0
  3 40  1  0  0  0  0
  3 41  1  0  0  0  0
  4  3  1  0  0  0  0
  4  5  1  0  0  0  0
  4 42  1  6  0  0  0
  5  6  1  0  0  0  0
  5 43  1  0  0  0  0
  5 44  1  0  0  0  0
  6  7  1  0  0  0  0
  6 17  1  0  0  0  0
  7  8  2  0  0  0  0
  8  9  1  0  0  0  0
  8 45  1  0  0  0  0
  9 10  2  0  0  0  0
 10 11  1  0  0  0  0
 10 46  1  0  0  0  0
 11 12  2  0  0  0  0
 12 13  1  0  0  0  0
 12 47  1  0  0  0  0
 13 14  2  0  0  0  0
 13 48  1  0  0  0  0
 14 15  1  0  0  0  0
 14 49  1  0  0  0  0
 15 16  2  0  0  0  0
 15 50  1  0  0  0  0
 16  7  1  0  0  0  0
 16 11  1  0  0  0  0
 17 18  2  0  0  0  0
 19 17  1  6  0  0  0
 19 20  1  0  0  0  0
 19  4  1  0  0  0  0
 20 21  1  0  0  0  0
 20 51  1  0  0  0  0
 20 52  1  0  0  0  0
 21 22  1  0  0  0  0
 21 28  1  0  0  0  0
 22 23  1  0  0  0  0
 22 53  1  0  0  0  0
 22 54  1  0  0  0  0
 23 24  2  0  0  0  0
 24 25  1  0  0  0  0
 24 55  1  0  0  0  0
 25 26  2  0  0  0  0
 25 56  1  0  0  0  0
 26 27  1  0  0  0  0
 26 57  1  0  0  0  0
 27 23  1  0  0  0  0
 27 58  1  0  0  0  0
 28 29  2  0  0  0  0
 28 30  1  0  0  0  0
 30 31  2  0  0  0  0
 31 32  1  0  0  0  0
 31 59  1  0  0  0  0
 32 33  2  0  0  0  0
 32 60  1  0  0  0  0
 33 34  1  0  0  0  0
 33 35  1  0  0  0  0
 35 36  2  0  0  0  0
 35 61  1  0  0  0  0
 36 30  1  0  0  0  0
 36 19  1  0  0  0  0
M  CHG  1  25   1
M  END
$$$$

 OpenBabel07292611443D

 57 62  0  0  0  0  0  0  0  0999 V2000
    0.5134   -1.8369    2.0403 C   0  0  0  0  0  0  0  0  0  0  0  0
   -0.4704   -1.3465    1.0381 C   0  0  1  0  0  0  0  0  0  0  0  0
   -1.2137   -0.1099    1.4070 C   0  0  0  0  0  0  0  0  0  0  0  0
   -1.6712    0.4056    0.1095 N   0  0  0  0  0  0  0  0  0  0  0  0
   -2.5877    1.4933   -0.0048 C   0  0  0  0  0  0  0  0  0  0  0  0
   -2.0598    2.7662   -0.0731 C   0  0  0  0  0  0  0  0  0  0  0  0
   -2.8411    3.8354   -0.1805 N   0  0  0  0  0  0  0  0  0  0  0  0
   -4.1844    3.6546   -0.2226 C   0  0  0  0  0  0  0  0  0  0  0  0
   -4.7504    2.4073   -0.1576 C   0  0  0  0  0  0  0  0  0  0  0  0
   -6.1204    2.2846   -0.2048 C   0  0  0  0  0  0  0  0  0  0  0  0
   -6.6765    1.0240   -0.1385 C   0  0  0  0  0  0  0  0  0  0  0  0
   -5.8607   -0.1024   -0.0256 C   0  0  0  0  0  0  0  0  0  0  0  0
   -4.4791    0.0234    0.0219 C   0  0  0  0  0  0  0  0  0  0  0  0
   -3.9627    1.3033   -0.0475 C   0  0  0  0  0  0  0  0  0  0  0  0
   -1.0562   -0.3490   -0.9381 C   0  0  0  0  0  0  0  0  0  0  0  0
   -1.4768   -0.4251   -2.1138 O   0  0  0  0  0  0  0  0  0  0  0  0
    0.1360   -0.9779   -0.3039 C   0  0  1  0  0  0  0  0  0  0  0  0
    1.1699    0.1038   -0.1829 C   0  0  0  0  0  0  0  0  0  0  0  0
    2.4893   -0.3808    0.1527 N   0  0  0  0  0  0  0  0  0  0  0  0
    3.3255    0.3027    1.1311 C   0  0  0  0  0  0  0  0  0  0  0  0
    4.1779    1.3278    0.5210 C   0  0  0  0  0  0  0  0  0  0  0  0
    5.4131    0.9551    0.0886 N   0  0  0  0  0  0  0  0  0  0  0  0
    6.2584    1.8201   -0.4795 C   0  0  0  0  0  0  0  0  0  0  0  0
    5.8742    3.1244   -0.6338 C   0  0  0  0  0  0  0  0  0  0  0  0
    4.6249    3.5294   -0.2032 C   0  0  0  0  0  0  0  0  0  0  0  0
    3.8122    2.6125    0.3637 N   0  0  0  0  0  0  0  0  0  0  0  0
    2.9408   -1.5537   -0.5107 C   0  0  0  0  0  0  0  0  0  0  0  0
    4.1824   -1.7779   -0.5844 O   0  0  0  0  0  0  0  0  0  0  0  0
    1.9492   -2.4647   -1.0878 C   0  0  0  0  0  0  0  0  0  0  0  0
    2.4460   -3.5906   -1.7217 C   0  0  0  0  0  0  0  0  0  0  0  0
    1.5314   -4.4725   -2.2783 C   0  0  0  0  0  0  0  0  0  0  0  0
    0.1776   -4.2277   -2.1977 C   0  0  0  0  0  0  0  0  0  0  0  0
   -0.6898   -5.1166   -2.7562 F   0  0  0  0  0  0  0  0  0  0  0  0
   -0.2732   -3.0769   -1.5472 C   0  0  0  0  0  0  0  0  0  0  0  0
    0.6003   -2.1926   -0.9911 C   0  0  0  0  0  0  0  0  0  0  0  0
    0.0060   -2.0731    2.9522 H   0  0  0  0  0  0  0  0  0  0  0  0
    1.2435   -1.0768    2.2249 H   0  0  0  0  0  0  0  0  0  0  0  0
    0.9984   -2.7136    1.6646 H   0  0  0  0  0  0  0  0  0  0  0  0
   -1.1149   -2.1996    0.9952 H   0  0  0  0  0  0  0  0  0  0  0  0
   -0.5710    0.5932    1.8943 H   0  0  0  0  0  0  0  0  0  0  0  0
   -2.0146   -0.2904    2.0932 H   0  0  0  0  0  0  0  0  0  0  0  0
   -1.0358    2.8905   -0.0400 H   0  0  0  0  0  0  0  0  0  0  0  0
   -4.7986    4.4797   -0.3060 H   0  0  0  0  0  0  0  0  0  0  0  0
   -6.7204    3.1201   -0.2882 H   0  0  0  0  0  0  0  0  0  0  0  0
   -7.7020    0.9133   -0.1726 H   0  0  0  0  0  0  0  0  0  0  0  0
   -6.2895   -1.0399    0.0232 H   0  0  0  0  0  0  0  0  0  0  0  0
   -3.8651   -0.8019    0.1053 H   0  0  0  0  0  0  0  0  0  0  0  0
    0.8570    0.7847    0.5808 H   0  0  0  0  0  0  0  0  0  0  0  0
    1.2455    0.5694   -1.1433 H   0  0  0  0  0  0  0  0  0  0  0  0
    3.9496   -0.4200    1.6140 H   0  0  0  0  0  0  0  0  0  0  0  0
    2.6776    0.7909    1.8288 H   0  0  0  0  0  0  0  0  0  0  0  0
    7.1893    1.5085   -0.7979 H   0  0  0  0  0  0  0  0  0  0  0  0
    6.5160    3.8042   -1.0708 H   0  0  0  0  0  0  0  0  0  0  0  0
    4.3205    4.5094   -0.3124 H   0  0  0  0  0  0  0  0  0  0  0  0
    3.4611   -3.7676   -1.7782 H   0  0  0  0  0  0  0  0  0  0  0  0
    1.8686   -5.3216   -2.7582 H   0  0  0  0  0  0  0  0  0  0  0  0
   -1.2870   -2.8934   -1.4869 H   0  0  0  0  0  0  0  0  0  0  0  0
  1 36  1  0  0  0  0
  1 37  1  0  0  0  0
  1 38  1  0  0  0  0
  2  1  1  0  0  0  0
  2  3  1  0  0  0  0
  2 39  1  6  0  0  0
  3  4  1  0  0  0  0
  3 40  1  0  0  0  0
  3 41  1  0  0  0  0
  4  5  1  0  0  0  0
  4 15  1  0  0  0  0
  5  6  2  0  0  0  0
  6  7  1  0  0  0  0
  6 42  1  0  0  0  0
  7  8  2  0  0  0  0
  8  9  1  0  0  0  0
  8 43  1  0  0  0  0
  9 10  2  0  0  0  0
 10 11  1  0  0  0  0
 10 44  1  0  0  0  0
 11 12  2  0  0  0  0
 11 45  1  0  0  0  0
 12 13  1  0  0  0  0
 12 46  1  0  0  0  0
 13 14  2  0  0  0  0
 13 47  1  0  0  0  0
 14  5  1  0  0  0  0
 14  9  1  0  0  0  0
 15 16  2  0  0  0  0
 17 15  1  6  0  0  0
 17 18  1  0  0  0  0
 17  2  1  0  0  0  0
 18 19  1  0  0  0  0
 18 48  1  0  0  0  0
 18 49  1  0  0  0  0
 19 20  1  0  0  0  0
 19 27  1  0  0  0  0
 20 21  1  0  0  0  0
 20 50  1  0  0  0  0
 20 51  1  0  0  0  0
 21 22  2  0  0  0  0
 22 23  1  0  0  0  0
 23 24  2  0  0  0  0
 23 52  1  0  0  0  0
 24 25  1  0  0  0  0
 24 53  1  0  0  0  0
 25 26  2  0  0  0  0
 25 54  1  0  0  0  0
 26 21  1  0  0  0  0
 27 28  2  0  0  0  0
 27 29  1  0  0  0  0
 29 30  2  0  0  0  0
 30 31  1  0  0  0  0
 30 55  1  0  0  0  0
 31 32  2  0  0  0  0
 31 56  1  0  0  0  0
 32 33  1  0  0  0  0
 32 34  1  0  0  0  0
 34 35  2  0  0  0  0
 34 57  1  0  0  0  0
 35 29  1  0  0  0  0
 35 17  1  0  0  0  0
M  END
$$$$

 OpenBabel07292611443D

 59 63  0  0  0  0  0  0  0  0999 V2000
   -5.3400    4.3545    0.7868 C   0  0  0  0  0  0  0  0  0  0  0  0
   -4.7763    3.4396   -0.2122 N   0  0  0  0  0  0  0  0  0  0  0  0
   -4.0191    2.3497    0.3086 C   0  0  0  0  0  0  0  0  0  0  0  0
   -3.8533    2.1951    1.5488 O   0  0  0  0  0  0  0  0  0  0  0  0
   -3.4394    1.4104   -0.6997 C   0  0  0  0  0  0  0  0  0  0  0  0
   -2.6907    0.3391   -0.0969 N   0  0  0  0  0  0  0  0  0  0  0  0
   -1.2700    0.4316    0.1828 C   0  0  0  0  0  0  0  0  0  0  0  0
   -0.4782   -0.7881   -0.1380 C   0  0  2  0  0  0  0  0  0  0  0  0
    0.7522   -0.7526    0.7252 C   0  0  0  0  0  0  0  0  0  0  0  0
    0.9988   -1.4000    1.7673 O   0  0  0  0  0  0  0  0  0  0  0  0
    1.6038    0.1896    0.1042 N   0  0  0  0  0  0  0  0  0  0  0  0
    2.6701    0.9268    0.6899 C   0  0  0  0  0  0  0  0  0  0  0  0
    2.4017    2.1629    1.2545 C   0  0  0  0  0  0  0  0  0  0  0  0
    3.3607    2.9201    1.8285 N   0  0  0  0  0  0  0  0  0  0  0  0
    4.6533    2.5047    1.8830 C   0  0  0  0  0  0  0  0  0  0  0  0
    4.9411    1.2752    1.3256 C   0  0  0  0  0  0  0  0  0  0  0  0
    6.2578    0.8550    1.3826 C   0  0  0  0  0  0  0  0  0  0  0  0
    6.5775   -0.3707    0.8336 C   0  0  0  0  0  0  0  0  0  0  0  0
    5.6089   -1.1594    0.2419 C   0  0  0  0  0  0  0  0  0  0  0  0
    4.2864   -0.7385    0.1841 C   0  0  0  0  0  0  0  0  0  0  0  0
    3.9718    0.4790    0.7299 C   0  0  0  0  0  0  0  0  0  0  0  0
    1.2307    0.3184   -1.2917 C   0  0  0  0  0  0  0  0  0  0  0  0
    0.0901   -0.6625   -1.4871 C   0  0  0  0  0  0  0  0  0  0  0  0
    0.7092   -1.9239   -2.0341 C   0  0  0  0  0  0  0  0  0  0  0  0
   -0.8280   -0.0034   -2.5074 C   0  0  0  0  0  0  0  0  0  0  0  0
   -1.1929   -2.0107    0.2123 C   0  0  0  0  0  0  0  0  0  0  0  0
   -0.5126   -3.2184    0.3844 C   0  0  0  0  0  0  0  0  0  0  0  0
   -1.1662   -4.3871    0.7148 C   0  0  0  0  0  0  0  0  0  0  0  0
   -0.2685   -5.8786    0.9201 Cl  0  0  0  0  0  0  0  0  0  0  0  0
   -2.5344   -4.4240    0.8936 C   0  0  0  0  0  0  0  0  0  0  0  0
   -3.2231   -3.2402    0.7277 C   0  0  0  0  0  0  0  0  0  0  0  0
   -2.5676   -2.0810    0.3991 C   0  0  0  0  0  0  0  0  0  0  0  0
   -3.3707   -0.8708    0.2438 C   0  0  0  0  0  0  0  0  0  0  0  0
   -4.6071   -0.8947    0.4034 O   0  0  0  0  0  0  0  0  0  0  0  0
   -5.8855    5.1307    0.2920 H   0  0  0  0  0  0  0  0  0  0  0  0
   -4.5479    4.7863    1.3622 H   0  0  0  0  0  0  0  0  0  0  0  0
   -5.9977    3.8137    1.4348 H   0  0  0  0  0  0  0  0  0  0  0  0
   -4.9120    3.5698   -1.1786 H   0  0  0  0  0  0  0  0  0  0  0  0
   -2.7884    1.9614   -1.3458 H   0  0  0  0  0  0  0  0  0  0  0  0
   -4.2538    0.9719   -1.2377 H   0  0  0  0  0  0  0  0  0  0  0  0
   -1.1511    0.6382    1.2259 H   0  0  0  0  0  0  0  0  0  0  0  0
   -0.8928    1.2053   -0.4528 H   0  0  0  0  0  0  0  0  0  0  0  0
    1.4329    2.5181    1.2357 H   0  0  0  0  0  0  0  0  0  0  0  0
    5.3872    3.0827    2.3216 H   0  0  0  0  0  0  0  0  0  0  0  0
    6.9823    1.4425    1.8241 H   0  0  0  0  0  0  0  0  0  0  0  0
    7.5540   -0.7029    0.8655 H   0  0  0  0  0  0  0  0  0  0  0  0
    5.8714   -2.0721   -0.1619 H   0  0  0  0  0  0  0  0  0  0  0  0
    3.5614   -1.3256   -0.2571 H   0  0  0  0  0  0  0  0  0  0  0  0
    2.0552    0.0672   -1.9258 H   0  0  0  0  0  0  0  0  0  0  0  0
    0.9461    1.3195   -1.5402 H   0  0  0  0  0  0  0  0  0  0  0  0
    1.0938   -1.7362   -3.0148 H   0  0  0  0  0  0  0  0  0  0  0  0
   -0.0329   -2.6932   -2.0832 H   0  0  0  0  0  0  0  0  0  0  0  0
    1.5060   -2.2374   -1.3925 H   0  0  0  0  0  0  0  0  0  0  0  0
   -0.3326    0.0444   -3.4546 H   0  0  0  0  0  0  0  0  0  0  0  0
   -1.0710    0.9864   -2.1816 H   0  0  0  0  0  0  0  0  0  0  0  0
   -1.7256   -0.5778   -2.6030 H   0  0  0  0  0  0  0  0  0  0  0  0
    0.5118   -3.2368    0.2604 H   0  0  0  0  0  0  0  0  0  0  0  0
   -3.0213   -5.2997    1.1408 H   0  0  0  0  0  0  0  0  0  0  0  0
   -4.2474   -3.2266    0.8528 H   0  0  0  0  0  0  0  0  0  0  0  0
  1  2  1  0  0  0  0
  1 35  1  0  0  0  0
  1 36  1  0  0  0  0
  1 37  1  0  0  0  0
  2  3  1  0  0  0  0
  2 38  1  0  0  0  0
  3  4  2  0  0  0  0
  3  5  1  0  0  0  0
  5  6  1  0  0  0  0
  5 39  1  0  0  0  0
  5 40  1  0  0  0  0
  6  7  1  0  0  0  0
  7 41  1  0  0  0  0
  7 42  1  0  0  0  0
  8  7  1  0  0  0  0
  8  9  1  1  0  0  0
  8 26  1  0  0  0  0
  9 10  2  0  0  0  0
  9 11  1  0  0  0  0
 11 12  1  0  0  0  0
 11 22  1  0  0  0  0
 12 13  2  0  0  0  0
 13 14  1  0  0  0  0
 13 43  1  0  0  0  0
 14 15  2  0  0  0  0
 15 16  1  0  0  0  0
 15 44  1  0  0  0  0
 16 17  2  0  0  0  0
 17 18  1  0  0  0  0
 17 45  1  0  0  0  0
 18 19  2  0  0  0  0
 18 46  1  0  0  0  0
 19 20  1  0  0  0  0
 19 47  1  0  0  0  0
 20 21  2  0  0  0  0
 20 48  1  0  0  0  0
 21 12  1  0  0  0  0
 21 16  1  0  0  0  0
 22 23  1  0  0  0  0
 22 49  1  0  0  0  0
 22 50  1  0  0  0  0
 23 24  1  0  0  0  0
 23 25  1  0  0  0  0
 23  8  1  0  0  0  0
 24 51  1  0  0  0  0
 24 52  1  0  0  0  0
 24 53  1  0  0  0  0
 25 54  1  0  0  0  0
 25 55  1  0  0  0  0
 25 56  1  0  0  0  0
 26 27  2  0  0  0  0
 27 28  1  0  0  0  0
 27 57  1  0  0  0  0
 28 29  1  0  0  0  0
 28 30  2  0  0  0  0
 30 31  1  0  0  0  0
 30 58  1  0  0  0  0
 31 32  2  0  0  0  0
 31 59  1  0  0  0  0
 32 33  1  0  0  0  0
 32 26  1  0  0  0  0
 33 34  2  0  0  0  0
 33  6  1  0  0  0  0
M  END
$$$$

 OpenBabel07292611443D

 42 45  0  0  0  0  0  0  0  0999 V2000
   -4.2375    3.0168    0.7662 C   0  0  0  0  0  0  0  0  0  0  0  0
   -3.3057    1.9008    0.8334 N   0  0  0  0  0  0  0  0  0  0  0  0
   -1.9128    2.0048    0.5378 C   0  0  0  0  0  0  0  0  0  0  0  0
   -1.5805    1.0316   -0.6027 C   0  0  1  0  0  0  0  0  0  0  0  0
   -0.0867    1.0562   -0.8259 C   0  0  0  0  0  0  0  0  0  0  0  0
    0.4027    1.3218   -1.9571 O   0  0  0  0  0  0  0  0  0  0  0  0
    0.8270    0.7846    0.2296 N   0  0  0  0  0  0  0  0  0  0  0  0
    2.2359    0.8020    0.0764 C   0  0  0  0  0  0  0  0  0  0  0  0
    2.8974    2.0232    0.2508 C   0  0  0  0  0  0  0  0  0  0  0  0
    4.2200    2.1373    0.1282 N   0  0  0  0  0  0  0  0  0  0  0  0
    4.9434    1.0652   -0.1685 C   0  0  0  0  0  0  0  0  0  0  0  0
    4.3806   -0.1831   -0.3590 C   0  0  0  0  0  0  0  0  0  0  0  0
    5.1181   -1.3060   -0.6642 C   0  0  0  0  0  0  0  0  0  0  0  0
    4.5240   -2.5573   -0.8481 C   0  0  0  0  0  0  0  0  0  0  0  0
    3.1455   -2.6346   -0.7113 C   0  0  0  0  0  0  0  0  0  0  0  0
    2.4296   -1.5056   -0.4074 C   0  0  0  0  0  0  0  0  0  0  0  0
    3.0143   -0.2737   -0.2268 C   0  0  0  0  0  0  0  0  0  0  0  0
   -2.0897   -0.2831   -0.2303 C   0  0  0  0  0  0  0  0  0  0  0  0
   -1.4785   -1.4090   -0.7884 C   0  0  0  0  0  0  0  0  0  0  0  0
   -1.8826   -2.6883   -0.4985 C   0  0  0  0  0  0  0  0  0  0  0  0
   -1.0486   -4.0423   -1.2524 Cl  0  0  0  0  0  0  0  0  0  0  0  0
   -2.9318   -2.8828    0.3760 C   0  0  0  0  0  0  0  0  0  0  0  0
   -3.5665   -1.8072    0.9511 C   0  0  0  0  0  0  0  0  0  0  0  0
   -3.1299   -0.5380    0.6333 C   0  0  0  0  0  0  0  0  0  0  0  0
   -3.8049    0.6120    1.2227 C   0  0  0  0  0  0  0  0  0  0  0  0
   -4.7715    0.5096    2.0282 O   0  0  0  0  0  0  0  0  0  0  0  0
   -3.7149    3.9001    0.4637 H   0  0  0  0  0  0  0  0  0  0  0  0
   -4.6758    3.1740    1.7296 H   0  0  0  0  0  0  0  0  0  0  0  0
   -5.0069    2.7967    0.0559 H   0  0  0  0  0  0  0  0  0  0  0  0
   -1.3402    1.7522    1.4057 H   0  0  0  0  0  0  0  0  0  0  0  0
   -1.6748    3.0061    0.2452 H   0  0  0  0  0  0  0  0  0  0  0  0
   -2.0415    1.3055   -1.5286 H   0  0  0  0  0  0  0  0  0  0  0  0
    0.4596    0.5722    1.1180 H   0  0  0  0  0  0  0  0  0  0  0  0
    2.3432    2.8626    0.4818 H   0  0  0  0  0  0  0  0  0  0  0  0
    5.9662    1.1672   -0.2607 H   0  0  0  0  0  0  0  0  0  0  0  0
    6.1421   -1.2203   -0.7601 H   0  0  0  0  0  0  0  0  0  0  0  0
    5.0881   -3.3907   -1.0766 H   0  0  0  0  0  0  0  0  0  0  0  0
    2.6615   -3.5373   -0.8377 H   0  0  0  0  0  0  0  0  0  0  0  0
    1.4052   -1.5835   -0.3097 H   0  0  0  0  0  0  0  0  0  0  0  0
   -0.6930   -1.2734   -1.4438 H   0  0  0  0  0  0  0  0  0  0  0  0
   -3.2421   -3.8413    0.5998 H   0  0  0  0  0  0  0  0  0  0  0  0
   -4.3520   -1.9464    1.6059 H   0  0  0  0  0  0  0  0  0  0  0  0
  1  2  1  0  0  0  0
  1 27  1  0  0  0  0
  1 28  1  0  0  0  0
  1 29  1  0  0  0  0
  2  3  1  0  0  0  0
  3  4  1  0  0  0  0
  3 30  1  0  0  0  0
  3 31  1  0  0  0  0
  4  5  1  0  0  0  0
  4 18  1  0  0  0  0
  4 32  1  6  0  0  0
  5  6  2  0  0  0  0
  5  7  1  0  0  0  0
  7  8  1  0  0  0  0
  7 33  1  0  0  0  0
  8  9  2  0  0  0  0
  9 10  1  0  0  0  0
  9 34  1  0  0  0  0
 10 11  2  0  0  0  0
 11 12  1  0  0  0  0
 11 35  1  0  0  0  0
 12 13  2  0  0  0  0
 13 14  1  0  0  0  0
 13 36  1  0  0  0  0
 14 15  2  0  0  0  0
 14 37  1  0  0  0  0
 15 16  1  0  0  0  0
 15 38  1  0  0  0  0
 16 17  2  0  0  0  0
 16 39  1  0  0  0  0
 17  8  1  0  0  0  0
 17 12  1  0  0  0  0
 18 19  2  0  0  0  0
 19 20  1  0  0  0  0
 19 40  1  0  0  0  0
 20 21  1  0  0  0  0
 20 22  2  0  0  0  0
 22 23  1  0  0  0  0
 22 41  1  0  0  0  0
 23 24  2  0  0  0  0
 23 42  1  0  0  0  0
 24 25  1  0  0  0  0
 24 18  1  0  0  0  0
 25 26  2  0  0  0  0
 25  2  1  0  0  0  0
M  END
$$$$

 OpenBabel07292611443D

 60 65  0  0  0  0  0  0  0  0999 V2000
   -2.3550    3.8762    1.2817 C   0  0  0  0  0  0  0  0  0  0  0  0
   -2.3263    2.8774    0.2294 N   0  0  0  0  0  0  0  0  0  0  0  0
   -2.4597    3.1864   -1.1468 C   0  0  0  0  0  0  0  0  0  0  0  0
   -2.6119    4.4027   -1.4496 O   0  0  0  0  0  0  0  0  0  0  0  0
   -2.4350    2.2054   -2.2405 C   0  0  0  0  0  0  0  0  0  0  0  0
   -2.2449    0.8278   -1.7675 N   0  0  0  0  0  0  0  0  0  0  0  0
   -0.9049    0.3485   -1.6842 C   0  0  0  0  0  0  0  0  0  0  0  0
   -0.7346   -0.8178   -0.8066 C   0  0  2  0  0  0  0  0  0  0  0  0
   -0.2208   -0.2498    0.5204 C   0  0  0  0  0  0  0  0  0  0  0  0
   -0.8324   -0.1840    1.6032 O   0  0  0  0  0  0  0  0  0  0  0  0
    1.1044    0.1649    0.1771 N   0  0  0  0  0  0  0  0  0  0  0  0
    1.8345    1.1553    0.9032 C   0  0  0  0  0  0  0  0  0  0  0  0
    1.7448    2.5032    0.5510 C   0  0  0  0  0  0  0  0  0  0  0  0
    2.4166    3.4620    1.2107 N   0  0  0  0  0  0  0  0  0  0  0  0
    3.2142    3.1965    2.2450 C   0  0  0  0  0  0  0  0  0  0  0  0
    3.3278    1.8605    2.6245 C   0  0  0  0  0  0  0  0  0  0  0  0
    4.1544    1.5958    3.6946 C   0  0  0  0  0  0  0  0  0  0  0  0
    4.2726    0.2737    4.0772 C   0  0  0  0  0  0  0  0  0  0  0  0
    3.6090   -0.7519    3.4398 C   0  0  0  0  0  0  0  0  0  0  0  0
    2.7865   -0.4611    2.3702 C   0  0  0  0  0  0  0  0  0  0  0  0
    2.6521    0.8511    1.9691 C   0  0  0  0  0  0  0  0  0  0  0  0
    1.5640   -0.5683   -0.9938 C   0  0  0  0  0  0  0  0  0  0  0  0
    0.4778   -1.6570   -1.1511 C   0  0  2  0  0  0  0  0  0  0  0  0
    0.5580   -2.1590   -2.5417 C   0  0  0  0  0  0  0  0  0  0  0  0
    1.8336   -2.9720   -2.6531 C   0  0  0  0  0  0  0  0  0  0  0  0
    3.0524   -2.5330   -2.9985 N   0  0  0  0  0  0  0  0  0  0  0  0
    3.8763   -3.5870   -2.9663 N   0  0  0  0  0  0  0  0  0  0  0  0
    3.2151   -4.6687   -2.6131 N   0  5  0  0  0  0  0  0  0  0  0  0
    1.9794   -4.2894   -2.4251 N   0  0  0  0  0  0  0  0  0  0  0  0
   -1.9428   -1.5390   -0.4902 C   0  0  0  0  0  0  0  0  0  0  0  0
   -1.8307   -2.7600    0.1787 C   0  0  0  0  0  0  0  0  0  0  0  0
   -2.9698   -3.5043    0.5126 C   0  0  0  0  0  0  0  0  0  0  0  0
   -2.8143   -5.0447    1.3570 Cl  0  0  0  0  0  0  0  0  0  0  0  0
   -4.2415   -3.0807    0.2054 C   0  0  0  0  0  0  0  0  0  0  0  0
   -4.3573   -1.8793   -0.4527 C   0  0  0  0  0  0  0  0  0  0  0  0
   -3.2413   -1.1635   -0.7724 C   0  0  0  0  0  0  0  0  0  0  0  0
   -3.4203    0.1071   -1.4592 C   0  0  0  0  0  0  0  0  0  0  0  0
   -4.5436    0.5493   -1.7656 O   0  0  0  0  0  0  0  0  0  0  0  0
   -2.2349    3.3976    2.2311 H   0  0  0  0  0  0  0  0  0  0  0  0
   -3.2922    4.3921    1.2584 H   0  0  0  0  0  0  0  0  0  0  0  0
   -1.5591    4.5755    1.1316 H   0  0  0  0  0  0  0  0  0  0  0  0
   -2.2077    1.9342    0.4856 H   0  0  0  0  0  0  0  0  0  0  0  0
   -1.6322    2.4528   -2.9032 H   0  0  0  0  0  0  0  0  0  0  0  0
   -3.3843    2.2483   -2.7323 H   0  0  0  0  0  0  0  0  0  0  0  0
   -0.2880    1.1402   -1.3133 H   0  0  0  0  0  0  0  0  0  0  0  0
   -0.6295    0.0343   -2.6692 H   0  0  0  0  0  0  0  0  0  0  0  0
    1.1424    2.7723   -0.2426 H   0  0  0  0  0  0  0  0  0  0  0  0
    3.7233    3.9446    2.7411 H   0  0  0  0  0  0  0  0  0  0  0  0
    4.6607    2.3487    4.1864 H   0  0  0  0  0  0  0  0  0  0  0  0
    4.8849    0.0441    4.8756 H   0  0  0  0  0  0  0  0  0  0  0  0
    3.7256   -1.7265    3.7585 H   0  0  0  0  0  0  0  0  0  0  0  0
    2.2801   -1.2140    1.8785 H   0  0  0  0  0  0  0  0  0  0  0  0
    2.5267   -1.0036   -0.8247 H   0  0  0  0  0  0  0  0  0  0  0  0
    1.6837    0.0449   -1.8624 H   0  0  0  0  0  0  0  0  0  0  0  0
    0.5203   -2.5479   -0.5601 H   0  0  0  0  0  0  0  0  0  0  0  0
    0.5860   -1.3376   -3.2268 H   0  0  0  0  0  0  0  0  0  0  0  0
   -0.2960   -2.7585   -2.7786 H   0  0  0  0  0  0  0  0  0  0  0  0
   -0.8963   -3.1187    0.4304 H   0  0  0  0  0  0  0  0  0  0  0  0
   -5.0716   -3.6396    0.4576 H   0  0  0  0  0  0  0  0  0  0  0  0
   -5.2905   -1.5183   -0.7053 H   0  0  0  0  0  0  0  0  0  0  0  0
  1  2  1  0  0  0  0
  1 39  1  0  0  0  0
  1 40  1  0  0  0  0
  1 41  1  0  0  0  0
  2  3  1  0  0  0  0
  2 42  1  0  0  0  0
  3  4  2  0  0  0  0
  3  5  1  0  0  0  0
  5  6  1  0  0  0  0
  5 43  1  0  0  0  0
  5 44  1  0  0  0  0
  6  7  1  0  0  0  0
  7 45  1  0  0  0  0
  7 46  1  0  0  0  0
  8  7  1  0  0  0  0
  8  9  1  1  0  0  0
  8 30  1  0  0  0  0
  9 10  2  0  0  0  0
  9 11  1  0  0  0  0
 11 12  1  0  0  0  0
 11 22  1  0  0  0  0
 12 13  2  0  0  0  0
 13 14  1  0  0  0  0
 13 47  1  0  0  0  0
 14 15  2  0  0  0  0
 15 16  1  0  0  0  0
 15 48  1  0  0  0  0
 16 17  2  0  0  0  0
 17 18  1  0  0  0  0
 17 49  1  0  0  0  0
 18 19  2  0  0  0  0
 18 50  1  0  0  0  0
 19 20  1  0  0  0  0
 19 51  1  0  0  0  0
 20 21  2  0  0  0  0
 20 52  1  0  0  0  0
 21 12  1  0  0  0  0
 21 16  1  0  0  0  0
 22 23  1  0  0  0  0
 22 53  1  0  0  0  0
 22 54  1  0  0  0  0
 23 24  1  0  0  0  0
 23  8  1  0  0  0  0
 23 55  1  1  0  0  0
 24 25  1  0  0  0  0
 24 56  1  0  0  0  0
 24 57  1  0  0  0  0
 25 26  1  0  0  0  0
 26 27  2  0  0  0  0
 27 28  1  0  0  0  0
 28 29  1  0  0  0  0
 29 25  2  0  0  0  0
 30 31  2  0  0  0  0
 31 32  1  0  0  0  0
 31 58  1  0  0  0  0
 32 33  1  0  0  0  0
 32 34  2  0  0  0  0
 34 35  1  0  0  0  0
 34 59  1  0  0  0  0
 35 36  2  0  0  0  0
 35 60  1  0  0  0  0
 36 37  1  0  0  0  0
 36 30  1  0  0  0  0
 37 38  2  0  0  0  0
 37  6  1  0  0  0  0
M  CHG  1  28  -1
M  END
$$$$

 OpenBabel07292611443D

 62 67  0  0  0  0  0  0  0  0999 V2000
    3.0943   -2.3717    0.6453 C   0  0  0  0  0  0  0  0  0  0  0  0
    4.1979   -1.8920   -0.2718 C   0  0  0  0  0  0  0  0  0  0  0  0
    4.8787   -0.7875    0.3737 N   0  0  0  0  0  0  0  0  0  0  0  0
    5.9212   -0.9390    1.1786 N   0  0  0  0  0  0  0  0  0  0  0  0
    6.3346    0.2631    1.6240 C   0  0  0  0  0  0  0  0  0  0  0  0
    5.4740    1.1833    1.0391 C   0  0  0  0  0  0  0  0  0  0  0  0
    4.5500    0.5000    0.2438 C   0  0  0  0  0  0  0  0  0  0  0  0
    3.4898    1.1625   -0.5254 C   0  0  0  0  0  0  0  0  0  0  0  0
    2.2487    1.3402    0.1858 N   0  0  0  0  0  0  0  0  0  0  0  0
    1.1685    0.3821    0.1925 C   0  0  0  0  0  0  0  0  0  0  0  0
   -0.1883    0.9810    0.0174 C   0  0  2  0  0  0  0  0  0  0  0  0
   -1.2301    0.0336    0.5017 C   0  0  0  0  0  0  0  0  0  0  0  0
   -1.3226   -0.3604    1.6924 O   0  0  0  0  0  0  0  0  0  0  0  0
   -2.0714   -0.3335   -0.5822 N   0  0  0  0  0  0  0  0  0  0  0  0
   -3.4101   -0.8179   -0.4671 C   0  0  0  0  0  0  0  0  0  0  0  0
   -4.4591    0.1006   -0.4753 C   0  0  0  0  0  0  0  0  0  0  0  0
   -5.7482   -0.3158   -0.3684 N   0  0  0  0  0  0  0  0  0  0  0  0
   -5.9909   -1.6332   -0.2544 C   0  0  0  0  0  0  0  0  0  0  0  0
   -4.9742   -2.5635   -0.2434 C   0  0  0  0  0  0  0  0  0  0  0  0
   -5.2953   -3.9000   -0.1234 C   0  0  0  0  0  0  0  0  0  0  0  0
   -4.2542   -4.8057   -0.1157 C   0  0  0  0  0  0  0  0  0  0  0  0
   -2.9315   -4.4136   -0.2228 C   0  0  0  0  0  0  0  0  0  0  0  0
   -2.6067   -3.0720   -0.3434 C   0  0  0  0  0  0  0  0  0  0  0  0
   -3.6520   -2.1660   -0.3509 C   0  0  0  0  0  0  0  0  0  0  0  0
   -1.2991   -0.1157   -1.7902 C   0  0  0  0  0  0  0  0  0  0  0  0
   -0.5878    1.1867   -1.4128 C   0  0  2  0  0  0  0  0  0  0  0  0
    0.5611    1.3209   -2.3641 C   0  0  0  0  0  0  0  0  0  0  0  0
   -0.3928    2.2217    0.8097 C   0  0  0  0  0  0  0  0  0  0  0  0
   -1.6867    2.6335    1.1031 C   0  0  0  0  0  0  0  0  0  0  0  0
   -1.9406    3.7807    1.8370 C   0  0  0  0  0  0  0  0  0  0  0  0
   -3.1837    4.2002    2.1339 F   0  0  0  0  0  0  0  0  0  0  0  0
   -0.8675    4.5504    2.2985 C   0  0  0  0  0  0  0  0  0  0  0  0
    0.4218    4.1378    2.0048 C   0  0  0  0  0  0  0  0  0  0  0  0
    0.6573    2.9883    1.2699 C   0  0  0  0  0  0  0  0  0  0  0  0
    2.0297    2.5423    0.9533 C   0  0  0  0  0  0  0  0  0  0  0  0
    3.0008    3.2295    1.3648 O   0  0  0  0  0  0  0  0  0  0  0  0
    2.5786   -3.1888    0.1857 H   0  0  0  0  0  0  0  0  0  0  0  0
    2.4068   -1.5717    0.8249 H   0  0  0  0  0  0  0  0  0  0  0  0
    3.5171   -2.6938    1.5739 H   0  0  0  0  0  0  0  0  0  0  0  0
    3.7797   -1.5657   -1.2011 H   0  0  0  0  0  0  0  0  0  0  0  0
    4.8873   -2.6870   -0.4659 H   0  0  0  0  0  0  0  0  0  0  0  0
    7.1215    0.4584    2.2625 H   0  0  0  0  0  0  0  0  0  0  0  0
    5.5110    2.2062    1.1706 H   0  0  0  0  0  0  0  0  0  0  0  0
    3.2929    0.5735   -1.3967 H   0  0  0  0  0  0  0  0  0  0  0  0
    3.8504    2.1440   -0.7523 H   0  0  0  0  0  0  0  0  0  0  0  0
    1.1871   -0.1367    1.1281 H   0  0  0  0  0  0  0  0  0  0  0  0
    1.3278   -0.2636   -0.6457 H   0  0  0  0  0  0  0  0  0  0  0  0
   -4.2542    1.1082   -0.5636 H   0  0  0  0  0  0  0  0  0  0  0  0
   -6.9673   -1.9574   -0.1727 H   0  0  0  0  0  0  0  0  0  0  0  0
   -6.2762   -4.2103   -0.0425 H   0  0  0  0  0  0  0  0  0  0  0  0
   -4.4697   -5.8110   -0.0269 H   0  0  0  0  0  0  0  0  0  0  0  0
   -2.1831   -5.1241   -0.2128 H   0  0  0  0  0  0  0  0  0  0  0  0
   -1.6258   -2.7616   -0.4243 H   0  0  0  0  0  0  0  0  0  0  0  0
   -1.9274    0.0079   -2.6474 H   0  0  0  0  0  0  0  0  0  0  0  0
   -0.6516   -0.9220   -2.0652 H   0  0  0  0  0  0  0  0  0  0  0  0
   -1.1592    2.0885   -1.4854 H   0  0  0  0  0  0  0  0  0  0  0  0
    1.1624    0.4367   -2.3242 H   0  0  0  0  0  0  0  0  0  0  0  0
    1.1542    2.1682   -2.0898 H   0  0  0  0  0  0  0  0  0  0  0  0
    0.1876    1.4536   -3.3580 H   0  0  0  0  0  0  0  0  0  0  0  0
   -2.4814    2.0687    0.7647 H   0  0  0  0  0  0  0  0  0  0  0  0
   -1.0332    5.4087    2.8470 H   0  0  0  0  0  0  0  0  0  0  0  0
    1.2215    4.6975    2.3399 H   0  0  0  0  0  0  0  0  0  0  0  0
  1  2  1  0  0  0  0
  1 37  1  0  0  0  0
  1 38  1  0  0  0  0
  1 39  1  0  0  0  0
  2  3  1  0  0  0  0
  2 40  1  0  0  0  0
  2 41  1  0  0  0  0
  3  4  1  0  0  0  0
  4  5  2  0  0  0  0
  5  6  1  0  0  0  0
  5 42  1  0  0  0  0
  6  7  2  0  0  0  0
  6 43  1  0  0  0  0
  7  8  1  0  0  0  0
  7  3  1  0  0  0  0
  8  9  1  0  0  0  0
  8 44  1  0  0  0  0
  8 45  1  0  0  0  0
  9 10  1  0  0  0  0
 10 46  1  0  0  0  0
 10 47  1  0  0  0  0
 11 10  1  0  0  0  0
 11 12  1  1  0  0  0
 11 28  1  0  0  0  0
 12 13  2  0  0  0  0
 12 14  1  0  0  0  0
 14 15  1  0  0  0  0
 14 25  1  0  0  0  0
 15 16  2  0  0  0  0
 16 17  1  0  0  0  0
 16 48  1  0  0  0  0
 17 18  2  0  0  0  0
 18 19  1  0  0  0  0
 18 49  1  0  0  0  0
 19 20  2  0  0  0  0
 20 21  1  0  0  0  0
 20 50  1  0  0  0  0
 21 22  2  0  0  0  0
 21 51  1  0  0  0  0
 22 23  1  0  0  0  0
 22 52  1  0  0  0  0
 23 24  2  0  0  0  0
 23 53  1  0  0  0  0
 24 15  1  0  0  0  0
 24 19  1  0  0  0  0
 25 26  1  0  0  0  0
 25 54  1  0  0  0  0
 25 55  1  0  0  0  0
 26 27  1  0  0  0  0
 26 11  1  0  0  0  0
 26 56  1  6  0  0  0
 27 57  1  0  0  0  0
 27 58  1  0  0  0  0
 27 59  1  0  0  0  0
 28 29  2  0  0  0  0
 29 30  1  0  0  0  0
 29 60  1  0  0  0  0
 30 31  1  0  0  0  0
 30 32  2  0  0  0  0
 32 33  1  0  0  0  0
 32 61  1  0  0  0  0
 33 34  2  0  0  0  0
 33 62  1  0  0  0  0
 34 35  1  0  0  0  0
 34 28  1  0  0  0  0
 35 36  2  0  0  0  0
 35  9  1  0  0  0  0
M  END
$$$$

 OpenBabel07292611443D

 44 47  0  0  0  0  0  0  0  0999 V2000
    1.2669    0.7134   -1.4013 O   0  0  0  0  0  0  0  0  0  0  0  0
    0.5663   -0.0404   -0.6700 C   0  0  0  0  0  0  0  0  0  0  0  0
    1.2412   -1.2329   -0.1036 C   0  0  0  0  0  0  0  0  0  0  0  0
    2.6465   -1.3012   -0.5180 C   0  0  0  0  0  0  0  0  0  0  0  0
    3.0168   -2.2011   -1.5122 C   0  0  0  0  0  0  0  0  0  0  0  0
    4.2983   -2.3083   -1.9357 N   0  0  0  0  0  0  0  0  0  0  0  0
    5.2952   -1.5619   -1.4326 C   0  0  0  0  0  0  0  0  0  0  0  0
    4.9685   -0.6501   -0.4373 C   0  0  0  0  0  0  0  0  0  0  0  0
    5.9962    0.1091    0.0737 C   0  0  0  0  0  0  0  0  0  0  0  0
    5.6933    1.0179    1.0631 C   0  0  0  0  0  0  0  0  0  0  0  0
    4.3867    1.1393    1.5072 C   0  0  0  0  0  0  0  0  0  0  0  0
    3.3503    0.3821    1.0001 C   0  0  0  0  0  0  0  0  0  0  0  0
    3.6561   -0.5279    0.0090 C   0  0  0  0  0  0  0  0  0  0  0  0
   -0.8147    0.2359   -0.3948 N   0  0  0  0  0  0  0  0  0  0  0  0
   -1.5167   -0.6776    0.4428 C   0  0  0  0  0  0  0  0  0  0  0  0
   -2.9602   -0.4488    0.6430 C   0  0  0  0  0  0  0  0  0  0  0  0
   -3.6416    0.5831   -0.1512 C   0  0  0  0  0  0  0  0  0  0  0  0
   -4.7252    1.3125    0.6688 C   0  0  0  0  0  0  0  0  0  0  0  0
   -5.5932    0.0801    0.4059 C   0  0  0  0  0  0  0  0  0  0  0  0
   -4.8307   -0.0238   -0.9207 C   0  0  0  0  0  0  0  0  0  0  0  0
   -2.8631    1.4447   -1.0539 C   0  0  0  0  0  0  0  0  0  0  0  0
   -1.3864    1.4024   -0.9745 C   0  0  0  0  0  0  0  0  0  0  0  0
    0.7354   -2.1128   -0.4426 H   0  0  0  0  0  0  0  0  0  0  0  0
    1.2084   -1.1627    0.9636 H   0  0  0  0  0  0  0  0  0  0  0  0
    2.2952   -2.8032   -1.9384 H   0  0  0  0  0  0  0  0  0  0  0  0
    6.2647   -1.6619   -1.7719 H   0  0  0  0  0  0  0  0  0  0  0  0
    6.9622    0.0010   -0.2731 H   0  0  0  0  0  0  0  0  0  0  0  0
    6.4364    1.6059    1.4719 H   0  0  0  0  0  0  0  0  0  0  0  0
    4.1794    1.8257    2.2494 H   0  0  0  0  0  0  0  0  0  0  0  0
    2.3851    0.4921    1.3483 H   0  0  0  0  0  0  0  0  0  0  0  0
   -1.0516   -0.6511    1.4061 H   0  0  0  0  0  0  0  0  0  0  0  0
   -1.4584   -1.6156   -0.0688 H   0  0  0  0  0  0  0  0  0  0  0  0
   -3.0955   -0.1904    1.6725 H   0  0  0  0  0  0  0  0  0  0  0  0
   -3.4098   -1.3615    0.3119 H   0  0  0  0  0  0  0  0  0  0  0  0
   -5.0862    2.2214    0.2346 H   0  0  0  0  0  0  0  0  0  0  0  0
   -4.5460    1.6929    1.6527 H   0  0  0  0  0  0  0  0  0  0  0  0
   -6.6412    0.2748    0.3128 H   0  0  0  0  0  0  0  0  0  0  0  0
   -5.6684   -0.7338    1.0964 H   0  0  0  0  0  0  0  0  0  0  0  0
   -5.2152    0.5841   -1.7129 H   0  0  0  0  0  0  0  0  0  0  0  0
   -4.7555   -0.9366   -1.4739 H   0  0  0  0  0  0  0  0  0  0  0  0
   -3.1606    2.4542   -0.8608 H   0  0  0  0  0  0  0  0  0  0  0  0
   -3.0828    1.0658   -2.0301 H   0  0  0  0  0  0  0  0  0  0  0  0
   -1.0679    2.2431   -0.3943 H   0  0  0  0  0  0  0  0  0  0  0  0
   -1.0481    1.4088   -1.9896 H   0  0  0  0  0  0  0  0  0  0  0  0
  1  2  2  0  0  0  0
  2  3  1  0  0  0  0
  2 14  1  0  0  0  0
  3  4  1  0  0  0  0
  3 23  1  0  0  0  0
  3 24  1  0  0  0  0
  4  5  2  0  0  0  0
  5  6  1  0  0  0  0
  5 25  1  0  0  0  0
  6  7  2  0  0  0  0
  7  8  1  0  0  0  0
  7 26  1  0  0  0  0
  8  9  2  0  0  0  0
  9 10  1  0  0  0  0
  9 27  1  0  0  0  0
 10 11  2  0  0  0  0
 10 28  1  0  0  0  0
 11 12  1  0  0  0  0
 11 29  1  0  0  0  0
 12 13  2  0  0  0  0
 12 30  1  0  0  0  0
 13  4  1  0  0  0  0
 13  8  1  0  0  0  0
 14 15  1  0  0  0  0
 15 16  1  0  0  0  0
 15 31  1  0  0  0  0
 15 32  1  0  0  0  0
 16 17  1  0  0  0  0
 16 33  1  0  0  0  0
 16 34  1  0  0  0  0
 17 18  1  0  0  0  0
 17 21  1  0  0  0  0
 18 19  1  0  0  0  0
 18 35  1  0  0  0  0
 18 36  1  0  0  0  0
 19 20  1  0  0  0  0
 19 37  1  0  0  0  0
 19 38  1  0  0  0  0
 20 17  1  0  0  0  0
 20 39  1  0  0  0  0
 20 40  1  0  0  0  0
 21 22  1  0  0  0  0
 21 41  1  0  0  0  0
 21 42  1  0  0  0  0
 22 14  1  0  0  0  0
 22 43  1  0  0  0  0
 22 44  1  0  0  0  0
M  END
$$$$

 OpenBabel07292611443D

 44 47  0  0  0  0  0  0  0  0999 V2000
   -1.1678    1.3072    1.2743 O   0  0  0  0  0  0  0  0  0  0  0  0
   -0.7156    0.9250    0.1726 C   0  0  0  0  0  0  0  0  0  0  0  0
   -1.5730    0.7207   -1.0161 C   0  0  0  0  0  0  0  0  0  0  0  0
   -2.9976    1.0225   -0.7431 C   0  0  0  0  0  0  0  0  0  0  0  0
   -3.6260    2.1748   -1.1676 C   0  0  0  0  0  0  0  0  0  0  0  0
   -4.9414    2.3637   -0.8670 N   0  0  0  0  0  0  0  0  0  0  0  0
   -5.6227    1.4425   -0.1663 C   0  0  0  0  0  0  0  0  0  0  0  0
   -5.0525    0.2685    0.2878 C   0  0  0  0  0  0  0  0  0  0  0  0
   -5.7594   -0.6686    1.0059 C   0  0  0  0  0  0  0  0  0  0  0  0
   -5.1522   -1.8405    1.4480 C   0  0  0  0  0  0  0  0  0  0  0  0
   -3.8203   -2.0260    1.1403 C   0  0  0  0  0  0  0  0  0  0  0  0
   -3.1066   -1.0930    0.4226 C   0  0  0  0  0  0  0  0  0  0  0  0
   -3.7112    0.0848   -0.0234 C   0  0  0  0  0  0  0  0  0  0  0  0
    0.6802    0.6836    0.0832 N   0  0  0  0  0  0  0  0  0  0  0  0
    1.5392    0.8862    1.2512 C   0  0  0  0  0  0  0  0  0  0  0  0
    2.9797    0.9039    0.7832 C   0  0  0  0  0  0  0  0  0  0  0  0
    3.4094   -0.4032    0.1863 C   0  0  0  0  0  0  0  0  0  0  0  0
    4.7732   -0.1684   -0.4399 C   0  0  0  0  0  0  0  0  0  0  0  0
    5.4438   -1.3398   -1.1192 C   0  0  0  0  0  0  0  0  0  0  0  0
    5.9887   -0.7988    0.1584 C   0  0  0  0  0  0  0  0  0  0  0  0
    2.3864   -0.8233   -0.8309 C   0  0  0  0  0  0  0  0  0  0  0  0
    1.3433    0.2342   -1.1233 C   0  0  0  0  0  0  0  0  0  0  0  0
   -1.4914   -0.2997   -1.3274 H   0  0  0  0  0  0  0  0  0  0  0  0
   -1.2378    1.3913   -1.7795 H   0  0  0  0  0  0  0  0  0  0  0  0
   -3.1061    2.8851   -1.7063 H   0  0  0  0  0  0  0  0  0  0  0  0
   -6.6177    1.6195    0.0426 H   0  0  0  0  0  0  0  0  0  0  0  0
   -6.7548   -0.5000    1.2199 H   0  0  0  0  0  0  0  0  0  0  0  0
   -5.6795   -2.5453    1.9867 H   0  0  0  0  0  0  0  0  0  0  0  0
   -3.3466   -2.8867    1.4564 H   0  0  0  0  0  0  0  0  0  0  0  0
   -2.1114   -1.2659    0.2111 H   0  0  0  0  0  0  0  0  0  0  0  0
    1.3951    0.0882    1.9493 H   0  0  0  0  0  0  0  0  0  0  0  0
    1.2960    1.8104    1.7325 H   0  0  0  0  0  0  0  0  0  0  0  0
    3.6092    1.1214    1.6206 H   0  0  0  0  0  0  0  0  0  0  0  0
    3.0633    1.6506    0.0214 H   0  0  0  0  0  0  0  0  0  0  0  0
    3.4823   -1.1865    0.9116 H   0  0  0  0  0  0  0  0  0  0  0  0
    4.5071    0.8325   -0.7088 H   0  0  0  0  0  0  0  0  0  0  0  0
    5.9789   -1.1940   -2.0343 H   0  0  0  0  0  0  0  0  0  0  0  0
    5.1251   -2.3026   -1.4603 H   0  0  0  0  0  0  0  0  0  0  0  0
    6.9182   -0.2688    0.1591 H   0  0  0  0  0  0  0  0  0  0  0  0
    6.2245   -1.2200    1.1134 H   0  0  0  0  0  0  0  0  0  0  0  0
    1.8877   -1.6970   -0.4664 H   0  0  0  0  0  0  0  0  0  0  0  0
    2.9124   -1.0025   -1.7453 H   0  0  0  0  0  0  0  0  0  0  0  0
    0.6120   -0.1752   -1.7885 H   0  0  0  0  0  0  0  0  0  0  0  0
    1.8366    1.0749   -1.5646 H   0  0  0  0  0  0  0  0  0  0  0  0
  1  2  2  0  0  0  0
  2  3  1  0  0  0  0
  2 14  1  0  0  0  0
  3  4  1  0  0  0  0
  3 23  1  0  0  0  0
  3 24  1  0  0  0  0
  4  5  2  0  0  0  0
  5  6  1  0  0  0  0
  5 25  1  0  0  0  0
  6  7  2  0  0  0  0
  7  8  1  0  0  0  0
  7 26  1  0  0  0  0
  8  9  2  0  0  0  0
  9 10  1  0  0  0  0
  9 27  1  0  0  0  0
 10 11  2  0  0  0  0
 10 28  1  0  0  0  0
 11 12  1  0  0  0  0
 11 29  1  0  0  0  0
 12 13  2  0  0  0  0
 12 30  1  0  0  0  0
 13  4  1  0  0  0  0
 13  8  1  0  0  0  0
 14 15  1  0  0  0  0
 15 16  1  0  0  0  0
 15 31  1  0  0  0  0
 15 32  1  0  0  0  0
 16 17  1  0  0  0  0
 16 33  1  0  0  0  0
 16 34  1  0  0  0  0
 17 18  1  0  0  0  0
 17 21  1  0  0  0  0
 17 35  1  0  0  0  0
 18 19  1  0  0  0  0
 18 36  1  0  0  0  0
 19 20  1  0  0  0  0
 19 37  1  0  0  0  0
 19 38  1  0  0  0  0
 20 18  1  0  0  0  0
 20 39  1  0  0  0  0
 20 40  1  0  0  0  0
 21 22  1  0  0  0  0
 21 41  1  0  0  0  0
 21 42  1  0  0  0  0
 22 14  1  0  0  0  0
 22 43  1  0  0  0  0
 22 44  1  0  0  0  0
M  END
$$$$

 OpenBabel07292611443D

 57 61  0  0  0  0  0  0  0  0999 V2000
    5.1295    2.2758    1.2925 C   0  0  0  0  0  0  0  0  0  0  0  0
    4.4082    1.3649    0.4266 N   0  0  0  0  0  0  0  0  0  0  0  0
    4.7365    1.1769   -0.9264 C   0  0  0  0  0  0  0  0  0  0  0  0
    5.7294    1.8691   -1.3593 O   0  0  0  0  0  0  0  0  0  0  0  0
    4.0914    0.2923   -1.8894 C   0  0  0  0  0  0  0  0  0  0  0  0
    2.9388   -0.4586   -1.4201 N   0  0  0  0  0  0  0  0  0  0  0  0
    1.5756   -0.1262   -1.6948 C   0  0  0  0  0  0  0  0  0  0  0  0
    0.6424   -0.3699   -0.5698 C   0  0  2  0  0  0  0  0  0  0  0  0
   -0.7870   -0.4056   -1.0255 C   0  0  0  0  0  0  0  0  0  0  0  0
   -1.2263   -1.1352   -1.9608 O   0  0  0  0  0  0  0  0  0  0  0  0
   -1.5711    0.4901   -0.2625 N   0  0  0  0  0  0  0  0  0  0  0  0
   -2.8856    0.9188   -0.6522 C   0  0  0  0  0  0  0  0  0  0  0  0
   -3.1124    1.9265   -1.5624 C   0  0  0  0  0  0  0  0  0  0  0  0
   -4.3566    2.3366   -1.9176 N   0  0  0  0  0  0  0  0  0  0  0  0
   -5.4502    1.7777   -1.3967 C   0  0  0  0  0  0  0  0  0  0  0  0
   -5.3056    0.7640   -0.4795 C   0  0  0  0  0  0  0  0  0  0  0  0
   -6.4490    0.2137    0.0440 C   0  0  0  0  0  0  0  0  0  0  0  0
   -6.3631   -0.8012    0.9743 C   0  0  0  0  0  0  0  0  0  0  0  0
   -5.1125   -1.2294    1.3477 C   0  0  0  0  0  0  0  0  0  0  0  0
   -3.9756   -0.6687    0.8145 C   0  0  0  0  0  0  0  0  0  0  0  0
   -4.0314    0.3365   -0.1085 C   0  0  0  0  0  0  0  0  0  0  0  0
   -0.8014    0.8028    0.9034 C   0  0  0  0  0  0  0  0  0  0  0  0
    0.6298    0.7071    0.4584 C   0  0  2  0  0  0  0  0  0  0  0  0
    1.0467    2.0486   -0.1636 C   0  0  0  0  0  0  0  0  0  0  0  0
    0.1557    2.3895   -1.1579 O   0  0  0  0  0  0  0  0  0  0  0  0
    0.9783   -1.6686    0.0817 C   0  0  0  0  0  0  0  0  0  0  0  0
    0.0004   -2.3706    0.8059 C   0  0  0  0  0  0  0  0  0  0  0  0
    0.2835   -3.5694    1.4382 C   0  0  0  0  0  0  0  0  0  0  0  0
   -0.9827   -4.4169    2.3407 Cl  0  0  0  0  0  0  0  0  0  0  0  0
    1.5330   -4.1423    1.3944 C   0  0  0  0  0  0  0  0  0  0  0  0
    2.5015   -3.4697    0.6881 C   0  0  0  0  0  0  0  0  0  0  0  0
    2.2091   -2.2700    0.0575 C   0  0  0  0  0  0  0  0  0  0  0  0
    3.2794   -1.6734   -0.7171 C   0  0  0  0  0  0  0  0  0  0  0  0
    4.4221   -2.1749   -0.7747 O   0  0  0  0  0  0  0  0  0  0  0  0
    4.7013    2.2504    2.2728 H   0  0  0  0  0  0  0  0  0  0  0  0
    5.0631    3.2690    0.8999 H   0  0  0  0  0  0  0  0  0  0  0  0
    6.1567    1.9806    1.3442 H   0  0  0  0  0  0  0  0  0  0  0  0
    3.6547    0.8552    0.8031 H   0  0  0  0  0  0  0  0  0  0  0  0
    4.8238   -0.4133   -2.2219 H   0  0  0  0  0  0  0  0  0  0  0  0
    3.7122    0.9388   -2.6530 H   0  0  0  0  0  0  0  0  0  0  0  0
    1.2513   -0.7110   -2.5301 H   0  0  0  0  0  0  0  0  0  0  0  0
    1.5526    0.9265   -1.8852 H   0  0  0  0  0  0  0  0  0  0  0  0
   -2.2988    2.3916   -1.9946 H   0  0  0  0  0  0  0  0  0  0  0  0
   -6.3891    2.1010   -1.6776 H   0  0  0  0  0  0  0  0  0  0  0  0
   -7.3731    0.5593   -0.2585 H   0  0  0  0  0  0  0  0  0  0  0  0
   -7.2128   -1.2260    1.3776 H   0  0  0  0  0  0  0  0  0  0  0  0
   -5.0243   -1.9873    2.0425 H   0  0  0  0  0  0  0  0  0  0  0  0
   -3.0538   -1.0175    1.1206 H   0  0  0  0  0  0  0  0  0  0  0  0
   -1.0003    0.1002    1.6855 H   0  0  0  0  0  0  0  0  0  0  0  0
   -1.0378    1.7702    1.2947 H   0  0  0  0  0  0  0  0  0  0  0  0
    1.3052    0.4928    1.2601 H   0  0  0  0  0  0  0  0  0  0  0  0
    2.0285    1.9593   -0.5795 H   0  0  0  0  0  0  0  0  0  0  0  0
    1.0471    2.8072    0.5910 H   0  0  0  0  0  0  0  0  0  0  0  0
    0.1556    1.7016   -1.8417 H   0  0  0  0  0  0  0  0  0  0  0  0
   -0.9539   -1.9826    0.8682 H   0  0  0  0  0  0  0  0  0  0  0  0
    1.7341   -5.0359    1.8699 H   0  0  0  0  0  0  0  0  0  0  0  0
    3.4545   -3.8610    0.6266 H   0  0  0  0  0  0  0  0  0  0  0  0
  1  2  1  0  0  0  0
  1 35  1  0  0  0  0
  1 36  1  0  0  0  0
  1 37  1  0  0  0  0
  2  3  1  0  0  0  0
  2 38  1  0  0  0  0
  3  4  2  0  0  0  0
  3  5  1  0  0  0  0
  5  6  1  0  0  0  0
  5 39  1  0  0  0  0
  5 40  1  0  0  0  0
  6  7  1  0  0  0  0
  7 41  1  0  0  0  0
  7 42  1  0  0  0  0
  8  7  1  0  0  0  0
  8  9  1  6  0  0  0
  8 26  1  0  0  0  0
  9 10  2  0  0  0  0
  9 11  1  0  0  0  0
 11 12  1  0  0  0  0
 11 22  1  0  0  0  0
 12 13  2  0  0  0  0
 13 14  1  0  0  0  0
 13 43  1  0  0  0  0
 14 15  2  0  0  0  0
 15 16  1  0  0  0  0
 15 44  1  0  0  0  0
 16 17  2  0  0  0  0
 17 18  1  0  0  0  0
 17 45  1  0  0  0  0
 18 19  2  0  0  0  0
 18 46  1  0  0  0  0
 19 20  1  0  0  0  0
 19 47  1  0  0  0  0
 20 21  2  0  0  0  0
 20 48  1  0  0  0  0
 21 12  1  0  0  0  0
 21 16  1  0  0  0  0
 22 23  1  0  0  0  0
 22 49  1  0  0  0  0
 22 50  1  0  0  0  0
 23 24  1  0  0  0  0
 23  8  1  0  0  0  0
 23 51  1  1  0  0  0
 24 25  1  0  0  0  0
 24 52  1  0  0  0  0
 24 53  1  0  0  0  0
 25 54  1  0  0  0  0
 26 27  2  0  0  0  0
 27 28  1  0  0  0  0
 27 55  1  0  0  0  0
 28 29  1  0  0  0  0
 28 30  2  0  0  0  0
 30 31  1  0  0  0  0
 30 56  1  0  0  0  0
 31 32  2  0  0  0  0
 31 57  1  0  0  0  0
 32 33  1  0  0  0  0
 32 26  1  0  0  0  0
 33 34  2  0  0  0  0
 33  6  1  0  0  0  0
M  END
$$$$

 OpenBabel07292611443D

 55 60  0  0  0  0  0  0  0  0999 V2000
    0.5816    0.8957   -2.6439 C   0  0  0  0  0  0  0  0  0  0  0  0
    0.0513    1.5408   -1.3750 C   0  0  1  0  0  0  0  0  0  0  0  0
   -1.4308    1.3443   -1.3772 C   0  0  0  0  0  0  0  0  0  0  0  0
   -1.6339    0.1932   -0.5087 N   0  0  0  0  0  0  0  0  0  0  0  0
   -2.6353   -0.8139   -0.5734 C   0  0  0  0  0  0  0  0  0  0  0  0
   -2.4031   -1.9553   -1.3152 C   0  0  0  0  0  0  0  0  0  0  0  0
   -3.2756   -2.9573   -1.4403 N   0  0  0  0  0  0  0  0  0  0  0  0
   -4.4551   -2.8463   -0.8027 C   0  0  0  0  0  0  0  0  0  0  0  0
   -4.7657   -1.7405   -0.0423 C   0  0  0  0  0  0  0  0  0  0  0  0
   -5.9971   -1.7156    0.5733 C   0  0  0  0  0  0  0  0  0  0  0  0
   -6.2907   -0.5970    1.3327 C   0  0  0  0  0  0  0  0  0  0  0  0
   -5.3710    0.4362    1.4520 C   0  0  0  0  0  0  0  0  0  0  0  0
   -4.1348    0.3898    0.8222 C   0  0  0  0  0  0  0  0  0  0  0  0
   -3.8493   -0.7135    0.0752 C   0  0  0  0  0  0  0  0  0  0  0  0
   -0.6004    0.2570    0.4662 C   0  0  0  0  0  0  0  0  0  0  0  0
   -0.6719   -0.1464    1.6771 O   0  0  0  0  0  0  0  0  0  0  0  0
    0.6223    0.8818   -0.1407 C   0  0  1  0  0  0  0  0  0  0  0  0
    1.5275   -0.2675   -0.4805 C   0  0  0  0  0  0  0  0  0  0  0  0
    2.4962   -0.5792    0.5505 N   0  0  0  0  0  0  0  0  0  0  0  0
    2.9275   -1.9598    0.7568 C   0  0  0  0  0  0  0  0  0  0  0  0
    4.1006   -2.3222   -0.0507 C   0  0  0  0  0  0  0  0  0  0  0  0
    4.0243   -2.8416   -1.2924 N   0  0  0  0  0  0  0  0  0  0  0  0
    5.2761   -3.0512   -1.7321 C   0  0  0  0  0  0  0  0  0  0  0  0
    6.0948   -2.6527   -0.7428 N   0  0  0  0  0  0  0  0  0  0  0  0
    5.4003   -2.2084    0.2829 N   0  0  0  0  0  0  0  0  0  0  0  0
    3.0716    0.4072    1.4011 C   0  0  0  0  0  0  0  0  0  0  0  0
    4.1086    0.1498    2.0274 O   0  0  0  0  0  0  0  0  0  0  0  0
    2.3799    1.6897    1.4783 C   0  0  0  0  0  0  0  0  0  0  0  0
    2.9228    2.6539    2.2978 C   0  0  0  0  0  0  0  0  0  0  0  0
    2.3169    3.8864    2.4161 C   0  0  0  0  0  0  0  0  0  0  0  0
    1.1677    4.1067    1.6931 C   0  0  0  0  0  0  0  0  0  0  0  0
    0.5713    5.3302    1.8140 F   0  0  0  0  0  0  0  0  0  0  0  0
    0.6227    3.1204    0.8622 C   0  0  0  0  0  0  0  0  0  0  0  0
    1.2256    1.8838    0.7399 C   0  0  0  0  0  0  0  0  0  0  0  0
    0.1585    1.3848   -3.4963 H   0  0  0  0  0  0  0  0  0  0  0  0
    0.3126   -0.1398   -2.6569 H   0  0  0  0  0  0  0  0  0  0  0  0
    1.6473    0.9877   -2.6723 H   0  0  0  0  0  0  0  0  0  0  0  0
    0.3268    2.5745   -1.3541 H   0  0  0  0  0  0  0  0  0  0  0  0
   -1.7864    1.1424   -2.3660 H   0  0  0  0  0  0  0  0  0  0  0  0
   -1.9620    2.2112   -1.0436 H   0  0  0  0  0  0  0  0  0  0  0  0
   -1.4978   -2.0387   -1.8036 H   0  0  0  0  0  0  0  0  0  0  0  0
   -5.1450   -3.6093   -0.8854 H   0  0  0  0  0  0  0  0  0  0  0  0
   -6.6681   -2.4932    0.4731 H   0  0  0  0  0  0  0  0  0  0  0  0
   -7.2009   -0.5301    1.8145 H   0  0  0  0  0  0  0  0  0  0  0  0
   -5.6128    1.2605    2.0240 H   0  0  0  0  0  0  0  0  0  0  0  0
   -3.4570    1.1623    0.9163 H   0  0  0  0  0  0  0  0  0  0  0  0
    2.0574   -0.0246   -1.3777 H   0  0  0  0  0  0  0  0  0  0  0  0
    0.9043   -1.1303   -0.5909 H   0  0  0  0  0  0  0  0  0  0  0  0
    2.1199   -2.6117    0.4965 H   0  0  0  0  0  0  0  0  0  0  0  0
    3.2047   -2.0579    1.7856 H   0  0  0  0  0  0  0  0  0  0  0  0
    5.5540   -3.4404   -2.6466 H   0  0  0  0  0  0  0  0  0  0  0  0
    7.0779   -2.6884   -0.7805 H   0  0  0  0  0  0  0  0  0  0  0  0
    3.7867    2.4530    2.8255 H   0  0  0  0  0  0  0  0  0  0  0  0
    2.7120    4.6189    3.0263 H   0  0  0  0  0  0  0  0  0  0  0  0
   -0.2411    3.3201    0.3340 H   0  0  0  0  0  0  0  0  0  0  0  0
  1 35  1  0  0  0  0
  1 36  1  0  0  0  0
  1 37  1  0  0  0  0
  2  1  1  0  0  0  0
  2  3  1  0  0  0  0
  2 38  1  1  0  0  0
  3  4  1  0  0  0  0
  3 39  1  0  0  0  0
  3 40  1  0  0  0  0
  4  5  1  0  0  0  0
  4 15  1  0  0  0  0
  5  6  2  0  0  0  0
  6  7  1  0  0  0  0
  6 41  1  0  0  0  0
  7  8  2  0  0  0  0
  8  9  1  0  0  0  0
  8 42  1  0  0  0  0
  9 10  2  0  0  0  0
 10 11  1  0  0  0  0
 10 43  1  0  0  0  0
 11 12  2  0  0  0  0
 11 44  1  0  0  0  0
 12 13  1  0  0  0  0
 12 45  1  0  0  0  0
 13 14  2  0  0  0  0
 13 46  1  0  0  0  0
 14  5  1  0  0  0  0
 14  9  1  0  0  0  0
 15 16  2  0  0  0  0
 17 15  1  1  0  0  0
 17 18  1  0  0  0  0
 17  2  1  0  0  0  0
 18 19  1  0  0  0  0
 18 47  1  0  0  0  0
 18 48  1  0  0  0  0
 19 20  1  0  0  0  0
 19 26  1  0  0  0  0
 20 21  1  0  0  0  0
 20 49  1  0  0  0  0
 20 50  1  0  0  0  0
 21 22  1  0  0  0  0
 22 23  2  0  0  0  0
 23 24  1  0  0  0  0
 23 51  1  0  0  0  0
 24 25  1  0  0  0  0
 24 52  1  0  0  0  0
 25 21  2  0  0  0  0
 26 27  2  0  0  0  0
 26 28  1  0  0  0  0
 28 29  2  0  0  0  0
 29 30  1  0  0  0  0
 29 53  1  0  0  0  0
 30 31  2  0  0  0  0
 30 54  1  0  0  0  0
 31 32  1  0  0  0  0
 31 33  1  0  0  0  0
 33 34  2  0  0  0  0
 33 55  1  0  0  0  0
 34 28  1  0  0  0  0
 34 17  1  0  0  0  0
M  END
$$$$

 OpenBabel07292611443D

 55 60  0  0  0  0  0  0  0  0999 V2000
    0.0407   -1.0765   -2.7651 C   0  0  0  0  0  0  0  0  0  0  0  0
    0.0994   -1.7876   -1.4105 C   0  0  1  0  0  0  0  0  0  0  0  0
    1.5000   -1.6860   -0.9282 C   0  0  0  0  0  0  0  0  0  0  0  0
    1.5734   -0.3509   -0.3665 N   0  0  0  0  0  0  0  0  0  0  0  0
    2.6505    0.5780   -0.3716 C   0  0  0  0  0  0  0  0  0  0  0  0
    2.8397    1.5176   -1.3632 C   0  0  0  0  0  0  0  0  0  0  0  0
    3.8921    2.3590   -1.2845 N   0  0  0  0  0  0  0  0  0  0  0  0
    4.7869    2.3259   -0.2627 C   0  0  0  0  0  0  0  0  0  0  0  0
    4.6396    1.4139    0.7395 C   0  0  0  0  0  0  0  0  0  0  0  0
    5.5419    1.3822    1.7677 C   0  0  0  0  0  0  0  0  0  0  0  0
    5.4135    0.4633    2.7994 C   0  0  0  0  0  0  0  0  0  0  0  0
    4.3464   -0.4102    2.7455 C   0  0  0  0  0  0  0  0  0  0  0  0
    3.4533   -0.3662    1.7117 C   0  0  0  0  0  0  0  0  0  0  0  0
    3.5649    0.5432    0.6737 C   0  0  0  0  0  0  0  0  0  0  0  0
    0.2929   -0.1487    0.2220 C   0  0  0  0  0  0  0  0  0  0  0  0
    0.0183    0.6409    1.1908 O   0  0  0  0  0  0  0  0  0  0  0  0
   -0.7093   -1.0031   -0.4608 C   0  0  1  0  0  0  0  0  0  0  0  0
   -1.7462   -0.1293   -1.1785 C   0  0  0  0  0  0  0  0  0  0  0  0
   -2.4306    0.6901   -0.1772 N   0  0  0  0  0  0  0  0  0  0  0  0
   -2.3947    2.1171   -0.1824 C   0  0  0  0  0  0  0  0  0  0  0  0
   -3.5107    2.7107   -0.9901 C   0  0  0  0  0  0  0  0  0  0  0  0
   -3.5243    3.0310   -2.3276 C   0  0  0  0  0  0  0  0  0  0  0  0
   -4.6925    3.5316   -2.6605 O   0  0  0  0  0  0  0  0  0  0  0  0
   -5.4311    3.5399   -1.5641 C   0  0  0  0  0  0  0  0  0  0  0  0
   -4.7313    3.0427   -0.5277 N   0  0  0  0  0  0  0  0  0  0  0  0
   -3.1572   -0.0535    0.8182 C   0  0  0  0  0  0  0  0  0  0  0  0
   -4.1822    0.4403    1.3374 O   0  0  0  0  0  0  0  0  0  0  0  0
   -2.6181   -1.3680    1.1517 C   0  0  0  0  0  0  0  0  0  0  0  0
   -3.3082   -2.1124    2.0733 C   0  0  0  0  0  0  0  0  0  0  0  0
   -2.8887   -3.3716    2.4234 C   0  0  0  0  0  0  0  0  0  0  0  0
   -1.7533   -3.8581    1.8171 C   0  0  0  0  0  0  0  0  0  0  0  0
   -1.3320   -5.0965    2.1539 F   0  0  0  0  0  0  0  0  0  0  0  0
   -1.0591   -3.1018    0.8865 C   0  0  0  0  0  0  0  0  0  0  0  0
   -1.4627   -1.8294    0.5183 C   0  0  0  0  0  0  0  0  0  0  0  0
    0.6200   -1.6226   -3.4800 H   0  0  0  0  0  0  0  0  0  0  0  0
    0.4365   -0.0873   -2.6661 H   0  0  0  0  0  0  0  0  0  0  0  0
   -0.9755   -1.0226   -3.0959 H   0  0  0  0  0  0  0  0  0  0  0  0
   -0.2389   -2.7995   -1.4908 H   0  0  0  0  0  0  0  0  0  0  0  0
    2.1913   -1.7983   -1.7371 H   0  0  0  0  0  0  0  0  0  0  0  0
    1.7516   -2.4483   -0.2207 H   0  0  0  0  0  0  0  0  0  0  0  0
    2.1833    1.5768   -2.1573 H   0  0  0  0  0  0  0  0  0  0  0  0
    5.5766    2.9900   -0.2454 H   0  0  0  0  0  0  0  0  0  0  0  0
    6.3282    2.0505    1.7759 H   0  0  0  0  0  0  0  0  0  0  0  0
    6.0905    0.4341    3.5778 H   0  0  0  0  0  0  0  0  0  0  0  0
    4.2209   -1.1067    3.4966 H   0  0  0  0  0  0  0  0  0  0  0  0
    2.6674   -1.0350    1.7046 H   0  0  0  0  0  0  0  0  0  0  0  0
   -2.4558   -0.7511   -1.6833 H   0  0  0  0  0  0  0  0  0  0  0  0
   -1.2639    0.4971   -1.8996 H   0  0  0  0  0  0  0  0  0  0  0  0
   -1.4616    2.4365   -0.5975 H   0  0  0  0  0  0  0  0  0  0  0  0
   -2.5073    2.4515    0.8277 H   0  0  0  0  0  0  0  0  0  0  0  0
   -2.7321    2.8975   -2.9754 H   0  0  0  0  0  0  0  0  0  0  0  0
   -6.4044    3.8789   -1.5107 H   0  0  0  0  0  0  0  0  0  0  0  0
   -4.1565   -1.7198    2.5107 H   0  0  0  0  0  0  0  0  0  0  0  0
   -3.4066   -3.9336    3.1169 H   0  0  0  0  0  0  0  0  0  0  0  0
   -0.2119   -3.5006    0.4527 H   0  0  0  0  0  0  0  0  0  0  0  0
  1 35  1  0  0  0  0
  1 36  1  0  0  0  0
  1 37  1  0  0  0  0
  2  1  1  0  0  0  0
  2  3  1  0  0  0  0
  2 38  1  6  0  0  0
  3  4  1  0  0  0  0
  3 39  1  0  0  0  0
  3 40  1  0  0  0  0
  4  5  1  0  0  0  0
  4 15  1  0  0  0  0
  5  6  2  0  0  0  0
  6  7  1  0  0  0  0
  6 41  1  0  0  0  0
  7  8  2  0  0  0  0
  8  9  1  0  0  0  0
  8 42  1  0  0  0  0
  9 10  2  0  0  0  0
 10 11  1  0  0  0  0
 10 43  1  0  0  0  0
 11 12  2  0  0  0  0
 11 44  1  0  0  0  0
 12 13  1  0  0  0  0
 12 45  1  0  0  0  0
 13 14  2  0  0  0  0
 13 46  1  0  0  0  0
 14  5  1  0  0  0  0
 14  9  1  0  0  0  0
 15 16  2  0  0  0  0
 17 15  1  1  0  0  0
 17 18  1  0  0  0  0
 17  2  1  0  0  0  0
 18 19  1  0  0  0  0
 18 47  1  0  0  0  0
 18 48  1  0  0  0  0
 19 20  1  0  0  0  0
 19 26  1  0  0  0  0
 20 21  1  0  0  0  0
 20 49  1  0  0  0  0
 20 50  1  0  0  0  0
 21 22  2  0  0  0  0
 22 23  1  0  0  0  0
 22 51  1  0  0  0  0
 23 24  1  0  0  0  0
 24 25  2  0  0  0  0
 24 52  1  0  0  0  0
 25 21  1  0  0  0  0
 26 27  2  0  0  0  0
 26 28  1  0  0  0  0
 28 29  2  0  0  0  0
 29 30  1  0  0  0  0
 29 53  1  0  0  0  0
 30 31  2  0  0  0  0
 30 54  1  0  0  0  0
 31 32  1  0  0  0  0
 31 33  1  0  0  0  0
 33 34  2  0  0  0  0
 33 55  1  0  0  0  0
 34 28  1  0  0  0  0
 34 17  1  0  0  0  0
M  END
$$$$

 OpenBabel07292611443D

 44 47  0  0  0  0  0  0  0  0999 V2000
   -3.7241   -1.2641   -1.7806 C   0  0  0  0  0  0  0  0  0  0  0  0
   -2.8194   -1.4469   -0.5906 C   0  0  0  0  0  0  0  0  0  0  0  0
   -2.0032   -0.2171   -0.3023 C   0  0  1  0  0  0  0  0  0  0  0  0
   -2.9020    0.9674   -0.0109 C   0  0  0  0  0  0  0  0  0  0  0  0
   -3.3243    1.9152   -0.8597 C   0  0  0  0  0  0  0  0  0  0  0  0
   -4.1374    2.8968   -0.3747 C   0  0  0  0  0  0  0  0  0  0  0  0
   -4.3680    2.5119    1.4301 S   0  0  0  0  0  0  0  0  0  0  0  0
   -3.3236    1.0540    1.3018 C   0  0  0  0  0  0  0  0  0  0  0  0
   -2.9468    0.0866    2.3571 C   0  0  0  0  0  0  0  0  0  0  0  0
   -1.4817   -0.2329    2.1957 C   0  0  0  0  0  0  0  0  0  0  0  0
   -1.1000   -0.3526    0.8122 N   0  0  0  0  0  0  0  0  0  0  0  0
    0.2883   -0.6287    0.5562 C   0  0  0  0  0  0  0  0  0  0  0  0
    1.0365   -0.7377    1.5856 O   0  0  0  0  0  0  0  0  0  0  0  0
    0.8205   -0.7783   -0.8151 C   0  0  0  0  0  0  0  0  0  0  0  0
    2.2802   -1.0588   -0.7542 C   0  0  0  0  0  0  0  0  0  0  0  0
    2.7898   -2.3242   -0.9666 C   0  0  0  0  0  0  0  0  0  0  0  0
    4.0991   -2.6007   -0.9163 N   0  0  0  0  0  0  0  0  0  0  0  0
    4.9991   -1.6562   -0.6545 C   0  0  0  0  0  0  0  0  0  0  0  0
    4.5461   -0.3576   -0.4309 C   0  0  0  0  0  0  0  0  0  0  0  0
    5.4824    0.6303   -0.1576 C   0  0  0  0  0  0  0  0  0  0  0  0
    5.0314    1.9010    0.0604 C   0  0  0  0  0  0  0  0  0  0  0  0
    3.6728    2.2089    0.0125 C   0  0  0  0  0  0  0  0  0  0  0  0
    2.7374    1.2455   -0.2559 C   0  0  0  0  0  0  0  0  0  0  0  0
    3.1884   -0.0506   -0.4790 C   0  0  0  0  0  0  0  0  0  0  0  0
   -4.2822   -2.1620   -1.9456 H   0  0  0  0  0  0  0  0  0  0  0  0
   -3.1347   -1.0463   -2.6466 H   0  0  0  0  0  0  0  0  0  0  0  0
   -4.3982   -0.4542   -1.5950 H   0  0  0  0  0  0  0  0  0  0  0  0
   -2.1555   -2.2632   -0.7848 H   0  0  0  0  0  0  0  0  0  0  0  0
   -3.4350   -1.6398    0.2631 H   0  0  0  0  0  0  0  0  0  0  0  0
   -1.4210   -0.0684   -1.1876 H   0  0  0  0  0  0  0  0  0  0  0  0
   -3.0420    1.9024   -1.8523 H   0  0  0  0  0  0  0  0  0  0  0  0
   -4.5407    3.6884   -0.8999 H   0  0  0  0  0  0  0  0  0  0  0  0
   -3.5266   -0.8068    2.2544 H   0  0  0  0  0  0  0  0  0  0  0  0
   -3.1318    0.5024    3.3255 H   0  0  0  0  0  0  0  0  0  0  0  0
   -1.2741   -1.1580    2.6917 H   0  0  0  0  0  0  0  0  0  0  0  0
   -0.9210    0.5723    2.6226 H   0  0  0  0  0  0  0  0  0  0  0  0
    0.6538    0.1257   -1.3627 H   0  0  0  0  0  0  0  0  0  0  0  0
    0.3222   -1.5892   -1.3039 H   0  0  0  0  0  0  0  0  0  0  0  0
    2.1318   -3.0919   -1.1735 H   0  0  0  0  0  0  0  0  0  0  0  0
    6.0060   -1.8796   -0.6180 H   0  0  0  0  0  0  0  0  0  0  0  0
    6.4901    0.4109   -0.1202 H   0  0  0  0  0  0  0  0  0  0  0  0
    5.7116    2.6497    0.2651 H   0  0  0  0  0  0  0  0  0  0  0  0
    3.3666    3.1797    0.1822 H   0  0  0  0  0  0  0  0  0  0  0  0
    1.7316    1.4738   -0.2914 H   0  0  0  0  0  0  0  0  0  0  0  0
  1  2  1  0  0  0  0
  1 25  1  0  0  0  0
  1 26  1  0  0  0  0
  1 27  1  0  0  0  0
  2 28  1  0  0  0  0
  2 29  1  0  0  0  0
  3  2  1  0  0  0  0
  3  4  1  0  0  0  0
  3 30  1  6  0  0  0
  4  5  1  0  0  0  0
  5  6  2  0  0  0  0
  5 31  1  0  0  0  0
  6  7  1  0  0  0  0
  6 32  1  0  0  0  0
  7  8  1  0  0  0  0
  8  9  1  0  0  0  0
  8  4  2  0  0  0  0
  9 10  1  0  0  0  0
  9 33  1  0  0  0  0
  9 34  1  0  0  0  0
 10 11  1  0  0  0  0
 10 35  1  0  0  0  0
 10 36  1  0  0  0  0
 11 12  1  0  0  0  0
 11  3  1  0  0  0  0
 12 13  2  0  0  0  0
 12 14  1  0  0  0  0
 14 15  1  0  0  0  0
 14 37  1  0  0  0  0
 14 38  1  0  0  0  0
 15 16  2  0  0  0  0
 16 17  1  0  0  0  0
 16 39  1  0  0  0  0
 17 18  2  0  0  0  0
 18 19  1  0  0  0  0
 18 40  1  0  0  0  0
 19 20  2  0  0  0  0
 20 21  1  0  0  0  0
 20 41  1  0  0  0  0
 21 22  2  0  0  0  0
 21 42  1  0  0  0  0
 22 23  1  0  0  0  0
 22 43  1  0  0  0  0
 23 24  2  0  0  0  0
 23 44  1  0  0  0  0
 24 15  1  0  0  0  0
 24 19  1  0  0  0  0
M  END
$$$$

 OpenBabel07292611443D

 58 63  0  0  0  0  0  0  0  0999 V2000
    6.9686    2.8826    0.8802 C   0  0  0  0  0  0  0  0  0  0  0  0
    5.5083    2.7156    0.6976 C   0  0  0  0  0  0  0  0  0  0  0  0
    4.9283    1.9012   -0.2518 C   0  0  0  0  0  0  0  0  0  0  0  0
    3.5562    2.0593   -0.0542 C   0  0  0  0  0  0  0  0  0  0  0  0
    2.5090    1.3836   -0.8369 C   0  0  0  0  0  0  0  0  0  0  0  0
    2.1229    0.1118   -0.2633 N   0  0  0  0  0  0  0  0  0  0  0  0
    1.0533   -0.0235    0.7164 C   0  0  0  0  0  0  0  0  0  0  0  0
    0.0905   -1.1346    0.3928 C   0  0  2  0  0  0  0  0  0  0  0  0
   -0.8297   -0.6407   -0.6601 C   0  0  0  0  0  0  0  0  0  0  0  0
   -0.5446   -0.6831   -1.8811 O   0  0  0  0  0  0  0  0  0  0  0  0
   -2.0448   -0.1306   -0.0477 N   0  0  0  0  0  0  0  0  0  0  0  0
   -3.1903    0.1160   -0.8289 C   0  0  0  0  0  0  0  0  0  0  0  0
   -3.3841   -0.6210   -2.0086 C   0  0  0  0  0  0  0  0  0  0  0  0
   -4.4409   -0.4297   -2.8104 N   0  0  0  0  0  0  0  0  0  0  0  0
   -5.4027    0.4744   -2.5634 C   0  0  0  0  0  0  0  0  0  0  0  0
   -5.2544    1.2264   -1.4112 C   0  0  0  0  0  0  0  0  0  0  0  0
   -6.2294    2.1654   -1.1610 C   0  0  0  0  0  0  0  0  0  0  0  0
   -6.1626    2.9758   -0.0460 C   0  0  0  0  0  0  0  0  0  0  0  0
   -5.0768    2.7881    0.7850 C   0  0  0  0  0  0  0  0  0  0  0  0
   -4.1018    1.8487    0.5349 C   0  0  0  0  0  0  0  0  0  0  0  0
   -4.1593    1.0471   -0.5562 C   0  0  0  0  0  0  0  0  0  0  0  0
   -1.7328   -0.0525    1.3501 C   0  0  0  0  0  0  0  0  0  0  0  0
   -0.8445   -1.2961    1.5367 C   0  0  2  0  0  0  0  0  0  0  0  0
   -0.1726   -1.3301    2.8716 C   0  0  0  0  0  0  0  0  0  0  0  0
    0.7939   -2.3701    0.0014 C   0  0  0  0  0  0  0  0  0  0  0  0
    0.2022   -3.6255    0.1038 C   0  0  0  0  0  0  0  0  0  0  0  0
    0.8754   -4.7830   -0.2682 C   0  0  0  0  0  0  0  0  0  0  0  0
    0.2928   -6.0020   -0.1656 F   0  0  0  0  0  0  0  0  0  0  0  0
    2.1586   -4.7283   -0.7540 C   0  0  0  0  0  0  0  0  0  0  0  0
    2.7575   -3.5101   -0.8629 C   0  0  0  0  0  0  0  0  0  0  0  0
    2.0956   -2.3728   -0.4972 C   0  0  0  0  0  0  0  0  0  0  0  0
    2.7881   -1.1035   -0.6374 C   0  0  0  0  0  0  0  0  0  0  0  0
    3.9661   -1.0443   -1.0826 O   0  0  0  0  0  0  0  0  0  0  0  0
    3.3707    2.8976    0.9302 O   0  0  0  0  0  0  0  0  0  0  0  0
    4.5080    3.2977    1.3889 N   0  0  0  0  0  0  0  0  0  0  0  0
    7.4887    2.2780    0.1669 H   0  0  0  0  0  0  0  0  0  0  0  0
    7.2411    2.5806    1.8699 H   0  0  0  0  0  0  0  0  0  0  0  0
    7.2309    3.9098    0.7358 H   0  0  0  0  0  0  0  0  0  0  0  0
    5.4022    1.3083   -0.9510 H   0  0  0  0  0  0  0  0  0  0  0  0
    2.8755    1.2160   -1.8281 H   0  0  0  0  0  0  0  0  0  0  0  0
    1.6454    2.0154   -0.8388 H   0  0  0  0  0  0  0  0  0  0  0  0
    0.5095    0.8972    0.7557 H   0  0  0  0  0  0  0  0  0  0  0  0
    1.5094   -0.2609    1.6547 H   0  0  0  0  0  0  0  0  0  0  0  0
   -2.6869   -1.3364   -2.2677 H   0  0  0  0  0  0  0  0  0  0  0  0
   -6.2072    0.6012   -3.1972 H   0  0  0  0  0  0  0  0  0  0  0  0
   -7.0208    2.2646   -1.8159 H   0  0  0  0  0  0  0  0  0  0  0  0
   -6.8856    3.6841    0.1556 H   0  0  0  0  0  0  0  0  0  0  0  0
   -4.9922    3.3762    1.6288 H   0  0  0  0  0  0  0  0  0  0  0  0
   -3.3114    1.7531    1.1915 H   0  0  0  0  0  0  0  0  0  0  0  0
   -2.6160   -0.1093    1.9514 H   0  0  0  0  0  0  0  0  0  0  0  0
   -1.2658    0.8648    1.6421 H   0  0  0  0  0  0  0  0  0  0  0  0
   -1.3683   -2.2291    1.5345 H   0  0  0  0  0  0  0  0  0  0  0  0
    0.3984   -0.4353    3.0064 H   0  0  0  0  0  0  0  0  0  0  0  0
    0.4771   -2.1788    2.9224 H   0  0  0  0  0  0  0  0  0  0  0  0
   -0.9123   -1.4006    3.6415 H   0  0  0  0  0  0  0  0  0  0  0  0
   -0.7616   -3.6988    0.4654 H   0  0  0  0  0  0  0  0  0  0  0  0
    2.6568   -5.5890   -1.0297 H   0  0  0  0  0  0  0  0  0  0  0  0
    3.7215   -3.4456   -1.2255 H   0  0  0  0  0  0  0  0  0  0  0  0
  1  2  1  0  0  0  0
  1 36  1  0  0  0  0
  1 37  1  0  0  0  0
  1 38  1  0  0  0  0
  2  3  1  0  0  0  0
  3  4  2  0  0  0  0
  3 39  1  0  0  0  0
  4  5  1  0  0  0  0
  4 34  1  0  0  0  0
  5  6  1  0  0  0  0
  5 40  1  0  0  0  0
  5 41  1  0  0  0  0
  6  7  1  0  0  0  0
  7 42  1  0  0  0  0
  7 43  1  0  0  0  0
  8  7  1  0  0  0  0
  8  9  1  6  0  0  0
  8 25  1  0  0  0  0
  9 10  2  0  0  0  0
  9 11  1  0  0  0  0
 11 12  1  0  0  0  0
 11 22  1  0  0  0  0
 12 13  2  0  0  0  0
 13 14  1  0  0  0  0
 13 44  1  0  0  0  0
 14 15  2  0  0  0  0
 15 16  1  0  0  0  0
 15 45  1  0  0  0  0
 16 17  2  0  0  0  0
 17 18  1  0  0  0  0
 17 46  1  0  0  0  0
 18 19  2  0  0  0  0
 18 47  1  0  0  0  0
 19 20  1  0  0  0  0
 19 48  1  0  0  0  0
 20 21  2  0  0  0  0
 20 49  1  0  0  0  0
 21 12  1  0  0  0  0
 21 16  1  0  0  0  0
 22 23  1  0  0  0  0
 22 50  1  0  0  0  0
 22 51  1  0  0  0  0
 23 24  1  0  0  0  0
 23  8  1  0  0  0  0
 23 52  1  6  0  0  0
 24 53  1  0  0  0  0
 24 54  1  0  0  0  0
 24 55  1  0  0  0  0
 25 26  2  0  0  0  0
 26 27  1  0  0  0  0
 26 56  1  0  0  0  0
 27 28  1  0  0  0  0
 27 29  2  0  0  0  0
 29 30  1  0  0  0  0
 29 57  1  0  0  0  0
 30 31  2  0  0  0  0
 30 58  1  0  0  0  0
 31 32  1  0  0  0  0
 31 25  1  0  0  0  0
 32 33  2  0  0  0  0
 32  6  1  0  0  0  0
 34 35  1  0  0  0  0
 35  2  2  0  0  0  0
M  END
$$$$

 OpenBabel07292611443D

 65 70  0  0  0  0  0  0  0  0999 V2000
    1.1533   -0.8886    0.8639 O   0  0  0  0  0  0  0  0  0  0  0  0
    1.3532    0.3766    0.8595 C   0  0  0  0  0  0  0  0  0  0  0  0
    2.7830    0.7650    0.8101 C   0  0  0  0  0  0  0  0  0  0  0  0
    3.6448   -0.4837    0.8933 C   0  0  0  0  0  0  0  0  0  0  0  0
    4.2979   -0.7779    2.0920 C   0  0  0  0  0  0  0  0  0  0  0  0
    5.0650   -1.8794    2.1739 N   0  0  0  0  0  0  0  0  0  0  0  0
    5.2339   -2.7263    1.1320 C   0  0  0  0  0  0  0  0  0  0  0  0
    4.5955   -2.4477   -0.0555 C   0  0  0  0  0  0  0  0  0  0  0  0
    4.7812   -3.3278   -1.1091 C   0  0  0  0  0  0  0  0  0  0  0  0
    4.1400   -3.0591   -2.3184 C   0  0  0  0  0  0  0  0  0  0  0  0
    3.3385   -1.9304   -2.4421 C   0  0  0  0  0  0  0  0  0  0  0  0
    3.1537   -1.0530   -1.3909 C   0  0  0  0  0  0  0  0  0  0  0  0
    3.7877   -1.3186   -0.1956 C   0  0  0  0  0  0  0  0  0  0  0  0
    0.2710    1.3140    0.9018 N   0  0  0  0  0  0  0  0  0  0  0  0
    0.4751    2.7268    0.9278 C   0  0  0  0  0  0  0  0  0  0  0  0
    0.5941    3.4426   -0.3541 C   0  0  0  0  0  0  0  0  0  0  0  0
   -0.4851    3.8700   -1.1091 C   0  0  0  0  0  0  0  0  0  0  0  0
   -0.3470    4.5665   -2.2976 C   0  0  0  0  0  0  0  0  0  0  0  0
    0.9013    4.8724   -2.7925 C   0  0  0  0  0  0  0  0  0  0  0  0
    1.9834    4.4669   -2.0729 C   0  0  0  0  0  0  0  0  0  0  0  0
    3.5780    4.8566   -2.7022 Cl  0  0  0  0  0  0  0  0  0  0  0  0
    1.8471    3.7773   -0.8957 C   0  0  0  0  0  0  0  0  0  0  0  0
   -1.0512    0.7664    0.9382 C   0  0  2  0  0  0  0  0  0  0  0  0
   -2.2006    1.6744    1.0695 C   0  0  0  0  0  0  0  0  0  0  0  0
   -3.2975    0.9142    1.8476 C   0  0  0  0  0  0  0  0  0  0  0  0
   -2.7661   -0.5029    1.6196 C   0  0  2  0  0  0  0  0  0  0  0  0
   -1.3101   -0.2290    2.0470 C   0  0  0  0  0  0  0  0  0  0  0  0
   -2.6497   -0.6940    0.2175 N   0  3  2  0  0  0  0  0  0  0  0  0
   -2.8709   -2.0404   -0.2304 C   0  0  0  0  0  0  0  0  0  0  0  0
   -4.3670   -2.2324   -0.3657 C   0  0  0  0  0  0  0  0  0  0  0  0
   -4.8157   -3.5980   -0.8361 C   0  0  0  0  0  0  0  0  0  0  0  0
   -5.8012   -3.5316    0.1757 O   0  0  0  0  0  0  0  0  0  0  0  0
   -4.9913   -2.6719    0.9413 C   0  0  0  0  0  0  0  0  0  0  0  0
   -1.3823   -0.1489   -0.2428 C   0  0  0  0  0  0  0  0  0  0  0  0
    3.0071    1.4097    1.6341 H   0  0  0  0  0  0  0  0  0  0  0  0
    2.9837    1.2791   -0.1066 H   0  0  0  0  0  0  0  0  0  0  0  0
    4.1928   -0.1552    2.9082 H   0  0  0  0  0  0  0  0  0  0  0  0
    5.8292   -3.5641    1.2257 H   0  0  0  0  0  0  0  0  0  0  0  0
    5.3794   -4.1619   -1.0019 H   0  0  0  0  0  0  0  0  0  0  0  0
    4.2606   -3.6976   -3.1202 H   0  0  0  0  0  0  0  0  0  0  0  0
    2.8695   -1.7429   -3.3420 H   0  0  0  0  0  0  0  0  0  0  0  0
    2.5555   -0.2189   -1.4978 H   0  0  0  0  0  0  0  0  0  0  0  0
    1.3772    2.9058    1.4746 H   0  0  0  0  0  0  0  0  0  0  0  0
   -0.4231    3.1137    1.3619 H   0  0  0  0  0  0  0  0  0  0  0  0
   -1.4368    3.6595   -0.7700 H   0  0  0  0  0  0  0  0  0  0  0  0
   -1.1884    4.8596   -2.8183 H   0  0  0  0  0  0  0  0  0  0  0  0
    1.0125    5.3909   -3.6779 H   0  0  0  0  0  0  0  0  0  0  0  0
    2.6987    3.4926   -0.3870 H   0  0  0  0  0  0  0  0  0  0  0  0
   -2.5625    1.9500    0.1010 H   0  0  0  0  0  0  0  0  0  0  0  0
   -1.9205    2.5692    1.5850 H   0  0  0  0  0  0  0  0  0  0  0  0
   -4.2696    1.0569    1.4238 H   0  0  0  0  0  0  0  0  0  0  0  0
   -3.4421    1.2062    2.8668 H   0  0  0  0  0  0  0  0  0  0  0  0
   -3.3209   -1.2946    2.0783 H   0  0  0  0  0  0  0  0  0  0  0  0
   -0.6850   -1.0954    1.9881 H   0  0  0  0  0  0  0  0  0  0  0  0
   -1.1314    0.0824    3.0550 H   0  0  0  0  0  0  0  0  0  0  0  0
   -3.4156   -0.1779   -0.2154 H   0  0  0  0  0  0  0  0  0  0  0  0
   -2.4764   -2.7329    0.4836 H   0  0  0  0  0  0  0  0  0  0  0  0
   -2.3817   -2.2125   -1.1663 H   0  0  0  0  0  0  0  0  0  0  0  0
   -4.6009   -1.3378   -0.9041 H   0  0  0  0  0  0  0  0  0  0  0  0
   -4.0931   -4.3768   -0.7091 H   0  0  0  0  0  0  0  0  0  0  0  0
   -5.0613   -3.7962   -1.8585 H   0  0  0  0  0  0  0  0  0  0  0  0
   -4.3224   -3.1666    1.6141 H   0  0  0  0  0  0  0  0  0  0  0  0
   -5.4045   -1.9721    1.6373 H   0  0  0  0  0  0  0  0  0  0  0  0
   -1.4926    0.4008   -1.1541 H   0  0  0  0  0  0  0  0  0  0  0  0
   -0.6336   -0.8768   -0.4763 H   0  0  0  0  0  0  0  0  0  0  0  0
  1  2  2  0  0  0  0
  2  3  1  0  0  0  0
  2 14  1  0  0  0  0
  3  4  1  0  0  0  0
  3 35  1  0  0  0  0
  3 36  1  0  0  0  0
  4  5  2  0  0  0  0
  5  6  1  0  0  0  0
  5 37  1  0  0  0  0
  6  7  2  0  0  0  0
  7  8  1  0  0  0  0
  7 38  1  0  0  0  0
  8  9  2  0  0  0  0
  9 10  1  0  0  0  0
  9 39  1  0  0  0  0
 10 11  2  0  0  0  0
 10 40  1  0  0  0  0
 11 12  1  0  0  0  0
 11 41  1  0  0  0  0
 12 13  2  0  0  0  0
 12 42  1  0  0  0  0
 13  4  1  0  0  0  0
 13  8  1  0  0  0  0
 14 15  1  0  0  0  0
 15 16  1  0  0  0  0
 15 43  1  0  0  0  0
 15 44  1  0  0  0  0
 16 17  2  0  0  0  0
 17 18  1  0  0  0  0
 17 45  1  0  0  0  0
 18 19  2  0  0  0  0
 18 46  1  0  0  0  0
 19 20  1  0  0  0  0
 19 47  1  0  0  0  0
 20 21  1  0  0  0  0
 20 22  2  0  0  0  0
 22 16  1  0  0  0  0
 22 48  1  0  0  0  0
 23 14  1  6  0  0  0
 23 24  1  0  0  0  0
 24 25  1  0  0  0  0
 24 49  1  0  0  0  0
 24 50  1  0  0  0  0
 25 51  1  0  0  0  0
 25 52  1  0  0  0  0
 26 25  1  0  0  0  0
 26 27  1  0  0  0  0
 26 28  1  0  0  0  0
 26 53  1  1  0  0  0
 27 23  1  0  0  0  0
 27 54  1  0  0  0  0
 27 55  1  0  0  0  0
 28 29  1  0  0  0  0
 28 34  1  0  0  0  0
 28 56  1  6  0  0  0
 29 30  1  0  0  0  0
 29 57  1  0  0  0  0
 29 58  1  0  0  0  0
 30 31  1  0  0  0  0
 30 59  1  0  0  0  0
 31 32  1  0  0  0  0
 31 60  1  0  0  0  0
 31 61  1  0  0  0  0
 32 33  1  0  0  0  0
 33 30  1  0  0  0  0
 33 62  1  0  0  0  0
 33 63  1  0  0  0  0
 34 23  1  0  0  0  0
 34 64  1  0  0  0  0
 34 65  1  0  0  0  0
M  CHG  1  28   1
M  END
$$$$

 OpenBabel07292611443D

 63 67  0  0  0  0  0  0  0  0999 V2000
    7.6341   -3.0094    0.0397 C   0  0  0  0  0  0  0  0  0  0  0  0
    6.7650   -2.0992   -0.3688 C   0  0  0  0  0  0  0  0  0  0  0  0
    5.5759   -1.7778    0.4345 C   0  0  0  0  0  0  0  0  0  0  0  0
    5.4527   -2.4130    1.5049 O   0  0  0  0  0  0  0  0  0  0  0  0
    4.6696   -0.7971   -0.0395 N   0  0  0  0  0  0  0  0  0  0  0  0
    4.9084   -0.1688   -1.3491 C   0  0  0  0  0  0  0  0  0  0  0  0
    3.6681    0.5997   -1.7401 C   0  0  0  0  0  0  0  0  0  0  0  0
    2.4222   -0.2479   -1.3756 C   0  0  0  0  0  0  0  0  0  0  0  0
    2.3209   -0.1456    0.0566 C   0  0  0  0  0  0  0  0  0  0  0  0
    3.5345   -0.4386    0.7438 C   0  0  0  0  0  0  0  0  0  0  0  0
    3.6541   -0.3991    2.0944 C   0  0  0  0  0  0  0  0  0  0  0  0
    2.5684   -0.0638    2.8537 C   0  0  0  0  0  0  0  0  0  0  0  0
    1.3919    0.2200    2.1946 C   0  0  0  0  0  0  0  0  0  0  0  0
    1.2484    0.1857    0.8202 C   0  0  0  0  0  0  0  0  0  0  0  0
   -0.0755    0.4946    0.2084 N   0  3  0  0  0  0  0  0  0  0  0  0
    0.2105    1.3605   -0.8136 C   0  0  0  0  0  0  0  0  0  0  0  0
   -0.6295    2.6028   -0.4976 C   0  0  0  0  0  0  0  0  0  0  0  0
   -0.1716    3.5929    0.3092 C   0  0  0  0  0  0  0  0  0  0  0  0
   -0.9157    4.7203    0.5936 C   0  0  0  0  0  0  0  0  0  0  0  0
   -2.1798    4.8537    0.0378 C   0  0  0  0  0  0  0  0  0  0  0  0
   -2.6625    3.8698   -0.7777 C   0  0  0  0  0  0  0  0  0  0  0  0
   -4.2504    3.9947   -1.5007 Cl  0  0  0  0  0  0  0  0  0  0  0  0
   -1.8923    2.7488   -1.0455 C   0  0  0  0  0  0  0  0  0  0  0  0
   -0.7960   -0.6429   -0.1349 C   0  0  0  0  0  0  0  0  0  0  0  0
    0.0689   -1.4611   -0.6221 O   0  0  0  0  0  0  0  0  0  0  0  0
   -2.0999   -1.2172   -0.1437 C   0  0  0  0  0  0  0  0  0  0  0  0
   -3.3510   -0.6771    0.2990 C   0  0  0  0  0  0  0  0  0  0  0  0
   -3.5699    0.5226    0.9397 C   0  0  0  0  0  0  0  0  0  0  0  0
   -4.8005    0.9404    1.3235 N   0  0  0  0  0  0  0  0  0  0  0  0
   -5.8902    0.1959    1.0966 C   0  0  0  0  0  0  0  0  0  0  0  0
   -5.7262   -1.0034    0.4643 C   0  0  0  0  0  0  0  0  0  0  0  0
   -6.8362   -1.7763    0.2292 C   0  0  0  0  0  0  0  0  0  0  0  0
   -6.7870   -2.9971   -0.3946 C   0  0  0  0  0  0  0  0  0  0  0  0
   -5.5559   -3.4557   -0.7988 C   0  0  0  0  0  0  0  0  0  0  0  0
   -4.4309   -2.6721   -0.5606 C   0  0  0  0  0  0  0  0  0  0  0  0
   -4.5099   -1.4447    0.0706 C   0  0  0  0  0  0  0  0  0  0  0  0
    8.4642   -3.2246   -0.5345 H   0  0  0  0  0  0  0  0  0  0  0  0
    7.4819   -3.5041    0.9325 H   0  0  0  0  0  0  0  0  0  0  0  0
    6.9237   -1.6085   -1.2627 H   0  0  0  0  0  0  0  0  0  0  0  0
    5.1122   -0.9229   -2.0803 H   0  0  0  0  0  0  0  0  0  0  0  0
    5.7487    0.4913   -1.2934 H   0  0  0  0  0  0  0  0  0  0  0  0
    3.6791    0.7892   -2.7931 H   0  0  0  0  0  0  0  0  0  0  0  0
    3.6387    1.5337   -1.2189 H   0  0  0  0  0  0  0  0  0  0  0  0
    2.5581   -1.2667   -1.6730 H   0  0  0  0  0  0  0  0  0  0  0  0
    1.5382    0.0957   -1.8709 H   0  0  0  0  0  0  0  0  0  0  0  0
    4.5562   -0.6201    2.5442 H   0  0  0  0  0  0  0  0  0  0  0  0
    2.6274   -0.0246    3.8833 H   0  0  0  0  0  0  0  0  0  0  0  0
    0.5678    0.4736    2.7617 H   0  0  0  0  0  0  0  0  0  0  0  0
    0.8011    0.3759   -0.2237 H   0  0  0  0  0  0  0  0  0  0  0  0
   -0.0715    0.9412   -1.7568 H   0  0  0  0  0  0  0  0  0  0  0  0
    1.2554    1.5791   -0.8862 H   0  0  0  0  0  0  0  0  0  0  0  0
    0.7680    3.4997    0.7258 H   0  0  0  0  0  0  0  0  0  0  0  0
   -0.5365    5.4545    1.2118 H   0  0  0  0  0  0  0  0  0  0  0  0
   -2.7509    5.6895    0.2388 H   0  0  0  0  0  0  0  0  0  0  0  0
   -2.2663    2.0114   -1.6631 H   0  0  0  0  0  0  0  0  0  0  0  0
   -1.9909   -2.1188    0.4221 H   0  0  0  0  0  0  0  0  0  0  0  0
   -2.2792   -1.1392   -1.1957 H   0  0  0  0  0  0  0  0  0  0  0  0
   -2.7598    1.1309    1.1363 H   0  0  0  0  0  0  0  0  0  0  0  0
   -6.8253    0.5186    1.3906 H   0  0  0  0  0  0  0  0  0  0  0  0
   -7.7546   -1.4207    0.5375 H   0  0  0  0  0  0  0  0  0  0  0  0
   -7.6430   -3.5509   -0.5545 H   0  0  0  0  0  0  0  0  0  0  0  0
   -5.4671   -4.3684   -1.2723 H   0  0  0  0  0  0  0  0  0  0  0  0
   -3.5076   -3.0185   -0.8650 H   0  0  0  0  0  0  0  0  0  0  0  0
  1  2  2  0  0  0  0
  1 37  1  0  0  0  0
  1 38  1  0  0  0  0
  2  3  1  0  0  0  0
  2 39  1  0  0  0  0
  3  4  2  0  0  0  0
  3  5  1  0  0  0  0
  5  6  1  0  0  0  0
  6  7  1  0  0  0  0
  6 40  1  0  0  0  0
  6 41  1  0  0  0  0
  7  8  1  0  0  0  0
  7 42  1  0  0  0  0
  7 43  1  0  0  0  0
  8  9  1  0  0  0  0
  8 44  1  0  0  0  0
  8 45  1  0  0  0  0
  9 10  2  0  0  0  0
 10 11  1  0  0  0  0
 10  5  1  0  0  0  0
 11 12  2  0  0  0  0
 11 46  1  0  0  0  0
 12 13  1  0  0  0  0
 12 47  1  0  0  0  0
 13 14  2  0  0  0  0
 13 48  1  0  0  0  0
 14 15  1  0  0  0  0
 14  9  1  0  0  0  0
 15 16  1  0  0  0  0
 15 24  1  0  0  0  0
 15 49  1  0  0  0  0
 16 17  1  0  0  0  0
 16 50  1  0  0  0  0
 16 51  1  0  0  0  0
 17 18  2  0  0  0  0
 18 19  1  0  0  0  0
 18 52  1  0  0  0  0
 19 20  2  0  0  0  0
 19 53  1  0  0  0  0
 20 21  1  0  0  0  0
 20 54  1  0  0  0  0
 21 22  1  0  0  0  0
 21 23  2  0  0  0  0
 23 17  1  0  0  0  0
 23 55  1  0  0  0  0
 24 25  2  0  0  0  0
 24 26  1  0  0  0  0
 26 27  1  0  0  0  0
 26 56  1  0  0  0  0
 26 57  1  0  0  0  0
 27 28  2  0  0  0  0
 28 29  1  0  0  0  0
 28 58  1  0  0  0  0
 29 30  2  0  0  0  0
 30 31  1  0  0  0  0
 30 59  1  0  0  0  0
 31 32  2  0  0  0  0
 32 33  1  0  0  0  0
 32 60  1  0  0  0  0
 33 34  2  0  0  0  0
 33 61  1  0  0  0  0
 34 35  1  0  0  0  0
 34 62  1  0  0  0  0
 35 36  2  0  0  0  0
 35 63  1  0  0  0  0
 36 27  1  0  0  0  0
 36 31  1  0  0  0  0
M  CHG  1  15   1
M  END
$$$$

 OpenBabel07292611443D

 52 54  0  0  0  0  0  0  0  0999 V2000
   -4.8594    0.9485    1.4899 C   0  0  0  0  0  0  0  0  0  0  0  0
   -4.9787    0.3449    0.1263 C   0  0  0  0  0  0  0  0  0  0  0  0
   -6.4091   -0.2414    0.0283 C   0  0  0  0  0  0  0  0  0  0  0  0
   -4.0025   -0.7010   -0.2025 C   0  0  0  0  0  0  0  0  0  0  0  0
   -2.5489   -0.4204   -0.2351 C   0  0  0  0  0  0  0  0  0  0  0  0
   -2.1869    0.6635   -1.2398 C   0  0  0  0  0  0  0  0  0  0  0  0
   -1.9636   -0.0912    1.0766 C   0  0  0  0  0  0  0  0  0  0  0  0
   -0.4554    0.0356    1.0960 C   0  0  0  0  0  0  0  0  0  0  0  0
    0.1949   -0.7352    0.0572 N   0  0  0  0  0  0  0  0  0  0  0  0
    1.4688   -0.3443   -0.4876 C   0  0  0  0  0  0  0  0  0  0  0  0
    2.0383   -1.0156   -1.3865 O   0  0  0  0  0  0  0  0  0  0  0  0
    2.0773    0.8904    0.0649 C   0  0  0  0  0  0  0  0  0  0  0  0
    3.3853    1.2246   -0.5159 C   0  0  0  0  0  0  0  0  0  0  0  0
    3.5859    2.2120   -1.4583 C   0  0  0  0  0  0  0  0  0  0  0  0
    4.8294    2.4650   -1.9483 N   0  0  0  0  0  0  0  0  0  0  0  0
    5.9011    1.7437   -1.5138 C   0  0  0  0  0  0  0  0  0  0  0  0
    5.7548    0.7435   -0.5712 C   0  0  0  0  0  0  0  0  0  0  0  0
    6.8737    0.0373   -0.1565 C   0  0  0  0  0  0  0  0  0  0  0  0
    6.6932   -0.9616    0.7956 C   0  0  0  0  0  0  0  0  0  0  0  0
    5.4440   -1.2529    1.3213 C   0  0  0  0  0  0  0  0  0  0  0  0
    4.3343   -0.5213    0.8816 C   0  0  0  0  0  0  0  0  0  0  0  0
    4.4877    0.4856   -0.0721 C   0  0  0  0  0  0  0  0  0  0  0  0
   -0.4956   -1.9172   -0.4032 C   0  0  0  0  0  0  0  0  0  0  0  0
   -1.9256   -1.7578   -0.7071 C   0  0  0  0  0  0  0  0  0  0  0  0
   -5.6167    1.6935    1.6177 H   0  0  0  0  0  0  0  0  0  0  0  0
   -3.8946    1.3985    1.5976 H   0  0  0  0  0  0  0  0  0  0  0  0
   -4.9816    0.1852    2.2298 H   0  0  0  0  0  0  0  0  0  0  0  0
   -4.7765    1.1228   -0.5800 H   0  0  0  0  0  0  0  0  0  0  0  0
   -6.5311   -1.0091    0.7636 H   0  0  0  0  0  0  0  0  0  0  0  0
   -6.5591   -0.6548   -0.9472 H   0  0  0  0  0  0  0  0  0  0  0  0
   -7.1253    0.5347    0.2007 H   0  0  0  0  0  0  0  0  0  0  0  0
   -4.2623   -1.0610   -1.1761 H   0  0  0  0  0  0  0  0  0  0  0  0
   -4.0894   -1.3666    0.6307 H   0  0  0  0  0  0  0  0  0  0  0  0
   -2.6107    1.5951   -0.9276 H   0  0  0  0  0  0  0  0  0  0  0  0
   -2.5730    0.4008   -2.2025 H   0  0  0  0  0  0  0  0  0  0  0  0
   -1.1224    0.7568   -1.2958 H   0  0  0  0  0  0  0  0  0  0  0  0
   -2.2398   -0.8622    1.7652 H   0  0  0  0  0  0  0  0  0  0  0  0
   -2.3460    0.8732    1.3387 H   0  0  0  0  0  0  0  0  0  0  0  0
   -0.0977   -0.3037    2.0457 H   0  0  0  0  0  0  0  0  0  0  0  0
   -0.2205    1.0650    0.9226 H   0  0  0  0  0  0  0  0  0  0  0  0
    2.2008    0.7615    1.1199 H   0  0  0  0  0  0  0  0  0  0  0  0
    1.4163    1.6961   -0.1775 H   0  0  0  0  0  0  0  0  0  0  0  0
    2.7828    2.7654   -1.7956 H   0  0  0  0  0  0  0  0  0  0  0  0
    6.8380    1.9479   -1.8952 H   0  0  0  0  0  0  0  0  0  0  0  0
    7.8086    0.2454   -0.5408 H   0  0  0  0  0  0  0  0  0  0  0  0
    7.5118   -1.5003    1.1192 H   0  0  0  0  0  0  0  0  0  0  0  0
    5.3336   -1.9982    2.0265 H   0  0  0  0  0  0  0  0  0  0  0  0
    3.3985   -0.7277    1.2646 H   0  0  0  0  0  0  0  0  0  0  0  0
   -0.4049   -2.6649    0.3568 H   0  0  0  0  0  0  0  0  0  0  0  0
   -0.0327   -2.1749   -1.3328 H   0  0  0  0  0  0  0  0  0  0  0  0
   -2.4568   -2.5571   -0.2340 H   0  0  0  0  0  0  0  0  0  0  0  0
   -2.0079   -1.7666   -1.7739 H   0  0  0  0  0  0  0  0  0  0  0  0
  1  2  1  0  0  0  0
  1 25  1  0  0  0  0
  1 26  1  0  0  0  0
  1 27  1  0  0  0  0
  2  3  1  0  0  0  0
  2  4  1  0  0  0  0
  2 28  1  0  0  0  0
  3 29  1  0  0  0  0
  3 30  1  0  0  0  0
  3 31  1  0  0  0  0
  4  5  1  0  0  0  0
  4 32  1  0  0  0  0
  4 33  1  0  0  0  0
  5  6  1  0  0  0  0
  5  7  1  0  0  0  0
  6 34  1  0  0  0  0
  6 35  1  0  0  0  0
  6 36  1  0  0  0  0
  7  8  1  0  0  0  0
  7 37  1  0  0  0  0
  7 38  1  0  0  0  0
  8  9  1  0  0  0  0
  8 39  1  0  0  0  0
  8 40  1  0  0  0  0
  9 10  1  0  0  0  0
  9 23  1  0  0  0  0
 10 11  2  0  0  0  0
 10 12  1  0  0  0  0
 12 13  1  0  0  0  0
 12 41  1  0  0  0  0
 12 42  1  0  0  0  0
 13 14  2  0  0  0  0
 14 15  1  0  0  0  0
 14 43  1  0  0  0  0
 15 16  2  0  0  0  0
 16 17  1  0  0  0  0
 16 44  1  0  0  0  0
 17 18  2  0  0  0  0
 18 19  1  0  0  0  0
 18 45  1  0  0  0  0
 19 20  2  0  0  0  0
 19 46  1  0  0  0  0
 20 21  1  0  0  0  0
 20 47  1  0  0  0  0
 21 22  2  0  0  0  0
 21 48  1  0  0  0  0
 22 13  1  0  0  0  0
 22 17  1  0  0  0  0
 23 24  1  0  0  0  0
 23 49  1  0  0  0  0
 23 50  1  0  0  0  0
 24  5  1  0  0  0  0
 24 51  1  0  0  0  0
 24 52  1  0  0  0  0
M  END
$$$$

 OpenBabel07292611443D

 50 54  0  0  0  0  0  0  0  0999 V2000
   -1.2602   -2.1370   -1.1304 C   0  0  0  0  0  0  0  0  0  0  0  0
   -1.2155   -1.1169   -0.0149 C   0  0  1  0  0  0  0  0  0  0  0  0
    0.1175   -1.2482    0.7357 C   0  0  0  0  0  0  0  0  0  0  0  0
    1.0164   -0.5836   -0.1550 N   0  0  0  0  0  0  0  0  0  0  0  0
    2.3494   -0.8813   -0.5457 C   0  0  0  0  0  0  0  0  0  0  0  0
    2.5947   -1.6786   -1.6701 C   0  0  0  0  0  0  0  0  0  0  0  0
    3.8675   -1.9707   -2.0514 N   0  0  0  0  0  0  0  0  0  0  0  0
    4.9336   -1.5198   -1.3844 C   0  0  0  0  0  0  0  0  0  0  0  0
    4.7590   -0.7352   -0.2761 C   0  0  0  0  0  0  0  0  0  0  0  0
    5.8583   -0.2697    0.4151 C   0  0  0  0  0  0  0  0  0  0  0  0
    5.7059    0.5225    1.5380 C   0  0  0  0  0  0  0  0  0  0  0  0
    4.4086    0.8381    1.9525 C   0  0  0  0  0  0  0  0  0  0  0  0
    3.3331    0.3559    1.2380 C   0  0  0  0  0  0  0  0  0  0  0  0
    3.4670   -0.4331    0.1190 C   0  0  0  0  0  0  0  0  0  0  0  0
    0.2867    0.5496   -0.6571 C   0  0  0  0  0  0  0  0  0  0  0  0
    0.7859    1.5962   -1.1752 O   0  0  0  0  0  0  0  0  0  0  0  0
   -1.1666    0.3102   -0.4768 C   0  0  1  0  0  0  0  0  0  0  0  0
   -1.9726    0.5822   -1.6899 C   0  0  0  0  0  0  0  0  0  0  0  0
   -3.3747    0.3764   -1.4355 N   0  0  0  0  0  0  0  0  0  0  0  0
   -4.2766   -0.4091   -2.2203 C   0  0  0  0  0  0  0  0  0  0  0  0
   -4.4841   -1.7674   -1.8145 C   0  0  0  0  0  0  0  0  0  0  0  0
   -4.6650   -2.8404   -1.4821 N   0  0  0  0  0  0  0  0  0  0  0  0
   -3.9451    1.0720   -0.3066 C   0  0  0  0  0  0  0  0  0  0  0  0
   -5.1993    1.3166   -0.2643 O   0  0  0  0  0  0  0  0  0  0  0  0
   -3.0394    1.4717    0.7574 C   0  0  0  0  0  0  0  0  0  0  0  0
   -3.5702    2.2126    1.7906 C   0  0  0  0  0  0  0  0  0  0  0  0
   -2.7456    2.6956    2.7819 C   0  0  0  0  0  0  0  0  0  0  0  0
   -1.4014    2.4109    2.6932 C   0  0  0  0  0  0  0  0  0  0  0  0
   -0.5820    2.8907    3.6750 F   0  0  0  0  0  0  0  0  0  0  0  0
   -0.8778    1.6556    1.6370 C   0  0  0  0  0  0  0  0  0  0  0  0
   -1.7018    1.1648    0.6385 C   0  0  0  0  0  0  0  0  0  0  0  0
   -1.2933   -3.1214   -0.7124 H   0  0  0  0  0  0  0  0  0  0  0  0
   -0.3864   -2.0375   -1.7399 H   0  0  0  0  0  0  0  0  0  0  0  0
   -2.1325   -1.9739   -1.7282 H   0  0  0  0  0  0  0  0  0  0  0  0
   -2.1022   -1.3111    0.5516 H   0  0  0  0  0  0  0  0  0  0  0  0
    0.3897   -2.2741    0.8713 H   0  0  0  0  0  0  0  0  0  0  0  0
    0.1023   -0.8386    1.7241 H   0  0  0  0  0  0  0  0  0  0  0  0
    1.8010   -2.0489   -2.2159 H   0  0  0  0  0  0  0  0  0  0  0  0
    5.8848   -1.7619   -1.7032 H   0  0  0  0  0  0  0  0  0  0  0  0
    6.8063   -0.5158    0.0900 H   0  0  0  0  0  0  0  0  0  0  0  0
    6.5275    0.8713    2.0561 H   0  0  0  0  0  0  0  0  0  0  0  0
    4.2575    1.4271    2.7863 H   0  0  0  0  0  0  0  0  0  0  0  0
    2.3822    0.5982    1.5576 H   0  0  0  0  0  0  0  0  0  0  0  0
   -1.6589   -0.0759   -2.4731 H   0  0  0  0  0  0  0  0  0  0  0  0
   -1.8245    1.6027   -1.9755 H   0  0  0  0  0  0  0  0  0  0  0  0
   -3.9009   -0.4261   -3.2220 H   0  0  0  0  0  0  0  0  0  0  0  0
   -5.2293    0.0632   -2.1015 H   0  0  0  0  0  0  0  0  0  0  0  0
   -4.5836    2.4051    1.8215 H   0  0  0  0  0  0  0  0  0  0  0  0
   -3.1224    3.2522    3.5650 H   0  0  0  0  0  0  0  0  0  0  0  0
    0.1353    1.4622    1.6023 H   0  0  0  0  0  0  0  0  0  0  0  0
  1 32  1  0  0  0  0
  1 33  1  0  0  0  0
  1 34  1  0  0  0  0
  2  1  1  0  0  0  0
  2  3  1  0  0  0  0
  2 35  1  1  0  0  0
  3  4  1  0  0  0  0
  3 36  1  0  0  0  0
  3 37  1  0  0  0  0
  4  5  1  0  0  0  0
  4 15  1  0  0  0  0
  5  6  2  0  0  0  0
  6  7  1  0  0  0  0
  6 38  1  0  0  0  0
  7  8  2  0  0  0  0
  8  9  1  0  0  0  0
  8 39  1  0  0  0  0
  9 10  2  0  0  0  0
 10 11  1  0  0  0  0
 10 40  1  0  0  0  0
 11 12  2  0  0  0  0
 11 41  1  0  0  0  0
 12 13  1  0  0  0  0
 12 42  1  0  0  0  0
 13 14  2  0  0  0  0
 13 43  1  0  0  0  0
 14  5  1  0  0  0  0
 14  9  1  0  0  0  0
 15 16  2  0  0  0  0
 17 15  1  6  0  0  0
 17 18  1  0  0  0  0
 17  2  1  0  0  0  0
 18 19  1  0  0  0  0
 18 44  1  0  0  0  0
 18 45  1  0  0  0  0
 19 20  1  0  0  0  0
 19 23  1  0  0  0  0
 20 21  1  0  0  0  0
 20 46  1  0  0  0  0
 20 47  1  0  0  0  0
 21 22  3  0  0  0  0
 23 24  2  0  0  0  0
 23 25  1  0  0  0  0
 25 26  2  0  0  0  0
 26 27  1  0  0  0  0
 26 48  1  0  0  0  0
 27 28  2  0  0  0  0
 27 49  1  0  0  0  0
 28 29  1  0  0  0  0
 28 30  1  0  0  0  0
 30 31  2  0  0  0  0
 30 50  1  0  0  0  0
 31 25  1  0  0  0  0
 31 17  1  0  0  0  0
M  END
$$$$

 OpenBabel07292611443D

 41 44  0  0  0  0  0  0  0  0999 V2000
    0.0655   -1.5792   -1.5756 O   0  0  0  0  0  0  0  0  0  0  0  0
   -0.2015   -0.7575   -0.6714 C   0  0  0  0  0  0  0  0  0  0  0  0
    0.8063   -0.1271    0.2239 C   0  0  0  0  0  0  0  0  0  0  0  0
    2.1732   -0.6163    0.0784 C   0  0  0  0  0  0  0  0  0  0  0  0
    2.4447   -1.9337   -0.2464 C   0  0  0  0  0  0  0  0  0  0  0  0
    3.7127   -2.4046   -0.3905 N   0  0  0  0  0  0  0  0  0  0  0  0
    4.8011   -1.6408   -0.2313 C   0  0  0  0  0  0  0  0  0  0  0  0
    4.5866   -0.3170    0.0954 C   0  0  0  0  0  0  0  0  0  0  0  0
    5.7151    0.4589    0.2797 C   0  0  0  0  0  0  0  0  0  0  0  0
    5.5742    1.7838    0.6253 C   0  0  0  0  0  0  0  0  0  0  0  0
    4.3101    2.3073    0.7803 C   0  0  0  0  0  0  0  0  0  0  0  0
    3.1542    1.5410    0.5999 C   0  0  0  0  0  0  0  0  0  0  0  0
    3.2951    0.1946    0.2487 C   0  0  0  0  0  0  0  0  0  0  0  0
   -1.5774   -0.4019   -0.4829 N   0  0  0  0  0  0  0  0  0  0  0  0
   -2.5679   -1.0063   -1.3483 C   0  0  0  0  0  0  0  0  0  0  0  0
   -3.2912   -2.0326   -0.4674 C   0  0  0  0  0  0  0  0  0  0  0  0
   -4.5199   -1.3859    0.0617 C   0  0  0  0  0  0  0  0  0  0  0  0
   -4.3147   -0.0100    0.4406 C   0  0  0  0  0  0  0  0  0  0  0  0
   -5.8211    0.9222    0.7174 S   0  0  0  0  0  0  0  0  0  0  0  0
   -4.9737    2.4408    1.1372 C   0  0  0  0  0  0  0  0  0  0  0  0
   -3.6626    2.1318    1.0375 C   0  0  0  0  0  0  0  0  0  0  0  0
   -3.3147    0.8776    0.6808 C   0  0  0  0  0  0  0  0  0  0  0  0
   -1.8408    0.5232    0.5818 C   0  0  0  0  0  0  0  0  0  0  0  0
    0.5013   -0.2986    1.2351 H   0  0  0  0  0  0  0  0  0  0  0  0
    0.8349    0.9068   -0.0502 H   0  0  0  0  0  0  0  0  0  0  0  0
    1.6551   -2.5837   -0.3846 H   0  0  0  0  0  0  0  0  0  0  0  0
    5.7527   -2.0229   -0.3471 H   0  0  0  0  0  0  0  0  0  0  0  0
    6.6545    0.0490    0.1594 H   0  0  0  0  0  0  0  0  0  0  0  0
    6.4062    2.3778    0.7666 H   0  0  0  0  0  0  0  0  0  0  0  0
    4.2121    3.3015    1.0391 H   0  0  0  0  0  0  0  0  0  0  0  0
    2.2189    1.9594    0.7231 H   0  0  0  0  0  0  0  0  0  0  0  0
   -2.0971   -1.4891   -2.1791 H   0  0  0  0  0  0  0  0  0  0  0  0
   -3.2410   -0.2815   -1.7564 H   0  0  0  0  0  0  0  0  0  0  0  0
   -2.6576   -2.3291    0.3423 H   0  0  0  0  0  0  0  0  0  0  0  0
   -3.5408   -2.9046   -1.0350 H   0  0  0  0  0  0  0  0  0  0  0  0
   -4.8485   -1.9309    0.9219 H   0  0  0  0  0  0  0  0  0  0  0  0
   -5.2493   -1.3966   -0.7211 H   0  0  0  0  0  0  0  0  0  0  0  0
   -5.3920    3.3478    1.3968 H   0  0  0  0  0  0  0  0  0  0  0  0
   -2.9396    2.8424    1.2307 H   0  0  0  0  0  0  0  0  0  0  0  0
   -1.5291    0.0831    1.5060 H   0  0  0  0  0  0  0  0  0  0  0  0
   -1.2990    1.4230    0.3774 H   0  0  0  0  0  0  0  0  0  0  0  0
  1  2  2  0  0  0  0
  2  3  1  0  0  0  0
  2 14  1  0  0  0  0
  3  4  1  0  0  0  0
  3 24  1  0  0  0  0
  3 25  1  0  0  0  0
  4  5  2  0  0  0  0
  5  6  1  0  0  0  0
  5 26  1  0  0  0  0
  6  7  2  0  0  0  0
  7  8  1  0  0  0  0
  7 27  1  0  0  0  0
  8  9  2  0  0  0  0
  9 10  1  0  0  0  0
  9 28  1  0  0  0  0
 10 11  2  0  0  0  0
 10 29  1  0  0  0  0
 11 12  1  0  0  0  0
 11 30  1  0  0  0  0
 12 13  2  0  0  0  0
 12 31  1  0  0  0  0
 13  4  1  0  0  0  0
 13  8  1  0  0  0  0
 14 15  1  0  0  0  0
 15 16  1  0  0  0  0
 15 32  1  0  0  0  0
 15 33  1  0  0  0  0
 16 17  1  0  0  0  0
 16 34  1  0  0  0  0
 16 35  1  0  0  0  0
 17 18  1  0  0  0  0
 17 36  1  0  0  0  0
 17 37  1  0  0  0  0
 18 19  1  0  0  0  0
 19 20  1  0  0  0  0
 20 21  2  0  0  0  0
 20 38  1  0  0  0  0
 21 22  1  0  0  0  0
 21 39  1  0  0  0  0
 22 23  1  0  0  0  0
 22 18  2  0  0  0  0
 23 14  1  0  0  0  0
 23 40  1  0  0  0  0
 23 41  1  0  0  0  0
M  END
$$$$

 OpenBabel07292611443D

 50 53  0  0  0  0  0  0  0  0999 V2000
    0.2520    0.8253    0.9437 O   0  0  0  0  0  0  0  0  0  0  0  0
    0.4406   -0.1858    0.1742 C   0  0  0  0  0  0  0  0  0  0  0  0
    1.8618   -0.6369    0.1064 C   0  0  0  0  0  0  0  0  0  0  0  0
    2.8326    0.4772   -0.0074 C   0  0  0  0  0  0  0  0  0  0  0  0
    2.5060    1.7784   -0.2758 C   0  0  0  0  0  0  0  0  0  0  0  0
    3.4567    2.7332   -0.3854 N   0  0  0  0  0  0  0  0  0  0  0  0
    4.7733    2.4974   -0.2446 C   0  0  0  0  0  0  0  0  0  0  0  0
    5.1275    1.1829    0.0287 C   0  0  0  0  0  0  0  0  0  0  0  0
    6.4770    0.8890    0.1799 C   0  0  0  0  0  0  0  0  0  0  0  0
    6.9063   -0.3874    0.4465 C   0  0  0  0  0  0  0  0  0  0  0  0
    5.9607   -1.3838    0.5629 C   0  0  0  0  0  0  0  0  0  0  0  0
    4.6140   -1.1014    0.4150 C   0  0  0  0  0  0  0  0  0  0  0  0
    4.1861    0.1852    0.1467 C   0  0  0  0  0  0  0  0  0  0  0  0
   -0.6085   -0.8035   -0.5389 N   0  0  0  0  0  0  0  0  0  0  0  0
   -0.4099   -1.9716   -1.4157 C   0  0  0  0  0  0  0  0  0  0  0  0
   -0.9541   -3.1620   -0.6628 C   0  0  0  0  0  0  0  0  0  0  0  0
   -1.9240   -2.6932    0.3664 C   0  0  0  0  0  0  0  0  0  0  0  0
   -2.8120   -1.5486   -0.1139 C   0  0  0  0  0  0  0  0  0  0  0  0
   -2.0039   -0.3451   -0.4986 C   0  0  1  0  0  0  0  0  0  0  0  0
   -2.2179    0.8392    0.3498 C   0  0  0  0  0  0  0  0  0  0  0  0
   -3.6156    1.3412    0.4188 C   0  0  0  0  0  0  0  0  0  0  0  0
   -4.0316    2.2452   -0.5685 C   0  0  0  0  0  0  0  0  0  0  0  0
   -5.3102    2.7712   -0.5796 C   0  0  0  0  0  0  0  0  0  0  0  0
   -6.2039    2.4030    0.4026 C   0  0  0  0  0  0  0  0  0  0  0  0
   -5.7943    1.5167    1.3697 C   0  0  0  0  0  0  0  0  0  0  0  0
   -4.5122    0.9770    1.3965 C   0  0  0  0  0  0  0  0  0  0  0  0
    1.9747   -1.2726   -0.7469 H   0  0  0  0  0  0  0  0  0  0  0  0
    2.0738   -1.1457    1.0235 H   0  0  0  0  0  0  0  0  0  0  0  0
    1.5141    2.0361   -0.3970 H   0  0  0  0  0  0  0  0  0  0  0  0
    5.4768    3.2471   -0.3342 H   0  0  0  0  0  0  0  0  0  0  0  0
    7.1718    1.6467    0.0898 H   0  0  0  0  0  0  0  0  0  0  0  0
    7.9110   -0.5957    0.5569 H   0  0  0  0  0  0  0  0  0  0  0  0
    6.2604   -2.3509    0.7625 H   0  0  0  0  0  0  0  0  0  0  0  0
    3.9209   -1.8606    0.5061 H   0  0  0  0  0  0  0  0  0  0  0  0
    0.6312   -2.1077   -1.6219 H   0  0  0  0  0  0  0  0  0  0  0  0
   -0.9077   -1.8434   -2.3541 H   0  0  0  0  0  0  0  0  0  0  0  0
   -0.1494   -3.6811   -0.1853 H   0  0  0  0  0  0  0  0  0  0  0  0
   -1.4472   -3.8224   -1.3451 H   0  0  0  0  0  0  0  0  0  0  0  0
   -1.3754   -2.3605    1.2227 H   0  0  0  0  0  0  0  0  0  0  0  0
   -2.5670   -3.5179    0.5932 H   0  0  0  0  0  0  0  0  0  0  0  0
   -3.4848   -1.2778    0.6728 H   0  0  0  0  0  0  0  0  0  0  0  0
   -3.3478   -1.8815   -0.9782 H   0  0  0  0  0  0  0  0  0  0  0  0
   -2.3186    0.0224   -1.4529 H   0  0  0  0  0  0  0  0  0  0  0  0
   -1.6035    1.6294   -0.0284 H   0  0  0  0  0  0  0  0  0  0  0  0
   -1.9695    0.5330    1.3445 H   0  0  0  0  0  0  0  0  0  0  0  0
   -3.3664    2.5253   -1.3061 H   0  0  0  0  0  0  0  0  0  0  0  0
   -5.5931    3.4345   -1.3178 H   0  0  0  0  0  0  0  0  0  0  0  0
   -7.1624    2.7855    0.4117 H   0  0  0  0  0  0  0  0  0  0  0  0
   -6.4639    1.2406    2.1048 H   0  0  0  0  0  0  0  0  0  0  0  0
   -4.2381    0.3139    2.1382 H   0  0  0  0  0  0  0  0  0  0  0  0
  1  2  2  0  0  0  0
  2  3  1  0  0  0  0
  2 14  1  0  0  0  0
  3  4  1  0  0  0  0
  3 27  1  0  0  0  0
  3 28  1  0  0  0  0
  4  5  2  0  0  0  0
  5  6  1  0  0  0  0
  5 29  1  0  0  0  0
  6  7  2  0  0  0  0
  7  8  1  0  0  0  0
  7 30  1  0  0  0  0
  8  9  2  0  0  0  0
  9 10  1  0  0  0  0
  9 31  1  0  0  0  0
 10 11  2  0  0  0  0
 10 32  1  0  0  0  0
 11 12  1  0  0  0  0
 11 33  1  0  0  0  0
 12 13  2  0  0  0  0
 12 34  1  0  0  0  0
 13  4  1  0  0  0  0
 13  8  1  0  0  0  0
 14 15  1  0  0  0  0
 15 16  1  0  0  0  0
 15 35  1  0  0  0  0
 15 36  1  0  0  0  0
 16 17  1  0  0  0  0
 16 37  1  0  0  0  0
 16 38  1  0  0  0  0
 17 18  1  0  0  0  0
 17 39  1  0  0  0  0
 17 40  1  0  0  0  0
 18 19  1  0  0  0  0
 18 41  1  0  0  0  0
 18 42  1  0  0  0  0
 19 20  1  0  0  0  0
 19 14  1  0  0  0  0
 19 43  1  6  0  0  0
 20 21  1  0  0  0  0
 20 44  1  0  0  0  0
 20 45  1  0  0  0  0
 21 22  2  0  0  0  0
 22 23  1  0  0  0  0
 22 46  1  0  0  0  0
 23 24  2  0  0  0  0
 23 47  1  0  0  0  0
 24 25  1  0  0  0  0
 24 48  1  0  0  0  0
 25 26  2  0  0  0  0
 25 49  1  0  0  0  0
 26 21  1  0  0  0  0
 26 50  1  0  0  0  0
M  END
$$$$

 OpenBabel07292611443D

 43 47  0  0  0  0  0  0  0  0999 V2000
   -2.0726    2.2454   -1.8195 O   0  0  0  0  0  0  0  0  0  0  0  0
   -1.2732    1.4558   -1.2380 C   0  0  0  0  0  0  0  0  0  0  0  0
    0.0686    1.7524   -0.8709 N   0  0  0  0  0  0  0  0  0  0  0  0
    0.6448    0.5343   -0.3988 C   0  0  1  0  0  0  0  0  0  0  0  0
    1.8917    0.0483   -1.1221 C   0  0  0  0  0  0  0  0  0  0  0  0
    2.6371    1.0035   -0.1989 C   0  0  2  0  0  0  0  0  0  0  0  0
    4.0143    0.6528    0.1365 C   0  0  0  0  0  0  0  0  0  0  0  0
    4.4002   -0.1168    1.2148 C   0  0  0  0  0  0  0  0  0  0  0  0
    5.7155   -0.4242    1.4953 C   0  0  0  0  0  0  0  0  0  0  0  0
    6.7219    0.0478    0.6734 C   0  0  0  0  0  0  0  0  0  0  0  0
    6.3492    0.8263   -0.4195 C   0  0  0  0  0  0  0  0  0  0  0  0
    5.0266    1.1209   -0.6803 C   0  0  0  0  0  0  0  0  0  0  0  0
    4.6991    2.1135   -2.0928 Cl  0  0  0  0  0  0  0  0  0  0  0  0
    1.5683    0.6688    0.8205 C   0  0  0  0  0  0  0  0  0  0  0  0
   -0.4386   -0.4439   -0.2274 C   0  0  0  0  0  0  0  0  0  0  0  0
   -0.2976   -1.5437    0.3675 O   0  0  0  0  0  0  0  0  0  0  0  0
   -1.5971    0.1069   -0.8472 N   0  0  0  0  0  0  0  0  0  0  0  0
   -2.8277   -0.5854   -1.0260 C   0  0  0  0  0  0  0  0  0  0  0  0
   -3.1168   -1.3382   -2.1454 C   0  0  0  0  0  0  0  0  0  0  0  0
   -4.3100   -1.9549   -2.2194 N   0  0  0  0  0  0  0  0  0  0  0  0
   -5.2541   -1.8925   -1.2738 C   0  0  0  0  0  0  0  0  0  0  0  0
   -5.0104   -1.1476   -0.1290 C   0  0  0  0  0  0  0  0  0  0  0  0
   -5.9343   -1.0335    0.8931 C   0  0  0  0  0  0  0  0  0  0  0  0
   -5.6598   -0.2750    2.0356 C   0  0  0  0  0  0  0  0  0  0  0  0
   -4.4334    0.3631    2.1195 C   0  0  0  0  0  0  0  0  0  0  0  0
   -3.4949    0.2554    1.0963 C   0  0  0  0  0  0  0  0  0  0  0  0
   -3.7920   -0.5042   -0.0282 C   0  0  0  0  0  0  0  0  0  0  0  0
    0.5140    2.6284   -0.9308 H   0  0  0  0  0  0  0  0  0  0  0  0
    1.9384    0.2915   -2.1630 H   0  0  0  0  0  0  0  0  0  0  0  0
    2.1445   -0.9870   -1.2180 H   0  0  0  0  0  0  0  0  0  0  0  0
    2.8703    2.0110   -0.4736 H   0  0  0  0  0  0  0  0  0  0  0  0
    3.6674   -0.4811    1.8436 H   0  0  0  0  0  0  0  0  0  0  0  0
    5.9475   -1.0048    2.3163 H   0  0  0  0  0  0  0  0  0  0  0  0
    7.7130   -0.1688    0.8628 H   0  0  0  0  0  0  0  0  0  0  0  0
    7.0801    1.1918   -1.0498 H   0  0  0  0  0  0  0  0  0  0  0  0
    1.3190    1.4598    1.4966 H   0  0  0  0  0  0  0  0  0  0  0  0
    1.6817   -0.0998    1.5562 H   0  0  0  0  0  0  0  0  0  0  0  0
   -2.4308   -1.4265   -2.9113 H   0  0  0  0  0  0  0  0  0  0  0  0
   -6.1498   -2.3907   -1.3940 H   0  0  0  0  0  0  0  0  0  0  0  0
   -6.8426   -1.5166    0.8116 H   0  0  0  0  0  0  0  0  0  0  0  0
   -6.3527   -0.1929    2.7960 H   0  0  0  0  0  0  0  0  0  0  0  0
   -4.2114    0.9278    2.9542 H   0  0  0  0  0  0  0  0  0  0  0  0
   -2.5851    0.7365    1.1729 H   0  0  0  0  0  0  0  0  0  0  0  0
  1  2  2  0  0  0  0
  2  3  1  0  0  0  0
  3  4  1  0  0  0  0
  3 28  1  0  0  0  0
  4  5  1  0  0  0  0
  4 15  1  1  0  0  0
  5  6  1  0  0  0  0
  5 29  1  0  0  0  0
  5 30  1  0  0  0  0
  6  7  1  0  0  0  0
  6 14  1  0  0  0  0
  6 31  1  6  0  0  0
  7  8  2  0  0  0  0
  8  9  1  0  0  0  0
  8 32  1  0  0  0  0
  9 10  2  0  0  0  0
  9 33  1  0  0  0  0
 10 11  1  0  0  0  0
 10 34  1  0  0  0  0
 11 12  2  0  0  0  0
 11 35  1  0  0  0  0
 12 13  1  0  0  0  0
 12  7  1  0  0  0  0
 14  4  1  0  0  0  0
 14 36  1  0  0  0  0
 14 37  1  0  0  0  0
 15 16  2  0  0  0  0
 15 17  1  0  0  0  0
 17 18  1  0  0  0  0
 17  2  1  0  0  0  0
 18 19  2  0  0  0  0
 19 20  1  0  0  0  0
 19 38  1  0  0  0  0
 20 21  2  0  0  0  0
 21 22  1  0  0  0  0
 21 39  1  0  0  0  0
 22 23  2  0  0  0  0
 23 24  1  0  0  0  0
 23 40  1  0  0  0  0
 24 25  2  0  0  0  0
 24 41  1  0  0  0  0
 25 26  1  0  0  0  0
 25 42  1  0  0  0  0
 26 27  2  0  0  0  0
 26 43  1  0  0  0  0
 27 18  1  0  0  0  0
 27 22  1  0  0  0  0
M  END
$$$$

 OpenBabel07292611443D

 66 71  0  0  0  0  0  0  0  0999 V2000
    5.7933   -3.4809   -0.3789 C   0  0  0  0  0  0  0  0  0  0  0  0
    5.1063   -2.5960   -1.3163 N   0  0  0  0  0  0  0  0  0  0  0  0
    4.2207   -1.6481   -0.7775 C   0  0  0  0  0  0  0  0  0  0  0  0
    4.0594   -1.6041    0.4867 O   0  0  0  0  0  0  0  0  0  0  0  0
    3.4458   -0.6735   -1.6231 C   0  0  0  0  0  0  0  0  0  0  0  0
    2.6622    0.1134   -0.6765 N   0  0  0  0  0  0  0  0  0  0  0  0
    1.3511   -0.3379   -0.3177 C   0  0  0  0  0  0  0  0  0  0  0  0
    0.4259    0.6973    0.2174 C   0  0  2  0  0  0  0  0  0  0  0  0
   -0.3925    0.0528    1.3071 C   0  0  0  0  0  0  0  0  0  0  0  0
   -0.1469    0.0967    2.5263 O   0  0  0  0  0  0  0  0  0  0  0  0
   -1.4804   -0.6022    0.6703 N   0  0  0  0  0  0  0  0  0  0  0  0
   -2.4291   -1.4871    1.2662 C   0  0  0  0  0  0  0  0  0  0  0  0
   -3.5856   -0.9520    1.7982 C   0  0  0  0  0  0  0  0  0  0  0  0
   -4.5302   -1.7479    2.3811 N   0  0  0  0  0  0  0  0  0  0  0  0
   -4.3214   -3.0949    2.4354 C   0  0  0  0  0  0  0  0  0  0  0  0
   -3.1823   -3.6611    1.9162 C   0  0  0  0  0  0  0  0  0  0  0  0
   -3.0041   -5.0290    1.9888 C   0  0  0  0  0  0  0  0  0  0  0  0
   -1.8299   -5.5621    1.4474 C   0  0  0  0  0  0  0  0  0  0  0  0
   -0.8855   -4.7420    0.8618 C   0  0  0  0  0  0  0  0  0  0  0  0
   -1.0608   -3.3670    0.7867 C   0  0  0  0  0  0  0  0  0  0  0  0
   -2.2227   -2.8599    1.3249 C   0  0  0  0  0  0  0  0  0  0  0  0
   -1.4959   -0.2284   -0.7454 C   0  0  0  0  0  0  0  0  0  0  0  0
   -0.7126    1.0571   -0.7309 C   0  0  2  0  0  0  0  0  0  0  0  0
   -0.2643    1.5146   -2.0720 C   0  0  0  0  0  0  0  0  0  0  0  0
   -1.4818    1.8141   -2.8417 N   0  0  0  0  0  0  0  0  0  0  0  0
   -2.3237    2.8294   -2.2815 C   0  0  0  0  0  0  0  0  0  0  0  0
   -2.1527    4.1765   -2.6157 C   0  0  0  0  0  0  0  0  0  0  0  0
   -2.9504    5.1371   -2.0847 N   0  0  0  0  0  0  0  0  0  0  0  0
   -3.9302    4.7895   -1.2158 C   0  0  0  0  0  0  0  0  0  0  0  0
   -4.1215    3.4677   -0.8681 C   0  0  0  0  0  0  0  0  0  0  0  0
   -3.3115    2.5632   -1.4173 N   0  0  0  0  0  0  0  0  0  0  0  0
    1.0842    1.9158    0.7336 C   0  0  0  0  0  0  0  0  0  0  0  0
    0.3098    2.8123    1.4323 C   0  0  0  0  0  0  0  0  0  0  0  0
    0.8812    3.9702    1.9367 C   0  0  0  0  0  0  0  0  0  0  0  0
   -0.0832    5.1400    2.8366 Cl  0  0  0  0  0  0  0  0  0  0  0  0
    2.2247    4.2672    1.7630 C   0  0  0  0  0  0  0  0  0  0  0  0
    3.0022    3.3641    1.0599 C   0  0  0  0  0  0  0  0  0  0  0  0
    2.4097    2.2151    0.5657 C   0  0  0  0  0  0  0  0  0  0  0  0
    3.2611    1.2874   -0.1700 C   0  0  0  0  0  0  0  0  0  0  0  0
    4.4832    1.5241   -0.3467 O   0  0  0  0  0  0  0  0  0  0  0  0
    6.4318   -4.1474   -0.9202 H   0  0  0  0  0  0  0  0  0  0  0  0
    5.0713   -4.0471    0.1716 H   0  0  0  0  0  0  0  0  0  0  0  0
    6.3801   -2.8964    0.2986 H   0  0  0  0  0  0  0  0  0  0  0  0
    5.2579   -2.6613   -2.2869 H   0  0  0  0  0  0  0  0  0  0  0  0
    2.8027   -1.1938   -2.3017 H   0  0  0  0  0  0  0  0  0  0  0  0
    4.0893   -0.0596   -2.2181 H   0  0  0  0  0  0  0  0  0  0  0  0
    1.4595   -1.0967    0.4288 H   0  0  0  0  0  0  0  0  0  0  0  0
    0.9052   -0.6785   -1.2288 H   0  0  0  0  0  0  0  0  0  0  0  0
   -3.7389    0.0676    1.7546 H   0  0  0  0  0  0  0  0  0  0  0  0
   -5.0325   -3.7001    2.8748 H   0  0  0  0  0  0  0  0  0  0  0  0
   -3.7133   -5.6369    2.4276 H   0  0  0  0  0  0  0  0  0  0  0  0
   -1.6672   -6.5805    1.4860 H   0  0  0  0  0  0  0  0  0  0  0  0
   -0.0280   -5.1619    0.4702 H   0  0  0  0  0  0  0  0  0  0  0  0
   -0.3549   -2.7546    0.3489 H   0  0  0  0  0  0  0  0  0  0  0  0
   -2.4945   -0.0726   -1.0966 H   0  0  0  0  0  0  0  0  0  0  0  0
   -1.0919   -0.9756   -1.3961 H   0  0  0  0  0  0  0  0  0  0  0  0
   -1.2849    1.9048   -0.4165 H   0  0  0  0  0  0  0  0  0  0  0  0
    0.2985    0.7440   -2.5561 H   0  0  0  0  0  0  0  0  0  0  0  0
    0.3659    2.3759   -1.9955 H   0  0  0  0  0  0  0  0  0  0  0  0
   -1.7023    1.3502   -3.6816 H   0  0  0  0  0  0  0  0  0  0  0  0
   -1.4073    4.4445   -3.2773 H   0  0  0  0  0  0  0  0  0  0  0  0
   -4.5380    5.5187   -0.8109 H   0  0  0  0  0  0  0  0  0  0  0  0
   -4.8641    3.1901   -0.2074 H   0  0  0  0  0  0  0  0  0  0  0  0
   -0.6939    2.6235    1.5807 H   0  0  0  0  0  0  0  0  0  0  0  0
    2.6318    5.1347    2.1462 H   0  0  0  0  0  0  0  0  0  0  0  0
    4.0067    3.5442    0.9066 H   0  0  0  0  0  0  0  0  0  0  0  0
  1  2  1  0  0  0  0
  1 41  1  0  0  0  0
  1 42  1  0  0  0  0
  1 43  1  0  0  0  0
  2  3  1  0  0  0  0
  2 44  1  0  0  0  0
  3  4  2  0  0  0  0
  3  5  1  0  0  0  0
  5  6  1  0  0  0  0
  5 45  1  0  0  0  0
  5 46  1  0  0  0  0
  6  7  1  0  0  0  0
  7 47  1  0  0  0  0
  7 48  1  0  0  0  0
  8  7  1  0  0  0  0
  8  9  1  1  0  0  0
  8 32  1  0  0  0  0
  9 10  2  0  0  0  0
  9 11  1  0  0  0  0
 11 12  1  0  0  0  0
 11 22  1  0  0  0  0
 12 13  2  0  0  0  0
 13 14  1  0  0  0  0
 13 49  1  0  0  0  0
 14 15  2  0  0  0  0
 15 16  1  0  0  0  0
 15 50  1  0  0  0  0
 16 17  2  0  0  0  0
 17 18  1  0  0  0  0
 17 51  1  0  0  0  0
 18 19  2  0  0  0  0
 18 52  1  0  0  0  0
 19 20  1  0  0  0  0
 19 53  1  0  0  0  0
 20 21  2  0  0  0  0
 20 54  1  0  0  0  0
 21 12  1  0  0  0  0
 21 16  1  0  0  0  0
 22 23  1  0  0  0  0
 22 55  1  0  0  0  0
 22 56  1  0  0  0  0
 23 24  1  0  0  0  0
 23  8  1  0  0  0  0
 23 57  1  1  0  0  0
 24 25  1  0  0  0  0
 24 58  1  0  0  0  0
 24 59  1  0  0  0  0
 25 26  1  0  0  0  0
 25 60  1  0  0  0  0
 26 27  2  0  0  0  0
 27 28  1  0  0  0  0
 27 61  1  0  0  0  0
 28 29  2  0  0  0  0
 29 30  1  0  0  0  0
 29 62  1  0  0  0  0
 30 31  2  0  0  0  0
 30 63  1  0  0  0  0
 31 26  1  0  0  0  0
 32 33  2  0  0  0  0
 33 34  1  0  0  0  0
 33 64  1  0  0  0  0
 34 35  1  0  0  0  0
 34 36  2  0  0  0  0
 36 37  1  0  0  0  0
 36 65  1  0  0  0  0
 37 38  2  0  0  0  0
 37 66  1  0  0  0  0
 38 39  1  0  0  0  0
 38 32  1  0  0  0  0
 39 40  2  0  0  0  0
 39  6  1  0  0  0  0
M  END
$$$$

 OpenBabel07292611443D

 66 71  0  0  0  0  0  0  0  0999 V2000
    0.3544    0.9867   -1.7960 C   0  0  0  0  0  0  0  0  0  0  0  0
    0.8866   -0.3866   -1.3976 C   0  0  1  0  0  0  0  0  0  0  0  0
    2.3656   -0.3437   -1.6186 C   0  0  0  0  0  0  0  0  0  0  0  0
    2.9698   -0.3774   -0.3140 N   0  0  0  0  0  0  0  0  0  0  0  0
    4.3685   -0.3470   -0.0623 C   0  0  0  0  0  0  0  0  0  0  0  0
    5.1508   -1.4779    0.0311 C   0  0  0  0  0  0  0  0  0  0  0  0
    6.4696   -1.4384    0.2688 N   0  0  0  0  0  0  0  0  0  0  0  0
    7.0973   -0.2802    0.4289 C   0  0  0  0  0  0  0  0  0  0  0  0
    6.3652    0.8938    0.3463 C   0  0  0  0  0  0  0  0  0  0  0  0
    7.0624    2.0680    0.5196 C   0  0  0  0  0  0  0  0  0  0  0  0
    6.3813    3.2675    0.4472 C   0  0  0  0  0  0  0  0  0  0  0  0
    5.0265    3.2624    0.2044 C   0  0  0  0  0  0  0  0  0  0  0  0
    4.3229    2.0750    0.0295 C   0  0  0  0  0  0  0  0  0  0  0  0
    5.0038    0.8711    0.1017 C   0  0  0  0  0  0  0  0  0  0  0  0
    1.9545   -0.4425    0.6739 C   0  0  0  0  0  0  0  0  0  0  0  0
    2.1072   -0.2789    1.9185 O   0  0  0  0  0  0  0  0  0  0  0  0
    0.6253   -0.7416    0.0291 C   0  0  1  0  0  0  0  0  0  0  0  0
   -0.3951    0.0877    0.7242 C   0  0  0  0  0  0  0  0  0  0  0  0
   -1.6452   -0.5425    1.0100 N   0  0  0  0  0  0  0  0  0  0  0  0
   -2.8505    0.2596    1.1925 C   0  0  0  0  0  0  0  0  0  0  0  0
   -3.5088    0.4185   -0.1260 C   0  0  0  0  0  0  0  0  0  0  0  0
   -4.7164    1.1863   -0.1173 N   0  3  0  0  0  0  0  0  0  0  0  0
   -5.6467    0.6683   -1.1120 C   0  0  0  0  0  0  0  0  0  0  0  0
   -6.7226    1.7325   -1.2359 C   0  0  0  0  0  0  0  0  0  0  0  0
   -7.3949    1.7730   -0.0125 O   0  0  0  0  0  0  0  0  0  0  0  0
   -6.5516    2.1686    1.0038 C   0  0  0  0  0  0  0  0  0  0  0  0
   -5.4151    1.1721    1.1460 C   0  0  0  0  0  0  0  0  0  0  0  0
   -1.8187   -1.9587    1.1419 C   0  0  0  0  0  0  0  0  0  0  0  0
   -2.8732   -2.4630    1.6159 O   0  0  0  0  0  0  0  0  0  0  0  0
   -0.7026   -2.7844    0.6953 C   0  0  0  0  0  0  0  0  0  0  0  0
   -0.8593   -4.1587    0.8254 C   0  0  0  0  0  0  0  0  0  0  0  0
    0.1486   -5.0139    0.4338 C   0  0  0  0  0  0  0  0  0  0  0  0
    1.2953   -4.4491   -0.0825 C   0  0  0  0  0  0  0  0  0  0  0  0
    2.5788   -5.5365   -0.5811 Cl  0  0  0  0  0  0  0  0  0  0  0  0
    1.4448   -3.0631   -0.2102 C   0  0  0  0  0  0  0  0  0  0  0  0
    0.4374   -2.2084    0.1811 C   0  0  0  0  0  0  0  0  0  0  0  0
    0.5775    1.1706   -2.8262 H   0  0  0  0  0  0  0  0  0  0  0  0
    0.8177    1.7380   -1.1911 H   0  0  0  0  0  0  0  0  0  0  0  0
   -0.7052    1.0147   -1.6500 H   0  0  0  0  0  0  0  0  0  0  0  0
    0.3873   -1.1288   -1.9847 H   0  0  0  0  0  0  0  0  0  0  0  0
    2.6379    0.5560   -2.1299 H   0  0  0  0  0  0  0  0  0  0  0  0
    2.6929   -1.1658   -2.2201 H   0  0  0  0  0  0  0  0  0  0  0  0
    4.7000   -2.3986   -0.0876 H   0  0  0  0  0  0  0  0  0  0  0  0
    8.1126   -0.2541    0.6117 H   0  0  0  0  0  0  0  0  0  0  0  0
    8.0782    2.0524    0.7008 H   0  0  0  0  0  0  0  0  0  0  0  0
    6.8839    4.1599    0.5741 H   0  0  0  0  0  0  0  0  0  0  0  0
    4.5208    4.1604    0.1508 H   0  0  0  0  0  0  0  0  0  0  0  0
    3.3070    2.0911   -0.1516 H   0  0  0  0  0  0  0  0  0  0  0  0
   -0.5945    0.9402    0.1090 H   0  0  0  0  0  0  0  0  0  0  0  0
    0.0302    0.3166    1.6790 H   0  0  0  0  0  0  0  0  0  0  0  0
   -2.5896    1.2204    1.5846 H   0  0  0  0  0  0  0  0  0  0  0  0
   -3.5137   -0.2232    1.8795 H   0  0  0  0  0  0  0  0  0  0  0  0
   -3.7399   -0.5570   -0.5000 H   0  0  0  0  0  0  0  0  0  0  0  0
   -2.8182    0.9596   -0.7386 H   0  0  0  0  0  0  0  0  0  0  0  0
   -4.4211    2.1424   -0.3148 H   0  0  0  0  0  0  0  0  0  0  0  0
   -6.0701   -0.2581   -0.7844 H   0  0  0  0  0  0  0  0  0  0  0  0
   -5.1662    0.4718   -2.0477 H   0  0  0  0  0  0  0  0  0  0  0  0
   -7.4030    1.4783   -2.0216 H   0  0  0  0  0  0  0  0  0  0  0  0
   -6.2946    2.6849   -1.4698 H   0  0  0  0  0  0  0  0  0  0  0  0
   -7.0994    2.2161    1.9217 H   0  0  0  0  0  0  0  0  0  0  0  0
   -6.1492    3.1330    0.7738 H   0  0  0  0  0  0  0  0  0  0  0  0
   -5.8003    0.1944    1.3473 H   0  0  0  0  0  0  0  0  0  0  0  0
   -4.7661    1.4293    1.9569 H   0  0  0  0  0  0  0  0  0  0  0  0
   -1.7342   -4.5411    1.2170 H   0  0  0  0  0  0  0  0  0  0  0  0
    0.0486   -6.0371    0.5237 H   0  0  0  0  0  0  0  0  0  0  0  0
    2.3185   -2.6775   -0.6014 H   0  0  0  0  0  0  0  0  0  0  0  0
  1 37  1  0  0  0  0
  1 38  1  0  0  0  0
  1 39  1  0  0  0  0
  2  1  1  0  0  0  0
  2  3  1  0  0  0  0
  2 40  1  6  0  0  0
  3  4  1  0  0  0  0
  3 41  1  0  0  0  0
  3 42  1  0  0  0  0
  4  5  1  0  0  0  0
  4 15  1  0  0  0  0
  5  6  2  0  0  0  0
  6  7  1  0  0  0  0
  6 43  1  0  0  0  0
  7  8  2  0  0  0  0
  8  9  1  0  0  0  0
  8 44  1  0  0  0  0
  9 10  2  0  0  0  0
 10 11  1  0  0  0  0
 10 45  1  0  0  0  0
 11 12  2  0  0  0  0
 11 46  1  0  0  0  0
 12 13  1  0  0  0  0
 12 47  1  0  0  0  0
 13 14  2  0  0  0  0
 13 48  1  0  0  0  0
 14  5  1  0  0  0  0
 14  9  1  0  0  0  0
 15 16  2  0  0  0  0
 17 15  1  1  0  0  0
 17 18  1  0  0  0  0
 17  2  1  0  0  0  0
 18 19  1  0  0  0  0
 18 49  1  0  0  0  0
 18 50  1  0  0  0  0
 19 20  1  0  0  0  0
 19 28  1  0  0  0  0
 20 21  1  0  0  0  0
 20 51  1  0  0  0  0
 20 52  1  0  0  0  0
 21 22  1  0  0  0  0
 21 53  1  0  0  0  0
 21 54  1  0  0  0  0
 22 23  1  0  0  0  0
 22 55  1  0  0  0  0
 23 24  1  0  0  0  0
 23 56  1  0  0  0  0
 23 57  1  0  0  0  0
 24 25  1  0  0  0  0
 24 58  1  0  0  0  0
 24 59  1  0  0  0  0
 25 26  1  0  0  0  0
 26 27  1  0  0  0  0
 26 60  1  0  0  0  0
 26 61  1  0  0  0  0
 27 22  1  0  0  0  0
 27 62  1  0  0  0  0
 27 63  1  0  0  0  0
 28 29  2  0  0  0  0
 28 30  1  0  0  0  0
 30 31  2  0  0  0  0
 31 32  1  0  0  0  0
 31 64  1  0  0  0  0
 32 33  2  0  0  0  0
 32 65  1  0  0  0  0
 33 34  1  0  0  0  0
 33 35  1  0  0  0  0
 35 36  2  0  0  0  0
 35 66  1  0  0  0  0
 36 30  1  0  0  0  0
 36 17  1  0  0  0  0
M  CHG  1  22   1
M  END
$$$$

 OpenBabel07292611443D

 55 60  0  0  0  0  0  0  0  0999 V2000
   -0.2847    1.4743   -3.0495 C   0  0  0  0  0  0  0  0  0  0  0  0
   -0.3822    1.9232   -1.5949 C   0  0  1  0  0  0  0  0  0  0  0  0
   -1.6936    1.3896   -1.0855 C   0  0  0  0  0  0  0  0  0  0  0  0
   -1.3164    0.0859   -0.5704 N   0  0  0  0  0  0  0  0  0  0  0  0
   -1.9965   -1.1507   -0.6227 C   0  0  0  0  0  0  0  0  0  0  0  0
   -1.8502   -2.0685   -1.6419 C   0  0  0  0  0  0  0  0  0  0  0  0
   -2.5449   -3.2230   -1.6007 N   0  0  0  0  0  0  0  0  0  0  0  0
   -3.3861   -3.5102   -0.5838 C   0  0  0  0  0  0  0  0  0  0  0  0
   -3.5743   -2.6345    0.4620 C   0  0  0  0  0  0  0  0  0  0  0  0
   -4.4405   -2.9230    1.5153 C   0  0  0  0  0  0  0  0  0  0  0  0
   -4.6009   -2.0204    2.5425 C   0  0  0  0  0  0  0  0  0  0  0  0
   -3.9064   -0.8297    2.5330 C   0  0  0  0  0  0  0  0  0  0  0  0
   -3.0494   -0.5621    1.4753 C   0  0  0  0  0  0  0  0  0  0  0  0
   -2.8638   -1.4405    0.4313 C   0  0  0  0  0  0  0  0  0  0  0  0
   -0.0481    0.2868    0.0429 C   0  0  0  0  0  0  0  0  0  0  0  0
    0.3991   -0.2817    1.0855 O   0  0  0  0  0  0  0  0  0  0  0  0
    0.7139    1.3120   -0.7573 C   0  0  1  0  0  0  0  0  0  0  0  0
    1.6846    0.5252   -1.5871 C   0  0  0  0  0  0  0  0  0  0  0  0
    2.8536    0.1853   -0.8125 N   0  0  0  0  0  0  0  0  0  0  0  0
    3.4608   -1.1483   -0.8707 C   0  0  0  0  0  0  0  0  0  0  0  0
    2.9193   -2.0838    0.1232 C   0  0  0  0  0  0  0  0  0  0  0  0
    1.8372   -2.9601   -0.0255 C   0  0  0  0  0  0  0  0  0  0  0  0
    1.7104   -3.6044    1.1212 O   0  0  0  0  0  0  0  0  0  0  0  0
    2.6245   -3.1948    1.9572 C   0  0  0  0  0  0  0  0  0  0  0  0
    3.4001   -2.2523    1.3881 N   0  0  0  0  0  0  0  0  0  0  0  0
    3.4984    1.1328    0.0500 C   0  0  0  0  0  0  0  0  0  0  0  0
    4.7020    1.0242    0.3890 O   0  0  0  0  0  0  0  0  0  0  0  0
    2.6878    2.2377    0.5203 C   0  0  0  0  0  0  0  0  0  0  0  0
    3.2666    3.1760    1.3428 C   0  0  0  0  0  0  0  0  0  0  0  0
    2.5223    4.2435    1.7994 C   0  0  0  0  0  0  0  0  0  0  0  0
    1.2037    4.3291    1.4062 C   0  0  0  0  0  0  0  0  0  0  0  0
    0.4702    5.3852    1.8589 F   0  0  0  0  0  0  0  0  0  0  0  0
    0.6377    3.3775    0.5795 C   0  0  0  0  0  0  0  0  0  0  0  0
    1.3761    2.2854    0.1046 C   0  0  0  0  0  0  0  0  0  0  0  0
   -1.0738    1.9240   -3.6152 H   0  0  0  0  0  0  0  0  0  0  0  0
   -0.3714    0.4090   -3.1006 H   0  0  0  0  0  0  0  0  0  0  0  0
    0.6596    1.7750   -3.4530 H   0  0  0  0  0  0  0  0  0  0  0  0
   -0.3002    2.9883   -1.5344 H   0  0  0  0  0  0  0  0  0  0  0  0
   -2.4097    1.3019   -1.8757 H   0  0  0  0  0  0  0  0  0  0  0  0
   -2.1595    2.0202   -0.3574 H   0  0  0  0  0  0  0  0  0  0  0  0
   -1.2136   -1.8728   -2.4302 H   0  0  0  0  0  0  0  0  0  0  0  0
   -3.8991   -4.4057   -0.5908 H   0  0  0  0  0  0  0  0  0  0  0  0
   -4.9618   -3.8136    1.5252 H   0  0  0  0  0  0  0  0  0  0  0  0
   -5.2426   -2.2358    3.3215 H   0  0  0  0  0  0  0  0  0  0  0  0
   -4.0220   -0.1488    3.2998 H   0  0  0  0  0  0  0  0  0  0  0  0
   -2.5308    0.3301    1.4708 H   0  0  0  0  0  0  0  0  0  0  0  0
    1.9805    1.1108   -2.4323 H   0  0  0  0  0  0  0  0  0  0  0  0
    1.2101   -0.3775   -1.9110 H   0  0  0  0  0  0  0  0  0  0  0  0
    4.5130   -1.0487   -0.7037 H   0  0  0  0  0  0  0  0  0  0  0  0
    3.2389   -1.5526   -1.8362 H   0  0  0  0  0  0  0  0  0  0  0  0
    1.2523   -3.0795   -0.8673 H   0  0  0  0  0  0  0  0  0  0  0  0
    2.7376   -3.5447    2.9215 H   0  0  0  0  0  0  0  0  0  0  0  0
    4.2567    3.0813    1.6179 H   0  0  0  0  0  0  0  0  0  0  0  0
    2.9400    4.9570    2.4170 H   0  0  0  0  0  0  0  0  0  0  0  0
   -0.3526    3.4734    0.3053 H   0  0  0  0  0  0  0  0  0  0  0  0
  1 35  1  0  0  0  0
  1 36  1  0  0  0  0
  1 37  1  0  0  0  0
  2  1  1  0  0  0  0
  2  3  1  0  0  0  0
  2 38  1  1  0  0  0
  3  4  1  0  0  0  0
  3 39  1  0  0  0  0
  3 40  1  0  0  0  0
  4  5  1  0  0  0  0
  4 15  1  0  0  0  0
  5  6  2  0  0  0  0
  6  7  1  0  0  0  0
  6 41  1  0  0  0  0
  7  8  2  0  0  0  0
  8  9  1  0  0  0  0
  8 42  1  0  0  0  0
  9 10  2  0  0  0  0
 10 11  1  0  0  0  0
 10 43  1  0  0  0  0
 11 12  2  0  0  0  0
 11 44  1  0  0  0  0
 12 13  1  0  0  0  0
 12 45  1  0  0  0  0
 13 14  2  0  0  0  0
 13 46  1  0  0  0  0
 14  5  1  0  0  0  0
 14  9  1  0  0  0  0
 15 16  2  0  0  0  0
 17 15  1  1  0  0  0
 17 18  1  0  0  0  0
 17  2  1  0  0  0  0
 18 19  1  0  0  0  0
 18 47  1  0  0  0  0
 18 48  1  0  0  0  0
 19 20  1  0  0  0  0
 19 26  1  0  0  0  0
 20 21  1  0  0  0  0
 20 49  1  0  0  0  0
 20 50  1  0  0  0  0
 21 22  2  0  0  0  0
 22 23  1  0  0  0  0
 22 51  1  0  0  0  0
 23 24  1  0  0  0  0
 24 25  2  0  0  0  0
 24 52  1  0  0  0  0
 25 21  1  0  0  0  0
 26 27  2  0  0  0  0
 26 28  1  0  0  0  0
 28 29  2  0  0  0  0
 29 30  1  0  0  0  0
 29 53  1  0  0  0  0
 30 31  2  0  0  0  0
 30 54  1  0  0  0  0
 31 32  1  0  0  0  0
 31 33  1  0  0  0  0
 33 34  2  0  0  0  0
 33 55  1  0  0  0  0
 34 28  1  0  0  0  0
 34 17  1  0  0  0  0
M  END
$$$$

 OpenBabel07292611443D

 56 60  0  0  0  0  0  0  0  0999 V2000
   -5.0321    1.6022   -1.6298 C   0  0  0  0  0  0  0  0  0  0  0  0
   -4.2794    0.8343   -0.6472 N   0  0  0  0  0  0  0  0  0  0  0  0
   -4.6371    0.8564    0.7127 C   0  0  0  0  0  0  0  0  0  0  0  0
   -5.6400    1.5706    1.0477 O   0  0  0  0  0  0  0  0  0  0  0  0
   -3.9571    0.1243    1.7945 C   0  0  0  0  0  0  0  0  0  0  0  0
   -2.8382   -0.6091    1.2292 N   0  0  0  0  0  0  0  0  0  0  0  0
   -1.5437   -0.0265    1.2234 C   0  0  0  0  0  0  0  0  0  0  0  0
   -0.5834   -0.5133    0.1635 C   0  0  2  0  0  0  0  0  0  0  0  0
    0.8173   -0.4589    0.6823 C   0  0  0  0  0  0  0  0  0  0  0  0
    1.1364   -0.7309    1.8705 O   0  0  0  0  0  0  0  0  0  0  0  0
    1.6808   -0.0619   -0.3652 N   0  0  0  0  0  0  0  0  0  0  0  0
    3.1050   -0.0931   -0.3314 C   0  0  0  0  0  0  0  0  0  0  0  0
    3.8572   -1.1693   -0.7296 C   0  0  0  0  0  0  0  0  0  0  0  0
    5.2122   -1.1703   -0.6860 N   0  0  0  0  0  0  0  0  0  0  0  0
    5.9119   -0.1116   -0.2474 C   0  0  0  0  0  0  0  0  0  0  0  0
    5.2144    1.0029    0.1677 C   0  0  0  0  0  0  0  0  0  0  0  0
    5.9301    2.0939    0.6198 C   0  0  0  0  0  0  0  0  0  0  0  0
    5.2798    3.2345    1.0469 C   0  0  0  0  0  0  0  0  0  0  0  0
    3.8925    3.2720    1.0166 C   0  0  0  0  0  0  0  0  0  0  0  0
    3.2107    2.1646    0.5592 C   0  0  0  0  0  0  0  0  0  0  0  0
    3.8307    1.0139    0.1270 C   0  0  0  0  0  0  0  0  0  0  0  0
    0.8907    0.3914   -1.4772 C   0  0  0  0  0  0  0  0  0  0  0  0
   -0.5270    0.4275   -1.0050 C   0  0  2  0  0  0  0  0  0  0  0  0
   -0.8142    1.8723   -0.6257 C   0  0  0  0  0  0  0  0  0  0  0  0
   -0.8594   -1.8959   -0.2919 C   0  0  0  0  0  0  0  0  0  0  0  0
    0.0729   -2.6227   -1.0026 C   0  0  0  0  0  0  0  0  0  0  0  0
   -0.1814   -3.9229   -1.4523 C   0  0  0  0  0  0  0  0  0  0  0  0
    1.0288   -4.8141   -2.3535 Cl  0  0  0  0  0  0  0  0  0  0  0  0
   -1.3833   -4.5436   -1.2042 C   0  0  0  0  0  0  0  0  0  0  0  0
   -2.3219   -3.8292   -0.4943 C   0  0  0  0  0  0  0  0  0  0  0  0
   -2.0671   -2.5482   -0.0525 C   0  0  0  0  0  0  0  0  0  0  0  0
   -3.1358   -1.9192    0.7357 C   0  0  0  0  0  0  0  0  0  0  0  0
   -4.2354   -2.4924    0.9609 O   0  0  0  0  0  0  0  0  0  0  0  0
   -4.6064    1.4543   -2.6002 H   0  0  0  0  0  0  0  0  0  0  0  0
   -4.9919    2.6412   -1.3773 H   0  0  0  0  0  0  0  0  0  0  0  0
   -6.0509    1.2752   -1.6336 H   0  0  0  0  0  0  0  0  0  0  0  0
   -3.5105    0.2930   -0.9388 H   0  0  0  0  0  0  0  0  0  0  0  0
   -4.6414   -0.5594    2.2520 H   0  0  0  0  0  0  0  0  0  0  0  0
   -3.6053    0.8120    2.5349 H   0  0  0  0  0  0  0  0  0  0  0  0
   -1.0979   -0.2183    2.1770 H   0  0  0  0  0  0  0  0  0  0  0  0
   -1.7030    1.0085    1.0035 H   0  0  0  0  0  0  0  0  0  0  0  0
    3.3721   -2.0117   -1.0762 H   0  0  0  0  0  0  0  0  0  0  0  0
    6.9434   -0.1315   -0.2217 H   0  0  0  0  0  0  0  0  0  0  0  0
    6.9612    2.0563    0.6386 H   0  0  0  0  0  0  0  0  0  0  0  0
    5.8178    4.0481    1.3841 H   0  0  0  0  0  0  0  0  0  0  0  0
    3.3817    4.1121    1.3302 H   0  0  0  0  0  0  0  0  0  0  0  0
    2.1795    2.2001    0.5397 H   0  0  0  0  0  0  0  0  0  0  0  0
    0.9889   -0.2851   -2.3003 H   0  0  0  0  0  0  0  0  0  0  0  0
    1.2114    1.3559   -1.8116 H   0  0  0  0  0  0  0  0  0  0  0  0
   -1.2579    0.1249   -1.7255 H   0  0  0  0  0  0  0  0  0  0  0  0
   -0.0958    2.2012    0.0958 H   0  0  0  0  0  0  0  0  0  0  0  0
   -1.7969    1.9429   -0.2083 H   0  0  0  0  0  0  0  0  0  0  0  0
   -0.7520    2.4891   -1.4978 H   0  0  0  0  0  0  0  0  0  0  0  0
    0.9882   -2.1933   -1.2095 H   0  0  0  0  0  0  0  0  0  0  0  0
   -1.5732   -5.5024   -1.5355 H   0  0  0  0  0  0  0  0  0  0  0  0
   -3.2359   -4.2618   -0.2884 H   0  0  0  0  0  0  0  0  0  0  0  0
  1  2  1  0  0  0  0
  1 34  1  0  0  0  0
  1 35  1  0  0  0  0
  1 36  1  0  0  0  0
  2  3  1  0  0  0  0
  2 37  1  0  0  0  0
  3  4  2  0  0  0  0
  3  5  1  0  0  0  0
  5  6  1  0  0  0  0
  5 38  1  0  0  0  0
  5 39  1  0  0  0  0
  6  7  1  0  0  0  0
  7 40  1  0  0  0  0
  7 41  1  0  0  0  0
  8  7  1  0  0  0  0
  8  9  1  1  0  0  0
  8 25  1  0  0  0  0
  9 10  2  0  0  0  0
  9 11  1  0  0  0  0
 11 12  1  0  0  0  0
 11 22  1  0  0  0  0
 12 13  2  0  0  0  0
 13 14  1  0  0  0  0
 13 42  1  0  0  0  0
 14 15  2  0  0  0  0
 15 16  1  0  0  0  0
 15 43  1  0  0  0  0
 16 17  2  0  0  0  0
 17 18  1  0  0  0  0
 17 44  1  0  0  0  0
 18 19  2  0  0  0  0
 18 45  1  0  0  0  0
 19 20  1  0  0  0  0
 19 46  1  0  0  0  0
 20 21  2  0  0  0  0
 20 47  1  0  0  0  0
 21 12  1  0  0  0  0
 21 16  1  0  0  0  0
 22 23  1  0  0  0  0
 22 48  1  0  0  0  0
 22 49  1  0  0  0  0
 23 24  1  0  0  0  0
 23  8  1  0  0  0  0
 23 50  1  6  0  0  0
 24 51  1  0  0  0  0
 24 52  1  0  0  0  0
 24 53  1  0  0  0  0
 25 26  2  0  0  0  0
 26 27  1  0  0  0  0
 26 54  1  0  0  0  0
 27 28  1  0  0  0  0
 27 29  2  0  0  0  0
 29 30  1  0  0  0  0
 29 55  1  0  0  0  0
 30 31  2  0  0  0  0
 30 56  1  0  0  0  0
 31 32  1  0  0  0  0
 31 25  1  0  0  0  0
 32 33  2  0  0  0  0
 32  6  1  0  0  0  0
M  END
$$$$

 OpenBabel07292611443D

 45 49  0  0  0  0  0  0  0  0999 V2000
    0.6637    2.5850    1.5451 C   0  0  0  0  0  0  0  0  0  0  0  0
    0.2050    1.3823    0.8946 N   0  0  0  0  0  0  0  0  0  0  0  0
   -0.9796    0.6601    1.2796 C   0  0  0  0  0  0  0  0  0  0  0  0
   -1.6028    0.8582    2.3713 O   0  0  0  0  0  0  0  0  0  0  0  0
   -1.3060   -0.2778    0.2495 N   0  0  0  0  0  0  0  0  0  0  0  0
   -2.4255   -1.1545    0.3147 C   0  0  0  0  0  0  0  0  0  0  0  0
   -2.3260   -2.4215    0.8803 C   0  0  0  0  0  0  0  0  0  0  0  0
   -3.4213   -3.2306    0.9235 N   0  0  0  0  0  0  0  0  0  0  0  0
   -4.6040   -2.7992    0.4157 C   0  0  0  0  0  0  0  0  0  0  0  0
   -4.7184   -1.5466   -0.1479 C   0  0  0  0  0  0  0  0  0  0  0  0
   -5.9191   -1.0826   -0.6746 C   0  0  0  0  0  0  0  0  0  0  0  0
   -5.9983    0.1799   -1.2328 C   0  0  0  0  0  0  0  0  0  0  0  0
   -4.9075    1.0327   -1.2958 C   0  0  0  0  0  0  0  0  0  0  0  0
   -3.7212    0.5454   -0.7632 C   0  0  0  0  0  0  0  0  0  0  0  0
   -3.6239   -0.7088   -0.2035 C   0  0  0  0  0  0  0  0  0  0  0  0
   -0.3252   -0.1362   -0.7713 C   0  0  0  0  0  0  0  0  0  0  0  0
   -0.4471   -0.6342   -1.9140 O   0  0  0  0  0  0  0  0  0  0  0  0
    0.7589    0.6627   -0.2014 C   0  0  0  0  0  0  0  0  0  0  0  0
    2.0510   -0.0866    0.0637 C   0  0  0  0  0  0  0  0  0  0  0  0
    2.6720    0.4751   -1.1062 N   0  0  0  0  0  0  0  0  0  0  0  0
    4.2236    1.1475   -0.9364 S   0  0  0  0  0  0  0  0  0  0  0  0
    4.6226    1.7524   -2.2697 O   0  0  0  0  0  0  0  0  0  0  0  0
    4.1092    2.2798    0.0730 O   0  0  0  0  0  0  0  0  0  0  0  0
    5.4770    0.0300   -0.4243 C   0  0  0  0  0  0  0  0  0  0  0  0
    5.5895   -1.3163   -1.1168 C   0  0  0  0  0  0  0  0  0  0  0  0
    5.1670   -1.2033    0.3070 C   0  0  0  0  0  0  0  0  0  0  0  0
    1.5919    1.4394   -1.1956 C   0  0  0  0  0  0  0  0  0  0  0  0
   -0.0076    2.8396    2.3385 H   0  0  0  0  0  0  0  0  0  0  0  0
    0.6960    3.3846    0.8348 H   0  0  0  0  0  0  0  0  0  0  0  0
    1.6430    2.4231    1.9447 H   0  0  0  0  0  0  0  0  0  0  0  0
   -1.4259   -2.7474    1.2658 H   0  0  0  0  0  0  0  0  0  0  0  0
   -5.4292   -3.4179    0.4522 H   0  0  0  0  0  0  0  0  0  0  0  0
   -6.7568   -1.6848   -0.6486 H   0  0  0  0  0  0  0  0  0  0  0  0
   -6.9019    0.4986   -1.6162 H   0  0  0  0  0  0  0  0  0  0  0  0
   -4.9730    1.9740   -1.7137 H   0  0  0  0  0  0  0  0  0  0  0  0
   -2.8818    1.1453   -0.7878 H   0  0  0  0  0  0  0  0  0  0  0  0
    1.9461   -1.1508    0.0254 H   0  0  0  0  0  0  0  0  0  0  0  0
    2.5320    0.0157    1.0140 H   0  0  0  0  0  0  0  0  0  0  0  0
    6.1247    0.8603   -0.2346 H   0  0  0  0  0  0  0  0  0  0  0  0
    6.5503   -1.7170   -1.3641 H   0  0  0  0  0  0  0  0  0  0  0  0
    5.1841   -1.7578   -2.0032 H   0  0  0  0  0  0  0  0  0  0  0  0
    5.8231   -1.5387    1.0829 H   0  0  0  0  0  0  0  0  0  0  0  0
    4.3209   -1.5480    0.8639 H   0  0  0  0  0  0  0  0  0  0  0  0
    1.1517    1.5040   -2.1687 H   0  0  0  0  0  0  0  0  0  0  0  0
    1.7937    2.4753   -1.0194 H   0  0  0  0  0  0  0  0  0  0  0  0
  1  2  1  0  0  0  0
  1 28  1  0  0  0  0
  1 29  1  0  0  0  0
  1 30  1  0  0  0  0
  2  3  1  0  0  0  0
  3  4  2  0  0  0  0
  3  5  1  0  0  0  0
  5  6  1  0  0  0  0
  5 16  1  0  0  0  0
  6  7  2  0  0  0  0
  7  8  1  0  0  0  0
  7 31  1  0  0  0  0
  8  9  2  0  0  0  0
  9 10  1  0  0  0  0
  9 32  1  0  0  0  0
 10 11  2  0  0  0  0
 11 12  1  0  0  0  0
 11 33  1  0  0  0  0
 12 13  2  0  0  0  0
 12 34  1  0  0  0  0
 13 14  1  0  0  0  0
 13 35  1  0  0  0  0
 14 15  2  0  0  0  0
 14 36  1  0  0  0  0
 15  6  1  0  0  0  0
 15 10  1  0  0  0  0
 16 17  2  0  0  0  0
 16 18  1  0  0  0  0
 18 19  1  0  0  0  0
 18  2  1  0  0  0  0
 19 20  1  0  0  0  0
 19 37  1  0  0  0  0
 19 38  1  0  0  0  0
 20 21  1  0  0  0  0
 20 27  1  0  0  0  0
 21 22  2  0  0  0  0
 21 23  2  0  0  0  0
 21 24  1  0  0  0  0
 24 25  1  0  0  0  0
 24 39  1  0  0  0  0
 25 26  1  0  0  0  0
 25 40  1  0  0  0  0
 25 41  1  0  0  0  0
 26 24  1  0  0  0  0
 26 42  1  0  0  0  0
 26 43  1  0  0  0  0
 27 18  1  0  0  0  0
 27 44  1  0  0  0  0
 27 45  1  0  0  0  0
M  END
$$$$

 OpenBabel07292611443D

 60 65  0  0  0  0  0  0  0  0999 V2000
    5.7437    2.8159    2.2170 C   0  0  0  0  0  0  0  0  0  0  0  0
    4.6395    2.7397    1.2588 N   0  0  0  0  0  0  0  0  0  0  0  0
    4.1128    1.4699    0.8974 C   0  0  0  0  0  0  0  0  0  0  0  0
    4.6298    0.4652    1.4262 O   0  0  0  0  0  0  0  0  0  0  0  0
    2.9781    1.3632   -0.0848 C   0  0  0  0  0  0  0  0  0  0  0  0
    2.2756    0.0960   -0.1132 N   0  0  0  0  0  0  0  0  0  0  0  0
    0.8916    0.0631    0.2624 C   0  0  0  0  0  0  0  0  0  0  0  0
    0.1417   -1.1848   -0.0048 C   0  0  2  0  0  0  0  0  0  0  0  0
   -0.9378   -0.8542   -0.9898 C   0  0  0  0  0  0  0  0  0  0  0  0
   -0.7610   -0.9990   -2.2227 O   0  0  0  0  0  0  0  0  0  0  0  0
   -2.1053   -0.3804   -0.2867 N   0  0  0  0  0  0  0  0  0  0  0  0
   -3.2914   -0.0447   -0.9706 C   0  0  0  0  0  0  0  0  0  0  0  0
   -3.5796   -0.6427   -2.2076 C   0  0  0  0  0  0  0  0  0  0  0  0
   -4.6943   -0.3301   -2.9018 N   0  0  0  0  0  0  0  0  0  0  0  0
   -5.6057    0.5551   -2.4885 C   0  0  0  0  0  0  0  0  0  0  0  0
   -5.3706    1.1736   -1.2770 C   0  0  0  0  0  0  0  0  0  0  0  0
   -6.2997    2.0948   -0.8566 C   0  0  0  0  0  0  0  0  0  0  0  0
   -6.1333    2.7683    0.3330 C   0  0  0  0  0  0  0  0  0  0  0  0
   -5.0054    2.4736    1.0642 C   0  0  0  0  0  0  0  0  0  0  0  0
   -4.0781    1.5531    0.6436 C   0  0  0  0  0  0  0  0  0  0  0  0
   -4.2244    0.8689   -0.5380 C   0  0  0  0  0  0  0  0  0  0  0  0
   -1.7298   -0.4266    1.1040 C   0  0  0  0  0  0  0  0  0  0  0  0
   -0.7312   -1.6135    1.1544 C   0  0  2  0  0  0  0  0  0  0  0  0
   -0.0003   -1.6433    2.4560 C   0  0  0  0  0  0  0  0  0  0  0  0
    0.9452   -2.3443   -0.4322 C   0  0  0  0  0  0  0  0  0  0  0  0
    0.3497   -3.5751   -0.6296 C   0  0  0  0  0  0  0  0  0  0  0  0
    1.0936   -4.6933   -1.0310 C   0  0  0  0  0  0  0  0  0  0  0  0
    0.3159   -6.2434   -1.2745 Cl  0  0  0  0  0  0  0  0  0  0  0  0
    2.4553   -4.6100   -1.2467 C   0  0  0  0  0  0  0  0  0  0  0  0
    3.0477   -3.3947   -1.0533 C   0  0  0  0  0  0  0  0  0  0  0  0
    2.3130   -2.2957   -0.6584 C   0  0  0  0  0  0  0  0  0  0  0  0
    3.0355   -1.0426   -0.5008 C   0  0  0  0  0  0  0  0  0  0  0  0
    4.2750   -1.0068   -0.7077 O   0  0  0  0  0  0  0  0  0  0  0  0
    3.3561    1.9256   -1.4992 C   0  0  0  0  0  0  0  0  0  0  0  0
    2.3196    2.5403   -0.6329 C   0  0  0  0  0  0  0  0  0  0  0  0
    6.0117    3.8402    2.3716 H   0  0  0  0  0  0  0  0  0  0  0  0
    6.5868    2.2807    1.8329 H   0  0  0  0  0  0  0  0  0  0  0  0
    5.4396    2.3826    3.1469 H   0  0  0  0  0  0  0  0  0  0  0  0
    4.2646    3.5617    0.8677 H   0  0  0  0  0  0  0  0  0  0  0  0
    0.3976    0.8531   -0.2637 H   0  0  0  0  0  0  0  0  0  0  0  0
    0.8955    0.1565    1.3283 H   0  0  0  0  0  0  0  0  0  0  0  0
   -2.9233   -1.3382   -2.5956 H   0  0  0  0  0  0  0  0  0  0  0  0
   -6.4462    0.7666   -3.0488 H   0  0  0  0  0  0  0  0  0  0  0  0
   -7.1308    2.2838   -1.4385 H   0  0  0  0  0  0  0  0  0  0  0  0
   -6.8230    3.4623    0.6611 H   0  0  0  0  0  0  0  0  0  0  0  0
   -4.8513    2.9618    1.9603 H   0  0  0  0  0  0  0  0  0  0  0  0
   -3.2493    1.3704    1.2307 H   0  0  0  0  0  0  0  0  0  0  0  0
   -2.5801   -0.6123    1.7263 H   0  0  0  0  0  0  0  0  0  0  0  0
   -1.3123    0.4922    1.4596 H   0  0  0  0  0  0  0  0  0  0  0  0
   -1.1374   -2.6009    1.0841 H   0  0  0  0  0  0  0  0  0  0  0  0
    0.4534   -0.6904    2.6321 H   0  0  0  0  0  0  0  0  0  0  0  0
    0.7572   -2.3983    2.4225 H   0  0  0  0  0  0  0  0  0  0  0  0
   -0.6877   -1.8625    3.2461 H   0  0  0  0  0  0  0  0  0  0  0  0
   -0.6663   -3.6736   -0.4780 H   0  0  0  0  0  0  0  0  0  0  0  0
    3.0032   -5.4331   -1.5422 H   0  0  0  0  0  0  0  0  0  0  0  0
    4.0637   -3.2966   -1.2054 H   0  0  0  0  0  0  0  0  0  0  0  0
    3.0782    1.3959   -2.3864 H   0  0  0  0  0  0  0  0  0  0  0  0
    4.2496    2.2531   -1.9883 H   0  0  0  0  0  0  0  0  0  0  0  0
    1.2915    2.4766   -0.9225 H   0  0  0  0  0  0  0  0  0  0  0  0
    2.1725    3.5334   -0.2627 H   0  0  0  0  0  0  0  0  0  0  0  0
  1  2  1  0  0  0  0
  1 36  1  0  0  0  0
  1 37  1  0  0  0  0
  1 38  1  0  0  0  0
  2  3  1  0  0  0  0
  2 39  1  0  0  0  0
  3  4  2  0  0  0  0
  3  5  1  0  0  0  0
  5  6  1  0  0  0  0
  5 34  1  0  0  0  0
  6  7  1  0  0  0  0
  7 40  1  0  0  0  0
  7 41  1  0  0  0  0
  8  7  1  0  0  0  0
  8  9  1  6  0  0  0
  8 25  1  0  0  0  0
  9 10  2  0  0  0  0
  9 11  1  0  0  0  0
 11 12  1  0  0  0  0
 11 22  1  0  0  0  0
 12 13  2  0  0  0  0
 13 14  1  0  0  0  0
 13 42  1  0  0  0  0
 14 15  2  0  0  0  0
 15 16  1  0  0  0  0
 15 43  1  0  0  0  0
 16 17  2  0  0  0  0
 17 18  1  0  0  0  0
 17 44  1  0  0  0  0
 18 19  2  0  0  0  0
 18 45  1  0  0  0  0
 19 20  1  0  0  0  0
 19 46  1  0  0  0  0
 20 21  2  0  0  0  0
 20 47  1  0  0  0  0
 21 12  1  0  0  0  0
 21 16  1  0  0  0  0
 22 23  1  0  0  0  0
 22 48  1  0  0  0  0
 22 49  1  0  0  0  0
 23 24  1  0  0  0  0
 23  8  1  0  0  0  0
 23 50  1  6  0  0  0
 24 51  1  0  0  0  0
 24 52  1  0  0  0  0
 24 53  1  0  0  0  0
 25 26  2  0  0  0  0
 26 27  1  0  0  0  0
 26 54  1  0  0  0  0
 27 28  1  0  0  0  0
 27 29  2  0  0  0  0
 29 30  1  0  0  0  0
 29 55  1  0  0  0  0
 30 31  2  0  0  0  0
 30 56  1  0  0  0  0
 31 32  1  0  0  0  0
 31 25  1  0  0  0  0
 32 33  2  0  0  0  0
 32  6  1  0  0  0  0
 34 35  1  0  0  0  0
 34 57  1  0  0  0  0
 34 58  1  0  0  0  0
 35  5  1  0  0  0  0
 35 59  1  0  0  0  0
 35 60  1  0  0  0  0
M  END
$$$$

 OpenBabel07292611443D

 36 38  0  0  0  0  0  0  0  0999 V2000
    0.0926   -0.7661    1.3621 O   0  0  0  0  0  0  0  0  0  0  0  0
    0.6818   -0.7583    0.2478 C   0  0  0  0  0  0  0  0  0  0  0  0
   -0.1020   -0.9998   -0.9697 C   0  0  0  0  0  0  0  0  0  0  0  0
   -1.5413   -1.2275   -0.5963 C   0  0  0  0  0  0  0  0  0  0  0  0
   -2.0853   -2.4951   -0.6011 C   0  0  0  0  0  0  0  0  0  0  0  0
   -3.3640   -2.7553   -0.2764 N   0  0  0  0  0  0  0  0  0  0  0  0
   -4.1761   -1.7533    0.0741 C   0  0  0  0  0  0  0  0  0  0  0  0
   -3.6806   -0.4700    0.0944 C   0  0  0  0  0  0  0  0  0  0  0  0
   -4.5738    0.5337    0.4679 C   0  0  0  0  0  0  0  0  0  0  0  0
   -4.0870    1.8349    0.4930 C   0  0  0  0  0  0  0  0  0  0  0  0
   -2.7803    2.1107    0.1625 C   0  0  0  0  0  0  0  0  0  0  0  0
   -1.8863    1.1215   -0.2093 C   0  0  0  0  0  0  0  0  0  0  0  0
   -2.3729   -0.1846   -0.2353 C   0  0  0  0  0  0  0  0  0  0  0  0
    2.0855   -0.5151    0.2196 N   0  0  0  0  0  0  0  0  0  0  0  0
    2.6373   -0.3044    1.5478 C   0  0  0  0  0  0  0  0  0  0  0  0
    3.1224    1.1072    1.5802 C   0  0  0  0  0  0  0  0  0  0  0  0
    3.9017    1.7461    0.7223 C   0  0  0  0  0  0  0  0  0  0  0  0
    4.4799    1.1836   -0.4934 C   0  0  0  0  0  0  0  0  0  0  0  0
    3.9249    0.2285   -1.2236 C   0  0  0  0  0  0  0  0  0  0  0  0
    2.6550   -0.5294   -1.0836 C   0  0  0  0  0  0  0  0  0  0  0  0
    0.2776   -1.8639   -1.4739 H   0  0  0  0  0  0  0  0  0  0  0  0
   -0.0293   -0.1513   -1.6175 H   0  0  0  0  0  0  0  0  0  0  0  0
   -1.4785   -3.2860   -0.8682 H   0  0  0  0  0  0  0  0  0  0  0  0
   -5.1595   -1.9393    0.3256 H   0  0  0  0  0  0  0  0  0  0  0  0
   -5.5527    0.3196    0.7147 H   0  0  0  0  0  0  0  0  0  0  0  0
   -4.7159    2.6070    0.7640 H   0  0  0  0  0  0  0  0  0  0  0  0
   -2.4552    3.0897    0.1929 H   0  0  0  0  0  0  0  0  0  0  0  0
   -0.9081    1.3400   -0.4551 H   0  0  0  0  0  0  0  0  0  0  0  0
    3.4489   -0.9793    1.7233 H   0  0  0  0  0  0  0  0  0  0  0  0
    1.9038   -0.4814    2.3065 H   0  0  0  0  0  0  0  0  0  0  0  0
    2.8042    1.6651    2.3880 H   0  0  0  0  0  0  0  0  0  0  0  0
    4.1204    2.7325    0.9325 H   0  0  0  0  0  0  0  0  0  0  0  0
    5.3889    1.5579   -0.8075 H   0  0  0  0  0  0  0  0  0  0  0  0
    4.4821   -0.0414   -2.0493 H   0  0  0  0  0  0  0  0  0  0  0  0
    2.8453   -1.5478   -1.3512 H   0  0  0  0  0  0  0  0  0  0  0  0
    1.9470   -0.0462   -1.7240 H   0  0  0  0  0  0  0  0  0  0  0  0
  1  2  2  0  0  0  0
  2  3  1  0  0  0  0
  2 14  1  0  0  0  0
  3  4  1  0  0  0  0
  3 21  1  0  0  0  0
  3 22  1  0  0  0  0
  4  5  2  0  0  0  0
  5  6  1  0  0  0  0
  5 23  1  0  0  0  0
  6  7  2  0  0  0  0
  7  8  1  0  0  0  0
  7 24  1  0  0  0  0
  8  9  2  0  0  0  0
  9 10  1  0  0  0  0
  9 25  1  0  0  0  0
 10 11  2  0  0  0  0
 10 26  1  0  0  0  0
 11 12  1  0  0  0  0
 11 27  1  0  0  0  0
 12 13  2  0  0  0  0
 12 28  1  0  0  0  0
 13  4  1  0  0  0  0
 13  8  1  0  0  0  0
 14 15  1  0  0  0  0
 15 16  1  0  0  0  0
 15 29  1  0  0  0  0
 15 30  1  0  0  0  0
 16 17  2  0  0  0  0
 16 31  1  0  0  0  0
 17 18  1  0  0  0  0
 17 32  1  0  0  0  0
 18 19  2  0  0  0  0
 18 33  1  0  0  0  0
 19 20  1  0  0  0  0
 19 34  1  0  0  0  0
 20 14  1  0  0  0  0
 20 35  1  0  0  0  0
 20 36  1  0  0  0  0
M  END
$$$$

 OpenBabel07292611443D

 54 57  0  0  0  0  0  0  0  0999 V2000
   -3.4268   -2.0129    3.1095 C   0  0  0  0  0  0  0  0  0  0  0  0
   -2.8732   -1.2478    2.0837 O   0  0  0  0  0  0  0  0  0  0  0  0
   -2.9115    0.1097    1.9355 C   0  0  0  0  0  0  0  0  0  0  0  0
   -3.5604    0.8795    2.8783 C   0  0  0  0  0  0  0  0  0  0  0  0
   -3.6288    2.2677    2.7745 C   0  0  0  0  0  0  0  0  0  0  0  0
   -3.0236    2.8577    1.6918 C   0  0  0  0  0  0  0  0  0  0  0  0
   -2.3771    2.0808    0.7539 C   0  0  0  0  0  0  0  0  0  0  0  0
   -2.2948    0.7074    0.8327 C   0  0  0  0  0  0  0  0  0  0  0  0
   -1.6231   -0.1604   -0.1266 C   0  0  1  0  0  0  0  0  0  0  0  0
   -2.5823   -0.6379   -1.2094 C   0  0  0  0  0  0  0  0  0  0  0  0
   -1.7823   -1.3309   -2.3187 C   0  0  1  0  0  0  0  0  0  0  0  0
   -2.7706   -2.1087   -3.1599 C   0  0  0  0  0  0  0  0  0  0  0  0
   -1.0364   -0.2949   -3.0917 C   0  0  0  0  0  0  0  0  0  0  0  0
   -0.7241    0.8999   -2.1793 C   0  0  0  0  0  0  0  0  0  0  0  0
   -0.4956    0.4562   -0.8129 N   0  0  0  0  0  0  0  0  0  0  0  0
    0.7586    0.6055   -0.1552 C   0  0  0  0  0  0  0  0  0  0  0  0
    0.9689    0.2243    1.0266 O   0  0  0  0  0  0  0  0  0  0  0  0
    1.8823    1.2436   -0.8964 C   0  0  0  0  0  0  0  0  0  0  0  0
    3.1048    1.3247   -0.0975 C   0  0  0  0  0  0  0  0  0  0  0  0
    3.5877    2.4638    0.5056 C   0  0  0  0  0  0  0  0  0  0  0  0
    4.7187    2.4950    1.2338 N   0  0  0  0  0  0  0  0  0  0  0  0
    5.4311    1.3780    1.3978 C   0  0  0  0  0  0  0  0  0  0  0  0
    5.0169    0.1775    0.8227 C   0  0  0  0  0  0  0  0  0  0  0  0
    5.7500   -0.9802    0.9891 C   0  0  0  0  0  0  0  0  0  0  0  0
    5.3161   -2.1508    0.4089 C   0  0  0  0  0  0  0  0  0  0  0  0
    4.1454   -2.2014   -0.3498 C   0  0  0  0  0  0  0  0  0  0  0  0
    3.4424   -1.0202   -0.4908 C   0  0  0  0  0  0  0  0  0  0  0  0
    3.8544    0.1687    0.0801 C   0  0  0  0  0  0  0  0  0  0  0  0
   -3.2210   -3.0480    2.9333 H   0  0  0  0  0  0  0  0  0  0  0  0
   -4.4854   -1.8594    3.1375 H   0  0  0  0  0  0  0  0  0  0  0  0
   -2.9988   -1.7184    4.0449 H   0  0  0  0  0  0  0  0  0  0  0  0
   -4.0080    0.4143    3.6835 H   0  0  0  0  0  0  0  0  0  0  0  0
   -4.1173    2.8328    3.4866 H   0  0  0  0  0  0  0  0  0  0  0  0
   -3.0528    3.8832    1.5802 H   0  0  0  0  0  0  0  0  0  0  0  0
   -1.9317    2.5523   -0.0488 H   0  0  0  0  0  0  0  0  0  0  0  0
   -1.2603   -0.9685    0.4736 H   0  0  0  0  0  0  0  0  0  0  0  0
   -3.1082    0.2000   -1.6170 H   0  0  0  0  0  0  0  0  0  0  0  0
   -3.2863   -1.3256   -0.7895 H   0  0  0  0  0  0  0  0  0  0  0  0
   -1.0519   -2.0148   -1.9396 H   0  0  0  0  0  0  0  0  0  0  0  0
   -3.5108   -1.4412   -3.5490 H   0  0  0  0  0  0  0  0  0  0  0  0
   -3.2446   -2.8538   -2.5557 H   0  0  0  0  0  0  0  0  0  0  0  0
   -2.2553   -2.5812   -3.9699 H   0  0  0  0  0  0  0  0  0  0  0  0
   -1.6337    0.0331   -3.9167 H   0  0  0  0  0  0  0  0  0  0  0  0
   -0.1216   -0.7129   -3.4569 H   0  0  0  0  0  0  0  0  0  0  0  0
   -1.5506    1.5793   -2.1946 H   0  0  0  0  0  0  0  0  0  0  0  0
    0.1606    1.3842   -2.5367 H   0  0  0  0  0  0  0  0  0  0  0  0
    1.5897    2.2336   -1.1776 H   0  0  0  0  0  0  0  0  0  0  0  0
    2.0928    0.6378   -1.7529 H   0  0  0  0  0  0  0  0  0  0  0  0
    3.0542    3.3401    0.3934 H   0  0  0  0  0  0  0  0  0  0  0  0
    6.2983    1.4035    1.9567 H   0  0  0  0  0  0  0  0  0  0  0  0
    6.6190   -0.9683    1.5456 H   0  0  0  0  0  0  0  0  0  0  0  0
    5.8699   -3.0120    0.5380 H   0  0  0  0  0  0  0  0  0  0  0  0
    3.8205   -3.0791   -0.7846 H   0  0  0  0  0  0  0  0  0  0  0  0
    2.5726   -1.0262   -1.0462 H   0  0  0  0  0  0  0  0  0  0  0  0
  1  2  1  0  0  0  0
  1 29  1  0  0  0  0
  1 30  1  0  0  0  0
  1 31  1  0  0  0  0
  2  3  1  0  0  0  0
  3  4  2  0  0  0  0
  4  5  1  0  0  0  0
  4 32  1  0  0  0  0
  5  6  2  0  0  0  0
  5 33  1  0  0  0  0
  6  7  1  0  0  0  0
  6 34  1  0  0  0  0
  7  8  2  0  0  0  0
  7 35  1  0  0  0  0
  8  3  1  0  0  0  0
  9  8  1  0  0  0  0
  9 10  1  0  0  0  0
  9 36  1  1  0  0  0
 10 11  1  0  0  0  0
 10 37  1  0  0  0  0
 10 38  1  0  0  0  0
 11 12  1  0  0  0  0
 11 13  1  0  0  0  0
 11 39  1  1  0  0  0
 12 40  1  0  0  0  0
 12 41  1  0  0  0  0
 12 42  1  0  0  0  0
 13 14  1  0  0  0  0
 13 43  1  0  0  0  0
 13 44  1  0  0  0  0
 14 15  1  0  0  0  0
 14 45  1  0  0  0  0
 14 46  1  0  0  0  0
 15 16  1  0  0  0  0
 15  9  1  0  0  0  0
 16 17  2  0  0  0  0
 16 18  1  0  0  0  0
 18 19  1  0  0  0  0
 18 47  1  0  0  0  0
 18 48  1  0  0  0  0
 19 20  2  0  0  0  0
 20 21  1  0  0  0  0
 20 49  1  0  0  0  0
 21 22  2  0  0  0  0
 22 23  1  0  0  0  0
 22 50  1  0  0  0  0
 23 24  2  0  0  0  0
 24 25  1  0  0  0  0
 24 51  1  0  0  0  0
 25 26  2  0  0  0  0
 25 52  1  0  0  0  0
 26 27  1  0  0  0  0
 26 53  1  0  0  0  0
 27 28  2  0  0  0  0
 27 54  1  0  0  0  0
 28 19  1  0  0  0  0
 28 23  1  0  0  0  0
M  END
$$$$

 OpenBabel07292611443D

 46 50  0  0  0  0  0  0  0  0999 V2000
   -4.4628    2.6161    2.8226 N   0  0  0  0  0  0  0  0  0  0  0  0
   -4.5672    2.5425    1.0893 S   0  0  0  0  0  0  0  0  0  0  0  0
   -3.7648    3.6385    0.4618 O   0  0  0  0  0  0  0  0  0  0  0  0
   -6.0129    2.7708    0.7331 O   0  0  0  0  0  0  0  0  0  0  0  0
   -4.0322    0.9783    0.5056 C   0  0  0  0  0  0  0  0  0  0  0  0
   -4.9486   -0.0542    0.3615 C   0  0  0  0  0  0  0  0  0  0  0  0
   -4.5043   -1.2858   -0.1024 C   0  0  0  0  0  0  0  0  0  0  0  0
   -3.1744   -1.4975   -0.4204 C   0  0  0  0  0  0  0  0  0  0  0  0
   -2.2558   -0.4771   -0.2805 C   0  0  0  0  0  0  0  0  0  0  0  0
   -2.7123    0.7287    0.1779 C   0  0  0  0  0  0  0  0  0  0  0  0
   -0.8533   -0.7243   -0.6232 C   0  0  1  0  0  0  0  0  0  0  0  0
   -0.5477   -2.2073   -0.6077 C   0  0  0  0  0  0  0  0  0  0  0  0
   -1.5630   -2.9417   -1.4566 C   0  0  0  0  0  0  0  0  0  0  0  0
   -2.8396   -2.7658   -0.8749 O   0  0  0  0  0  0  0  0  0  0  0  0
   -0.4852   -0.2564   -1.9467 N   0  0  0  0  0  0  0  0  0  0  0  0
    0.8307    0.2892   -1.9365 C   0  0  0  0  0  0  0  0  0  0  0  0
    1.4726    0.5311   -2.9787 O   0  0  0  0  0  0  0  0  0  0  0  0
    1.2144    0.4798   -0.5772 N   0  0  0  0  0  0  0  0  0  0  0  0
    2.4633    1.0065   -0.1893 C   0  0  0  0  0  0  0  0  0  0  0  0
    2.5563    2.3826   -0.0401 C   0  0  0  0  0  0  0  0  0  0  0  0
    3.7380    2.9544    0.3336 N   0  0  0  0  0  0  0  0  0  0  0  0
    4.8350    2.2105    0.5657 C   0  0  0  0  0  0  0  0  0  0  0  0
    4.7826    0.8312    0.4273 C   0  0  0  0  0  0  0  0  0  0  0  0
    5.8879    0.0610    0.6594 C   0  0  0  0  0  0  0  0  0  0  0  0
    5.8376   -1.3186    0.5215 C   0  0  0  0  0  0  0  0  0  0  0  0
    4.6138   -1.8782    0.1375 C   0  0  0  0  0  0  0  0  0  0  0  0
    3.5053   -1.1286   -0.0973 C   0  0  0  0  0  0  0  0  0  0  0  0
    3.5881    0.2419    0.0486 C   0  0  0  0  0  0  0  0  0  0  0  0
    0.1107    0.0405    0.2094 C   0  0  0  0  0  0  0  0  0  0  0  0
    0.0111    0.2951    1.4533 O   0  0  0  0  0  0  0  0  0  0  0  0
   -4.7775    3.5317    3.1436 H   0  0  0  0  0  0  0  0  0  0  0  0
   -3.4958    2.4684    3.1115 H   0  0  0  0  0  0  0  0  0  0  0  0
   -5.9433    0.0907    0.5951 H   0  0  0  0  0  0  0  0  0  0  0  0
   -5.1796   -2.0584   -0.2121 H   0  0  0  0  0  0  0  0  0  0  0  0
   -2.0315    1.4968    0.2853 H   0  0  0  0  0  0  0  0  0  0  0  0
   -0.5943   -2.5704    0.3977 H   0  0  0  0  0  0  0  0  0  0  0  0
    0.4330   -2.3730   -1.0022 H   0  0  0  0  0  0  0  0  0  0  0  0
   -1.3210   -3.9835   -1.4896 H   0  0  0  0  0  0  0  0  0  0  0  0
   -1.5567   -2.5559   -2.4546 H   0  0  0  0  0  0  0  0  0  0  0  0
   -1.0643   -0.3088   -2.7411 H   0  0  0  0  0  0  0  0  0  0  0  0
    1.7295    2.9757   -0.2122 H   0  0  0  0  0  0  0  0  0  0  0  0
    5.7168    2.6669    0.8471 H   0  0  0  0  0  0  0  0  0  0  0  0
    6.7723    0.5122    0.9412 H   0  0  0  0  0  0  0  0  0  0  0  0
    6.6674   -1.9071    0.6948 H   0  0  0  0  0  0  0  0  0  0  0  0
    4.5507   -2.9025    0.0282 H   0  0  0  0  0  0  0  0  0  0  0  0
    2.6185   -1.5749   -0.3792 H   0  0  0  0  0  0  0  0  0  0  0  0
  1  2  1  0  0  0  0
  1 31  1  0  0  0  0
  1 32  1  0  0  0  0
  2  3  2  0  0  0  0
  2  4  2  0  0  0  0
  2  5  1  0  0  0  0
  5  6  2  0  0  0  0
  6  7  1  0  0  0  0
  6 33  1  0  0  0  0
  7  8  2  0  0  0  0
  7 34  1  0  0  0  0
  8  9  1  0  0  0  0
  9 10  2  0  0  0  0
 10  5  1  0  0  0  0
 10 35  1  0  0  0  0
 11  9  1  1  0  0  0
 11 12  1  0  0  0  0
 11 15  1  0  0  0  0
 12 13  1  0  0  0  0
 12 36  1  0  0  0  0
 12 37  1  0  0  0  0
 13 14  1  0  0  0  0
 13 38  1  0  0  0  0
 13 39  1  0  0  0  0
 14  8  1  0  0  0  0
 15 16  1  0  0  0  0
 15 40  1  0  0  0  0
 16 17  2  0  0  0  0
 16 18  1  0  0  0  0
 18 19  1  0  0  0  0
 18 29  1  0  0  0  0
 19 20  2  0  0  0  0
 20 21  1  0  0  0  0
 20 41  1  0  0  0  0
 21 22  2  0  0  0  0
 22 23  1  0  0  0  0
 22 42  1  0  0  0  0
 23 24  2  0  0  0  0
 24 25  1  0  0  0  0
 24 43  1  0  0  0  0
 25 26  2  0  0  0  0
 25 44  1  0  0  0  0
 26 27  1  0  0  0  0
 26 45  1  0  0  0  0
 27 28  2  0  0  0  0
 27 46  1  0  0  0  0
 28 19  1  0  0  0  0
 28 23  1  0  0  0  0
 29 30  2  0  0  0  0
 29 11  1  0  0  0  0
M  END
$$$$

 OpenBabel07292611443D

 63 68  0  0  0  0  0  0  0  0999 V2000
   -0.6427    1.5061    0.8837 C   0  0  0  0  0  0  0  0  0  0  0  0
   -0.7980    0.0767    1.3463 C   0  0  1  0  0  0  0  0  0  0  0  0
   -2.2417   -0.0797    1.7246 C   0  0  0  0  0  0  0  0  0  0  0  0
   -2.9062   -0.3432    0.4718 N   0  0  0  0  0  0  0  0  0  0  0  0
   -4.3266   -0.2354    0.3170 C   0  0  0  0  0  0  0  0  0  0  0  0
   -5.1766   -1.3099    0.5898 C   0  0  0  0  0  0  0  0  0  0  0  0
   -6.5111   -1.2305    0.4478 N   0  0  0  0  0  0  0  0  0  0  0  0
   -7.1139   -0.1094    0.0333 C   0  0  0  0  0  0  0  0  0  0  0  0
   -6.3413    0.9914   -0.2547 C   0  0  0  0  0  0  0  0  0  0  0  0
   -6.9687    2.1424   -0.6812 C   0  0  0  0  0  0  0  0  0  0  0  0
   -6.2393    3.2739   -0.9832 C   0  0  0  0  0  0  0  0  0  0  0  0
   -4.8701    3.1857   -0.8354 C   0  0  0  0  0  0  0  0  0  0  0  0
   -4.2483    2.0368   -0.4100 C   0  0  0  0  0  0  0  0  0  0  0  0
   -4.9517    0.9163   -0.1093 C   0  0  0  0  0  0  0  0  0  0  0  0
   -1.9252   -0.7185   -0.4872 C   0  0  0  0  0  0  0  0  0  0  0  0
   -2.1587   -0.9024   -1.7145 O   0  0  0  0  0  0  0  0  0  0  0  0
   -0.6075   -0.8505    0.2061 C   0  0  1  0  0  0  0  0  0  0  0  0
    0.5390   -0.4486   -0.6479 C   0  0  0  0  0  0  0  0  0  0  0  0
    1.7905   -0.7974   -0.0091 N   0  0  0  0  0  0  0  0  0  0  0  0
    2.8683    0.1468    0.2143 C   0  0  0  0  0  0  0  0  0  0  0  0
    3.8093    0.1823   -0.9446 C   0  0  0  0  0  0  0  0  0  0  0  0
    3.6301   -0.5476   -1.9655 O   0  0  0  0  0  0  0  0  0  0  0  0
    4.9115    1.0784   -0.8353 N   0  0  0  0  0  0  0  0  0  0  0  0
    5.8470    1.1578   -1.9118 C   0  0  0  0  0  0  0  0  0  0  0  0
    6.9317    2.1836   -1.5566 C   0  0  0  0  0  0  0  0  0  0  0  0
    6.5183    3.4780   -1.3213 F   0  0  0  0  0  0  0  0  0  0  0  0
    8.3157    1.9418   -2.0138 C   0  0  0  0  0  0  0  0  0  0  0  0
    7.9444    1.6819   -0.5731 C   0  0  0  0  0  0  0  0  0  0  0  0
    1.9768   -2.1442    0.4121 C   0  0  0  0  0  0  0  0  0  0  0  0
    3.1137   -2.6715    0.5061 O   0  0  0  0  0  0  0  0  0  0  0  0
    0.7730   -2.9006    0.7359 C   0  0  0  0  0  0  0  0  0  0  0  0
    0.9131   -4.2037    1.1275 C   0  0  0  0  0  0  0  0  0  0  0  0
   -0.1870   -4.9738    1.4303 C   0  0  0  0  0  0  0  0  0  0  0  0
   -1.4316   -4.3900    1.3261 C   0  0  0  0  0  0  0  0  0  0  0  0
   -2.5713   -5.0849    1.6079 F   0  0  0  0  0  0  0  0  0  0  0  0
   -1.5548   -3.0751    0.9302 C   0  0  0  0  0  0  0  0  0  0  0  0
   -0.4707   -2.2729    0.6189 C   0  0  0  0  0  0  0  0  0  0  0  0
   -0.7820    2.1667    1.7138 H   0  0  0  0  0  0  0  0  0  0  0  0
   -1.3736    1.7190    0.1318 H   0  0  0  0  0  0  0  0  0  0  0  0
    0.3375    1.6451    0.4778 H   0  0  0  0  0  0  0  0  0  0  0  0
   -0.1012   -0.1297    2.1317 H   0  0  0  0  0  0  0  0  0  0  0  0
   -2.6165    0.8170    2.1723 H   0  0  0  0  0  0  0  0  0  0  0  0
   -2.3964   -0.8571    2.4434 H   0  0  0  0  0  0  0  0  0  0  0  0
   -4.7642   -2.1990    0.9128 H   0  0  0  0  0  0  0  0  0  0  0  0
   -8.1402   -0.0718   -0.0683 H   0  0  0  0  0  0  0  0  0  0  0  0
   -7.9962    2.1579   -0.7757 H   0  0  0  0  0  0  0  0  0  0  0  0
   -6.6948    4.1427   -1.3036 H   0  0  0  0  0  0  0  0  0  0  0  0
   -4.2922    4.0128   -1.0523 H   0  0  0  0  0  0  0  0  0  0  0  0
   -3.2206    2.0258   -0.3169 H   0  0  0  0  0  0  0  0  0  0  0  0
    0.5068    0.6091   -0.8065 H   0  0  0  0  0  0  0  0  0  0  0  0
    0.4718   -0.9628   -1.5838 H   0  0  0  0  0  0  0  0  0  0  0  0
    3.4077   -0.1417    1.0922 H   0  0  0  0  0  0  0  0  0  0  0  0
    2.4433    1.1215    0.3335 H   0  0  0  0  0  0  0  0  0  0  0  0
    5.0265    1.6340   -0.0307 H   0  0  0  0  0  0  0  0  0  0  0  0
    5.3420    1.4641   -2.8040 H   0  0  0  0  0  0  0  0  0  0  0  0
    6.2947    0.1994   -2.0730 H   0  0  0  0  0  0  0  0  0  0  0  0
    8.9487    2.7680   -2.2620 H   0  0  0  0  0  0  0  0  0  0  0  0
    8.7632    1.3634   -2.7949 H   0  0  0  0  0  0  0  0  0  0  0  0
    8.3077    2.3253    0.2008 H   0  0  0  0  0  0  0  0  0  0  0  0
    8.0125    0.8482    0.0942 H   0  0  0  0  0  0  0  0  0  0  0  0
    1.8569   -4.6153    1.1969 H   0  0  0  0  0  0  0  0  0  0  0  0
   -0.0834   -5.9571    1.7260 H   0  0  0  0  0  0  0  0  0  0  0  0
   -2.5013   -2.6693    0.8627 H   0  0  0  0  0  0  0  0  0  0  0  0
  1 38  1  0  0  0  0
  1 39  1  0  0  0  0
  1 40  1  0  0  0  0
  2  1  1  0  0  0  0
  2  3  1  0  0  0  0
  2 41  1  1  0  0  0
  3  4  1  0  0  0  0
  3 42  1  0  0  0  0
  3 43  1  0  0  0  0
  4  5  1  0  0  0  0
  4 15  1  0  0  0  0
  5  6  2  0  0  0  0
  6  7  1  0  0  0  0
  6 44  1  0  0  0  0
  7  8  2  0  0  0  0
  8  9  1  0  0  0  0
  8 45  1  0  0  0  0
  9 10  2  0  0  0  0
 10 11  1  0  0  0  0
 10 46  1  0  0  0  0
 11 12  2  0  0  0  0
 11 47  1  0  0  0  0
 12 13  1  0  0  0  0
 12 48  1  0  0  0  0
 13 14  2  0  0  0  0
 13 49  1  0  0  0  0
 14  5  1  0  0  0  0
 14  9  1  0  0  0  0
 15 16  2  0  0  0  0
 17 15  1  6  0  0  0
 17 18  1  0  0  0  0
 17  2  1  0  0  0  0
 18 19  1  0  0  0  0
 18 50  1  0  0  0  0
 18 51  1  0  0  0  0
 19 20  1  0  0  0  0
 19 29  1  0  0  0  0
 20 21  1  0  0  0  0
 20 52  1  0  0  0  0
 20 53  1  0  0  0  0
 21 22  2  0  0  0  0
 21 23  1  0  0  0  0
 23 24  1  0  0  0  0
 23 54  1  0  0  0  0
 24 25  1  0  0  0  0
 24 55  1  0  0  0  0
 24 56  1  0  0  0  0
 25 26  1  0  0  0  0
 25 27  1  0  0  0  0
 27 28  1  0  0  0  0
 27 57  1  0  0  0  0
 27 58  1  0  0  0  0
 28 25  1  0  0  0  0
 28 59  1  0  0  0  0
 28 60  1  0  0  0  0
 29 30  2  0  0  0  0
 29 31  1  0  0  0  0
 31 32  2  0  0  0  0
 32 33  1  0  0  0  0
 32 61  1  0  0  0  0
 33 34  2  0  0  0  0
 33 62  1  0  0  0  0
 34 35  1  0  0  0  0
 34 36  1  0  0  0  0
 36 37  2  0  0  0  0
 36 63  1  0  0  0  0
 37 31  1  0  0  0  0
 37 17  1  0  0  0  0
M  END
$$$$

 OpenBabel07292611443D

 57 62  0  0  0  0  0  0  0  0999 V2000
    6.0490   -1.4320    3.2552 C   0  0  0  0  0  0  0  0  0  0  0  0
    5.3177   -0.2067    2.9185 N   0  0  0  0  0  0  0  0  0  0  0  0
    4.3492   -0.2276    1.8944 C   0  0  0  0  0  0  0  0  0  0  0  0
    4.1446   -1.3077    1.2995 O   0  0  0  0  0  0  0  0  0  0  0  0
    3.6362    1.0400    1.5919 C   0  0  0  0  0  0  0  0  0  0  0  0
    2.6636    0.8848    0.5203 N   0  0  0  0  0  0  0  0  0  0  0  0
    1.3084    0.5271    0.8586 C   0  0  0  0  0  0  0  0  0  0  0  0
    0.4706   -0.0101   -0.2438 C   0  0  2  0  0  0  0  0  0  0  0  0
   -0.8253    0.7352   -0.2027 C   0  0  0  0  0  0  0  0  0  0  0  0
   -0.9797    1.9409   -0.5989 O   0  0  0  0  0  0  0  0  0  0  0  0
   -1.8613   -0.0687    0.3331 N   0  0  0  0  0  0  0  0  0  0  0  0
   -3.0153    0.3520    1.0526 C   0  0  0  0  0  0  0  0  0  0  0  0
   -3.0116    0.4739    2.4367 C   0  0  0  0  0  0  0  0  0  0  0  0
   -4.1579    0.8794    3.0126 N   0  0  0  0  0  0  0  0  0  0  0  0
   -5.2812    1.1658    2.3292 C   0  0  0  0  0  0  0  0  0  0  0  0
   -5.3172    1.0546    0.9526 C   0  0  0  0  0  0  0  0  0  0  0  0
   -6.4534    1.3402    0.2144 C   0  0  0  0  0  0  0  0  0  0  0  0
   -6.4282    1.2091   -1.1725 C   0  0  0  0  0  0  0  0  0  0  0  0
   -5.2759    0.7939   -1.8359 C   0  0  0  0  0  0  0  0  0  0  0  0
   -4.1620    0.5173   -1.0751 C   0  0  0  0  0  0  0  0  0  0  0  0
   -4.1630    0.6414    0.3175 C   0  0  0  0  0  0  0  0  0  0  0  0
   -1.4723   -1.4422   -0.0244 C   0  0  0  0  0  0  0  0  0  0  0  0
    0.0313   -1.4270   -0.0491 C   0  0  0  0  0  0  0  0  0  0  0  0
    0.7949   -2.5405   -0.6200 C   0  0  0  0  0  0  0  0  0  0  0  0
    0.6812   -2.3866    0.8589 C   0  0  0  0  0  0  0  0  0  0  0  0
    0.9944    0.2366   -1.6136 C   0  0  0  0  0  0  0  0  0  0  0  0
    0.1803   -0.0792   -2.6715 C   0  0  0  0  0  0  0  0  0  0  0  0
    0.6339    0.1371   -3.9724 C   0  0  0  0  0  0  0  0  0  0  0  0
   -0.3935   -0.2608   -5.3371 Cl  0  0  0  0  0  0  0  0  0  0  0  0
    1.8748    0.6587   -4.2477 C   0  0  0  0  0  0  0  0  0  0  0  0
    2.6892    0.9744   -3.1792 C   0  0  0  0  0  0  0  0  0  0  0  0
    2.2325    0.7571   -1.8916 C   0  0  0  0  0  0  0  0  0  0  0  0
    3.1324    1.1078   -0.8002 C   0  0  0  0  0  0  0  0  0  0  0  0
    4.2711    1.5860   -1.0256 O   0  0  0  0  0  0  0  0  0  0  0  0
    6.7374   -1.2298    4.0490 H   0  0  0  0  0  0  0  0  0  0  0  0
    6.5864   -1.7742    2.3956 H   0  0  0  0  0  0  0  0  0  0  0  0
    5.3569   -2.1862    3.5667 H   0  0  0  0  0  0  0  0  0  0  0  0
    5.5025    0.6283    3.4062 H   0  0  0  0  0  0  0  0  0  0  0  0
    4.3544    1.7776    1.3005 H   0  0  0  0  0  0  0  0  0  0  0  0
    3.1072    1.3363    2.4735 H   0  0  0  0  0  0  0  0  0  0  0  0
    0.8253    1.4038    1.2366 H   0  0  0  0  0  0  0  0  0  0  0  0
    1.3941   -0.2721    1.5648 H   0  0  0  0  0  0  0  0  0  0  0  0
   -2.1702    0.2635    2.9960 H   0  0  0  0  0  0  0  0  0  0  0  0
   -6.1248    1.4718    2.8389 H   0  0  0  0  0  0  0  0  0  0  0  0
   -7.3158    1.6490    0.6898 H   0  0  0  0  0  0  0  0  0  0  0  0
   -7.2779    1.4233   -1.7176 H   0  0  0  0  0  0  0  0  0  0  0  0
   -5.2576    0.6968   -2.8632 H   0  0  0  0  0  0  0  0  0  0  0  0
   -3.2984    0.2084   -1.5482 H   0  0  0  0  0  0  0  0  0  0  0  0
   -1.8616   -1.7051   -0.9858 H   0  0  0  0  0  0  0  0  0  0  0  0
   -1.8556   -2.1617    0.6686 H   0  0  0  0  0  0  0  0  0  0  0  0
    1.7291   -2.3552   -1.1077 H   0  0  0  0  0  0  0  0  0  0  0  0
    0.5864   -3.3232   -1.3191 H   0  0  0  0  0  0  0  0  0  0  0  0
    1.5325   -2.0889    1.4348 H   0  0  0  0  0  0  0  0  0  0  0  0
    0.3567   -3.0099    1.6658 H   0  0  0  0  0  0  0  0  0  0  0  0
   -0.7591   -0.4732   -2.5063 H   0  0  0  0  0  0  0  0  0  0  0  0
    2.1870    0.8092   -5.2198 H   0  0  0  0  0  0  0  0  0  0  0  0
    3.6294    1.3686   -3.3391 H   0  0  0  0  0  0  0  0  0  0  0  0
  1  2  1  0  0  0  0
  1 35  1  0  0  0  0
  1 36  1  0  0  0  0
  1 37  1  0  0  0  0
  2  3  1  0  0  0  0
  2 38  1  0  0  0  0
  3  4  2  0  0  0  0
  3  5  1  0  0  0  0
  5  6  1  0  0  0  0
  5 39  1  0  0  0  0
  5 40  1  0  0  0  0
  6  7  1  0  0  0  0
  7 41  1  0  0  0  0
  7 42  1  0  0  0  0
  8  7  1  0  0  0  0
  8  9  1  1  0  0  0
  8 26  1  0  0  0  0
  9 10  2  0  0  0  0
  9 11  1  0  0  0  0
 11 12  1  0  0  0  0
 11 22  1  0  0  0  0
 12 13  2  0  0  0  0
 13 14  1  0  0  0  0
 13 43  1  0  0  0  0
 14 15  2  0  0  0  0
 15 16  1  0  0  0  0
 15 44  1  0  0  0  0
 16 17  2  0  0  0  0
 17 18  1  0  0  0  0
 17 45  1  0  0  0  0
 18 19  2  0  0  0  0
 18 46  1  0  0  0  0
 19 20  1  0  0  0  0
 19 47  1  0  0  0  0
 20 21  2  0  0  0  0
 20 48  1  0  0  0  0
 21 12  1  0  0  0  0
 21 16  1  0  0  0  0
 22 23  1  0  0  0  0
 22 49  1  0  0  0  0
 22 50  1  0  0  0  0
 23 24  1  0  0  0  0
 23  8  1  0  0  0  0
 24 25  1  0  0  0  0
 24 51  1  0  0  0  0
 24 52  1  0  0  0  0
 25 23  1  0  0  0  0
 25 53  1  0  0  0  0
 25 54  1  0  0  0  0
 26 27  2  0  0  0  0
 27 28  1  0  0  0  0
 27 55  1  0  0  0  0
 28 29  1  0  0  0  0
 28 30  2  0  0  0  0
 30 31  1  0  0  0  0
 30 56  1  0  0  0  0
 31 32  2  0  0  0  0
 31 57  1  0  0  0  0
 32 33  1  0  0  0  0
 32 26  1  0  0  0  0
 33 34  2  0  0  0  0
 33  6  1  0  0  0  0
M  END
$$$$

 OpenBabel07292611443D

 43 45  0  0  0  0  0  0  0  0999 V2000
   -5.3155    0.5679   -0.0221 C   0  0  0  0  0  0  0  0  0  0  0  0
   -3.8096    0.4369    0.0415 C   0  0  1  0  0  0  0  0  0  0  0  0
   -3.3383   -0.6034    1.0230 C   0  0  0  0  0  0  0  0  0  0  0  0
   -1.8475   -0.4145    1.1820 C   0  0  0  0  0  0  0  0  0  0  0  0
   -1.2070   -0.1909   -0.0990 N   0  0  0  0  0  0  0  0  0  0  0  0
    0.1313    0.3045   -0.1352 C   0  0  0  0  0  0  0  0  0  0  0  0
    0.6863    0.4959   -1.2614 O   0  0  0  0  0  0  0  0  0  0  0  0
    0.8491    0.5864    1.1365 C   0  0  0  0  0  0  0  0  0  0  0  0
    2.2057    1.0893    0.9190 C   0  0  0  0  0  0  0  0  0  0  0  0
    2.4210    2.4568    1.1045 C   0  0  0  0  0  0  0  0  0  0  0  0
    3.6366    3.0068    0.9261 N   0  0  0  0  0  0  0  0  0  0  0  0
    4.6960    2.2552    0.5601 C   0  0  0  0  0  0  0  0  0  0  0  0
    4.5026    0.8854    0.3692 C   0  0  0  0  0  0  0  0  0  0  0  0
    5.6003    0.1406   -0.0042 C   0  0  0  0  0  0  0  0  0  0  0  0
    5.4087   -1.2175   -0.1936 C   0  0  0  0  0  0  0  0  0  0  0  0
    4.1725   -1.8025   -0.0163 C   0  0  0  0  0  0  0  0  0  0  0  0
    3.0715   -1.0564    0.3581 C   0  0  0  0  0  0  0  0  0  0  0  0
    3.2593    0.2969    0.5473 C   0  0  0  0  0  0  0  0  0  0  0  0
   -1.9161   -0.4649   -1.3357 C   0  0  1  0  0  0  0  0  0  0  0  0
   -1.8667   -1.9314   -1.7114 C   0  0  0  0  0  0  0  0  0  0  0  0
   -3.3233    0.0509   -1.3306 C   0  0  0  0  0  0  0  0  0  0  0  0
   -5.6907    0.8423    0.9417 H   0  0  0  0  0  0  0  0  0  0  0  0
   -5.7427   -0.3674   -0.3181 H   0  0  0  0  0  0  0  0  0  0  0  0
   -5.5782    1.3215   -0.7349 H   0  0  0  0  0  0  0  0  0  0  0  0
   -3.4171    1.3764    0.3705 H   0  0  0  0  0  0  0  0  0  0  0  0
   -3.5470   -1.5837    0.6485 H   0  0  0  0  0  0  0  0  0  0  0  0
   -3.8397   -0.4982    1.9624 H   0  0  0  0  0  0  0  0  0  0  0  0
   -1.4308   -1.2913    1.6321 H   0  0  0  0  0  0  0  0  0  0  0  0
   -1.6789    0.4433    1.7990 H   0  0  0  0  0  0  0  0  0  0  0  0
    0.9063   -0.3182    1.7052 H   0  0  0  0  0  0  0  0  0  0  0  0
    0.3020    1.3457    1.6553 H   0  0  0  0  0  0  0  0  0  0  0  0
    1.6308    3.0587    1.3845 H   0  0  0  0  0  0  0  0  0  0  0  0
    5.6258    2.6820    0.4247 H   0  0  0  0  0  0  0  0  0  0  0  0
    6.5261    0.5767   -0.1371 H   0  0  0  0  0  0  0  0  0  0  0  0
    6.2092   -1.8054   -0.4738 H   0  0  0  0  0  0  0  0  0  0  0  0
    4.0676   -2.8181   -0.1663 H   0  0  0  0  0  0  0  0  0  0  0  0
    2.1463   -1.4939    0.4908 H   0  0  0  0  0  0  0  0  0  0  0  0
   -1.3939    0.0792   -2.0947 H   0  0  0  0  0  0  0  0  0  0  0  0
   -2.3816   -2.5069   -0.9707 H   0  0  0  0  0  0  0  0  0  0  0  0
   -0.8471   -2.2513   -1.7664 H   0  0  0  0  0  0  0  0  0  0  0  0
   -2.3364   -2.0720   -2.6625 H   0  0  0  0  0  0  0  0  0  0  0  0
   -3.9664   -0.7120   -1.7170 H   0  0  0  0  0  0  0  0  0  0  0  0
   -3.3399    0.9346   -1.9337 H   0  0  0  0  0  0  0  0  0  0  0  0
  1 22  1  0  0  0  0
  1 23  1  0  0  0  0
  1 24  1  0  0  0  0
  2  1  1  0  0  0  0
  2  3  1  0  0  0  0
  2 25  1  1  0  0  0
  3  4  1  0  0  0  0
  3 26  1  0  0  0  0
  3 27  1  0  0  0  0
  4  5  1  0  0  0  0
  4 28  1  0  0  0  0
  4 29  1  0  0  0  0
  5  6  1  0  0  0  0
  5 19  1  0  0  0  0
  6  7  2  0  0  0  0
  6  8  1  0  0  0  0
  8  9  1  0  0  0  0
  8 30  1  0  0  0  0
  8 31  1  0  0  0  0
  9 10  2  0  0  0  0
 10 11  1  0  0  0  0
 10 32  1  0  0  0  0
 11 12  2  0  0  0  0
 12 13  1  0  0  0  0
 12 33  1  0  0  0  0
 13 14  2  0  0  0  0
 14 15  1  0  0  0  0
 14 34  1  0  0  0  0
 15 16  2  0  0  0  0
 15 35  1  0  0  0  0
 16 17  1  0  0  0  0
 16 36  1  0  0  0  0
 17 18  2  0  0  0  0
 17 37  1  0  0  0  0
 18  9  1  0  0  0  0
 18 13  1  0  0  0  0
 19 20  1  0  0  0  0
 19 21  1  0  0  0  0
 19 38  1  6  0  0  0
 20 39  1  0  0  0  0
 20 40  1  0  0  0  0
 20 41  1  0  0  0  0
 21  2  1  0  0  0  0
 21 42  1  0  0  0  0
 21 43  1  0  0  0  0
M  END
$$$$

 OpenBabel07292611443D

 59 64  0  0  0  0  0  0  0  0999 V2000
    0.2200   -0.2506    2.7245 C   0  0  0  0  0  0  0  0  0  0  0  0
   -0.4311   -1.0357    1.6228 C   0  0  1  0  0  0  0  0  0  0  0  0
   -1.8758   -0.5875    1.5546 C   0  0  0  0  0  0  0  0  0  0  0  0
   -1.9980    0.1362    0.3016 N   0  0  0  0  0  0  0  0  0  0  0  0
   -2.9166    1.1618   -0.0181 C   0  0  0  0  0  0  0  0  0  0  0  0
   -2.6767    2.5047    0.1869 C   0  0  0  0  0  0  0  0  0  0  0  0
   -3.5866    3.4521   -0.1347 N   0  0  0  0  0  0  0  0  0  0  0  0
   -4.7830    3.1027   -0.6779 C   0  0  0  0  0  0  0  0  0  0  0  0
   -5.0575    1.7648   -0.8974 C   0  0  0  0  0  0  0  0  0  0  0  0
   -6.2548    1.3599   -1.4451 C   0  0  0  0  0  0  0  0  0  0  0  0
   -6.5368    0.0309   -1.6672 C   0  0  0  0  0  0  0  0  0  0  0  0
   -5.6240   -0.9664   -1.3482 C   0  0  0  0  0  0  0  0  0  0  0  0
   -4.4139   -0.5480   -0.7939 C   0  0  0  0  0  0  0  0  0  0  0  0
   -4.1383    0.7839   -0.5743 C   0  0  0  0  0  0  0  0  0  0  0  0
   -0.9960   -0.3966   -0.5576 C   0  0  0  0  0  0  0  0  0  0  0  0
   -1.0732   -0.4810   -1.8284 O   0  0  0  0  0  0  0  0  0  0  0  0
    0.1824   -0.8505    0.2705 C   0  0  1  0  0  0  0  0  0  0  0  0
    1.1336    0.2927    0.2580 C   0  0  0  0  0  0  0  0  0  0  0  0
    2.5230   -0.0512    0.4614 N   0  0  0  0  0  0  0  0  0  0  0  0
    3.3504    0.9196    1.1455 C   0  0  0  0  0  0  0  0  0  0  0  0
    3.9950    1.9029    0.2557 C   0  0  0  0  0  0  0  0  0  0  0  0
    3.3570    3.0794   -0.1395 C   0  0  0  0  0  0  0  0  0  0  0  0
    4.2177    3.8015   -0.9623 C   0  0  0  0  0  0  0  0  0  0  0  0
    5.3422    3.0543   -1.0444 N   0  0  0  0  0  0  0  0  0  0  0  0
    5.1873    1.9455   -0.3213 N   0  0  0  0  0  0  0  0  0  0  0  0
    6.2298    0.9489   -0.2077 C   0  0  0  0  0  0  0  0  0  0  0  0
    2.9751   -1.2952   -0.0211 C   0  0  0  0  0  0  0  0  0  0  0  0
    4.1899   -1.5164   -0.1530 O   0  0  0  0  0  0  0  0  0  0  0  0
    2.0498   -2.3767   -0.3862 C   0  0  0  0  0  0  0  0  0  0  0  0
    2.5248   -3.6014   -0.8674 C   0  0  0  0  0  0  0  0  0  0  0  0
    1.5693   -4.5535   -1.1871 C   0  0  0  0  0  0  0  0  0  0  0  0
    0.2335   -4.3062   -1.0393 C   0  0  0  0  0  0  0  0  0  0  0  0
   -0.6719   -5.2598   -1.3618 F   0  0  0  0  0  0  0  0  0  0  0  0
   -0.2254   -3.1069   -0.5683 C   0  0  0  0  0  0  0  0  0  0  0  0
    0.7169   -2.1285   -0.2380 C   0  0  0  0  0  0  0  0  0  0  0  0
   -0.2840   -0.4463    3.6479 H   0  0  0  0  0  0  0  0  0  0  0  0
    0.1615    0.7941    2.5006 H   0  0  0  0  0  0  0  0  0  0  0  0
    1.2465   -0.5401    2.8102 H   0  0  0  0  0  0  0  0  0  0  0  0
   -0.3096   -2.0722    1.8591 H   0  0  0  0  0  0  0  0  0  0  0  0
   -2.1084    0.0521    2.3802 H   0  0  0  0  0  0  0  0  0  0  0  0
   -2.5514   -1.4159    1.6024 H   0  0  0  0  0  0  0  0  0  0  0  0
   -1.7758    2.7951    0.5980 H   0  0  0  0  0  0  0  0  0  0  0  0
   -5.4771    3.8260   -0.9232 H   0  0  0  0  0  0  0  0  0  0  0  0
   -6.9589    2.0716   -1.6955 H   0  0  0  0  0  0  0  0  0  0  0  0
   -7.4461   -0.2301   -2.0796 H   0  0  0  0  0  0  0  0  0  0  0  0
   -5.8301   -1.9642   -1.5125 H   0  0  0  0  0  0  0  0  0  0  0  0
   -3.7061   -1.2554   -0.5416 H   0  0  0  0  0  0  0  0  0  0  0  0
    0.8447    0.9703    1.0341 H   0  0  0  0  0  0  0  0  0  0  0  0
    1.0757    0.7122   -0.7246 H   0  0  0  0  0  0  0  0  0  0  0  0
    4.1173    0.3929    1.6741 H   0  0  0  0  0  0  0  0  0  0  0  0
    2.7022    1.4718    1.7935 H   0  0  0  0  0  0  0  0  0  0  0  0
    2.4041    3.3670    0.1331 H   0  0  0  0  0  0  0  0  0  0  0  0
    4.0364    4.7120   -1.4130 H   0  0  0  0  0  0  0  0  0  0  0  0
    7.0790    1.2539   -0.7828 H   0  0  0  0  0  0  0  0  0  0  0  0
    5.8684    0.0112   -0.5751 H   0  0  0  0  0  0  0  0  0  0  0  0
    6.5131    0.8445    0.8188 H   0  0  0  0  0  0  0  0  0  0  0  0
    3.5340   -3.7864   -0.9786 H   0  0  0  0  0  0  0  0  0  0  0  0
    1.8744   -5.4719   -1.5456 H   0  0  0  0  0  0  0  0  0  0  0  0
   -1.2363   -2.9297   -0.4601 H   0  0  0  0  0  0  0  0  0  0  0  0
  1 36  1  0  0  0  0
  1 37  1  0  0  0  0
  1 38  1  0  0  0  0
  2  1  1  0  0  0  0
  2  3  1  0  0  0  0
  2 39  1  1  0  0  0
  3  4  1  0  0  0  0
  3 40  1  0  0  0  0
  3 41  1  0  0  0  0
  4  5  1  0  0  0  0
  4 15  1  0  0  0  0
  5  6  2  0  0  0  0
  6  7  1  0  0  0  0
  6 42  1  0  0  0  0
  7  8  2  0  0  0  0
  8  9  1  0  0  0  0
  8 43  1  0  0  0  0
  9 10  2  0  0  0  0
 10 11  1  0  0  0  0
 10 44  1  0  0  0  0
 11 12  2  0  0  0  0
 11 45  1  0  0  0  0
 12 13  1  0  0  0  0
 12 46  1  0  0  0  0
 13 14  2  0  0  0  0
 13 47  1  0  0  0  0
 14  5  1  0  0  0  0
 14  9  1  0  0  0  0
 15 16  2  0  0  0  0
 17 15  1  6  0  0  0
 17 18  1  0  0  0  0
 17  2  1  0  0  0  0
 18 19  1  0  0  0  0
 18 48  1  0  0  0  0
 18 49  1  0  0  0  0
 19 20  1  0  0  0  0
 19 27  1  0  0  0  0
 20 21  1  0  0  0  0
 20 50  1  0  0  0  0
 20 51  1  0  0  0  0
 21 22  2  0  0  0  0
 22 23  1  0  0  0  0
 22 52  1  0  0  0  0
 23 24  2  0  0  0  0
 23 53  1  0  0  0  0
 24 25  1  0  0  0  0
 25 26  1  0  0  0  0
 25 21  1  0  0  0  0
 26 54  1  0  0  0  0
 26 55  1  0  0  0  0
 26 56  1  0  0  0  0
 27 28  2  0  0  0  0
 27 29  1  0  0  0  0
 29 30  2  0  0  0  0
 30 31  1  0  0  0  0
 30 57  1  0  0  0  0
 31 32  2  0  0  0  0
 31 58  1  0  0  0  0
 32 33  1  0  0  0  0
 32 34  1  0  0  0  0
 34 35  2  0  0  0  0
 34 59  1  0  0  0  0
 35 29  1  0  0  0  0
 35 17  1  0  0  0  0
M  END
$$$$

 OpenBabel07292611443D

 40 42  0  0  0  0  0  0  0  0999 V2000
    0.5774   -0.7646   -1.4389 O   0  0  0  0  0  0  0  0  0  0  0  0
    0.0267   -0.7176   -0.3041 C   0  0  0  0  0  0  0  0  0  0  0  0
    0.8726   -0.8349    0.9176 C   0  0  0  0  0  0  0  0  0  0  0  0
    2.3111   -0.9836    0.5572 C   0  0  0  0  0  0  0  0  0  0  0  0
    2.9289   -2.2372    0.5894 C   0  0  0  0  0  0  0  0  0  0  0  0
    4.2259   -2.3988    0.2560 N   0  0  0  0  0  0  0  0  0  0  0  0
    4.9580   -1.3366   -0.1196 C   0  0  0  0  0  0  0  0  0  0  0  0
    4.4122   -0.0552   -0.1758 C   0  0  0  0  0  0  0  0  0  0  0  0
    5.2137    0.9944   -0.5627 C   0  0  0  0  0  0  0  0  0  0  0  0
    4.6516    2.2609   -0.6059 C   0  0  0  0  0  0  0  0  0  0  0  0
    3.3253    2.4518   -0.2694 C   0  0  0  0  0  0  0  0  0  0  0  0
    2.5306    1.3736    0.1201 C   0  0  0  0  0  0  0  0  0  0  0  0
    3.0812    0.0929    0.1691 C   0  0  0  0  0  0  0  0  0  0  0  0
   -1.3820   -0.5556   -0.2637 N   0  0  0  0  0  0  0  0  0  0  0  0
   -2.0800   -0.4775   -1.5322 C   0  0  0  0  0  0  0  0  0  0  0  0
   -3.2750    0.4332   -1.3887 C   0  0  0  0  0  0  0  0  0  0  0  0
   -4.2144   -0.0542   -0.3284 C   0  0  0  0  0  0  0  0  0  0  0  0
   -4.9637    1.0957    0.3372 C   0  0  0  0  0  0  0  0  0  0  0  0
   -5.8118    0.6095    1.3052 F   0  0  0  0  0  0  0  0  0  0  0  0
   -5.7221    1.7464   -0.6283 F   0  0  0  0  0  0  0  0  0  0  0  0
   -3.5767   -0.8788    0.7421 C   0  0  0  0  0  0  0  0  0  0  0  0
   -2.1207   -0.4642    0.9829 C   0  0  0  0  0  0  0  0  0  0  0  0
    0.5616   -1.6918    1.4779 H   0  0  0  0  0  0  0  0  0  0  0  0
    0.7567    0.0552    1.5000 H   0  0  0  0  0  0  0  0  0  0  0  0
    2.3778   -3.0613    0.8760 H   0  0  0  0  0  0  0  0  0  0  0  0
    5.9491   -1.4728   -0.3728 H   0  0  0  0  0  0  0  0  0  0  0  0
    6.2034    0.8433   -0.8131 H   0  0  0  0  0  0  0  0  0  0  0  0
    5.2284    3.0675   -0.8917 H   0  0  0  0  0  0  0  0  0  0  0  0
    2.9192    3.3998   -0.3065 H   0  0  0  0  0  0  0  0  0  0  0  0
    1.5406    1.5226    0.3707 H   0  0  0  0  0  0  0  0  0  0  0  0
   -2.4077   -1.4544   -1.8206 H   0  0  0  0  0  0  0  0  0  0  0  0
   -1.4212   -0.0891   -2.2805 H   0  0  0  0  0  0  0  0  0  0  0  0
   -3.7957    0.4729   -2.3226 H   0  0  0  0  0  0  0  0  0  0  0  0
   -2.9246    1.4037   -1.1055 H   0  0  0  0  0  0  0  0  0  0  0  0
   -4.8906   -0.6879   -0.8632 H   0  0  0  0  0  0  0  0  0  0  0  0
   -4.2601    1.7657    0.7855 H   0  0  0  0  0  0  0  0  0  0  0  0
   -3.6007   -1.9074    0.4485 H   0  0  0  0  0  0  0  0  0  0  0  0
   -4.1220   -0.7274    1.6502 H   0  0  0  0  0  0  0  0  0  0  0  0
   -1.6792   -1.1152    1.7083 H   0  0  0  0  0  0  0  0  0  0  0  0
   -2.0903    0.5426    1.3440 H   0  0  0  0  0  0  0  0  0  0  0  0
  1  2  2  0  0  0  0
  2  3  1  0  0  0  0
  2 14  1  0  0  0  0
  3  4  1  0  0  0  0
  3 23  1  0  0  0  0
  3 24  1  0  0  0  0
  4  5  2  0  0  0  0
  5  6  1  0  0  0  0
  5 25  1  0  0  0  0
  6  7  2  0  0  0  0
  7  8  1  0  0  0  0
  7 26  1  0  0  0  0
  8  9  2  0  0  0  0
  9 10  1  0  0  0  0
  9 27  1  0  0  0  0
 10 11  2  0  0  0  0
 10 28  1  0  0  0  0
 11 12  1  0  0  0  0
 11 29  1  0  0  0  0
 12 13  2  0  0  0  0
 12 30  1  0  0  0  0
 13  4  1  0  0  0  0
 13  8  1  0  0  0  0
 14 15  1  0  0  0  0
 15 16  1  0  0  0  0
 15 31  1  0  0  0  0
 15 32  1  0  0  0  0
 16 17  1  0  0  0  0
 16 33  1  0  0  0  0
 16 34  1  0  0  0  0
 17 18  1  0  0  0  0
 17 21  1  0  0  0  0
 17 35  1  0  0  0  0
 18 19  1  0  0  0  0
 18 20  1  0  0  0  0
 18 36  1  0  0  0  0
 21 22  1  0  0  0  0
 21 37  1  0  0  0  0
 21 38  1  0  0  0  0
 22 14  1  0  0  0  0
 22 39  1  0  0  0  0
 22 40  1  0  0  0  0
M  END
$$$$

 OpenBabel07292611443D

 43 45  0  0  0  0  0  0  0  0999 V2000
   -4.3277    0.4739    1.4389 C   0  0  0  0  0  0  0  0  0  0  0  0
   -3.7511   -0.2767    0.2552 C   0  0  0  0  0  0  0  0  0  0  0  0
   -4.8655   -1.2426   -0.1656 C   0  0  0  0  0  0  0  0  0  0  0  0
   -3.5495    0.6206   -0.9347 C   0  0  0  0  0  0  0  0  0  0  0  0
   -2.3834    1.5388   -0.6480 C   0  0  0  0  0  0  0  0  0  0  0  0
   -1.2205    0.6688   -0.5756 N   0  0  0  0  0  0  0  0  0  0  0  0
    0.0644    1.1325   -1.0570 C   0  0  0  0  0  0  0  0  0  0  0  0
    0.2033    2.3128   -1.4914 O   0  0  0  0  0  0  0  0  0  0  0  0
    1.2645    0.2787   -1.0668 C   0  0  0  0  0  0  0  0  0  0  0  0
    2.2738    0.6473   -0.0555 C   0  0  0  0  0  0  0  0  0  0  0  0
    2.0234    1.5869    0.9140 C   0  0  0  0  0  0  0  0  0  0  0  0
    3.0208    1.8285    1.8095 N   0  0  0  0  0  0  0  0  0  0  0  0
    4.2085    1.1984    1.7836 C   0  0  0  0  0  0  0  0  0  0  0  0
    4.4775    0.2514    0.8172 C   0  0  0  0  0  0  0  0  0  0  0  0
    5.6626   -0.4263    0.7349 C   0  0  0  0  0  0  0  0  0  0  0  0
    5.9382   -1.3706   -0.2220 C   0  0  0  0  0  0  0  0  0  0  0  0
    4.9579   -1.6497   -1.1554 C   0  0  0  0  0  0  0  0  0  0  0  0
    3.7431   -0.9721   -1.0909 C   0  0  0  0  0  0  0  0  0  0  0  0
    3.4910   -0.0293   -0.1207 C   0  0  0  0  0  0  0  0  0  0  0  0
   -1.2535   -0.6542   -0.0083 C   0  0  0  0  0  0  0  0  0  0  0  0
   -2.5526   -1.0820    0.5754 C   0  0  0  0  0  0  0  0  0  0  0  0
   -5.1872    1.0286    1.1251 H   0  0  0  0  0  0  0  0  0  0  0  0
   -3.5917    1.1462    1.8277 H   0  0  0  0  0  0  0  0  0  0  0  0
   -4.6112   -0.2232    2.1995 H   0  0  0  0  0  0  0  0  0  0  0  0
   -5.7481   -0.6867   -0.4041 H   0  0  0  0  0  0  0  0  0  0  0  0
   -5.0751   -1.9172    0.6381 H   0  0  0  0  0  0  0  0  0  0  0  0
   -4.5508   -1.7978   -1.0244 H   0  0  0  0  0  0  0  0  0  0  0  0
   -4.4328    1.2003   -1.1039 H   0  0  0  0  0  0  0  0  0  0  0  0
   -3.3499    0.0345   -1.8074 H   0  0  0  0  0  0  0  0  0  0  0  0
   -2.5279    2.0497    0.2810 H   0  0  0  0  0  0  0  0  0  0  0  0
   -2.2731    2.2913   -1.4006 H   0  0  0  0  0  0  0  0  0  0  0  0
    1.7173    0.3465   -2.0339 H   0  0  0  0  0  0  0  0  0  0  0  0
    0.9396   -0.7133   -0.8315 H   0  0  0  0  0  0  0  0  0  0  0  0
    1.1217    2.0866    0.9619 H   0  0  0  0  0  0  0  0  0  0  0  0
    4.9240    1.4249    2.4919 H   0  0  0  0  0  0  0  0  0  0  0  0
    6.3924   -0.2152    1.4334 H   0  0  0  0  0  0  0  0  0  0  0  0
    6.8483   -1.8567   -0.2439 H   0  0  0  0  0  0  0  0  0  0  0  0
    5.1244   -2.3528   -1.8923 H   0  0  0  0  0  0  0  0  0  0  0  0
    3.0127   -1.1825   -1.7890 H   0  0  0  0  0  0  0  0  0  0  0  0
   -0.5169   -0.6964    0.7666 H   0  0  0  0  0  0  0  0  0  0  0  0
   -1.0704   -1.3220   -0.8240 H   0  0  0  0  0  0  0  0  0  0  0  0
   -2.4409   -1.0787    1.6395 H   0  0  0  0  0  0  0  0  0  0  0  0
   -2.7445   -2.0378    0.1343 H   0  0  0  0  0  0  0  0  0  0  0  0
  1  2  1  0  0  0  0
  1 22  1  0  0  0  0
  1 23  1  0  0  0  0
  1 24  1  0  0  0  0
  2  3  1  0  0  0  0
  2  4  1  0  0  0  0
  3 25  1  0  0  0  0
  3 26  1  0  0  0  0
  3 27  1  0  0  0  0
  4  5  1  0  0  0  0
  4 28  1  0  0  0  0
  4 29  1  0  0  0  0
  5  6  1  0  0  0  0
  5 30  1  0  0  0  0
  5 31  1  0  0  0  0
  6  7  1  0  0  0  0
  6 20  1  0  0  0  0
  7  8  2  0  0  0  0
  7  9  1  0  0  0  0
  9 10  1  0  0  0  0
  9 32  1  0  0  0  0
  9 33  1  0  0  0  0
 10 11  2  0  0  0  0
 11 12  1  0  0  0  0
 11 34  1  0  0  0  0
 12 13  2  0  0  0  0
 13 14  1  0  0  0  0
 13 35  1  0  0  0  0
 14 15  2  0  0  0  0
 15 16  1  0  0  0  0
 15 36  1  0  0  0  0
 16 17  2  0  0  0  0
 16 37  1  0  0  0  0
 17 18  1  0  0  0  0
 17 38  1  0  0  0  0
 18 19  2  0  0  0  0
 18 39  1  0  0  0  0
 19 10  1  0  0  0  0
 19 14  1  0  0  0  0
 20 21  1  0  0  0  0
 20 40  1  0  0  0  0
 20 41  1  0  0  0  0
 21  2  1  0  0  0  0
 21 42  1  0  0  0  0
 21 43  1  0  0  0  0
M  END
$$$$

 OpenBabel07292611443D

 64 68  0  0  0  0  0  0  0  0999 V2000
    2.1060   -5.3365   -0.1885 C   0  0  0  0  0  0  0  0  0  0  0  0
    2.3223   -4.3272   -1.1931 N   0  0  0  0  0  0  0  0  0  0  0  0
    2.2198   -2.9320   -0.8495 C   0  0  0  0  0  0  0  0  0  0  0  0
    1.9389   -2.6899    0.3455 O   0  0  0  0  0  0  0  0  0  0  0  0
    2.4497   -1.9633   -1.9103 C   0  0  0  0  0  0  0  0  0  0  0  0
    2.3445   -0.5817   -1.5794 N   0  0  0  0  0  0  0  0  0  0  0  0
    1.0979    0.1198   -1.7479 C   0  0  0  0  0  0  0  0  0  0  0  0
    0.7998    0.9925   -0.5986 C   0  0  2  0  0  0  0  0  0  0  0  0
    0.3730    0.1303    0.5707 C   0  0  0  0  0  0  0  0  0  0  0  0
    0.9877   -0.0867    1.6388 O   0  0  0  0  0  0  0  0  0  0  0  0
   -0.9101   -0.3723    0.1467 N   0  0  0  0  0  0  0  0  0  0  0  0
   -1.4639   -1.6114    0.5589 C   0  0  0  0  0  0  0  0  0  0  0  0
   -1.2763   -2.7991   -0.0979 C   0  0  0  0  0  0  0  0  0  0  0  0
   -1.8159   -3.9666    0.3168 N   0  0  0  0  0  0  0  0  0  0  0  0
   -2.5822   -4.0267    1.4197 C   0  0  0  0  0  0  0  0  0  0  0  0
   -2.8095   -2.8638    2.1267 C   0  0  0  0  0  0  0  0  0  0  0  0
   -3.6036   -2.9691    3.2558 C   0  0  0  0  0  0  0  0  0  0  0  0
   -3.8579   -1.8364    3.9926 C   0  0  0  0  0  0  0  0  0  0  0  0
   -3.3172   -0.6368    3.5866 C   0  0  0  0  0  0  0  0  0  0  0  0
   -2.5182   -0.5186    2.4545 C   0  0  0  0  0  0  0  0  0  0  0  0
   -2.2605   -1.6650    1.7084 C   0  0  0  0  0  0  0  0  0  0  0  0
   -1.4958    0.6069   -0.7460 C   0  0  0  0  0  0  0  0  0  0  0  0
   -0.4926    1.7763   -0.7725 C   0  0  2  0  0  0  0  0  0  0  0  0
   -0.6222    2.4468   -2.0850 C   0  0  0  0  0  0  0  0  0  0  0  0
   -2.0912    3.3672   -2.3739 S   0  0  0  0  0  0  0  0  0  0  0  0
   -2.0387    4.0058   -3.7624 O   0  0  0  0  0  0  0  0  0  0  0  0
   -3.2869    2.4431   -2.3017 O   0  0  0  0  0  0  0  0  0  0  0  0
   -2.2731    4.6386   -1.2618 N   0  0  0  0  0  0  0  0  0  0  0  0
   -2.3970    4.2737    0.1017 C   0  0  0  0  0  0  0  0  0  0  0  0
    1.9504    1.7591   -0.1580 C   0  0  0  0  0  0  0  0  0  0  0  0
    1.8193    2.9665    0.5442 C   0  0  0  0  0  0  0  0  0  0  0  0
    2.9470    3.6708    0.9744 C   0  0  0  0  0  0  0  0  0  0  0  0
    2.8053    4.8404    1.6544 F   0  0  0  0  0  0  0  0  0  0  0  0
    4.2275    3.2265    0.7369 C   0  0  0  0  0  0  0  0  0  0  0  0
    4.3589    2.0441    0.0488 C   0  0  0  0  0  0  0  0  0  0  0  0
    3.2508    1.3526   -0.3740 C   0  0  0  0  0  0  0  0  0  0  0  0
    3.4860    0.1218   -1.1188 C   0  0  0  0  0  0  0  0  0  0  0  0
    4.6264   -0.3073   -1.3495 O   0  0  0  0  0  0  0  0  0  0  0  0
    2.2233   -6.3060   -0.6259 H   0  0  0  0  0  0  0  0  0  0  0  0
    1.1160   -5.2406    0.2061 H   0  0  0  0  0  0  0  0  0  0  0  0
    2.8180   -5.2127    0.6006 H   0  0  0  0  0  0  0  0  0  0  0  0
    2.5405   -4.5913   -2.1161 H   0  0  0  0  0  0  0  0  0  0  0  0
    1.7378   -2.1617   -2.6841 H   0  0  0  0  0  0  0  0  0  0  0  0
    3.4755   -2.0989   -2.1827 H   0  0  0  0  0  0  0  0  0  0  0  0
    0.3094   -0.5959   -1.8527 H   0  0  0  0  0  0  0  0  0  0  0  0
    1.1783    0.7349   -2.6197 H   0  0  0  0  0  0  0  0  0  0  0  0
   -0.6948   -2.8023   -0.9505 H   0  0  0  0  0  0  0  0  0  0  0  0
   -2.9910   -4.9219    1.7304 H   0  0  0  0  0  0  0  0  0  0  0  0
   -3.9971   -3.8801    3.5390 H   0  0  0  0  0  0  0  0  0  0  0  0
   -4.4464   -1.8846    4.8390 H   0  0  0  0  0  0  0  0  0  0  0  0
   -3.5128    0.2087    4.1450 H   0  0  0  0  0  0  0  0  0  0  0  0
   -2.1269    0.3945    2.1751 H   0  0  0  0  0  0  0  0  0  0  0  0
   -2.4444    0.9340   -0.3745 H   0  0  0  0  0  0  0  0  0  0  0  0
   -1.6700    0.2057   -1.7225 H   0  0  0  0  0  0  0  0  0  0  0  0
   -0.5984    2.5597   -0.0514 H   0  0  0  0  0  0  0  0  0  0  0  0
   -0.5619    1.6911   -2.8401 H   0  0  0  0  0  0  0  0  0  0  0  0
    0.1656    3.1706   -2.1044 H   0  0  0  0  0  0  0  0  0  0  0  0
   -3.1113    5.1590   -1.5206 H   0  0  0  0  0  0  0  0  0  0  0  0
   -1.5300    3.7244    0.4041 H   0  0  0  0  0  0  0  0  0  0  0  0
   -3.2676    3.6651    0.2303 H   0  0  0  0  0  0  0  0  0  0  0  0
   -2.4870    5.1560    0.7003 H   0  0  0  0  0  0  0  0  0  0  0  0
    0.8783    3.3392    0.7456 H   0  0  0  0  0  0  0  0  0  0  0  0
    5.0515    3.7569    1.0607 H   0  0  0  0  0  0  0  0  0  0  0  0
    5.3003    1.6722   -0.1522 H   0  0  0  0  0  0  0  0  0  0  0  0
  1  2  1  0  0  0  0
  1 39  1  0  0  0  0
  1 40  1  0  0  0  0
  1 41  1  0  0  0  0
  2  3  1  0  0  0  0
  2 42  1  0  0  0  0
  3  4  2  0  0  0  0
  3  5  1  0  0  0  0
  5  6  1  0  0  0  0
  5 43  1  0  0  0  0
  5 44  1  0  0  0  0
  6  7  1  0  0  0  0
  7 45  1  0  0  0  0
  7 46  1  0  0  0  0
  8  7  1  0  0  0  0
  8  9  1  1  0  0  0
  8 30  1  0  0  0  0
  9 10  2  0  0  0  0
  9 11  1  0  0  0  0
 11 12  1  0  0  0  0
 11 22  1  0  0  0  0
 12 13  2  0  0  0  0
 13 14  1  0  0  0  0
 13 47  1  0  0  0  0
 14 15  2  0  0  0  0
 15 16  1  0  0  0  0
 15 48  1  0  0  0  0
 16 17  2  0  0  0  0
 17 18  1  0  0  0  0
 17 49  1  0  0  0  0
 18 19  2  0  0  0  0
 18 50  1  0  0  0  0
 19 20  1  0  0  0  0
 19 51  1  0  0  0  0
 20 21  2  0  0  0  0
 20 52  1  0  0  0  0
 21 12  1  0  0  0  0
 21 16  1  0  0  0  0
 22 23  1  0  0  0  0
 22 53  1  0  0  0  0
 22 54  1  0  0  0  0
 23 24  1  0  0  0  0
 23  8  1  0  0  0  0
 23 55  1  1  0  0  0
 24 25  1  0  0  0  0
 24 56  1  0  0  0  0
 24 57  1  0  0  0  0
 25 26  2  0  0  0  0
 25 27  2  0  0  0  0
 25 28  1  0  0  0  0
 28 29  1  0  0  0  0
 28 58  1  0  0  0  0
 29 59  1  0  0  0  0
 29 60  1  0  0  0  0
 29 61  1  0  0  0  0
 30 31  2  0  0  0  0
 31 32  1  0  0  0  0
 31 62  1  0  0  0  0
 32 33  1  0  0  0  0
 32 34  2  0  0  0  0
 34 35  1  0  0  0  0
 34 63  1  0  0  0  0
 35 36  2  0  0  0  0
 35 64  1  0  0  0  0
 36 37  1  0  0  0  0
 36 30  1  0  0  0  0
 37 38  2  0  0  0  0
 37  6  1  0  0  0  0
M  END
$$$$

 OpenBabel07292611443D

 66 71  0  0  0  0  0  0  0  0999 V2000
    4.7889   -1.8476   -2.3037 C   0  0  0  0  0  0  0  0  0  0  0  0
    4.0607   -0.6045   -2.1623 N   0  0  0  0  0  0  0  0  0  0  0  0
    3.9032    0.3541   -3.1843 C   0  0  0  0  0  0  0  0  0  0  0  0
    4.4064    0.1770   -4.3396 O   0  0  0  0  0  0  0  0  0  0  0  0
    3.1282    1.5873   -2.8692 C   0  0  0  0  0  0  0  0  0  0  0  0
    2.6292    1.5964   -1.4912 N   0  0  0  0  0  0  0  0  0  0  0  0
    1.3182    1.0963   -1.2353 C   0  0  0  0  0  0  0  0  0  0  0  0
    0.8664    1.0039    0.1743 C   0  0  2  0  0  0  0  0  0  0  0  0
    0.7544   -0.4464    0.4912 C   0  0  0  0  0  0  0  0  0  0  0  0
    1.6700   -1.3217    0.4245 O   0  0  0  0  0  0  0  0  0  0  0  0
   -0.5536   -0.7577    0.8978 N   0  0  0  0  0  0  0  0  0  0  0  0
   -1.0410   -1.9787    1.4590 C   0  0  0  0  0  0  0  0  0  0  0  0
   -0.9396   -2.1189    2.8464 C   0  0  0  0  0  0  0  0  0  0  0  0
   -1.3927   -3.2515    3.4585 N   0  0  0  0  0  0  0  0  0  0  0  0
   -1.9442   -4.2405    2.7007 C   0  0  0  0  0  0  0  0  0  0  0  0
   -2.0551   -4.1307    1.3494 C   0  0  0  0  0  0  0  0  0  0  0  0
   -2.6320   -5.1743    0.6386 C   0  0  0  0  0  0  0  0  0  0  0  0
   -2.7342   -5.0281   -0.7334 C   0  0  0  0  0  0  0  0  0  0  0  0
   -2.2796   -3.8894   -1.3613 C   0  0  0  0  0  0  0  0  0  0  0  0
   -1.7091   -2.8617   -0.6370 C   0  0  0  0  0  0  0  0  0  0  0  0
   -1.5972   -2.9904    0.7399 C   0  0  0  0  0  0  0  0  0  0  0  0
   -1.3963    0.3755    0.6555 C   0  0  0  0  0  0  0  0  0  0  0  0
   -0.4965    1.5448    0.4686 C   0  0  2  0  0  0  0  0  0  0  0  0
   -1.0194    2.5255   -0.5616 C   0  0  0  0  0  0  0  0  0  0  0  0
   -2.3142    3.0795   -0.2870 N   0  0  0  0  0  0  0  0  0  0  0  0
   -3.5495    2.4066   -0.3235 C   0  0  0  0  0  0  0  0  0  0  0  0
   -4.0748    2.1779   -1.6053 C   0  0  0  0  0  0  0  0  0  0  0  0
   -5.2630    1.5513   -1.7701 N   0  0  0  0  0  0  0  0  0  0  0  0
   -5.9539    1.1410   -0.7054 C   0  0  0  0  0  0  0  0  0  0  0  0
   -5.4581    1.3550    0.5603 C   0  0  0  0  0  0  0  0  0  0  0  0
   -4.2583    1.9874    0.7319 N   0  0  0  0  0  0  0  0  0  0  0  0
    1.8569    1.5222    1.1763 C   0  0  0  0  0  0  0  0  0  0  0  0
    1.5146    1.4654    2.5259 C   0  0  0  0  0  0  0  0  0  0  0  0
    2.3866    1.9515    3.4881 C   0  0  0  0  0  0  0  0  0  0  0  0
    1.9669    1.8907    5.1862 Cl  0  0  0  0  0  0  0  0  0  0  0  0
    3.6003    2.4978    3.1558 C   0  0  0  0  0  0  0  0  0  0  0  0
    3.9471    2.5564    1.8184 C   0  0  0  0  0  0  0  0  0  0  0  0
    3.0664    2.0676    0.8716 C   0  0  0  0  0  0  0  0  0  0  0  0
    3.5111    2.1291   -0.5156 C   0  0  0  0  0  0  0  0  0  0  0  0
    4.6094    2.6239   -0.8336 O   0  0  0  0  0  0  0  0  0  0  0  0
    4.7541   -2.3883   -1.3810 H   0  0  0  0  0  0  0  0  0  0  0  0
    5.8074   -1.6377   -2.5558 H   0  0  0  0  0  0  0  0  0  0  0  0
    4.3435   -2.4357   -3.0788 H   0  0  0  0  0  0  0  0  0  0  0  0
    3.6456   -0.4148   -1.2900 H   0  0  0  0  0  0  0  0  0  0  0  0
    2.2945    1.6493   -3.5370 H   0  0  0  0  0  0  0  0  0  0  0  0
    3.7853    2.4239   -2.9839 H   0  0  0  0  0  0  0  0  0  0  0  0
    1.2679    0.1112   -1.6499 H   0  0  0  0  0  0  0  0  0  0  0  0
    0.6668    1.8221   -1.6756 H   0  0  0  0  0  0  0  0  0  0  0  0
   -0.5204   -1.3628    3.4100 H   0  0  0  0  0  0  0  0  0  0  0  0
   -2.2871   -5.0962    3.1646 H   0  0  0  0  0  0  0  0  0  0  0  0
   -2.9710   -6.0250    1.1145 H   0  0  0  0  0  0  0  0  0  0  0  0
   -3.1574   -5.7835   -1.2949 H   0  0  0  0  0  0  0  0  0  0  0  0
   -2.3666   -3.8034   -2.3860 H   0  0  0  0  0  0  0  0  0  0  0  0
   -1.3710   -2.0106   -1.1127 H   0  0  0  0  0  0  0  0  0  0  0  0
   -2.0443    0.5386    1.4912 H   0  0  0  0  0  0  0  0  0  0  0  0
   -2.0108    0.2209   -0.2067 H   0  0  0  0  0  0  0  0  0  0  0  0
   -0.4506    2.1379    1.3580 H   0  0  0  0  0  0  0  0  0  0  0  0
   -1.0707    2.0188   -1.5026 H   0  0  0  0  0  0  0  0  0  0  0  0
   -0.3390    3.3513   -0.5523 H   0  0  0  0  0  0  0  0  0  0  0  0
   -2.3413    4.0339   -0.0470 H   0  0  0  0  0  0  0  0  0  0  0  0
   -3.5468    2.4924   -2.4344 H   0  0  0  0  0  0  0  0  0  0  0  0
   -6.8600    0.6632   -0.8308 H   0  0  0  0  0  0  0  0  0  0  0  0
   -5.9939    1.0369    1.3829 H   0  0  0  0  0  0  0  0  0  0  0  0
    0.6091    1.0602    2.8102 H   0  0  0  0  0  0  0  0  0  0  0  0
    4.2376    2.8555    3.8845 H   0  0  0  0  0  0  0  0  0  0  0  0
    4.8523    2.9601    1.5307 H   0  0  0  0  0  0  0  0  0  0  0  0
  1  2  1  0  0  0  0
  1 41  1  0  0  0  0
  1 42  1  0  0  0  0
  1 43  1  0  0  0  0
  2  3  1  0  0  0  0
  2 44  1  0  0  0  0
  3  4  2  0  0  0  0
  3  5  1  0  0  0  0
  5  6  1  0  0  0  0
  5 45  1  0  0  0  0
  5 46  1  0  0  0  0
  6  7  1  0  0  0  0
  7 47  1  0  0  0  0
  7 48  1  0  0  0  0
  8  7  1  0  0  0  0
  8  9  1  1  0  0  0
  8 32  1  0  0  0  0
  9 10  2  0  0  0  0
  9 11  1  0  0  0  0
 11 12  1  0  0  0  0
 11 22  1  0  0  0  0
 12 13  2  0  0  0  0
 13 14  1  0  0  0  0
 13 49  1  0  0  0  0
 14 15  2  0  0  0  0
 15 16  1  0  0  0  0
 15 50  1  0  0  0  0
 16 17  2  0  0  0  0
 17 18  1  0  0  0  0
 17 51  1  0  0  0  0
 18 19  2  0  0  0  0
 18 52  1  0  0  0  0
 19 20  1  0  0  0  0
 19 53  1  0  0  0  0
 20 21  2  0  0  0  0
 20 54  1  0  0  0  0
 21 12  1  0  0  0  0
 21 16  1  0  0  0  0
 22 23  1  0  0  0  0
 22 55  1  0  0  0  0
 22 56  1  0  0  0  0
 23 24  1  0  0  0  0
 23  8  1  0  0  0  0
 23 57  1  1  0  0  0
 24 25  1  0  0  0  0
 24 58  1  0  0  0  0
 24 59  1  0  0  0  0
 25 26  1  0  0  0  0
 25 60  1  0  0  0  0
 26 27  2  0  0  0  0
 27 28  1  0  0  0  0
 27 61  1  0  0  0  0
 28 29  2  0  0  0  0
 29 30  1  0  0  0  0
 29 62  1  0  0  0  0
 30 31  2  0  0  0  0
 30 63  1  0  0  0  0
 31 26  1  0  0  0  0
 32 33  2  0  0  0  0
 33 34  1  0  0  0  0
 33 64  1  0  0  0  0
 34 35  1  0  0  0  0
 34 36  2  0  0  0  0
 36 37  1  0  0  0  0
 36 65  1  0  0  0  0
 37 38  2  0  0  0  0
 37 66  1  0  0  0  0
 38 39  1  0  0  0  0
 38 32  1  0  0  0  0
 39 40  2  0  0  0  0
 39  6  1  0  0  0  0
M  END
$$$$

 OpenBabel07292611443D

 60 65  0  0  0  0  0  0  0  0999 V2000
    1.2419    4.0565    1.9357 C   0  0  0  0  0  0  0  0  0  0  0  0
    0.2168    4.0946    1.0803 O   0  0  0  0  0  0  0  0  0  0  0  0
   -0.4881    3.0373    0.6634 C   0  0  0  0  0  0  0  0  0  0  0  0
    0.2418    2.0276   -0.1189 C   0  0  1  0  0  0  0  0  0  0  0  0
    1.3717    1.3699    0.5685 C   0  0  0  0  0  0  0  0  0  0  0  0
    1.3566   -0.0295    0.0814 N   0  0  0  0  0  0  0  0  0  0  0  0
    2.1788   -1.0745    0.6026 C   0  0  0  0  0  0  0  0  0  0  0  0
    1.7995   -1.8868    1.6471 C   0  0  0  0  0  0  0  0  0  0  0  0
    2.6156   -2.8550    2.0938 N   0  0  0  0  0  0  0  0  0  0  0  0
    3.8181   -3.0305    1.5110 C   0  0  0  0  0  0  0  0  0  0  0  0
    4.2586   -2.2564    0.4659 C   0  0  0  0  0  0  0  0  0  0  0  0
    5.5089   -2.4604   -0.1186 C   0  0  0  0  0  0  0  0  0  0  0  0
    5.8798   -1.6378   -1.1680 C   0  0  0  0  0  0  0  0  0  0  0  0
    5.0470   -0.6297   -1.6437 C   0  0  0  0  0  0  0  0  0  0  0  0
    3.8048   -0.4445   -1.0457 C   0  0  0  0  0  0  0  0  0  0  0  0
    3.4116   -1.2500    0.0008 C   0  0  0  0  0  0  0  0  0  0  0  0
    0.3994   -0.0994   -0.9732 C   0  0  0  0  0  0  0  0  0  0  0  0
    0.4861   -0.8644   -1.9582 O   0  0  0  0  0  0  0  0  0  0  0  0
   -0.6355    0.9006   -0.6067 C   0  0  1  0  0  0  0  0  0  0  0  0
   -1.4092    0.2701    0.5379 C   0  0  0  0  0  0  0  0  0  0  0  0
   -2.1716   -0.8536   -0.0161 N   0  0  0  0  0  0  0  0  0  0  0  0
   -2.0468   -2.2025    0.4734 C   0  0  0  0  0  0  0  0  0  0  0  0
   -3.0360   -2.4187    1.5790 C   0  0  0  0  0  0  0  0  0  0  0  0
   -2.8738   -2.2149    2.9311 C   0  0  0  0  0  0  0  0  0  0  0  0
   -4.0354   -2.5443    3.5424 N   0  0  0  0  0  0  0  0  0  0  0  0
   -4.9196   -2.9439    2.6518 N   0  0  0  0  0  0  0  0  0  0  0  0
   -4.3276   -2.8762    1.4284 C   0  0  0  0  0  0  0  0  0  0  0  0
   -3.0574   -0.5180   -1.0808 C   0  0  0  0  0  0  0  0  0  0  0  0
   -4.1025   -1.1902   -1.2449 O   0  0  0  0  0  0  0  0  0  0  0  0
   -2.6742    0.6098   -1.9220 C   0  0  0  0  0  0  0  0  0  0  0  0
   -3.5464    0.9345   -2.9430 C   0  0  0  0  0  0  0  0  0  0  0  0
   -3.3058    1.9862   -3.8020 C   0  0  0  0  0  0  0  0  0  0  0  0
   -2.1556    2.7027   -3.5999 C   0  0  0  0  0  0  0  0  0  0  0  0
   -1.8281    4.0403   -4.6750 Cl  0  0  0  0  0  0  0  0  0  0  0  0
   -1.2700    2.3733   -2.5639 C   0  0  0  0  0  0  0  0  0  0  0  0
   -1.4908    1.3346   -1.7022 C   0  0  0  0  0  0  0  0  0  0  0  0
    1.6157    5.0473    2.0888 H   0  0  0  0  0  0  0  0  0  0  0  0
    2.0189    3.4402    1.5340 H   0  0  0  0  0  0  0  0  0  0  0  0
    0.9123    3.6514    2.8696 H   0  0  0  0  0  0  0  0  0  0  0  0
   -1.2907    3.4008    0.0563 H   0  0  0  0  0  0  0  0  0  0  0  0
   -0.7976    2.5342    1.5556 H   0  0  0  0  0  0  0  0  0  0  0  0
    0.6139    2.6297   -0.9213 H   0  0  0  0  0  0  0  0  0  0  0  0
    1.2352    1.4001    1.6293 H   0  0  0  0  0  0  0  0  0  0  0  0
    2.3031    1.8557    0.3649 H   0  0  0  0  0  0  0  0  0  0  0  0
    0.8782   -1.7502    2.0916 H   0  0  0  0  0  0  0  0  0  0  0  0
    4.4342   -3.7787    1.8654 H   0  0  0  0  0  0  0  0  0  0  0  0
    6.1391   -3.2034    0.2218 H   0  0  0  0  0  0  0  0  0  0  0  0
    6.8016   -1.7762   -1.6109 H   0  0  0  0  0  0  0  0  0  0  0  0
    5.3462   -0.0290   -2.4277 H   0  0  0  0  0  0  0  0  0  0  0  0
    3.1755    0.2988   -1.3870 H   0  0  0  0  0  0  0  0  0  0  0  0
   -2.0759    0.9879    0.9682 H   0  0  0  0  0  0  0  0  0  0  0  0
   -0.7431   -0.0662    1.3048 H   0  0  0  0  0  0  0  0  0  0  0  0
   -1.0554   -2.3583    0.8446 H   0  0  0  0  0  0  0  0  0  0  0  0
   -2.2390   -2.8927   -0.3213 H   0  0  0  0  0  0  0  0  0  0  0  0
   -2.0185   -1.8719    3.3957 H   0  0  0  0  0  0  0  0  0  0  0  0
   -5.8407   -3.2379    2.8373 H   0  0  0  0  0  0  0  0  0  0  0  0
   -4.7737   -3.1270    0.5322 H   0  0  0  0  0  0  0  0  0  0  0  0
   -4.4036    0.3733   -3.0666 H   0  0  0  0  0  0  0  0  0  0  0  0
   -3.9622    2.2228   -4.5624 H   0  0  0  0  0  0  0  0  0  0  0  0
   -0.4149    2.9390   -2.4466 H   0  0  0  0  0  0  0  0  0  0  0  0
  1  2  1  0  0  0  0
  1 37  1  0  0  0  0
  1 38  1  0  0  0  0
  1 39  1  0  0  0  0
  2  3  1  0  0  0  0
  3 40  1  0  0  0  0
  3 41  1  0  0  0  0
  4  3  1  0  0  0  0
  4  5  1  0  0  0  0
  4 42  1  6  0  0  0
  5  6  1  0  0  0  0
  5 43  1  0  0  0  0
  5 44  1  0  0  0  0
  6  7  1  0  0  0  0
  6 17  1  0  0  0  0
  7  8  2  0  0  0  0
  8  9  1  0  0  0  0
  8 45  1  0  0  0  0
  9 10  2  0  0  0  0
 10 11  1  0  0  0  0
 10 46  1  0  0  0  0
 11 12  2  0  0  0  0
 12 13  1  0  0  0  0
 12 47  1  0  0  0  0
 13 14  2  0  0  0  0
 13 48  1  0  0  0  0
 14 15  1  0  0  0  0
 14 49  1  0  0  0  0
 15 16  2  0  0  0  0
 15 50  1  0  0  0  0
 16  7  1  0  0  0  0
 16 11  1  0  0  0  0
 17 18  2  0  0  0  0
 19 17  1  6  0  0  0
 19 20  1  0  0  0  0
 19  4  1  0  0  0  0
 20 21  1  0  0  0  0
 20 51  1  0  0  0  0
 20 52  1  0  0  0  0
 21 22  1  0  0  0  0
 21 28  1  0  0  0  0
 22 23  1  0  0  0  0
 22 53  1  0  0  0  0
 22 54  1  0  0  0  0
 23 24  1  0  0  0  0
 24 25  2  0  0  0  0
 24 55  1  0  0  0  0
 25 26  1  0  0  0  0
 26 27  1  0  0  0  0
 26 56  1  0  0  0  0
 27 23  2  0  0  0  0
 27 57  1  0  0  0  0
 28 29  2  0  0  0  0
 28 30  1  0  0  0  0
 30 31  2  0  0  0  0
 31 32  1  0  0  0  0
 31 58  1  0  0  0  0
 32 33  2  0  0  0  0
 32 59  1  0  0  0  0
 33 34  1  0  0  0  0
 33 35  1  0  0  0  0
 35 36  2  0  0  0  0
 35 60  1  0  0  0  0
 36 30  1  0  0  0  0
 36 19  1  0  0  0  0
M  END
$$$$

 OpenBabel07292611443D

 62 67  0  0  0  0  0  0  0  0999 V2000
   -5.4791    1.2531   -2.1369 C   0  0  0  0  0  0  0  0  0  0  0  0
   -4.4826    1.0435   -1.0003 C   0  0  0  0  0  0  0  0  0  0  0  0
   -3.1945    1.5064   -1.4428 N   0  0  0  0  0  0  0  0  0  0  0  0
   -2.7893    2.7653   -1.2744 N   0  0  0  0  0  0  0  0  0  0  0  0
   -1.5598    2.9357   -1.7828 C   0  0  0  0  0  0  0  0  0  0  0  0
   -1.2001    1.7075   -2.2884 C   0  0  0  0  0  0  0  0  0  0  0  0
   -2.2494    0.7986   -2.0675 C   0  0  0  0  0  0  0  0  0  0  0  0
   -2.1583   -0.5997   -2.5002 C   0  0  0  0  0  0  0  0  0  0  0  0
   -1.5761   -1.5251   -1.5747 N   0  0  0  0  0  0  0  0  0  0  0  0
   -0.1570   -1.7568   -1.5837 C   0  0  0  0  0  0  0  0  0  0  0  0
    0.4174   -1.5931   -0.2189 C   0  0  2  0  0  0  0  0  0  0  0  0
    0.4075   -0.1499    0.1355 C   0  0  0  0  0  0  0  0  0  0  0  0
   -0.5518    0.4833    0.6431 O   0  0  0  0  0  0  0  0  0  0  0  0
    1.6504    0.4670   -0.1713 N   0  0  0  0  0  0  0  0  0  0  0  0
    2.1335    1.7606    0.0536 C   0  0  0  0  0  0  0  0  0  0  0  0
    2.0202    2.8207   -0.8189 C   0  0  0  0  0  0  0  0  0  0  0  0
    2.4923    4.0489   -0.5720 N   0  0  0  0  0  0  0  0  0  0  0  0
    3.1233    4.3433    0.5662 C   0  0  0  0  0  0  0  0  0  0  0  0
    3.2690    3.3138    1.4876 C   0  0  0  0  0  0  0  0  0  0  0  0
    3.9318    3.6522    2.6661 C   0  0  0  0  0  0  0  0  0  0  0  0
    4.1029    2.6629    3.6172 C   0  0  0  0  0  0  0  0  0  0  0  0
    3.6350    1.3699    3.4181 C   0  0  0  0  0  0  0  0  0  0  0  0
    2.9858    1.0951    2.2296 C   0  0  0  0  0  0  0  0  0  0  0  0
    2.7923    2.0430    1.2569 C   0  0  0  0  0  0  0  0  0  0  0  0
    2.4330   -0.5807   -0.8252 C   0  0  0  0  0  0  0  0  0  0  0  0
    1.8979   -1.8804   -0.1944 C   0  0  2  0  0  0  0  0  0  0  0  0
    2.3015   -3.0438   -1.0436 C   0  0  0  0  0  0  0  0  0  0  0  0
   -0.3816   -2.3480    0.7681 C   0  0  0  0  0  0  0  0  0  0  0  0
    0.1613   -2.7950    1.9836 C   0  0  0  0  0  0  0  0  0  0  0  0
   -0.5983   -3.4979    2.9018 C   0  0  0  0  0  0  0  0  0  0  0  0
   -0.0508   -3.9245    4.0796 F   0  0  0  0  0  0  0  0  0  0  0  0
   -1.9226   -3.7982    2.6793 C   0  0  0  0  0  0  0  0  0  0  0  0
   -2.4701   -3.3670    1.4926 C   0  0  0  0  0  0  0  0  0  0  0  0
   -1.7142   -2.6731    0.5896 C   0  0  0  0  0  0  0  0  0  0  0  0
   -2.3598   -2.2468   -0.6411 C   0  0  0  0  0  0  0  0  0  0  0  0
   -3.5665   -2.5090   -0.8709 O   0  0  0  0  0  0  0  0  0  0  0  0
   -6.4467    0.9151   -1.8298 H   0  0  0  0  0  0  0  0  0  0  0  0
   -5.1631    0.6978   -2.9952 H   0  0  0  0  0  0  0  0  0  0  0  0
   -5.5261    2.2934   -2.3827 H   0  0  0  0  0  0  0  0  0  0  0  0
   -4.4287    0.0040   -0.7526 H   0  0  0  0  0  0  0  0  0  0  0  0
   -4.7925    1.5858   -0.1315 H   0  0  0  0  0  0  0  0  0  0  0  0
   -1.0019    3.8038   -1.7927 H   0  0  0  0  0  0  0  0  0  0  0  0
   -0.3054    1.4892   -2.7541 H   0  0  0  0  0  0  0  0  0  0  0  0
   -1.5718   -0.6242   -3.3948 H   0  0  0  0  0  0  0  0  0  0  0  0
   -3.1714   -0.9227   -2.6195 H   0  0  0  0  0  0  0  0  0  0  0  0
    0.3080   -1.0566   -2.2457 H   0  0  0  0  0  0  0  0  0  0  0  0
    0.0235   -2.7589   -1.9125 H   0  0  0  0  0  0  0  0  0  0  0  0
    1.5417    2.6580   -1.7187 H   0  0  0  0  0  0  0  0  0  0  0  0
    3.4860    5.2912    0.7533 H   0  0  0  0  0  0  0  0  0  0  0  0
    4.2833    4.6096    2.8238 H   0  0  0  0  0  0  0  0  0  0  0  0
    4.5907    2.8910    4.4976 H   0  0  0  0  0  0  0  0  0  0  0  0
    3.7679    0.6388    4.1342 H   0  0  0  0  0  0  0  0  0  0  0  0
    2.6326    0.1391    2.0673 H   0  0  0  0  0  0  0  0  0  0  0  0
    3.4769   -0.4599   -0.6235 H   0  0  0  0  0  0  0  0  0  0  0  0
    2.3382   -0.5663   -1.8909 H   0  0  0  0  0  0  0  0  0  0  0  0
    2.2560   -2.1323    0.7819 H   0  0  0  0  0  0  0  0  0  0  0  0
    1.9809   -2.8783   -2.0509 H   0  0  0  0  0  0  0  0  0  0  0  0
    1.8463   -3.9357   -0.6663 H   0  0  0  0  0  0  0  0  0  0  0  0
    3.3660   -3.1496   -1.0210 H   0  0  0  0  0  0  0  0  0  0  0  0
    1.1508   -2.5943    2.1971 H   0  0  0  0  0  0  0  0  0  0  0  0
   -2.4801   -4.3231    3.3711 H   0  0  0  0  0  0  0  0  0  0  0  0
   -3.4601   -3.5693    1.2827 H   0  0  0  0  0  0  0  0  0  0  0  0
  1  2  1  0  0  0  0
  1 37  1  0  0  0  0
  1 38  1  0  0  0  0
  1 39  1  0  0  0  0
  2  3  1  0  0  0  0
  2 40  1  0  0  0  0
  2 41  1  0  0  0  0
  3  4  1  0  0  0  0
  4  5  2  0  0  0  0
  5  6  1  0  0  0  0
  5 42  1  0  0  0  0
  6  7  2  0  0  0  0
  6 43  1  0  0  0  0
  7  8  1  0  0  0  0
  7  3  1  0  0  0  0
  8  9  1  0  0  0  0
  8 44  1  0  0  0  0
  8 45  1  0  0  0  0
  9 10  1  0  0  0  0
 10 46  1  0  0  0  0
 10 47  1  0  0  0  0
 11 10  1  0  0  0  0
 11 12  1  1  0  0  0
 11 28  1  0  0  0  0
 12 13  2  0  0  0  0
 12 14  1  0  0  0  0
 14 15  1  0  0  0  0
 14 25  1  0  0  0  0
 15 16  2  0  0  0  0
 16 17  1  0  0  0  0
 16 48  1  0  0  0  0
 17 18  2  0  0  0  0
 18 19  1  0  0  0  0
 18 49  1  0  0  0  0
 19 20  2  0  0  0  0
 20 21  1  0  0  0  0
 20 50  1  0  0  0  0
 21 22  2  0  0  0  0
 21 51  1  0  0  0  0
 22 23  1  0  0  0  0
 22 52  1  0  0  0  0
 23 24  2  0  0  0  0
 23 53  1  0  0  0  0
 24 15  1  0  0  0  0
 24 19  1  0  0  0  0
 25 26  1  0  0  0  0
 25 54  1  0  0  0  0
 25 55  1  0  0  0  0
 26 27  1  0  0  0  0
 26 11  1  0  0  0  0
 26 56  1  1  0  0  0
 27 57  1  0  0  0  0
 27 58  1  0  0  0  0
 27 59  1  0  0  0  0
 28 29  2  0  0  0  0
 29 30  1  0  0  0  0
 29 60  1  0  0  0  0
 30 31  1  0  0  0  0
 30 32  2  0  0  0  0
 32 33  1  0  0  0  0
 32 61  1  0  0  0  0
 33 34  2  0  0  0  0
 33 62  1  0  0  0  0
 34 35  1  0  0  0  0
 34 28  1  0  0  0  0
 35 36  2  0  0  0  0
 35  9  1  0  0  0  0
M  END
$$$$

 OpenBabel07292611443D

 49 50  0  0  0  0  0  0  0  0999 V2000
   -7.8026   -0.3962    0.6198 C   0  0  0  0  0  0  0  0  0  0  0  0
   -7.6812    0.9846    0.2230 N   0  0  0  0  0  0  0  0  0  0  0  0
   -6.4157    1.1928   -0.9517 S   0  0  0  0  0  0  0  0  0  0  0  0
   -6.3418    2.6454   -1.3203 O   0  0  0  0  0  0  0  0  0  0  0  0
   -6.7374    0.4125   -2.1928 O   0  0  0  0  0  0  0  0  0  0  0  0
   -4.9370    0.7397   -0.3016 O   0  0  0  0  0  0  0  0  0  0  0  0
   -4.2180    1.8593    0.0300 C   0  0  0  0  0  0  0  0  0  0  0  0
   -2.8948    1.5556    0.6334 C   0  0  0  0  0  0  0  0  0  0  0  0
   -2.1350    2.5137    0.9830 O   0  0  0  0  0  0  0  0  0  0  0  0
   -2.4686    0.1943    0.8244 N   0  0  0  0  0  0  0  0  0  0  0  0
   -1.1770   -0.1010    1.4143 C   0  0  1  0  0  0  0  0  0  0  0  0
   -1.3775   -0.8369    2.6874 C   0  0  0  0  0  0  0  0  0  0  0  0
   -0.2368   -0.7555    0.4772 C   0  0  0  0  0  0  0  0  0  0  0  0
   -0.6511   -1.7984   -0.3612 C   0  0  0  0  0  0  0  0  0  0  0  0
    0.2698   -2.3903   -1.2287 C   0  0  0  0  0  0  0  0  0  0  0  0
   -0.2102   -3.6965   -2.2919 Cl  0  0  0  0  0  0  0  0  0  0  0  0
    1.5854   -1.9816   -1.2908 C   0  0  0  0  0  0  0  0  0  0  0  0
    1.9957   -0.9503   -0.4619 C   0  0  0  0  0  0  0  0  0  0  0  0
    3.3766   -0.4736   -0.4804 C   0  0  0  0  0  0  0  0  0  0  0  0
    3.9101    0.0252    0.7075 C   0  0  0  0  0  0  0  0  0  0  0  0
    5.2052    0.4983    0.7898 C   0  0  0  0  0  0  0  0  0  0  0  0
    6.0000    0.4784   -0.3377 C   0  0  0  0  0  0  0  0  0  0  0  0
    7.6540    1.0567   -0.3354 S   0  0  0  0  0  0  0  0  0  0  0  0
    8.7487   -0.2374    0.0651 N   0  0  0  0  0  0  0  0  0  0  0  0
    7.7646    2.1415    0.6855 O   0  0  0  0  0  0  0  0  0  0  0  0
    8.0449    1.5731   -1.6902 O   0  0  0  0  0  0  0  0  0  0  0  0
    5.4759   -0.0169   -1.5246 C   0  0  0  0  0  0  0  0  0  0  0  0
    4.1687   -0.4928   -1.6015 C   0  0  0  0  0  0  0  0  0  0  0  0
    1.0975   -0.3562    0.3999 C   0  0  0  0  0  0  0  0  0  0  0  0
   -8.5871   -0.4924    1.3411 H   0  0  0  0  0  0  0  0  0  0  0  0
   -6.8801   -0.7261    1.0500 H   0  0  0  0  0  0  0  0  0  0  0  0
   -8.0307   -0.9948   -0.2372 H   0  0  0  0  0  0  0  0  0  0  0  0
   -7.4682    1.5495    1.0451 H   0  0  0  0  0  0  0  0  0  0  0  0
   -4.7872    2.4319    0.7322 H   0  0  0  0  0  0  0  0  0  0  0  0
   -4.0349    2.3963   -0.8772 H   0  0  0  0  0  0  0  0  0  0  0  0
   -3.0599   -0.5441    0.5518 H   0  0  0  0  0  0  0  0  0  0  0  0
   -0.6864    0.8220    1.6431 H   0  0  0  0  0  0  0  0  0  0  0  0
   -1.8677   -1.7669    2.4884 H   0  0  0  0  0  0  0  0  0  0  0  0
   -1.9811   -0.2497    3.3476 H   0  0  0  0  0  0  0  0  0  0  0  0
   -0.4283   -1.0246    3.1441 H   0  0  0  0  0  0  0  0  0  0  0  0
   -1.6292   -2.1269   -0.3381 H   0  0  0  0  0  0  0  0  0  0  0  0
    2.2487   -2.4334   -1.9396 H   0  0  0  0  0  0  0  0  0  0  0  0
    3.3180    0.0414    1.5526 H   0  0  0  0  0  0  0  0  0  0  0  0
    5.5734    0.8618    1.6827 H   0  0  0  0  0  0  0  0  0  0  0  0
    8.5104   -0.6124    0.9832 H   0  0  0  0  0  0  0  0  0  0  0  0
    9.7045    0.1184    0.0808 H   0  0  0  0  0  0  0  0  0  0  0  0
    6.0685   -0.0328   -2.3693 H   0  0  0  0  0  0  0  0  0  0  0  0
    3.7990   -0.8567   -2.4937 H   0  0  0  0  0  0  0  0  0  0  0  0
    1.4240    0.4104    1.0087 H   0  0  0  0  0  0  0  0  0  0  0  0
  1  2  1  0  0  0  0
  1 30  1  0  0  0  0
  1 31  1  0  0  0  0
  1 32  1  0  0  0  0
  2  3  1  0  0  0  0
  2 33  1  0  0  0  0
  3  4  2  0  0  0  0
  3  5  2  0  0  0  0
  3  6  1  0  0  0  0
  6  7  1  0  0  0  0
  7  8  1  0  0  0  0
  7 34  1  0  0  0  0
  7 35  1  0  0  0  0
  8  9  2  0  0  0  0
  8 10  1  0  0  0  0
 10 11  1  0  0  0  0
 10 36  1  0  0  0  0
 11 12  1  0  0  0  0
 11 13  1  0  0  0  0
 11 37  1  1  0  0  0
 12 38  1  0  0  0  0
 12 39  1  0  0  0  0
 12 40  1  0  0  0  0
 13 14  2  0  0  0  0
 14 15  1  0  0  0  0
 14 41  1  0  0  0  0
 15 16  1  0  0  0  0
 15 17  2  0  0  0  0
 17 18  1  0  0  0  0
 17 42  1  0  0  0  0
 18 19  1  0  0  0  0
 18 29  2  0  0  0  0
 19 20  2  0  0  0  0
 20 21  1  0  0  0  0
 20 43  1  0  0  0  0
 21 22  2  0  0  0  0
 21 44  1  0  0  0  0
 22 23  1  0  0  0  0
 22 27  1  0  0  0  0
 23 24  1  0  0  0  0
 23 25  2  0  0  0  0
 23 26  2  0  0  0  0
 24 45  1  0  0  0  0
 24 46  1  0  0  0  0
 27 28  2  0  0  0  0
 27 47  1  0  0  0  0
 28 19  1  0  0  0  0
 28 48  1  0  0  0  0
 29 13  1  0  0  0  0
 29 49  1  0  0  0  0
M  END
$$$$

 OpenBabel07292611443D

 66 71  0  0  0  0  0  0  0  0999 V2000
   -4.9730    2.4375   -4.1190 C   0  0  0  0  0  0  0  0  0  0  0  0
   -3.7415    2.6871   -3.3553 N   0  0  0  0  0  0  0  0  0  0  0  0
   -3.5210    1.9597   -2.1502 C   0  0  0  0  0  0  0  0  0  0  0  0
   -4.3644    1.1051   -1.7310 O   0  0  0  0  0  0  0  0  0  0  0  0
   -2.2655    2.2243   -1.3788 C   0  0  0  0  0  0  0  0  0  0  0  0
   -2.2004    1.4059   -0.1879 N   0  0  0  0  0  0  0  0  0  0  0  0
   -1.6154    0.0860   -0.1371 C   0  0  0  0  0  0  0  0  0  0  0  0
   -0.4958    0.0835    0.8796 C   0  0  2  0  0  0  0  0  0  0  0  0
    0.5241    1.1251    0.4631 C   0  0  0  0  0  0  0  0  0  0  0  0
    0.3223    2.3810    0.3853 O   0  0  0  0  0  0  0  0  0  0  0  0
    1.7592    0.4680    0.1687 N   0  0  0  0  0  0  0  0  0  0  0  0
    3.0650    1.0074    0.2737 C   0  0  0  0  0  0  0  0  0  0  0  0
    3.7320    0.9007    1.5022 C   0  0  0  0  0  0  0  0  0  0  0  0
    4.9753    1.4062    1.6306 N   0  0  0  0  0  0  0  0  0  0  0  0
    5.5850    2.0185    0.5751 C   0  0  0  0  0  0  0  0  0  0  0  0
    4.9448    2.1357   -0.6500 C   0  0  0  0  0  0  0  0  0  0  0  0
    5.5989    2.7665   -1.7125 C   0  0  0  0  0  0  0  0  0  0  0  0
    4.9059    2.8499   -2.9158 C   0  0  0  0  0  0  0  0  0  0  0  0
    3.6277    2.3363   -3.0672 C   0  0  0  0  0  0  0  0  0  0  0  0
    3.0046    1.7261   -2.0262 C   0  0  0  0  0  0  0  0  0  0  0  0
    3.6661    1.6206   -0.7974 C   0  0  0  0  0  0  0  0  0  0  0  0
    1.3479   -0.8760   -0.2630 C   0  0  0  0  0  0  0  0  0  0  0  0
    0.3208   -1.1490    0.8508 C   0  0  2  0  0  0  0  0  0  0  0  0
   -0.4215   -2.4314    0.6287 C   0  0  0  0  0  0  0  0  0  0  0  0
    0.4265   -3.6014    0.6023 N   0  0  0  0  0  0  0  0  0  0  0  0
   -0.1110   -4.9043    0.4193 C   0  0  0  0  0  0  0  0  0  0  0  0
   -0.4144   -5.6732    1.4961 C   0  0  0  0  0  0  0  0  0  0  0  0
   -0.9467   -6.9589    1.3954 C   0  0  0  0  0  0  0  0  0  0  0  0
   -1.1593   -7.4336    0.1362 N   0  0  0  0  0  0  0  0  0  0  0  0
   -0.8617   -6.6786   -0.9349 C   0  0  0  0  0  0  0  0  0  0  0  0
   -0.3442   -5.4298   -0.8089 N   0  0  0  0  0  0  0  0  0  0  0  0
   -1.0254    0.5071    2.1732 C   0  0  0  0  0  0  0  0  0  0  0  0
   -0.5179    0.0910    3.3977 C   0  0  0  0  0  0  0  0  0  0  0  0
   -1.0461    0.5398    4.6054 C   0  0  0  0  0  0  0  0  0  0  0  0
   -0.3594   -0.0244    6.1383 Cl  0  0  0  0  0  0  0  0  0  0  0  0
   -2.1034    1.4228    4.6537 C   0  0  0  0  0  0  0  0  0  0  0  0
   -2.6153    1.8422    3.4453 C   0  0  0  0  0  0  0  0  0  0  0  0
   -2.0969    1.4012    2.2606 C   0  0  0  0  0  0  0  0  0  0  0  0
   -2.7499    1.9063    1.0329 C   0  0  0  0  0  0  0  0  0  0  0  0
   -3.7120    2.7123    1.0683 O   0  0  0  0  0  0  0  0  0  0  0  0
   -4.9848    3.0591   -4.9898 H   0  0  0  0  0  0  0  0  0  0  0  0
   -5.8228    2.6622   -3.5088 H   0  0  0  0  0  0  0  0  0  0  0  0
   -5.0075    1.4096   -4.4141 H   0  0  0  0  0  0  0  0  0  0  0  0
   -3.0810    3.3453   -3.6711 H   0  0  0  0  0  0  0  0  0  0  0  0
   -2.2411    3.2557   -1.0951 H   0  0  0  0  0  0  0  0  0  0  0  0
   -1.4288    1.9840   -2.0010 H   0  0  0  0  0  0  0  0  0  0  0  0
   -1.2263   -0.1714   -1.1000 H   0  0  0  0  0  0  0  0  0  0  0  0
   -2.3602   -0.6294    0.1430 H   0  0  0  0  0  0  0  0  0  0  0  0
    3.2742    0.4382    2.3032 H   0  0  0  0  0  0  0  0  0  0  0  0
    6.5369    2.4003    0.6897 H   0  0  0  0  0  0  0  0  0  0  0  0
    6.5506    3.1519   -1.6090 H   0  0  0  0  0  0  0  0  0  0  0  0
    5.3582    3.3091   -3.7218 H   0  0  0  0  0  0  0  0  0  0  0  0
    3.1465    2.4180   -3.9765 H   0  0  0  0  0  0  0  0  0  0  0  0
    2.0527    1.3440   -2.1401 H   0  0  0  0  0  0  0  0  0  0  0  0
    2.1591   -1.5735   -0.2470 H   0  0  0  0  0  0  0  0  0  0  0  0
    0.9872   -0.9586   -1.2670 H   0  0  0  0  0  0  0  0  0  0  0  0
    0.7511   -1.3242    1.8147 H   0  0  0  0  0  0  0  0  0  0  0  0
   -0.9346   -2.3659   -0.3080 H   0  0  0  0  0  0  0  0  0  0  0  0
   -1.0900   -2.5507    1.4556 H   0  0  0  0  0  0  0  0  0  0  0  0
    1.3987   -3.4934    0.7136 H   0  0  0  0  0  0  0  0  0  0  0  0
   -0.2425   -5.2869    2.4375 H   0  0  0  0  0  0  0  0  0  0  0  0
   -1.1680   -7.5215    2.2318 H   0  0  0  0  0  0  0  0  0  0  0  0
   -1.0312   -7.0585   -1.8793 H   0  0  0  0  0  0  0  0  0  0  0  0
    0.2741   -0.5704    3.4127 H   0  0  0  0  0  0  0  0  0  0  0  0
   -2.4923    1.7534    5.5506 H   0  0  0  0  0  0  0  0  0  0  0  0
   -3.4074    2.5037    3.4348 H   0  0  0  0  0  0  0  0  0  0  0  0
  1  2  1  0  0  0  0
  1 41  1  0  0  0  0
  1 42  1  0  0  0  0
  1 43  1  0  0  0  0
  2  3  1  0  0  0  0
  2 44  1  0  0  0  0
  3  4  2  0  0  0  0
  3  5  1  0  0  0  0
  5  6  1  0  0  0  0
  5 45  1  0  0  0  0
  5 46  1  0  0  0  0
  6  7  1  0  0  0  0
  7 47  1  0  0  0  0
  7 48  1  0  0  0  0
  8  7  1  0  0  0  0
  8  9  1  6  0  0  0
  8 32  1  0  0  0  0
  9 10  2  0  0  0  0
  9 11  1  0  0  0  0
 11 12  1  0  0  0  0
 11 22  1  0  0  0  0
 12 13  2  0  0  0  0
 13 14  1  0  0  0  0
 13 49  1  0  0  0  0
 14 15  2  0  0  0  0
 15 16  1  0  0  0  0
 15 50  1  0  0  0  0
 16 17  2  0  0  0  0
 17 18  1  0  0  0  0
 17 51  1  0  0  0  0
 18 19  2  0  0  0  0
 18 52  1  0  0  0  0
 19 20  1  0  0  0  0
 19 53  1  0  0  0  0
 20 21  2  0  0  0  0
 20 54  1  0  0  0  0
 21 12  1  0  0  0  0
 21 16  1  0  0  0  0
 22 23  1  0  0  0  0
 22 55  1  0  0  0  0
 22 56  1  0  0  0  0
 23 24  1  0  0  0  0
 23  8  1  0  0  0  0
 23 57  1  1  0  0  0
 24 25  1  0  0  0  0
 24 58  1  0  0  0  0
 24 59  1  0  0  0  0
 25 26  1  0  0  0  0
 25 60  1  0  0  0  0
 26 27  2  0  0  0  0
 27 28  1  0  0  0  0
 27 61  1  0  0  0  0
 28 29  2  0  0  0  0
 28 62  1  0  0  0  0
 29 30  1  0  0  0  0
 30 31  2  0  0  0  0
 30 63  1  0  0  0  0
 31 26  1  0  0  0  0
 32 33  2  0  0  0  0
 33 34  1  0  0  0  0
 33 64  1  0  0  0  0
 34 35  1  0  0  0  0
 34 36  2  0  0  0  0
 36 37  1  0  0  0  0
 36 65  1  0  0  0  0
 37 38  2  0  0  0  0
 37 66  1  0  0  0  0
 38 39  1  0  0  0  0
 38 32  1  0  0  0  0
 39 40  2  0  0  0  0
 39  6  1  0  0  0  0
M  END
$$$$

 OpenBabel07292611443D

 66 70  0  0  0  0  0  0  0  0999 V2000
    5.8503    0.4392    1.9882 C   0  0  0  0  0  0  0  0  0  0  0  0
    4.6422    0.7043    1.2077 N   0  0  0  0  0  0  0  0  0  0  0  0
    3.9701    1.9472    1.2276 C   0  0  0  0  0  0  0  0  0  0  0  0
    4.4041    2.8912    1.9396 O   0  0  0  0  0  0  0  0  0  0  0  0
    2.7520    2.0938    0.3897 C   0  0  0  0  0  0  0  0  0  0  0  0
    2.4295    0.8834   -0.3500 N   0  0  0  0  0  0  0  0  0  0  0  0
    1.5689   -0.1595    0.1809 C   0  0  0  0  0  0  0  0  0  0  0  0
    0.4220   -0.3493   -0.7788 C   0  0  2  0  0  0  0  0  0  0  0  0
   -0.3875    0.8973   -0.7021 C   0  0  0  0  0  0  0  0  0  0  0  0
   -0.2167    1.9376   -1.4163 O   0  0  0  0  0  0  0  0  0  0  0  0
   -1.3654    0.6850    0.3105 N   0  0  0  0  0  0  0  0  0  0  0  0
   -2.3776    1.6218    0.6800 C   0  0  0  0  0  0  0  0  0  0  0  0
   -3.5759    1.5111   -0.0368 C   0  0  0  0  0  0  0  0  0  0  0  0
   -4.5787    2.3431    0.2386 N   0  0  0  0  0  0  0  0  0  0  0  0
   -4.4560    3.2862    1.1939 C   0  0  0  0  0  0  0  0  0  0  0  0
   -3.3004    3.4097    1.9011 C   0  0  0  0  0  0  0  0  0  0  0  0
   -3.1858    4.3792    2.8777 C   0  0  0  0  0  0  0  0  0  0  0  0
   -1.9930    4.4804    3.5832 C   0  0  0  0  0  0  0  0  0  0  0  0
   -0.9290    3.6179    3.3101 C   0  0  0  0  0  0  0  0  0  0  0  0
   -1.0413    2.6490    2.3351 C   0  0  0  0  0  0  0  0  0  0  0  0
   -2.2229    2.5679    1.6546 C   0  0  0  0  0  0  0  0  0  0  0  0
   -1.1598   -0.6291    0.8936 C   0  0  0  0  0  0  0  0  0  0  0  0
   -0.5957   -1.3594   -0.3207 C   0  0  2  0  0  0  0  0  0  0  0  0
   -0.0665   -2.6952   -0.0115 C   0  0  0  0  0  0  0  0  0  0  0  0
   -1.0702   -3.5302    0.3818 O   0  0  0  0  0  0  0  0  0  0  0  0
   -2.0665   -3.8241   -0.4844 C   0  0  0  0  0  0  0  0  0  0  0  0
   -2.1486   -5.2929   -0.8570 C   0  0  0  0  0  0  0  0  0  0  0  0
   -3.3871   -3.3454    0.0778 C   0  0  0  0  0  0  0  0  0  0  0  0
    0.9153   -0.6079   -2.1449 C   0  0  0  0  0  0  0  0  0  0  0  0
    0.2260   -1.3392   -3.0919 C   0  0  0  0  0  0  0  0  0  0  0  0
    0.7201   -1.5613   -4.3716 C   0  0  0  0  0  0  0  0  0  0  0  0
   -0.2032   -2.5053   -5.5469 Cl  0  0  0  0  0  0  0  0  0  0  0  0
    1.9415   -1.0531   -4.7602 C   0  0  0  0  0  0  0  0  0  0  0  0
    2.6426   -0.3214   -3.8287 C   0  0  0  0  0  0  0  0  0  0  0  0
    2.1528   -0.1075   -2.5768 C   0  0  0  0  0  0  0  0  0  0  0  0
    2.9653    0.6784   -1.6522 C   0  0  0  0  0  0  0  0  0  0  0  0
    4.0854    1.1645   -1.9573 O   0  0  0  0  0  0  0  0  0  0  0  0
    6.1757   -0.5647    1.8118 H   0  0  0  0  0  0  0  0  0  0  0  0
    5.6378    0.5676    3.0290 H   0  0  0  0  0  0  0  0  0  0  0  0
    6.6212    1.1208    1.6948 H   0  0  0  0  0  0  0  0  0  0  0  0
    4.2806   -0.0162    0.6425 H   0  0  0  0  0  0  0  0  0  0  0  0
    2.9104    2.8893   -0.3081 H   0  0  0  0  0  0  0  0  0  0  0  0
    1.9319    2.2996    1.0454 H   0  0  0  0  0  0  0  0  0  0  0  0
    1.1953    0.1313    1.1405 H   0  0  0  0  0  0  0  0  0  0  0  0
    2.1158   -1.0724    0.2922 H   0  0  0  0  0  0  0  0  0  0  0  0
   -3.6806    0.7927   -0.7703 H   0  0  0  0  0  0  0  0  0  0  0  0
   -5.2460    3.9204    1.3906 H   0  0  0  0  0  0  0  0  0  0  0  0
   -3.9716    5.0169    3.0799 H   0  0  0  0  0  0  0  0  0  0  0  0
   -1.8923    5.1999    4.3161 H   0  0  0  0  0  0  0  0  0  0  0  0
   -0.0499    3.7065    3.8433 H   0  0  0  0  0  0  0  0  0  0  0  0
   -0.2600    2.0077    2.1269 H   0  0  0  0  0  0  0  0  0  0  0  0
   -2.0776   -1.0643    1.2300 H   0  0  0  0  0  0  0  0  0  0  0  0
   -0.5389   -0.6481    1.7648 H   0  0  0  0  0  0  0  0  0  0  0  0
   -1.3104   -1.6179   -1.0739 H   0  0  0  0  0  0  0  0  0  0  0  0
    0.6529   -2.6146    0.7765 H   0  0  0  0  0  0  0  0  0  0  0  0
    0.3913   -3.0968   -0.8913 H   0  0  0  0  0  0  0  0  0  0  0  0
   -1.8406   -3.3086   -1.3944 H   0  0  0  0  0  0  0  0  0  0  0  0
   -2.3738   -5.8701    0.0154 H   0  0  0  0  0  0  0  0  0  0  0  0
   -1.2110   -5.6109   -1.2628 H   0  0  0  0  0  0  0  0  0  0  0  0
   -2.9189   -5.4334   -1.5863 H   0  0  0  0  0  0  0  0  0  0  0  0
   -3.5989   -3.8694    0.9864 H   0  0  0  0  0  0  0  0  0  0  0  0
   -4.1657   -3.5328   -0.6318 H   0  0  0  0  0  0  0  0  0  0  0  0
   -3.3306   -2.2955    0.2764 H   0  0  0  0  0  0  0  0  0  0  0  0
   -0.6924   -1.7365   -2.8393 H   0  0  0  0  0  0  0  0  0  0  0  0
    2.3141   -1.2144   -5.7090 H   0  0  0  0  0  0  0  0  0  0  0  0
    3.5606    0.0741   -4.0853 H   0  0  0  0  0  0  0  0  0  0  0  0
  1  2  1  0  0  0  0
  1 38  1  0  0  0  0
  1 39  1  0  0  0  0
  1 40  1  0  0  0  0
  2  3  1  0  0  0  0
  2 41  1  0  0  0  0
  3  4  2  0  0  0  0
  3  5  1  0  0  0  0
  5  6  1  0  0  0  0
  5 42  1  0  0  0  0
  5 43  1  0  0  0  0
  6  7  1  0  0  0  0
  7 44  1  0  0  0  0
  7 45  1  0  0  0  0
  8  7  1  0  0  0  0
  8  9  1  6  0  0  0
  8 29  1  0  0  0  0
  9 10  2  0  0  0  0
  9 11  1  0  0  0  0
 11 12  1  0  0  0  0
 11 22  1  0  0  0  0
 12 13  2  0  0  0  0
 13 14  1  0  0  0  0
 13 46  1  0  0  0  0
 14 15  2  0  0  0  0
 15 16  1  0  0  0  0
 15 47  1  0  0  0  0
 16 17  2  0  0  0  0
 17 18  1  0  0  0  0
 17 48  1  0  0  0  0
 18 19  2  0  0  0  0
 18 49  1  0  0  0  0
 19 20  1  0  0  0  0
 19 50  1  0  0  0  0
 20 21  2  0  0  0  0
 20 51  1  0  0  0  0
 21 12  1  0  0  0  0
 21 16  1  0  0  0  0
 22 23  1  0  0  0  0
 22 52  1  0  0  0  0
 22 53  1  0  0  0  0
 23 24  1  0  0  0  0
 23  8  1  0  0  0  0
 23 54  1  6  0  0  0
 24 25  1  0  0  0  0
 24 55  1  0  0  0  0
 24 56  1  0  0  0  0
 25 26  1  0  0  0  0
 26 27  1  0  0  0  0
 26 28  1  0  0  0  0
 26 57  1  0  0  0  0
 27 58  1  0  0  0  0
 27 59  1  0  0  0  0
 27 60  1  0  0  0  0
 28 61  1  0  0  0  0
 28 62  1  0  0  0  0
 28 63  1  0  0  0  0
 29 30  2  0  0  0  0
 30 31  1  0  0  0  0
 30 64  1  0  0  0  0
 31 32  1  0  0  0  0
 31 33  2  0  0  0  0
 33 34  1  0  0  0  0
 33 65  1  0  0  0  0
 34 35  2  0  0  0  0
 34 66  1  0  0  0  0
 35 36  1  0  0  0  0
 35 29  1  0  0  0  0
 36 37  2  0  0  0  0
 36  6  1  0  0  0  0
M  END
$$$$

 OpenBabel07292611443D

 40 43  0  0  0  0  0  0  0  0999 V2000
    4.7694   -1.3624    0.5740 C   0  0  0  0  0  0  0  0  0  0  0  0
    3.6539   -0.6895   -0.1935 C   0  0  2  0  0  0  0  0  0  0  0  0
    4.2157    0.3099   -1.1761 C   0  0  0  0  0  0  0  0  0  0  0  0
    3.2516    1.1554   -1.6645 O   0  0  0  0  0  0  0  0  0  0  0  0
    1.9619    0.6738   -1.5025 C   0  0  0  0  0  0  0  0  0  0  0  0
    1.5660    0.5575   -0.0565 C   0  0  1  0  0  0  0  0  0  0  0  0
    2.7361    0.0585    0.7502 C   0  0  0  0  0  0  0  0  0  0  0  0
    1.0585    1.8191    0.4433 N   0  0  0  0  0  0  0  0  0  0  0  0
   -0.2472    1.6385    0.9801 C   0  0  0  0  0  0  0  0  0  0  0  0
   -0.9202    2.5399    1.5561 O   0  0  0  0  0  0  0  0  0  0  0  0
   -0.6656    0.2873    0.7628 N   0  0  0  0  0  0  0  0  0  0  0  0
   -1.9201   -0.2011    1.1838 C   0  0  0  0  0  0  0  0  0  0  0  0
   -2.1859   -0.7683    2.3920 C   0  0  0  0  0  0  0  0  0  0  0  0
   -3.4284   -1.2093    2.7056 N   0  0  0  0  0  0  0  0  0  0  0  0
   -4.4607   -1.1084    1.8383 C   0  0  0  0  0  0  0  0  0  0  0  0
   -4.2436   -0.5394    0.5961 C   0  0  0  0  0  0  0  0  0  0  0  0
   -5.2762   -0.4114   -0.3368 C   0  0  0  0  0  0  0  0  0  0  0  0
   -5.0410    0.1655   -1.5871 C   0  0  0  0  0  0  0  0  0  0  0  0
   -3.7682    0.6074   -1.8845 C   0  0  0  0  0  0  0  0  0  0  0  0
   -2.7534    0.4825   -0.9699 C   0  0  0  0  0  0  0  0  0  0  0  0
   -2.9720   -0.0875    0.2737 C   0  0  0  0  0  0  0  0  0  0  0  0
    0.4055   -0.3404    0.0890 C   0  0  0  0  0  0  0  0  0  0  0  0
    0.3558   -1.5275   -0.3303 O   0  0  0  0  0  0  0  0  0  0  0  0
    5.4068   -1.8852   -0.1081 H   0  0  0  0  0  0  0  0  0  0  0  0
    4.3527   -2.0551    1.2750 H   0  0  0  0  0  0  0  0  0  0  0  0
    5.3381   -0.6231    1.0983 H   0  0  0  0  0  0  0  0  0  0  0  0
    3.1122   -1.4542   -0.7100 H   0  0  0  0  0  0  0  0  0  0  0  0
    4.6549   -0.2212   -1.9946 H   0  0  0  0  0  0  0  0  0  0  0  0
    4.9426    0.9031   -0.6616 H   0  0  0  0  0  0  0  0  0  0  0  0
    1.8981   -0.2941   -1.9543 H   0  0  0  0  0  0  0  0  0  0  0  0
    1.2950    1.3702   -1.9663 H   0  0  0  0  0  0  0  0  0  0  0  0
    2.3937   -0.5974    1.5232 H   0  0  0  0  0  0  0  0  0  0  0  0
    3.2526    0.8752    1.2097 H   0  0  0  0  0  0  0  0  0  0  0  0
    1.5448    2.6747    0.4157 H   0  0  0  0  0  0  0  0  0  0  0  0
   -1.4258   -0.8645    3.0834 H   0  0  0  0  0  0  0  0  0  0  0  0
   -5.3983   -1.4514    2.0995 H   0  0  0  0  0  0  0  0  0  0  0  0
   -6.2229   -0.7467   -0.0994 H   0  0  0  0  0  0  0  0  0  0  0  0
   -5.8045    0.2594   -2.2751 H   0  0  0  0  0  0  0  0  0  0  0  0
   -3.5778    1.0360   -2.8038 H   0  0  0  0  0  0  0  0  0  0  0  0
   -1.8088    0.8197   -1.2130 H   0  0  0  0  0  0  0  0  0  0  0  0
  1 24  1  0  0  0  0
  1 25  1  0  0  0  0
  1 26  1  0  0  0  0
  2  1  1  0  0  0  0
  2  3  1  0  0  0  0
  2 27  1  6  0  0  0
  3  4  1  0  0  0  0
  3 28  1  0  0  0  0
  3 29  1  0  0  0  0
  4  5  1  0  0  0  0
  5 30  1  0  0  0  0
  5 31  1  0  0  0  0
  6  5  1  0  0  0  0
  6  7  1  0  0  0  0
  6  8  1  0  0  0  0
  6 22  1  1  0  0  0
  7  2  1  0  0  0  0
  7 32  1  0  0  0  0
  7 33  1  0  0  0  0
  8  9  1  0  0  0  0
  8 34  1  0  0  0  0
  9 10  2  0  0  0  0
  9 11  1  0  0  0  0
 11 12  1  0  0  0  0
 11 22  1  0  0  0  0
 12 13  2  0  0  0  0
 13 14  1  0  0  0  0
 13 35  1  0  0  0  0
 14 15  2  0  0  0  0
 15 16  1  0  0  0  0
 15 36  1  0  0  0  0
 16 17  2  0  0  0  0
 17 18  1  0  0  0  0
 17 37  1  0  0  0  0
 18 19  2  0  0  0  0
 18 38  1  0  0  0  0
 19 20  1  0  0  0  0
 19 39  1  0  0  0  0
 20 21  2  0  0  0  0
 20 40  1  0  0  0  0
 21 12  1  0  0  0  0
 21 16  1  0  0  0  0
 22 23  2  0  0  0  0
M  END
$$$$
