obj01
 OpenBabel07292611443D

 43 47  0  0  0  0  0  0  0  0999 V2000
   -8.4780   -0.1800  -21.3960 O   0  0  0  0  0  0  0  0  0  0  0  0
   -8.0440   -1.3030  -21.5840 C   0  0  0  0  0  0  0  0  0  0  0  0
   -8.6230   -2.3630  -22.5080 C   0  0  2  0  0  0  0  0  0  0  0  0
   -9.1440   -1.9310  -23.9030 C   0  0  0  0  0  0  0  0  0  0  0  0
  -10.0540   -2.8540  -22.1810 C   0  0  0  0  0  0  0  0  0  0  0  0
  -10.6090   -2.1970  -23.4680 C   0  0  1  0  0  0  0  0  0  0  0  0
  -11.5950   -1.0440  -23.3620 C   0  0  0  0  0  0  0  0  0  0  0  0
  -11.1800    0.2640  -23.6030 C   0  0  0  0  0  0  0  0  0  0  0  0
  -12.0560    1.3320  -23.4730 C   0  0  0  0  0  0  0  0  0  0  0  0
  -13.3670    1.1120  -23.1080 C   0  0  0  0  0  0  0  0  0  0  0  0
  -13.8160   -0.1770  -22.8750 C   0  0  0  0  0  0  0  0  0  0  0  0
  -12.9290   -1.2350  -22.9990 C   0  0  0  0  0  0  0  0  0  0  0  0
  -13.5380   -2.8350  -22.6920 Cl  0  0  0  0  0  0  0  0  0  0  0  0
   -6.8870   -1.8440  -21.0230 N   0  0  0  0  0  0  0  0  0  0  0  0
   -6.6060   -3.1090  -21.5380 C   0  0  0  0  0  0  0  0  0  0  0  0
   -5.6360   -3.8020  -21.2470 O   0  0  0  0  0  0  0  0  0  0  0  0
   -7.5980   -3.4010  -22.4140 N   0  0  0  0  0  0  0  0  0  0  0  0
   -6.1270   -1.1950  -19.9890 C   0  0  0  0  0  0  0  0  0  0  0  0
   -6.5160   -1.2780  -18.6550 C   0  0  0  0  0  0  0  0  0  0  0  0
   -6.0160   -0.5150  -17.6740 N   0  0  0  0  0  0  0  0  0  0  0  0
   -5.0870    0.3760  -18.0060 C   0  0  0  0  0  0  0  0  0  0  0  0
   -4.5940    0.5680  -19.3220 C   0  0  0  0  0  0  0  0  0  0  0  0
   -5.1360   -0.2460  -20.3550 C   0  0  0  0  0  0  0  0  0  0  0  0
   -3.5720    1.4960  -19.6420 C   0  0  0  0  0  0  0  0  0  0  0  0
   -3.1060    1.6040  -20.9210 C   0  0  0  0  0  0  0  0  0  0  0  0
   -3.6320    0.8130  -21.9340 C   0  0  0  0  0  0  0  0  0  0  0  0
   -4.6240   -0.0880  -21.6700 C   0  0  0  0  0  0  0  0  0  0  0  0
   -8.8094   -2.5575  -24.7033 H   0  0  0  0  0  0  0  0  0  0  0  0
   -8.8714   -0.9761  -24.3015 H   0  0  0  0  0  0  0  0  0  0  0  0
  -10.4560   -2.4436  -21.2783 H   0  0  0  0  0  0  0  0  0  0  0  0
  -10.2297   -3.8933  -21.9971 H   0  0  0  0  0  0  0  0  0  0  0  0
  -11.2865   -2.7198  -24.1104 H   0  0  0  0  0  0  0  0  0  0  0  0
  -10.2029    0.4417  -23.8834 H   0  0  0  0  0  0  0  0  0  0  0  0
  -11.7254    2.2934  -23.6500 H   0  0  0  0  0  0  0  0  0  0  0  0
  -14.0148    1.9092  -23.0083 H   0  0  0  0  0  0  0  0  0  0  0  0
  -14.7992   -0.3480  -22.6122 H   0  0  0  0  0  0  0  0  0  0  0  0
   -7.6257   -4.2341  -22.9379 H   0  0  0  0  0  0  0  0  0  0  0  0
   -7.2369   -1.9730  -18.4054 H   0  0  0  0  0  0  0  0  0  0  0  0
   -4.6982    0.9681  -17.2555 H   0  0  0  0  0  0  0  0  0  0  0  0
   -3.1761    2.0959  -18.9014 H   0  0  0  0  0  0  0  0  0  0  0  0
   -2.3562    2.2795  -21.1367 H   0  0  0  0  0  0  0  0  0  0  0  0
   -3.2698    0.9069  -22.8958 H   0  0  0  0  0  0  0  0  0  0  0  0
   -5.0069   -0.6622  -22.4373 H   0  0  0  0  0  0  0  0  0  0  0  0
  1  2  2  0  0  0  0
  2 14  1  0  0  0  0
  3  2  1  1  0  0  0
  3  4  1  0  0  0  0
  3  5  1  0  0  0  0
  3 17  1  0  0  0  0
  4  6  1  0  0  0  0
  4 28  1  0  0  0  0
  4 29  1  0  0  0  0
  5  6  1  0  0  0  0
  5 30  1  0  0  0  0
  5 31  1  0  0  0  0
  6  7  1  0  0  0  0
  6 32  1  6  0  0  0
  7  8  2  0  0  0  0
  7 12  1  0  0  0  0
  8  9  1  0  0  0  0
  8 33  1  0  0  0  0
  9 10  2  0  0  0  0
  9 34  1  0  0  0  0
 10 11  1  0  0  0  0
 10 35  1  0  0  0  0
 11 12  2  0  0  0  0
 11 36  1  0  0  0  0
 12 13  1  0  0  0  0
 14 15  1  0  0  0  0
 14 18  1  0  0  0  0
 15 16  2  0  0  0  0
 15 17  1  0  0  0  0
 17 37  1  0  0  0  0
 18 19  2  0  0  0  0
 18 23  1  0  0  0  0
 19 20  1  0  0  0  0
 19 38  1  0  0  0  0
 20 21  2  0  0  0  0
 21 22  1  0  0  0  0
 21 39  1  0  0  0  0
 22 23  2  0  0  0  0
 22 24  1  0  0  0  0
 23 27  1  0  0  0  0
 24 25  2  0  0  0  0
 24 40  1  0  0  0  0
 25 26  1  0  0  0  0
 25 41  1  0  0  0  0
 26 27  2  0  0  0  0
 26 42  1  0  0  0  0
 27 43  1  0  0  0  0
M  END
$$$$
