obj01
  PyMOL2.5          3D                             0

 43 47  0  0  0  0  0  0  0  0999 V2000
   -8.4780   -0.1800  -21.3960 O   0  0  0  0  0  0  0  0  0  0  0  0
   -8.0440   -1.3030  -21.5840 C   0  0  0  0  0  0  0  0  0  0  0  0
   -8.6230   -2.3630  -22.5080 C   0  0  0  0  0  0  0  0  0  0  0  0
   -9.1440   -1.9310  -23.9030 C   0  0  0  0  0  0  0  0  0  0  0  0
  -10.0540   -2.8540  -22.1810 C   0  0  0  0  0  0  0  0  0  0  0  0
  -10.6090   -2.1970  -23.4680 C   0  0  0  0  0  0  0  0  0  0  0  0
  -11.5950   -1.0440  -23.3620 C   0  0  0  0  0  0  0  0  0  0  0  0
  -11.1800    0.2640  -23.6030 C   0  0  0  0  0  0  0  0  0  0  0  0
  -12.0560    1.3320  -23.4730 C   0  0  0  0  0  0  0  0  0  0  0  0
  -13.3670    1.1120  -23.1080 C   0  0  0  0  0  0  0  0  0  0  0  0
  -13.8160   -0.1770  -22.8750 C   0  0  0  0  0  0  0  0  0  0  0  0
  -12.9290   -1.2350  -22.9990 C   0  0  0  0  0  0  0  0  0  0  0  0
  -13.5380   -2.8350  -22.6920 Cl  0  0  0  0  0  0  0  0  0  0  0  0
   -6.8870   -1.8440  -21.0230 N   0  0  0  0  0  0  0  0  0  0  0  0
   -6.6060   -3.1090  -21.5380 C   0  0  0  0  0  0  0  0  0  0  0  0
   -5.6360   -3.8020  -21.2470 O   0  0  0  0  0  0  0  0  0  0  0  0
   -7.5980   -3.4010  -22.4140 N   0  0  0  0  0  0  0  0  0  0  0  0
   -6.1270   -1.1950  -19.9890 C   0  0  0  0  0  0  0  0  0  0  0  0
   -6.5160   -1.2780  -18.6550 C   0  0  0  0  0  0  0  0  0  0  0  0
   -6.0160   -0.5150  -17.6740 N   0  0  0  0  0  0  0  0  0  0  0  0
   -5.0870    0.3760  -18.0060 C   0  0  0  0  0  0  0  0  0  0  0  0
   -4.5940    0.5680  -19.3220 C   0  0  0  0  0  0  0  0  0  0  0  0
   -5.1360   -0.2460  -20.3550 C   0  0  0  0  0  0  0  0  0  0  0  0
   -3.5720    1.4960  -19.6420 C   0  0  0  0  0  0  0  0  0  0  0  0
   -3.1060    1.6040  -20.9210 C   0  0  0  0  0  0  0  0  0  0  0  0
   -3.6320    0.8130  -21.9340 C   0  0  0  0  0  0  0  0  0  0  0  0
   -4.6240   -0.0880  -21.6700 C   0  0  0  0  0  0  0  0  0  0  0  0
   -8.9370   -0.8790  -24.1490 H   0  0  0  0  0  0  0  0  0  0  0  0
   -8.8000   -2.5750  -24.7260 H   0  0  0  0  0  0  0  0  0  0  0  0
  -10.1550   -3.9490  -22.1620 H   0  0  0  0  0  0  0  0  0  0  0  0
  -10.4680   -2.4320  -21.2520 H   0  0  0  0  0  0  0  0  0  0  0  0
  -11.0340   -2.9800  -24.1120 H   0  0  0  0  0  0  0  0  0  0  0  0
  -10.1570    0.4510  -23.8950 H   0  0  0  0  0  0  0  0  0  0  0  0
  -11.7110    2.3380  -23.6580 H   0  0  0  0  0  0  0  0  0  0  0  0
  -14.0450    1.9460  -23.0030 H   0  0  0  0  0  0  0  0  0  0  0  0
  -14.8450   -0.3560  -22.6010 H   0  0  0  0  0  0  0  0  0  0  0  0
   -7.6260   -4.2470  -22.9470 H   0  0  0  0  0  0  0  0  0  0  0  0
   -7.2700   -2.0050  -18.3940 H   0  0  0  0  0  0  0  0  0  0  0  0
   -4.6790    0.9960  -17.2200 H   0  0  0  0  0  0  0  0  0  0  0  0
   -3.1580    2.1230  -18.8660 H   0  0  0  0  0  0  0  0  0  0  0  0
   -2.3220    2.3110  -21.1470 H   0  0  0  0  0  0  0  0  0  0  0  0
   -3.2530    0.9110  -22.9410 H   0  0  0  0  0  0  0  0  0  0  0  0
   -5.0250   -0.6890  -22.4730 H   0  0  0  0  0  0  0  0  0  0  0  0
  1  2  2  0  0  0  0
  2  3  1  0  0  0  0
  2 14  1  0  0  0  0
  3  4  1  0  0  0  0
  3  5  1  0  0  0  0
  3 17  1  0  0  0  0
  4  6  1  0  0  0  0
  4 28  1  0  0  0  0
  4 29  1  0  0  0  0
  5  6  1  0  0  0  0
  5 30  1  0  0  0  0
  5 31  1  0  0  0  0
  6  7  1  0  0  0  0
  6 32  1  0  0  0  0
  7  8  4  0  0  0  0
  7 12  4  0  0  0  0
  8  9  4  0  0  0  0
  8 33  1  0  0  0  0
  9 10  4  0  0  0  0
  9 34  1  0  0  0  0
 10 11  4  0  0  0  0
 10 35  1  0  0  0  0
 11 12  4  0  0  0  0
 11 36  1  0  0  0  0
 12 13  1  0  0  0  0
 14 15  1  0  0  0  0
 14 18  1  0  0  0  0
 15 16  2  0  0  0  0
 15 17  1  0  0  0  0
 17 37  1  0  0  0  0
 18 19  4  0  0  0  0
 18 23  4  0  0  0  0
 19 20  4  0  0  0  0
 19 38  1  0  0  0  0
 20 21  4  0  0  0  0
 21 22  4  0  0  0  0
 21 39  1  0  0  0  0
 22 23  4  0  0  0  0
 22 24  4  0  0  0  0
 23 27  4  0  0  0  0
 24 25  4  0  0  0  0
 24 40  1  0  0  0  0
 25 26  4  0  0  0  0
 25 41  1  0  0  0  0
 26 27  4  0  0  0  0
 26 42  1  0  0  0  0
 27 43  1  0  0  0  0
M  END
$$$$
